data_functionalizedCrystal
_audit_creation_method	'MofGen! by Chris Wilmer'
_symmetry_space_group_name_H-M	'P1'
_symmetry_Int_Tables_number	1
_symmetry_cell_setting	triclinic
loop_
_symmetry_equiv_pos_as_xyz
  x,y,z
_cell_length_a	15.297327
_cell_length_b	12.759401
_cell_length_c	12.759393
_cell_angle_alpha	90.020566
_cell_angle_beta	99.642973
_cell_angle_gamma	80.295206
loop_
_atom_site_label
_atom_site_type_symbol
_atom_site_fract_x
_atom_site_fract_y
_atom_site_fract_z
Zn1	Zn	-0.359158	-1.533800	-0.666335
Zn2	Zn	-0.510042	-1.503248	-0.521039
Zn3	Zn	-0.359197	-1.358091	-0.490679
Zn4	Zn	-0.509970	-1.327662	-0.696663
O5	O	-0.434592	-1.430700	-0.593679
O6	O	-0.379187	-1.676765	-0.647074
O7	O	-0.490079	-1.483941	-0.370000
O8	O	-0.232947	-1.406920	-0.488582
O9	O	-0.490041	-1.654319	-0.540326
O10	O	-0.232919	-1.536013	-0.617635
O11	O	-0.379254	-1.377295	-0.347695
O12	O	-0.379184	-1.207036	-0.517990
O13	O	-0.489918	-1.355058	-0.839652
O14	O	-0.489956	-1.184680	-0.669325
O15	O	-0.379117	-1.506507	-0.817370
O16	O	-0.636277	-1.454435	-0.569734
O17	O	-0.636225	-1.325433	-0.698764
C18	C	-0.434567	-1.157738	-0.593655
C19	C	-0.434579	-1.040959	-0.593674
C20	C	-0.376959	-0.997765	-0.649381
C21	C	-0.376965	-0.888040	-0.649388
C22	C	-0.492217	-0.864710	-0.537978
C23	C	-0.492206	-0.974435	-0.537966
C24	C	-0.668985	-1.383345	-0.640858
C25	C	-0.769259	-1.363182	-0.661076
C26	C	-1.051900	-1.575239	-0.449533
C27	C	-0.957687	-1.594182	-0.430532
C28	C	-0.910575	-1.536434	-0.488167
C29	C	-0.957686	-1.459739	-0.564806
C30	C	-1.051907	-1.440788	-0.583803
C31	C	-0.910583	-1.401983	-0.622436
C32	C	-0.957693	-1.325288	-0.699075
C33	C	-1.051906	-1.306341	-0.718070
C34	C	-1.099017	-1.364089	-0.660435
C35	C	-0.816361	-1.420934	-0.603439
C36	C	-0.816369	-1.286483	-0.737708
C37	C	-0.910582	-1.267540	-0.756710
C38	C	-0.199284	-1.478269	-0.546339
C39	C	-0.099010	-1.498540	-0.526166
C40	C	-0.434505	-1.430796	-0.867695
C41	C	-0.434468	-1.430837	-0.984464
C42	C	-0.434609	-0.704730	-0.593698
C43	C	-0.434595	-0.821509	-0.593692
C44	C	-0.376765	-1.509703	-1.027724
C45	C	-0.376726	-1.509729	-1.137440
C46	C	-0.492102	-1.352017	-1.160629
C47	C	-0.492136	-1.351988	-1.050914
C48	C	-0.434613	-1.430678	-0.320716
C49	C	-0.434396	-1.430892	-0.203896
H50	H	-0.539127	-1.009603	-0.492597
H51	H	-0.778011	-1.239458	-0.784637
O52	O	-0.548027	-1.275303	-1.225114
C53	C	-0.591831	-1.087745	-1.267421
C54	C	-0.528422	-1.174518	-1.194335
H55	H	-0.576016	-1.006239	-1.242549
H56	H	-0.581897	-1.101221	-1.353282
H57	H	-0.664577	-1.091539	-1.260493
H58	H	-0.455651	-1.170775	-1.201171
H59	H	-0.538434	-1.161012	-1.108505
O60	O	-0.770704	-1.495362	-0.528875
C61	C	-0.741922	-1.552196	-0.344398
C62	C	-0.793700	-1.467836	-0.428742
H63	H	-0.760481	-1.529960	-0.263417
H64	H	-0.760398	-1.633203	-0.366559
H65	H	-0.666495	-1.555841	-0.340771
H66	H	-0.869139	-1.464095	-0.432412
H67	H	-0.775149	-1.386871	-0.406548
O68	O	-0.320894	-1.062242	-0.703505
C69	C	-0.206619	-1.073787	-0.814060
C70	C	-0.270055	-1.000653	-0.752789
H71	H	-0.165513	-1.024020	-0.853940
H72	H	-0.159331	-1.134655	-0.756446
H73	H	-0.248105	-1.116832	-0.877217
H74	H	-0.228641	-0.957537	-0.689631
H75	H	-0.317345	-0.939851	-0.810469
O76	O	-0.321122	-0.845941	-0.703583
C77	C	-0.309150	-0.724593	-0.843099
C78	C	-0.372496	-0.772163	-0.781790
H79	H	-0.350662	-0.664951	-0.906357
H80	H	-0.261942	-0.682665	-0.785519
H81	H	-0.267944	-0.791015	-0.882857
H82	H	-0.413761	-0.705804	-0.742028
H83	H	-0.419645	-0.814119	-0.839418
H84	H	-0.539124	-1.287759	-1.015692
O85	O	-0.819058	-1.554836	-0.469908
C86	C	-0.683769	-1.609045	-0.543359
C87	C	-0.787416	-1.588216	-0.564190
H88	H	-0.658155	-1.636059	-0.619565
H89	H	-0.658212	-1.532829	-0.516410
H90	H	-0.658208	-1.673744	-0.478647
H91	H	-0.813054	-1.523553	-0.628918
H92	H	-0.812912	-1.664482	-0.591080
O93	O	-0.911890	-1.668538	-0.355973
C94	C	-0.805564	-1.704131	-0.192736
C95	C	-0.857388	-1.619804	-0.277088
H96	H	-0.761473	-1.664765	-0.128949
H97	H	-0.855379	-1.742139	-0.154726
H98	H	-0.761425	-1.767942	-0.232138
H99	H	-0.901528	-1.555929	-0.237768
H100	H	-0.807524	-1.581880	-0.315093
O101	O	-0.548229	-0.800242	-0.483784
C102	C	-0.662589	-0.788676	-0.373344
C103	C	-0.599180	-0.861807	-0.434650
H104	H	-0.703813	-0.838419	-0.333621
H105	H	-0.621167	-0.745670	-0.310084
H106	H	-0.709776	-0.727777	-0.431014
H107	H	-0.551980	-0.922766	-0.377062
H108	H	-0.640659	-0.904736	-0.497924
O109	O	-1.097802	-1.631233	-0.393649
C110	C	-1.242952	-1.661492	-0.363293
C111	C	-1.191079	-1.598037	-0.426703
H112	H	-1.318376	-1.634662	-0.389977
H113	H	-1.224453	-1.749961	-0.378041
H114	H	-1.224420	-1.646780	-0.274851
H115	H	-1.209584	-1.612660	-0.515163
H116	H	-1.209583	-1.509589	-0.411865
O117	O	-1.190538	-1.345788	-0.679064
C118	C	-1.325652	-1.345517	-0.807079
C119	C	-1.222005	-1.366295	-0.786123
H120	H	-1.351124	-1.362067	-0.893639
H121	H	-1.351271	-1.400000	-0.752798
H122	H	-1.351292	-1.259017	-0.790324
H123	H	-1.196289	-1.452767	-0.802889
H124	H	-1.196447	-1.311744	-0.840395
H125	H	-1.090260	-1.243879	-0.780462
O126	O	-0.956488	-1.193042	-0.831079
C127	C	-1.101641	-1.104319	-0.919890
C128	C	-1.049765	-1.188699	-0.835620
H129	H	-1.177064	-1.100796	-0.923605
H130	H	-1.083257	-1.023284	-0.897660
H131	H	-1.082998	-1.126463	-1.000852
H132	H	-1.068380	-1.166655	-0.754628
H133	H	-1.068153	-1.269711	-0.857941
O134	O	-0.320613	-1.586202	-0.963196
C135	C	-0.167170	-1.668251	-0.898823
C136	C	-0.230664	-1.581557	-0.971921
H137	H	-0.094434	-1.664539	-0.905869
H138	H	-0.177024	-1.654702	-0.812945
H139	H	-0.183059	-1.749753	-0.923596
H140	H	-0.214815	-1.500019	-0.947244
H141	H	-0.220798	-1.595199	-1.057782
H142	H	-0.329737	-1.573949	-1.172656
