data_functionalizedCrystal
_audit_creation_method	'MofGen! by Chris Wilmer'
_symmetry_space_group_name_H-M	'P1'
_symmetry_Int_Tables_number	1
_symmetry_cell_setting	triclinic
loop_
_symmetry_equiv_pos_as_xyz
  x,y,z
_cell_length_a	22.010155
_cell_length_b	17.038272
_cell_length_c	17.038272
_cell_angle_alpha	91.111556
_cell_angle_beta	90.004343
_cell_angle_gamma	89.996609
loop_
_atom_site_label
_atom_site_type_symbol
_atom_site_fract_x
_atom_site_fract_y
_atom_site_fract_z
O1	O	0.050450	-1.048760	-0.170526
O2	O	0.550450	-0.548760	0.329474
O3	O	0.050468	-0.820948	-0.167818
O4	O	0.550468	-0.320948	0.332182
O5	O	0.050454	-0.933500	-0.055267
O6	O	0.550454	-0.433500	0.444733
O7	O	0.050463	-0.936208	-0.283078
O8	O	0.550463	-0.436208	0.216922
O9	O	-0.050596	-0.933479	-0.055283
O10	O	0.449404	-0.433479	0.444717
O11	O	-0.050583	-0.820927	-0.167835
O12	O	0.449417	-0.320927	0.332165
O13	O	-0.050601	-1.048739	-0.170543
O14	O	0.449399	-0.548739	0.329457
Cu15	Cu	-0.059818	-0.934831	-0.169190
Cu16	Cu	0.440182	-0.434831	0.330810
Cu17	Cu	0.059685	-0.934856	-0.169171
Cu18	Cu	0.559685	-0.434856	0.330829
O19	O	-0.050587	-0.936187	-0.283095
O20	O	0.449413	-0.436187	0.216905
C21	C	-0.000055	-0.791645	-0.165364
C22	C	0.499945	-0.291645	0.334636
C23	C	-0.000049	-0.704361	-0.158016
C24	C	0.499951	-0.204361	0.341984
N25	N	-0.143871	-0.934820	-0.169204
N26	N	0.356129	-0.434820	0.330796
C27	C	-0.000071	-0.931027	-0.025982
C28	C	0.499929	-0.431027	0.474018
C29	C	-0.000070	-0.923679	0.061301
C30	C	0.499930	-0.423679	0.561301
C31	C	-0.563656	-0.984697	-0.119341
C32	C	-0.063656	-0.484697	0.380659
C33	C	-0.627264	-0.984701	-0.119336
C34	C	-0.127264	-0.484701	0.380664
O35	O	-0.660161	-1.027077	-0.076948
O36	O	-0.160161	-0.527077	0.423052
N37	N	-0.659078	-0.934854	-0.169154
N38	N	-0.159078	-0.434854	0.330846
C39	C	-0.627281	-0.884995	-0.218976
C40	C	-0.127281	-0.384995	0.281024
O41	O	-0.660182	-0.842597	-0.261350
O42	O	-0.160182	-0.342597	0.238650
C43	C	-0.563675	-0.884989	-0.218976
C44	C	-0.063675	-0.384989	0.281024
C45	C	-0.531864	-0.934844	-0.169160
C46	C	-0.031864	-0.434844	0.330840
C47	C	-0.531845	-1.034548	-0.069528
C48	C	-0.031845	-0.534548	0.430472
C49	C	-0.468242	-1.034546	-0.069534
C50	C	0.031758	-0.534546	0.430466
C51	C	-0.436450	-0.984692	-0.119353
C52	C	0.063550	-0.484692	0.380647
C53	C	-0.468261	-0.934842	-0.169166
C54	C	0.031739	-0.434842	0.330834
C55	C	-0.531879	-0.835127	-0.268793
C56	C	-0.031879	-0.335127	0.231207
C57	C	-0.468268	-0.835124	-0.268789
C58	C	0.031732	-0.335124	0.231211
C59	C	-0.436458	-0.884979	-0.218973
C60	C	0.063542	-0.384979	0.281027
C61	C	-0.372865	-0.884986	-0.218992
C62	C	0.127135	-0.384986	0.281008
N63	N	-0.341051	-0.934833	-0.169173
N64	N	0.158949	-0.434833	0.330827
C65	C	-0.372843	-0.984686	-0.119354
C66	C	0.127157	-0.484686	0.380646
C67	C	-0.760859	-0.885012	-0.218970
C68	C	-0.260859	-0.385012	0.281030
C69	C	-0.824464	-0.885022	-0.218974
C70	C	-0.324464	-0.385022	0.281026
C71	C	-0.824443	-0.984727	-0.119332
C72	C	-0.324443	-0.484727	0.380668
C73	C	-0.760836	-0.984720	-0.119333
C74	C	-0.260836	-0.484720	0.380667
C75	C	-0.729045	-0.934859	-0.169151
C76	C	-0.229045	-0.434859	0.330849
C77	C	-0.239272	-0.984677	-0.119372
C78	C	0.260728	-0.484677	0.380628
C79	C	-0.175663	-0.984673	-0.119385
C80	C	0.324337	-0.484673	0.380615
C81	C	-0.175691	-0.884966	-0.219023
C82	C	0.324309	-0.384966	0.280977
C83	C	-0.239294	-0.884973	-0.219013
C84	C	0.260706	-0.384973	0.280987
C85	C	-0.271083	-0.934831	-0.169181
C86	C	0.228917	-0.434831	0.330819
O87	O	-0.339928	-0.842629	-0.261356
O88	O	0.160072	-0.342629	0.238644
O89	O	-0.339935	-1.027070	-0.076980
O90	O	0.160065	-0.527070	0.423020
N91	N	0.143738	-0.934873	-0.169151
N92	N	0.643738	-0.434873	0.330849
C93	C	-0.000076	-1.078042	-0.172997
C94	C	0.499924	-0.578042	0.327003
C95	C	-0.000079	-1.165326	-0.180346
C96	C	0.499921	-0.665326	0.319654
C97	C	-0.000046	-0.658752	-0.225479
C98	C	0.499954	-0.158752	0.274521
C99	C	-0.000055	-0.576740	-0.218570
C100	C	0.499945	-0.076740	0.281430
C101	C	-0.000062	-0.540339	-0.144197
C102	C	0.499938	-0.040339	0.355803
C103	C	-0.000066	-0.585954	-0.076728
C104	C	0.499934	-0.085954	0.423272
C105	C	-0.000062	-0.667965	-0.083638
C106	C	0.499938	-0.167965	0.416362
C107	C	-0.000079	-0.292951	-0.119787
C108	C	0.499921	0.207049	0.380213
C109	C	-0.000081	-0.210935	-0.112882
C110	C	0.499919	0.289065	0.387118
C111	C	-0.000072	-0.201726	-0.254725
C112	C	0.499928	0.298274	0.245275
C113	C	-0.000064	-0.283739	-0.261628
C114	C	0.499936	0.216261	0.238372
C115	C	-0.000071	-0.329347	-0.194159
C116	C	0.499929	0.170653	0.305841
C117	C	-0.000069	-0.456510	-0.137133
C118	C	0.499931	0.043490	0.362867
C119	C	-0.000069	-0.413174	-0.201224
C120	C	0.499931	0.086826	0.298776
C121	C	-0.000061	-0.938660	-0.312379
C122	C	0.499939	-0.438660	0.187621
C123	C	-0.000058	-0.946008	-0.399663
C124	C	0.499942	-0.446008	0.100337
C125	C	-0.000076	-0.991142	0.106911
C126	C	0.499924	-0.491142	0.606911
C127	C	-0.000070	-0.984233	0.188923
C128	C	0.499930	-0.484233	0.688923
C129	C	-0.000062	-0.909860	0.225324
C130	C	0.499938	-0.409860	0.725324
C131	C	-0.000054	-0.842391	0.179708
C132	C	0.499946	-0.342391	0.679708
C133	C	-0.000056	-0.849301	0.097698
C134	C	0.499944	-0.349301	0.597698
C135	C	-0.000052	-0.885449	0.472712
C136	C	0.499948	-0.385449	0.972712
C137	C	-0.000052	-0.878545	0.554728
C138	C	0.499948	-0.378545	1.054728
C139	C	-0.000066	-1.020387	0.563937
C140	C	0.499934	-0.520387	1.063937
C141	C	-0.000072	-1.027291	0.481924
C142	C	0.499928	-0.527291	0.981924
C143	C	-0.000061	-0.959822	0.436316
C144	C	0.499939	-0.459822	0.936316
C145	C	-0.000057	-0.902796	0.309153
C146	C	0.499943	-0.402796	0.809153
C147	C	-0.000061	-0.966886	0.352488
C148	C	0.499939	-0.466886	0.852488
H149	H	-0.149765	-1.025274	-0.078818
H150	H	0.350235	-0.525274	0.421182
F151	F	-0.565723	-0.782063	-0.321814
F152	F	-0.065723	-0.282063	0.178186
F153	F	-0.000065	-0.153181	-0.326524
F154	F	0.499935	0.346819	0.173476
F155	F	-0.434438	-0.782051	-0.321813
F156	F	0.065562	-0.282051	0.178187
F157	F	-0.858291	-1.037784	-0.066309
F158	F	-0.358291	-0.537784	0.433691
H159	H	-0.000054	-1.027441	0.322847
H160	H	0.499946	-0.527441	0.822847
H161	H	-0.734978	-0.844412	-0.259544
H162	H	-0.234978	-0.344412	0.240456
F163	F	-0.000066	-0.716505	-0.011834
F164	F	0.499934	-0.216505	0.488166
H165	H	-0.000051	-0.794365	0.060564
H166	H	0.499949	-0.294365	0.560564
H167	H	-0.000067	-0.442816	-0.261778
H168	H	0.499933	0.057184	0.238222
F169	F	-0.000039	-0.763237	0.218451
F170	F	0.499961	-0.263237	0.718451
F171	F	-0.000099	-0.172196	-0.033720
F172	F	0.499901	0.327804	0.466280
H173	H	-0.000076	-1.039170	0.226054
H174	H	0.499924	-0.539170	0.726054
H175	H	-0.000041	-0.688384	-0.286042
H176	H	0.499959	-0.188384	0.213958
H177	H	-0.000052	-0.842241	0.338800
H178	H	0.499948	-0.342241	0.838800
H179	H	-0.000085	-0.330076	-0.064848
H180	H	0.499915	0.169924	0.435152
F181	F	-0.000077	-1.092187	0.612481
F182	F	0.499923	-0.592187	1.112481
H183	H	-0.000080	-0.556310	-0.016172
H184	H	0.499920	-0.056310	0.483828
H185	H	-0.265148	-1.025275	-0.078793
H186	H	0.234852	-0.525275	0.421207
H187	H	-0.000052	-0.539608	-0.273507
H188	H	0.499948	-0.039608	0.226493
F189	F	-0.000039	-0.813642	0.424182
F190	F	0.499961	-0.313642	0.924182
F191	F	-0.000090	-1.070301	0.068177
F192	F	0.499910	-0.570301	0.568177
F193	F	-0.565673	-1.087612	-0.016498
F194	F	-0.065673	-0.587612	0.483502
F195	F	-0.434393	-1.087604	-0.016509
F196	F	0.065607	-0.587604	0.483491
H197	H	-0.265195	-0.844385	-0.259586
H198	H	0.234805	-0.344385	0.240414
F199	F	-0.000054	-0.322473	-0.340786
F200	F	0.499946	0.177527	0.159214
H201	H	-0.734940	-1.025316	-0.078768
H202	H	-0.234940	-0.525316	0.421232
H203	H	-0.000055	-0.817978	0.584363
H204	H	0.499945	-0.317978	1.084363
H205	H	-0.850360	-0.844435	-0.259548
H206	H	-0.350360	-0.344435	0.240452
H207	H	-0.000091	-0.426863	-0.076578
H208	H	0.499909	0.073137	0.423422
F209	F	-0.000065	-1.106449	0.443190
F210	F	0.499935	-0.606449	0.943190
F211	F	-0.141845	-0.831912	-0.272044
F212	F	0.358155	-0.331912	0.227956
