data_functionalizedCrystal
_audit_creation_method	'MofGen! by Chris Wilmer'
_symmetry_space_group_name_H-M	'P1'
_symmetry_Int_Tables_number	1
_symmetry_cell_setting	triclinic
loop_
_symmetry_equiv_pos_as_xyz
  x,y,z
_cell_length_a	19.188905
_cell_length_b	22.010155
_cell_length_c	19.188930
_cell_angle_alpha	90.005815
_cell_angle_beta	96.860332
_cell_angle_gamma	90.008914
loop_
_atom_site_label
_atom_site_type_symbol
_atom_site_fract_x
_atom_site_fract_y
_atom_site_fract_z
O1	O	0.926155	0.050632	-0.087069
O2	O	1.426155	0.550632	0.412931
O3	O	0.722841	0.050612	-0.098821
O4	O	1.222841	0.550612	0.401179
O5	O	0.830365	0.050611	0.008711
O6	O	1.330365	0.550611	0.508711
O7	O	0.818631	0.050633	-0.194601
O8	O	1.318631	0.550633	0.305399
O9	O	0.830358	-0.050440	0.008683
O10	O	1.330358	0.449560	0.508683
O11	O	0.722834	-0.050438	-0.098849
O12	O	1.222834	0.449562	0.401151
O13	O	0.926148	-0.050418	-0.087097
O14	O	1.426148	0.449582	0.412903
Cu15	Cu	0.824490	-0.059655	-0.092976
Cu16	Cu	1.324490	0.440345	0.407024
Cu17	Cu	0.824499	0.059849	-0.092942
Cu18	Cu	1.324499	0.559849	0.407058
O19	O	0.818623	-0.050417	-0.194629
O20	O	1.318623	0.449583	0.305371
C21	C	0.696826	0.000084	-0.098458
C22	C	1.196826	0.500084	0.401542
C23	C	0.619321	0.000076	-0.097324
C24	C	1.119321	0.500076	0.402676
C25	C	0.582933	0.055160	-0.096764
C26	C	1.082933	0.555160	0.403236
C27	C	0.510109	0.055168	-0.095691
C28	C	1.010109	0.555168	0.404309
C29	C	0.473678	0.000088	-0.095164
C30	C	0.973678	0.500088	0.404836
C31	C	0.510074	-0.055003	-0.095728
C32	C	1.010074	0.444997	0.404272
C33	C	0.582895	-0.055009	-0.096808
C34	C	1.082895	0.444991	0.403192
N35	N	0.364655	-0.040907	-0.053747
N36	N	0.864655	0.459093	0.446253
N37	N	0.295478	-0.040898	-0.052719
N38	N	0.795478	0.459102	0.447281
C39	C	0.254272	0.000102	-0.091911
C40	C	0.754272	0.500102	0.408089
N41	N	0.284857	0.041102	-0.132161
N42	N	0.784857	0.541102	0.367839
N43	N	0.354040	0.041094	-0.133185
N44	N	0.854040	0.541094	0.366815
C45	C	0.394716	0.000088	-0.093993
C46	C	0.894716	0.500088	0.406007
C47	C	0.138920	0.055198	-0.090189
C48	C	0.638920	0.555198	0.409811
C49	C	0.066094	0.055203	-0.089120
C50	C	0.566094	0.555203	0.410880
C51	C	0.066061	-0.054969	-0.089150
C52	C	0.566061	0.445031	0.410850
C53	C	0.138885	-0.054973	-0.090226
C54	C	0.638885	0.445027	0.409774
C55	C	0.175310	0.000113	-0.090742
C56	C	0.675310	0.500113	0.409258
N57	N	0.824489	-0.143707	-0.092999
N58	N	1.324489	0.356293	0.407001
C59	C	0.776861	-0.436319	-0.140559
C60	C	1.276861	0.063681	0.359441
C61	C	0.776859	-0.372711	-0.140565
C62	C	1.276859	0.127289	0.359435
O63	O	0.736344	-0.339819	-0.181031
O64	O	1.236344	0.160181	0.318969
N65	N	0.824483	-0.340892	-0.092972
N66	N	1.324483	0.159108	0.407028
C67	C	0.872108	-0.372683	-0.045365
C68	C	1.372108	0.127317	0.454635
O69	O	0.912615	-0.339777	-0.004884
O70	O	1.412615	0.160223	0.495116
C71	C	0.872106	-0.436289	-0.045356
C72	C	1.372106	0.063711	0.454644
C73	C	0.824483	-0.468106	-0.092957
C74	C	1.324483	0.031894	0.407043
C75	C	0.729242	-0.468135	-0.188155
C76	C	1.229242	0.031865	0.311845
C77	C	0.729245	-0.531738	-0.188149
C78	C	1.229245	-0.031738	0.311851
C79	C	0.776867	-0.563525	-0.140547
C80	C	1.276867	-0.063525	0.359453
C81	C	0.824486	-0.531709	-0.092951
C82	C	1.324486	-0.031709	0.407049
C83	C	0.919726	-0.468080	0.002253
C84	C	1.419726	0.031920	0.502253
C85	C	0.919720	-0.531690	0.002258
C86	C	1.419720	-0.031690	0.502258
C87	C	0.872097	-0.563507	-0.045342
C88	C	1.372097	-0.063507	0.454658
C89	C	0.872111	-0.627099	-0.045344
C90	C	1.372111	-0.127099	0.454656
N91	N	0.824487	-0.658919	-0.092937
N92	N	1.324487	-0.158919	0.407063
C93	C	0.776865	-0.627132	-0.140538
C94	C	1.276865	-0.127132	0.359462
C95	C	0.872108	-0.239105	-0.045387
C96	C	1.372108	0.260895	0.454613
C97	C	0.872114	-0.175500	-0.045399
C98	C	1.372114	0.324500	0.454601
C99	C	0.776864	-0.175532	-0.140598
C100	C	1.276864	0.324468	0.359402
C101	C	0.776862	-0.239139	-0.140589
C102	C	1.276862	0.260861	0.359411
C103	C	0.824484	-0.270925	-0.092980
C104	C	1.324484	0.229075	0.407020
C105	C	0.776875	-0.760703	-0.140523
C106	C	1.276875	-0.260703	0.359477
C107	C	0.776884	-0.824312	-0.140515
C108	C	1.276884	-0.324312	0.359485
C109	C	0.872130	-0.824274	-0.045315
C110	C	1.372130	-0.324274	0.454685
C111	C	0.872124	-0.760670	-0.045325
C112	C	1.372124	-0.260670	0.454675
C113	C	0.824490	-0.728887	-0.092932
C114	C	1.324490	-0.228887	0.407068
O115	O	0.912604	-0.660031	-0.004897
O116	O	1.412604	-0.160031	0.495103
O117	O	0.736358	-0.660045	-0.181006
O118	O	1.236358	-0.160045	0.318994
C119	C	0.952163	0.000111	-0.087460
C120	C	1.452163	0.500111	0.412540
C121	C	1.029668	0.000123	-0.088594
C122	C	1.529668	0.500123	0.411406
C123	C	0.829982	0.000084	0.034708
C124	C	1.329982	0.500084	0.534708
C125	C	0.828841	0.000078	0.112213
C126	C	1.328841	0.500078	0.612213
N127	N	0.824506	0.143901	-0.092914
N128	N	1.324506	0.643901	0.407086
C129	C	0.819007	0.000111	-0.220626
C130	C	1.319007	0.500111	0.279374
C131	C	0.820148	0.000121	-0.298131
C132	C	1.320148	0.500121	0.201869
C133	C	0.891933	0.000082	0.157142
C134	C	1.391933	0.500082	0.657142
C135	C	0.890861	0.000091	0.229966
C136	C	1.390861	0.500091	0.729966
C137	C	0.826694	0.000086	0.257857
C138	C	1.326694	0.500086	0.757857
C139	C	0.763594	0.000086	0.212917
C140	C	1.263594	0.500086	0.712917
C141	C	0.764668	0.000082	0.140095
C142	C	1.264668	0.500082	0.640095
N143	N	0.777643	-0.034309	0.365848
N144	N	1.277643	0.465691	0.865848
N145	N	0.776628	-0.034307	0.435026
N146	N	1.276628	0.465693	0.935026
C147	C	0.823456	0.000098	0.477265
C148	C	1.323456	0.500098	0.977265
N149	N	0.871348	0.034492	0.447713
N150	N	1.371348	0.534492	0.947713
N151	N	0.872366	0.034487	0.378529
N152	N	1.372366	0.534487	0.878529
C153	C	0.825523	0.000090	0.336819
C154	C	1.325523	0.500090	0.836819
C155	C	0.885390	0.000112	0.601159
C156	C	1.385390	0.500112	1.101159
C157	C	0.884315	0.000125	0.673984
C158	C	1.384315	0.500125	1.173984
C159	C	0.757047	0.000114	0.656933
C160	C	1.257047	0.500114	1.156933
C161	C	0.758123	0.000106	0.584110
C162	C	1.258123	0.500106	1.084110
C163	C	0.822296	0.000103	0.556228
C164	C	1.322296	0.500103	1.056228
H165	H	0.612522	-0.099867	-0.097264
H166	H	1.112522	0.400133	0.402736
H167	H	0.706747	0.000100	0.547527
H168	H	1.206747	0.500100	1.047527
H169	H	0.738083	-0.265040	-0.179349
H170	H	1.238083	0.234960	0.320651
C171	C	0.131639	0.164099	-0.090069
C172	C	0.631639	0.664099	0.409931
C173	C	0.178962	0.115746	-0.090774
C174	C	0.678962	0.615746	0.409226
H175	H	0.156358	0.201478	-0.090437
H176	H	0.656358	0.701478	0.409563
H177	H	0.108694	0.161812	-0.048944
H178	H	0.608694	0.661812	0.451056
H179	H	0.097776	0.161804	-0.130357
H180	H	0.597776	0.661804	0.369643
H181	H	0.212822	0.118039	-0.050483
H182	H	0.712822	0.618039	0.449517
H183	H	0.201918	0.118035	-0.131904
H184	H	0.701918	0.618035	0.368096
C185	C	0.637906	0.000080	0.188751
C186	C	1.137906	0.500080	0.688751
C187	C	0.693060	0.000081	0.243571
C188	C	1.193060	0.500081	0.743571
H189	H	0.594360	0.000084	0.207677
H190	H	1.094360	0.500084	0.707677
H191	H	0.640966	-0.035157	0.160702
H192	H	1.140966	0.464843	0.660702
H193	H	0.640983	0.035320	0.160705
H194	H	1.140983	0.535320	0.660705
H195	H	0.689986	-0.035161	0.271615
H196	H	1.189986	0.464839	0.771615
H197	H	0.689999	0.035322	0.271632
H198	H	1.189999	0.535322	0.771632
H199	H	0.704801	0.000112	0.679641
H200	H	1.204801	0.500112	1.179641
C201	C	0.963494	0.052038	0.321762
C202	C	1.463494	0.552038	0.821762
C203	C	0.960215	0.000091	0.279365
C204	C	1.460215	0.500091	0.779365
H205	H	1.006313	0.052038	0.352254
H206	H	1.506313	0.552038	0.852254
H207	H	0.925127	0.052035	0.348787
H208	H	1.425127	0.552035	0.848787
H209	H	0.961278	0.087272	0.292996
H210	H	1.461278	0.587272	0.792996
H211	H	0.962426	-0.035143	0.308131
H212	H	1.462426	0.464857	0.808131
H213	H	0.998593	0.000089	0.252338
H214	H	1.498593	0.500089	0.752338
C215	C	0.960434	-0.051834	0.529160
C216	C	1.460434	0.448166	1.029160
C217	C	0.955928	0.000116	0.570508
C218	C	1.455928	0.500116	1.070508
H219	H	1.003985	-0.051832	0.510244
H220	H	1.503985	0.448168	1.010244
H221	H	0.923018	-0.051838	0.491978
H222	H	1.423018	0.448162	0.991978
H223	H	0.957367	-0.087066	0.557222
H224	H	1.457367	0.412934	1.057222
H225	H	0.958990	0.035348	0.542444
H226	H	1.458990	0.535348	1.042444
H227	H	0.993355	0.000125	0.607695
H228	H	1.493355	0.500125	1.107695
H229	H	0.480477	0.100025	-0.095236
H230	H	0.980477	0.600025	0.404764
H231	H	0.935694	0.000131	0.710566
H232	H	1.435694	0.500131	1.210566
C233	C	0.913483	-0.843839	0.075664
C234	C	1.413483	-0.343839	0.575664
C235	C	0.924467	-0.859224	0.007014
C236	C	1.424467	-0.359224	0.507014
H237	H	0.945793	-0.865416	0.107972
H238	H	1.445793	-0.365416	0.607972
H239	H	0.866911	-0.854263	0.083112
H240	H	1.366911	-0.354263	0.583112
H241	H	0.920310	-0.801405	0.082468
H242	H	1.420310	-0.301405	0.582468
H243	H	0.917635	-0.901658	0.000209
H244	H	1.417635	-0.401658	0.500209
H245	H	0.971050	-0.848805	-0.000436
H246	H	1.471050	-0.348805	0.499564
C247	C	0.634166	-0.396624	-0.203583
C248	C	1.134166	0.103376	0.296417
C249	C	0.676894	-0.433201	-0.240488
C250	C	1.176894	0.066799	0.259512
H251	H	0.601848	-0.375064	-0.235899
H252	H	1.101848	0.124936	0.264101
H253	H	0.662522	-0.368567	-0.175250
H254	H	1.162522	0.131433	0.324750
H255	H	0.609143	-0.421438	-0.174581
H256	H	1.109143	0.078562	0.325419
H257	H	0.701921	-0.408387	-0.269487
H258	H	1.201921	0.091613	0.230513
H259	H	0.648534	-0.461261	-0.268834
H260	H	1.148534	0.038739	0.231166
H261	H	0.036399	-0.099816	-0.088725
H262	H	0.536399	0.400184	0.411275
H263	H	0.168513	-0.099828	-0.090677
H264	H	0.668513	0.400172	0.409323
H265	H	0.612586	0.100015	-0.097184
H266	H	1.112586	0.600015	0.402816
H267	H	0.958504	-0.442184	0.041014
H268	H	1.458504	0.057816	0.541014
H269	H	0.738103	-0.850215	-0.179280
H270	H	1.238103	-0.350215	0.320720
C271	C	0.761419	-0.689201	-0.235601
C272	C	1.261419	-0.189201	0.264399
C273	C	0.724520	-0.725771	-0.192856
C274	C	1.224520	-0.225771	0.307144
H275	H	0.729099	-0.667633	-0.267907
H276	H	1.229099	-0.167633	0.232093
H277	H	0.790401	-0.714015	-0.260631
H278	H	1.290401	-0.214015	0.239369
H279	H	0.789772	-0.661145	-0.207250
H280	H	1.289772	-0.161145	0.292750
H281	H	0.696171	-0.753830	-0.221207
H282	H	1.196171	-0.253830	0.278793
H283	H	0.695525	-0.700954	-0.167824
H284	H	1.195525	-0.200954	0.332176
C285	C	0.735481	-0.155963	-0.261577
C286	C	1.235481	0.344037	0.238423
C287	C	0.724512	-0.140585	-0.192922
C288	C	1.224512	0.359415	0.307078
H289	H	0.703165	-0.134384	-0.293877
H290	H	1.203165	0.365616	0.206123
H291	H	0.728659	-0.198392	-0.268384
H292	H	1.228659	0.301608	0.231616
H293	H	0.782055	-0.145533	-0.269035
H294	H	1.282055	0.354467	0.230965
H295	H	0.677939	-0.151019	-0.185463
H296	H	1.177939	0.348981	0.314537
H297	H	0.731328	-0.098146	-0.186112
H298	H	1.231328	0.401854	0.313888
C299	C	-0.023812	0.119138	-0.147896
C300	C	0.476188	0.619138	0.352104
C301	C	0.026096	0.115758	-0.088508
C302	C	0.526096	0.615758	0.411492
H303	H	-0.048502	0.156525	-0.147519
H304	H	0.451498	0.656525	0.352481
H305	H	-0.055927	0.086340	-0.147429
H306	H	0.444073	0.586340	0.352571
H307	H	-0.000849	0.116852	-0.189018
H308	H	0.499151	0.616852	0.310982
H309	H	0.003132	0.118040	-0.047386
H310	H	0.503132	0.618040	0.452614
H311	H	0.058216	0.148565	-0.088968
H312	H	0.558216	0.648565	0.411032
H313	H	0.690464	-0.557639	-0.226907
H314	H	1.190464	-0.057639	0.273093
C315	C	0.966261	-0.181873	0.048700
C316	C	1.466261	0.318127	0.548700
C317	C	0.924466	-0.140532	0.006921
C318	C	1.424466	0.359468	0.506921
H319	H	0.998577	-0.160285	0.081006
H320	H	1.498577	0.339715	0.581006
H321	H	0.991282	-0.206680	0.019700
H322	H	1.491282	0.293320	0.519700
H323	H	0.937268	-0.206683	0.073739
H324	H	1.437268	0.293317	0.573739
H325	H	0.953459	-0.115724	-0.018122
H326	H	1.453459	0.384276	0.481878
H327	H	0.899444	-0.115714	0.035925
H328	H	1.399444	0.384286	0.535925
H329	H	0.480407	-0.099850	-0.095300
H330	H	0.980407	0.400150	0.404700
H331	H	0.910893	-0.264982	-0.006620
H332	H	1.410893	0.235018	0.493380
H333	H	0.958498	-0.557567	0.041030
H334	H	1.458498	-0.057567	0.541030
C335	C	0.950093	0.000083	0.053086
C336	C	1.450093	0.500083	0.553086
C337	C	0.962471	0.000086	0.126493
C338	C	1.462471	0.500086	0.626493
H339	H	0.993641	0.000083	0.034165
H340	H	1.493641	0.500083	0.534165
H341	H	0.924131	0.035316	0.037658
H342	H	1.424131	0.535316	0.537658
H343	H	0.924121	-0.035161	0.037652
H344	H	1.424121	0.464839	0.537652
H345	H	0.988438	0.035332	0.141928
H346	H	1.488438	0.535332	0.641928
H347	H	0.988444	-0.035151	0.141928
H348	H	1.488444	0.464849	0.641928
H349	H	0.713289	0.000079	0.103513
H350	H	1.213289	0.500079	0.603513
C351	C	0.887703	-0.689011	0.049636
C352	C	1.387703	-0.189011	0.549636
C353	C	0.924527	-0.725641	0.006889
C354	C	1.424527	-0.225641	0.506889
H355	H	0.920068	-0.667372	0.081840
H356	H	1.420068	-0.167372	0.581840
H357	H	0.858789	-0.713794	0.074784
H358	H	1.358789	-0.213794	0.574784
H359	H	0.859287	-0.661019	0.021274
H360	H	1.359287	-0.161019	0.521274
H361	H	0.952939	-0.753637	0.035251
H362	H	1.452939	-0.253637	0.535251
H363	H	0.953453	-0.700857	-0.018260
H364	H	1.453453	-0.200857	0.481740
