data_functionalizedCrystal
_audit_creation_method	'MofGen! by Chris Wilmer'
_symmetry_space_group_name_H-M	'P1'
_symmetry_Int_Tables_number	1
_symmetry_cell_setting	triclinic
loop_
_symmetry_equiv_pos_as_xyz
  x,y,z
_cell_length_a	14.519709
_cell_length_b	10.489716
_cell_length_c	12.996460
_cell_angle_alpha	89.997908
_cell_angle_beta	90.000034
_cell_angle_gamma	84.104640
loop_
_atom_site_label
_atom_site_type_symbol
_atom_site_fract_x
_atom_site_fract_y
_atom_site_fract_z
O1	O	1.224769	0.167206	-0.085423
O2	O	0.956398	0.186896	-0.085454
O3	O	1.096702	-0.008613	-0.085441
O4	O	1.084465	0.362714	-0.085435
O5	O	1.096687	-0.008624	0.085692
O6	O	0.956384	0.186885	0.085680
O7	O	1.224754	0.167195	0.085710
Cu8	Cu	1.090568	0.177039	0.101321
Cu9	Cu	1.090585	0.177052	-0.101064
O10	O	1.084450	0.362704	0.085698
C11	C	0.922026	0.185973	0.000109
C12	C	0.819630	0.183223	0.000097
C13	C	0.444680	0.173100	0.000144
C14	C	0.549003	0.175911	0.000131
C15	C	0.632152	0.178161	0.000120
C16	C	0.736481	0.180973	0.000108
C17	C	1.095775	-0.056141	0.000122
C18	C	1.093025	-0.197743	0.000113
C19	C	1.179063	-0.296314	0.000132
C20	C	1.133606	-0.373195	-0.084249
C21	C	1.133571	-0.373170	0.084476
C22	C	1.047603	-0.272759	-0.084338
C23	C	1.047581	-0.272729	0.084463
C24	C	1.002060	-0.349560	0.000062
C25	C	1.259126	0.168118	0.000145
C26	C	1.361523	0.170868	0.000151
C27	C	1.085377	0.410232	0.000132
C28	C	1.088128	0.551834	0.000135
N29	N	1.090562	0.177029	0.243668
N30	N	1.090598	0.177051	-0.243411
C31	C	1.090584	0.177053	0.663483
C32	C	1.090575	0.177051	0.546677
C33	C	1.090573	0.177042	0.453579
C34	C	1.090564	0.177038	0.336767
H35	H	1.253902	-0.272417	0.000054
H36	H	1.169904	-0.417026	0.155811
H37	H	1.169932	-0.417064	-0.155579
Br38	Br	0.987111	-0.199956	-0.203372
Br39	Br	0.877231	-0.388984	-0.000021
H40	H	1.011286	-0.228837	0.155796
