data_functionalizedCrystal
_audit_creation_method	'MofGen! by Chris Wilmer'
_symmetry_space_group_name_H-M	'P1'
_symmetry_Int_Tables_number	1
_symmetry_cell_setting	triclinic
loop_
_symmetry_equiv_pos_as_xyz
  x,y,z
_cell_length_a	19.121102
_cell_length_b	25.639239
_cell_length_c	19.121595
_cell_angle_alpha	87.532787
_cell_angle_beta	85.004847
_cell_angle_gamma	87.592882
loop_
_atom_site_label
_atom_site_type_symbol
_atom_site_fract_x
_atom_site_fract_y
_atom_site_fract_z
Zn1	Zn	1.092561	-0.228829	-0.443666
Zn2	Zn	1.592561	0.271171	0.056334
Zn3	Zn	1.087429	-0.319836	-0.325992
Zn4	Zn	1.587429	0.180164	0.174008
Zn5	Zn	0.969882	-0.228836	-0.321002
Zn6	Zn	1.469882	0.271164	0.178998
Zn7	Zn	0.974834	-0.312651	-0.438607
Zn8	Zn	1.474834	0.187349	0.061393
O9	O	1.031176	-0.272538	-0.382317
O10	O	1.531176	0.227462	0.117683
O11	O	1.190342	-0.243905	-0.432263
O12	O	1.690342	0.256095	0.067737
O13	O	1.067616	-0.310774	-0.226865
O14	O	1.567616	0.189226	0.273135
O15	O	0.986231	-0.155671	-0.337302
O16	O	1.486231	0.344329	0.162698
O17	O	1.186572	-0.310768	-0.345808
O18	O	1.686572	0.189232	0.154192
O19	O	1.076362	-0.155666	-0.427423
O20	O	1.576362	0.344334	0.072577
O21	O	0.981255	-0.243917	-0.223199
O22	O	1.481255	0.256083	0.276801
O23	O	0.872076	-0.236950	-0.332396
O24	O	1.372076	0.263050	0.167604
O25	O	0.994671	-0.298522	-0.537743
O26	O	1.494671	0.201478	-0.037743
O27	O	0.875715	-0.298528	-0.418801
O28	O	1.375715	0.201472	0.081199
O29	O	1.081164	-0.236938	-0.541460
O30	O	1.581164	0.263062	-0.041460
O31	O	1.072418	-0.392046	-0.340902
O32	O	1.572418	0.107954	0.159098
O33	O	0.989695	-0.386768	-0.423640
O34	O	1.489695	0.113232	0.076360
C35	C	0.848365	-0.266961	-0.374508
C36	C	1.348365	0.233039	0.125492
C37	C	0.770158	-0.264587	-0.371184
C38	C	1.270158	0.235413	0.128816
C39	C	0.735326	-0.295585	-0.414538
C40	C	1.235326	0.204415	0.085462
C41	C	0.661843	-0.293347	-0.411418
C42	C	1.161843	0.206653	0.088582
C43	C	0.623193	-0.260114	-0.364941
C44	C	1.123193	0.239886	0.135059
C45	C	0.658030	-0.229113	-0.321586
C46	C	1.158030	0.270887	0.178414
C47	C	0.731512	-0.231348	-0.324709
C48	C	1.231512	0.268652	0.175291
C49	C	0.401228	-0.251757	-0.353265
C50	C	0.901228	0.248243	0.146735
C51	C	0.327741	-0.249525	-0.350143
C52	C	0.827741	0.250475	0.149857
C53	C	0.331559	-0.313759	-0.439978
C54	C	0.831559	0.186241	0.060022
C55	C	0.405043	-0.315994	-0.443094
C56	C	0.905043	0.184006	0.056906
C57	C	0.439873	-0.284990	-0.399742
C58	C	0.939873	0.215010	0.100258
C59	C	0.548081	-0.257828	-0.361749
C60	C	1.048081	0.242172	0.138251
C61	C	0.514984	-0.287274	-0.402937
C62	C	1.014984	0.212726	0.097063
C63	C	1.031057	-0.408378	-0.382280
C64	C	1.531057	0.091622	0.117720
C65	C	1.031071	-0.466492	-0.382290
C66	C	1.531071	0.033508	0.117710
C67	C	1.074371	-0.829595	-0.339317
C68	C	1.574371	-0.329595	0.160683
C69	C	1.074399	-0.884200	-0.339328
C70	C	1.574399	-0.384200	0.160672
O71	O	1.111090	-0.914763	-0.302750
O72	O	1.611090	-0.414763	0.197250
N73	N	1.031302	-0.908779	-0.382369
N74	N	1.531302	-0.408779	0.117631
C75	C	0.988180	-0.878751	-0.425407
C76	C	1.488180	-0.378751	0.074593
O77	O	0.951526	-0.904672	-0.462019
O78	O	1.451526	-0.404672	0.037981
C79	C	0.988157	-0.824147	-0.425400
C80	C	1.488157	-0.324147	0.074600
C81	C	1.031251	-0.799570	-0.382351
C82	C	1.531251	-0.299570	0.117649
C83	C	1.117462	-0.805018	-0.296272
C84	C	1.617462	-0.305018	0.203728
C85	C	1.117433	-0.750417	-0.296261
C86	C	1.617433	-0.250417	0.203739
C87	C	1.074313	-0.720393	-0.339294
C88	C	1.574313	-0.220393	0.160706
C89	C	1.031222	-0.744969	-0.382340
C90	C	1.531222	-0.244969	0.117660
C91	C	0.945039	-0.794120	-0.468442
C92	C	1.445039	-0.294120	0.031558
C93	C	0.945020	-0.739512	-0.468431
C94	C	1.445020	-0.239512	0.031569
C95	C	0.988114	-0.714936	-0.425382
C96	C	1.488114	-0.214936	0.074618
C97	C	0.988073	-0.660344	-0.425362
C98	C	1.488073	-0.160344	0.074638
N99	N	1.031170	-0.635764	-0.382321
N100	N	1.531170	-0.135764	0.117679
C101	C	1.074290	-0.665789	-0.339287
C102	C	1.574290	-0.165789	0.160713
C103	C	0.988234	-0.993423	-0.425420
C104	C	1.488234	-0.493423	0.074580
C105	C	0.988253	-1.048025	-0.425425
C106	C	1.488253	-0.548025	0.074575
C107	C	1.074473	-1.053471	-0.339346
C108	C	1.574473	-0.553471	0.160654
C109	C	1.074449	-0.998867	-0.339338
C110	C	1.574449	-0.498867	0.160662
C111	C	1.031330	-0.968843	-0.382379
C112	C	1.531330	-0.468843	0.117621
C113	C	1.074226	-0.551122	-0.339266
C114	C	1.574226	-0.051122	0.160734
C115	C	1.074191	-0.496516	-0.339256
C116	C	1.574191	0.003484	0.160744
C117	C	0.987974	-0.491076	-0.425338
C118	C	1.487974	0.008924	0.074662
C119	C	0.988006	-0.545677	-0.425345
C120	C	1.488006	-0.045677	0.074655
C121	C	1.031137	-0.575699	-0.382307
C122	C	1.531137	-0.075699	0.117693
O123	O	0.951403	-0.629747	-0.461923
O124	O	1.451403	-0.129747	0.038077
O125	O	1.110944	-0.639861	-0.302689
O126	O	1.610944	-0.139861	0.197311
C127	C	1.214702	-0.278137	-0.390156
C128	C	1.714702	0.221863	0.109844
C129	C	1.292909	-0.280523	-0.393497
C130	C	1.792909	0.219477	0.106503
C131	C	1.039042	-0.266927	-0.565847
C132	C	1.539042	0.233073	-0.065847
C133	C	1.042394	-0.264537	-0.644056
C134	C	1.542394	0.235463	-0.144056
C135	C	1.031316	-0.136167	-0.382371
C136	C	1.531316	0.363833	0.117629
C137	C	1.031376	-0.078055	-0.382393
C138	C	1.531376	0.421945	0.117607
C139	C	0.998937	-0.295474	-0.678865
C140	C	1.498937	0.204526	-0.178865
C141	C	1.002093	-0.293228	-0.752351
C142	C	1.502093	0.206772	-0.252351
C143	C	1.048702	-0.260041	-0.791027
C144	C	1.548702	0.239959	-0.291027
C145	C	1.092163	-0.229102	-0.756214
C146	C	1.592163	0.270898	-0.256214
C147	C	1.089011	-0.231352	-0.682729
C148	C	1.589011	0.268648	-0.182729
C149	C	1.060475	-0.251648	-1.013001
C150	C	1.560475	0.248352	-0.513001
C151	C	1.063623	-0.249400	-1.086491
C152	C	1.563623	0.250600	-0.586491
C153	C	0.973553	-0.313527	-1.082624
C154	C	1.473553	0.186473	-0.582624
C155	C	0.970402	-0.315771	-1.009137
C156	C	1.470402	0.184229	-0.509137
C157	C	1.013866	-0.284834	-0.974330
C158	C	1.513866	0.215166	-0.474330
C159	C	1.051926	-0.257743	-0.866142
C160	C	1.551926	0.242257	-0.366142
C161	C	1.010644	-0.287135	-0.899217
C162	C	1.510644	0.212865	-0.399217
C163	C	1.023382	-0.278090	-0.199503
C164	C	1.523382	0.221910	0.300497
C165	C	1.020166	-0.280337	-0.121300
C166	C	1.520166	0.219663	0.378700
H167	H	0.296274	-0.222457	-0.312300
H168	H	0.796274	0.277543	0.187700
O169	O	0.765385	-0.201180	-0.282694
O170	O	1.265385	0.298820	0.217306
C171	C	0.809659	-0.167532	-0.324645
C172	C	1.309659	0.332468	0.175355
H173	H	0.789905	-0.161999	-0.379131
H174	H	1.289905	0.338001	0.120869
H175	H	0.809432	-0.128067	-0.299331
H176	H	1.309432	0.371933	0.200669
H177	H	0.865440	-0.185320	-0.329395
H178	H	1.365440	0.314680	0.170605
H179	H	1.152526	-0.730410	-0.261209
H180	H	1.652526	-0.230410	0.238791
H181	H	0.633486	-0.318590	-0.446721
H182	H	1.133486	0.181410	0.053279
O183	O	0.442479	-0.348287	-0.488305
O184	O	0.942479	0.151713	0.011695
C185	C	0.395977	-0.375179	-0.525889
C186	C	0.895977	0.124821	-0.025889
H187	H	0.343721	-0.352097	-0.526156
H188	H	0.843721	0.147903	-0.026156
H189	H	0.419593	-0.379774	-0.582216
H190	H	0.919593	0.120226	-0.082216
H191	H	0.387014	-0.415408	-0.499688
H192	H	0.887014	0.084592	0.000312
O193	O	1.108847	-0.217177	-1.124168
O194	O	1.608847	0.282823	-0.624168
C195	C	1.102319	-0.221837	-1.196492
C196	C	1.602319	0.278163	-0.696492
H197	H	1.048426	-0.236988	-1.204201
H198	H	1.548426	0.263012	-0.704201
H199	H	1.108339	-0.181968	-1.224641
H200	H	1.608339	0.318032	-0.724641
H201	H	1.144912	-0.250321	-1.219117
H202	H	1.644912	0.249679	-0.719117
H203	H	1.124398	-0.206159	-0.654388
H204	H	1.624398	0.293841	-0.154388
O205	O	0.620524	-0.196753	-0.276513
O206	O	1.120524	0.303247	0.223487
C207	C	0.639204	-0.144736	-0.292774
C208	C	1.139204	0.355264	0.207226
H209	H	0.661825	-0.141058	-0.349853
H210	H	1.161825	0.358942	0.150147
H211	H	0.590644	-0.117612	-0.284721
H212	H	1.090644	0.382388	0.215279
H213	H	0.680248	-0.133475	-0.256899
H214	H	1.180248	0.366525	0.243101
H215	H	1.089875	-0.230721	-0.897640
H216	H	1.589875	0.269279	-0.397640
H217	H	0.303192	-0.339000	-0.475274
H218	H	0.803192	0.161000	0.024726
H219	H	0.938168	-0.338714	-1.110972
H220	H	1.438168	0.161286	-0.610972
O221	O	0.772762	-0.327879	-0.459749
O222	O	1.272762	0.172121	0.040251
C223	C	0.726256	-0.354767	-0.497333
C224	C	1.226256	0.145233	0.002667
H225	H	0.674001	-0.331685	-0.497594
H226	H	1.174001	0.168315	0.002406
H227	H	0.749869	-0.359359	-0.553662
H228	H	1.249869	0.140641	-0.053662
H229	H	0.717295	-0.394998	-0.471137
H230	H	1.217295	0.105002	0.028863
O231	O	0.959907	-0.323359	-0.786082
O232	O	1.459907	0.176641	-0.286082
C233	C	0.974473	-0.376485	-0.768767
C234	C	1.474473	0.123515	-0.268767
H235	H	0.999236	-0.380020	-0.716568
H236	H	1.499236	0.119980	-0.216568
H237	H	0.923559	-0.398456	-0.764067
H238	H	1.423559	0.101544	-0.264067
H239	H	1.012400	-0.393939	-0.811662
H240	H	1.512400	0.106061	-0.311662
H241	H	1.152579	-0.829458	-0.261229
H242	H	1.652579	-0.329458	0.238771
H243	H	1.109586	-1.077926	-0.304308
H244	H	1.609586	-0.577926	0.195692
O245	O	0.434945	-0.221623	-0.311084
O246	O	0.934945	0.278377	0.188916
C247	C	0.385073	-0.191803	-0.269406
C248	C	0.885073	0.308197	0.230594
H249	H	0.332570	-0.211703	-0.264686
H250	H	0.832570	0.288297	0.235314
H251	H	0.403922	-0.188495	-0.214884
H252	H	0.903922	0.311505	0.285116
H253	H	0.378397	-0.151099	-0.294945
H254	H	0.878397	0.348901	0.205055
O255	O	0.552498	-0.319496	-0.448184
O256	O	1.052498	0.180504	0.051816
C257	C	0.537564	-0.305474	-0.517580
C258	C	1.037564	0.194526	-0.017580
H259	H	0.517550	-0.262986	-0.520383
H260	H	1.017550	0.237014	-0.020383
H261	H	0.587385	-0.310424	-0.554382
H262	H	1.087385	0.189576	-0.054382
H263	H	0.495682	-0.331673	-0.534090
H264	H	0.995682	0.168327	-0.034090
H265	H	0.953155	-1.068031	-0.460473
H266	H	1.453155	-0.568031	0.039527
O267	O	0.510495	-0.225621	-0.316531
O268	O	1.010495	0.274379	0.183469
C269	C	0.465983	-0.255429	-0.269221
C270	C	0.965983	0.244571	0.230779
H271	H	0.487904	-0.297411	-0.265700
H272	H	0.987904	0.202589	0.234300
H273	H	0.462818	-0.238080	-0.215084
H274	H	0.962818	0.261920	0.284916
H275	H	0.411234	-0.254902	-0.288620
H276	H	0.911234	0.245098	0.211380
H277	H	1.109283	-0.476508	-0.304198
H278	H	1.609283	0.023492	0.195802
O279	O	1.102577	-0.221550	-0.979126
O280	O	1.602577	0.278450	-0.479126
C281	C	1.060711	-0.187850	-0.934949
C282	C	1.560711	0.312150	-0.434949
H283	H	1.006910	-0.205017	-0.921642
H284	H	1.506910	0.294983	-0.421642
H285	H	1.087163	-0.183271	-0.884507
H286	H	1.587163	0.316729	-0.384507
H287	H	1.054206	-0.148013	-0.962974
H288	H	1.554206	0.351987	-0.462974
H289	H	1.109349	-0.575560	-0.304222
H290	H	1.609349	-0.075560	0.195778
H291	H	0.932459	-0.342804	-0.977653
H292	H	1.432459	0.157196	-0.477653
O293	O	0.903069	-0.710426	-0.510264
O294	O	1.403069	-0.210426	-0.010264
C295	C	0.865059	-0.743832	-0.548273
C296	C	1.365059	-0.243832	-0.048273
H297	H	0.861428	-0.783572	-0.519350
H298	H	1.361428	-0.283572	-0.019350
H299	H	0.809928	-0.726181	-0.553372
H300	H	1.309928	-0.226181	-0.053372
H301	H	0.893084	-0.748756	-0.602830
H302	H	1.393084	-0.248756	-0.102830
O303	O	1.116378	-0.975079	-0.297504
O304	O	1.616378	-0.475079	0.202496
C305	C	1.154422	-1.013295	-0.259510
C306	C	1.654422	-0.513295	0.240490
H307	H	1.158083	-1.051400	-0.288444
H308	H	1.658083	-0.551400	0.211556
H309	H	1.209541	-0.999400	-0.254412
H310	H	1.709541	-0.499400	0.245588
H311	H	1.126408	-1.019986	-0.204953
H312	H	1.626408	-0.519986	0.295047
O313	O	0.946273	-0.964338	-0.467246
O314	O	1.446273	-0.464338	0.032754
C315	C	0.908258	-0.997747	-0.505246
C316	C	1.408258	-0.497747	-0.005246
H317	H	0.904634	-1.037486	-0.476320
H318	H	1.404634	-0.537486	0.023680
H319	H	0.853124	-0.980098	-0.510336
H320	H	1.353124	-0.480098	-0.010336
H321	H	0.936274	-1.002672	-0.559806
H322	H	1.436274	-0.502672	-0.059806
H323	H	0.972698	-0.314158	-0.867724
H324	H	1.472698	0.185842	-0.367724
O325	O	1.137401	-0.196793	-0.793703
O326	O	1.637401	0.303207	-0.293703
C327	C	1.121296	-0.144763	-0.775118
C328	C	1.621296	0.355237	-0.275118
H329	H	1.091963	-0.144488	-0.720608
H330	H	1.591963	0.355512	-0.220608
H331	H	1.171994	-0.122946	-0.774780
H332	H	1.671994	0.377054	-0.274780
H333	H	1.086912	-0.124784	-0.814936
H334	H	1.586912	0.375216	-0.314936
O335	O	0.903281	-0.818042	-0.510306
O336	O	1.403281	-0.318042	-0.010306
C337	C	0.945273	-0.849398	-0.557514
C338	C	1.445273	-0.349398	-0.057514
H339	H	0.997551	-0.859936	-0.535012
H340	H	1.497551	-0.359936	-0.035012
H341	H	0.917023	-0.886649	-0.565721
H342	H	1.417023	-0.386649	-0.065721
H343	H	0.955201	-0.826966	-0.609982
H344	H	1.455201	-0.326966	-0.109982
H345	H	0.952864	-0.466622	-0.460373
H346	H	1.452864	0.033378	0.039627
O347	O	0.946223	-0.569531	-0.467262
O348	O	1.446223	-0.069531	0.032738
C349	C	0.964532	-0.554463	-0.538052
C350	C	1.464532	-0.054463	-0.038052
H351	H	1.020885	-0.541005	-0.544044
H352	H	1.520885	-0.041005	-0.044044
H353	H	0.959957	-0.589118	-0.572561
H354	H	1.459957	-0.089118	-0.072561
H355	H	0.927561	-0.521083	-0.554794
H356	H	1.427561	-0.021083	-0.054794
O357	O	0.953758	-0.327744	-0.641222
O358	O	1.453758	0.172256	-0.141222
C359	C	0.991966	-0.364042	-0.600429
C360	C	1.491966	0.135958	-0.100429
H361	H	1.044835	-0.347563	-0.591705
H362	H	1.544835	0.152437	-0.091705
H363	H	0.961086	-0.371756	-0.547527
H364	H	1.461086	0.128244	-0.047527
H365	H	1.000874	-0.402156	-0.629066
H366	H	1.500874	0.097844	-0.129066
