data_functionalizedCrystal
_audit_creation_method	'MofGen! by Chris Wilmer'
_symmetry_space_group_name_H-M	'P1'
_symmetry_Int_Tables_number	1
_symmetry_cell_setting	triclinic
loop_
_symmetry_equiv_pos_as_xyz
  x,y,z
_cell_length_a	14.519731
_cell_length_b	13.596369
_cell_length_c	10.723024
_cell_angle_alpha	90.004807
_cell_angle_beta	84.078361
_cell_angle_gamma	90.005416
loop_
_atom_site_label
_atom_site_type_symbol
_atom_site_fract_x
_atom_site_fract_y
_atom_site_fract_z
O1	O	1.224692	0.081791	0.163703
O2	O	1.558026	0.415124	0.497036
O3	O	1.891359	0.748458	0.830370
O4	O	0.956316	0.081792	0.182938
O5	O	1.289650	0.415125	0.516272
O6	O	1.622983	0.748459	0.849605
O7	O	1.096695	0.081788	-0.008313
O8	O	1.430028	0.415121	0.325021
O9	O	1.763362	0.748455	0.658354
O10	O	1.084314	0.081795	0.354954
O11	O	1.417647	0.415129	0.688288
O12	O	1.750981	0.748462	1.021621
O13	O	1.096681	-0.081795	-0.008323
O14	O	1.430014	0.251538	0.325010
O15	O	1.763347	0.584872	0.658344
O16	O	0.956302	-0.081791	0.182928
O17	O	1.289636	0.251543	0.516262
O18	O	1.622969	0.584876	0.849595
O19	O	1.224678	-0.081792	0.163693
O20	O	1.558012	0.251541	0.497026
O21	O	1.891345	0.584875	0.830360
Zn22	Zn	1.090488	-0.107764	0.173309
Zn23	Zn	1.423821	0.225570	0.506642
Zn24	Zn	1.757155	0.558903	0.839976
Zn25	Zn	1.090507	0.107764	0.173322
Zn26	Zn	1.423840	0.441097	0.506656
Zn27	Zn	1.757173	0.774431	0.839989
O28	O	1.084300	-0.081788	0.354944
O29	O	1.417633	0.251546	0.688277
O30	O	1.750966	0.584879	1.021611
C31	C	0.921945	0.000001	0.182032
C32	C	1.255279	0.333334	0.515365
C33	C	1.588612	0.666668	0.848699
C34	C	0.819551	0.000001	0.179331
C35	C	1.152885	0.333335	0.512665
C36	C	1.486218	0.666668	0.845998
N37	N	1.090482	-0.254856	0.173299
N38	N	1.423815	0.078478	0.506632
N39	N	1.757149	0.411811	0.839966
C40	C	0.736396	0.000005	0.177137
C41	C	1.069729	0.333339	0.510470
C42	C	1.403063	0.666672	0.843803
C43	C	0.632073	0.000006	0.174395
C44	C	0.965407	0.333339	0.507728
C45	C	1.298740	0.666672	0.841061
C46	C	0.548923	0.000005	0.172218
C47	C	0.882256	0.333339	0.505552
C48	C	1.215590	0.666672	0.838885
C49	C	0.444594	0.000008	0.169476
C50	C	0.777927	0.333341	0.502810
C51	C	1.111260	0.666674	0.836143
C52	C	1.090505	-0.656146	0.173324
C53	C	1.423839	-0.322813	0.506657
C54	C	1.757172	0.010520	0.839990
C55	C	1.090496	-0.544495	0.173321
C56	C	1.423830	-0.211162	0.506654
C57	C	1.757163	0.122172	0.839988
C58	C	1.090494	-0.455505	0.173312
C59	C	1.423828	-0.122171	0.506646
C60	C	1.757161	0.211162	0.839979
C61	C	1.090484	-0.343846	0.173308
C62	C	1.423817	-0.010513	0.506641
C63	C	1.757151	0.322821	0.839974
C64	C	1.259049	0.000001	0.164599
C65	C	1.592383	0.333335	0.497933
C66	C	1.925716	0.666668	0.831266
C67	C	1.361443	0.000007	0.167300
C68	C	1.694777	0.333341	0.500633
C69	C	2.028110	0.666674	0.833967
C70	C	1.095787	-0.000002	-0.054809
C71	C	1.429120	0.333331	0.278524
C72	C	1.762454	0.666664	0.611858
C73	C	1.093091	0.000001	-0.193338
C74	C	1.426425	0.333334	0.139995
C75	C	1.759758	0.666668	0.473328
N76	N	1.090520	0.254856	0.173322
N77	N	1.423853	0.588189	0.506656
N78	N	1.757187	0.921522	0.839989
C79	C	1.171640	0.000002	-0.269047
C80	C	1.504973	0.333335	0.064286
C81	C	1.838306	0.666669	0.397619
C82	C	1.168855	0.000006	-0.412225
C83	C	1.502189	0.333339	-0.078892
C84	C	1.835522	0.666672	0.254442
C85	C	1.085208	0.000005	0.401440
C86	C	1.418541	0.333338	0.734774
C87	C	1.751875	0.666671	1.068107
C88	C	1.087904	0.000008	0.539970
C89	C	1.421237	0.333341	0.873303
C90	C	1.754570	0.666674	1.206636
H91	H	1.236099	0.000002	-0.477280
H92	H	1.569432	0.333335	-0.143946
H93	H	1.902766	0.666669	0.189387
N94	N	1.258584	-0.000010	-0.217376
N95	N	1.591917	0.333324	0.115957
N96	N	1.925250	0.666657	0.449291
N97	N	1.278640	-0.068966	-0.147979
N98	N	1.611974	0.264368	0.185354
N99	N	1.945307	0.597701	0.518687
H100	H	1.340047	-0.068975	-0.111486
H101	H	1.673380	0.264358	0.221848
H102	H	2.006713	0.597692	0.555181
N103	N	1.006130	-0.000011	-0.244965
N104	N	1.339464	0.333323	0.088368
N105	N	1.672797	0.666656	0.421701
N106	N	0.932281	-0.000018	-0.173860
N107	N	1.265614	0.333315	0.159474
N108	N	1.598947	0.666648	0.492807
H109	H	0.870860	-0.000029	-0.210317
H110	H	1.204194	0.333305	0.123017
H111	H	1.537527	0.666638	0.456350
H112	H	1.020656	0.000000	-0.394983
H113	H	1.353990	0.333334	-0.061650
H114	H	1.687323	0.666667	0.271683
