data_functionalizedCrystal
_audit_creation_method	'MofGen! by Chris Wilmer'
_symmetry_space_group_name_H-M	'P1'
_symmetry_Int_Tables_number	1
_symmetry_cell_setting	triclinic
loop_
_symmetry_equiv_pos_as_xyz
  x,y,z
_cell_length_a	15.944545
_cell_length_b	15.944545
_cell_length_c	9.798715
_cell_angle_alpha	90.005485
_cell_angle_beta	90.000667
_cell_angle_gamma	83.496173
loop_
_atom_site_label
_atom_site_type_symbol
_atom_site_fract_x
_atom_site_fract_y
_atom_site_fract_z
O1	O	1.114524	0.108306	0.113409
O2	O	0.869973	0.121667	0.113432
O3	O	0.998929	-0.007289	0.113404
O4	O	0.985568	0.237262	0.113438
O5	O	0.998921	-0.007290	-0.113578
O6	O	0.869964	0.121667	-0.113550
O7	O	1.114515	0.108305	-0.113573
Zn8	Zn	0.992238	0.114986	-0.149600
Zn9	Zn	0.992250	0.114987	0.149459
O10	O	0.985559	0.237261	-0.113545
C11	C	0.838675	0.121113	-0.000056
C12	C	0.745428	0.119453	-0.000048
C13	C	0.474798	0.034559	-0.000074
C14	C	0.525374	0.075488	-0.111986
C15	C	0.409785	0.113532	-0.000072
C16	C	0.525363	0.075510	0.111801
C17	C	0.574698	0.116437	-0.000058
C18	C	0.459133	0.154440	-0.112076
C19	C	0.459119	0.154450	0.111811
C20	C	0.509662	0.195437	-0.000128
C21	C	0.314783	0.111857	-0.000082
C22	C	0.669698	0.118119	-0.000059
C23	C	0.998371	-0.038583	-0.000089
C24	C	0.996711	-0.131830	-0.000092
C25	C	0.911817	-0.402460	-0.000057
C26	C	0.952751	-0.351875	0.111854
C27	C	0.990790	-0.467473	-0.000053
C28	C	0.952763	-0.351903	-0.111932
C29	C	0.993695	-0.302560	-0.000075
C30	C	1.031703	-0.418116	0.111950
C31	C	1.031703	-0.418148	-0.111937
C32	C	1.072695	-0.367596	0.000001
C33	C	0.989115	-0.562475	-0.000039
C34	C	0.995377	-0.207560	-0.000078
C35	C	1.145813	0.108859	-0.000082
C36	C	1.239060	0.110519	-0.000081
C37	C	0.986117	0.268556	-0.000049
C38	C	0.987777	0.361802	-0.000037
N39	N	0.992236	0.114984	-0.353700
C40	C	1.046515	0.060722	-0.578643
C41	C	1.046504	0.060723	-0.421480
N42	N	0.992259	0.114981	0.353559
H43	H	0.554302	0.042135	-0.206608
H44	H	0.554285	0.042144	0.206407
F45	F	0.421474	0.198001	-0.235876
H46	H	1.092979	0.014269	-0.636948
F47	F	0.529908	0.284403	-0.000194
H48	H	0.430175	0.187774	0.206436
F49	F	0.822921	-0.422921	0.000091
F50	F	0.909164	-0.314056	0.235531
H51	H	1.065034	-0.446923	0.206667
H52	H	1.092953	0.014265	-0.363177
F53	F	0.931512	0.175703	-0.429894
F54	F	1.161659	-0.347345	0.000074
F55	F	1.075255	-0.455991	-0.235616
H56	H	0.919393	-0.322989	-0.206542
H57	H	0.459146	-0.033453	-0.000193
F58	F	0.931534	0.175707	-0.570236
