data_functionalizedCrystal
_audit_creation_method	'MofGen! by Chris Wilmer'
_symmetry_space_group_name_H-M	'P1'
_symmetry_Int_Tables_number	1
_symmetry_cell_setting	triclinic
loop_
_symmetry_equiv_pos_as_xyz
  x,y,z
_cell_length_a	19.188930
_cell_length_b	14.044220
_cell_length_c	13.101039
_cell_angle_alpha	93.659868
_cell_angle_beta	93.345801
_cell_angle_gamma	91.833170
loop_
_atom_site_label
_atom_site_type_symbol
_atom_site_fract_x
_atom_site_fract_y
_atom_site_fract_z
O1	O	0.164759	-1.262233	-0.085127
O2	O	0.158685	-0.986290	-0.085152
O3	O	0.060581	-1.132223	-0.085119
O4	O	0.262863	-1.116300	-0.085160
O5	O	0.067633	-1.121753	0.085309
O6	O	0.165737	-0.975820	0.085275
O7	O	0.171810	-1.251762	0.085300
Zn8	Zn	0.169893	-1.112128	0.112347
Zn9	Zn	0.160602	-1.125924	-0.112199
O10	O	0.269914	-1.105829	0.085267
C11	C	0.038063	-1.126472	0.000098
C12	C	-0.039541	-1.124923	0.000106
C13	C	0.159553	-0.945752	0.000059
C14	C	0.151623	-0.840559	0.000050
C15	C	0.170943	-1.292301	0.000087
C16	C	0.178872	-1.397494	0.000089
C17	C	-0.078939	-1.210553	0.000119
C18	C	-0.151857	-1.209099	0.000103
C19	C	-0.185374	-1.122010	0.000094
C20	C	-0.145968	-1.036370	0.000075
C21	C	-0.073051	-1.037827	0.000082
N22	N	-0.295275	-1.051878	0.058088
N23	N	-0.364543	-1.050500	0.058084
C24	C	-0.405067	-1.117617	0.000073
N25	N	-0.373707	-1.186177	-0.057921
N26	N	-0.304433	-1.187558	-0.057913
C27	C	-0.264440	-1.120421	0.000086
C28	C	-0.523532	-1.201676	0.000066
C29	C	-0.596452	-1.200219	0.000043
C30	C	-0.590560	-1.027487	0.000026
C31	C	-0.517642	-1.028947	0.000039
C32	C	-0.484132	-1.116043	0.000064
C33	C	0.292433	-1.111580	0.000048
C34	C	0.370037	-1.113129	0.000033
N35	N	0.176234	-1.102720	0.265593
C36	C	0.137129	-0.647957	0.000073
C37	C	0.193363	-0.590091	0.000066
C38	C	0.185298	-0.482920	0.000079
C39	C	0.145193	-0.755137	0.000060
N40	N	0.154257	-1.135340	-0.265445
C41	C	0.184867	-1.089920	0.474633
C42	C	0.145626	-1.148137	0.525522
C43	C	0.150429	-1.141014	0.641839
C44	C	0.180064	-1.097041	0.358306
H45	H	-0.051660	-1.281474	0.000136
C46	C	0.235123	-1.015365	0.533788
N47	N	0.272975	-0.959211	0.578355
H48	H	0.082932	-0.617011	0.000090
C49	C	-0.195203	-1.303301	0.000123
N50	N	-0.227849	-1.374254	0.000141
C51	C	-0.639789	-1.294423	0.000063
N52	N	-0.672431	-1.365379	0.000082
C53	C	-0.182837	-0.940572	0.000073
N54	N	-0.210608	-0.868413	0.000071
H55	H	-0.485564	-0.959218	0.000034
H56	H	0.108423	-1.203327	0.481732
H57	H	-0.040974	-0.968095	0.000072
H58	H	-0.496247	-1.272595	0.000082
H59	H	-0.617849	-0.956578	0.000014
H60	H	0.247564	-0.621038	0.000050
