data_functionalizedCrystal
_audit_creation_method	'MofGen! by Chris Wilmer'
_symmetry_space_group_name_H-M	'P1'
_symmetry_Int_Tables_number	1
_symmetry_cell_setting	triclinic
loop_
_symmetry_equiv_pos_as_xyz
  x,y,z
_cell_length_a	16.176319
_cell_length_b	10.540554
_cell_length_c	10.540510
_cell_angle_alpha	84.522300
_cell_angle_beta	89.994874
_cell_angle_gamma	90.000936
loop_
_atom_site_label
_atom_site_type_symbol
_atom_site_fract_x
_atom_site_fract_y
_atom_site_fract_z
O1	O	0.068701	-1.685851	-0.178994
O2	O	0.068711	-1.316439	-0.195832
O3	O	0.068705	-1.509592	-0.002705
O4	O	0.068706	-1.492697	-0.372122
O5	O	-0.068788	-1.509589	-0.002687
O6	O	-0.068782	-1.316435	-0.195814
O7	O	-0.068792	-1.685847	-0.178976
Cu8	Cu	-0.081342	-1.501141	-0.187393
Cu9	Cu	0.081260	-1.501145	-0.187415
O10	O	-0.068787	-1.492694	-0.372104
C11	C	-0.000034	-1.269134	-0.194556
C12	C	-0.000030	-1.128187	-0.190767
N13	N	-0.195707	-1.501147	-0.187378
N14	N	0.195625	-1.501149	-0.187420
C15	C	-0.000034	-1.091532	-0.049749
C16	C	-0.000355	-0.944933	-0.045761
C17	C	-0.078403	-0.918844	-0.255114
C18	C	-0.078460	-1.065608	-0.258124
C19	C	0.077901	-1.065496	-0.260197
C20	C	0.078922	-0.919152	-0.253665
C21	C	0.238887	-1.586840	-0.102075
C22	C	0.325434	-1.586845	-0.102073
C23	C	0.368718	-1.501152	-0.187410
C24	C	0.325450	-1.415457	-0.272764
C25	C	0.238905	-1.415459	-0.272772
C26	C	0.674478	-1.415447	-0.272735
C27	C	0.761030	-1.415449	-0.272718
C28	C	0.761008	-1.586833	-0.102036
C29	C	0.674462	-1.586835	-0.102044
C30	C	0.631202	-1.501145	-0.187402
C31	C	0.537358	-1.501143	-0.187405
C32	C	0.462560	-1.501147	-0.187401
C33	C	-0.000040	-1.508332	0.044608
C34	C	-0.000035	-1.504565	0.185558
C35	C	-0.000046	-0.733154	-0.180235
C36	C	-0.000047	-0.874107	-0.183974
C37	C	-0.000040	-1.493954	-0.419416
C38	C	-0.000040	-1.497721	-0.560366
C39	C	-0.000353	-1.638748	0.403007
C40	C	-0.000039	-1.642766	0.256411
C41	C	0.078481	-1.433821	0.230310
C42	C	0.078543	-1.430782	0.377071
C43	C	-0.077813	-1.427900	0.376900
C44	C	-0.078846	-1.434455	0.230559
H45	H	0.055803	-0.915603	0.009875
H46	H	0.639223	-1.656610	-0.032550
H47	H	-0.078339	-1.324137	0.399056
Br48	Br	0.093610	-1.161491	0.040500
H49	H	-0.056143	-1.134994	0.003500
Br50	Br	-0.175663	-1.520239	0.182870
Br51	Br	-0.086747	-1.266280	0.148792
H52	H	-0.056856	-0.916485	0.009617
H53	H	0.136891	-0.890557	-0.201895
Br54	Br	-0.176460	-1.132576	-0.178035
Br55	Br	-0.084029	-1.103984	-0.430421
Br56	Br	0.180154	-1.703135	0.013756
Br57	Br	0.180192	-1.299168	-0.388611
Br58	Br	-0.082896	-0.839904	-0.424730
Br59	Br	0.384189	-1.299165	-0.388591
H60	H	-0.136941	-0.887946	-0.206291
Br61	Br	0.176926	-1.136270	-0.186873
H62	H	0.083897	-0.870093	-0.354537
H63	H	-0.056321	-1.698118	0.227072
H64	H	0.078659	-1.087669	-0.363951
H65	H	0.360657	-1.656621	-0.032579
Br66	Br	0.819773	-1.299143	-0.388539
Br67	Br	0.819722	-1.703131	0.013809
Br68	Br	0.615773	-1.299156	-0.388571
H69	H	-0.056661	-1.692588	0.444967
H70	H	0.055633	-1.692281	0.446503
H71	H	0.056338	-1.698443	0.227995
Br72	Br	0.176358	-1.511375	0.444091
H73	H	-0.137328	-1.471817	0.419088
Br74	Br	0.084491	-1.258505	0.415415
Br75	Br	0.083360	-1.264245	0.151333
H76	H	0.136909	-1.482953	0.199443
