data_functionalizedCrystal
_audit_creation_method	'MofGen! by Chris Wilmer'
_symmetry_space_group_name_H-M	'P1'
_symmetry_Int_Tables_number	1
_symmetry_cell_setting	triclinic
loop_
_symmetry_equiv_pos_as_xyz
  x,y,z
_cell_length_a	19.288840
_cell_length_b	16.992696
_cell_length_c	17.766277
_cell_angle_alpha	90.014127
_cell_angle_beta	89.983415
_cell_angle_gamma	93.102767
loop_
_atom_site_label
_atom_site_type_symbol
_atom_site_fract_x
_atom_site_fract_y
_atom_site_fract_z
O1	O	0.927058	-0.097701	-0.062734
O2	O	0.725565	-0.110914	-0.062710
O3	O	0.825504	0.009832	-0.062701
O4	O	0.827120	-0.218447	-0.062743
O5	O	0.825485	0.009838	0.062487
O6	O	0.725546	-0.110908	0.062478
O7	O	0.927039	-0.097695	0.062454
Cu8	Cu	0.826291	-0.104301	0.073897
Cu9	Cu	0.826314	-0.104308	-0.074153
O10	O	0.827101	-0.218441	0.062445
C11	C	0.699655	-0.110489	-0.000112
C12	C	0.622476	-0.109223	-0.000102
C13	C	0.586248	-0.108618	-0.068344
C14	C	0.513731	-0.107419	-0.068353
C15	C	0.477446	-0.106810	-0.000116
C16	C	0.513683	-0.107419	0.068135
C17	C	0.586198	-0.108626	0.068142
C18	C	0.365323	-0.058978	0.052161
C19	C	0.292810	-0.057767	0.052151
C20	C	0.253786	-0.103092	-0.000135
C21	C	0.287285	-0.149618	-0.052424
C22	C	0.359800	-0.150825	-0.052417
C23	C	0.398816	-0.105502	-0.000116
C24	C	0.138926	-0.101188	-0.068392
C25	C	0.066408	-0.099994	-0.068398
C26	C	0.066363	-0.099987	0.068092
C27	C	0.138879	-0.101188	0.068096
C28	C	0.175157	-0.101785	-0.000148
C29	C	0.823416	0.039040	-0.000103
C30	C	0.817215	0.126062	-0.000091
C31	C	0.877044	0.176520	-0.000091
C32	C	0.871213	0.258285	-0.000087
C33	C	0.805554	0.289591	-0.000077
C34	C	0.745721	0.239127	-0.000079
C35	C	0.751552	0.157363	-0.000089
C36	C	0.781386	0.533101	-0.000053
C37	C	0.775559	0.614871	-0.000041
C38	C	0.901052	0.634024	-0.000050
C39	C	0.906878	0.552258	-0.000055
C40	C	0.847045	0.501800	-0.000061
N41	N	0.799592	0.373168	-0.000070
N42	N	0.853007	0.418225	-0.000073
C43	C	0.952950	-0.098120	-0.000145
C44	C	1.030129	-0.099386	-0.000160
C45	C	0.829188	0.752351	-0.000122
C46	C	0.835388	0.665329	-0.000041
N47	N	0.826280	-0.104295	0.178027
N48	N	0.826330	-0.104308	-0.178283
C49	C	0.870550	-0.050855	0.217418
C50	C	0.870554	-0.050851	0.296220
C51	C	0.826295	-0.104302	0.335628
C52	C	0.782017	-0.157746	0.296228
C53	C	0.782010	-0.157743	0.217427
C54	C	0.821160	-0.175731	0.460453
C55	C	0.821172	-0.175735	0.539252
C56	C	0.826314	-0.104311	0.578674
C57	C	0.831459	-0.032880	0.539288
C58	C	0.831452	-0.032876	0.460487
C59	C	0.826298	-0.104311	0.421074
C60	C	0.870590	-0.050862	0.703511
C61	C	0.870589	-0.050858	0.782314
C62	C	0.782056	-0.157759	0.782320
C63	C	0.782054	-0.157757	0.703519
C64	C	0.826325	-0.104309	0.664119
H65	H	0.168465	-0.101683	-0.123960
C66	C	0.966864	0.689533	-0.000051
N67	N	1.016436	0.731342	-0.000055
C68	C	0.626149	-0.109273	-0.143415
N69	N	0.656204	-0.109765	-0.199959
H70	H	0.930511	0.151037	-0.000095
H71	H	0.835646	0.025281	0.571383
H72	H	0.702833	0.116280	-0.000089
C73	C	0.919242	0.007946	0.174083
N74	N	0.955915	0.052239	0.141441
H75	H	0.906604	-0.007332	0.328298
C76	C	0.919282	0.007937	0.660168
N77	N	0.955955	0.052227	0.627525
C78	C	0.919280	0.007947	0.825644
N79	N	0.955951	0.052244	0.858281
C80	C	0.837101	0.045697	0.417165
N81	N	0.841353	0.104879	0.384535
H82	H	0.732665	0.492028	-0.000057
H83	H	0.484136	-0.106925	0.123694
H84	H	0.745980	-0.201265	0.328317
C85	C	0.979108	0.517828	-0.000065
N86	N	1.033514	0.491896	-0.000070
C87	C	0.733372	-0.216556	0.825664
N88	N	0.696701	-0.260843	0.858315
C89	C	0.703326	0.649305	-0.000035
N90	N	0.648922	0.675241	-0.000032
C91	C	0.733407	-0.216603	0.660187
N92	N	0.696780	-0.260946	0.627550
C93	C	0.815506	-0.254311	0.582570
N94	N	0.811234	-0.313496	0.615195
H95	H	0.816960	-0.233897	0.428363
C96	C	0.733340	-0.216568	0.174096
N97	N	0.696693	-0.260889	0.141458
H98	H	0.387072	-0.188710	-0.094991
C99	C	0.473872	-0.106748	-0.143428
N100	N	0.443852	-0.106240	-0.199974
C101	C	0.244364	-0.199486	-0.109940
N102	N	0.212033	-0.237045	-0.153259
H103	H	0.036912	-0.099507	-0.123971
H104	H	0.036820	-0.099495	0.123652
H105	H	0.168377	-0.101676	0.123666
C106	C	0.626051	-0.109285	0.143217
N107	N	0.656070	-0.109778	0.199764
C108	C	0.255968	-0.006594	0.109676
N109	N	0.228219	0.031946	0.153008
C110	C	0.937030	0.313786	-0.000075
N111	N	0.986606	0.355589	-0.000063
H112	H	0.692259	0.264622	-0.000076
H113	H	0.397091	-0.022067	0.094742
