data_functionalizedCrystal
_audit_creation_method	'MofGen! by Chris Wilmer'
_symmetry_space_group_name_H-M	'P1'
_symmetry_Int_Tables_number	1
_symmetry_cell_setting	triclinic
loop_
_symmetry_equiv_pos_as_xyz
  x,y,z
_cell_length_a	16.120530
_cell_length_b	13.034570
_cell_length_c	13.033454
_cell_angle_alpha	90.866531
_cell_angle_beta	93.913305
_cell_angle_gamma	80.336380
loop_
_atom_site_label
_atom_site_type_symbol
_atom_site_fract_x
_atom_site_fract_y
_atom_site_fract_z
Zn1	Zn	1.242422	-0.403361	-0.721071
Zn2	Zn	1.575755	-0.070028	-0.387738
Zn3	Zn	1.909089	0.263305	-0.054405
Zn4	Zn	1.277118	-0.599065	-0.573418
Zn5	Zn	1.610451	-0.265731	-0.240085
Zn6	Zn	1.943785	0.067602	0.093248
Zn7	Zn	1.122828	-0.418713	-0.540698
Zn8	Zn	1.456162	-0.085380	-0.207365
Zn9	Zn	1.789495	0.247954	0.125969
Zn10	Zn	1.118387	-0.568473	-0.734146
Zn11	Zn	1.451721	-0.235139	-0.400812
Zn12	Zn	1.785054	0.098194	-0.067479
O13	O	1.190189	-0.497403	-0.642333
O14	O	1.523522	-0.164070	-0.309000
O15	O	1.856856	0.169264	0.024333
O16	O	1.363504	-0.435700	-0.709707
O17	O	1.696838	-0.102366	-0.376374
O18	O	2.030171	0.230967	-0.043040
O19	O	1.273030	-0.594368	-0.426326
O20	O	1.606363	-0.261035	-0.092993
O21	O	1.939697	0.072298	0.240340
O22	O	1.126031	-0.272099	-0.545460
O23	O	1.459364	0.061234	-0.212126
O24	O	1.792697	0.394568	0.121207
O25	O	1.388995	-0.579482	-0.601227
O26	O	1.722329	-0.246149	-0.267894
O27	O	2.055662	0.087184	0.065440
O28	O	1.213896	-0.260820	-0.677979
O29	O	1.547229	0.072513	-0.344646
O30	O	1.880562	0.405846	-0.011313
O31	O	1.159674	-0.461865	-0.402287
O32	O	1.493007	-0.128531	-0.068953
O33	O	1.826341	0.204802	0.264380
O34	O	1.005759	-0.432201	-0.558137
O35	O	1.339093	-0.098868	-0.224804
O36	O	1.672426	0.234466	0.108529
O37	O	1.118462	-0.527343	-0.875163
O38	O	1.451795	-0.194009	-0.541830
O39	O	1.785129	0.139324	-0.208496
O40	O	1.002497	-0.542229	-0.700262
O41	O	1.335830	-0.208895	-0.366929
O42	O	1.669163	0.124438	-0.033596
O43	O	1.209590	-0.406036	-0.865557
O44	O	1.542923	-0.072703	-0.532224
O45	O	1.876256	0.260631	-0.198891
O46	O	1.268724	-0.739584	-0.613905
O47	O	1.602057	-0.406251	-0.280571
O48	O	1.935391	-0.072917	0.052762
O49	O	1.152105	-0.717108	-0.731990
O50	O	1.485439	-0.383775	-0.398657
O51	O	1.818772	-0.050442	-0.065323
C52	C	1.213718	-0.765832	-0.677940
C53	C	1.547051	-0.432498	-0.344607
C54	C	1.880384	-0.099165	-0.011274
C55	C	1.223856	-0.880666	-0.693213
C56	C	1.557189	-0.547333	-0.359879
C57	C	1.890522	-0.214000	-0.026546
C58	C	0.973926	-0.485562	-0.627069
C59	C	1.307259	-0.152228	-0.293735
C60	C	1.640593	0.181105	0.039598
C61	C	0.881407	-0.480518	-0.620566
C62	C	1.214741	-0.147184	-0.287232
C63	C	1.548074	0.186149	0.046101
C64	C	1.195430	-1.056220	-0.650186
C65	C	1.528764	-0.722887	-0.316853
C66	C	1.862097	-0.389554	0.016480
C67	C	1.184951	-0.937532	-0.634407
C68	C	1.518285	-0.604199	-0.301074
C69	C	1.851618	-0.270866	0.032260
C70	C	0.712011	-0.471283	-0.608699
C71	C	1.045344	-0.137950	-0.275366
C72	C	1.378678	0.195383	0.057968
C73	C	0.669205	-0.523589	-0.676052
C74	C	1.002539	-0.190255	-0.342719
C75	C	1.335872	0.143078	-0.009386
C76	C	0.574948	-0.518451	-0.669450
C77	C	0.908281	-0.185117	-0.336116
C78	C	1.241614	0.148216	-0.002783
C79	C	0.806277	-0.476420	-0.615300
C80	C	1.139611	-0.143087	-0.281967
C81	C	1.472944	0.190247	0.051366
C82	C	1.407296	-0.509291	-0.657658
C83	C	1.740630	-0.175958	-0.324325
C84	C	2.073963	0.157376	0.009008
C85	C	1.499814	-0.514357	-0.664189
C86	C	1.833148	-0.181024	-0.330856
C87	C	2.166481	0.152310	0.002478
C88	C	1.159660	-0.461564	-0.908409
C89	C	1.492993	-0.128231	-0.575076
C90	C	1.826327	0.205102	-0.241742
C91	C	1.146651	-0.446292	-1.021795
C92	C	1.479984	-0.112959	-0.688461
C93	C	1.813317	0.220374	-0.355128
C94	C	1.166588	-0.227924	-0.606611
C95	C	1.499922	0.105409	-0.273278
C96	C	1.833255	0.438743	0.060056
C97	C	1.156531	-0.113088	-0.591388
C98	C	1.489864	0.220245	-0.258055
C99	C	1.823198	0.553578	0.075278
C100	C	1.196937	-0.505044	-1.084240
C101	C	1.530270	-0.171710	-0.750906
C102	C	1.863604	0.161623	-0.417573
C103	C	1.183492	-0.489260	-1.201430
C104	C	1.516825	-0.155927	-0.868097
C105	C	1.850159	0.177406	-0.534763
C106	C	1.220640	-0.533030	-0.377286
C107	C	1.553974	-0.199697	-0.043953
C108	C	1.887307	0.133637	0.289380
C109	C	1.233785	-0.548020	-0.263874
C110	C	1.567119	-0.214687	0.069459
C111	C	1.900452	0.118647	0.402793
H112	H	1.236495	-1.095403	-0.712203
H113	H	1.569828	-0.762070	-0.378870
H114	H	1.903161	-0.428736	-0.045537
H115	H	0.703348	-0.572226	-0.738676
H116	H	1.036681	-0.238893	-0.405342
H117	H	1.370015	0.094440	-0.072009
Br118	Br	0.655107	-0.390219	-0.504330
Br119	Br	0.988440	-0.056885	-0.170997
Br120	Br	1.321773	0.276448	0.162336
Br121	Br	1.285296	-0.608347	-1.028752
Br122	Br	1.618629	-0.275013	-0.695419
Br123	Br	1.951962	0.058320	-0.362086
H124	H	1.093648	-0.384304	-1.055092
H125	H	1.426982	-0.050971	-0.721759
H126	H	1.760315	0.282362	-0.388425
Br127	Br	1.095145	-0.385933	-1.256911
Br128	Br	1.428478	-0.052599	-0.923578
Br129	Br	1.761811	0.280734	-0.590244
Br130	Br	1.116516	-0.872244	-0.531018
Br131	Br	1.449849	-0.538911	-0.197685
Br132	Br	1.783183	-0.205578	0.135649
H133	H	1.286798	-0.610004	-1.230582
H134	H	1.620131	-0.276671	-0.897249
H135	H	1.953465	0.056662	-0.563916
Br136	Br	1.088099	-1.047796	-0.488004
Br137	Br	1.421432	-0.714463	-0.154670
Br138	Br	1.754765	-0.381129	0.178663
H139	H	1.264923	-0.919843	-0.755235
H140	H	1.598256	-0.586510	-0.421902
H141	H	1.931589	-0.253176	-0.088568
