data_functionalizedCrystal
_audit_creation_method	'MofGen! by Chris Wilmer'
_symmetry_space_group_name_H-M	'P1'
_symmetry_Int_Tables_number	1
_symmetry_cell_setting	triclinic
loop_
_symmetry_equiv_pos_as_xyz
  x,y,z
_cell_length_a	19.288867
_cell_length_b	14.044190
_cell_length_c	17.766277
_cell_angle_alpha	89.989261
_cell_angle_beta	89.992126
_cell_angle_gamma	88.164423
loop_
_atom_site_label
_atom_site_type_symbol
_atom_site_fract_x
_atom_site_fract_y
_atom_site_fract_z
O1	O	0.928950	0.118224	-0.062576
O2	O	1.428950	0.618224	0.437424
O3	O	0.727715	0.134169	-0.062584
O4	O	1.227715	0.634169	0.437416
O5	O	0.825309	-0.011776	-0.062566
O6	O	1.325309	0.488224	0.437434
O7	O	0.831356	0.264168	-0.062595
O8	O	1.331356	0.764168	0.437405
O9	O	0.825290	-0.011783	0.062623
O10	O	1.325290	0.488217	0.562623
O11	O	0.727695	0.134161	0.062604
O12	O	1.227695	0.634161	0.562604
O13	O	0.928931	0.118216	0.062612
O14	O	1.428931	0.618216	0.562612
Cu15	Cu	0.828312	0.126188	0.074039
Cu16	Cu	1.328312	0.626188	0.574039
Cu17	Cu	0.828334	0.126197	-0.074011
Cu18	Cu	1.328334	0.626197	0.425989
O19	O	0.831336	0.264161	0.062594
O20	O	1.331336	0.764161	0.562594
C21	C	0.701796	0.133652	0.000009
C22	C	1.201796	0.633652	0.500009
C23	C	0.624593	0.132111	0.000006
C24	C	1.124593	0.632111	0.500006
C25	C	0.822655	-0.047083	0.000031
C26	C	1.322655	0.452917	0.500031
C27	C	0.814765	-0.152275	0.000037
C28	C	1.314765	0.347725	0.500037
C29	C	0.068325	0.121014	-0.068224
C30	C	0.568325	0.621014	0.431776
C31	C	0.140865	0.122457	-0.068227
C32	C	0.640865	0.622457	0.431773
C33	C	0.177130	0.123178	0.000013
C34	C	0.677130	0.623178	0.500013
C35	C	0.140849	0.122433	0.068261
C36	C	0.640849	0.622433	0.568261
C37	C	0.068311	0.120981	0.068262
C38	C	0.568311	0.620981	0.568262
C39	C	0.290164	0.180977	0.052288
C40	C	0.790164	0.680977	0.552288
C41	C	0.362701	0.182435	0.052284
C42	C	0.862701	0.682435	0.552284
C43	C	0.400863	0.127652	0.000013
C44	C	0.900863	0.627652	0.500013
C45	C	0.366479	0.071423	-0.052267
C46	C	0.866479	0.571423	0.447733
C47	C	0.293940	0.069972	-0.052266
C48	C	0.793940	0.569972	0.447734
C49	C	0.255786	0.124752	0.000020
C50	C	0.755786	0.624752	0.500020
C51	C	0.515792	0.129954	-0.068234
C52	C	1.015792	0.629954	0.431766
C53	C	0.588333	0.131391	-0.068234
C54	C	1.088333	0.631391	0.431766
C55	C	0.588316	0.131377	0.068256
C56	C	1.088316	0.631377	0.568256
C57	C	0.515776	0.129931	0.068254
C58	C	1.015776	0.629931	0.568254
C59	C	0.479518	0.129224	0.000007
C60	C	0.979518	0.629224	0.500007
C61	C	0.856297	-0.402738	0.000009
C62	C	1.356297	0.097262	0.500009
C63	C	0.800352	-0.344871	0.000012
C64	C	1.300352	0.155129	0.500012
C65	C	0.808373	-0.237701	0.000026
C66	C	1.308373	0.262299	0.500026
C67	C	0.848277	-0.509918	-0.000005
C68	C	1.348277	-0.009918	0.499995
C69	C	0.954850	0.118734	0.000017
C70	C	1.454850	0.618734	0.500017
C71	C	1.032053	0.120275	0.000015
C72	C	1.532053	0.620275	0.500015
C73	C	0.833991	0.299468	-0.000004
C74	C	1.333991	0.799468	0.499996
C75	C	0.841881	0.404660	-0.000016
C76	C	1.341881	0.904660	0.499984
N77	N	0.828301	0.126182	0.178169
N78	N	1.328301	0.626182	0.678169
N79	N	0.828350	0.126196	-0.178141
N80	N	1.328350	0.626196	0.321859
C81	C	0.871533	0.061589	0.217565
C82	C	1.371533	0.561589	0.717565
C83	C	0.871537	0.061585	0.296366
C84	C	1.371537	0.561585	0.796366
C85	C	0.828316	0.126189	0.335770
C86	C	1.328316	0.626189	0.835770
C87	C	0.785075	0.190787	0.296365
C88	C	1.285075	0.690787	0.796365
C89	C	0.785067	0.190783	0.217565
C90	C	1.285067	0.690783	0.717565
C91	C	0.824566	0.212532	0.460598
C92	C	1.324566	0.712532	0.960598
C93	C	0.824579	0.212537	0.539397
C94	C	1.324579	0.712537	1.039397
C95	C	0.828335	0.126200	0.578816
C96	C	1.328335	0.626200	1.078816
C97	C	0.832093	0.039855	0.539427
C98	C	1.332093	0.539855	1.039427
C99	C	0.832086	0.039851	0.460626
C100	C	1.332086	0.539851	0.960626
C101	C	0.828319	0.126200	0.421216
C102	C	1.328319	0.626200	0.921216
C103	C	0.871574	0.061598	0.703657
C104	C	1.371574	0.561598	1.203657
C105	C	0.871572	0.061592	0.782461
C106	C	1.371572	0.561592	1.282461
C107	C	0.785115	0.190802	0.782458
C108	C	1.285115	0.690802	1.282458
C109	C	0.785112	0.190800	0.703656
C110	C	1.285112	0.690800	1.203656
C111	C	0.828345	0.126198	0.664261
C112	C	1.328345	0.626198	1.164261
H113	H	0.038808	0.120435	-0.123796
H114	H	0.538808	0.620435	0.376204
C115	C	0.408451	0.011156	-0.109770
C116	C	0.908451	0.511156	0.390230
N117	N	0.440068	-0.034235	-0.153079
N118	N	0.940068	0.465765	0.346921
H119	H	0.835152	-0.030449	0.571520
H120	H	1.335152	0.469551	1.071520
C121	C	0.929136	-0.360934	0.000031
C122	C	1.429136	0.139066	0.500031
N123	N	0.983997	-0.329435	0.000053
N124	N	1.483997	0.170565	0.500053
H125	H	0.746432	-0.375817	0.000006
H126	H	1.246432	0.124183	0.500006
C127	C	0.919084	-0.009484	0.174234
C128	C	1.419084	0.490516	0.674234
N129	N	0.954897	-0.063019	0.141596
N130	N	1.454897	0.436981	0.641596
C131	C	0.180772	0.123281	-0.143298
C132	C	0.680772	0.623281	0.356702
N133	N	0.210828	0.123907	-0.199842
N134	N	0.710828	0.623907	0.300158
C135	C	0.919121	-0.009485	0.825795
C136	C	1.419121	0.490515	1.325795
N137	N	0.954932	-0.063026	0.858436
N138	N	1.454932	0.436974	1.358436
C139	C	0.919105	-0.009466	0.339710
C140	C	1.419105	0.490534	0.839710
N141	N	0.954936	-0.062977	0.372354
N142	N	1.454936	0.437023	0.872354
C143	C	0.836211	-0.055127	0.417301
C144	C	1.336211	0.444873	0.917301
N145	N	0.839313	-0.126666	0.384668
N146	N	1.339313	0.373334	0.884668
C147	C	0.400517	0.244286	0.109793
C148	C	0.900517	0.744286	0.609793
N149	N	0.428998	0.290872	0.153112
N150	N	0.928998	0.790872	0.653112
H151	H	0.486269	0.129376	-0.123805
H152	H	0.986269	0.629376	0.376195
C153	C	0.248193	0.241241	0.109798
C154	C	0.748193	0.741241	0.609798
N155	N	0.216582	0.286628	0.153115
N156	N	0.716582	0.786628	0.653115
H157	H	0.617842	0.131961	0.123818
H158	H	1.117842	0.631961	0.623818
H159	H	0.170381	0.123019	0.123823
H160	H	0.670381	0.623019	0.623823
H161	H	0.906775	0.008992	0.671580
H162	H	1.406775	0.508992	1.171580
C163	C	0.737571	0.261869	0.825797
C164	C	1.237571	0.761869	1.325797
N165	N	0.701760	0.315398	0.858444
N166	N	1.201760	0.815398	1.358444
H167	H	0.038778	0.120382	0.123832
H168	H	0.538778	0.620382	0.623832
H169	H	0.265947	0.024187	-0.094833
H170	H	0.765947	0.524187	0.405167
C171	C	0.628233	0.132193	-0.143307
C172	C	1.128233	0.632193	0.356693
N173	N	0.658286	0.132796	-0.199853
N174	N	1.158286	0.632796	0.300147
H175	H	0.749911	0.243401	0.671578
H176	H	1.249911	0.743401	1.171578
H177	H	0.821523	0.282845	0.571462
H178	H	1.321523	0.782845	1.071462
C179	C	0.820434	0.307516	0.417246
C180	C	1.320434	0.807516	0.917246
N181	N	0.817322	0.379055	0.384593
N182	N	1.317322	0.879055	0.884593
C183	C	0.737529	0.261848	0.339710
C184	C	1.237529	0.761848	0.839710
N185	N	0.701713	0.315370	0.372358
N186	N	1.201713	0.815370	0.872358
C187	C	0.737539	0.261884	0.174229
C188	C	1.237539	0.761884	0.674229
N189	N	0.701753	0.315454	0.141587
N190	N	1.201753	0.815454	0.641587
H191	H	0.486242	0.129332	0.123822
H192	H	0.986242	0.629332	0.623822
