data_functionalizedCrystal
_audit_creation_method	'MofGen! by Chris Wilmer'
_symmetry_space_group_name_H-M	'P1'
_symmetry_Int_Tables_number	1
_symmetry_cell_setting	triclinic
loop_
_symmetry_equiv_pos_as_xyz
  x,y,z
_cell_length_a	16.992695
_cell_length_b	10.654559
_cell_length_c	15.455313
_cell_angle_alpha	87.308787
_cell_angle_beta	87.138508
_cell_angle_gamma	92.421527
loop_
_atom_site_label
_atom_site_type_symbol
_atom_site_fract_x
_atom_site_fract_y
_atom_site_fract_z
O1	O	1.045253	-0.261283	-0.072096
O2	O	0.816952	-0.258359	-0.072105
O3	O	0.936347	-0.077536	-0.072095
O4	O	0.925857	-0.442106	-0.072106
O5	O	0.929520	-0.087831	0.072167
O6	O	0.810124	-0.268654	0.072156
O7	O	1.038425	-0.271577	0.072165
Cu8	Cu	0.923651	-0.271056	0.085333
Cu9	Cu	0.931726	-0.258881	-0.085273
O10	O	0.919030	-0.452400	0.072155
C11	C	0.784305	-0.259746	0.000024
C12	C	0.697200	-0.248527	0.000021
C13	C	0.932162	-0.035819	0.000035
C14	C	0.929853	0.103823	0.000034
C15	C	0.925044	0.163819	0.078670
C16	C	0.922882	0.295029	0.078668
C17	C	0.930333	0.306236	-0.078614
C18	C	0.932501	0.175029	-0.078611
C19	C	0.922396	0.092614	0.157315
C20	C	0.917587	0.152609	0.235958
C21	C	0.915424	0.283819	0.235955
C22	C	0.918070	0.355033	0.157310
C23	C	1.071072	-0.270190	0.000034
C24	C	1.158177	-0.281409	0.000032
C25	C	1.207827	-0.173159	0.000032
C26	C	1.289671	-0.183708	0.000035
C27	C	1.321864	-0.302509	0.000031
C28	C	1.272208	-0.410767	0.000033
C29	C	1.190366	-0.400217	0.000037
C30	C	1.565701	-0.346235	0.000026
C31	C	1.647550	-0.356777	0.000020
C32	C	1.665007	-0.129717	0.000024
C33	C	1.583162	-0.119177	0.000022
C34	C	1.533513	-0.227436	0.000029
N35	N	1.405522	-0.313294	0.000031
N36	N	1.449857	-0.216649	0.000035
C37	C	0.923214	0.505882	0.000025
C38	C	0.925521	0.366240	0.000028
N39	N	0.917978	-0.279618	0.205328
N40	N	0.937406	-0.250308	-0.205268
C41	C	0.968719	-0.202830	0.250727
C42	C	0.964435	-0.209319	0.341534
C43	C	0.909414	-0.292602	0.386941
C44	C	0.858667	-0.369393	0.341537
C45	C	0.862947	-0.362898	0.250731
C46	C	0.890939	-0.320604	0.658521
C47	C	0.886664	-0.327097	0.749334
C48	C	0.992432	-0.167020	0.749325
C49	C	0.996710	-0.160537	0.658517
C50	C	0.945961	-0.237323	0.613120
N51	N	0.905036	-0.299239	0.479761
N52	N	0.950336	-0.230679	0.520302
H53	H	0.924153	-0.014225	0.157326
C54	C	1.172423	-0.042468	0.000038
N55	N	1.145759	0.055972	0.000047
C56	C	1.547756	0.011512	0.000044
N57	N	1.521088	0.109948	0.000065
H58	H	0.911515	0.332664	0.299990
H59	H	1.005752	-0.146791	0.378497
C60	C	1.057234	-0.068912	0.608576
N61	N	1.102822	0.000101	0.570960
C62	C	1.048246	-0.082550	0.799269
N63	N	1.090285	-0.018919	0.836887
H64	H	0.916316	0.461873	0.157315
C65	C	0.807134	-0.447381	0.200793
N66	N	0.765094	-0.511018	0.163181
C67	C	0.937786	0.109029	-0.165115
N68	N	0.941769	0.059319	-0.230272
C69	C	1.135751	-0.519302	0.000034
N70	N	1.094616	-0.609000	0.000035
H71	H	0.932486	0.364228	-0.142643
C72	C	0.914677	0.074271	0.322462
N73	N	0.912483	0.015269	0.387619
H74	H	1.330093	-0.095559	0.000039
C75	C	0.826131	-0.418715	0.799280
N76	N	0.780541	-0.487719	0.836899
H77	H	1.705440	-0.041579	0.000019
C78	C	1.682960	-0.487472	0.000017
N79	N	1.709631	-0.585907	0.000013
C80	C	0.835215	-0.405246	0.608596
N81	N	0.793278	-0.469064	0.570990
H82	H	1.298426	-0.507498	0.000035
H83	H	1.525286	-0.434388	0.000027
C84	C	1.029247	-0.111211	0.200787
N85	N	1.074836	-0.042196	0.163175
C86	C	0.798135	-0.460993	0.391488
N87	N	0.752541	-0.529988	0.429110
