data_functionalizedCrystal
_audit_creation_method	'MofGen! by Chris Wilmer'
_symmetry_space_group_name_H-M	'P1'
_symmetry_Int_Tables_number	1
_symmetry_cell_setting	triclinic
loop_
_symmetry_equiv_pos_as_xyz
  x,y,z
_cell_length_a	12.996460
_cell_length_b	11.026607
_cell_length_c	11.026607
_cell_angle_alpha	108.586017
_cell_angle_beta	90.004715
_cell_angle_gamma	89.999965
loop_
_atom_site_label
_atom_site_type_symbol
_atom_site_fract_x
_atom_site_fract_y
_atom_site_fract_z
O1	O	-0.085564	-1.726727	-0.533625
O2	O	-0.085566	-1.360147	-0.472862
O3	O	-0.085562	-1.513056	-0.319954
O4	O	-0.085569	-1.573819	-0.686534
O5	O	0.085572	-1.513049	-0.319940
O6	O	0.085568	-1.360141	-0.472848
O7	O	0.085569	-1.726721	-0.533612
Cu8	Cu	0.101195	-1.543431	-0.503229
Cu9	Cu	-0.101191	-1.543438	-0.503245
O10	O	0.085565	-1.573813	-0.686520
C11	C	0.000001	-1.312485	-0.461645
C12	C	0.000000	-1.170471	-0.428228
N13	N	-0.243538	-1.543442	-0.503247
C14	C	0.000004	-1.501843	-0.272287
C15	C	0.000000	-1.468426	-0.130273
C16	C	-0.663352	-1.543433	-0.503233
C17	C	-0.546547	-1.543432	-0.503240
C18	C	-0.453449	-1.543436	-0.503239
C19	C	-0.336636	-1.543437	-0.503248
N20	N	0.243542	-1.543435	-0.503219
C21	C	0.000001	-1.774384	-0.544828
C22	C	-0.000006	-1.916398	-0.578245
C23	C	-0.000002	-1.116821	-0.520498
C24	C	-0.000003	-0.970043	-0.485962
C25	C	-0.000003	-1.585026	-0.734187
C26	C	-0.000006	-1.618443	-0.876200
C27	C	-0.000001	-1.560695	-0.076624
C28	C	-0.000005	-1.526160	0.070155
H29	H	0.000001	-1.179555	-0.625061
N30	N	-0.000002	-1.087395	-0.289716
H31	H	0.063438	-1.106103	-0.245830
H32	H	-0.000042	-0.994349	-0.284782
H33	H	0.000006	-1.665258	-0.139357
H34	H	-0.000012	-1.421590	0.132884
N35	N	0.000012	-0.886966	-0.347445
H36	H	0.000014	-0.793888	-0.342408
H37	H	-0.063427	-0.905777	-0.303642
N38	N	-0.000013	-1.756961	0.040725
H39	H	-0.000012	-1.762001	-0.052353
H40	H	0.063428	-1.800761	0.059548
N41	N	0.000012	-1.329917	-0.047188
H42	H	0.000016	-1.273085	-0.103156
H43	H	-0.063429	-1.312041	0.008612
H44	H	-0.000001	-0.979125	-0.682816
