data_functionalizedCrystal
_audit_creation_method	'MofGen! by Chris Wilmer'
_symmetry_space_group_name_H-M	'P1'
_symmetry_Int_Tables_number	1
_symmetry_cell_setting	triclinic
loop_
_symmetry_equiv_pos_as_xyz
  x,y,z
_cell_length_a	16.625548
_cell_length_b	16.625545
_cell_length_c	21.395364
_cell_angle_alpha	89.990067
_cell_angle_beta	90.007647
_cell_angle_gamma	89.974895
loop_
_atom_site_label
_atom_site_type_symbol
_atom_site_fract_x
_atom_site_fract_y
_atom_site_fract_z
Zn1	Zn	1.232569	0.321123	0.354270
Zn2	Zn	1.232499	0.455923	0.249497
Zn3	Zn	1.097761	0.321111	0.249507
Zn4	Zn	1.097697	0.455920	0.354237
O5	O	1.165131	0.388519	0.301878
O6	O	1.345392	0.339011	0.340382
O7	O	1.214623	0.438036	0.161821
O8	O	1.115700	0.208280	0.263422
O9	O	1.345340	0.438048	0.263405
O10	O	1.214742	0.208289	0.340392
O11	O	1.115632	0.338990	0.161828
O12	O	0.984920	0.338987	0.263390
O13	O	1.115591	0.438042	0.441919
O14	O	0.984873	0.438030	0.340335
O15	O	1.214680	0.339008	0.441944
O16	O	1.214561	0.568755	0.263373
O17	O	1.115523	0.568753	0.340325
C18	C	0.955641	0.388507	0.301860
C19	C	0.866020	0.388522	0.301868
C20	C	1.165049	0.598010	0.301858
C21	C	1.165088	0.687631	0.301870
C22	C	0.537844	0.388527	0.301895
C23	C	0.629152	0.388524	0.301885
C24	C	0.701929	0.388525	0.301881
C25	C	0.793243	0.388520	0.301872
C26	C	1.165220	1.015807	0.301945
C27	C	1.165181	0.924498	0.301926
C28	C	1.165153	0.851722	0.301907
C29	C	1.165115	0.760407	0.301889
C30	C	1.375440	0.388531	0.301896
C31	C	1.465061	0.388536	0.301904
C32	C	1.165136	0.388526	0.465301
C33	C	1.165139	0.388529	0.534942
C34	C	1.165229	1.178210	0.301919
C35	C	1.165253	1.088589	0.301956
C36	C	1.216676	0.440085	1.036735
C37	C	1.216674	0.440091	0.971300
C38	C	1.165136	0.388524	0.938581
C39	C	1.113582	0.336961	0.971303
C40	C	1.113579	0.336962	1.036737
C41	C	1.158810	0.315876	0.834923
C42	C	1.158818	0.315874	0.769491
C43	C	1.165140	0.388520	0.736760
C44	C	1.171470	0.461171	0.769471
C45	C	1.171468	0.461172	0.834905
C46	C	1.165133	0.388517	0.867628
C47	C	1.216685	0.440089	0.633094
C48	C	1.216678	0.440096	0.567657
C49	C	1.113590	0.336959	0.567661
C50	C	1.113593	0.336959	0.633096
C51	C	1.165145	0.388523	0.665809
C52	C	1.165124	0.388530	1.139090
C53	C	1.165131	0.388526	1.069449
H54	H	1.258651	0.482075	1.063366
F55	F	1.271536	0.494970	0.936476
H56	H	1.071625	0.294974	0.541022
H57	H	1.153715	0.256711	0.861567
H58	H	1.071619	0.294975	0.944659
F59	F	1.178201	0.538490	0.869715
F60	F	1.178201	0.538492	0.734642
H61	H	1.071623	0.294971	0.659732
H62	H	1.258647	0.482089	0.541022
H63	H	1.153668	0.256717	0.742863
F64	F	1.058712	0.282088	1.071554
H65	H	1.258659	0.482078	0.659729
