data_functionalizedCrystal
_audit_creation_method	'MofGen! by Chris Wilmer'
_symmetry_space_group_name_H-M	'P1'
_symmetry_Int_Tables_number	1
_symmetry_cell_setting	triclinic
loop_
_symmetry_equiv_pos_as_xyz
  x,y,z
_cell_length_a	29.839134
_cell_length_b	25.639240
_cell_length_c	25.639233
_cell_angle_alpha	90.021550
_cell_angle_beta	89.974540
_cell_angle_gamma	89.963303
loop_
_atom_site_label
_atom_site_type_symbol
_atom_site_fract_x
_atom_site_fract_y
_atom_site_fract_z
Zn1	Zn	0.686717	0.208316	-0.295778
Zn2	Zn	0.686644	0.295734	-0.208338
Zn3	Zn	0.611598	0.208304	-0.208337
Zn4	Zn	0.611544	0.295711	-0.295723
O5	O	0.649126	0.252016	-0.252044
O6	O	0.749574	0.219927	-0.284202
O7	O	0.676681	0.284141	-0.135173
O8	O	0.621616	0.135140	-0.219959
O9	O	0.749521	0.284153	-0.219961
O10	O	0.676805	0.135149	-0.284201
O11	O	0.621545	0.219906	-0.135172
O12	O	0.548724	0.219884	-0.219905
O13	O	0.621524	0.284113	-0.368895
O14	O	0.548684	0.284101	-0.284108
O15	O	0.676753	0.219904	-0.368936
O16	O	0.676629	0.368896	-0.219907
O17	O	0.621453	0.368879	-0.284108
C18	C	0.532403	0.251989	-0.252001
C19	C	0.482469	0.251990	-0.251995
C20	C	0.125890	0.218529	-0.218682
C21	C	0.313563	0.218514	-0.218651
O22	O	0.337834	0.190020	-0.190278
N23	N	0.337024	0.251998	-0.252021
C24	C	0.313563	0.285487	-0.285404
O25	O	0.337824	0.313963	-0.313791
C26	C	0.125891	0.285498	-0.285438
C27	C	0.102433	0.252015	-0.252062
C28	C	0.102431	0.185048	-0.185309
C29	C	0.055516	0.185054	-0.185315
C30	C	0.032059	0.218541	-0.218695
C31	C	0.055517	0.252021	-0.252068
C32	C	0.102432	0.318983	-0.318823
C33	C	0.055510	0.318982	-0.318830
C34	C	0.032052	0.285499	-0.285454
C35	C	-0.014855	0.285514	-0.285454
N36	N	-0.038316	0.252030	-0.252083
C37	C	-0.014859	0.218543	-0.218704
C38	C	0.412094	0.285479	-0.285383
C39	C	0.459012	0.285477	-0.285374
C40	C	0.459008	0.218503	-0.218621
C41	C	0.412089	0.218508	-0.218628
C42	C	0.388633	0.251994	-0.252013
C43	C	-0.113385	0.218558	-0.218719
C44	C	-0.160304	0.218569	-0.218727
C45	C	-0.160297	0.285540	-0.285482
C46	C	-0.113381	0.285532	-0.285472
C47	C	-0.089926	0.252037	-0.252089
O48	O	-0.039156	0.313989	-0.313815
O49	O	-0.039128	0.190062	-0.190330
C50	C	0.172805	0.218523	-0.218676
C51	C	0.196264	0.252003	-0.252049
C52	C	0.172807	0.285490	-0.285429
C53	C	0.243181	0.252001	-0.252040
C54	C	0.266639	0.218514	-0.218661
C55	C	0.243178	0.185030	-0.185290
C56	C	0.196262	0.185036	-0.185297
C57	C	0.196267	0.318974	-0.318799
C58	C	0.243183	0.318966	-0.318790
C59	C	0.266640	0.285479	-0.285410
C60	C	0.649039	0.387859	-0.252013
C61	C	0.649044	0.445973	-0.252018
C62	C	0.620359	0.697170	-0.285445
C63	C	0.620346	0.642565	-0.285442
O64	O	0.595901	0.614332	-0.313855
N65	N	0.649088	0.615247	-0.252038
C66	C	0.677848	0.642535	-0.218641
O67	O	0.702295	0.614284	-0.190229
C68	C	0.677863	0.697138	-0.218648
C69	C	0.649116	0.724454	-0.252049
C70	C	0.591615	0.724485	-0.318845
C71	C	0.591627	0.779086	-0.318848
C72	C	0.620384	0.806371	-0.285452
C73	C	0.649128	0.779055	-0.252052
C74	C	0.706625	0.724426	-0.185253
C75	C	0.706637	0.779033	-0.185263
C76	C	0.677890	0.806349	-0.218665
C77	C	0.677897	0.860940	-0.218659
N78	N	0.649155	0.888259	-0.252063
C79	C	0.620399	0.860974	-0.285459
C80	C	0.677816	0.527864	-0.218629
C81	C	0.677799	0.473262	-0.218619
C82	C	0.620297	0.473296	-0.285421
C83	C	0.620312	0.527899	-0.285428
C84	C	0.649074	0.555183	-0.252033
C85	C	0.620426	0.975639	-0.285462
C86	C	0.620440	1.030244	-0.285461
C87	C	0.677943	1.030206	-0.218662
C88	C	0.677928	0.975605	-0.218661
C89	C	0.649168	0.948323	-0.252065
O90	O	0.702332	0.889208	-0.190262
O91	O	0.595960	0.889231	-0.313871
C92	C	0.766304	0.252044	-0.252088
C93	C	0.816238	0.252056	-0.252106
C94	C	0.649140	0.252007	-0.388417
C95	C	0.649146	0.252003	-0.446531
C96	C	0.649207	1.115643	-0.252076
C97	C	0.649197	1.057529	-0.252065
C98	C	0.677941	0.218470	-0.806921
C99	C	0.677946	0.218456	-0.861525
O100	O	0.702392	0.190006	-0.889785
N101	N	0.649196	0.251880	-0.888814
C102	C	0.620435	0.285318	-0.861495
O103	O	0.595981	0.313747	-0.889720
C104	C	0.620428	0.285330	-0.806892
C105	C	0.649183	0.251906	-0.779606
C106	C	0.706693	0.185049	-0.779635
C107	C	0.706688	0.185065	-0.725035
C108	C	0.677931	0.218501	-0.697720
C109	C	0.649178	0.251922	-0.725006
C110	C	0.591665	0.318764	-0.779574
C111	C	0.591659	0.318772	-0.724967
C112	C	0.620415	0.285349	-0.697681
C113	C	0.620415	0.285373	-0.643090
N114	N	0.649165	0.251948	-0.615802
C115	C	0.677923	0.218512	-0.643117
C116	C	0.620452	0.285291	-0.976166
C117	C	0.620462	0.285283	-1.030768
C118	C	0.677972	0.218419	-1.030795
C119	C	0.677965	0.218431	-0.976191
C120	C	0.649203	0.251866	-0.948877
C121	C	0.677910	0.218547	-0.528451
C122	C	0.677904	0.218567	-0.473846
C123	C	0.620392	0.285428	-0.473824
C124	C	0.620400	0.285410	-0.528425
C125	C	0.649161	0.251966	-0.555737
O126	O	0.595981	0.313806	-0.614796
O127	O	0.702369	0.190083	-0.614885
C128	C	0.649137	0.251988	-0.116201
C129	C	0.649218	0.251844	-0.058088
H130	H	0.478115	0.191237	-0.191442
H131	H	0.701332	0.953364	-0.191457
H132	H	0.036415	0.346250	-0.346018
H133	H	0.596906	0.550136	-0.312629
H134	H	0.177173	0.346243	-0.345982
O135	O	0.265988	0.351549	-0.351140
C136	C	0.293109	0.385268	-0.321318
H137	H	0.278954	0.388446	-0.280133
H138	H	0.293629	0.425529	-0.340161
H139	H	0.328674	0.369096	-0.319545
O140	O	0.705914	1.056745	-0.186291
C141	C	0.734909	1.088303	-0.216096
H142	H	0.737669	1.071821	-0.257274
H143	H	0.769490	1.088913	-0.197222
H144	H	0.721014	1.129694	-0.217892
H145	H	0.568198	0.702275	-0.346042
O146	O	0.592429	0.317897	-0.554852
C147	C	0.567056	0.347424	-0.519032
H148	H	0.565515	0.326020	-0.480109
H149	H	0.531656	0.352988	-0.534791
H150	H	0.583479	0.387138	-0.513230
H151	H	0.701388	0.191192	-1.053044
H152	H	-0.094280	0.312800	-0.312646
H153	H	0.597030	0.312521	-0.953930
O154	O	0.389253	0.185959	-0.186280
C155	C	0.362154	0.152221	-0.216109
H156	H	0.355135	0.170714	-0.255701
H157	H	0.329155	0.145187	-0.194829
H158	H	0.380260	0.113482	-0.221917
H159	H	0.730033	0.702193	-0.158055
O160	O	0.734652	0.152639	-0.806223
C161	C	0.763661	0.182404	-0.837802
H162	H	0.747789	0.222020	-0.845977
H163	H	0.769707	0.161096	-0.876201
H164	H	0.796945	0.188164	-0.816764
O165	O	0.592523	0.317931	-0.447223
C166	C	0.618078	0.351718	-0.415652
H167	H	0.652138	0.333288	-0.407500
H168	H	0.599777	0.358720	-0.377241
H169	H	0.622982	0.390465	-0.436686
O170	O	0.563686	0.351246	-0.805990
C171	C	0.538312	0.380761	-0.770161
H172	H	0.536777	0.359350	-0.731242
H173	H	0.502910	0.386321	-0.785916
H174	H	0.554729	0.420478	-0.764354
O175	O	0.734569	0.152512	-0.698563
C176	C	0.724787	0.100404	-0.711936
H177	H	0.688897	0.097766	-0.726927
H178	H	0.728673	0.074569	-0.676043
H179	H	0.748878	0.086742	-0.743653
O180	O	0.032801	0.152475	-0.152881
C181	C	0.063574	0.122929	-0.123414
H182	H	0.097029	0.121156	-0.144831
H183	H	0.050042	0.081725	-0.117917
H184	H	0.068535	0.142015	-0.083668
H185	H	0.597051	0.312505	-1.052979
O186	O	0.705852	0.186047	-0.447422
C187	C	0.731241	0.156542	-0.483245
H188	H	0.712843	0.154719	-0.522160
H189	H	0.736062	0.115352	-0.467476
H190	H	0.765347	0.175694	-0.489064
H191	H	0.701202	0.451025	-0.191415
H192	H	0.568232	0.345995	-0.702731
O193	O	0.173463	0.152588	-0.152812
C194	C	0.146290	0.182311	-0.118997
H195	H	0.160402	0.223487	-0.115706
H196	H	0.145761	0.163352	-0.078790
H197	H	0.110734	0.184127	-0.135151
O198	O	0.592447	0.949223	-0.317928
C199	C	0.567091	0.985051	-0.347413
H200	H	0.565561	1.023982	-0.325993
H201	H	0.531687	0.969315	-0.352945
H202	H	0.583521	0.990826	-0.387144
O203	O	0.705871	0.186134	-0.555035
C204	C	0.734879	0.215898	-0.586617
H205	H	0.719005	0.255513	-0.594793
H206	H	0.740924	0.194589	-0.625015
H207	H	0.768162	0.221661	-0.565581
H208	H	0.597030	1.052483	-0.312662
H209	H	0.701379	0.191214	-0.953979
H210	H	-0.179402	0.191302	-0.191546
H211	H	0.596883	0.451071	-0.312615
H212	H	0.730060	0.801244	-0.158070
H213	H	0.478108	0.312747	-0.312547
O214	O	-0.090675	0.186009	-0.186238
C215	C	-0.121448	0.156455	-0.156795
H216	H	-0.154903	0.177875	-0.154961
H217	H	-0.107916	0.150822	-0.115606
H218	H	-0.126410	0.116772	-0.176010
O219	O	0.563691	0.805536	-0.351347
C220	C	0.538303	0.769736	-0.380810
H221	H	0.556697	0.730793	-0.382633
H222	H	0.533491	0.785491	-0.422003
H223	H	0.504192	0.763973	-0.361620
O224	O	-0.183157	0.318018	-0.317889
C225	C	-0.229597	0.310846	-0.310726
H226	H	-0.235989	0.270473	-0.293672
H227	H	-0.247414	0.314443	-0.349885
H228	H	-0.242942	0.341821	-0.282831
H229	H	0.393000	0.312749	-0.312570
O230	O	0.705700	0.554436	-0.186177
C231	C	0.680168	0.586071	-0.152366
H232	H	0.646105	0.594274	-0.170744
H233	H	0.698486	0.624454	-0.145416
H234	H	0.675267	0.565069	-0.113599
H235	H	0.262285	0.157766	-0.158110
O236	O	0.125234	0.152462	-0.152954
C237	C	0.152416	0.118736	-0.182767
H238	H	0.138307	0.115564	-0.223957
H239	H	0.152952	0.078474	-0.163925
H240	H	0.187969	0.134898	-0.184525
O241	O	0.125142	0.351524	-0.351297
C242	C	0.094368	0.381082	-0.380749
H243	H	0.060937	0.359667	-0.382594
H244	H	0.107935	0.386715	-0.421935
H245	H	0.089348	0.420766	-0.361535
