data_functionalizedCrystal
_audit_creation_method	'MofGen! by Chris Wilmer'
_symmetry_space_group_name_H-M	'P1'
_symmetry_Int_Tables_number	1
_symmetry_cell_setting	triclinic
loop_
_symmetry_equiv_pos_as_xyz
  x,y,z
_cell_length_a	22.610064
_cell_length_b	27.732025
_cell_length_c	23.532407
_cell_angle_alpha	82.741073
_cell_angle_beta	89.997161
_cell_angle_gamma	90.018575
loop_
_atom_site_label
_atom_site_type_symbol
_atom_site_fract_x
_atom_site_fract_y
_atom_site_fract_z
O1	O	-0.049093	0.058673	0.755133
O2	O	-0.049107	0.067163	0.589250
O3	O	-0.049117	-0.007472	0.677350
O4	O	-0.049082	0.133307	0.667033
O5	O	0.049252	-0.007461	0.677335
O6	O	0.049262	0.067174	0.589235
O7	O	0.049277	0.058684	0.755117
Zn8	Zn	0.064887	0.062931	0.672173
Zn9	Zn	-0.064718	0.062916	0.672194
O10	O	0.049287	0.133318	0.667017
C11	C	0.000075	0.066952	0.568027
C12	C	0.000068	0.066302	0.504811
N13	N	0.153340	0.062940	0.672164
C14	C	0.000061	-0.025474	0.677128
C15	C	0.000044	-0.079130	0.676482
N16	N	-0.153171	0.062903	0.672208
C17	C	0.561977	0.029873	0.711206
C18	C	0.623897	0.029869	0.711209
O19	O	0.655912	0.001762	0.744380
N20	N	0.654877	0.062906	0.672194
C21	C	0.623934	0.095945	0.633169
O22	O	0.655971	0.124045	0.599983
C23	C	0.562015	0.095946	0.633163
C24	C	0.531038	0.062910	0.672185
C25	C	0.531000	-0.003160	0.750225
C26	C	0.469084	-0.003156	0.750222
C27	C	0.438146	0.029881	0.711201
C28	C	0.469123	0.062915	0.672183
C29	C	0.531074	0.128983	0.594136
C30	C	0.469151	0.128980	0.594134
C31	C	0.438174	0.095945	0.633156
C32	C	0.376269	0.095957	0.633160
N33	N	0.345288	0.062920	0.672176
C34	C	0.376227	0.029882	0.711196
C35	C	0.753968	0.095940	0.633182
C36	C	0.815886	0.095942	0.633189
C37	C	0.815844	0.029866	0.711229
C38	C	0.753925	0.029866	0.711224
C39	C	0.722988	0.062904	0.672197
C40	C	0.246199	0.029894	0.711189
C41	C	0.184278	0.029902	0.711184
C42	C	0.184326	0.095977	0.633143
C43	C	0.246241	0.095971	0.633149
C44	C	0.277177	0.062925	0.672174
O45	O	0.344214	0.124048	0.600004
O46	O	0.344182	0.001783	0.744372
C47	C	-0.053543	-0.462309	0.671899
C48	C	-0.053562	-0.260646	0.674317
O49	O	-0.099166	-0.234583	0.674660
N50	N	0.000057	-0.235418	0.674611
C51	C	0.053685	-0.260610	0.674304
O52	O	0.099291	-0.234525	0.674615
C53	C	0.053703	-0.462272	0.671890
C54	C	0.000080	-0.487497	0.671590
C55	C	-0.107162	-0.487533	0.671600
C56	C	-0.107157	-0.537946	0.670992
C57	C	-0.053533	-0.563133	0.670684
C58	C	0.000086	-0.537909	0.670983
C59	C	0.107331	-0.487464	0.671587
C60	C	0.107331	-0.537883	0.670985
C61	C	0.053708	-0.563107	0.670685
C62	C	0.053715	-0.613509	0.670066
N63	N	0.000095	-0.638737	0.669772
C64	C	-0.053529	-0.613549	0.670081
C65	C	0.053672	-0.154734	0.675570
C66	C	0.053668	-0.104318	0.676173
C67	C	-0.053580	-0.104358	0.676187
C68	C	-0.053575	-0.154774	0.675580
C69	C	0.000052	-0.179961	0.675277
C70	C	-0.053513	-0.719419	0.668805
C71	C	-0.053503	-0.769835	0.668194
C72	C	0.053744	-0.769792	0.668183
C73	C	0.053734	-0.719379	0.668790
C74	C	0.000101	-0.694194	0.669103
O75	O	0.099295	-0.639604	0.669730
O76	O	-0.099128	-0.639643	0.669782
C77	C	-0.053549	-0.411896	0.672507
C78	C	0.000070	-0.386672	0.672806
C79	C	0.053694	-0.411860	0.672497
C80	C	0.000066	-0.336256	0.673408
C81	C	-0.053558	-0.311068	0.673717
C82	C	-0.107178	-0.336296	0.673423
C83	C	-0.107173	-0.386708	0.672815
C84	C	0.107313	-0.386632	0.672791
C85	C	0.107304	-0.336220	0.673398
C86	C	0.053680	-0.311032	0.673706
C87	C	0.000107	0.151320	0.667240
C88	C	0.000120	0.204977	0.667886
C89	C	0.000105	0.106392	0.105619
C90	C	0.000108	0.105789	0.046220
O91	O	0.000139	0.142953	0.009393
N92	N	0.000096	0.061418	0.023693
C93	C	0.000087	0.017649	0.060568
O94	O	0.000078	-0.020147	0.035953
C95	C	0.000088	0.018253	0.119966
C96	C	0.000094	0.062626	0.142489
C97	C	0.000112	0.150762	0.128143
C98	C	0.000107	0.151366	0.187538
C99	C	0.000096	0.107600	0.224408
C100	C	0.000089	0.063230	0.201884
C101	C	0.000083	-0.025516	0.156840
C102	C	0.000084	-0.024907	0.216241
C103	C	0.000090	0.019466	0.238765
C104	C	0.000073	0.020068	0.298150
N105	N	0.000085	0.064438	0.320677
C106	C	0.000097	0.108204	0.283806
C107	C	0.000086	0.016383	-0.064172
C108	C	0.000081	0.015778	-0.123568
C109	C	0.000104	0.103918	-0.137912
C110	C	0.000105	0.104522	-0.078515
C111	C	0.000098	0.060753	-0.041645
C112	C	0.000087	0.109468	0.408540
C113	C	0.000080	0.110068	0.467941
C114	C	0.000060	0.021929	0.482280
C115	C	0.000064	0.021329	0.422884
C116	C	0.000079	0.065102	0.386015
O117	O	0.000045	-0.017077	0.335012
O118	O	0.000114	0.145994	0.308430
C119	C	0.000093	0.058894	0.776340
C120	C	0.000096	0.059544	0.839556
H121	H	0.159059	0.003001	0.742963
H122	H	-0.097243	-0.083841	0.676435
N123	N	-0.111347	-0.797037	0.667898
H124	H	-0.134808	-0.784185	0.632698
H125	H	-0.134720	-0.792337	0.703357
H126	H	0.097333	-0.083783	0.676406
N127	N	0.279560	-0.005744	0.753282
H128	H	0.250533	-0.026666	0.777999
H129	H	0.305254	0.012655	0.778294
H130	H	0.097398	-0.698838	0.669012
H131	H	0.159126	0.122877	0.601374
H132	H	0.150973	-0.315686	0.673636
H133	H	-0.097240	-0.175308	0.675335
H134	H	0.443866	-0.030058	0.781996
H135	H	0.556184	-0.030066	0.782000
N136	N	0.279657	0.131608	0.591072
H137	H	0.250659	0.152540	0.566355
H138	H	0.305339	0.113211	0.566059
N139	N	0.849219	-0.005769	0.753317
H140	H	0.893144	-0.000755	0.747395
H141	H	0.838384	-0.040034	0.747045
H142	H	0.000067	-0.020355	-0.141901
N143	N	0.720516	-0.005764	0.753311
H144	H	0.749517	-0.026691	0.778030
H145	H	0.694821	-0.027043	0.731700
H146	H	0.097344	-0.175237	0.675323
H147	H	0.841103	0.122848	0.601420
H148	H	0.728782	0.122847	0.601403
H149	H	0.556287	0.155883	0.562361
N150	N	0.165168	-0.460266	0.671915
H151	H	0.199133	-0.483880	0.671633
H152	H	0.167500	-0.443438	0.707487
N153	N	0.111579	-0.796965	0.667860
H154	H	0.103441	-0.832730	0.667436
H155	H	0.134985	-0.792230	0.703287
H156	H	-0.097187	-0.698919	0.669060
N157	N	-0.164993	-0.565156	0.670738
H158	H	-0.198960	-0.541546	0.671049
H159	H	-0.167280	-0.590140	0.705829
N160	N	0.000080	0.157930	0.492234
H161	H	0.000089	0.185562	0.459860
H162	H	0.036544	0.160108	0.516567
N163	N	0.000114	0.199229	0.211820
H164	H	0.036585	0.218391	0.198340
H165	H	0.000088	0.192941	0.255040
H166	H	0.000123	0.186404	0.098128
N167	N	0.000151	0.151132	-0.177672
H168	H	-0.036300	0.170515	-0.170480
H169	H	0.000184	0.143986	-0.218705
N170	N	0.165173	-0.565049	0.670660
H171	H	0.199138	-0.541417	0.670942
H172	H	0.167515	-0.581879	0.635090
N173	N	0.435783	0.164612	0.552038
H174	H	0.464806	0.185537	0.527321
H175	H	0.410100	0.185893	0.573643
H176	H	-0.150831	-0.467031	0.671853
H177	H	0.000113	0.140655	-0.060180
N178	N	-0.165009	-0.413915	0.672530
H179	H	-0.198975	-0.390304	0.672831
H180	H	-0.167318	-0.438909	0.707611
H181	H	0.000101	0.145113	0.378528
N182	N	-0.165016	-0.309119	0.673713
H183	H	-0.156876	-0.273353	0.674130
H184	H	-0.188459	-0.322009	0.708917
N185	N	0.165153	-0.413795	0.672460
H186	H	0.199116	-0.390160	0.672738
H187	H	0.167493	-0.430623	0.636888
H188	H	0.000078	-0.061649	0.138512
H189	H	0.000079	-0.060550	0.246258
H190	H	0.000076	-0.019261	-0.034155
H191	H	0.000050	-0.014804	0.404545
H192	H	0.000049	-0.013704	0.512310
