data_functionalizedCrystal
_audit_creation_method	'MofGen! by Chris Wilmer'
_symmetry_space_group_name_H-M	'P1'
_symmetry_Int_Tables_number	1
_symmetry_cell_setting	triclinic
loop_
_symmetry_equiv_pos_as_xyz
  x,y,z
_cell_length_a	18.101398
_cell_length_b	18.101397
_cell_length_c	18.101389
_cell_angle_alpha	90.021047
_cell_angle_beta	90.024327
_cell_angle_gamma	90.015732
loop_
_atom_site_label
_atom_site_type_symbol
_atom_site_fract_x
_atom_site_fract_y
_atom_site_fract_z
Zn1	Zn	1.132176	-0.295001	0.418825
Zn2	Zn	1.382176	-0.045001	0.668825
Zn3	Zn	1.632176	0.204999	0.918825
Zn4	Zn	1.882176	0.454999	1.168825
Zn5	Zn	1.132095	-0.418826	0.294978
Zn6	Zn	1.382095	-0.168826	0.544978
Zn7	Zn	1.632095	0.081174	0.794978
Zn8	Zn	1.882095	0.331174	1.044978
Zn9	Zn	1.008335	-0.294993	0.294986
Zn10	Zn	1.258335	-0.044993	0.544986
Zn11	Zn	1.508335	0.205007	0.794986
Zn12	Zn	1.758335	0.455007	1.044986
Zn13	Zn	1.008308	-0.418795	0.418767
Zn14	Zn	1.258308	-0.168795	0.668767
Zn15	Zn	1.508308	0.081205	0.918767
Zn16	Zn	1.758308	0.331205	1.168767
O17	O	1.070228	-0.356904	0.356889
O18	O	1.320228	-0.106904	0.606889
O19	O	1.570228	0.143096	0.856889
O20	O	1.820228	0.393096	1.106889
O21	O	1.235798	-0.311443	0.402418
O22	O	1.485798	-0.061443	0.652418
O23	O	1.735798	0.188557	0.902418
O24	O	1.985798	0.438557	1.152418
O25	O	1.115655	-0.402410	0.191346
O26	O	1.365655	-0.152410	0.441346
O27	O	1.615655	0.097590	0.691346
O28	O	1.865655	0.347590	0.941346
O29	O	1.024807	-0.191361	0.311442
O30	O	1.274807	0.058639	0.561442
O31	O	1.524807	0.308639	0.811442
O32	O	1.774807	0.558639	1.061442
O33	O	1.235738	-0.402417	0.311428
O34	O	1.485738	-0.152417	0.561428
O35	O	1.735738	0.097583	0.811428
O36	O	1.985738	0.347583	1.061428
O37	O	1.115793	-0.191367	0.402426
O38	O	1.365793	0.058633	0.652426
O39	O	1.615793	0.308633	0.902426
O40	O	1.865793	0.558633	1.152426
O41	O	1.024729	-0.311430	0.191352
O42	O	1.274729	-0.061430	0.441352
O43	O	1.524729	0.188570	0.691352
O44	O	1.774729	0.438570	0.941352
O45	O	0.904698	-0.311399	0.311385
O46	O	1.154698	-0.061399	0.561385
O47	O	1.404698	0.188601	0.811385
O48	O	1.654698	0.438601	1.061385
O49	O	1.024763	-0.402363	0.522407
O50	O	1.274763	-0.152363	0.772407
O51	O	1.524763	0.097637	1.022407
O52	O	1.774763	0.347637	1.272407
O53	O	0.904679	-0.402356	0.402326
O54	O	1.154679	-0.152356	0.652326
O55	O	1.404679	0.097644	0.902326
O56	O	1.654679	0.347644	1.152326
O57	O	1.115767	-0.311412	0.522450
O58	O	1.365767	-0.061412	0.772450
O59	O	1.615767	0.188588	1.022450
O60	O	1.865767	0.438588	1.272450
O61	O	1.115629	-0.522455	0.311371
O62	O	1.365629	-0.272455	0.561371
O63	O	1.615629	-0.022455	0.811371
O64	O	1.865629	0.227545	1.061371
O65	O	1.024684	-0.522432	0.402318
O66	O	1.274684	-0.272432	0.652318
O67	O	1.524684	-0.022432	0.902318
O68	O	1.774684	0.227568	1.152318
C69	C	0.877818	-0.356874	0.356850
C70	C	1.127818	-0.106874	0.606850
C71	C	1.377818	0.143126	0.856850
C72	C	1.627818	0.393126	1.106850
C73	C	0.795504	-0.356879	0.356851
C74	C	1.045504	-0.106879	0.606851
C75	C	1.295504	0.143121	0.856851
C76	C	1.545504	0.393121	1.106851
C77	C	1.070165	-0.549314	0.356853
C78	C	1.320165	-0.299314	0.606853
C79	C	1.570165	-0.049314	0.856853
C80	C	1.820165	0.200686	1.106853
C81	C	1.070206	-0.631628	0.356863
C82	C	1.320206	-0.381628	0.606863
C83	C	1.570206	-0.131628	0.856863
C84	C	1.820206	0.118372	1.106863
C85	C	0.496413	-0.356925	0.356914
C86	C	0.746413	-0.106925	0.606914
C87	C	0.996413	0.143075	0.856914
C88	C	1.246413	0.393075	1.106914
C89	C	0.527725	-0.299411	0.299975
C90	C	0.777725	-0.049411	0.549975
C91	C	1.027725	0.200589	0.799975
C92	C	1.277725	0.450589	1.049975
C93	C	0.613344	-0.299566	0.299732
C94	C	0.863344	-0.049566	0.549732
C95	C	1.113344	0.200434	0.799732
C96	C	1.363344	0.450434	1.049732
C97	C	0.644795	-0.356901	0.356883
C98	C	0.894795	-0.106901	0.606883
C99	C	1.144795	0.143099	0.856883
C100	C	1.394795	0.393099	1.106883
C101	C	0.613692	-0.434909	0.335555
C102	C	0.863692	-0.184909	0.585555
C103	C	1.113692	0.065091	0.835555
C104	C	1.363692	0.315091	1.085555
C105	C	0.528046	-0.434590	0.335159
C106	C	0.778046	-0.184590	0.585159
C107	C	1.028046	0.065410	0.835159
C108	C	1.278046	0.315410	1.085159
C109	C	0.528024	-0.337109	0.435314
C110	C	0.778024	-0.087109	0.685314
C111	C	1.028024	0.162891	0.935314
C112	C	1.278024	0.412891	1.185314
C113	C	0.613674	-0.335371	0.434886
C114	C	0.863674	-0.085371	0.684886
C115	C	1.113674	0.164629	0.934886
C116	C	1.363674	0.414629	1.184886
C117	C	0.728655	-0.356893	0.356867
C118	C	0.978655	-0.106893	0.606867
C119	C	1.228655	0.143107	0.856867
C120	C	1.478655	0.393107	1.106867
C121	C	0.412553	-0.356939	0.356928
C122	C	0.662553	-0.106939	0.606928
C123	C	0.912553	0.143061	0.856928
C124	C	1.162553	0.393061	1.106928
C125	C	1.070300	-0.930719	0.356930
C126	C	1.320300	-0.680719	0.606930
C127	C	1.570300	-0.430719	0.856930
C128	C	1.820300	-0.180719	1.106930
C129	C	1.127361	-0.899378	0.299555
C130	C	1.377361	-0.649378	0.549555
C131	C	1.627361	-0.399378	0.799555
C132	C	1.877361	-0.149378	1.049555
C133	C	1.127559	-0.813759	0.299704
C134	C	1.377559	-0.563759	0.549704
C135	C	1.627559	-0.313759	0.799704
C136	C	1.877559	-0.063759	1.049704
C137	C	1.070253	-0.782337	0.356896
C138	C	1.320253	-0.532337	0.606896
C139	C	1.570253	-0.282337	0.856896
C140	C	1.820253	-0.032337	1.106896
C141	C	1.091409	-0.813359	0.434959
C142	C	1.341409	-0.563359	0.684959
C143	C	1.591409	-0.313359	0.934959
C144	C	1.841409	-0.063359	1.184959
C145	C	1.091851	-0.899004	0.434646
C146	C	1.341851	-0.649004	0.684646
C147	C	1.591851	-0.399004	0.934646
C148	C	1.841851	-0.149004	1.184646
C149	C	0.991931	-0.899218	0.336918
C150	C	1.241931	-0.649218	0.586918
C151	C	1.491931	-0.399218	0.836918
C152	C	1.741931	-0.149218	1.086918
C153	C	0.992318	-0.813569	0.335175
C154	C	1.242318	-0.563569	0.585175
C155	C	1.492318	-0.313569	0.835175
C156	C	1.742318	-0.063569	1.085175
C157	C	1.070226	-0.698477	0.356881
C158	C	1.320226	-0.448477	0.606881
C159	C	1.570226	-0.198477	0.856881
C160	C	1.820226	0.051523	1.106881
C161	C	1.070330	-1.014579	0.356950
C162	C	1.320330	-0.764579	0.606950
C163	C	1.570330	-0.514579	0.856950
C164	C	1.820330	-0.264579	1.106950
C165	C	1.263390	-0.356934	0.356928
C166	C	1.513390	-0.106934	0.606928
C167	C	1.763390	0.143066	0.856928
C168	C	2.013390	0.393066	1.106928
C169	C	1.345704	-0.356948	0.356945
C170	C	1.595704	-0.106948	0.606945
C171	C	1.845704	0.143052	0.856945
C172	C	2.095704	0.393052	1.106945
C173	C	1.070271	-0.356885	0.550051
C174	C	1.320271	-0.106885	0.800051
C175	C	1.570271	0.143115	1.050051
C176	C	1.820271	0.393115	1.300051
C177	C	1.070289	-0.356877	0.632365
C178	C	1.320289	-0.106877	0.882365
C179	C	1.570289	0.143123	1.132365
C180	C	1.820289	0.393123	1.382365
C181	C	1.070312	-0.163742	0.356941
C182	C	1.320312	0.086258	0.606941
C183	C	1.570312	0.336258	0.856941
C184	C	1.820312	0.586258	1.106941
C185	C	1.070348	-0.081428	0.356964
C186	C	1.320348	0.168572	0.606964
C187	C	1.570348	0.418572	0.856964
C188	C	1.820348	0.668572	1.106964
C189	C	1.070228	-0.356869	0.164479
C190	C	1.320228	-0.106869	0.414479
C191	C	1.570228	0.143131	0.664479
C192	C	1.820228	0.393131	0.914479
C193	C	1.070354	-0.356668	0.082165
C194	C	1.320354	-0.106668	0.332165
C195	C	1.570354	0.143332	0.582165
C196	C	1.820354	0.393332	0.832165
C197	C	1.070333	-0.356738	0.931456
C198	C	1.320333	-0.106738	1.181456
C199	C	1.570333	0.143262	1.431456
C200	C	1.820333	0.393262	1.681456
C201	C	1.012878	-0.413780	0.900104
C202	C	1.262878	-0.163780	1.150104
C203	C	1.512878	0.086220	1.400104
C204	C	1.762878	0.336220	1.650104
C205	C	1.013033	-0.414045	0.814486
C206	C	1.263033	-0.164045	1.064486
C207	C	1.513033	0.085955	1.314486
C208	C	1.763033	0.335955	1.564486
C209	C	1.070310	-0.356807	0.783074
C210	C	1.320310	-0.106807	1.033074
C211	C	1.570310	0.143193	1.283074
C212	C	1.820310	0.393193	1.533074
C213	C	1.148340	-0.377998	0.814178
C214	C	1.398340	-0.127998	1.064178
C215	C	1.648340	0.122002	1.314178
C216	C	1.898340	0.372002	1.564178
C217	C	1.148020	-0.378372	0.899823
C218	C	1.398020	-0.128372	1.149823
C219	C	1.648020	0.121628	1.399823
C220	C	1.898020	0.371628	1.649823
C221	C	1.050437	-0.278379	0.899884
C222	C	1.300437	-0.028379	1.149884
C223	C	1.550437	0.221621	1.399884
C224	C	1.800437	0.471621	1.649884
C225	C	1.048701	-0.278832	0.814233
C226	C	1.298701	-0.028832	1.064233
C227	C	1.548701	0.221168	1.314233
C228	C	1.798701	0.471168	1.564233
C229	C	1.070303	-0.356845	0.699214
C230	C	1.320303	-0.106845	0.949214
C231	C	1.570303	0.143155	1.199214
C232	C	1.820303	0.393155	1.449214
C233	C	1.070345	-0.356702	1.015316
C234	C	1.320345	-0.106702	1.265316
C235	C	1.570345	0.143298	1.515316
C236	C	1.820345	0.393298	1.765316
H237	H	0.634373	-0.241719	0.313102
H238	H	0.884373	0.008281	0.563102
H239	H	1.134373	0.258281	0.813102
H240	H	1.384373	0.508281	1.063102
F241	F	0.937017	-0.396622	0.927005
F242	F	1.187017	-0.146622	1.177005
F243	F	1.437017	0.103378	1.427005
F244	F	1.687017	0.353378	1.677005
F245	F	1.099411	-0.220332	0.786294
F246	F	1.349411	0.029668	1.036294
F247	F	1.599411	0.279668	1.286294
F248	F	1.849411	0.529668	1.536294
H249	H	1.149135	-0.918930	0.451597
H250	H	1.399135	-0.668930	0.701597
H251	H	1.649135	-0.418930	0.951597
H252	H	1.899135	-0.168930	1.201597
H253	H	0.635110	-0.452008	0.278859
H254	H	0.885110	-0.202008	0.528859
H255	H	1.135110	0.047992	0.778859
H256	H	1.385110	0.297992	1.028859
F257	F	0.971463	-0.787072	0.260089
F258	F	1.221463	-0.537072	0.510089
F259	F	1.471463	-0.287072	0.760089
F260	F	1.721463	-0.037072	1.010089
F261	F	0.973641	-0.257946	0.787667
F262	F	1.223641	-0.007946	1.037667
F263	F	1.473641	0.242054	1.287667
F264	F	1.723641	0.492054	1.537667
F265	F	0.500970	-0.492498	0.386996
F266	F	0.750970	-0.242498	0.636996
F267	F	1.000970	0.007502	0.886996
F268	F	1.250970	0.257502	1.136996
F269	F	0.933758	-0.785621	0.385795
F270	F	1.183758	-0.535621	0.635795
F271	F	1.433758	-0.285621	0.885795
F272	F	1.683758	-0.035621	1.135795
H273	H	1.165496	-0.434671	0.792734
H274	H	1.415496	-0.184671	1.042734
H275	H	1.665496	0.065329	1.292734
H276	H	1.915496	0.315329	1.542734
F277	F	1.039881	-0.926103	0.492421
F278	F	1.289881	-0.676103	0.742421
F279	F	1.539881	-0.426103	0.992421
F280	F	1.789881	-0.176103	1.242421
F281	F	0.641657	-0.386137	0.493310
F282	F	0.891657	-0.136137	0.743310
F283	F	1.141657	0.113863	0.993310
F284	F	1.391657	0.363863	1.243310
H285	H	1.185095	-0.920853	0.312645
H286	H	1.435095	-0.670853	0.562645
H287	H	1.685095	-0.420853	0.812645
H288	H	1.935095	-0.170853	1.062645
F289	F	0.936361	-0.925713	0.391536
F290	F	1.186361	-0.675713	0.641536
F291	F	1.436361	-0.425713	0.891536
F292	F	1.686361	-0.175713	1.141536
H293	H	0.955171	-0.400783	0.793454
H294	H	1.205171	-0.150783	1.043454
H295	H	1.455171	0.099217	1.293454
H296	H	1.705171	0.349217	1.543454
F297	F	0.640312	-0.492420	0.388067
F298	F	0.890312	-0.242420	0.638067
F299	F	1.140312	0.007580	0.888067
F300	F	1.390312	0.257580	1.138067
H301	H	0.506441	-0.281216	0.454705
H302	H	0.756441	-0.031216	0.704705
H303	H	1.006441	0.218784	0.954705
H304	H	1.256441	0.468784	1.204705
F305	F	1.203435	-0.786913	0.317015
F306	F	1.453435	-0.536913	0.567015
F307	F	1.703435	-0.286913	0.817015
F308	F	1.953435	-0.036913	1.067015
H309	H	1.051120	-0.793003	0.478857
H310	H	1.301120	-0.543003	0.728857
H311	H	1.551120	-0.293003	0.978857
H312	H	1.801120	-0.043003	1.228857
H313	H	1.025884	-0.471508	0.921627
H314	H	1.275884	-0.221508	1.171627
H315	H	1.525884	0.028492	1.421627
H316	H	1.775884	0.278492	1.671627
F317	F	1.105134	-0.222829	0.926388
F318	F	1.355134	0.027171	1.176388
F319	F	1.605134	0.277171	1.426388
F320	F	1.855134	0.527171	1.676388
H321	H	0.634008	-0.277966	0.450968
H322	H	0.884008	-0.027966	0.700968
H323	H	1.134008	0.222034	0.950968
H324	H	1.384008	0.472034	1.200968
F325	F	0.501557	-0.391861	0.490766
F326	F	0.751557	-0.141861	0.740766
F327	F	1.001557	0.108139	0.990766
F328	F	1.251557	0.358139	1.240766
H329	H	1.192280	-0.338629	0.920566
H330	H	1.442280	-0.088629	1.170566
H331	H	1.692280	0.161371	1.420566
H332	H	1.942280	0.411371	1.670566
F333	F	0.966774	-0.927516	0.263805
F334	F	1.216774	-0.677516	0.513805
F335	F	1.466774	-0.427516	0.763805
F336	F	1.716774	-0.177516	1.013805
F337	F	0.500825	-0.223569	0.317256
F338	F	0.750825	0.026431	0.567256
F339	F	1.000825	0.276431	0.817256
F340	F	1.250825	0.526431	1.067256
H341	H	1.114323	-0.792787	0.241822
H342	H	1.364323	-0.542787	0.491822
H343	H	1.614323	-0.292787	0.741822
H344	H	1.864323	-0.042787	0.991822
F345	F	1.165446	-0.785259	0.457491
F346	F	1.415446	-0.535259	0.707491
F347	F	1.665446	-0.285259	0.957491
F348	F	1.915446	-0.035259	1.207491
H349	H	1.114285	-0.920010	0.241500
H350	H	1.364285	-0.670010	0.491500
H351	H	1.614285	-0.420010	0.741500
H352	H	1.864285	-0.170010	0.991500
H353	H	1.026170	-0.472127	0.794001
H354	H	1.276170	-0.222127	1.044001
H355	H	1.526170	0.027873	1.294001
H356	H	1.776170	0.277873	1.544001
F357	F	1.170062	-0.453243	0.925942
F358	F	1.420062	-0.203243	1.175942
F359	F	1.670062	0.046757	1.425942
F360	F	1.920062	0.296757	1.675942
F361	F	1.205799	-0.325401	0.787590
F362	F	1.455799	-0.075401	1.037590
F363	F	1.705799	0.174599	1.287590
F364	F	1.955799	0.424599	1.537590
F365	F	0.977356	-0.253146	0.928097
F366	F	1.227356	-0.003146	1.178097
F367	F	1.477356	0.246854	1.428097
F368	F	1.727356	0.496854	1.678097
H369	H	0.506178	-0.312363	0.242220
H370	H	0.756178	-0.062363	0.492220
H371	H	1.006178	0.187637	0.742220
H372	H	1.256178	0.437637	0.992220
H373	H	0.508038	-0.451397	0.277844
H374	H	0.758038	-0.201397	0.527844
H375	H	1.008038	0.048603	0.777844
H376	H	1.258038	0.298603	1.027844
F377	F	0.640084	-0.316684	0.223799
F378	F	0.890084	-0.066684	0.473799
F379	F	1.140084	0.183316	0.723799
F380	F	1.390084	0.433316	0.973799
