data_functionalizedCrystal
_audit_creation_method	'MofGen! by Chris Wilmer'
_symmetry_space_group_name_H-M	'P1'
_symmetry_Int_Tables_number	1
_symmetry_cell_setting	triclinic
loop_
_symmetry_equiv_pos_as_xyz
  x,y,z
_cell_length_a	12.970454
_cell_length_b	12.970454
_cell_length_c	18.878441
_cell_angle_alpha	89.999545
_cell_angle_beta	59.999238
_cell_angle_gamma	59.999322
loop_
_atom_site_label
_atom_site_type_symbol
_atom_site_fract_x
_atom_site_fract_y
_atom_site_fract_z
Zr1	Zr	1.128531	0.993211	-0.092984
O2	O	1.343627	0.828581	-0.206089
O3	O	0.913438	1.043679	-0.058311
O4	O	1.128537	1.043671	-0.206093
O5	O	1.128522	0.828596	0.058264
O6	O	1.128538	1.213337	-0.206096
O7	O	1.128528	0.828589	-0.058307
O8	O	0.743766	1.213352	0.058258
O9	O	1.513294	0.828581	-0.206089
O10	O	1.001908	1.191823	-0.043527
O11	O	1.001903	1.065208	0.043472
O12	O	1.255154	1.065198	-0.130521
O13	O	1.255149	0.938583	-0.043522
Zr14	Zr	1.128522	1.263820	0.092929
Zr15	Zr	1.128532	1.263810	-0.092990
Zr16	Zr	1.128521	0.993221	0.092934
Zr17	Zr	1.399131	0.993211	-0.092985
Zr18	Zr	0.857922	1.263820	0.092930
O19	O	1.343615	1.213352	0.058256
O20	O	1.343628	1.213337	-0.206097
O21	O	1.343613	0.828596	0.058264
O22	O	0.913426	1.428450	0.206033
O23	O	0.913440	1.428435	-0.058319
O24	O	0.913425	1.043694	0.206041
O25	O	1.128531	1.428435	-0.058320
O26	O	1.128516	1.213360	0.206037
O27	O	1.128515	1.043694	0.206041
O28	O	1.128525	1.428442	0.058252
O29	O	1.513295	1.043671	-0.206094
O30	O	0.743758	1.213360	0.206038
O31	O	0.743759	1.428450	0.206034
O32	O	0.743767	1.428442	0.058253
O33	O	1.513286	0.828589	-0.058309
O34	O	1.513287	1.043679	-0.058313
O35	O	1.001899	1.191833	0.130466
O36	O	1.001904	1.318448	0.043467
O37	O	1.255150	1.191823	-0.043528
O38	O	1.255145	1.065208	0.043471
C39	C	0.790047	1.128516	-0.000027
C40	C	0.675171	1.128515	-0.000026
C41	C	1.128525	0.790038	-0.000021
C42	C	1.128524	0.675162	-0.000018
C43	C	1.128539	1.128503	-0.232584
C44	C	1.128543	1.128498	-0.311511
C45	C	1.467006	1.128516	-0.000029
C46	C	1.581883	1.128516	-0.000029
C47	C	1.128528	1.466993	-0.000035
C48	C	1.128529	1.581869	-0.000037
C49	C	1.260733	1.062401	-0.394002
C50	C	1.260728	1.062414	-0.468160
C51	C	1.128531	1.128516	-0.459825
C52	C	0.996331	1.194621	-0.377326
C53	C	0.996337	1.194616	-0.303170
C54	C	0.996327	1.194626	-0.531893
C55	C	0.996320	1.194630	-0.606054
C56	C	1.260718	1.062424	-0.696883
C57	C	1.260724	1.062418	-0.622727
C58	C	1.128523	1.128522	-0.540233
C59	C	1.128514	1.128529	0.232528
C60	C	1.128510	1.128533	0.311456
C61	C	0.790049	1.466993	-0.000034
C62	C	0.675173	1.581869	-0.000036
C63	C	0.790035	1.128528	0.232529
C64	C	0.675154	1.128533	0.311457
C65	C	0.790037	1.467006	0.232522
C66	C	0.675157	1.581887	0.311448
C67	C	1.467016	0.790025	-0.232578
C68	C	1.581896	0.675145	-0.311503
C69	C	1.467004	0.790038	-0.000022
C70	C	1.581880	0.675162	-0.000020
C71	C	1.467018	1.128503	-0.232585
C72	C	1.581899	1.128498	-0.311513
C73	C	0.621203	1.194632	0.393940
C74	C	0.513276	1.194631	0.468108
C75	C	0.459294	1.128538	0.459792
C76	C	0.513256	1.062431	0.377300
C77	C	0.621189	1.062425	0.303134
C78	C	0.621210	1.701939	0.303099
C79	C	0.513283	1.809892	0.377251
C80	C	0.459297	1.797789	0.459750
C81	C	0.513254	1.677724	0.468097
C82	C	0.621186	1.569774	0.393946
C83	C	1.635856	0.555092	-0.303155
C84	C	1.743817	0.447139	-0.377307
C85	C	1.797809	0.459242	-0.459806
C86	C	1.743845	0.579307	-0.468153
C87	C	1.635893	0.687257	-0.394002
C88	C	1.635846	1.194604	-0.303168
C89	C	1.743775	1.194625	-0.377322
C90	C	1.797761	1.128531	-0.459820
C91	C	1.743803	1.062423	-0.468163
C92	C	1.635869	1.062411	-0.394010
H93	H	1.368383	1.008565	-0.400799
O94	O	0.460591	1.666204	0.548304
C95	C	0.353781	1.787236	0.611951
H96	H	0.306614	1.858763	0.583029
H97	H	0.405413	1.814734	0.635151
C98	C	0.289009	1.697827	0.724730
C99	C	0.231069	1.785676	0.689208
H100	H	0.213317	1.696865	0.772388
H101	H	0.360973	1.616285	0.681851
H102	H	0.332035	1.720753	0.744056
H103	H	0.188061	1.762740	0.669873
H104	H	0.159095	1.867214	0.732087
H105	H	0.665102	1.008603	0.235975
H106	H	1.591960	0.785006	-0.400810
H107	H	1.591957	1.008574	-0.400816
H108	H	0.888674	1.248455	-0.599262
O109	O	0.673778	1.453063	0.401908
C110	C	0.780591	1.360363	0.318777
H111	H	0.827833	1.402391	0.269604
H112	H	0.728939	1.326610	0.299894
C113	C	0.845201	1.196304	0.380298
C114	C	0.903233	1.247921	0.319904
H115	H	0.920850	1.126942	0.380993
H116	H	0.773236	1.258757	0.436305
H117	H	0.802159	1.168187	0.364555
H118	H	0.946257	1.276051	0.335654
H119	H	0.975209	1.185470	0.263899
H120	H	1.368371	1.008593	-0.535325
O121	O	0.673422	1.713938	0.223030
C122	C	0.602567	1.843058	0.231581
H123	H	0.558216	1.900623	0.297718
H124	H	0.508723	1.874856	0.225605
C125	C	0.766319	1.792683	0.078422
C126	C	0.711857	1.863385	0.159650
H127	H	0.833730	1.805222	0.034050
H128	H	0.814052	1.705692	0.072660
H129	H	0.688103	1.819189	0.073454
H130	H	0.790069	1.836867	0.164621
H131	H	0.664139	1.950372	0.165411
H132	H	1.787819	0.589146	-0.535332
O133	O	0.867797	1.258839	-0.223101
C134	C	0.751114	1.317210	-0.231644
H135	H	0.789862	1.265370	-0.297818
H136	H	0.710470	1.419799	-0.225568
C137	C	0.578626	1.376086	-0.078515
C138	C	0.626214	1.312409	-0.159789
H139	H	0.501578	1.373131	-0.034191
H140	H	0.657236	1.336765	-0.072759
H141	H	0.544766	1.461571	-0.073465
H142	H	0.660089	1.226922	-0.164843
H143	H	0.547606	1.351715	-0.165545
H144	H	1.787696	1.248456	-0.370513
H145	H	1.787775	1.008612	-0.535342
H146	H	1.885709	0.371331	-0.520177
O147	O	0.460975	1.258971	0.548168
C148	C	0.531785	1.317288	0.539595
H149	H	0.576252	1.330357	0.473413
H150	H	0.625540	1.255357	0.545667
C151	C	0.367802	1.430943	0.692716
C152	C	0.422407	1.447005	0.611433
H153	H	0.300336	1.510956	0.737031
H154	H	0.320099	1.391650	0.698493
H155	H	0.445943	1.379329	0.697763
H156	H	0.344268	1.498604	0.606383
H157	H	0.470094	1.486310	0.605657
H158	H	0.469362	1.907644	0.370439
H159	H	1.368370	1.008585	-0.629519
H160	H	1.368361	1.008594	-0.764055
H161	H	1.591907	1.248425	-0.236001
H162	H	1.885648	1.128551	-0.520193
H163	H	0.888675	1.248456	-0.464724
H164	H	0.888694	1.248450	-0.370545
H165	H	0.665143	1.248453	0.400728
H166	H	0.371408	1.128553	0.520190
H167	H	1.787736	0.349388	-0.370494
H168	H	0.469288	1.008620	0.370541
H169	H	0.371411	1.885700	0.520122
H170	H	1.591901	0.545214	-0.235987
