data_functionalizedCrystal
_audit_creation_method	'MofGen! by Chris Wilmer'
_symmetry_space_group_name_H-M	'P1'
_symmetry_Int_Tables_number	1
_symmetry_cell_setting	triclinic
loop_
_symmetry_equiv_pos_as_xyz
  x,y,z
_cell_length_a	19.805407
_cell_length_b	25.639239
_cell_length_c	19.805398
_cell_angle_alpha	89.970248
_cell_angle_beta	89.986879
_cell_angle_gamma	90.038686
loop_
_atom_site_label
_atom_site_type_symbol
_atom_site_fract_x
_atom_site_fract_y
_atom_site_fract_z
Zn1	Zn	1.034635	-0.208158	-0.382714
Zn2	Zn	1.034538	-0.295593	-0.269524
Zn3	Zn	0.921462	-0.208174	-0.269539
Zn4	Zn	0.921389	-0.295564	-0.382670
O5	O	0.978006	-0.251872	-0.326112
O6	O	1.129339	-0.219762	-0.367711
O7	O	1.019529	-0.284016	-0.174809
O8	O	0.936546	-0.135006	-0.284576
O9	O	1.129268	-0.284000	-0.284551
O10	O	1.019693	-0.134995	-0.367726
O11	O	0.936452	-0.219789	-0.174820
O12	O	0.826736	-0.219761	-0.284534
O13	O	0.936421	-0.283950	-0.477393
O14	O	0.826682	-0.283966	-0.367651
O15	O	1.019622	-0.219733	-0.477425
O16	O	1.019457	-0.368755	-0.284508
O17	O	0.936327	-0.368733	-0.367637
C18	C	0.802150	-0.251862	-0.326090
C19	C	0.726918	-0.251870	-0.326097
C20	C	0.691563	-0.285352	-0.369306
C21	C	0.620875	-0.285353	-0.369315
C22	C	0.585542	-0.251874	-0.326112
C23	C	0.620902	-0.218389	-0.282901
C24	C	0.691589	-0.218386	-0.282895
C25	C	0.335829	-0.218400	-0.282923
C26	C	0.265137	-0.218407	-0.282931
C27	C	0.265115	-0.285368	-0.369343
C28	C	0.335802	-0.285365	-0.369338
C29	C	0.371155	-0.251877	-0.326129
C30	C	0.447803	-0.251876	-0.326121
C31	C	0.508895	-0.251878	-0.326117
C32	C	0.977892	-0.387715	-0.326081
C33	C	0.977905	-0.445829	-0.326090
C34	C	1.021405	-0.806190	-0.282901
C35	C	1.021431	-0.860795	-0.282910
O36	O	1.058298	-0.889030	-0.246154
N37	N	0.978125	-0.888111	-0.326157
C38	C	0.934795	-0.860820	-0.369402
O39	O	0.897962	-0.889069	-0.406189
C40	C	0.934772	-0.806217	-0.369396
C41	C	0.978076	-0.778903	-0.326141
C42	C	1.064706	-0.778877	-0.239650
C43	C	1.064679	-0.724276	-0.239640
C44	C	1.021350	-0.696989	-0.282881
C45	C	0.978049	-0.724303	-0.326132
C46	C	0.891446	-0.778927	-0.412645
C47	C	0.891428	-0.724320	-0.412635
C48	C	0.934732	-0.697007	-0.369381
C49	C	0.934693	-0.642416	-0.369363
N50	N	0.978000	-0.615099	-0.326116
C51	C	1.021328	-0.642386	-0.282875
C52	C	0.934846	-0.975491	-0.369413
C53	C	0.934864	-1.030093	-0.369416
C54	C	1.021502	-1.030064	-0.282924
C55	C	1.021479	-0.975461	-0.282918
C56	C	0.978152	-0.948175	-0.326166
C57	C	1.021267	-0.527721	-0.282857
C58	C	1.021234	-0.473116	-0.282849
C59	C	0.934599	-0.473150	-0.369343
C60	C	0.934629	-0.527750	-0.369349
C61	C	0.977969	-0.555035	-0.326104
O62	O	0.897847	-0.614145	-0.406101
O63	O	1.058161	-0.614131	-0.246101
C64	C	1.154549	-0.251883	-0.326134
C65	C	1.229781	-0.251887	-0.326144
C66	C	0.978024	-0.251837	-0.502655
C67	C	0.978032	-0.251822	-0.577887
C68	C	0.978139	-0.115499	-0.326158
C69	C	0.978195	-0.057385	-0.326177
C70	C	1.021396	-0.285181	-1.039670
C71	C	1.021378	-0.285196	-0.968981
C72	C	0.978116	-0.251763	-0.933649
C73	C	0.934865	-0.218317	-0.969008
C74	C	0.934881	-0.218306	-1.039695
C75	C	0.934800	-0.218362	-0.683935
C76	C	0.934789	-0.218375	-0.613242
C77	C	1.021297	-0.285252	-0.613221
C78	C	1.021312	-0.285240	-0.683908
C79	C	0.978059	-0.251797	-0.719261
C80	C	0.978079	-0.251783	-0.795910
C81	C	0.978099	-0.251774	-0.857001
C82	C	0.978027	-0.251870	-0.150256
C83	C	0.978150	-0.251737	-0.075024
H84	H	0.720326	-0.312617	-0.404485
H85	H	0.899579	-0.191131	-0.712711
H86	H	0.592092	-0.312618	-0.404500
O87	O	0.849314	-0.805476	-0.454571
C88	C	0.757977	-0.867211	-0.463635
C89	C	0.805638	-0.837169	-0.416071
H90	H	0.722663	-0.892850	-0.432528
H91	H	0.726964	-0.838346	-0.494529
H92	H	0.789059	-0.892707	-0.499072
H93	H	0.774609	-0.811673	-0.380593
H94	H	0.836654	-0.866063	-0.385225
O95	O	1.063404	-0.317690	-0.578908
C96	C	1.178506	-0.343103	-0.557307
C97	C	1.130898	-0.306329	-0.596191
H98	H	1.233084	-0.333938	-0.571276
H99	H	1.171124	-0.337372	-0.500707
H100	H	1.166547	-0.385255	-0.571186
H101	H	1.142828	-0.264163	-0.582369
H102	H	1.138289	-0.312105	-0.652781
O103	O	0.892722	-1.056646	-0.411332
C104	C	0.801385	-1.118383	-0.420375
C105	C	0.849055	-1.088338	-0.372822
H106	H	0.766078	-1.144022	-0.389259
H107	H	0.770365	-1.089520	-0.451264
H108	H	0.832461	-1.143880	-0.455816
H109	H	0.818032	-1.062841	-0.337340
H110	H	0.880077	-1.117230	-0.341980
O111	O	0.586477	-0.185914	-0.240958
C112	C	0.477592	-0.156214	-0.202701
C113	C	0.516491	-0.193029	-0.250225
H114	H	0.421002	-0.161946	-0.210187
H115	H	0.491415	-0.165338	-0.148084
H116	H	0.491570	-0.114073	-0.214682
H117	H	0.502535	-0.235182	-0.238304
H118	H	0.502665	-0.183860	-0.304827
O119	O	0.849276	-0.697897	-0.454671
C120	C	0.763388	-0.703694	-0.540501
C121	C	0.811077	-0.733682	-0.492920
H122	H	0.732502	-0.732613	-0.571448
H123	H	0.727956	-0.678187	-0.509429
H124	H	0.794441	-0.678074	-0.575887
H125	H	0.780079	-0.759329	-0.457525
H126	H	0.846511	-0.759155	-0.524034
H127	H	0.899370	-0.549990	-0.404573
O128	O	0.892684	-0.949068	-0.411442
C129	C	0.806782	-0.954872	-0.497257
C130	C	0.854481	-0.984856	-0.449682
H131	H	0.775893	-0.983793	-0.528197
H132	H	0.771354	-0.929365	-0.466180
H133	H	0.837827	-0.929253	-0.532650
H134	H	0.823491	-1.010503	-0.414280
H135	H	0.889912	-1.010330	-0.480801
H136	H	0.899319	-0.450924	-0.404548
O137	O	0.892904	-0.185857	-0.934584
C138	C	0.854512	-0.156253	-0.825698
C139	C	0.902078	-0.193034	-0.864597
H140	H	0.861903	-0.162051	-0.769108
H141	H	0.866443	-0.114081	-0.839565
H142	H	0.799936	-0.165424	-0.839632
H143	H	0.956670	-0.183911	-0.850685
H144	H	0.890089	-0.235195	-0.850727
O145	O	0.892851	-0.185768	-1.073936
C146	C	0.807011	-0.119458	-1.066503
C147	C	0.854591	-0.156270	-1.027642
H148	H	0.776055	-0.095607	-1.029091
H149	H	0.838085	-0.092080	-1.099591
H150	H	0.771634	-0.143466	-1.099603
H151	H	0.889978	-0.132304	-0.994504
H152	H	0.823475	-0.183649	-0.994596
H153	H	0.364566	-0.312629	-0.404516
O154	O	0.726039	-0.185879	-0.240984
C155	C	0.834949	-0.156218	-0.202649
C156	C	0.796020	-0.193052	-0.250158
H157	H	0.891534	-0.162012	-0.210040
H158	H	0.821137	-0.114060	-0.214637
H159	H	0.820987	-0.165339	-0.148059
H160	H	0.809960	-0.183978	-0.304764
H161	H	0.809834	-0.235199	-0.238112
H162	H	1.056629	-0.312404	-1.068432
H163	H	0.236321	-0.312633	-0.404528
H164	H	0.236371	-0.191141	-0.247749
H165	H	0.364605	-0.191137	-0.247735
H166	H	1.056784	-1.052291	-0.247717
O167	O	1.063414	-0.317641	-0.718256
C168	C	1.154786	-0.324663	-0.798086
C169	C	1.107158	-0.287910	-0.759221
H170	H	1.190156	-0.300641	-0.831226
H171	H	1.185742	-0.348559	-0.760701
H172	H	1.123683	-0.352007	-0.831141
H173	H	1.138210	-0.260534	-0.726165
H174	H	1.076201	-0.264051	-0.796642
H175	H	1.056560	-0.549929	-0.247644
O176	O	1.063367	-0.446665	-0.240809
C177	C	1.149272	-0.452408	-0.154993
C178	C	1.101604	-0.482426	-0.202577
H179	H	1.180189	-0.481308	-0.124059
H180	H	1.184676	-0.426814	-0.186062
H181	H	1.118200	-0.426874	-0.119595
H182	H	1.132622	-0.507989	-0.237984
H183	H	1.066198	-0.507987	-0.171465
O184	O	1.106816	-0.697828	-0.197608
C185	C	1.192731	-0.703583	-0.111803
C186	C	1.145050	-0.733594	-0.159380
H187	H	1.223646	-0.732486	-0.080873
H188	H	1.228136	-0.677993	-0.142877
H189	H	1.161669	-0.678044	-0.076401
H190	H	1.176058	-0.759162	-0.194791
H191	H	1.109643	-0.759151	-0.128263
O192	O	1.106909	-0.805384	-0.197759
C193	C	1.198375	-0.866926	-0.188794
C194	C	1.150608	-0.836946	-0.236307
H195	H	1.233708	-0.892460	-0.219940
H196	H	1.229362	-0.838020	-0.157927
H197	H	1.167378	-0.892521	-0.153331
H198	H	1.181553	-0.811350	-0.271811
H199	H	1.119619	-0.865881	-0.267127
H200	H	0.899557	-0.191148	-0.584477
H201	H	1.056742	-0.953225	-0.247697
O202	O	1.063457	-0.317695	-0.934743
C203	C	1.149251	-0.384041	-0.942181
C204	C	1.101638	-0.347253	-0.981039
H205	H	1.180123	-0.407955	-0.979594
H206	H	1.184699	-0.360064	-0.909116
H207	H	1.118139	-0.411365	-0.909056
H208	H	1.132696	-0.319921	-1.014200
H209	H	1.066188	-0.371262	-1.014060
