data_functionalizedCrystal
_audit_creation_method	'MofGen! by Chris Wilmer'
_symmetry_space_group_name_H-M	'P1'
_symmetry_Int_Tables_number	1
_symmetry_cell_setting	triclinic
loop_
_symmetry_equiv_pos_as_xyz
  x,y,z
_cell_length_a	19.076808
_cell_length_b	19.077241
_cell_length_c	19.076919
_cell_angle_alpha	89.886096
_cell_angle_beta	90.121640
_cell_angle_gamma	85.481199
loop_
_atom_site_label
_atom_site_type_symbol
_atom_site_fract_x
_atom_site_fract_y
_atom_site_fract_z
Zn1	Zn	-0.255486	-1.048451	0.429892
Zn2	Zn	0.244514	-0.548451	0.929892
Zn3	Zn	-0.368269	-1.048747	0.307674
Zn4	Zn	0.131731	-0.548747	0.807674
Zn5	Zn	-0.255115	-0.935681	0.307685
Zn6	Zn	0.244885	-0.435681	0.807685
Zn7	Zn	-0.377656	-0.926205	0.420017
Zn8	Zn	0.122344	-0.426205	0.920017
O9	O	-0.314131	-0.989771	0.366317
O10	O	0.185869	-0.489771	0.866317
O11	O	-0.266673	-1.146969	0.417808
O12	O	0.233327	-0.646969	0.917808
O13	O	-0.349175	-1.037839	0.209515
O14	O	0.150825	-0.537839	0.709515
O15	O	-0.156680	-0.954482	0.328033
O16	O	0.343320	-0.454482	0.828033
O17	O	-0.349535	-1.147187	0.328014
O18	O	0.150465	-0.647187	0.828014
O19	O	-0.156952	-1.037333	0.417818
O20	O	0.343048	-0.537333	0.917818
O21	O	-0.266041	-0.954769	0.209524
O22	O	0.233959	-0.454769	0.709524
O23	O	-0.275144	-0.835945	0.318458
O24	O	0.224856	-0.335945	0.818458
O25	O	-0.365534	-0.938332	0.519487
O26	O	0.134466	-0.438332	1.019487
O27	O	-0.365174	-0.828983	0.400988
O28	O	0.134826	-0.328983	0.900988
O29	O	-0.275776	-1.028145	0.526742
O30	O	0.224224	-0.528145	1.026742
O31	O	-0.467998	-1.028650	0.318439
O32	O	0.032002	-0.528650	0.818439
O33	O	-0.474895	-0.938619	0.400977
O34	O	0.025105	-0.438619	0.900977
C35	C	-0.321138	-0.806930	0.358653
C36	C	0.178862	-0.306930	0.858653
C37	C	-0.324153	-0.728708	0.355391
C38	C	0.175847	-0.228708	0.855391
C39	C	-0.282502	-0.691841	0.400674
C40	C	0.217498	-0.191841	0.900674
C41	C	-0.285331	-0.618344	0.397602
C42	C	0.214669	-0.118344	0.897602
C43	C	-0.329815	-0.581714	0.349250
C44	C	0.170185	-0.081714	0.849250
C45	C	-0.371468	-0.618587	0.303962
C46	C	0.128532	-0.118587	0.803962
C47	C	-0.368634	-0.692083	0.307031
C48	C	0.131366	-0.192083	0.807031
C49	C	-0.342904	-0.361917	0.335049
C50	C	0.157096	0.138083	0.835049
C51	C	-0.345736	-0.288416	0.331985
C52	C	0.154264	0.211584	0.831985
C53	C	-0.259598	-0.288178	0.425625
C54	C	0.240402	0.211822	0.925625
C55	C	-0.256772	-0.361675	0.428692
C56	C	0.243228	0.138325	0.928692
C57	C	-0.298421	-0.398541	0.383402
C58	C	0.201579	0.101459	0.883402
N59	N	-0.332710	-0.506588	0.346111
N60	N	0.167290	-0.006588	0.846111
N61	N	-0.295522	-0.473666	0.386538
N62	N	0.204478	0.026334	0.886538
C63	C	-0.496982	-0.982657	0.358652
C64	C	0.003018	-0.482657	0.858652
C65	C	-0.575205	-0.979677	0.355398
C66	C	-0.075205	-0.479677	0.855398
C67	C	-0.612039	-1.021379	0.400651
C68	C	-0.112039	-0.521379	0.900651
C69	C	-0.685538	-1.018576	0.397596
C70	C	-0.185538	-0.518576	0.897596
C71	C	-0.722202	-0.974075	0.349283
C72	C	-0.222202	-0.474075	0.849283
C73	C	-0.685363	-0.932369	0.304029
C74	C	-0.185363	-0.432369	0.804029
C75	C	-0.611866	-0.935169	0.307088
C76	C	-0.111866	-0.435169	0.807088
C77	C	-0.942006	-0.961076	0.335120
C78	C	-0.442006	-0.461076	0.835120
C79	C	-1.015508	-0.958282	0.332062
C80	C	-0.515508	-0.458282	0.832062
C81	C	-1.015678	-1.044488	0.425630
C82	C	-0.515678	-0.544488	0.925630
C83	C	-0.942179	-1.047286	0.428683
C84	C	-0.442179	-0.547286	0.928683
C85	C	-0.905347	-1.005578	0.383431
C86	C	-0.405347	-0.505578	0.883431
N87	N	-0.797329	-0.971210	0.346157
N88	N	-0.297329	-0.471210	0.846157
N89	N	-0.830221	-1.008439	0.386560
N90	N	-0.330221	-0.508439	0.886560
C91	C	-0.130566	-0.996931	0.374029
C92	C	0.369434	-0.496931	0.874029
C93	C	-0.052342	-0.999983	0.377315
C94	C	0.447658	-0.499983	0.877315
C95	C	-0.321743	-0.982148	0.549278
C96	C	0.178257	-0.482148	1.049278
C97	C	-0.324987	-0.978900	0.627245
C98	C	0.175013	-0.478900	1.127245
C99	C	-0.307094	-0.173327	0.374006
C100	C	0.192906	0.326673	0.874006
C101	C	-0.304085	-0.251549	0.377269
C102	C	0.195915	0.248451	0.877269
C103	C	-0.306497	-0.997407	0.184072
C104	C	0.193503	-0.497407	0.684072
C105	C	-0.303050	-1.000799	0.106119
C106	C	0.196950	-0.500799	0.606119
C107	C	-0.279780	-1.024133	0.667653
C108	C	0.220220	-0.524133	1.167653
C109	C	-0.282826	-1.021072	0.740911
C110	C	0.217174	-0.521072	1.240911
C111	C	-0.331081	-0.972782	0.773760
C112	C	0.168919	-0.472782	1.273760
C113	C	-0.376289	-0.927544	0.733348
C114	C	0.123711	-0.427544	1.233348
C115	C	-0.373240	-0.930602	0.660091
C116	C	0.126760	-0.430602	1.160091
C117	C	-0.345209	-0.958619	0.992449
C118	C	0.154791	-0.458619	1.492449
C119	C	-0.348256	-0.955567	1.065711
C120	C	0.151744	-0.455567	1.565711
C121	C	-0.254791	-1.049094	1.073270
C122	C	0.245209	-0.549094	1.573270
C123	C	-0.251749	-1.052150	1.000011
C124	C	0.248251	-0.552150	1.500011
C125	C	-0.296955	-1.006910	0.959605
C126	C	0.203045	-0.506910	1.459605
N127	N	-0.334197	-0.969654	0.848642
N128	N	0.165803	-0.469654	1.348642
N129	N	-0.293835	-1.010035	0.884725
N130	N	0.206165	-0.510035	1.384725
H131	H	-0.407684	-0.588758	0.264590
H132	H	0.092316	-0.088758	0.764590
C133	C	-0.205060	-1.098846	1.117722
C134	C	0.294940	-0.598846	1.617722
N135	N	-0.167597	-1.136318	1.151205
N136	N	0.332403	-0.636318	1.651205
C137	C	-0.233565	-0.732126	0.453865
C138	C	0.266435	-0.232126	0.953865
N139	N	-0.196701	-0.762467	0.493927
N140	N	0.303299	-0.262467	0.993927
C141	C	-0.414455	-0.732636	0.257217
C142	C	0.085545	-0.232636	0.757217
N143	N	-0.448968	-0.763180	0.219695
N144	N	0.051032	-0.263180	0.719695
H145	H	-0.415578	-0.888223	0.760099
H146	H	0.084422	-0.388223	1.260099
C147	C	-0.422972	-0.880844	0.615643
C148	C	0.077028	-0.380844	1.115643
N149	N	-0.460430	-0.843363	0.582165
N150	N	0.039570	-0.343363	1.082165
H151	H	-0.246016	-1.057907	0.773808
H152	H	0.253984	-0.557907	1.273808
C153	C	-0.239514	-0.577793	0.447420
C154	C	0.260486	-0.077793	0.947420
N155	N	-0.205002	-0.547251	0.484945
N156	N	0.294998	-0.047251	0.984945
H157	H	-0.220551	-0.391493	0.468068
H158	H	0.279449	0.108507	0.968068
H159	H	-0.387553	-0.916241	1.092455
H160	H	0.112447	-0.416241	1.592455
H161	H	-0.715524	-1.052539	0.434440
H162	H	-0.215524	-0.552539	0.934440
H163	H	-0.225688	-0.258153	0.462497
H164	H	0.274312	0.241847	0.962497
C165	C	-0.901502	-0.915179	0.285356
C166	C	-0.401502	-0.415179	0.785356
N167	N	-0.870992	-0.880600	0.247877
N168	N	-0.370992	-0.380600	0.747877
H169	H	-0.376819	-0.391925	0.298171
H170	H	0.123181	0.108075	0.798171
C171	C	-0.394674	-0.248125	0.278793
C172	C	0.105326	0.251875	0.778793
N173	N	-0.431534	-0.217778	0.238731
N174	N	0.068466	0.282222	0.738731
H175	H	-0.582192	-1.057619	0.439989
H176	H	-0.082192	-0.557619	0.939989
H177	H	-0.912329	-1.083523	0.468022
H178	H	-0.412329	-0.583523	0.968022
C179	C	-1.056199	-1.090359	0.475409
C180	C	-0.556199	-0.590359	0.975409
N181	N	-1.086720	-1.124909	0.512907
N182	N	-0.586720	-0.624909	1.012907
C183	C	-1.055837	-0.909322	0.278915
C184	C	-0.555837	-0.409322	0.778915
N185	N	-1.086213	-0.872448	0.238887
N186	N	-0.586213	-0.372448	0.738887
H187	H	-0.715221	-0.896132	0.264694
H188	H	-0.215221	-0.396132	0.764694
C189	C	-0.571349	-0.889294	0.257306
C190	C	-0.071349	-0.389294	0.757306
N191	N	-0.540833	-0.854739	0.219810
N192	N	-0.040833	-0.354739	0.719810
C193	C	-0.394935	-0.908852	0.948012
C194	C	0.105065	-0.408852	1.448012
N195	N	-0.432390	-0.871363	0.914539
N196	N	0.067610	-0.371363	1.414539
C197	C	-0.226694	-1.077256	0.631526
C198	C	0.273306	-0.577256	1.131526
N199	N	-0.186706	-1.117267	0.604317
N200	N	0.313294	-0.617267	1.104317
H201	H	-0.212456	-1.091475	0.973271
H202	H	0.287544	-0.591475	1.473271
