data_functionalizedCrystal
_audit_creation_method	'MofGen! by Chris Wilmer'
_symmetry_space_group_name_H-M	'P1'
_symmetry_Int_Tables_number	1
_symmetry_cell_setting	triclinic
loop_
_symmetry_equiv_pos_as_xyz
  x,y,z
_cell_length_a	6.817900
_cell_length_b	15.866870
_cell_length_c	12.200875
_cell_angle_alpha	111.092108
_cell_angle_beta	107.143593
_cell_angle_gamma	102.655915
loop_
_atom_site_label
_atom_site_type_symbol
_atom_site_fract_x
_atom_site_fract_y
_atom_site_fract_z
V1	V	-4.100361	-0.132887	-0.413851
O2	O	-4.053554	0.006162	-0.348247
O3	O	-4.083035	-0.263278	-0.466540
O4	O	-4.069614	-0.130942	-0.569017
O5	O	-4.067067	-0.127091	-0.245061
V6	V	-4.577674	-0.116244	-0.386918
O7	O	-4.375239	-0.169396	-0.472932
O8	O	-4.752993	-0.079735	-0.327838
O9	O	-4.371794	0.014146	-0.334230
O10	O	-4.741878	-0.255293	-0.452523
O11	O	-4.728365	-0.122041	-0.555709
O12	O	-4.385214	-0.118190	-0.231753
C13	C	-3.935024	-0.295061	-0.474337
C14	C	-4.002262	-0.401657	-0.518451
C15	C	-3.944608	-0.683492	-0.109260
C16	C	-4.007802	-0.783660	-0.150750
C17	C	-4.119320	-0.811148	-0.372465
C18	C	-4.056123	-0.710980	-0.330993
C19	C	-3.968772	-0.647159	-0.199389
C20	C	-4.080288	-0.674647	-0.421122
C21	C	-4.017108	-0.574488	-0.379654
C22	C	-3.929762	-0.510662	-0.248056
C23	C	-3.905592	-0.547000	-0.157921
C24	C	-4.167654	-0.738470	-0.552726
C25	C	-4.191819	-0.702137	-0.642856
C26	C	-4.128623	-0.601976	-0.601387
C27	C	-4.041278	-0.538149	-0.469789
C28	C	-4.152794	-0.565637	-0.691523
C29	C	-4.089613	-0.465478	-0.650054
C30	C	-3.978098	-0.437990	-0.428321
C31	C	-3.917903	-0.126252	-0.605055
C32	C	-3.974254	-0.125524	-0.732268
C33	C	-4.077385	-0.124192	-0.965179
C34	C	-4.019987	-0.124933	-0.835571
C35	C	-4.183148	0.045925	-0.326432
C36	C	-4.095148	0.152520	-0.282326
C37	C	-4.200267	-0.122882	-0.195710
C38	C	-4.123153	-0.123606	-0.068494
H39	H	-4.190456	-0.863124	-0.479617
H40	H	-4.109323	-0.435897	-0.723448
C41	C	-3.848553	-0.613285	0.035502
H42	H	-3.843225	-0.649266	0.083246
H43	H	-3.703908	-0.570502	0.061287
H44	H	-3.939322	-0.576783	0.051277
C45	C	-3.809537	-0.476793	-0.013159
H46	H	-3.804209	-0.512774	0.034585
H47	H	-3.664892	-0.434010	0.012626
H48	H	-3.900306	-0.440291	0.002615
H49	H	-4.223942	-0.617615	-0.798676
C50	C	-4.237153	-0.848644	-0.598348
H51	H	-4.292663	-0.881450	-0.689634
H52	H	-4.113167	-0.863100	-0.561805
H53	H	-4.348547	-0.869353	-0.571768
H54	H	-4.262955	-0.754113	-0.750009
C55	C	-3.881989	-0.367777	-0.283559
H56	H	-3.847811	-0.302923	-0.271776
H57	H	-3.987101	-0.381667	-0.249775
H58	H	-3.751725	-0.375415	-0.239823
C59	C	-3.981208	-0.823623	-0.051597
H60	H	-3.920123	-0.771265	0.032717
H61	H	-4.121221	-0.865252	-0.068152
H62	H	-3.885832	-0.858993	-0.058177
H63	H	-3.878328	-0.429106	-0.214295
