data_functionalizedCrystal
_audit_creation_method	'MofGen! by Chris Wilmer'
_symmetry_space_group_name_H-M	'P1'
_symmetry_Int_Tables_number	1
_symmetry_cell_setting	triclinic
loop_
_symmetry_equiv_pos_as_xyz
  x,y,z
_cell_length_a	14.519709
_cell_length_b	14.044220
_cell_length_c	13.596369
_cell_angle_alpha	89.993157
_cell_angle_beta	90.000291
_cell_angle_gamma	88.434511
loop_
_atom_site_label
_atom_site_type_symbol
_atom_site_fract_x
_atom_site_fract_y
_atom_site_fract_z
O1	O	1.233892	0.124273	-0.081665
O2	O	1.567226	0.457606	0.251668
O3	O	1.900559	0.790939	0.585002
O4	O	0.966596	0.138907	-0.081695
O5	O	1.299929	0.472240	0.251638
O6	O	1.633262	0.805574	0.584971
O7	O	1.096232	-0.006402	-0.081671
O8	O	1.429565	0.326932	0.251662
O9	O	1.762899	0.660265	0.584996
O10	O	1.104256	0.269581	-0.081690
O11	O	1.437589	0.602915	0.251644
O12	O	1.770923	0.936248	0.584977
O13	O	1.096217	-0.006409	0.081912
O14	O	1.429551	0.326924	0.415245
O15	O	1.762884	0.660257	0.748579
O16	O	0.966581	0.138899	0.081887
O17	O	1.299914	0.472233	0.415221
O18	O	1.633248	0.805566	0.748554
O19	O	1.233878	0.124265	0.081918
O20	O	1.567211	0.457598	0.415251
O21	O	1.900544	0.790932	0.748584
Zn22	Zn	1.100227	0.131581	0.107875
Zn23	Zn	1.433560	0.464914	0.441208
Zn24	Zn	1.766894	0.798248	0.774542
Zn25	Zn	1.100246	0.131591	-0.107653
Zn26	Zn	1.433580	0.464924	0.225681
Zn27	Zn	1.766913	0.798258	0.559014
O28	O	1.104241	0.269574	0.081893
O29	O	1.437575	0.602907	0.415227
O30	O	1.770908	0.936240	0.748560
C31	C	0.932174	0.138221	0.000092
C32	C	1.265507	0.471555	0.333426
C33	C	1.598840	0.804888	0.666759
C34	C	0.829628	0.136177	0.000081
C35	C	1.162961	0.469511	0.333414
C36	C	1.496294	0.802844	0.666748
C37	C	1.092712	-0.041726	0.000120
C38	C	1.426045	0.291608	0.333454
C39	C	1.759379	0.624941	0.666787
C40	C	1.082235	-0.146969	0.000120
C41	C	1.415568	0.186364	0.333454
C42	C	1.748902	0.519697	0.666787
C43	C	0.454125	0.128653	0.000126
C44	C	0.787458	0.461987	0.333460
C45	C	1.120791	0.795320	0.666793
C46	C	0.558601	0.130743	0.000113
C47	C	0.891935	0.464076	0.333447
C48	C	1.225268	0.797409	0.666780
C49	C	0.641873	0.132415	0.000103
C50	C	0.975206	0.465749	0.333436
C51	C	1.308540	0.799082	0.666769
C52	C	0.746356	0.134505	0.000092
C53	C	1.079689	0.467838	0.333425
C54	C	1.413023	0.801172	0.666758
C55	C	1.063081	-0.339663	0.000104
C56	C	1.396414	-0.006330	0.333437
C57	C	1.729747	0.327004	0.666771
C58	C	1.137389	-0.397170	0.000110
C59	C	1.470722	-0.063837	0.333443
C60	C	1.804055	0.269496	0.666776
C61	C	1.126731	-0.504392	0.000101
C62	C	1.460064	-0.171059	0.333434
C63	C	1.793398	0.162275	0.666767
C64	C	1.073737	-0.232432	0.000113
C65	C	1.407070	0.100902	0.333447
C66	C	1.740404	0.434235	0.666780
C67	C	1.268300	0.124951	0.000128
C68	C	1.601633	0.458284	0.333461
C69	C	1.934966	0.791617	0.666795
C70	C	1.370846	0.126995	0.000133
C71	C	1.704179	0.460328	0.333466
C72	C	2.037512	0.793661	0.666799
C73	C	1.107761	0.304898	0.000100
C74	C	1.441095	0.638231	0.333433
C75	C	1.774428	0.971564	0.666766
C76	C	1.118238	0.410141	0.000093
C77	C	1.451572	0.743475	0.333427
C78	C	1.784905	1.076808	0.666760
N79	N	1.100220	0.131573	0.254967
N80	N	1.433554	0.464907	0.588300
N81	N	1.766887	0.798240	0.921633
N82	N	1.100260	0.131591	-0.254744
N83	N	1.433593	0.464924	0.078589
N84	N	1.766926	0.798258	0.411922
C85	C	1.100245	0.131592	0.656258
C86	C	1.433579	0.464925	0.989591
C87	C	1.766912	0.798259	1.322924
C88	C	1.100236	0.131590	0.544606
C89	C	1.433569	0.464923	0.877940
C90	C	1.766902	0.798257	1.211273
C91	C	1.100233	0.131583	0.455616
C92	C	1.433567	0.464917	0.788949
C93	C	1.766900	0.798250	1.122282
C94	C	1.100223	0.131580	0.343957
C95	C	1.433556	0.464913	0.677291
C96	C	1.766890	0.798247	1.010624
H97	H	0.991465	-0.370954	0.000094
H98	H	1.324798	-0.037620	0.333427
H99	H	1.658131	0.295713	0.666760
H100	H	1.209010	-0.365878	0.000052
H101	H	1.542343	-0.032545	0.333385
H102	H	1.875677	0.300789	0.666718
