data_functionalizedCrystal
_audit_creation_method	'MofGen! by Chris Wilmer'
_symmetry_space_group_name_H-M	'P1'
_symmetry_Int_Tables_number	1
_symmetry_cell_setting	triclinic
loop_
_symmetry_equiv_pos_as_xyz
  x,y,z
_cell_length_a	9.065218
_cell_length_b	10.065875
_cell_length_c	9.065218
_cell_angle_alpha	81.078217
_cell_angle_beta	85.015885
_cell_angle_gamma	98.878472
loop_
_atom_site_label
_atom_site_type_symbol
_atom_site_fract_x
_atom_site_fract_y
_atom_site_fract_z
O1	O	1.981701	0.113491	0.194956
O2	O	2.481701	0.613491	0.694956
O3	O	1.552416	0.113493	0.212703
O4	O	2.052416	0.613493	0.712703
O5	O	1.775931	0.113489	-0.010812
O6	O	2.275931	0.613489	0.489188
O7	O	1.758186	0.113495	0.418471
O8	O	2.258186	0.613495	0.918471
O9	O	1.733312	-0.113499	0.031982
O10	O	2.233312	0.386501	0.531982
O11	O	1.509797	-0.113495	0.255497
O12	O	2.009797	0.386505	0.755497
O13	O	1.939082	-0.113497	0.237751
O14	O	2.439082	0.386503	0.737751
Zn15	Zn	1.717673	-0.149535	0.253419
Zn16	Zn	2.217673	0.350465	0.753419
Zn17	Zn	1.773825	0.149531	0.197035
Zn18	Zn	2.273825	0.649531	0.697035
O19	O	1.715567	-0.113493	0.461266
O20	O	2.215567	0.386507	0.961266
C21	C	1.476120	-0.000001	0.232394
C22	C	1.976120	0.499999	0.732394
C23	C	1.312277	-0.000000	0.227295
C24	C	1.812277	0.500000	0.727295
N25	N	1.679361	-0.353640	0.291898
N26	N	2.179361	0.146360	0.791898
C27	C	1.760486	-0.421420	0.210414
C28	C	2.260486	0.078580	0.710414
C29	C	1.731012	-0.578587	0.240040
C30	C	2.231012	-0.078587	0.740040
C31	C	2.015378	0.000000	0.218059
C32	C	2.515378	0.500000	0.718059
C33	C	2.179223	0.000008	0.223157
C34	C	2.679223	0.500008	0.723157
C35	C	1.752917	-0.000003	-0.044402
C36	C	2.252917	0.499997	0.455598
C37	C	1.747818	0.000004	-0.208246
C38	C	2.247818	0.500004	0.291754
N39	N	1.812148	0.353636	0.158544
N40	N	2.312148	0.853636	0.658544
C41	C	1.738582	0.000002	0.494855
C42	C	2.238582	0.500002	0.994855
C43	C	1.743682	0.000004	0.658698
C44	C	2.243682	0.500004	1.158698
H45	H	1.851756	-0.363097	0.118712
H46	H	2.351756	0.136903	0.618712
H47	H	1.639726	-0.636907	0.331736
H48	H	2.139726	-0.136907	0.831736
H49	H	1.903424	-0.588044	0.066837
H50	H	2.403424	-0.088044	0.566837
F51	F	1.560049	-0.429869	0.411746
F52	F	2.060049	0.070131	0.911746
