data_functionalizedCrystal
_audit_creation_method	'MofGen! by Chris Wilmer'
_symmetry_space_group_name_H-M	'P1'
_symmetry_Int_Tables_number	1
_symmetry_cell_setting	triclinic
loop_
_symmetry_equiv_pos_as_xyz
  x,y,z
_cell_length_a	16.992701
_cell_length_b	16.974813
_cell_length_c	9.730223
_cell_angle_alpha	86.344112
_cell_angle_beta	89.999552
_cell_angle_gamma	87.023742
loop_
_atom_site_label
_atom_site_type_symbol
_atom_site_fract_x
_atom_site_fract_y
_atom_site_fract_z
O1	O	1.040206	0.167635	-0.132941
O2	O	0.811922	0.165798	-0.132737
O3	O	0.932428	0.052016	-0.120075
O4	O	0.919700	0.281418	-0.145603
O5	O	0.932427	0.052019	0.108504
O6	O	0.811921	0.165801	0.095842
O7	O	1.040204	0.167638	0.095639
Zn8	Zn	0.926062	0.166720	0.132033
Zn9	Zn	0.926064	0.166716	-0.169131
O10	O	0.919698	0.281421	0.082977
C11	C	0.782712	0.163434	-0.018184
C12	C	0.695675	0.156375	-0.017399
C13	C	0.931944	0.022528	-0.002507
C14	C	0.930492	-0.065340	0.007262
C15	C	0.206767	0.108946	-0.012127
C16	C	0.288546	0.115585	-0.012857
C17	C	0.320008	0.190339	-0.021182
C18	C	0.269687	0.258460	-0.028763
C19	C	0.187909	0.251820	-0.028022
C20	C	0.563576	0.217856	-0.024240
C21	C	0.645360	0.224490	-0.024984
C22	C	0.664214	0.081615	-0.009076
C23	C	0.582433	0.074982	-0.008344
C24	C	0.532119	0.143102	-0.015918
N25	N	0.403600	0.197127	-0.021933
N26	N	0.448529	0.136314	-0.015157
C27	C	0.929812	-0.106618	-0.112746
C28	C	0.928443	-0.189179	-0.103563
C29	C	0.927759	-0.230461	0.025630
C30	C	0.928436	-0.189178	0.145647
C31	C	0.929800	-0.106617	0.136463
C32	C	0.923676	-0.477380	0.066460
C33	C	0.922314	-0.559946	0.075636
C34	C	0.922320	-0.559941	-0.173576
C35	C	0.923688	-0.477380	-0.182749
C36	C	0.924361	-0.436103	-0.062732
N37	N	0.926362	-0.314852	0.035020
N38	N	0.925752	-0.351713	-0.072123
C39	C	1.069415	0.170003	-0.018917
C40	C	1.156452	0.177062	-0.019711
C41	C	0.920183	0.310908	-0.034594
C42	C	0.921635	0.398777	-0.044372
N43	N	0.926067	0.166723	0.337569
N44	N	0.926066	0.166708	-0.374666
C45	C	0.979440	0.116359	0.415099
C46	C	0.979438	0.116349	0.558983
C47	C	0.872687	0.217074	0.547793
C48	C	0.872686	0.217079	0.403912
C49	C	1.041075	0.058209	0.421561
C50	C	1.041073	0.058199	0.565445
H51	H	0.181157	0.048073	-0.005357
C52	C	0.921571	-0.605352	-0.305585
N53	N	0.921002	-0.639555	-0.405021
H54	H	1.101197	0.075017	0.602624
H55	H	0.522619	0.273325	-0.030414
C56	C	0.924441	-0.431975	-0.324871
N57	N	0.925010	-0.397777	-0.431920
C58	C	0.921559	-0.605354	0.217764
N59	N	0.920991	-0.639556	0.324810
C60	C	0.924419	-0.431986	0.198484
N61	N	0.924980	-0.397793	0.297931
C62	C	0.930565	-0.061215	-0.254870
N63	N	0.931128	-0.027019	-0.361922
C64	C	1.117732	0.088389	0.357908
N65	N	1.175471	0.111121	0.309964
C66	C	1.023782	-0.024832	0.378034
N67	N	1.010754	-0.087376	0.345250
C68	C	0.547832	-0.007253	0.000842
N69	N	0.521770	-0.069194	0.007767
C70	C	0.304298	0.340691	-0.037916
N71	N	0.330367	0.402629	-0.044815
H72	H	0.146942	0.307287	-0.034194
H73	H	0.930342	-0.073009	0.234186
H74	H	1.022581	-0.000238	0.616563
H75	H	0.927893	-0.222784	-0.201287
H76	H	0.329510	0.060118	-0.006675
C77	C	0.927678	-0.234591	0.287761
N78	N	0.927109	-0.268795	0.394805
H79	H	0.829218	0.258082	0.340788
H80	H	0.705188	0.026156	-0.002908
C81	C	0.679966	0.306729	-0.034140
N82	N	0.706031	0.368669	-0.041039
C83	C	0.813969	0.272462	0.620784
N84	N	0.769742	0.314181	0.675760
