data_functionalizedCrystal
_audit_creation_method	'MofGen! by Chris Wilmer'
_symmetry_space_group_name_H-M	'P1'
_symmetry_Int_Tables_number	1
_symmetry_cell_setting	triclinic
loop_
_symmetry_equiv_pos_as_xyz
  x,y,z
_cell_length_a	10.489741
_cell_length_b	11.026607
_cell_length_c	9.483294
_cell_angle_alpha	81.822236
_cell_angle_beta	100.333590
_cell_angle_gamma	83.437405
loop_
_atom_site_label
_atom_site_type_symbol
_atom_site_fract_x
_atom_site_fract_y
_atom_site_fract_z
O1	O	0.513512	-1.597687	-0.120894
O2	O	0.452571	-1.243849	-0.120895
O3	O	0.299216	-1.428821	-0.120886
O4	O	0.666867	-1.412715	-0.120903
O5	O	0.342552	-1.463108	0.120888
O6	O	0.495907	-1.278136	0.120879
O7	O	0.556848	-1.631975	0.120880
Cu8	Cu	0.530334	-1.458186	0.142956
Cu9	Cu	0.479084	-1.417637	-0.142970
O10	O	0.710203	-1.447003	0.120871
C11	C	0.462996	-1.215683	-0.000008
C12	C	0.429481	-1.080676	-0.000008
C13	C	0.273085	-1.444748	0.000000
C14	C	0.130655	-1.441109	-0.000002
C15	C	0.546422	-1.660140	-0.000010
C16	C	0.579935	-1.795145	-0.000019
C17	C	0.036624	-1.323416	-0.000013
C18	C	-0.021902	-1.395918	0.119194
C19	C	-0.064597	-1.362141	-0.119176
C20	C	0.074022	-1.513673	0.119304
C21	C	0.031315	-1.479865	-0.119174
C22	C	-0.027160	-1.552456	0.000063
C23	C	0.736333	-1.431075	-0.000018
C24	C	0.878762	-1.434713	-0.000025
N25	N	0.566382	-1.486715	0.344061
C26	C	0.522020	-1.007679	-0.000014
C27	C	0.487383	-0.868142	-0.000014
C28	C	0.489712	-1.426033	0.416292
C29	C	0.519720	-1.449799	0.583697
N30	N	0.443039	-1.389108	0.655925
H31	H	-0.045804	-1.360412	0.219975
O32	O	0.145561	-1.590195	0.239523
C33	C	0.303202	-1.773455	0.333387
C34	C	0.222281	-1.686888	0.197120
H35	H	0.365229	-1.851665	0.299153
H36	H	0.369862	-1.718842	0.400270
H37	H	0.234337	-1.813989	0.401630
H38	H	0.291046	-1.646331	0.128764
H39	H	0.155606	-1.741559	0.130346
H40	H	0.654242	-1.556255	0.406155
O41	O	0.624624	-1.532779	0.657530
C42	C	0.808840	-1.678693	0.641765
C43	C	0.690102	-1.584735	0.557968
H44	H	0.861797	-1.720745	0.561306
H45	H	0.878653	-1.629793	0.712992
H46	H	0.773912	-1.755167	0.713052
H47	H	0.724911	-1.508236	0.486602
H48	H	0.620315	-1.633723	0.486832
H49	H	0.401861	-1.356482	0.354198
H50	H	-0.055267	-1.649318	0.000129
O51	O	-0.136033	-1.285510	-0.239368
C52	C	-0.184974	-1.078136	-0.375112
C53	C	-0.103976	-1.164798	-0.238963
H54	H	-0.159105	-0.980517	-0.374814
H55	H	-0.162164	-1.112862	-0.476750
H56	H	-0.293699	-1.076862	-0.374515
H57	H	0.004772	-1.166111	-0.239419
H58	H	-0.126897	-1.130041	-0.137386
H59	H	0.626890	-1.048487	-0.000010
O60	O	0.059767	-1.521974	-0.239555
C61	C	0.020569	-1.489770	-0.501307
C62	C	-0.011747	-1.441944	-0.365083
H63	H	-0.037254	-1.425103	-0.602831
H64	H	0.129845	-1.492943	-0.499665
H65	H	-0.007025	-1.586737	-0.502264
H66	H	0.015766	-1.344961	-0.364038
H67	H	-0.121022	-1.438863	-0.366778
O68	O	0.362238	-0.819382	-0.000268
C69	C	0.173133	-0.673801	-0.125476
C70	C	0.314838	-0.728936	-0.125385
H71	H	0.134777	-0.600647	-0.226606
H72	H	0.108765	-0.750403	-0.125567
H73	H	0.170985	-0.629479	-0.024247
H74	H	0.317111	-0.773248	-0.226596
H75	H	0.379144	-0.652287	-0.125217
H76	H	0.684813	-0.835947	-0.000014
H77	H	0.355184	-1.319550	0.593838
O78	O	0.304424	-1.031796	-0.000069
C79	C	0.155905	-0.848176	0.000023
C80	C	0.297580	-0.903361	0.000059
H81	H	0.150331	-0.744334	0.000157
H82	H	0.088093	-0.865254	-0.101182
H83	H	0.124419	-0.894116	0.101182
H84	H	0.329188	-0.857457	-0.101032
H85	H	0.365308	-0.886298	0.101331
H86	H	0.065011	-1.226668	0.000107
