data_functionalizedCrystal
_audit_creation_method	'MofGen! by Chris Wilmer'
_symmetry_space_group_name_H-M	'P1'
_symmetry_Int_Tables_number	1
_symmetry_cell_setting	triclinic
loop_
_symmetry_equiv_pos_as_xyz
  x,y,z
_cell_length_a	17.077404
_cell_length_b	16.120484
_cell_length_c	17.077395
_cell_angle_alpha	92.869809
_cell_angle_beta	89.984359
_cell_angle_gamma	92.925780
loop_
_atom_site_label
_atom_site_type_symbol
_atom_site_fract_x
_atom_site_fract_y
_atom_site_fract_z
Zn1	Zn	1.184163	-0.331913	-0.459673
Zn2	Zn	1.177416	-0.471334	-0.335057
Zn3	Zn	1.052902	-0.331939	-0.328423
Zn4	Zn	1.046202	-0.471288	-0.466279
O5	O	1.115171	-0.401619	-0.397358
O6	O	1.293114	-0.350416	-0.443155
O7	O	1.160879	-0.452874	-0.224332
O8	O	1.075942	-0.215270	-0.340293
O9	O	1.288157	-0.452848	-0.351600
O10	O	1.172378	-0.215251	-0.436722
O11	O	1.069400	-0.350461	-0.219457
O12	O	0.942167	-0.350416	-0.346697
O13	O	1.064522	-0.452769	-0.575248
O14	O	0.937244	-0.452795	-0.447979
O15	O	1.165882	-0.350371	-0.570395
O16	O	1.154382	-0.587994	-0.358005
O17	O	1.057980	-0.587960	-0.454413
C18	C	0.911224	-0.401604	-0.397336
C19	C	0.823973	-0.401617	-0.397346
C20	C	0.780436	-0.455006	-0.450007
C21	C	0.698456	-0.455008	-0.450019
C22	C	0.660013	-0.401624	-0.397367
C23	C	0.703556	-0.348230	-0.344703
C24	C	0.785535	-0.348224	-0.344695
C25	C	0.532685	-0.348246	-0.344723
C26	C	0.450700	-0.348252	-0.344730
C27	C	0.445606	-0.455030	-0.450047
C28	C	0.527585	-0.455024	-0.450039
C29	C	0.571122	-0.401630	-0.397374
C30	C	1.104743	-0.618227	-0.407663
C31	C	1.100354	-0.710893	-0.412097
C32	C	1.092346	-0.880555	-0.420210
C33	C	1.138136	-0.921842	-0.374519
C34	C	1.133680	-1.016247	-0.379033
C35	C	1.096801	-0.786141	-0.415697
C36	C	1.319914	-0.401634	-0.397381
C37	C	1.407164	-0.401641	-0.397391
C38	C	1.115207	-0.401562	-0.602100
C39	C	1.115223	-0.401538	-0.689348
C40	C	1.125660	-0.184164	-0.387030
C41	C	1.130130	-0.091498	-0.382629
C42	C	1.168093	-0.348106	-1.062632
C43	C	1.168075	-0.348135	-0.980653
C44	C	1.115291	-0.401459	-0.942194
C45	C	1.062526	-0.454763	-0.985718
C46	C	1.062548	-0.454737	-1.067696
C47	C	1.062483	-0.454811	-0.814850
C48	C	1.062460	-0.454836	-0.732867
C49	C	1.168011	-0.348209	-0.727807
C50	C	1.168032	-0.348184	-0.809785
C51	C	1.115266	-0.401487	-0.853304
C52	C	1.115182	-0.401615	-0.193410
C53	C	1.115330	-0.401404	-0.106151
H54	H	0.820982	-0.304745	-0.301817
H55	H	0.811730	-0.498480	-0.492880
H56	H	1.019551	-0.498184	-0.954398
C57	C	1.226094	-0.289530	-0.852089
H58	H	1.257522	-0.257794	-0.814432
H59	H	1.197829	-0.253193	-0.882344
H60	H	1.258765	-0.321425	-0.885584
H61	H	1.049799	-0.916107	-0.462713
H62	H	1.211071	-0.304678	-1.093939
C63	C	1.195614	-0.873821	-0.317090
H64	H	1.223761	-0.912142	-0.289019
H65	H	1.167175	-0.839906	-0.281273
H66	H	1.231377	-0.839795	-0.345556
C67	C	0.650566	-0.513787	-0.507901
H68	H	0.685202	-0.545601	-0.539237
H69	H	0.620106	-0.481994	-0.540661
H70	H	0.616854	-0.550057	-0.479496
H71	H	0.558882	-0.498499	-0.492909
C72	C	0.397719	-0.513757	-0.507981
H73	H	0.343390	-0.506109	-0.500454
H74	H	0.408454	-0.569756	-0.499069
H75	H	0.411761	-0.501624	-0.560166
C76	C	1.226057	-0.289579	-0.679944
H77	H	1.257490	-0.257811	-0.714590
H78	H	1.258714	-0.321483	-0.649483
H79	H	1.197770	-0.253259	-0.646237
H80	H	1.211042	-0.304737	-0.945224
C81	C	1.004448	-0.513545	-0.690565
H82	H	0.973047	-0.545311	-0.728224
H83	H	0.971757	-0.481710	-0.657047
H84	H	1.032770	-0.549864	-0.660337
H85	H	1.019584	-0.498139	-1.103128
C86	C	0.408415	-0.289524	-0.286821
H87	H	0.446084	-0.257714	-0.255463
H88	H	0.374889	-0.321365	-0.254085
H89	H	0.378193	-0.253246	-0.315196
H90	H	0.568131	-0.304759	-0.301844
C91	C	0.661275	-0.289505	-0.286786
H92	H	0.698948	-0.257702	-0.255427
H93	H	0.627750	-0.321350	-0.254052
H94	H	0.631053	-0.253221	-0.315153
H95	H	1.019517	-0.498219	-0.850281
