data_functionalizedCrystal
_audit_creation_method	'MofGen! by Chris Wilmer'
_symmetry_space_group_name_H-M	'P1'
_symmetry_Int_Tables_number	1
_symmetry_cell_setting	triclinic
loop_
_symmetry_equiv_pos_as_xyz
  x,y,z
_cell_length_a	10.654545
_cell_length_b	14.853567
_cell_length_c	9.130313
_cell_angle_alpha	90.000101
_cell_angle_beta	90.002328
_cell_angle_gamma	84.059005
loop_
_atom_site_label
_atom_site_type_symbol
_atom_site_fract_x
_atom_site_fract_y
_atom_site_fract_z
O1	O	1.666526	0.126606	0.121771
O2	O	1.300922	0.138674	0.121776
O3	O	1.493490	0.001462	0.121778
O4	O	1.473958	0.263818	0.121769
O5	O	1.493479	0.001460	-0.121821
O6	O	1.300911	0.138672	-0.121823
O7	O	1.666516	0.126603	-0.121828
Cu8	Cu	1.483712	0.132637	-0.144068
Cu9	Cu	1.483725	0.132640	0.144016
O10	O	1.473947	0.263815	-0.121830
C11	C	1.254127	0.137788	-0.000023
C12	C	1.114711	0.135139	-0.000020
C13	C	1.049214	0.133891	-0.132807
C14	C	0.918221	0.131387	-0.132807
C15	C	0.918233	0.131384	0.132778
C16	C	1.049225	0.133881	0.132777
C17	C	1.492599	-0.032132	-0.000017
C18	C	1.489947	-0.132230	-0.000004
C19	C	1.364347	-0.545435	-0.000031
C20	C	1.593123	-0.565494	-0.000034
C21	C	1.595616	-0.471447	-0.000025
C22	C	1.482473	-0.414389	-0.000021
C23	C	1.366837	-0.451379	-0.000027
C24	C	1.711250	-0.434450	-0.000035
C25	C	1.713749	-0.340397	-0.000028
C26	C	1.600605	-0.283338	-0.000014
C27	C	1.484964	-0.320333	-0.000017
C28	C	1.371821	-0.263276	-0.000014
C29	C	1.256179	-0.300269	-0.000007
C30	C	1.253693	-0.394320	-0.000013
C31	C	1.603090	-0.189288	-0.000008
C32	C	1.374311	-0.169220	-0.000010
C33	C	1.713310	0.127490	-0.000026
C34	C	1.852726	0.130138	-0.000019
C35	C	1.474838	0.297410	-0.000031
C36	C	1.477490	0.397508	-0.000034
N37	N	1.483713	0.132635	-0.346690
C38	C	1.569016	0.071900	-0.576688
C39	C	1.569009	0.071901	-0.423351
C40	C	1.398427	0.193377	-0.423374
C41	C	1.398442	0.193379	-0.576708
N42	N	1.483735	0.132636	0.346639
H43	H	0.864898	0.130371	-0.240935
C44	C	1.304600	0.260184	-0.339042
N45	N	1.233923	0.310502	-0.275524
C46	C	0.846184	0.130008	0.278847
N47	N	0.791918	0.128974	0.388869
H48	H	1.803365	-0.480912	-0.000051
C49	C	1.662847	0.005085	-0.661001
N50	N	1.733525	-0.045241	-0.724501
C51	C	1.121246	0.135264	-0.278887
N52	N	1.175498	0.136294	-0.388919
H53	H	1.638454	0.022446	-0.360928
C54	C	1.840956	-0.299714	-0.000025
N55	N	1.936770	-0.269070	-0.000016
H56	H	1.328995	0.242842	-0.639140
C57	C	1.121277	0.135249	0.278860
N58	N	1.175548	0.136275	0.388885
C59	C	1.730288	-0.148599	-0.000016
N60	N	1.826101	-0.117954	-0.000018
H61	H	1.282175	-0.122769	-0.000000
C62	C	1.131726	-0.237494	-0.000003
N63	N	1.037992	-0.190208	0.000003
H64	H	1.270194	-0.575559	-0.000019
C65	C	1.717572	-0.628259	-0.000045
N66	N	1.811312	-0.675539	-0.000051
C67	C	1.126498	-0.435020	-0.000035
N68	N	1.030696	-0.465679	-0.000065
