data_functionalizedCrystal
_audit_creation_method	'MofGen! by Chris Wilmer'
_symmetry_space_group_name_H-M	'P1'
_symmetry_Int_Tables_number	1
_symmetry_cell_setting	triclinic
loop_
_symmetry_equiv_pos_as_xyz
  x,y,z
_cell_length_a	13.262402
_cell_length_b	13.339070
_cell_length_c	11.804365
_cell_angle_alpha	105.112168
_cell_angle_beta	93.583660
_cell_angle_gamma	99.431904
loop_
_atom_site_label
_atom_site_type_symbol
_atom_site_fract_x
_atom_site_fract_y
_atom_site_fract_z
O1	O	1.378769	0.207921	0.347569
O2	O	1.878769	0.707921	0.847569
O3	O	1.091846	0.203639	0.254631
O4	O	1.591846	0.703639	0.754631
O5	O	1.202377	0.056178	0.290437
O6	O	1.702377	0.556178	0.790437
O7	O	1.268237	0.355383	0.311763
O8	O	1.768237	0.855383	0.811763
O9	O	1.173267	0.094957	0.479063
O10	O	1.673267	0.594957	0.979063
O11	O	1.062735	0.242418	0.443257
O12	O	1.562735	0.742418	0.943257
O13	O	1.349659	0.246700	0.536195
O14	O	1.849659	0.746700	1.036195
Cu15	Cu	1.203539	0.248100	0.506949
Cu16	Cu	1.703539	0.748100	1.006949
Cu17	Cu	1.237965	0.202240	0.283877
Cu18	Cu	1.737965	0.702240	0.783877
O19	O	1.239127	0.394162	0.500389
O20	O	1.739127	0.894162	1.000389
C21	C	1.039817	0.219701	0.336806
C22	C	1.539817	0.719701	0.836806
C23	C	0.928155	0.209772	0.300637
C24	C	1.428155	0.709772	0.800637
C25	C	0.891564	0.183967	0.180821
C26	C	1.391564	0.683967	0.680821
C27	C	0.786653	0.174649	0.146841
C28	C	1.286653	0.674649	0.646841
C29	C	0.718322	0.191127	0.232673
C30	C	1.218322	0.691127	0.732673
C31	C	0.754913	0.216925	0.352490
C32	C	1.254913	0.716925	0.852490
C33	C	0.859835	0.226252	0.386474
C34	C	1.359835	0.726252	0.886474
C35	C	0.686594	0.233412	0.438326
C36	C	1.186594	0.733412	0.938326
C37	C	0.723184	0.259210	0.558143
C38	C	1.223184	0.759210	1.058143
C39	C	0.828096	0.268535	0.592121
C40	C	1.328096	0.768535	1.092121
C41	C	0.896426	0.252057	0.506290
C42	C	1.396426	0.752057	1.006290
C43	C	0.581671	0.224085	0.404342
C44	C	1.081671	0.724085	0.904342
C45	C	0.549943	0.266370	0.609995
C46	C	1.049943	0.766370	1.109995
C47	C	0.654853	0.275688	0.643975
C48	C	1.154853	0.775688	1.143975
C49	C	1.176698	0.037088	0.381145
C50	C	1.676698	0.537088	0.881145
C51	C	1.143538	-0.077571	0.370399
C52	C	1.643538	0.422429	0.870399
C53	C	1.401377	-0.424046	0.453918
C54	C	1.901377	0.075954	0.953918
C55	C	1.432535	-0.316317	0.464021
C56	C	1.932535	0.183683	0.964021
C57	C	1.360288	-0.256626	0.440616
C58	C	1.860288	0.243374	0.940616
C59	C	1.256879	-0.304673	0.407107
C60	C	1.756879	0.195327	0.907107
C61	C	1.225717	-0.412410	0.397011
C62	C	1.725717	0.087590	0.897011
C63	C	1.184627	-0.244990	0.383710
C64	C	1.684627	0.255010	0.883710
C65	C	1.081218	-0.293037	0.350200
C66	C	1.581218	0.206963	0.850200
C67	C	1.050061	-0.400764	0.340105
C68	C	1.550061	0.099236	0.840105
C69	C	1.122308	-0.460456	0.363510
C70	C	1.622308	0.039544	0.863510
C71	C	1.215790	-0.137252	0.393805
C72	C	1.715790	0.362748	0.893805
C73	C	1.040129	-0.125617	0.336899
C74	C	1.540129	0.374383	0.836899
C75	C	1.008971	-0.233345	0.326795
C76	C	1.508971	0.266655	0.826795
C77	C	1.401688	0.230638	0.454018
C78	C	1.901688	0.730638	0.954018
C79	C	1.513351	0.240565	0.490179
C80	C	2.013351	0.740565	0.990179
C81	C	1.264807	0.413251	0.409679
C82	C	1.764807	0.913251	0.909679
C83	C	1.297969	0.527909	0.420417
C84	C	1.797969	1.027909	0.920417
N85	N	1.179333	0.280356	0.663848
N86	N	1.679333	0.780356	1.163848
N87	N	1.262177	0.169976	0.126980
N88	N	1.762177	0.669976	0.626980
C89	C	1.320301	0.092498	1.083463
C90	C	1.820301	0.592498	1.583463
C91	C	1.338610	0.068093	0.964732
C92	C	1.838610	0.568093	1.464732
C93	C	1.298792	0.121156	0.889506
C94	C	1.798792	0.621156	1.389506
C95	C	1.240662	0.198630	0.933021
C96	C	1.740662	0.698630	1.433021
C97	C	1.222357	0.223044	1.051765
C98	C	1.722357	0.723044	1.551765
C99	C	1.200849	0.251702	0.857808
C100	C	1.700849	0.751702	1.357808
C101	C	1.142718	0.329176	0.901323
C102	C	1.642718	0.829176	1.401323
C103	C	1.124416	0.353586	1.020055
C104	C	1.624416	0.853586	1.520055
C105	C	1.164234	0.300522	1.095282
C106	C	1.664234	0.800522	1.595282
C107	C	1.219153	0.227288	0.739063
C108	C	1.719153	0.727288	1.239063
C109	C	1.121210	0.357834	0.707365
C110	C	1.621210	0.857834	1.207365
C111	C	1.102900	0.382239	0.826096
C112	C	1.602900	0.882239	1.326096
H113	H	0.756869	0.153645	0.049286
H114	H	1.256869	0.653645	0.549286
H115	H	0.947207	0.170562	0.110951
H116	H	1.447207	0.670562	0.610951
H117	H	0.632900	0.183539	0.204999
H118	H	1.132900	0.683539	0.704999
H119	H	1.385940	0.005015	0.929307
H120	H	1.885940	0.505015	1.429307
H121	H	0.684660	0.296695	0.741532
H122	H	1.184660	0.796695	1.241532
H123	H	1.096945	-0.548179	0.355281
H124	H	1.596945	-0.048179	0.855281
H125	H	0.494307	0.279791	0.679887
H126	H	0.994307	0.779791	1.179887
H127	H	1.266483	0.164209	0.703645
H128	H	1.766483	0.664209	1.203645
H129	H	0.981854	0.259636	0.533950
H130	H	1.481854	0.759636	1.033950
H131	H	1.299986	-0.098143	0.421089
H132	H	1.799986	0.401857	0.921089
H133	H	0.857885	0.289552	0.689685
H134	H	1.357885	0.789552	1.189685
H135	H	1.385663	-0.168908	0.448845
H136	H	1.885663	0.331092	0.948845
H137	H	0.981298	-0.077014	0.317846
H138	H	1.481298	0.422986	0.817846
H139	H	1.313703	0.101281	0.792831
H140	H	1.813703	0.601281	1.292831
H141	H	1.077092	0.416677	1.055487
H142	H	1.577092	0.916677	1.555487
H143	H	1.516730	-0.277205	0.491306
H144	H	2.016730	0.222795	0.991306
H145	H	0.551891	0.203081	0.306786
H146	H	1.051891	0.703081	0.806786
H147	H	1.460188	-0.472654	0.472980
H148	H	1.960188	0.027346	0.972980
H149	H	0.965857	-0.439879	0.312828
H150	H	1.465857	0.060121	0.812828
H151	H	1.352722	0.049307	1.144721
H152	H	1.852722	0.549307	1.644721
H153	H	0.924773	-0.272480	0.299512
H154	H	1.424773	0.227520	0.799512
H155	H	1.149323	0.320390	1.191962
H156	H	1.649323	0.820390	1.691962
H157	H	1.055569	0.445321	0.861541
H158	H	1.555569	0.945321	1.361541
H159	H	1.088788	0.401045	0.646116
H160	H	1.588788	0.901045	1.146116
