data_functionalizedCrystal
_audit_creation_method	'MofGen! by Chris Wilmer'
_symmetry_space_group_name_H-M	'P1'
_symmetry_Int_Tables_number	1
_symmetry_cell_setting	triclinic
loop_
_symmetry_equiv_pos_as_xyz
  x,y,z
_cell_length_a	12.759395
_cell_length_b	18.050590
_cell_length_c	12.759387
_cell_angle_alpha	90.035119
_cell_angle_beta	90.020509
_cell_angle_gamma	90.020089
loop_
_atom_site_label
_atom_site_type_symbol
_atom_site_fract_x
_atom_site_fract_y
_atom_site_fract_z
Zn1	Zn	1.606241	-0.295590	0.593974
Zn2	Zn	1.606119	-0.419799	0.418281
Zn3	Zn	1.430539	-0.295630	0.418310
Zn4	Zn	1.430519	-0.419746	0.593920
O5	O	1.518354	-0.357691	0.506121
O6	O	1.753246	-0.312072	0.570678
O7	O	1.582786	-0.403367	0.271263
O8	O	1.453905	-0.191700	0.441647
O9	O	1.753157	-0.403327	0.441597
O10	O	1.582992	-0.191671	0.570706
O11	O	1.453787	-0.312141	0.271285
O12	O	1.283515	-0.312089	0.441595
O13	O	1.453872	-0.403237	0.740948
O14	O	1.283501	-0.403276	0.570615
O15	O	1.582973	-0.312020	0.740988
O16	O	1.582767	-0.523716	0.441545
O17	O	1.453754	-0.523677	0.570586
C18	C	1.245387	-0.357682	0.506103
C19	C	1.128610	-0.357696	0.506120
C20	C	1.128634	-0.452803	0.640251
C21	C	1.073785	-0.500362	0.707319
C22	C	0.964063	-0.500371	0.707332
C23	C	0.909188	-0.452814	0.640272
C24	C	0.964037	-0.405255	0.573203
C25	C	1.073761	-0.405253	0.573195
C26	C	0.964014	-0.310146	0.439080
C27	C	1.073735	-0.310139	0.439060
C28	C	0.909138	-0.262589	0.372019
C29	C	0.963987	-0.215032	0.304944
C30	C	1.073716	-0.215026	0.304933
C31	C	1.128584	-0.262580	0.371991
C32	C	1.518274	-0.550643	0.506079
C33	C	1.518335	-0.633189	0.506096
C34	C	1.588638	-0.832634	0.436022
C35	C	1.614308	-0.881958	0.531909
C36	C	1.518395	-0.784319	0.506138
C37	C	1.492832	-0.882077	0.410295
C38	C	1.518455	-0.930304	0.506170
C39	C	1.544114	-0.832556	0.602076
C40	C	1.422594	-0.832671	0.480397
C41	C	1.448227	-0.881973	0.576350
C42	C	1.518363	-0.700221	0.506119
C43	C	1.518486	-1.014401	0.506201
C44	C	1.792388	-0.357701	0.506140
C45	C	1.909165	-0.357705	0.506148
C46	C	1.518434	-0.357618	0.780155
C47	C	1.518468	-0.357587	0.896932
C48	C	1.518464	-0.163986	0.506186
C49	C	1.518511	-0.081440	0.506214
C50	C	1.518336	-0.357710	0.233154
C51	C	1.518506	-0.357532	0.116377
C52	C	1.652910	-0.262609	0.896992
C53	C	1.720146	-0.215109	0.951884
C54	C	1.720172	-0.215082	1.061605
C55	C	1.652952	-0.262559	1.116438
C56	C	1.585716	-0.310059	1.061547
C57	C	1.585700	-0.310082	0.951823
C58	C	1.451270	-0.405032	1.061486
C59	C	1.451248	-0.405064	0.951764
C60	C	1.384050	-0.452508	1.116319
C61	C	1.316817	-0.500013	1.061428
C62	C	1.316796	-0.500039	0.951700
C63	C	1.384012	-0.452564	0.896873
H64	H	1.118476	-0.539081	0.761920
N65	N	0.904892	-0.551664	0.779665
H66	H	0.924019	-0.540198	0.854762
H67	H	0.923979	-0.604690	0.763115
N68	N	1.572908	-0.803875	0.709493
H69	H	1.572737	-0.747924	0.708811
H70	H	1.645042	-0.822293	0.729044
N71	N	1.384070	-0.452462	1.234661
H72	H	1.456136	-0.466113	1.261104
H73	H	1.331238	-0.489733	1.260993
N74	N	0.790847	-0.452821	0.640284
H75	H	0.764427	-0.490165	0.692947
H76	H	0.764469	-0.466390	0.568141
H77	H	1.471187	-0.903828	0.329228
H78	H	1.388850	-0.903500	0.635728
H79	H	1.341574	-0.811003	0.458576
H80	H	1.384005	-0.452583	0.807532
H81	H	0.819797	-0.262596	0.372039
H82	H	1.217975	-0.452806	0.640239
N83	N	1.652980	-0.262529	1.234780
H84	H	1.600199	-0.299813	1.261187
H85	H	1.633738	-0.211550	1.261141
H86	H	1.695350	-0.903610	0.553702
H87	H	1.652906	-0.262634	0.807651
N88	N	0.904804	-0.163753	0.232608
H89	H	0.826974	-0.170977	0.242793
H90	H	0.923947	-0.175259	0.157547
N91	N	1.792671	-0.163923	0.892745
H92	H	1.782468	-0.171153	0.814907
H93	H	1.867690	-0.175508	0.911949
N94	N	1.246926	-0.262571	0.371988
H95	H	1.273350	-0.225227	0.319327
H96	H	1.273244	-0.313523	0.352569
N97	N	1.792679	-0.163846	1.120817
H98	H	1.835255	-0.133771	1.069437
H99	H	1.841286	-0.194070	1.166339
H100	H	1.262087	-0.538661	1.106082
N101	N	1.132872	-0.163721	0.232605
H102	H	1.081456	-0.133597	0.190132
H103	H	1.178364	-0.193899	0.183893
N104	N	1.244259	-0.551268	0.892510
H105	H	1.260535	-0.604328	0.911590
H106	H	1.254466	-0.544023	0.814698
N107	N	1.667339	-0.803931	0.357555
H108	H	1.739711	-0.821859	0.377155
H109	H	1.666197	-0.747986	0.357658
