data_functionalizedCrystal
_audit_creation_method	'MofGen! by Chris Wilmer'
_symmetry_space_group_name_H-M	'P1'
_symmetry_Int_Tables_number	1
_symmetry_cell_setting	triclinic
loop_
_symmetry_equiv_pos_as_xyz
  x,y,z
_cell_length_a	14.908506
_cell_length_b	18.215407
_cell_length_c	18.215399
_cell_angle_alpha	90.017368
_cell_angle_beta	86.729363
_cell_angle_gamma	93.317222
loop_
_atom_site_label
_atom_site_type_symbol
_atom_site_fract_x
_atom_site_fract_y
_atom_site_fract_z
Zn1	Zn	-0.359230	1.108178	0.432979
Zn2	Zn	-0.109230	1.358178	0.682979
Zn3	Zn	0.140770	1.608178	0.932979
Zn4	Zn	0.390770	1.858178	1.182979
Zn5	Zn	-0.510099	1.100992	0.317016
Zn6	Zn	-0.260099	1.350992	0.567016
Zn7	Zn	-0.010099	1.600992	0.817016
Zn8	Zn	0.239901	1.850992	1.067016
Zn9	Zn	-0.359252	0.985110	0.309933
Zn10	Zn	-0.109252	1.235110	0.559933
Zn11	Zn	0.140748	1.485110	0.809933
Zn12	Zn	0.390748	1.735110	1.059933
Zn13	Zn	-0.510041	0.977985	0.440043
Zn14	Zn	-0.260041	1.227985	0.690043
Zn15	Zn	-0.010041	1.477985	0.940043
Zn16	Zn	0.239959	1.727985	1.190043
O17	O	-0.434655	1.043066	0.374993
O18	O	-0.184655	1.293066	0.624993
O19	O	0.065345	1.543066	0.874993
O20	O	0.315345	1.793066	1.124993
O21	O	-0.379258	1.210209	0.417605
O22	O	-0.129258	1.460209	0.667605
O23	O	0.120742	1.710209	0.917605
O24	O	0.370742	1.960209	1.167605
O25	O	-0.490122	1.085594	0.213094
O26	O	-0.240122	1.335594	0.463094
O27	O	0.009878	1.585594	0.713094
O28	O	0.259878	1.835594	0.963094
O29	O	-0.233004	1.007425	0.320335
O30	O	0.016996	1.257425	0.570335
O31	O	0.266996	1.507425	0.820335
O32	O	0.516996	1.757425	1.070335
O33	O	-0.490101	1.204929	0.332407
O34	O	-0.240101	1.454929	0.582407
O35	O	0.009899	1.704929	0.832407
O36	O	0.259899	1.954929	1.082407
O37	O	-0.232988	1.097843	0.410737
O38	O	0.017012	1.347843	0.660737
O39	O	0.267012	1.597843	0.910737
O40	O	0.517012	1.847843	1.160737
O41	O	-0.379295	1.000456	0.207890
O42	O	-0.129295	1.250456	0.457890
O43	O	0.120705	1.500456	0.707890
O44	O	0.370705	1.750456	0.957890
O45	O	-0.379239	0.881181	0.327185
O46	O	-0.129239	1.131181	0.577185
O47	O	0.120761	1.381181	0.827185
O48	O	0.370761	1.631181	1.077185
O49	O	-0.490002	0.995281	0.542089
O50	O	-0.240002	1.245281	0.792089
O51	O	0.009998	1.495281	1.042089
O52	O	0.259998	1.745281	1.292089
O53	O	-0.490023	0.875946	0.422776
O54	O	-0.240023	1.125946	0.672776
O55	O	0.009977	1.375946	0.922776
O56	O	0.259977	1.625946	1.172776
O57	O	-0.379202	1.090934	0.536899
O58	O	-0.129202	1.340934	0.786899
O59	O	0.120798	1.590934	1.036899
O60	O	0.370798	1.840934	1.286899
O61	O	-0.636336	1.078685	0.339256
O62	O	-0.386336	1.328685	0.589256
O63	O	-0.136336	1.578685	0.839256
O64	O	0.113664	1.828685	1.089256
O65	O	-0.636293	0.988312	0.429644
O66	O	-0.386293	1.238312	0.679644
O67	O	-0.136293	1.488312	0.929644
O68	O	0.113707	1.738312	1.179644
C69	C	-0.434628	0.851861	0.374979
C70	C	-0.184628	1.101861	0.624979
C71	C	0.065372	1.351861	0.874979
C72	C	0.315372	1.601861	1.124979
C73	C	-0.434638	0.770062	0.374991
C74	C	-0.184638	1.020062	0.624991
C75	C	0.065362	1.270062	0.874991
C76	C	0.315362	1.520062	1.124991
C77	C	-0.377041	0.584611	0.419434
C78	C	-0.127041	0.834611	0.669434
C79	C	0.122959	1.084611	0.919434
C80	C	0.372959	1.334611	1.169434
C81	C	-0.377048	0.507751	0.419437
C82	C	-0.127048	0.757751	0.669437
C83	C	0.122952	1.007751	0.919437
C84	C	0.372952	1.257751	1.169437
C85	C	-0.492296	0.502273	0.330566
C86	C	-0.242296	0.752273	0.580566
C87	C	0.007704	1.002273	0.830566
C88	C	0.257704	1.252273	1.080566
C89	C	-0.492283	0.579131	0.330560
C90	C	-0.242283	0.829131	0.580560
C91	C	0.007717	1.079131	0.830560
C92	C	0.257717	1.329131	1.080560
C93	C	-0.434656	0.620298	0.374998
C94	C	-0.184656	0.870298	0.624998
C95	C	0.065344	1.120298	0.874998
C96	C	0.315344	1.370298	1.124998
C97	C	-0.434677	0.466580	0.375007
C98	C	-0.184677	0.716580	0.625007
C99	C	0.065323	0.966580	0.875007
C100	C	0.315323	1.216580	1.125007
C101	C	-0.434686	0.383246	0.375010
C102	C	-0.184686	0.633246	0.625010
C103	C	0.065314	0.883246	0.875010
C104	C	0.315314	1.133246	1.125010
C105	C	-0.434646	0.703637	0.374994
C106	C	-0.184646	0.953637	0.624994
C107	C	0.065354	1.203637	0.874994
C108	C	0.315354	1.453637	1.124994
C109	C	-0.669049	1.031966	0.386001
C110	C	-0.419049	1.281966	0.636001
C111	C	-0.169049	1.531966	0.886001
C112	C	0.080951	1.781966	1.136001
C113	C	-0.769323	1.027284	0.390735
C114	C	-0.519323	1.277284	0.640735
C115	C	-0.269323	1.527284	0.890735
C116	C	-0.019323	1.777284	1.140735
C117	C	-0.910666	0.973597	0.444423
C118	C	-0.660666	1.223597	0.694423
C119	C	-0.410666	1.473597	0.944423
C120	C	-0.160666	1.723597	1.194423
C121	C	-0.816449	0.977994	0.439980
C122	C	-0.566449	1.227994	0.689980
C123	C	-0.316449	1.477994	0.939980
C124	C	-0.066449	1.727994	1.189980
C125	C	-0.816421	1.072182	0.345931
C126	C	-0.566421	1.322182	0.595931
C127	C	-0.316421	1.572182	0.845931
C128	C	-0.066421	1.822182	1.095931
C129	C	-0.910637	1.067785	0.350374
C130	C	-0.660637	1.317785	0.600374
C131	C	-0.410637	1.567785	0.850374
C132	C	-0.160637	1.817785	1.100374
C133	C	-0.957756	1.018490	0.399621
C134	C	-0.707756	1.268490	0.649621
C135	C	-0.457756	1.518490	0.899621
C136	C	-0.207756	1.768490	1.149621
C137	C	-1.051975	1.014090	0.404059
C138	C	-0.801975	1.264090	0.654059
C139	C	-0.551975	1.514090	0.904059
C140	C	-0.301975	1.764090	1.154059
C141	C	-1.051945	1.108281	0.310014
C142	C	-0.801945	1.358281	0.560014
C143	C	-0.551945	1.608281	0.810014
C144	C	-0.301945	1.858281	1.060014
C145	C	-0.957728	1.112678	0.305572
C146	C	-0.707728	1.362678	0.555572
C147	C	-0.457728	1.612678	0.805572
C148	C	-0.207728	1.862678	1.055572
C149	C	-0.199347	1.054230	0.363958
C150	C	0.050653	1.304230	0.613958
C151	C	0.300653	1.554230	0.863958
C152	C	0.550653	1.804230	1.113958
C153	C	-0.099072	1.058988	0.359255
C154	C	0.150928	1.308988	0.609255
C155	C	0.400928	1.558988	0.859255
C156	C	0.650928	1.808988	1.109255
C157	C	-0.434593	1.043114	0.566943
C158	C	-0.184593	1.293114	0.816943
C159	C	0.065407	1.543114	1.066943
C160	C	0.315407	1.793114	1.316943
C161	C	-0.434567	1.043134	0.648741
C162	C	-0.184567	1.293134	0.898741
C163	C	0.065433	1.543134	1.148741
C164	C	0.315433	1.793134	1.398741
C165	C	-0.434684	1.235018	0.375008
C166	C	-0.184684	1.485018	0.625008
C167	C	0.065316	1.735018	0.875008
C168	C	0.315316	1.985018	1.125008
C169	C	-0.434696	1.316816	0.375014
C170	C	-0.184696	1.566816	0.625014
C171	C	0.065304	1.816816	0.875014
C172	C	0.315304	2.066816	1.125014
C173	C	-0.434652	1.043064	0.183787
C174	C	-0.184652	1.293064	0.433787
C175	C	0.065348	1.543064	0.683787
C176	C	0.315348	1.793064	0.933787
C177	C	-0.434425	1.043198	0.101977
C178	C	-0.184425	1.293198	0.351977
C179	C	0.065575	1.543198	0.601977
C180	C	0.315575	1.793198	0.851977
C181	C	-0.376819	1.092960	0.834231
C182	C	-0.126819	1.342960	1.084231
C183	C	0.123181	1.592960	1.334231
C184	C	0.373181	1.842960	1.584231
C185	C	-0.376793	1.092970	0.911089
C186	C	-0.126793	1.342970	1.161089
C187	C	0.123207	1.592970	1.411089
C188	C	0.373207	1.842970	1.661089
C189	C	-0.492175	0.993367	0.916482
C190	C	-0.242175	1.243367	1.166482
C191	C	0.007825	1.493367	1.416482
C192	C	0.257825	1.743367	1.666482
C193	C	-0.492196	0.993354	0.839625
C194	C	-0.242196	1.243354	1.089625
C195	C	0.007804	1.493354	1.339625
C196	C	0.257804	1.743354	1.589625
C197	C	-0.434519	1.043155	0.798502
C198	C	-0.184519	1.293155	1.048502
C199	C	0.065481	1.543155	1.298502
C200	C	0.315481	1.793155	1.548502
C201	C	-0.434472	1.043178	0.952216
C202	C	-0.184472	1.293178	1.202216
C203	C	0.065528	1.543178	1.452216
C204	C	0.315528	1.793178	1.702216
C205	C	-0.434444	1.043188	1.035548
C206	C	-0.184444	1.293188	1.285548
C207	C	0.065556	1.543188	1.535548
C208	C	0.315556	1.793188	1.785548
C209	C	-0.434546	1.043144	0.715164
C210	C	-0.184546	1.293144	0.965164
C211	C	0.065454	1.543144	1.215164
C212	C	0.315454	1.793144	1.465164
H213	H	-1.090338	0.973953	0.444161
H214	H	-0.840338	1.223953	0.694161
H215	H	-0.590338	1.473953	0.944161
H216	H	-0.340338	1.723953	1.194161
H217	H	-1.090296	1.144836	0.273533
H218	H	-0.840296	1.394836	0.523533
H219	H	-0.590296	1.644836	0.773533
H220	H	-0.340296	1.894836	1.023533
H221	H	-0.778044	1.112322	0.305841
H222	H	-0.528044	1.362322	0.555841
H223	H	-0.278044	1.612322	0.805841
H224	H	-0.028044	1.862322	1.055841
H225	H	-0.539214	0.468745	0.294387
H226	H	-0.289214	0.718745	0.544387
H227	H	-0.039214	0.968745	0.794387
H228	H	0.210786	1.218745	1.044387
Cl229	Cl	-0.304592	0.636361	0.475295
Cl230	Cl	-0.054592	0.886361	0.725295
Cl231	Cl	0.195408	1.136361	0.975295
Cl232	Cl	0.445408	1.386361	1.225295
Cl233	Cl	-0.304260	1.155592	0.956002
Cl234	Cl	-0.054260	1.405592	1.206002
Cl235	Cl	0.195740	1.655592	1.456002
Cl236	Cl	0.445740	1.905592	1.706002
Cl237	Cl	-0.304612	0.462891	0.475300
Cl238	Cl	-0.054612	0.712891	0.725300
Cl239	Cl	0.195388	0.962891	0.975300
Cl240	Cl	0.445388	1.212891	1.225300
H241	H	-0.949031	0.933460	0.484523
H242	H	-0.699031	1.183460	0.734523
H243	H	-0.449031	1.433460	0.984523
H244	H	-0.199031	1.683460	1.234523
Cl245	Cl	-0.564734	0.930732	0.794705
Cl246	Cl	-0.314734	1.180732	1.044705
Cl247	Cl	-0.064734	1.430732	1.294705
Cl248	Cl	0.185266	1.680732	1.544705
H249	H	-0.329853	1.133509	0.800750
H250	H	-0.079853	1.383509	1.050750
H251	H	0.170147	1.633509	1.300750
H252	H	0.420147	1.883509	1.550750
H253	H	-0.778110	0.941439	0.476463
H254	H	-0.528110	1.191439	0.726463
H255	H	-0.278110	1.441439	0.976463
H256	H	-0.028110	1.691439	1.226463
Cl257	Cl	-0.564711	0.623998	0.274685
Cl258	Cl	-0.314711	0.873998	0.524685
Cl259	Cl	-0.064711	1.123998	0.774685
Cl260	Cl	0.185289	1.373998	1.024685
H261	H	-0.919353	1.152815	0.265478
H262	H	-0.669353	1.402815	0.515478
H263	H	-0.419353	1.652815	0.765478
H264	H	-0.169353	1.902815	1.015478
H265	H	-0.539135	0.952823	0.949974
H266	H	-0.289135	1.202823	1.199974
H267	H	-0.039135	1.452823	1.449974
H268	H	0.210865	1.702823	1.699974
