data_functionalizedCrystal
_audit_creation_method	'MofGen! by Chris Wilmer'
_symmetry_space_group_name_H-M	'P1'
_symmetry_Int_Tables_number	1
_symmetry_cell_setting	triclinic
loop_
_symmetry_equiv_pos_as_xyz
  x,y,z
_cell_length_a	11.792241
_cell_length_b	27.732048
_cell_length_c	10.868271
_cell_angle_alpha	89.989927
_cell_angle_beta	89.999893
_cell_angle_gamma	83.418036
loop_
_atom_site_label
_atom_site_type_symbol
_atom_site_fract_x
_atom_site_fract_y
_atom_site_fract_z
O1	O	1.504789	0.066248	-0.102217
O2	O	1.174230	0.073076	-0.102248
O3	O	1.349776	-0.000675	-0.102208
O4	O	1.329243	0.139999	-0.102257
O5	O	1.349762	-0.000678	0.102437
O6	O	1.174215	0.073073	0.102397
O7	O	1.504775	0.066245	0.102427
Zn8	Zn	1.339493	0.069659	0.134904
Zn9	Zn	1.339512	0.069662	-0.134724
O10	O	1.329229	0.139996	0.102388
C11	C	1.131945	0.072645	0.000071
C12	C	1.005973	0.071362	0.000061
C13	C	0.775336	0.069001	0.000097
C14	C	0.903679	0.070313	0.000077
C15	C	1.349338	-0.018686	0.000118
C16	C	1.348040	-0.072348	0.000128
C17	C	1.443606	-0.410609	0.000073
C18	C	1.438790	-0.612297	0.000055
O19	O	1.526178	-0.643045	0.000010
N20	N	1.334698	-0.632024	0.000047
C21	C	1.231803	-0.601327	0.000035
O22	O	1.143157	-0.622734	0.000015
C23	C	1.236620	-0.399640	0.000044
C24	C	1.340718	-0.379915	0.000065
C25	C	1.547695	-0.390884	0.000093
C26	C	1.548898	-0.340465	0.000104
C27	C	1.446011	-0.309771	0.000095
C28	C	1.341921	-0.329496	0.000076
C29	C	1.133726	-0.368943	0.000023
C30	C	1.134940	-0.318519	0.000022
C31	C	1.239038	-0.298794	0.000043
C32	C	1.240237	-0.248384	0.000079
N33	N	1.344328	-0.228656	0.000087
C34	C	1.447215	-0.259350	0.000095
C35	C	1.229282	-0.707215	0.000033
C36	C	1.228077	-0.757637	0.000033
C37	C	1.435065	-0.768603	0.000051
C38	C	1.436268	-0.718181	0.000060
C39	C	1.333374	-0.687488	0.000041
C40	C	1.449733	-0.153466	0.000120
C41	C	1.450927	-0.103042	0.000136
C42	C	1.243941	-0.092080	0.000111
C43	C	1.242746	-0.142500	0.000102
C44	C	1.345652	-0.173192	0.000102
O45	O	1.152896	-0.217607	0.000111
O46	O	1.535849	-0.237933	0.000088
C47	C	1.442403	-0.461028	0.000062
C48	C	1.338313	-0.480753	0.000043
C49	C	1.235426	-0.450060	0.000034
C50	C	1.337108	-0.531175	0.000043
C51	C	1.439996	-0.561868	0.000051
C52	C	1.544087	-0.542141	0.000059
C53	C	1.545290	-0.491722	0.000070
C54	C	1.131334	-0.469787	0.000026
C55	C	1.130140	-0.520207	0.000016
C56	C	1.233027	-0.550900	0.000024
C57	C	1.547059	0.066676	0.000106
C58	C	1.673032	0.067959	0.000108
C59	C	1.329667	0.158007	0.000059
C60	C	1.330965	0.211669	0.000041
N61	N	1.339488	0.069656	0.318918
N62	N	1.339525	0.069662	-0.318738
C63	C	1.339506	0.069661	0.569924
C64	C	1.339492	0.069660	0.430246
H65	H	1.535700	-0.086985	0.000156
C66	C	1.659535	-0.424123	0.000171
C67	C	1.750935	-0.396046	0.000218
C68	C	1.853985	-0.426645	0.000317
H69	H	1.663553	-0.444028	-0.071170
H70	H	1.663428	-0.444016	0.071567
H71	H	1.747044	-0.376161	-0.071172
H72	H	1.746955	-0.376141	0.071553
H73	H	1.857879	-0.446538	0.071714
H74	H	1.857991	-0.446549	-0.071025
H75	H	1.916012	-0.407599	0.000361
C76	C	1.129812	-0.163986	-0.000102
C77	C	1.123097	-0.192609	-0.105384
C78	C	1.019086	-0.212412	-0.105618
H79	H	1.068610	-0.138534	-0.000164
H80	H	1.125025	-0.183464	0.071217
H81	H	1.127873	-0.173132	-0.176684
H82	H	1.184276	-0.218068	-0.105345
H83	H	1.014299	-0.231890	-0.034299
H84	H	0.957891	-0.186957	-0.105676
H85	H	1.014520	-0.231838	-0.177044
C86	C	1.132154	-0.058806	-0.000099
C87	C	1.069429	-0.067760	-0.105384
C88	C	0.966439	-0.037120	-0.105623
H89	H	1.147629	-0.025937	-0.000160
H90	H	1.089353	-0.064824	0.071218
H91	H	1.112221	-0.061739	-0.176682
H92	H	1.053923	-0.100623	-0.105346
H93	H	0.923638	-0.043138	-0.034307
H94	H	0.981926	-0.004253	-0.105681
H95	H	0.923863	-0.043195	-0.177052
C96	C	1.117646	-0.673837	0.000213
C97	C	1.112290	-0.644568	0.105482
C98	C	1.009475	-0.613811	0.105687
H99	H	1.055393	-0.692750	0.000274
H100	H	1.113800	-0.653906	-0.071114
H101	H	1.116125	-0.664496	0.176791
H102	H	1.174519	-0.625644	0.105444
H103	H	1.005629	-0.593880	0.034359
H104	H	0.947230	-0.632728	0.105744
H105	H	1.005832	-0.593945	0.177104
H106	H	1.051148	-0.293530	0.000005
H107	H	1.047549	-0.444801	0.000016
C108	C	1.655674	-0.575552	0.000001
C109	C	1.632324	-0.623929	-0.000044
C110	C	1.735082	-0.654723	-0.000122
H111	H	1.698482	-0.569616	0.071348
H112	H	1.698406	-0.569566	-0.071389
H113	H	1.589610	-0.629912	0.071340
H114	H	1.589532	-0.629880	-0.071385
H115	H	1.777813	-0.648737	-0.071513
H116	H	1.777882	-0.648782	0.071226
H117	H	1.719253	-0.687550	-0.000164
C118	C	1.016992	-0.541525	-0.000069
C119	C	0.927154	-0.503847	-0.000109
C120	C	0.822910	-0.523464	-0.000216
H121	H	1.012038	-0.560967	0.071267
H122	H	1.012166	-0.560943	-0.071470
H123	H	0.931977	-0.484436	0.071285
H124	H	0.932069	-0.484401	-0.071440
H125	H	0.818084	-0.542883	-0.071618
H126	H	0.817969	-0.542907	0.071121
H127	H	0.761943	-0.497903	-0.000255
H128	H	1.533529	-0.178450	0.000115
H129	H	1.630058	-0.475667	0.000087
H130	H	1.143310	-0.773692	0.000037
H131	H	1.633666	-0.324410	0.000116
H132	H	1.521034	-0.702125	0.000076
H133	H	1.518839	-0.793603	0.000058
H134	H	1.048958	-0.384994	-0.000001
