data_functionalizedCrystal
_audit_creation_method	'MofGen! by Chris Wilmer'
_symmetry_space_group_name_H-M	'P1'
_symmetry_Int_Tables_number	1
_symmetry_cell_setting	triclinic
loop_
_symmetry_equiv_pos_as_xyz
  x,y,z
_cell_length_a	11.026607
_cell_length_b	14.044220
_cell_length_c	10.065875
_cell_angle_alpha	99.592716
_cell_angle_beta	79.302338
_cell_angle_gamma	100.887447
loop_
_atom_site_label
_atom_site_type_symbol
_atom_site_fract_x
_atom_site_fract_y
_atom_site_fract_z
O1	O	1.670494	0.393284	-0.113515
O2	O	1.312203	0.347236	-0.113514
O3	O	1.485969	0.231359	-0.113501
O4	O	1.496729	0.509161	-0.113528
O5	O	1.452846	0.253569	0.113485
O6	O	1.279081	0.369446	0.113472
O7	O	1.637372	0.415494	0.113471
Zn8	Zn	1.452967	0.395996	0.149510
Zn9	Zn	1.496608	0.366734	-0.149554
O10	O	1.463606	0.531371	0.113458
C11	C	1.249512	0.349846	-0.000021
C12	C	1.112056	0.324521	-0.000020
C13	C	1.045821	0.394445	-0.000028
C14	C	0.903753	0.368273	-0.000027
C15	C	1.464699	0.206346	-0.000008
C16	C	1.450655	0.098724	-0.000006
C17	C	1.424983	-0.098320	-0.000025
C18	C	1.524588	-0.138958	-0.000030
C19	C	1.510304	-0.248600	-0.000041
C20	C	1.439265	0.011332	-0.000015
C21	C	1.700064	0.412884	-0.000025
C22	C	1.837520	0.438207	-0.000035
C23	C	1.484876	0.556383	-0.000039
C24	C	1.498921	0.664004	-0.000049
N25	N	1.423193	0.415967	0.353614
N26	N	1.526391	0.346756	-0.353657
C27	C	1.486240	0.373675	0.421397
C28	C	1.463335	0.389055	0.578563
H29	H	1.094290	0.473686	-0.000028
O30	O	0.846113	0.273679	-0.000202
C31	C	0.832363	0.108810	-0.117829
C32	C	0.897764	0.215893	-0.117784
H33	H	0.874078	0.062063	-0.212898
H34	H	0.846433	0.080533	-0.022898
H35	H	0.728081	0.104576	-0.117763
H36	H	1.002064	0.220211	-0.117898
H37	H	0.883591	0.244124	-0.212706
H38	H	0.885983	0.517454	-0.000034
O39	O	1.639157	-0.082316	0.000170
C40	C	1.816352	-0.026429	0.117839
C41	C	1.686637	-0.090638	0.117760
H42	H	1.854766	-0.033119	0.212915
H43	H	1.882681	-0.051726	0.022915
H44	H	1.807596	0.053158	0.117785
H45	H	1.695272	-0.170241	0.117862
H46	H	1.620357	-0.065259	0.212675
O47	O	1.310538	-0.155175	0.000041
C48	C	1.191801	-0.317902	-0.000034
C49	C	1.321475	-0.253611	-0.000085
H50	H	1.200604	-0.397502	-0.000165
H51	H	1.125534	-0.292676	0.094990
H52	H	1.153273	-0.311123	-0.094997
H53	H	1.360116	-0.260359	0.094814
H54	H	1.387658	-0.278854	-0.095171
H55	H	1.063591	0.245278	-0.000048
H56	H	1.392391	0.436648	0.636878
H57	H	1.597325	0.299155	0.588028
O58	O	1.570726	0.316762	0.351864
C59	C	1.630883	0.156781	0.307844
C60	C	1.535087	0.221110	0.386664
H61	H	1.602118	0.079439	0.335972
H62	H	1.634249	0.154432	0.193476
H63	H	1.727264	0.188878	0.335803
H64	H	1.438657	0.189062	0.358820
H65	H	1.531830	0.223458	0.501012
H66	H	1.352254	0.463557	0.411935
