data_functionalizedCrystal
_audit_creation_method	'MofGen! by Chris Wilmer'
_symmetry_space_group_name_H-M	'P1'
_symmetry_Int_Tables_number	1
_symmetry_cell_setting	triclinic
loop_
_symmetry_equiv_pos_as_xyz
  x,y,z
_cell_length_a	26.809956
_cell_length_b	14.519709
_cell_length_c	14.519709
_cell_angle_alpha	83.680145
_cell_angle_beta	90.003406
_cell_angle_gamma	89.996771
loop_
_atom_site_label
_atom_site_type_symbol
_atom_site_fract_x
_atom_site_fract_y
_atom_site_fract_z
O1	O	0.041416	-1.223875	-0.120878
O2	O	0.541416	-0.723875	0.379122
O3	O	0.041431	-0.955398	-0.135115
O4	O	0.541431	-0.455398	0.364885
O5	O	0.041419	-1.096755	0.006242
O6	O	0.541419	-0.596755	0.506242
O7	O	0.041428	-1.082518	-0.262235
O8	O	0.541428	-0.582518	0.237765
O9	O	-0.041541	-1.096728	0.006220
O10	O	0.458459	-0.596728	0.506220
O11	O	-0.041528	-0.955371	-0.135136
O12	O	0.458472	-0.455371	0.364864
O13	O	-0.041544	-1.223848	-0.120900
O14	O	0.458456	-0.723848	0.379100
Zn15	Zn	-0.054707	-1.089605	-0.128021
Zn16	Zn	0.445293	-0.589605	0.371979
Zn17	Zn	0.054595	-1.089641	-0.127993
Zn18	Zn	0.554595	-0.589641	0.372007
O19	O	-0.041531	-1.082491	-0.262257
O20	O	0.458469	-0.582491	0.237743
C21	C	-0.000047	-0.921025	-0.134462
C22	C	0.499953	-0.421025	0.365538
C23	C	-0.000041	-0.818643	-0.132474
C24	C	0.499959	-0.318643	0.367526
C25	C	-0.000061	-1.096078	0.040591
C26	C	0.499939	-0.596078	0.540591
C27	C	-0.000061	-1.094089	0.142972
C28	C	0.499939	-0.594089	0.642972
N29	N	-0.129303	-1.089588	-0.128040
N30	N	0.370697	-0.589588	0.371960
C31	C	-0.473935	-1.152225	-0.065416
C32	C	0.026065	-0.652225	0.434584
C33	C	-0.682813	-1.152247	-0.065402
C34	C	-0.182813	-0.652247	0.434598
O35	O	-0.709821	-1.205466	-0.012162
O36	O	-0.209821	-0.705466	0.487838
N37	N	-0.708930	-1.089645	-0.127973
N38	N	-0.208930	-0.589645	0.372027
C39	C	-0.682826	-1.027030	-0.190548
C40	C	-0.182826	-0.527030	0.309452
O41	O	-0.709833	-0.973777	-0.243761
O42	O	-0.209833	-0.473777	0.256239
C43	C	-0.473949	-1.027004	-0.190556
C44	C	0.026051	-0.527004	0.309444
C45	C	-0.447834	-1.089616	-0.127988
C46	C	0.052166	-0.589616	0.372012
C47	C	-0.447820	-1.214831	-0.002851
C48	C	0.052180	-0.714831	0.497149
C49	C	-0.395604	-1.214829	-0.002859
C50	C	0.104396	-0.714829	0.497141
C51	C	-0.369502	-1.152220	-0.065431
C52	C	0.130498	-0.652220	0.434569
C53	C	-0.395618	-1.089614	-0.127995
C54	C	0.104382	-0.589614	0.372005
C55	C	-0.447845	-0.964385	-0.253126
C56	C	0.052155	-0.464385	0.246874
C57	C	-0.395622	-0.964383	-0.253121
C58	C	0.104378	-0.464383	0.246879
C59	C	-0.369507	-1.026995	-0.190553
C60	C	0.130493	-0.526995	0.309447
C61	C	-0.317300	-1.027002	-0.190575
C62	C	0.182700	-0.527002	0.309425
N63	N	-0.291182	-1.089604	-0.128004
N64	N	0.208818	-0.589604	0.371996
C65	C	-0.317283	-1.152213	-0.065432
C66	C	0.182717	-0.652213	0.434568
C67	C	-0.792489	-1.027049	-0.190540
C68	C	-0.292489	-0.527049	0.309460
C69	C	-0.844708	-1.027056	-0.190539
C70	C	-0.344708	-0.527056	0.309461
C71	C	-0.844691	-1.152273	-0.065392
C72	C	-0.344691	-0.652273	0.434608
C73	C	-0.792471	-1.152269	-0.065398
C74	C	-0.292471	-0.652269	0.434602
C75	C	-0.766371	-1.089651	-0.127969
C76	C	-0.266371	-0.589651	0.372031
C77	C	-0.207625	-1.152203	-0.065453
C78	C	0.292375	-0.652203	0.434547
C79	C	-0.155405	-1.152197	-0.065468
C80	C	0.344595	-0.652197	0.434532
C81	C	-0.155426	-1.026978	-0.190612
C82	C	0.344574	-0.526978	0.309388
C83	C	-0.207642	-1.026986	-0.190600
C84	C	0.292358	-0.526986	0.309400
C85	C	-0.233741	-1.089602	-0.128013
C86	C	0.266259	-0.589602	0.371987
O87	O	-0.290259	-0.973804	-0.243780
O88	O	0.209741	-0.473804	0.256220
O89	O	-0.290267	-1.205443	-0.012212
O90	O	0.209733	-0.705443	0.487788
C91	C	-0.526151	-1.152228	-0.065408
C92	C	-0.026151	-0.652228	0.434592
C93	C	-0.552266	-1.089622	-0.127973
C94	C	-0.052266	-0.589622	0.372027
C95	C	-0.526165	-1.027013	-0.190545
C96	C	-0.026165	-0.527013	0.309455
C97	C	-0.604485	-1.089629	-0.127972
C98	C	-0.104485	-0.589629	0.372028
C99	C	-0.630587	-1.152238	-0.065400
C100	C	-0.130587	-0.652238	0.434600
C101	C	-0.604469	-1.214840	-0.002829
C102	C	-0.104469	-0.714840	0.497171
C103	C	-0.552252	-1.214837	-0.002836
C104	C	-0.052252	-0.714837	0.497164
C105	C	-0.552283	-0.964411	-0.253116
C106	C	-0.052283	-0.464411	0.246884
C107	C	-0.604499	-0.964420	-0.253104
C108	C	-0.104499	-0.464420	0.246896
C109	C	-0.630601	-1.027029	-0.190532
C110	C	-0.130601	-0.527029	0.309468
N111	N	0.129191	-1.089665	-0.127967
N112	N	0.629191	-0.589665	0.372033
C113	C	-0.000065	-1.258221	-0.121553
C114	C	0.499935	-0.758221	0.378447
C115	C	-0.000067	-1.360602	-0.123541
C116	C	0.499933	-0.860602	0.376459
C117	C	-0.000064	-0.443748	-0.125154
C118	C	0.499936	0.056252	0.374846
C119	C	-0.000057	-0.548056	-0.127187
C120	C	0.499943	-0.048056	0.372813
C121	C	-0.000052	-0.631192	-0.128814
C122	C	0.499948	-0.131192	0.371186
C123	C	-0.000046	-0.735507	-0.130847
C124	C	0.499954	-0.235507	0.369153
C125	C	-0.000050	-1.083168	-0.296606
C126	C	0.499950	-0.583168	0.203394
C127	C	-0.000047	-1.085156	-0.398987
C128	C	0.499953	-0.585156	0.101013
C129	C	-0.000048	-1.086770	0.517868
C130	C	0.499952	-0.586770	1.017868
C131	C	-0.000052	-1.088803	0.413560
C132	C	0.499948	-0.588803	0.913560
C133	C	-0.000055	-1.090430	0.330423
C134	C	0.499945	-0.590430	0.830423
C135	C	-0.000058	-1.092463	0.226109
C136	C	0.499942	-0.592463	0.726109
H137	H	-0.134143	-1.203186	-0.014517
H138	H	0.365857	-0.703186	0.485483
H139	H	-0.469101	-0.913400	-0.304075
H140	H	0.030899	-0.413400	0.195925
Br141	Br	-0.757035	-1.237245	0.019520
Br142	Br	-0.257035	-0.737245	0.519520
H143	H	-0.374374	-0.913388	-0.304073
H144	H	0.125626	-0.413388	0.195927
Br145	Br	-0.119994	-0.942014	-0.275531
Br146	Br	0.380006	-0.442014	0.224469
Br147	Br	-0.483234	-1.299810	0.082080
Br148	Br	0.016766	-0.799810	0.582080
Br149	Br	-0.880125	-1.237241	0.019526
Br150	Br	-0.380125	-0.737241	0.519526
H151	H	-0.865967	-0.976082	-0.241498
H152	H	-0.365967	-0.476082	0.258502
H153	H	-0.228905	-0.976011	-0.241558
H154	H	0.271095	-0.476011	0.258442
H155	H	-0.771242	-0.976056	-0.241495
H156	H	-0.271242	-0.476056	0.258505
H157	H	-0.530993	-1.265821	0.048113
H158	H	-0.030993	-0.765821	0.548113
H159	H	-0.625729	-1.265822	0.048117
H160	H	-0.125729	-0.765822	0.548117
Br161	Br	-0.639936	-0.879444	-0.338032
Br162	Br	-0.139936	-0.379444	0.161968
H163	H	-0.228869	-1.203189	-0.014487
H164	H	0.271131	-0.703189	0.485513
Br165	Br	-0.360167	-1.299800	0.082063
Br166	Br	0.139833	-0.799800	0.582063
Br167	Br	-0.516867	-0.879434	-0.338042
Br168	Br	-0.016867	-0.379434	0.161958
