data_functionalizedCrystal
_audit_creation_method	'MofGen! by Chris Wilmer'
_symmetry_space_group_name_H-M	'P1'
_symmetry_Int_Tables_number	1
_symmetry_cell_setting	triclinic
loop_
_symmetry_equiv_pos_as_xyz
  x,y,z
_cell_length_a	10.489741
_cell_length_b	10.540539
_cell_length_c	9.016244
_cell_angle_alpha	89.996282
_cell_angle_beta	90.001977
_cell_angle_gamma	84.532333
loop_
_atom_site_label
_atom_site_type_symbol
_atom_site_fract_x
_atom_site_fract_y
_atom_site_fract_z
O1	O	-1.694034	-0.179091	-0.123241
O2	O	-1.322836	-0.195902	-0.123263
O3	O	-1.516903	-0.002791	-0.123250
O4	O	-1.499966	-0.372202	-0.123254
O5	O	-1.516884	-0.002809	0.123431
O6	O	-1.322816	-0.195920	0.123417
O7	O	-1.694014	-0.179108	0.123440
Cu8	Cu	-1.508413	-0.187516	0.145953
Cu9	Cu	-1.508437	-0.187495	-0.145776
O10	O	-1.499946	-0.372220	0.123426
C11	C	-1.515623	0.044503	0.000088
C12	C	-1.511823	0.185452	0.000080
C13	C	-1.275294	-0.194641	0.000074
C14	C	-1.133665	-0.190843	0.000065
C15	C	-1.741555	-0.180369	0.000099
C16	C	-1.883184	-0.184168	0.000098
C17	C	-1.065540	-0.067972	0.000081
C18	C	-0.973416	-0.126006	-0.121543
C19	C	-0.973430	-0.126052	0.121665
C20	C	-1.043407	-0.248928	-0.121659
C21	C	-1.043431	-0.248957	0.121658
C22	C	-0.951334	-0.307081	0.000004
C23	C	-1.501226	-0.419514	0.000085
C24	C	-1.505026	-0.560463	0.000084
N25	N	-1.508406	-0.187529	0.351139
C26	C	-1.366206	0.368896	-0.000483
C27	C	-1.370058	0.222277	0.000073
C28	C	-1.580035	0.247091	0.140951
C29	C	-1.575197	0.393636	0.141069
C30	C	-1.578103	0.394174	-0.139453
C31	C	-1.579409	0.247192	-0.141315
C32	C	-1.404546	-0.290817	0.414102
C33	C	-1.404188	-0.290524	0.585993
C34	C	-1.478703	-0.054616	0.586613
C35	C	-1.477939	-0.055241	0.414669
C36	C	-1.642311	-0.215925	0.414483
C37	C	-1.641459	-0.218906	0.586440
N38	N	-1.508435	-0.187495	0.649038
H39	H	-1.115242	0.033036	-0.000070
H40	H	-1.304845	-0.272190	0.627149
C41	C	-1.720673	0.216850	0.148059
N42	N	-1.826598	0.194061	0.153417
C43	C	-1.085366	-0.319139	0.260578
N44	N	-1.116957	-0.371990	0.365224
C45	C	-1.750854	-0.124025	0.644403
N46	N	-1.833248	-0.052549	0.688059
C47	C	-1.716432	0.457965	-0.140732
N48	N	-1.820616	0.506021	-0.141685
C49	C	-1.297021	0.165861	0.136718
N50	N	-1.242009	0.123369	0.239647
C51	C	-1.515994	0.189550	0.282568
N52	N	-1.467749	0.146213	0.389232
H53	H	-1.421996	-0.389240	0.628202
C54	C	-1.516125	0.436812	-0.283697
N55	N	-1.469429	0.468924	-0.392334
H56	H	-0.942450	-0.074048	0.224489
H57	H	-0.942416	-0.074009	-0.224368
C58	C	-1.746739	-0.114202	0.359456
N59	N	-1.825386	-0.037583	0.317999
C60	C	-1.297537	0.164736	-0.136343
N61	N	-1.242904	0.121401	-0.239092
C62	C	-1.719047	0.214465	-0.152795
N63	N	-1.824230	0.189820	-0.161427
H64	H	-1.305752	-0.272745	0.370917
H65	H	-1.310213	0.397510	-0.101504
C66	C	-1.290861	0.409664	0.135250
N67	N	-1.234121	0.440360	0.237497
C68	C	-1.345980	-0.021804	0.360514
N69	N	-1.246584	0.003377	0.319731
H70	H	-1.074237	-0.300869	-0.224599
H71	H	-1.422062	-0.389869	0.372771
H72	H	-0.901898	-0.408195	-0.000063
H73	H	-1.524768	0.421835	0.246367
H74	H	-1.677152	0.441592	0.147466
H75	H	-1.529499	0.206347	-0.245528
H76	H	-1.550675	0.024018	0.373014
H77	H	-1.552321	0.024176	0.627445
C78	C	-1.348257	-0.020401	0.644804
N79	N	-1.250001	0.005362	0.688629
H80	H	-1.670703	-0.310853	0.371132
H81	H	-1.663993	-0.316675	0.627217
