data_functionalizedCrystal
_audit_creation_method	'MofGen! by Chris Wilmer'
_symmetry_space_group_name_H-M	'P1'
_symmetry_Int_Tables_number	1
_symmetry_cell_setting	triclinic
loop_
_symmetry_equiv_pos_as_xyz
  x,y,z
_cell_length_a	6.817900
_cell_length_b	9.514063
_cell_length_c	9.108908
_cell_angle_alpha	93.165670
_cell_angle_beta	111.764889
_cell_angle_gamma	118.843314
loop_
_atom_site_label
_atom_site_type_symbol
_atom_site_fract_x
_atom_site_fract_y
_atom_site_fract_z
V1	V	-4.263605	-0.292445	-0.509562
V2	V	-3.763605	0.207555	-0.009562
O3	O	-4.159044	-0.058042	-0.498538
O4	O	-3.659044	0.441958	0.001462
O5	O	-4.297719	-0.510532	-0.507351
O6	O	-3.797719	-0.010532	-0.007351
O7	O	-4.280077	-0.319581	-0.731219
O8	O	-3.780077	0.180419	-0.231219
O9	O	-4.176808	-0.250314	-0.273120
O10	O	-3.676808	0.249686	0.226880
V11	V	-4.728135	-0.260670	-0.481127
V12	V	-4.228135	0.239330	0.018873
O13	O	-4.566526	-0.362147	-0.571937
O14	O	-4.066526	0.137853	-0.071937
O15	O	-4.875411	-0.190969	-0.418752
O16	O	-4.375411	0.309031	0.081248
O17	O	-4.470814	-0.042584	-0.483338
O18	O	-3.970814	0.457416	0.016662
O19	O	-4.950092	-0.495074	-0.492152
O20	O	-4.450092	0.004926	0.007848
O21	O	-4.932328	-0.302801	-0.717569
O22	O	-4.432328	0.197199	-0.217569
O23	O	-4.488456	-0.233534	-0.259471
O24	O	-3.988456	0.266466	0.240529
C25	C	-4.160695	-0.562708	-0.499641
C26	C	-3.660695	-0.062708	0.000359
C27	C	-4.270306	-0.741200	-0.499311
C28	C	-3.770306	-0.241200	0.000689
C29	C	-4.138188	-0.319129	-0.785205
C30	C	-3.638188	0.180871	-0.285205
C31	C	-4.233485	-0.342759	-0.966419
C32	C	-3.733485	0.157241	-0.466419
C33	C	-4.271182	0.009584	-0.491044
C34	C	-3.771182	0.509584	0.008956
C35	C	-4.140812	0.188073	-0.491385
C36	C	-3.640812	0.688073	0.008615
C37	C	-4.293687	-0.233990	-0.205476
C38	C	-3.793687	0.266010	0.294524
C39	C	-4.177624	-0.210352	-0.024261
C40	C	-3.677624	0.289648	0.475739
H41	H	-4.465016	-0.817193	-0.505823
H42	H	-3.965016	-0.317193	-0.005823
H43	H	-4.354211	-0.474198	-1.055539
H44	H	-3.854211	0.025802	-0.555539
H45	H	-3.946074	-0.735918	-0.484848
H46	H	-3.446074	-0.235918	0.015152
H47	H	-4.056879	-0.078921	-0.935148
H48	H	-3.556879	0.421079	-0.435148
