data_functionalizedCrystal
_audit_creation_method	'MofGen! by Chris Wilmer'
_symmetry_space_group_name_H-M	'P1'
_symmetry_Int_Tables_number	1
_symmetry_cell_setting	triclinic
loop_
_symmetry_equiv_pos_as_xyz
  x,y,z
_cell_length_a	9.065218
_cell_length_b	16.956984
_cell_length_c	7.540329
_cell_angle_alpha	89.996050
_cell_angle_beta	89.996962
_cell_angle_gamma	80.534652
loop_
_atom_site_label
_atom_site_type_symbol
_atom_site_fract_x
_atom_site_fract_y
_atom_site_fract_z
O1	O	1.943261	0.116816	-0.147488
O2	O	1.512570	0.126398	-0.147491
O3	O	1.753791	0.005715	-0.147477
O4	O	1.702040	0.237499	-0.147502
O5	O	1.753778	0.005714	0.147488
O6	O	1.512557	0.126397	0.147474
O7	O	1.943248	0.116815	0.147477
Cu8	Cu	1.727901	0.121606	0.174408
Cu9	Cu	1.727917	0.121608	-0.174422
O10	O	1.702027	0.237498	0.147463
C11	C	1.457712	0.125477	-0.000008
C12	C	1.294273	0.122723	-0.000009
C13	C	1.756434	-0.023974	0.000005
C14	C	1.764313	-0.112438	0.000004
C15	C	1.632584	-0.145474	-0.000005
C16	C	1.639996	-0.228595	-0.000000
C17	C	1.779137	-0.278680	0.000000
C18	C	1.910876	-0.245639	0.000014
C19	C	1.903463	-0.162519	0.000022
C20	C	1.815831	-0.528188	-0.000011
C21	C	1.823234	-0.611313	-0.000024
C22	C	1.552353	-0.594263	-0.000036
C23	C	1.544952	-0.511142	-0.000038
C24	C	1.676690	-0.478109	-0.000015
N25	N	1.786716	-0.363644	-0.000000
N26	N	1.669110	-0.393146	-0.000002
C27	C	1.998106	0.117737	-0.000009
C28	C	2.161545	0.120490	-0.000020
C29	C	1.699384	0.267188	-0.000023
C30	C	1.691505	0.355651	-0.000033
N31	N	1.727901	0.121604	0.419757
N32	N	1.727929	0.121603	-0.419771
H33	H	1.519280	-0.104700	-0.000014
H34	H	1.532728	-0.255489	-0.000020
H35	H	1.431648	-0.470368	-0.000044
H36	H	1.445099	-0.621169	-0.000051
H37	H	2.010730	-0.135623	0.000032
H38	H	1.936545	-0.652091	-0.000035
C39	C	1.960744	-0.491862	-0.000020
C40	C	2.073507	-0.510338	0.153129
C41	C	2.218431	-0.474011	0.153110
C42	C	2.250592	-0.419209	-0.000059
C43	C	2.137826	-0.400730	-0.153220
C44	C	1.992902	-0.437057	-0.153200
H45	H	2.049703	-0.550908	0.266525
H46	H	2.301908	-0.487690	0.266491
H47	H	2.357874	-0.392318	-0.000073
H48	H	2.161631	-0.360160	-0.266615
H49	H	1.909426	-0.423378	-0.266581
H50	H	2.024168	-0.286425	0.000026
