data_functionalizedCrystal
_audit_creation_method	'MofGen! by Chris Wilmer'
_symmetry_space_group_name_H-M	'P1'
_symmetry_Int_Tables_number	1
_symmetry_cell_setting	triclinic
loop_
_symmetry_equiv_pos_as_xyz
  x,y,z
_cell_length_a	15.944493
_cell_length_b	15.944493
_cell_length_c	9.198806
_cell_angle_alpha	90.002690
_cell_angle_beta	89.996623
_cell_angle_gamma	83.475044
loop_
_atom_site_label
_atom_site_type_symbol
_atom_site_fract_x
_atom_site_fract_y
_atom_site_fract_z
O1	O	1.114532	0.108101	-0.120854
O2	O	0.869972	0.121509	-0.120859
O3	O	0.998956	-0.007475	-0.120868
O4	O	0.985548	0.237084	-0.120844
O5	O	0.998946	-0.007475	0.120917
O6	O	0.869962	0.121508	0.120926
O7	O	1.114521	0.108101	0.120931
Cu8	Cu	0.992241	0.114805	0.143006
Cu9	Cu	0.992253	0.114805	-0.142933
O10	O	0.985538	0.237084	0.120941
C11	C	0.838673	0.120961	0.000033
C12	C	0.745424	0.119318	0.000030
C13	C	0.998403	-0.038769	0.000018
C14	C	0.996760	-0.132018	-0.000001
C15	C	0.509649	0.195240	0.000036
C16	C	0.459094	0.154298	0.119251
C17	C	0.574704	0.116273	0.000033
C18	C	0.459108	0.154280	-0.119130
C19	C	0.409795	0.113339	0.000029
C20	C	0.525377	0.075353	0.119346
C21	C	0.525395	0.075346	-0.119142
C22	C	0.474873	0.034346	0.000102
C23	C	0.669704	0.117966	0.000036
C24	C	0.314798	0.111640	0.000036
C25	C	1.072682	-0.367793	0.000029
C26	C	1.031745	-0.418353	-0.119184
C27	C	0.993716	-0.302738	0.000017
C28	C	1.031717	-0.418329	0.119197
C29	C	0.990781	-0.467647	0.000041
C30	C	0.952800	-0.352069	-0.119294
C31	C	0.952783	-0.352042	0.119194
C32	C	0.911788	-0.402569	-0.000047
C33	C	0.995408	-0.207739	0.000002
C34	C	0.989082	-0.562644	0.000045
C35	C	1.145821	0.108649	0.000036
C36	C	1.239069	0.110292	0.000030
C37	C	0.986091	0.268379	0.000051
C38	C	0.987734	0.361627	0.000060
N39	N	0.992238	0.114804	0.344120
N40	N	0.992262	0.114799	-0.344047
C41	C	1.046397	0.060411	0.416313
C42	C	1.046410	0.060408	0.583725
H43	H	0.525258	0.263261	0.000155
C44	C	0.819831	-0.423456	-0.000137
C45	C	0.801168	-0.516117	0.001040
C46	C	0.709213	-0.537007	0.000939
C47	C	0.635921	-0.465236	-0.000340
C48	C	0.654582	-0.372569	-0.001517
C49	C	0.746536	-0.351679	-0.001416
H50	H	0.855425	-0.569251	0.001987
H51	H	0.695400	-0.605606	0.001811
H52	H	0.567851	-0.480701	-0.000415
H53	H	0.600324	-0.319435	-0.002464
H54	H	0.760350	-0.283080	-0.002288
H55	H	0.919474	-0.323242	-0.220187
C56	C	0.420015	0.199345	-0.255276
C57	C	0.371163	0.150626	-0.365268
C58	C	0.332072	0.195699	-0.501405
C59	C	0.341832	0.289491	-0.527550
C60	C	0.390686	0.338215	-0.417555
C61	C	0.429777	0.293143	-0.281418
H62	H	0.363936	0.081191	-0.345916
H63	H	0.295907	0.159630	-0.582830
H64	H	0.312894	0.322856	-0.628327
H65	H	0.397912	0.407650	-0.436907
H66	H	0.465942	0.329212	-0.199993
H67	H	0.554353	0.042022	-0.219940
H68	H	0.459422	-0.033727	0.000164
H69	H	1.140702	-0.352179	-0.000090
H70	H	1.065098	-0.447305	-0.219970
H71	H	0.945895	0.161373	0.593879
H72	H	0.919459	-0.323075	0.219983
C73	C	0.564315	0.030335	0.255651
C74	C	0.613736	0.078884	0.365043
C75	C	0.652674	0.033870	0.501349
C76	C	0.642190	-0.059691	0.528262
C77	C	0.592767	-0.108245	0.418867
C78	C	0.553829	-0.063232	0.282562
H79	H	0.621499	0.148149	0.345123
H80	H	0.689261	0.069814	0.582330
H81	H	0.671015	-0.093013	0.629164
H82	H	0.585004	-0.177510	0.438788
H83	H	0.517242	-0.099175	0.201581
C84	C	1.076776	-0.457416	0.255354
C85	C	1.170567	-0.447653	0.281508
C86	C	1.215633	-0.486737	0.417657
C87	C	1.166909	-0.535583	0.527651
C88	C	1.073113	-0.545348	0.501500
C89	C	1.028047	-0.506264	0.365352
H90	H	1.206640	-0.411492	0.200081
H91	H	1.285067	-0.479509	0.437015
H92	H	1.200269	-0.564516	0.628437
H93	H	1.037040	-0.581509	0.582928
H94	H	0.958613	-0.513493	0.345994
H95	H	1.092752	0.013841	0.354183
C96	C	0.929608	0.177715	0.428041
C97	C	0.962671	0.241798	0.532712
C98	C	0.900039	0.304712	0.616630
C99	C	0.804344	0.303543	0.595876
C100	C	0.771276	0.239458	0.491200
C101	C	0.833908	0.176544	0.407282
H102	H	1.033515	0.242666	0.548080
H103	H	0.924518	0.352152	0.694118
H104	H	0.757980	0.350115	0.657996
H105	H	0.700433	0.238590	0.475832
H106	H	0.809429	0.129104	0.329794
H107	H	0.430145	0.187647	0.220044
H108	H	1.092780	0.013842	0.645808
