data_functionalizedCrystal
_audit_creation_method	'MofGen! by Chris Wilmer'
_symmetry_space_group_name_H-M	'P1'
_symmetry_Int_Tables_number	1
_symmetry_cell_setting	triclinic
loop_
_symmetry_equiv_pos_as_xyz
  x,y,z
_cell_length_a	10.489741
_cell_length_b	10.489741
_cell_length_c	7.540329
_cell_angle_alpha	89.996684
_cell_angle_beta	89.999730
_cell_angle_gamma	84.539174
loop_
_atom_site_label
_atom_site_type_symbol
_atom_site_fract_x
_atom_site_fract_y
_atom_site_fract_z
O1	O	1.694051	0.179966	-0.147372
O2	O	1.322855	0.196859	-0.147399
O3	O	1.516900	0.002815	-0.147374
O4	O	1.500007	0.374010	-0.147397
O5	O	1.516888	0.002812	0.147591
O6	O	1.322844	0.196856	0.147566
O7	O	1.694039	0.179964	0.147593
Cu8	Cu	1.508440	0.188410	0.174512
Cu9	Cu	1.508454	0.188413	-0.174318
O10	O	1.499995	0.374008	0.147568
C11	C	1.275318	0.195582	0.000080
C12	C	1.133688	0.191765	0.000070
C13	C	1.065548	0.068300	0.000094
C14	C	0.973427	0.126625	-0.145339
C15	C	0.973450	0.126652	0.145473
C16	C	1.043433	0.250140	-0.145484
C17	C	1.043465	0.250150	0.145460
C18	C	0.951371	0.308564	-0.000009
C19	C	1.515618	-0.044718	0.000107
C20	C	1.511801	-0.186348	0.000104
C21	C	1.388336	-0.254488	0.000082
C22	C	1.446654	-0.346612	0.145519
C23	C	1.446695	-0.346584	-0.145294
C24	C	1.570169	-0.276606	0.145661
C25	C	1.570193	-0.276569	-0.145282
C26	C	1.628600	-0.368665	0.000191
C27	C	1.741577	0.181241	0.000110
C28	C	1.883206	0.185058	0.000109
C29	C	1.501277	0.421541	0.000083
C30	C	1.505094	0.563170	0.000075
N31	N	1.508440	0.188407	0.419861
N32	N	1.508465	0.188405	-0.419667
H33	H	0.901947	0.410168	-0.000094
Cl34	Cl	1.650789	-0.228631	-0.335117
Cl35	Cl	1.091028	0.330733	-0.335531
H36	H	1.074506	0.302347	0.268414
H37	H	0.942467	0.074388	0.268426
Cl38	Cl	1.231612	-0.177830	0.000284
Cl39	Cl	1.650751	-0.229014	0.335709
H40	H	1.394443	-0.377547	-0.268261
Cl41	Cl	1.365995	-0.394494	0.335344
H42	H	0.942418	0.074385	-0.268288
Cl43	Cl	1.142208	-0.088424	-0.000115
Cl44	Cl	1.785465	-0.444978	0.000320
