data_functionalizedCrystal
_audit_creation_method	'MofGen! by Chris Wilmer'
_symmetry_space_group_name_H-M	'P1'
_symmetry_Int_Tables_number	1
_symmetry_cell_setting	triclinic
loop_
_symmetry_equiv_pos_as_xyz
  x,y,z
_cell_length_a	8.634740
_cell_length_b	8.559649
_cell_length_c	16.176319
_cell_angle_alpha	89.994559
_cell_angle_beta	89.993587
_cell_angle_gamma	85.174486
loop_
_atom_site_label
_atom_site_type_symbol
_atom_site_fract_x
_atom_site_fract_y
_atom_site_fract_z
O1	O	1.985476	0.511635	-0.068736
O2	O	1.541605	0.468733	-0.068739
O3	O	1.802646	0.263603	-0.068736
O4	O	1.724435	0.716766	-0.068738
O5	O	1.802616	0.263582	0.068757
O6	O	1.541575	0.468713	0.068755
O7	O	1.985446	0.511615	0.068757
Cu8	Cu	1.763508	0.490162	0.081310
Cu9	Cu	1.763544	0.490186	-0.081291
O10	O	1.724405	0.716745	0.068755
C11	C	1.485291	0.459004	0.000008
C12	C	1.317539	0.430026	0.000007
C13	C	1.808558	0.204975	0.000009
C14	C	1.826201	0.030311	0.000004
C15	C	2.041761	0.521344	0.000009
C16	C	2.209512	0.550322	0.000005
C17	C	1.718493	0.775373	0.000008
C18	C	1.700851	0.950037	0.000007
N19	N	1.763494	0.490146	0.195675
N20	N	1.763571	0.490192	-0.195657
C21	C	1.879109	0.399362	0.238941
C22	C	1.879117	0.399362	0.325488
C23	C	1.763515	0.490154	0.368768
C24	C	1.647888	0.580941	0.325497
C25	C	1.647875	0.580932	0.238951
C26	C	1.647937	0.580979	0.674525
C27	C	1.647961	0.580984	0.761076
C28	C	1.879178	0.399409	0.761061
C29	C	1.879165	0.399399	0.674516
C30	C	1.763535	0.490179	0.631252
C31	C	1.763526	0.490176	0.537408
C32	C	1.763529	0.490167	0.462611
H33	H	1.947023	-0.034594	0.000012
H34	H	1.973251	0.325436	0.203708
O35	O	1.991593	0.311159	0.367387
C36	C	2.093613	0.231009	0.310629
H37	H	2.087669	0.295601	0.248930
H38	H	2.217381	0.225795	0.335618
H39	H	2.058286	0.106822	0.301442
H40	H	1.973303	0.325474	0.639280
H41	H	1.245366	0.675491	0.000010
O42	O	1.991452	0.310979	0.803000
C43	C	1.985212	0.151828	0.781876
H44	H	1.926816	0.143001	0.719044
H45	H	2.108188	0.092138	0.778908
H46	H	1.915592	0.091650	0.830594
O47	O	1.274863	0.280677	0.000151
C48	C	1.334584	0.201956	0.071349
H49	H	1.357551	0.291411	0.121122
H50	H	1.246679	0.120582	0.095250
H51	H	1.447811	0.130221	0.055249
H52	H	1.580036	0.014934	0.000009
O53	O	1.535497	0.669211	0.802992
C54	C	1.433453	0.749360	0.746250
H55	H	1.439355	0.684756	0.684560
H56	H	1.309698	0.754592	0.771273
H57	H	1.468788	0.873541	0.737032
H58	H	1.553789	0.654898	0.639306
O59	O	1.535744	0.669101	0.367665
C60	C	1.560525	0.649619	0.453330
H61	H	1.687863	0.609579	0.465140
H62	H	1.529604	0.765860	0.486214
H63	H	1.484147	0.557668	0.477908
H64	H	1.553729	0.654855	0.203725
