data_functionalizedCrystal
_audit_creation_method	'MofGen! by Chris Wilmer'
_symmetry_space_group_name_H-M	'P1'
_symmetry_Int_Tables_number	1
_symmetry_cell_setting	triclinic
loop_
_symmetry_equiv_pos_as_xyz
  x,y,z
_cell_length_a	17.077404
_cell_length_b	18.050589
_cell_length_c	17.077396
_cell_angle_alpha	90.024441
_cell_angle_beta	89.981638
_cell_angle_gamma	89.967332
loop_
_atom_site_label
_atom_site_type_symbol
_atom_site_fract_x
_atom_site_fract_y
_atom_site_fract_z
Zn1	Zn	1.199990	0.295700	-0.443841
Zn2	Zn	1.699990	0.795700	0.056159
Zn3	Zn	1.199870	0.419897	-0.312584
Zn4	Zn	1.699870	0.919897	0.187416
Zn5	Zn	1.068722	0.295721	-0.312591
Zn6	Zn	1.568722	0.795721	0.187409
Zn7	Zn	1.068663	0.419848	-0.443810
Zn8	Zn	1.568663	0.919848	0.056190
O9	O	1.134311	0.357791	-0.378207
O10	O	1.634311	0.857791	0.121793
O11	O	1.309821	0.312186	-0.426439
O12	O	1.809821	0.812186	0.073561
O13	O	1.182448	0.403454	-0.202738
O14	O	1.682448	0.903454	0.297262
O15	O	1.086210	0.191793	-0.330018
O16	O	1.586210	0.691793	0.169982
O17	O	1.309733	0.403434	-0.330005
O18	O	1.809733	0.903434	0.169995
O19	O	1.182652	0.191778	-0.426446
O20	O	1.682652	0.691778	0.073554
O21	O	1.086094	0.312222	-0.202743
O22	O	1.586094	0.812222	0.297257
O23	O	0.958867	0.312175	-0.329988
O24	O	1.458867	0.812175	0.170012
O25	O	1.086109	0.403350	-0.553661
O26	O	1.586109	0.903350	-0.053661
O27	O	0.958824	0.403371	-0.426394
O28	O	1.458824	0.903371	0.073606
O29	O	1.182595	0.312139	-0.553684
O30	O	1.682595	0.812139	-0.053684
O31	O	1.182390	0.523815	-0.329976
O32	O	1.682390	1.023815	0.170024
O33	O	1.085993	0.523779	-0.426387
O34	O	1.585993	1.023779	0.073613
C35	C	0.930363	0.357770	-0.378189
C36	C	1.430363	0.857770	0.121811
C37	C	0.843114	0.357779	-0.378200
C38	C	1.343114	0.857779	0.121800
C39	C	0.802170	0.310351	-0.428490
C40	C	1.302170	0.810351	0.071510
C41	C	0.720190	0.310356	-0.428493
C42	C	1.220190	0.810356	0.071507
C43	C	0.679154	0.357793	-0.378211
C44	C	1.179154	0.857793	0.121789
C45	C	0.720104	0.405223	-0.327916
C46	C	1.220104	0.905223	0.172084
C47	C	0.802082	0.405214	-0.327909
C48	C	1.302082	0.905214	0.172091
C49	C	0.549233	0.405240	-0.327935
C50	C	1.049233	0.905240	0.172065
C51	C	0.467249	0.405250	-0.327943
C52	C	0.967249	0.905250	0.172057
C53	C	0.467341	0.310382	-0.428520
C54	C	0.967341	0.810382	0.071480
C55	C	0.549320	0.310373	-0.428513
C56	C	1.049320	0.810373	0.071487
C57	C	0.590263	0.357804	-0.378219
C58	C	1.090263	0.857804	0.121781
C59	C	1.134194	0.550744	-0.378194
C60	C	1.634194	1.050744	0.121806
C61	C	1.134215	0.633289	-0.378215
C62	C	1.634215	1.133289	0.121785
C63	C	1.081822	0.832747	-0.430626
C64	C	1.581822	1.332747	0.069374
C65	C	1.062681	0.882188	-0.358998
C66	C	1.562681	1.382188	0.141002
C67	C	1.134274	0.784420	-0.378226
C68	C	1.634274	1.284420	0.121774
C69	C	1.153436	0.882060	-0.449863
C70	C	1.653436	1.382060	0.050137
C71	C	1.134330	0.930405	-0.378243
C72	C	1.634330	1.430405	0.121757
C73	C	1.115095	0.832773	-0.306560
C74	C	1.615095	1.332773	0.193440
C75	C	1.205884	0.832641	-0.397474
C76	C	1.705884	1.332641	0.102526
C77	C	1.186770	0.882060	-0.325796
C78	C	1.686770	1.382060	0.174204
C79	C	1.134240	0.700321	-0.378218
C80	C	1.634240	1.200321	0.121782
C81	C	1.134364	1.014501	-0.378243
C82	C	1.634364	1.514501	0.121757
C83	C	1.339056	0.357813	-0.378225
C84	C	1.839056	0.857813	0.121775
C85	C	1.426305	0.357822	-0.378233
C86	C	1.926305	0.857822	0.121767
C87	C	1.134359	0.357737	-0.582951
C88	C	1.634359	0.857737	-0.082951
C89	C	1.134379	0.357713	-0.670201
C90	C	1.634379	0.857713	-0.170201
C91	C	1.134421	1.164086	-0.378237
C92	C	1.634421	1.664086	0.121763
C93	C	1.134391	1.081540	-0.378252
C94	C	1.634391	1.581540	0.121748
C95	C	1.184621	0.310216	-0.711204
C96	C	1.684621	0.810216	-0.211204
C97	C	1.184630	0.310191	-0.793184
C98	C	1.684630	0.810191	-0.293184
C99	C	1.134401	0.357668	-0.834160
C100	C	1.634401	0.857668	-0.334160
C101	C	1.084154	0.405168	-0.793152
C102	C	1.584154	0.905168	-0.293152
C103	C	1.084141	0.405188	-0.711173
C104	C	1.584141	0.905188	-0.211173
C105	C	1.084186	0.405123	-0.964022
C106	C	1.584186	0.905123	-0.464022
C107	C	1.084199	0.405104	-1.046006
C108	C	1.584199	0.905104	-0.546006
C109	C	1.184675	0.310126	-1.046034
C110	C	1.684675	0.810126	-0.546034
C111	C	1.184662	0.310146	-0.964055
C112	C	1.684662	0.810146	-0.464055
C113	C	1.134415	0.357647	-0.923051
C114	C	1.634415	0.857647	-0.423051
C115	C	1.134309	0.357792	-0.174259
C116	C	1.634309	0.857792	0.325741
C117	C	1.134441	0.357606	-0.087009
C118	C	1.634441	0.857606	0.412991
H119	H	0.582729	0.271750	-0.469462
H120	H	1.082729	0.771750	0.030538
C121	C	1.028914	0.457380	-0.918920
C122	C	1.528914	0.957380	-0.418920
N123	N	0.987288	0.496742	-0.884950
N124	N	1.487288	0.996742	-0.384950
C125	C	0.980901	0.911590	-0.337008
C126	C	1.480901	1.411590	0.162992
N127	N	0.919303	0.933733	-0.320450
N128	N	1.419303	1.433733	0.179550
C129	C	1.246725	0.911133	-0.265872
C130	C	1.746725	1.411133	0.234128
N131	N	1.291878	0.933034	-0.220736
N132	N	1.791878	1.433034	0.279264
H133	H	1.043254	0.443822	-0.826521
H134	H	1.543254	0.943822	-0.326521
C135	C	0.675156	0.258184	-0.483819
C136	C	1.175156	0.758184	0.016181
N137	N	0.641236	0.218885	-0.525492
N138	N	1.141236	0.718885	-0.025492
C139	C	1.239877	0.257985	-0.666138
C140	C	1.739877	0.757985	-0.166138
N141	N	1.281495	0.218641	-0.632197
N142	N	1.781495	0.718641	-0.132197
H143	H	1.098840	0.811213	-0.245967
H144	H	1.598840	1.311213	0.254033
C145	C	1.239946	0.257874	-1.091139
C146	C	1.739946	0.757874	-0.591139
N147	N	1.281577	0.218521	-1.125115
N148	N	1.781577	0.718521	-0.625115
H149	H	1.266402	0.810863	-0.413773
H150	H	1.766402	1.310863	0.086227
H151	H	0.835418	0.443834	-0.286957
H152	H	1.335418	0.943834	0.213043
C153	C	1.175303	0.911308	-0.531699
C154	C	1.675303	1.411308	-0.031699
N155	N	1.191768	0.933335	-0.593339
N156	N	1.691768	1.433335	-0.093339
C157	C	1.239902	0.257941	-0.838284
C158	C	1.739902	0.757941	-0.338284
N159	N	1.281535	0.218584	-0.872253
N160	N	1.781535	0.718584	-0.372253
C161	C	0.422111	0.457432	-0.272628
C162	C	0.922111	0.957432	0.227372
N163	N	0.388114	0.496736	-0.230964
N164	N	0.888114	0.996736	0.269036
C165	C	1.028940	0.457327	-1.091078
C166	C	1.528940	0.957327	-0.591078
N167	N	0.987317	0.496661	-1.125026
N168	N	1.487317	0.996661	-0.625026
C169	C	1.028873	0.457441	-0.666070
C170	C	1.528873	0.957441	-0.166070
N171	N	0.987241	0.496798	-0.632099
N172	N	1.487241	0.996798	-0.132099
H173	H	0.835575	0.271724	-0.469438
H174	H	1.335575	0.771724	0.030562
H175	H	1.225567	0.271490	-0.930694
H176	H	1.725567	0.771490	-0.430694
C177	C	0.674962	0.457403	-0.272603
C178	C	1.174962	0.957403	0.227397
N179	N	0.640961	0.496709	-0.230942
N180	N	1.140961	0.996709	0.269058
C181	C	0.422301	0.258210	-0.483847
C182	C	0.922301	0.758210	0.016153
N183	N	0.388374	0.218918	-0.525521
N184	N	0.888374	0.718918	-0.025521
H185	H	1.037407	0.811094	-0.474876
H186	H	1.537407	1.311094	0.025124
H187	H	0.582567	0.443862	-0.286978
H188	H	1.082567	0.943862	0.213022
