data_functionalizedCrystal
_audit_creation_method	'MofGen! by Chris Wilmer'
_symmetry_space_group_name_H-M	'P1'
_symmetry_Int_Tables_number	1
_symmetry_cell_setting	triclinic
loop_
_symmetry_equiv_pos_as_xyz
  x,y,z
_cell_length_a	13.032721
_cell_length_b	19.805407
_cell_length_c	19.805399
_cell_angle_alpha	90.026078
_cell_angle_beta	97.155902
_cell_angle_gamma	82.795889
loop_
_atom_site_label
_atom_site_type_symbol
_atom_site_fract_x
_atom_site_fract_y
_atom_site_fract_z
Zn1	Zn	-0.416105	-1.000532	-0.417060
Zn2	Zn	0.083895	-0.500532	0.082940
Zn3	Zn	-0.590864	-0.986081	-0.318245
Zn4	Zn	-0.090864	-0.486081	0.181755
Zn5	Zn	-0.416130	-0.887344	-0.303874
Zn6	Zn	0.083870	-0.387344	0.196126
Zn7	Zn	-0.590804	-0.872949	-0.431374
Zn8	Zn	-0.090804	-0.372949	0.068626
O9	O	-0.503476	-0.936727	-0.367638
O10	O	-0.003476	-0.436727	0.132362
O11	O	-0.439302	-1.093330	-0.403976
O12	O	0.060698	-0.593330	0.096024
O13	O	-0.567721	-0.972960	-0.221625
O14	O	-0.067721	-0.472960	0.278375
O15	O	-0.269887	-0.914431	-0.306883
O16	O	0.230113	-0.414431	0.193117
O17	O	-0.567697	-1.082713	-0.331377
O18	O	-0.067697	-0.582713	0.168623
O19	O	-0.269869	-0.997589	-0.390041
O20	O	0.230131	-0.497589	0.109959
O21	O	-0.439344	-0.900419	-0.211067
O22	O	0.060656	-0.400419	0.288933
O23	O	-0.439286	-0.790719	-0.320763
O24	O	0.060714	-0.290719	0.179237
O25	O	-0.567595	-0.889897	-0.524189
O26	O	-0.067595	-0.389897	-0.024189
O27	O	-0.567619	-0.780144	-0.414437
O28	O	-0.067619	-0.280144	0.085563
O29	O	-0.439244	-0.983631	-0.513673
O30	O	0.060756	-0.483631	-0.013673
O31	O	-0.737096	-0.959002	-0.345257
O32	O	-0.237096	-0.459002	0.154743
O33	O	-0.737052	-0.875885	-0.428372
O34	O	-0.237052	-0.375885	0.071628
C35	C	-0.503449	-0.760873	-0.367594
C36	C	-0.003449	-0.260873	0.132406
C37	C	-0.503463	-0.685640	-0.367594
C38	C	-0.003463	-0.185640	0.132406
C39	C	-0.774992	-0.914332	-0.389942
C40	C	-0.274992	-0.414332	0.110058
C41	C	-0.891148	-0.904813	-0.399506
C42	C	-0.391148	-0.404813	0.100494
C43	C	-0.570412	-0.218349	-0.416376
C44	C	-0.070412	0.281651	0.083624
C45	C	-0.570412	-0.289038	-0.416364
C46	C	-0.070412	0.210962	0.083636
C47	C	-0.503491	-0.329876	-0.367646
C48	C	-0.003491	0.170124	0.132354
C49	C	-0.436574	-0.300021	-0.318933
C50	C	0.063426	0.199979	0.181067
C51	C	-0.436580	-0.229334	-0.318943
C52	C	0.063420	0.270666	0.181057
C53	C	-0.436546	-0.585097	-0.318893
C54	C	0.063454	-0.085097	0.181107
C55	C	-0.436543	-0.655789	-0.318888
C56	C	0.063457	-0.155789	0.181112
C57	C	-0.570378	-0.644801	-0.416313
C58	C	-0.070378	-0.144801	0.083687
C59	C	-0.570385	-0.574113	-0.416323
C60	C	-0.070385	-0.074113	0.083677
C61	C	-0.503472	-0.544265	-0.367608
C62	C	-0.003472	-0.044265	0.132392
C63	C	-0.503475	-0.467616	-0.367621
C64	C	-0.003475	0.032384	0.132379
C65	C	-0.503482	-0.406523	-0.367636
C66	C	-0.003482	0.093477	0.132364
C67	C	-0.942921	-0.941730	-0.362677
C68	C	-0.442921	-0.441730	0.137323
C69	C	-1.062974	-0.931893	-0.372561
C70	C	-0.562974	-0.431893	0.127439
C71	C	-0.230900	-0.959227	-0.345262
C72	C	0.269100	-0.459227	0.154738
C73	C	-0.114744	-0.968816	-0.335727
C74	C	0.385256	-0.468816	0.164273
C75	C	-0.503410	-0.936770	-0.544176
C76	C	-0.003410	-0.436770	-0.044176
C77	C	-0.503382	-0.936788	-0.619405
C78	C	-0.003382	-0.436788	-0.119405
C79	C	-0.503499	-0.113267	-0.367674
C80	C	-0.003499	0.386733	0.132326
C81	C	-0.503498	-0.188499	-0.367668
C82	C	-0.003498	0.311501	0.132332
C83	C	-0.436546	-0.985597	-0.649274
C84	C	0.063454	-0.485597	-0.149274
C85	C	-0.436516	-0.985607	-0.719960
C86	C	0.063484	-0.485607	-0.219960
C87	C	-0.503327	-0.936810	-0.760777
C88	C	-0.003327	-0.436810	-0.260777
C89	C	-0.570166	-0.887996	-0.730903
C90	C	-0.070166	-0.387996	-0.230903
C91	C	-0.570190	-0.887984	-0.660218
C92	C	-0.070190	-0.387984	-0.160218
C93	C	-0.570069	-0.888042	-1.015968
C94	C	-0.070069	-0.388042	-0.515968
C95	C	-0.570041	-0.888059	-1.086658
C96	C	-0.070041	-0.388059	-0.586658
C97	C	-0.436394	-0.985665	-1.075711
C98	C	0.063606	-0.485665	-0.575711
C99	C	-0.436419	-0.985653	-1.005026
C100	C	0.063581	-0.485653	-0.505026
C101	C	-0.503253	-0.936837	-0.975158
C102	C	-0.003253	-0.436837	-0.475158
C103	C	-0.503284	-0.936827	-0.898512
C104	C	-0.003284	-0.436827	-0.398512
C105	C	-0.503303	-0.936823	-0.837422
C106	C	-0.003303	-0.436823	-0.337422
C107	C	-0.503466	-0.936729	-0.191781
C108	C	-0.003466	-0.436729	0.308219
C109	C	-0.503200	-0.936865	-0.116528
C110	C	-0.003200	-0.436865	0.383472
H111	H	-0.624902	-0.185104	-0.456050
H112	H	-0.124902	0.314896	0.043950
H113	H	-0.382144	-1.025335	-0.616047
H114	H	0.117856	-0.525335	-0.116047
H115	H	-1.107523	-0.893004	-0.411415
H116	H	-0.607523	-0.393004	0.088585
O117	O	-0.371595	-0.556197	-0.271472
O118	O	0.128405	-0.056197	0.228528
C119	C	-0.320704	-0.538734	-0.152195
C120	C	0.179296	-0.038734	0.347805
C121	C	-0.394314	-0.571504	-0.205839
C122	C	0.105686	-0.071504	0.294161
H123	H	-0.339060	-0.551086	-0.099119
H124	H	0.160940	-0.051086	0.400881
H125	H	-0.236446	-0.559609	-0.157188
H126	H	0.263554	-0.059609	0.342812
H127	H	-0.332158	-0.481198	-0.160573
H128	H	0.167842	0.018802	0.339427
H129	H	-0.382953	-0.629041	-0.197495
H130	H	0.117047	-0.129041	0.302505
H131	H	-0.478544	-0.550575	-0.200832
H132	H	0.021456	-0.050575	0.299168
O133	O	-0.889940	-0.988174	-0.316319
O134	O	-0.389940	-0.488174	0.183681
C135	C	-0.901189	-1.073145	-0.231422
C136	C	-0.401189	-0.573145	0.268578
C137	C	-0.961315	-1.020583	-0.283913
C138	C	-0.461315	-0.520583	0.216087
H139	H	-0.958869	-1.099351	-0.205198
H140	H	-0.458869	-0.599351	0.294802
H141	H	-0.850038	-1.112726	-0.258317
H142	H	-0.350038	-0.612726	0.241683
H143	H	-0.850134	-1.046229	-0.191856
H144	H	-0.350134	-0.546229	0.308144
H145	H	-1.012426	-1.047439	-0.323494
H146	H	-0.512426	-0.547439	0.176506
H147	H	-1.012399	-0.981005	-0.256971
H148	H	-0.512399	-0.481005	0.243029
H149	H	-0.382090	-0.333277	-0.279264
H150	H	0.117910	0.166723	0.220736
H151	H	-0.382089	-0.205032	-0.279282
H152	H	0.117911	0.294968	0.220718
O153	O	-0.944451	-0.858426	-0.445804
O154	O	-0.444451	-0.358426	0.054196
C155	C	-1.112706	-0.806378	-0.497919
C156	C	-0.612706	-0.306378	0.002081
C157	C	-1.052474	-0.858924	-0.445450
C158	C	-0.552474	-0.358924	0.054550
H159	H	-1.200052	-0.806773	-0.497660
H160	H	-0.700052	-0.306773	0.002340
H161	H	-1.091470	-0.753520	-0.484238
H162	H	-0.591470	-0.253520	0.015762
H163	H	-1.091175	-0.819976	-0.550741
H164	H	-0.591175	-0.319976	-0.050741
H165	H	-1.073972	-0.845390	-0.392610
H166	H	-0.573972	-0.345390	0.107390
H167	H	-1.073715	-0.911768	-0.459189
H168	H	-0.573715	-0.411768	0.040811
O169	O	-0.634898	-0.840660	-0.986848
O170	O	-0.134898	-0.340660	-0.486848
C171	C	-0.694227	-0.797402	-0.882813
C172	C	-0.194227	-0.297402	-0.382813
C173	C	-0.620732	-0.851093	-0.915704
C174	C	-0.120732	-0.351093	-0.415704
H175	H	-0.682815	-0.805827	-0.825290
H176	H	-0.182815	-0.305827	-0.325290
H177	H	-0.675865	-0.744327	-0.895139
H178	H	-0.175865	-0.244327	-0.395139
H179	H	-0.778477	-0.802332	-0.903673
H180	H	-0.278477	-0.302332	-0.403673
H181	H	-0.536458	-0.846226	-0.894863
H182	H	-0.036458	-0.346226	-0.394863
H183	H	-0.639184	-0.904146	-0.903382
H184	H	-0.139184	-0.404146	-0.403382
O185	O	-0.635445	-0.317926	-0.463746
O186	O	-0.135445	0.182074	0.036254
C187	C	-0.768238	-0.299564	-0.560359
C188	C	-0.268238	0.200436	-0.060359
C189	C	-0.694619	-0.266762	-0.506747
C190	C	-0.194619	0.233238	-0.006747
H191	H	-0.816114	-0.258211	-0.595131
H192	H	-0.316114	0.241789	-0.095131
H193	H	-0.720378	-0.336608	-0.591909
H194	H	-0.220378	0.163392	-0.091909
H195	H	-0.822775	-0.328159	-0.533692
H196	H	-0.322775	0.171841	-0.033692
H197	H	-0.640066	-0.238131	-0.533359
H198	H	-0.140066	0.261869	-0.033359
H199	H	-0.742543	-0.229755	-0.475200
H200	H	-0.242543	0.270245	0.024800
H201	H	-0.624875	-0.540866	-0.455996
H202	H	-0.124875	-0.040866	0.044004
O203	O	-0.371563	-1.033088	-0.748868
O204	O	0.128437	-0.533088	-0.248868
C205	C	-0.238967	-1.129882	-0.730547
C206	C	0.261033	-0.629882	-0.230547
C207	C	-0.312494	-1.076156	-0.697724
C208	C	0.187506	-0.576156	-0.197724
H209	H	-0.191175	-1.164708	-0.689211
H210	H	0.308825	-0.664708	-0.189211
H211	H	-0.286893	-1.161365	-0.767569
H212	H	0.213107	-0.661365	-0.267569
H213	H	-0.184346	-1.103313	-0.759165
H214	H	0.315654	-0.603313	-0.259165
H215	H	-0.367129	-1.102670	-0.669070
H216	H	0.132871	-0.602670	-0.169070
H217	H	-0.264503	-1.044677	-0.660740
H218	H	0.235497	-0.544677	-0.160740
O219	O	-1.061724	-1.015173	-0.289292
O220	O	-0.561724	-0.515173	0.210708
C221	C	-1.028148	-1.050803	-0.171446
C222	C	-0.528148	-0.550803	0.328554
C223	C	-1.088275	-0.998267	-0.223963
C224	C	-0.588275	-0.498267	0.276037
H225	H	-1.049575	-1.037145	-0.118614
H226	H	-0.549575	-0.537145	0.381386
H227	H	-1.049489	-1.103648	-0.185079
H228	H	-0.549489	-0.603648	0.314921
H229	H	-0.940798	-1.050484	-0.171766
H230	H	-0.440798	-0.550484	0.328234
H231	H	-1.175638	-0.998524	-0.223671
H232	H	-0.675638	-0.498524	0.276329
H233	H	-1.066847	-0.945447	-0.210311
H234	H	-0.566847	-0.445447	0.289689
H235	H	-0.624561	-0.848263	-0.764141
H236	H	-0.124561	-0.348263	-0.264141
H237	H	-0.624865	-0.669112	-0.455978
H238	H	-0.124865	-0.169112	0.044022
H239	H	-0.624449	-0.848320	-1.119889
H240	H	-0.124449	-0.348320	-0.619889
O241	O	-0.635226	-0.840549	-0.631314
O242	O	-0.135226	-0.340549	-0.131314
C243	C	-0.767769	-0.743725	-0.649626
C244	C	-0.267769	-0.243725	-0.149626
C245	C	-0.694182	-0.797415	-0.682447
C246	C	-0.194182	-0.297415	-0.182447
H247	H	-0.815438	-0.708828	-0.690951
H248	H	-0.315438	-0.208828	-0.190951
H249	H	-0.822493	-0.770254	-0.621057
H250	H	-0.322493	-0.270254	-0.121057
H251	H	-0.719791	-0.712315	-0.612561
H252	H	-0.219791	-0.212315	-0.112561
H253	H	-0.742075	-0.828841	-0.719543
H254	H	-0.242075	-0.328841	-0.219543
H255	H	-0.639454	-0.770844	-0.710974
H256	H	-0.139454	-0.270844	-0.210974
H257	H	-0.382043	-0.689039	-0.279215
H258	H	0.117957	-0.189039	0.220785
H259	H	-0.382017	-1.025390	-0.971797
H260	H	0.117983	-0.525390	-0.471797
O261	O	-0.371493	-1.033014	-1.104832
O262	O	0.128507	-0.533014	-0.604832
C263	C	-0.312254	-1.076319	-1.208876
C264	C	0.187746	-0.576319	-0.708876
C265	C	-0.385785	-1.022649	-1.175986
C266	C	0.114215	-0.522649	-0.675986
H267	H	-0.323799	-1.067966	-1.266410
H268	H	0.176201	-0.567966	-0.766410
H269	H	-0.227969	-1.071389	-1.188103
H270	H	0.272031	-0.571389	-0.688103
H271	H	-0.330611	-1.129371	-1.196462
H272	H	0.169389	-0.629371	-0.696462
H273	H	-0.367522	-0.969573	-1.188388
H274	H	0.132478	-0.469573	-0.688388
H275	H	-0.470048	-1.027639	-1.196761
H276	H	0.029952	-0.527639	-0.696761
