data_functionalizedCrystal
_audit_creation_method	'MofGen! by Chris Wilmer'
_symmetry_space_group_name_H-M	'P1'
_symmetry_Int_Tables_number	1
_symmetry_cell_setting	triclinic
loop_
_symmetry_equiv_pos_as_xyz
  x,y,z
_cell_length_a	27.731994
_cell_length_b	27.732064
_cell_length_c	26.809956
_cell_angle_alpha	90.008400
_cell_angle_beta	89.997334
_cell_angle_gamma	82.634978
loop_
_atom_site_label
_atom_site_type_symbol
_atom_site_fract_x
_atom_site_fract_y
_atom_site_fract_z
O1	O	0.640952	0.057385	-0.041404
O2	O	0.974285	0.390718	0.291929
O3	O	1.307618	0.724052	0.625262
O4	O	0.500155	0.066158	-0.041420
O5	O	0.833488	0.399491	0.291913
O6	O	1.166822	0.732824	0.625246
O7	O	0.574922	-0.008626	-0.041414
O8	O	0.908255	0.324708	0.291920
O9	O	1.241589	0.658041	0.625253
O10	O	0.566185	0.132168	-0.041411
O11	O	0.899518	0.465502	0.291922
O12	O	1.232851	0.798835	0.625256
O13	O	0.574908	-0.008614	0.041545
O14	O	0.908241	0.324719	0.374879
O15	O	1.241575	0.658052	0.708212
O16	O	0.500141	0.066169	0.041539
O17	O	0.833474	0.399502	0.374872
O18	O	1.166807	0.732836	0.708206
O19	O	0.640938	0.057396	0.041555
O20	O	0.974271	0.390730	0.374888
O21	O	1.307604	0.724063	0.708222
Zn22	Zn	0.570537	0.061785	0.054718
Zn23	Zn	0.903870	0.395118	0.388052
Zn24	Zn	1.237204	0.728451	0.721385
Zn25	Zn	0.570556	0.061770	-0.054584
Zn26	Zn	0.903889	0.395103	0.278749
Zn27	Zn	1.237222	0.728436	0.612083
O28	O	0.566171	0.132180	0.041548
O29	O	0.899504	0.465513	0.374882
O30	O	1.232837	0.798846	0.708215
C31	C	0.482140	0.065983	0.000057
C32	C	0.815474	0.399317	0.333391
C33	C	1.148807	0.732650	0.666724
C34	C	0.428484	0.065441	0.000051
C35	C	0.761817	0.398774	0.333384
C36	C	1.095151	0.732108	0.666718
C37	C	0.095758	0.062032	0.045291
C38	C	0.429091	0.395365	0.378624
C39	C	0.762424	0.728698	0.711958
C40	C	-0.105900	0.059970	0.045297
C41	C	0.227433	0.393303	0.378630
C42	C	0.560766	0.726637	0.711963
O43	O	-0.131980	0.059688	0.083755
O44	O	0.201354	0.393021	0.417089
O45	O	0.534687	0.726355	0.750422
N46	N	-0.131108	0.059708	0.000076
N47	N	0.202226	0.393041	0.333409
N48	N	0.535559	0.726374	0.666742
C49	C	-0.105897	0.059958	-0.045150
C50	C	0.227437	0.393291	0.288183
C51	C	0.560770	0.726624	0.621517
O52	O	-0.131963	0.059682	-0.083613
O53	O	0.201370	0.393016	0.249720
O54	O	0.534703	0.726349	0.583054
C55	C	0.095761	0.062016	-0.045155
C56	C	0.429094	0.395349	0.288178
C57	C	0.762428	0.728682	0.621512
C58	C	0.120965	0.062283	0.000069
C59	C	0.454298	0.395616	0.333402
C60	C	0.787632	0.728950	0.666736
C61	C	0.120962	0.062298	0.090511
C62	C	0.454295	0.395631	0.423845
C63	C	0.787628	0.728965	0.757178
C64	C	0.171373	0.062816	0.090510
C65	C	0.504706	0.396150	0.423843
C66	C	0.838040	0.729483	0.757176
C67	C	0.196580	0.063068	0.045287
C68	C	0.529913	0.396401	0.378621
C69	C	0.863247	0.729734	0.711954
C70	C	0.171376	0.062801	0.000067
C71	C	0.504709	0.396134	0.333400
C72	C	0.838043	0.729468	0.666734
C73	C	0.120972	0.062262	-0.090380
C74	C	0.454305	0.395596	0.242953
C75	C	0.787638	0.728929	0.576286
C76	C	0.171389	0.062776	-0.090377
C77	C	0.504723	0.396109	0.242956
C78	C	0.838056	0.729442	0.576289
C79	C	0.196593	0.063043	-0.045153
C80	C	0.529927	0.396376	0.288180
C81	C	0.863260	0.729709	0.621513
C82	C	0.246995	0.063570	-0.045157
C83	C	0.580328	0.396904	0.288176
C84	C	0.913661	0.730237	0.621510
N85	N	0.272202	0.063833	0.000064
N86	N	0.605535	0.397166	0.333397
N87	N	0.938868	0.730499	0.666731
C88	C	0.246994	0.063581	0.045286
C89	C	0.580328	0.396915	0.378620
C90	C	0.913661	0.730248	0.711953
C91	C	-0.211770	0.058878	-0.045144
C92	C	0.121563	0.392211	0.288189
C93	C	0.454897	0.725545	0.621523
C94	C	-0.262184	0.058364	-0.045143
C95	C	0.071149	0.391698	0.288190
C96	C	0.404482	0.725031	0.621524
C97	C	-0.262185	0.058376	0.045304
C98	C	0.071149	0.391709	0.378637
C99	C	0.404482	0.725042	0.711971
C100	C	-0.211770	0.058893	0.045302
C101	C	0.121563	0.392226	0.378636
C102	C	0.454897	0.725560	0.711969
C103	C	-0.186563	0.059140	0.000077
C104	C	0.146770	0.392474	0.333410
C105	C	0.480104	0.725807	0.666744
C106	C	0.352862	0.064670	0.045279
C107	C	0.686195	0.398003	0.378612
C108	C	1.019528	0.731336	0.711946
C109	C	0.403277	0.065190	0.045273
C110	C	0.736610	0.398523	0.378606
C111	C	1.069944	0.731856	0.711940
C112	C	0.403273	0.065176	-0.045174
C113	C	0.736606	0.398509	0.288160
C114	C	1.069940	0.731842	0.621493
C115	C	0.352862	0.064658	-0.045168
C116	C	0.686195	0.397992	0.288165
C117	C	1.019528	0.731325	0.621499
C118	C	0.327657	0.064403	0.000062
C119	C	0.660991	0.397737	0.333396
C120	C	0.994324	0.731070	0.666729
O121	O	0.273105	0.063847	-0.083595
O122	O	0.606439	0.397181	0.249738
O123	O	0.939772	0.730514	0.583071
O124	O	0.273071	0.063846	0.083744
O125	O	0.606405	0.397179	0.417077
O126	O	0.939738	0.730513	0.750410
C127	C	0.045347	0.061514	0.045293
C128	C	0.378680	0.394847	0.378626
C129	C	0.712013	0.728180	0.711960
C130	C	0.020143	0.061247	0.000073
C131	C	0.353476	0.394580	0.333406
C132	C	0.686809	0.727914	0.666739
C133	C	0.045350	0.061498	-0.045150
C134	C	0.378683	0.394832	0.288184
C135	C	0.712016	0.728165	0.621517
C136	C	-0.030272	0.060733	0.000074
C137	C	0.303062	0.394067	0.333407
C138	C	0.636395	0.727400	0.666740
C139	C	-0.055479	0.060482	0.045296
C140	C	0.277854	0.393815	0.378629
C141	C	0.611188	0.727149	0.711963
C142	C	-0.030272	0.060744	0.090517
C143	C	0.303062	0.394077	0.423850
C144	C	0.636395	0.727411	0.757184
C145	C	0.020139	0.061262	0.090515
C146	C	0.353473	0.394595	0.423849
C147	C	0.686806	0.727929	0.757182
C148	C	0.020143	0.061236	-0.090371
C149	C	0.353476	0.394569	0.242963
C150	C	0.686809	0.727903	0.576296
C151	C	-0.030269	0.060719	-0.090365
C152	C	0.303065	0.394052	0.242968
C153	C	0.636398	0.727385	0.576302
C154	C	-0.055476	0.060467	-0.045143
C155	C	0.277857	0.393801	0.288191
C156	C	0.611191	0.727134	0.621524
C157	C	0.574730	-0.026627	0.000064
C158	C	0.908064	0.306707	0.333398
C159	C	1.241397	0.640040	0.666731
C160	C	0.574174	-0.080281	0.000060
C161	C	0.907508	0.253052	0.333393
C162	C	1.240841	0.586386	0.666726
C163	C	0.526206	-0.457344	0.000052
C164	C	0.859539	-0.124011	0.333385
C165	C	1.192872	0.209322	0.666719
C166	C	0.528252	-0.255685	0.000052
C167	C	0.861585	0.077649	0.333385
C168	C	1.194919	0.410982	0.666718
O169	O	0.491030	-0.224425	0.000028
O170	O	0.824363	0.108909	0.333361
O171	O	1.157697	0.442242	0.666694
N172	N	0.572588	-0.236566	0.000057
N173	N	0.905921	0.096768	0.333390
N174	N	1.239254	0.430101	0.666723
C175	C	0.616415	-0.267865	0.000058
C176	C	0.949748	0.065468	0.333392
C177	C	1.283081	0.398801	0.666725
O178	O	0.654172	-0.246976	0.000058
O179	O	0.987505	0.086357	0.333391
O180	O	1.320838	0.419690	0.666724
C181	C	0.614368	-0.469524	0.000055
C182	C	0.947701	-0.136191	0.333389
C183	C	1.281034	0.197142	0.666722
C184	C	0.570029	-0.488640	0.000055
C185	C	0.903363	-0.155307	0.333389
C186	C	1.236696	0.178027	0.666722
C187	C	0.481871	-0.476461	0.000052
C188	C	0.815204	-0.143127	0.333385
C189	C	1.148538	0.190206	0.666718
C190	C	0.481360	-0.526873	0.000054
C191	C	0.814693	-0.193540	0.333388
C192	C	1.148027	0.139794	0.666721
C193	C	0.525184	-0.558168	0.000058
C194	C	0.858517	-0.224835	0.333391
C195	C	1.191850	0.108498	0.666724
C196	C	0.569518	-0.539052	0.000058
C197	C	0.902852	-0.205719	0.333392
C198	C	1.236185	0.127615	0.666725
C199	C	0.658194	-0.500823	0.000054
C200	C	0.991528	-0.167490	0.333387
C201	C	1.324861	0.165844	0.666720
C202	C	0.657679	-0.551240	0.000051
C203	C	0.991012	-0.217907	0.333385
C204	C	1.324345	0.115426	0.666718
C205	C	0.613340	-0.570356	0.000052
C206	C	0.946674	-0.237023	0.333385
C207	C	1.280007	0.096311	0.666718
C208	C	0.612831	-0.620760	0.000064
C209	C	0.946164	-0.287426	0.333398
C210	C	1.279498	0.045907	0.666731
N211	N	0.568495	-0.639879	0.000059
N212	N	0.901829	-0.306545	0.333393
N213	N	1.235162	0.026788	0.666726
C214	C	0.524672	-0.608583	0.000056
C215	C	0.858005	-0.275250	0.333389
C216	C	1.191338	0.058084	0.666723
C217	C	0.617486	-0.161991	0.000061
C218	C	0.950819	0.171342	0.333394
C219	C	1.284153	0.504676	0.666728
C220	C	0.617998	-0.111577	0.000063
C221	C	0.951331	0.221757	0.333396
C222	C	1.284665	0.555090	0.666729
C223	C	0.529835	-0.099399	0.000055
C224	C	0.863169	0.233934	0.333388
C225	C	1.196502	0.567267	0.666722
C226	C	0.529324	-0.149815	0.000057
C227	C	0.862657	0.183519	0.333390
C228	C	1.195991	0.516852	0.666724
C229	C	0.573151	-0.181110	0.000056
C230	C	0.906484	0.152223	0.333389
C231	C	1.239817	0.485557	0.666723
C232	C	0.523602	-0.714452	0.000062
C233	C	0.856935	-0.381119	0.333396
C234	C	1.190268	-0.047786	0.666729
C235	C	0.523095	-0.764869	0.000067
C236	C	0.856428	-0.431536	0.333401
C237	C	1.189761	-0.098203	0.666734
C238	C	0.611257	-0.777042	0.000072
C239	C	0.944590	-0.443709	0.333406
C240	C	1.277924	-0.110375	0.666739
C241	C	0.611764	-0.726630	0.000070
C242	C	0.945098	-0.393296	0.333403
C243	C	1.278431	-0.059963	0.666737
C244	C	0.567933	-0.695335	0.000063
C245	C	0.901266	-0.362002	0.333397
C246	C	1.234600	-0.028669	0.666730
O247	O	0.650033	-0.652048	0.000083
O248	O	0.983366	-0.318715	0.333416
O249	O	1.316700	0.014619	0.666749
O250	O	0.486920	-0.629481	0.000046
O251	O	0.820254	-0.296148	0.333379
O252	O	1.153587	0.037185	0.666713
C253	C	0.526717	-0.406932	0.000049
C254	C	0.860050	-0.073599	0.333383
C255	C	1.193384	0.259734	0.666716
C256	C	0.571052	-0.387816	0.000050
C257	C	0.904385	-0.054483	0.333383
C258	C	1.237718	0.278851	0.666716
C259	C	0.614875	-0.419112	0.000053
C260	C	0.948209	-0.085778	0.333386
C261	C	1.281542	0.247555	0.666720
C262	C	0.571563	-0.337402	0.000051
C263	C	0.904897	-0.004068	0.333385
C264	C	1.238230	0.329265	0.666718
C265	C	0.527740	-0.306106	0.000048
C266	C	0.861073	0.027227	0.333381
C267	C	1.194406	0.360561	0.666715
C268	C	0.483404	-0.325225	0.000043
C269	C	0.816738	0.008109	0.333377
C270	C	1.150071	0.341442	0.666710
C271	C	0.482893	-0.375637	0.000046
C272	C	0.816227	-0.042303	0.333379
C273	C	1.149560	0.291030	0.666713
C274	C	0.659211	-0.399993	0.000058
C275	C	0.992544	-0.066660	0.333391
C276	C	1.325877	0.266674	0.666725
C277	C	0.659718	-0.349580	0.000056
C278	C	0.993052	-0.016247	0.333389
C279	C	1.326385	0.317086	0.666722
C280	C	0.615895	-0.318285	0.000052
C281	C	0.949228	0.015049	0.333386
C282	C	1.282561	0.348382	0.666719
C283	C	0.658952	0.057571	0.000076
C284	C	0.992285	0.390904	0.333410
C285	C	1.325619	0.724237	0.666743
C286	C	0.712608	0.058113	0.000079
C287	C	1.045942	0.391446	0.333413
C288	C	1.379275	0.724780	0.666746
C289	C	0.566362	0.150181	0.000069
C290	C	0.899696	0.483514	0.333403
C291	C	1.233029	0.816847	0.666736
C292	C	0.566918	0.203835	0.000071
C293	C	0.900252	0.537168	0.333404
C294	C	1.233585	0.870502	0.666737
N295	N	0.570528	0.061795	0.129314
N296	N	0.903861	0.395128	0.462648
N297	N	1.237194	0.728461	0.795981
N298	N	0.570569	0.061756	-0.129180
N299	N	0.903902	0.395089	0.204153
N300	N	1.237235	0.728422	0.537487
C301	C	0.603658	0.028664	0.473943
C302	C	0.936991	0.361997	0.807277
C303	C	1.270325	0.695330	1.140610
C304	C	0.603670	0.028656	0.682821
C305	C	0.937003	0.361989	1.016154
C306	C	1.270336	0.695323	1.349488
O307	O	0.631818	0.000490	0.709827
O308	O	0.965152	0.333823	1.043161
O309	O	1.298485	0.667157	1.376494
N310	N	0.570558	0.061759	0.708942
N311	N	0.903892	0.395092	1.042275
N312	N	1.237225	0.728426	1.375608
C313	C	0.537439	0.094864	0.682839
C314	C	0.870773	0.428197	1.016173
C315	C	1.204106	0.761530	1.349506
O316	O	0.509273	0.123016	0.709849
O317	O	0.842607	0.456349	1.043183
O318	O	1.175940	0.789683	1.376516
C319	C	0.537426	0.094868	0.473963
C320	C	0.870759	0.428202	0.807296
C321	C	1.204093	0.761535	1.140629
C322	C	0.570543	0.061767	0.447845
C323	C	0.903876	0.395100	0.781178
C324	C	1.237210	0.728433	1.114512
C325	C	0.636772	-0.004436	0.447826
C326	C	0.970105	0.328898	0.781159
C327	C	1.303438	0.662231	1.114492
C328	C	0.636770	-0.004432	0.395609
C329	C	0.970104	0.328902	0.728943
C330	C	1.303437	0.662235	1.062276
C331	C	0.603655	0.028671	0.369511
C332	C	0.936988	0.362005	0.702844
C333	C	1.270322	0.695338	1.036177
C334	C	0.570541	0.061771	0.395629
C335	C	0.903875	0.395104	0.728962
C336	C	1.237208	0.728437	1.062295
C337	C	0.504305	0.127971	0.447861
C338	C	0.837639	0.461304	0.781195
C339	C	1.170972	0.794637	1.114528
C340	C	0.504304	0.127968	0.395639
C341	C	0.837638	0.461301	0.728972
C342	C	1.170971	0.794635	1.062306
C343	C	0.537421	0.094866	0.369521
C344	C	0.870754	0.428200	0.702854
C345	C	1.204088	0.761533	1.036188
C346	C	0.537425	0.094878	0.317314
C347	C	0.870758	0.428211	0.650647
C348	C	1.204091	0.761545	0.983980
N349	N	0.570536	0.061775	0.291193
N350	N	0.903869	0.395109	0.624527
N351	N	1.237203	0.728442	0.957860
C352	C	0.603651	0.028672	0.317292
C353	C	0.936985	0.362005	0.650625
C354	C	1.270318	0.695339	0.983958
C355	C	0.537449	0.094859	0.792503
C356	C	0.870783	0.428193	1.125836
C357	C	1.204116	0.761526	1.459169
C358	C	0.537453	0.094859	0.844722
C359	C	0.870787	0.428192	1.178055
C360	C	1.204120	0.761526	1.511388
C361	C	0.603683	0.028651	0.844700
C362	C	0.937016	0.361984	1.178033
C363	C	1.270350	0.695317	1.511366
C364	C	0.603681	0.028654	0.792480
C365	C	0.937014	0.361987	1.125813
C366	C	1.270348	0.695321	1.459146
C367	C	0.570561	0.061757	0.766382
C368	C	0.903894	0.395090	1.099716
C369	C	1.237228	0.728423	1.433049
C370	C	0.603646	0.028683	0.207634
C371	C	0.936979	0.362016	0.540967
C372	C	1.270313	0.695350	0.874300
C373	C	0.603643	0.028691	0.155413
C374	C	0.936976	0.362025	0.488746
C375	C	1.270310	0.695358	0.822080
C376	C	0.537412	0.094898	0.155439
C377	C	0.870745	0.428231	0.488773
C378	C	1.204079	0.761564	0.822106
C379	C	0.537416	0.094891	0.207656
C380	C	0.870750	0.428225	0.540989
C381	C	1.204083	0.761558	0.874322
C382	C	0.570535	0.061780	0.233752
C383	C	0.903869	0.395113	0.567085
C384	C	1.237202	0.728447	0.900418
O385	O	0.509287	0.123026	0.290275
O386	O	0.842620	0.456359	0.623609
O387	O	1.175954	0.789692	0.956942
O388	O	0.631806	0.000517	0.290273
O389	O	0.965140	0.333850	0.623606
O390	O	1.298473	0.667183	0.956940
C391	C	0.603660	0.028660	0.526160
C392	C	0.936993	0.361993	0.859493
C393	C	1.270326	0.695326	1.192826
C394	C	0.570546	0.061759	0.552277
C395	C	0.903879	0.395092	0.885611
C396	C	1.237212	0.728426	1.218944
C397	C	0.537431	0.094862	0.526179
C398	C	0.870764	0.428195	0.859512
C399	C	1.204097	0.761529	1.192846
C400	C	0.570550	0.061758	0.604496
C401	C	0.903883	0.395092	0.937830
C402	C	1.237216	0.728425	1.271163
C403	C	0.603665	0.028655	0.630595
C404	C	0.936998	0.361989	0.963928
C405	C	1.270331	0.695322	1.297262
C406	C	0.636776	-0.004448	0.604474
C407	C	0.970110	0.328886	0.937808
C408	C	1.303443	0.662219	1.271141
C409	C	0.636775	-0.004444	0.552258
C410	C	0.970108	0.328890	0.885591
C411	C	1.303441	0.662223	1.218925
C412	C	0.504319	0.127965	0.552299
C413	C	0.837653	0.461298	0.885633
C414	C	1.170986	0.794632	1.218966
C415	C	0.504324	0.127959	0.604516
C416	C	0.837657	0.461292	0.937849
C417	C	1.170990	0.794625	1.271182
C418	C	0.537439	0.094855	0.630614
C419	C	0.870772	0.428189	0.963948
C420	C	1.204106	0.761522	1.297281
H421	H	0.191890	0.063031	0.127336
H422	H	0.525223	0.396364	0.460669
H423	H	0.858557	0.729697	0.794002
O424	O	0.476327	-0.680705	0.000064
O425	O	0.809660	-0.347371	0.333398
O426	O	1.142993	-0.014038	0.666731
H427	H	0.455090	-0.687471	-0.033745
H428	H	0.788424	-0.354138	0.299588
H429	H	1.121757	-0.020805	0.632922
O430	O	0.665821	-0.090964	0.000062
O431	O	0.999155	0.242370	0.333396
O432	O	1.332488	0.575703	0.666729
H433	H	0.686860	-0.103561	0.033872
H434	H	1.020193	0.229773	0.367206
H435	H	1.353527	0.563106	0.700539
O436	O	0.501739	0.130568	0.872886
O437	O	0.835072	0.463901	1.206219
O438	O	1.168405	0.797235	1.539553
H439	H	0.507303	0.125013	0.913583
H440	H	0.840637	0.458347	1.246916
H441	H	1.173970	0.791680	1.580250
H442	H	0.423806	0.065382	-0.081992
H443	H	0.757139	0.398716	0.251341
H444	H	1.090472	0.732049	0.584674
H445	H	-0.191252	0.059111	0.082128
H446	H	0.142081	0.392444	0.415461
H447	H	0.475414	0.725778	0.748794
H448	H	0.477332	0.154924	0.374393
H449	H	0.810666	0.488257	0.707726
H450	H	1.143999	0.821591	1.041059
O451	O	0.468607	0.163665	0.632688
O452	O	0.801941	0.496998	0.966021
O453	O	1.135274	0.830332	1.299354
H454	H	0.488783	0.187014	0.656479
H455	H	0.822116	0.520348	0.989812
H456	H	1.155450	0.853681	1.323145
H457	H	0.477352	0.154921	0.531054
H458	H	0.810686	0.488254	0.864387
H459	H	1.144019	0.821588	1.197721
H460	H	0.646937	-0.802532	0.000077
H461	H	0.980270	-0.469199	0.333411
H462	H	1.313604	-0.135865	0.666744
H463	H	0.663736	-0.031387	0.374347
H464	H	0.997069	0.301946	0.707681
H465	H	1.330402	0.635279	1.041014
H466	H	0.423795	0.065409	0.082102
H467	H	0.757129	0.398742	0.415435
H468	H	1.090462	0.732075	0.748768
H469	H	0.510478	0.121817	0.771257
H470	H	0.843812	0.455150	1.104591
H471	H	1.177145	0.788484	1.437924
O472	O	0.047315	0.061553	0.139296
O473	O	0.380648	0.394886	0.472629
O474	O	0.713982	0.728220	0.805963
H475	H	0.074843	0.028833	0.141467
H476	H	0.408176	0.362166	0.474800
H477	H	0.741510	0.695500	0.808134
O478	O	0.093777	0.062032	0.139291
O479	O	0.427110	0.395366	0.472624
O480	O	0.760443	0.728699	0.805957
H481	H	0.119780	0.062308	0.170730
H482	H	0.453113	0.395642	0.504063
H483	H	0.786446	0.728975	0.837396
O484	O	0.664760	-0.195743	0.000063
O485	O	0.998093	0.137591	0.333397
O486	O	1.331426	0.470924	0.666730
H487	H	0.666630	-0.219000	0.033874
H488	H	0.999963	0.114333	0.367208
H489	H	1.333296	0.447666	0.700541
H490	H	0.332346	0.064467	0.082110
H491	H	0.665679	0.397800	0.415443
H492	H	0.999012	0.731133	0.748776
H493	H	0.647868	-0.711065	0.000077
H494	H	0.981202	-0.377732	0.333411
H495	H	1.314535	-0.044398	0.666744
H496	H	0.446788	-0.391196	0.000046
H497	H	0.780122	-0.057863	0.333380
H498	H	1.113455	0.275471	0.666713
O499	O	0.706017	-0.480212	0.000041
O500	O	1.039350	-0.146879	0.333375
O501	O	1.372683	0.186455	0.666708
H502	H	0.736399	-0.510451	0.000033
H503	H	1.069732	-0.177117	0.333367
H504	H	1.403065	0.156216	0.666700
O505	O	0.475271	-0.785488	0.000069
O506	O	0.808604	-0.452155	0.333402
O507	O	1.141938	-0.118822	0.666736
H508	H	0.454238	-0.772902	-0.033748
H509	H	0.787571	-0.439569	0.299586
H510	H	1.120904	-0.106236	0.632919
H511	H	0.191910	0.062977	-0.127206
H512	H	0.525244	0.396311	0.206127
H513	H	0.858577	0.729644	0.539460
O514	O	0.436135	-0.291466	0.000039
O515	O	0.769469	0.041867	0.333372
O516	O	1.102802	0.375201	0.666705
H517	H	0.443945	-0.253200	0.000033
H518	H	0.777279	0.080133	0.333367
H519	H	1.110612	0.413467	0.666700
O520	O	0.704950	-0.584996	0.000056
O521	O	1.038283	-0.251662	0.333389
O522	O	1.371616	0.081671	0.666723
H523	H	0.735863	-0.563229	0.000061
H524	H	1.069196	-0.229896	0.333394
H525	H	1.402530	0.103437	0.666728
H526	H	0.494152	-0.073910	0.000055
H527	H	0.827486	0.259424	0.333388
H528	H	1.160819	0.592757	0.666721
H529	H	-0.282717	0.058172	0.082126
H530	H	0.050616	0.391506	0.415459
H531	H	0.383950	0.724839	0.748792
O532	O	0.433536	-0.547485	0.000052
O533	O	0.766870	-0.214152	0.333386
O534	O	1.100203	0.119181	0.666719
H535	H	0.431197	-0.570170	-0.033759
H536	H	0.764530	-0.236837	0.299574
H537	H	1.097864	0.096497	0.632908
H538	H	0.477339	0.154925	0.469119
H539	H	0.810672	0.488258	0.802453
H540	H	1.144005	0.821591	1.135786
O541	O	0.672498	-0.040136	0.475971
O542	O	1.005832	0.293197	0.809304
O543	O	1.339165	0.626531	1.142638
H544	H	0.695524	-0.063144	0.449029
H545	H	1.028857	0.270189	0.782362
H546	H	1.362190	0.603522	1.115695
H547	H	0.510454	0.121850	0.228921
H548	H	0.843788	0.455184	0.562255
H549	H	1.177121	0.788517	0.895588
O550	O	0.707543	-0.328964	0.000050
O551	O	1.040877	0.004369	0.333383
O552	O	1.374210	0.337702	0.666716
H553	H	0.737928	-0.359201	0.000045
H554	H	1.071261	-0.025867	0.333379
H555	H	1.404595	0.307466	0.666712
H556	H	0.630647	0.001700	0.771218
H557	H	0.963981	0.335033	1.104551
H558	H	1.297314	0.668366	1.437884
O559	O	0.706480	-0.433745	0.000070
O560	O	1.039813	-0.100412	0.333403
O561	O	1.373147	0.232922	0.666736
H562	H	0.737391	-0.411976	0.000078
H563	H	1.070724	-0.078643	0.333411
H564	H	1.404058	0.254691	0.666745
H565	H	-0.191251	0.059079	-0.081974
H566	H	0.142082	0.392413	0.251359
H567	H	0.475415	0.725746	0.584693
H568	H	0.630612	0.001736	0.134149
H569	H	0.963946	0.335069	0.467483
H570	H	1.297279	0.668403	0.800816
O571	O	0.639372	-0.007027	0.235772
O572	O	0.972706	0.326307	0.569105
O573	O	1.306039	0.659640	0.902438
H574	H	0.619209	-0.030388	0.259557
H575	H	0.952542	0.302946	0.592890
H576	H	1.285876	0.636279	0.926223
H577	H	0.332339	0.064449	-0.081993
H578	H	0.665672	0.397782	0.251340
H579	H	0.999005	0.731115	0.584674
H580	H	0.630647	0.001697	0.865958
H581	H	0.963981	0.335031	1.199291
H582	H	1.297314	0.668364	1.532624
H583	H	0.446182	-0.450984	0.000047
H584	H	0.779516	-0.117651	0.333381
H585	H	1.112849	0.215682	0.666714
O586	O	0.501683	0.130590	0.127286
O587	O	0.835017	0.463923	0.460620
O588	O	1.168350	0.797256	0.793953
H589	H	0.507242	0.125020	0.086588
H590	H	0.840575	0.458353	0.419921
H591	H	1.173908	0.791687	0.753255
H592	H	0.663741	-0.031398	0.530997
H593	H	0.997075	0.301935	0.864330
H594	H	1.330408	0.635269	1.197663
O595	O	0.672493	-0.040155	0.632628
O596	O	1.005827	0.293179	0.965961
O597	O	1.339160	0.626512	1.299294
H598	H	0.666924	-0.034594	0.673326
H599	H	1.000257	0.298739	1.006659
H600	H	1.333591	0.632072	1.339992
O601	O	-0.289364	0.058084	-0.093922
O602	O	0.043969	0.391417	0.239411
O603	O	0.377302	0.724751	0.572745
H604	H	-0.328657	0.057689	-0.086330
H605	H	0.004676	0.391022	0.247004
H606	H	0.338009	0.724355	0.580337
O607	O	0.093798	0.061949	-0.139158
O608	O	0.427131	0.395282	0.194175
O609	O	0.760464	0.728616	0.527509
H610	H	0.119805	0.062195	-0.170599
H611	H	0.453139	0.395529	0.162735
H612	H	0.786472	0.728862	0.496068
H613	H	-0.050805	0.060542	0.127339
H614	H	0.282529	0.393875	0.460672
H615	H	0.615862	0.727209	0.794005
O616	O	0.481503	-0.170432	0.000052
O617	O	0.814836	0.162901	0.333386
O618	O	1.148170	0.496234	0.666719
H619	H	0.451118	-0.140196	0.000048
H620	H	0.784452	0.193137	0.333382
H621	H	1.117785	0.526471	0.666715
H622	H	-0.050786	0.060505	-0.127195
H623	H	0.282547	0.393838	0.206139
H624	H	0.615881	0.727172	0.539472
H625	H	0.040661	0.061439	-0.127197
H626	H	0.373995	0.394773	0.206137
H627	H	0.707328	0.728106	0.539470
