data_functionalizedCrystal
_audit_creation_method	'MofGen! by Chris Wilmer'
_symmetry_space_group_name_H-M	'P1'
_symmetry_Int_Tables_number	1
_symmetry_cell_setting	triclinic
loop_
_symmetry_equiv_pos_as_xyz
  x,y,z
_cell_length_a	12.827892
_cell_length_b	19.805407
_cell_length_c	19.805399
_cell_angle_alpha	89.980427
_cell_angle_beta	90.022529
_cell_angle_gamma	89.984608
loop_
_atom_site_label
_atom_site_type_symbol
_atom_site_fract_x
_atom_site_fract_y
_atom_site_fract_z
Zn1	Zn	-0.416057	-1.034788	0.382743
Zn2	Zn	-0.590812	-1.034724	0.269565
Zn3	Zn	-0.416086	-0.921602	0.269568
Zn4	Zn	-0.590757	-0.921587	0.382712
O5	O	-0.503428	-0.978175	0.326147
O6	O	-0.439250	-1.129496	0.367742
O7	O	-0.567670	-1.019698	0.174849
O8	O	-0.269846	-0.936649	0.284595
O9	O	-0.567642	-1.129449	0.284590
O10	O	-0.269825	-1.019806	0.367745
O11	O	-0.439299	-0.936588	0.174851
O12	O	-0.439245	-0.826884	0.284565
O13	O	-0.567547	-0.936624	0.477433
O14	O	-0.567575	-0.826873	0.367691
O15	O	-0.439196	-1.019792	0.477456
O16	O	-0.737041	-1.019684	0.284560
O17	O	-0.737000	-0.936563	0.367688
C18	C	-0.774938	-0.978133	0.326135
C19	C	-0.891091	-0.978177	0.326153
C20	C	-0.503408	-0.802319	0.326125
C21	C	-0.503425	-0.727087	0.326132
C22	C	-0.503362	-0.978213	0.502690
C23	C	-0.503334	-0.978229	0.577922
C24	C	-0.942862	-1.019357	0.285064
C25	C	-1.062912	-1.019403	0.285081
C26	C	-0.230858	-0.978236	0.326174
C27	C	-0.114705	-0.978262	0.326185
C28	C	-0.503449	-1.154718	0.326169
C29	C	-0.503458	-1.229950	0.326179
C30	C	-0.570347	-0.691755	0.369346
C31	C	-0.570349	-0.621067	0.369355
C32	C	-0.503433	-0.585712	0.326147
C33	C	-0.436504	-0.621049	0.282931
C34	C	-0.436497	-0.691736	0.282926
C35	C	-0.436527	-0.335975	0.282954
C36	C	-0.436540	-0.265283	0.282961
C37	C	-0.570378	-0.265306	0.369383
C38	C	-0.570372	-0.335993	0.369378
C39	C	-0.503439	-0.371324	0.326165
C40	C	-0.503436	-0.447973	0.326156
C41	C	-0.503440	-0.509065	0.326152
C42	C	-0.503418	-0.978176	0.150291
C43	C	-0.503152	-0.978291	0.075060
C44	C	-0.436499	-1.021536	0.613279
C45	C	-0.436468	-1.021543	0.683968
C46	C	-0.503280	-0.978246	0.719298
C47	C	-0.570118	-0.934935	0.683935
C48	C	-0.570143	-0.934925	0.613248
C49	C	-0.570021	-0.934973	0.969009
C50	C	-0.569994	-0.934988	1.039701
C51	C	-0.436347	-1.021591	1.039728
C52	C	-0.436371	-1.021581	0.969041
C53	C	-0.503205	-0.978268	0.933685
C54	C	-0.503236	-0.978260	0.857037
C55	C	-0.503255	-0.978257	0.795945
H56	H	-0.898310	-1.054581	0.249875
F57	F	-1.121101	-1.065483	0.239096
H58	H	-0.381923	-1.056856	1.068524
F59	F	-0.641152	-0.888875	0.931389
H60	H	-1.070191	-0.943002	0.361363
H61	H	-0.935645	-0.942958	0.361346
H62	H	-0.382046	-1.056809	0.712753
F63	F	-0.641574	-0.729377	0.415331
H64	H	-0.624874	-0.236531	0.404572
H65	H	-0.624844	-0.592303	0.404544
F66	F	-0.641596	-0.373617	0.415363
F67	F	-0.641107	-0.888903	1.077300
F68	F	-0.365315	-0.227657	0.236972
H69	H	-0.382034	-0.364733	0.247762
F70	F	-0.365280	-0.583419	0.236950
F71	F	-0.641220	-0.888853	0.721538
F72	F	-0.365265	-1.067665	0.931444
H73	H	-0.624557	-0.899654	0.584461
H74	H	-0.381997	-0.720502	0.247740
H75	H	-0.382096	-1.056795	0.584519
