data_functionalizedCrystal
_audit_creation_method	'MofGen! by Chris Wilmer'
_symmetry_space_group_name_H-M	'P1'
_symmetry_Int_Tables_number	1
_symmetry_cell_setting	triclinic
loop_
_symmetry_equiv_pos_as_xyz
  x,y,z
_cell_length_a	15.995343
_cell_length_b	15.072220
_cell_length_c	15.995350
_cell_angle_alpha	90.001101
_cell_angle_beta	96.509221
_cell_angle_gamma	90.008177
loop_
_atom_site_label
_atom_site_type_symbol
_atom_site_fract_x
_atom_site_fract_y
_atom_site_fract_z
O1	O	1.111000	0.073689	-0.107890
O2	O	0.867224	0.073710	-0.121224
O3	O	0.995776	0.073698	0.007331
O4	O	0.982448	0.073701	-0.236445
O5	O	0.995744	-0.073867	0.007324
O6	O	0.867192	-0.073855	-0.121231
O7	O	1.110968	-0.073876	-0.107897
Zn8	Zn	0.989075	-0.097295	-0.114565
Zn9	Zn	0.989117	0.097129	-0.114556
O10	O	0.982416	-0.073864	-0.236452
C11	C	0.836013	-0.000070	-0.120678
C12	C	0.743062	-0.000062	-0.119028
N13	N	0.989053	-0.229984	-0.114571
C14	C	0.572876	-0.000074	-0.116035
C15	C	0.549530	-0.000075	-0.023238
C16	C	0.452852	-0.000415	-0.021492
C17	C	0.405316	-0.000085	-0.113086
C18	C	0.434389	-0.084183	-0.159750
C19	C	0.531182	-0.084249	-0.160851
C20	C	0.531129	0.083566	-0.162201
C21	C	0.434634	0.084666	-0.158776
C22	C	0.310618	-0.000094	-0.111425
C23	C	0.667574	-0.000071	-0.117699
C24	C	0.989115	-0.589185	-0.114553
C25	C	0.920099	-0.551572	-0.183109
C26	C	0.920257	-0.448746	-0.183360
C27	C	0.989083	-0.410981	-0.114562
C28	C	1.076449	-0.448280	-0.133641
C29	C	1.076062	-0.551138	-0.134128
C30	C	0.971546	-0.551285	-0.026714
C31	C	0.969541	-0.448421	-0.027300
C32	C	0.989071	-0.310268	-0.114565
C33	C	0.989133	-0.689899	-0.114551
C34	C	1.142179	-0.000094	-0.108444
C35	C	1.235130	-0.000097	-0.110093
C36	C	0.995209	-0.000083	0.038522
C37	C	0.993557	-0.000078	0.131472
N38	N	0.989146	0.229817	-0.114543
C39	C	0.982983	-0.000082	-0.267643
C40	C	0.984635	-0.000081	-0.360594
C41	C	0.987625	-0.000080	0.469220
C42	C	0.896073	0.000259	0.421783
C43	C	0.897725	-0.000074	0.325093
C44	C	0.990567	-0.000078	0.301659
C45	C	1.035706	-0.084348	0.342734
C46	C	1.033406	-0.084418	0.439369
C47	C	1.035333	0.083391	0.439736
C48	C	1.035312	0.084505	0.342790
C49	C	0.992235	-0.000080	0.206962
C50	C	0.985960	-0.000084	0.563917
H51	H	0.433846	0.059858	0.015036
H52	H	0.416090	0.146884	-0.124793
H53	H	1.092301	-0.422511	-0.196971
H54	H	0.909223	-0.577270	-0.008367
H55	H	0.859493	0.060690	0.440317
H56	H	0.402543	-0.087074	-0.227161
H57	H	1.103914	-0.087485	0.328610
H58	H	0.559412	0.147330	-0.132921
Cl59	Cl	0.870318	-0.410785	-0.004941
H60	H	0.434402	-0.061054	0.014859
H61	H	1.005414	0.147262	0.460278
Cl62	Cl	0.842940	0.093190	0.281210
Cl63	Cl	1.042118	-0.408750	0.055158
Cl64	Cl	0.553686	-0.089791	-0.265913
Cl65	Cl	1.049250	-0.588838	0.052054
Cl66	Cl	0.383762	0.092907	-0.261966
H67	H	0.859629	-0.059830	0.441373
Cl68	Cl	0.937190	-0.591444	-0.283187
H69	H	0.861977	-0.060579	0.297224
H70	H	0.414284	-0.147008	-0.127739
Cl71	Cl	1.099964	-0.588169	-0.233032
H72	H	1.129023	-0.576017	-0.086164
Cl73	Cl	0.552726	0.084796	-0.267669
H74	H	0.855317	-0.423530	-0.171992
Cl75	Cl	0.987263	-0.181165	0.298914
H76	H	0.854949	-0.576328	-0.171929
Cl77	Cl	0.572520	-0.181677	-0.111548
Cl78	Cl	0.982541	-0.181665	0.467623
Cl79	Cl	0.984778	0.180769	0.300235
Cl80	Cl	0.937545	-0.410738	-0.284008
H81	H	1.129033	-0.423815	-0.085036
Cl82	Cl	1.137178	-0.090339	0.489164
Cl83	Cl	1.139845	0.092362	0.319073
H84	H	1.102835	0.083954	0.471498
H85	H	0.577551	0.060224	0.012734
H86	H	0.578502	-0.060294	0.012142
