data_functionalizedCrystal
_audit_creation_method	'MofGen! by Chris Wilmer'
_symmetry_space_group_name_H-M	'P1'
_symmetry_Int_Tables_number	1
_symmetry_cell_setting	triclinic
loop_
_symmetry_equiv_pos_as_xyz
  x,y,z
_cell_length_a	10.540514
_cell_length_b	11.026607
_cell_length_c	10.066323
_cell_angle_alpha	100.733761
_cell_angle_beta	98.827499
_cell_angle_gamma	83.449412
loop_
_atom_site_label
_atom_site_type_symbol
_atom_site_fract_x
_atom_site_fract_y
_atom_site_fract_z
O1	O	1.708877	-0.188914	-0.113501
O2	O	1.343003	-0.205091	-0.113499
O3	O	1.495617	-0.020088	-0.113495
O4	O	1.556263	-0.373917	-0.113505
O5	O	1.524656	0.015331	0.113480
O6	O	1.372042	-0.169671	0.113475
O7	O	1.737915	-0.153494	0.113474
Zn8	Zn	1.559589	-0.155959	0.149512
Zn9	Zn	1.521330	-0.202626	-0.149537
O10	O	1.585301	-0.338497	0.113469
C11	C	1.309955	-0.186174	-0.000012
C12	C	1.168214	-0.182564	-0.000011
C13	C	1.126490	-0.314876	-0.000018
C14	C	0.978997	-0.311247	-0.000540
C15	C	0.943564	-0.130795	-0.129379
C16	C	1.091109	-0.135460	-0.129480
C17	C	1.124106	-0.093221	0.128641
C18	C	0.977064	-0.091681	0.130334
C19	C	1.498948	0.042928	-0.000009
C20	C	1.465595	0.177928	-0.000014
C21	C	1.770964	-0.172411	-0.000017
C22	C	1.912703	-0.176023	-0.000026
C23	C	1.581970	-0.401514	-0.000019
C24	C	1.615322	-0.536514	-0.000023
N25	N	1.585709	-0.124109	0.353604
C26	C	1.557687	0.250943	-0.000016
C27	C	1.523217	0.390472	-0.000021
N28	N	1.495217	-0.234466	-0.353630
C29	C	1.530401	-0.191545	0.421410
C30	C	1.550534	-0.167020	0.578568
H31	H	1.156451	-0.382219	-0.092644
Br32	Br	1.391457	-0.360976	0.549224
H33	H	1.178652	-0.354077	0.092728
H34	H	1.468150	-0.267442	0.363117
H35	H	1.662049	0.210157	-0.000008
H36	H	1.612800	-0.091128	0.636858
Br37	Br	1.689490	0.002376	0.450756
H38	H	0.959463	-0.348230	0.092164
H39	H	1.150145	0.004567	0.129893
H40	H	0.936553	-0.377033	-0.093814
H41	H	1.719678	0.422690	-0.000126
Br42	Br	1.134903	-0.240332	-0.291264
Br43	Br	1.134472	0.025093	-0.138670
Br44	Br	1.291643	0.245891	-0.000033
H45	H	0.898416	-0.190714	-0.226013
Br46	Br	1.213592	-0.141118	0.292109
Br47	Br	0.869192	0.033489	-0.136791
H48	H	1.418848	0.431252	-0.000030
H49	H	0.932352	0.008105	0.138533
Br50	Br	0.946598	-0.146462	0.289842
