data_functionalizedCrystal
_audit_creation_method	'MofGen! by Chris Wilmer'
_symmetry_space_group_name_H-M	'P1'
_symmetry_Int_Tables_number	1
_symmetry_cell_setting	triclinic
loop_
_symmetry_equiv_pos_as_xyz
  x,y,z
_cell_length_a	19.805407
_cell_length_b	19.805405
_cell_length_c	19.805399
_cell_angle_alpha	89.970699
_cell_angle_beta	89.980427
_cell_angle_gamma	90.026410
loop_
_atom_site_label
_atom_site_type_symbol
_atom_site_fract_x
_atom_site_fract_y
_atom_site_fract_z
Zn1	Zn	1.034736	-0.269479	-0.382712
Zn2	Zn	1.534736	0.230521	0.117288
Zn3	Zn	1.034651	-0.382667	-0.269520
Zn4	Zn	1.534651	0.117333	0.230480
Zn5	Zn	0.921550	-0.269498	-0.269536
Zn6	Zn	1.421550	0.230502	0.230464
Zn7	Zn	0.921514	-0.382631	-0.382667
Zn8	Zn	1.421514	0.117369	0.117333
O9	O	0.978113	-0.326069	-0.326109
O10	O	1.478113	0.173931	0.173891
O11	O	1.129441	-0.284501	-0.367708
O12	O	1.629441	0.215499	0.132292
O13	O	1.019627	-0.367678	-0.174805
O14	O	1.519627	0.132322	0.325195
O15	O	0.936616	-0.174778	-0.284575
O16	O	1.436616	0.325222	0.215425
O17	O	1.129378	-0.367660	-0.284547
O18	O	1.629378	0.132340	0.215453
O19	O	1.019772	-0.174765	-0.367724
O20	O	1.519772	0.325235	0.132276
O21	O	0.936533	-0.284533	-0.174817
O22	O	1.436533	0.215467	0.325183
O23	O	0.826829	-0.284498	-0.284531
O24	O	1.326829	0.215502	0.215469
O25	O	0.936553	-0.367598	-0.477389
O26	O	1.436553	0.132402	0.022611
O27	O	0.826802	-0.367617	-0.367648
O28	O	1.326802	0.132383	0.132352
O29	O	1.019737	-0.284466	-0.477422
O30	O	1.519737	0.215534	0.022578
O31	O	1.019592	-0.477379	-0.284503
O32	O	1.519592	0.022621	0.215497
O33	O	0.936471	-0.477353	-0.367632
O34	O	1.436471	0.022647	0.132368
C35	C	0.802257	-0.326056	-0.326087
C36	C	1.302257	0.173944	0.173913
C37	C	0.727025	-0.326067	-0.326093
C38	C	1.227025	0.173933	0.173907
C39	C	0.691684	-0.369412	-0.369302
C40	C	1.191684	0.130588	0.130698
C41	C	0.620996	-0.369413	-0.369312
C42	C	1.120996	0.130587	0.130688
C43	C	0.585649	-0.326072	-0.326109
C44	C	1.085649	0.173928	0.173891
C45	C	0.620994	-0.282722	-0.282898
C46	C	1.120994	0.217278	0.217102
C47	C	0.691681	-0.282718	-0.282892
C48	C	1.191681	0.217282	0.217108
C49	C	0.335921	-0.282737	-0.282920
C50	C	0.835921	0.217263	0.217080
C51	C	0.265229	-0.282746	-0.282928
C52	C	0.765229	0.217254	0.217072
C53	C	0.265235	-0.369432	-0.369340
C54	C	0.765235	0.130568	0.130660
C55	C	0.335922	-0.369428	-0.369334
C56	C	0.835922	0.130572	0.130666
C57	C	0.371262	-0.326076	-0.326126
C58	C	0.871262	0.173924	0.173874
C59	C	0.447910	-0.326074	-0.326117
C60	C	0.947910	0.173926	0.173883
C61	C	0.509002	-0.326076	-0.326114
C62	C	1.009002	0.173924	0.173886
C63	C	0.978036	-0.501925	-0.326076
C64	C	1.478036	-0.001925	0.173924
C65	C	0.978066	-0.577157	-0.326084
C66	C	1.478066	-0.077157	0.173916
C67	C	1.021389	-0.612492	-0.282845
C68	C	1.521389	-0.112492	0.217155
C69	C	1.021418	-0.683181	-0.282860
C70	C	1.521418	-0.183181	0.217140
C71	C	0.978119	-0.718532	-0.326111
C72	C	1.478119	-0.218532	0.173889
C73	C	0.934794	-0.683192	-0.369356
C74	C	1.434794	-0.183192	0.130644
C75	C	0.934769	-0.612505	-0.369344
C76	C	1.434769	-0.112505	0.130656
C77	C	0.934894	-0.968265	-0.369406
C78	C	1.434894	-0.468265	0.130594
C79	C	0.934921	-1.038957	-0.369413
C80	C	1.434921	-0.538957	0.130587
C81	C	1.021542	-1.038941	-0.282922
C82	C	1.521542	-0.538941	0.217078
C83	C	1.021517	-0.968254	-0.282910
C84	C	1.521517	-0.468254	0.217090
C85	C	0.978195	-0.932920	-0.326157
C86	C	1.478195	-0.432920	0.173843
C87	C	0.978166	-0.856271	-0.326141
C88	C	1.478166	-0.356271	0.173859
C89	C	0.978145	-0.795179	-0.326124
C90	C	1.478145	-0.295179	0.173876
C91	C	1.154655	-0.326082	-0.326131
C92	C	1.654655	0.173918	0.173869
C93	C	1.229887	-0.326088	-0.326140
C94	C	1.729887	0.173912	0.173860
C95	C	0.978151	-0.326026	-0.502651
C96	C	1.478151	0.173974	-0.002651
C97	C	0.978167	-0.326008	-0.577883
C98	C	1.478167	0.173992	-0.077883
C99	C	0.978207	-0.149526	-0.326156
C100	C	1.478207	0.350474	0.173844
C101	C	0.978248	-0.074294	-0.326177
C102	C	1.478248	0.425706	0.173823
C103	C	1.021481	-0.282719	-0.613246
C104	C	1.521481	0.217281	-0.113246
C105	C	1.021488	-0.282699	-0.683934
C106	C	1.521488	0.217301	-0.183934
C107	C	0.978184	-0.325973	-0.719259
C108	C	1.478184	0.174027	-0.219259
C109	C	0.934864	-0.369264	-0.683892
C110	C	1.434864	0.130736	-0.183892
C111	C	0.934854	-0.369279	-0.613204
C112	C	1.434854	0.130721	-0.113204
C113	C	0.934902	-0.369201	-0.968965
C114	C	1.434902	0.130799	-0.468965
C115	C	0.934917	-0.369183	-1.039657
C116	C	1.434917	0.130817	-0.539657
C117	C	1.021536	-0.282620	-1.039695
C118	C	1.521536	0.217380	-0.539695
C119	C	1.021527	-0.282636	-0.969008
C120	C	1.521527	0.217364	-0.469008
C121	C	0.978205	-0.325924	-0.933647
C122	C	1.478205	0.174076	-0.433647
C123	C	0.978197	-0.325944	-0.856998
C124	C	1.478197	0.174056	-0.356998
C125	C	0.978194	-0.325957	-0.795906
C126	C	1.478194	0.174043	-0.295906
C127	C	0.978114	-0.326062	-0.150253
C128	C	1.478114	0.173938	0.349747
C129	C	0.978229	-0.325890	-0.075021
C130	C	1.478229	0.174110	0.424979
H131	H	0.592209	-0.247430	-0.247724
H132	H	1.092209	0.252570	0.252276
H133	H	0.720458	-0.404707	-0.404481
H134	H	1.220458	0.095293	0.095519
H135	H	0.899543	-0.711981	-0.404575
H136	H	1.399543	-0.211981	0.095425
H137	H	1.056644	-0.583713	-0.247621
H138	H	1.556644	-0.083713	0.252379
H139	H	0.592225	-0.404709	-0.404496
H140	H	1.092225	0.095291	0.095504
H141	H	0.720455	-0.247418	-0.247711
H142	H	1.220455	0.252582	0.252289
O143	O	0.370288	-0.411599	-0.411206
O144	O	0.870288	0.088401	0.088794
C145	C	0.450100	-0.502956	-0.420148
C146	C	0.950100	-0.002956	0.079852
C147	C	0.411212	-0.455253	-0.372646
C148	C	0.911212	0.044747	0.127354
H149	H	0.483207	-0.538252	-0.388992
H150	H	0.983207	-0.038252	0.111008
H151	H	0.412730	-0.533985	-0.451023
H152	H	0.912730	-0.033985	0.048977
H153	H	0.483190	-0.471906	-0.455604
H154	H	0.983190	0.028094	0.044396
H155	H	0.378122	-0.486251	-0.337149
H156	H	0.878122	0.013749	0.162851
H157	H	0.448619	-0.424221	-0.341818
H158	H	0.948619	0.075779	0.158182
O159	O	1.063524	-0.240743	-0.578830
O160	O	1.563524	0.259257	-0.078830
C161	C	1.101865	-0.202363	-0.469953
C162	C	1.601865	0.297637	0.030047
C163	C	1.054231	-0.249950	-0.508842
C164	C	1.554231	0.250050	-0.008842
H165	H	1.094358	-0.209780	-0.413361
H166	H	1.594358	0.290220	0.086639
H167	H	1.156454	-0.214246	-0.483807
H168	H	1.656454	0.285754	0.016193
H169	H	1.090012	-0.147791	-0.483908
H170	H	1.590012	0.352209	0.016092
H171	H	1.066023	-0.304539	-0.494907
H172	H	1.566023	0.195461	0.005093
H173	H	0.999656	-0.238009	-0.494984
H174	H	1.499656	0.261991	0.005016
O175	O	0.892776	-0.933870	-0.411313
O176	O	1.392776	-0.433870	0.088687
C177	C	0.801333	-0.854160	-0.420313
C178	C	1.301333	-0.354160	0.079687
C179	C	0.849003	-0.893064	-0.372777
C180	C	1.349003	-0.393064	0.127223
H181	H	0.765921	-0.821171	-0.389175
H182	H	1.265921	-0.321171	0.110825
H183	H	0.832336	-0.820972	-0.455719
H184	H	1.332336	-0.320972	0.044281
H185	H	0.770418	-0.891580	-0.451241
H186	H	1.270418	-0.391580	0.048759
H187	H	0.879927	-0.855693	-0.341805
H188	H	1.379927	-0.355693	0.158195
H189	H	0.817960	-0.926263	-0.337416
H190	H	1.317960	-0.426263	0.162584
O191	O	1.063631	-0.240629	-0.718180
O192	O	1.563631	0.259371	-0.218180
C193	C	1.149525	-0.154747	-0.710758
C194	C	1.649525	0.345253	-0.210758
C195	C	1.101843	-0.202370	-0.671891
C196	C	1.601843	0.297630	-0.171891
H197	H	1.180422	-0.123792	-0.673350
H198	H	1.680422	0.376208	-0.173350
H199	H	1.184947	-0.185787	-0.743833
H200	H	1.684947	0.314213	-0.243833
H201	H	1.118466	-0.119370	-0.743873
H202	H	1.618466	0.380630	-0.243873
H203	H	1.132848	-0.237756	-0.638740
H204	H	1.632848	0.262244	-0.138740
H205	H	1.066419	-0.171288	-0.638859
H206	H	1.566419	0.328712	-0.138859
O207	O	1.063521	-0.717401	-0.240791
O208	O	1.563521	-0.217401	0.259209
C209	C	1.149462	-0.709925	-0.155022
C210	C	1.649462	-0.209925	0.344978
C211	C	1.101800	-0.671087	-0.202621
C212	C	1.601800	-0.171087	0.297379
H213	H	1.180433	-0.672498	-0.124160
H214	H	1.680433	-0.172498	0.375840
H215	H	1.118451	-0.743051	-0.119564
H216	H	1.618451	-0.243051	0.380436
H217	H	1.184821	-0.742986	-0.186145
H218	H	1.684821	-0.242986	0.313855
H219	H	1.066432	-0.637990	-0.171553
H220	H	1.566432	-0.137990	0.328447
H221	H	1.132853	-0.638004	-0.238081
H222	H	1.632853	-0.138004	0.261919
O223	O	1.063642	-0.934019	-0.240874
O224	O	1.563642	-0.434019	0.259126
C225	C	1.149540	-0.941465	-0.155060
C226	C	1.649540	-0.441465	0.344940
C227	C	1.101877	-0.980319	-0.202640
C228	C	1.601877	-0.480319	0.297360
H229	H	1.180456	-0.978881	-0.124125
H230	H	1.680456	-0.478881	0.375875
H231	H	1.184946	-0.908340	-0.186133
H232	H	1.684946	-0.408340	0.313867
H233	H	1.118464	-0.908401	-0.119663
H234	H	1.618464	-0.408401	0.380337
H235	H	1.132898	-1.013419	-0.238047
H236	H	1.632898	-0.513419	0.261953
H237	H	1.066470	-1.013400	-0.171526
H238	H	1.566470	-0.513400	0.328474
H239	H	0.899576	-0.404523	-0.584413
H240	H	1.399576	0.095477	-0.084413
O241	O	0.892860	-0.411277	-0.718309
O242	O	1.392860	0.088723	-0.218309
C243	C	0.854455	-0.449590	-0.827187
C244	C	1.354455	0.050410	-0.327187
C245	C	0.902070	-0.401985	-0.788296
C246	C	1.402070	0.098015	-0.288296
H247	H	0.861875	-0.442084	-0.883779
H248	H	1.361875	0.057916	-0.383779
H249	H	0.866309	-0.504187	-0.813325
H250	H	1.366309	-0.004187	-0.313325
H251	H	0.799890	-0.437708	-0.813241
H252	H	1.299890	0.062292	-0.313241
H253	H	0.956651	-0.413806	-0.802222
H254	H	1.456651	0.086194	-0.302222
H255	H	0.890159	-0.347403	-0.802162
H256	H	1.390159	0.152597	-0.302162
H257	H	1.056820	-1.067719	-0.247711
H258	H	1.556820	-0.567719	0.252289
O259	O	1.063711	-0.240635	-1.074016
O260	O	1.563711	0.259365	-0.574016
C261	C	1.178864	-0.207757	-1.095644
C262	C	1.678864	0.292243	-0.595644
C263	C	1.131180	-0.255355	-1.056748
C264	C	1.631180	0.244645	-0.556748
H265	H	1.233422	-0.219632	-1.081686
H266	H	1.733422	0.280368	-0.581686
H267	H	1.171492	-0.215177	-1.152242
H268	H	1.671492	0.284823	-0.652242
H269	H	1.166972	-0.153187	-1.081763
H270	H	1.666972	0.346813	-0.581763
H271	H	1.143042	-0.309943	-1.070572
H272	H	1.643042	0.190057	-0.570572
H273	H	1.138561	-0.247877	-1.000160
H274	H	1.638561	0.252123	-0.500160
H275	H	1.056792	-0.247400	-0.940250
H276	H	1.556792	0.252600	-0.440250
O277	O	0.230801	-0.411477	-0.411297
O278	O	0.730801	0.088523	0.088703
C279	C	0.121908	-0.449935	-0.449581
C280	C	0.621908	0.050065	0.050419
C281	C	0.160817	-0.402274	-0.402046
C282	C	0.660817	0.097726	0.097954
H283	H	0.065319	-0.442522	-0.442108
H284	H	0.565319	0.057478	0.057892
H285	H	0.135786	-0.438121	-0.504194
H286	H	0.635786	0.061879	-0.004194
H287	H	0.135820	-0.504488	-0.437598
H288	H	0.635820	-0.004488	0.062402
H289	H	0.146926	-0.347705	-0.413968
H290	H	0.646926	0.152295	0.086032
H291	H	0.146935	-0.414146	-0.347447
H292	H	0.646935	0.085854	0.152553
H293	H	0.899650	-0.404423	-1.068417
H294	H	1.399650	0.095577	-0.568417
O295	O	0.892792	-0.411305	-0.934726
O296	O	1.392792	0.088695	-0.434726
C297	C	0.806822	-0.497111	-0.942155
C298	C	1.306822	0.002889	-0.442155
C299	C	0.854498	-0.449478	-0.981018
C300	C	1.354498	0.050522	-0.481018
H301	H	0.775838	-0.527976	-0.979565
H302	H	1.275838	-0.027976	-0.479565
H303	H	0.837822	-0.532564	-0.909065
H304	H	1.337822	-0.032564	-0.409065
H305	H	0.771474	-0.466014	-0.909055
H306	H	1.271474	0.033986	-0.409055
H307	H	0.889855	-0.480520	-1.014154
H308	H	1.389855	0.019480	-0.514154
H309	H	0.823456	-0.414023	-1.014065
H310	H	1.323456	0.085977	-0.514065
O311	O	0.892841	-1.073194	-0.411498
O312	O	1.392841	-0.573194	0.088502
C313	C	0.806898	-1.065755	-0.497269
C314	C	1.306898	-0.565755	0.002731
C315	C	0.854527	-1.026898	-0.449657
C316	C	1.354527	-0.526898	0.050343
H317	H	0.775898	-1.028341	-0.528122
H318	H	1.275898	-0.528341	-0.028122
H319	H	0.837936	-1.098783	-0.532734
H320	H	1.337936	-0.598783	-0.032734
H321	H	0.771563	-1.098917	-0.466156
H322	H	1.271563	-0.598917	0.033844
H323	H	0.889871	-0.993700	-0.480715
H324	H	1.389871	-0.493700	0.019285
H325	H	0.823446	-0.993913	-0.414190
H326	H	1.323446	-0.493913	0.085810
H327	H	0.899492	-0.583735	-0.404555
H328	H	1.399492	-0.083735	0.095445
O329	O	0.230813	-0.240613	-0.241051
O330	O	0.730813	0.259387	0.258949
C331	C	0.151047	-0.149215	-0.232118
C332	C	0.651047	0.350785	0.267882
C333	C	0.189972	-0.196889	-0.279619
C334	C	0.689972	0.303111	0.220381
H335	H	0.118029	-0.113843	-0.263282
H336	H	0.618029	0.386157	0.236718
H337	H	0.117886	-0.180219	-0.196687
H338	H	0.617886	0.319781	0.303313
H339	H	0.188454	-0.118258	-0.201215
H340	H	0.688454	0.381742	0.298785
H341	H	0.152614	-0.227856	-0.310565
H342	H	0.652614	0.272144	0.189435
H343	H	0.223143	-0.165846	-0.315006
H344	H	0.723143	0.334154	0.184994
H345	H	0.364686	-0.247442	-0.247733
H346	H	0.864686	0.252558	0.252267
