data_functionalizedCrystal
_audit_creation_method	'MofGen! by Chris Wilmer'
_symmetry_space_group_name_H-M	'P1'
_symmetry_Int_Tables_number	1
_symmetry_cell_setting	triclinic
loop_
_symmetry_equiv_pos_as_xyz
  x,y,z
_cell_length_a	16.959455
_cell_length_b	17.077402
_cell_length_c	17.077396
_cell_angle_alpha	89.970216
_cell_angle_beta	89.975476
_cell_angle_gamma	90.019903
loop_
_atom_site_label
_atom_site_type_symbol
_atom_site_fract_x
_atom_site_fract_y
_atom_site_fract_z
Zn1	Zn	1.208401	-0.312571	-0.443941
Zn2	Zn	1.208307	-0.443845	-0.312672
Zn3	Zn	1.076220	-0.312591	-0.312677
Zn4	Zn	1.076187	-0.443791	-0.443884
O5	O	1.142279	-0.378200	-0.378293
O6	O	1.318999	-0.329999	-0.426549
O7	O	1.190760	-0.426465	-0.202826
O8	O	1.093806	-0.202741	-0.330116
O9	O	1.318930	-0.426446	-0.330106
O10	O	1.190919	-0.202726	-0.426554
O11	O	1.093716	-0.330033	-0.202830
O12	O	0.965604	-0.329981	-0.330061
O13	O	1.093751	-0.426354	-0.553738
O14	O	0.965581	-0.426373	-0.426457
O15	O	1.190888	-0.329946	-0.553780
O16	O	1.190729	-0.553685	-0.330051
O17	O	1.093661	-0.553646	-0.426452
C18	C	0.936912	-0.378174	-0.378254
C19	C	0.849056	-0.378182	-0.378256
C20	C	1.142202	-0.582147	-0.378262
C21	C	1.142242	-0.669397	-0.378275
C22	C	1.192837	-0.710382	-0.328133
C23	C	1.192876	-0.792362	-0.328153
C24	C	1.142315	-0.833357	-0.378312
C25	C	1.091718	-0.792366	-0.428459
C26	C	1.091684	-0.710387	-0.428443
C27	C	1.091791	-0.963236	-0.428489
C28	C	1.091824	-1.045221	-0.428505
C29	C	1.192983	-1.045211	-0.328199
C30	C	1.192949	-0.963232	-0.328183
C31	C	1.142351	-0.922248	-0.378329
C32	C	0.477534	-0.428370	-0.328050
C33	C	0.477627	-0.328094	-0.428632
C34	C	0.560173	-0.328082	-0.428613
C35	C	0.601403	-0.378214	-0.378313
C36	C	0.560087	-0.428360	-0.328031
C37	C	0.601494	-0.277942	-0.478899
C38	C	0.684045	-0.277928	-0.478883
C39	C	0.725277	-0.328057	-0.428578
C40	C	0.683956	-0.378205	-0.378294
C41	C	0.725187	-0.428337	-0.327993
C42	C	0.683868	-0.478481	-0.277704
C43	C	0.601319	-0.478489	-0.277726
C44	C	0.807826	-0.328049	-0.428556
C45	C	0.807740	-0.428328	-0.327974
C46	C	1.348447	-0.378226	-0.378334
C47	C	1.436304	-0.378237	-0.378351
C48	C	1.142327	-0.378142	-0.583038
C49	C	1.142347	-0.378117	-0.670288
C50	C	1.142377	-0.173455	-0.378342
C51	C	1.142419	-0.086205	-0.378363
C52	C	1.192928	-0.327913	-0.711301
C53	C	1.192937	-0.327887	-0.793281
C54	C	1.142369	-0.378069	-0.834247
C55	C	1.091783	-0.428275	-0.793228
C56	C	1.091770	-0.428297	-0.711249
C57	C	1.091815	-0.428228	-0.964098
C58	C	1.091829	-0.428208	-1.046083
C59	C	1.192982	-0.327819	-1.046130
C60	C	1.192969	-0.327840	-0.964151
C61	C	1.142384	-0.378047	-0.923138
C62	C	1.142277	-0.378200	-0.174346
C63	C	1.142409	-0.378004	-0.087096
H64	H	1.234006	-0.677010	-0.287284
C65	C	1.247835	-0.836719	-0.273623
C66	C	1.292087	-0.783271	-0.229675
C67	C	1.342719	-0.824103	-0.179425
H68	H	1.282345	-0.868652	-0.303602
H69	H	1.217647	-0.868730	-0.239357
H70	H	1.322273	-0.751273	-0.263936
H71	H	1.257599	-0.751336	-0.199680
H72	H	1.312531	-0.856115	-0.145159
H73	H	1.377224	-0.856035	-0.209409
H74	H	1.372745	-0.787846	-0.149595
H75	H	0.444052	-0.287283	-0.469589
H76	H	1.050554	-0.825750	-0.469303
C77	C	0.556501	-0.532838	-0.223007
C78	C	0.576511	-0.515636	-0.145362
C79	C	0.535231	-0.565680	-0.094937
H80	H	0.569995	-0.585619	-0.234296
H81	H	0.501426	-0.525660	-0.230172
H82	H	0.631574	-0.522820	-0.138200
H83	H	0.563016	-0.462863	-0.134049
H84	H	0.480155	-0.558503	-0.102102
H85	H	0.548727	-0.618459	-0.106233
H86	H	0.548796	-0.554011	-0.042250
C87	C	1.247807	-0.273325	-1.090797
C88	C	1.236976	-0.284022	-1.171358
C89	C	1.287456	-0.233830	-1.212532
H90	H	1.300943	-0.284768	-1.077474
H91	H	1.236248	-0.220571	-1.077409
H92	H	1.248540	-0.336764	-1.184740
H93	H	1.183850	-0.272573	-1.184704
H94	H	1.275897	-0.181076	-1.199145
H95	H	1.340588	-0.245278	-1.199203
H96	H	1.280109	-0.241076	-1.267197
C97	C	0.852587	-0.273663	-0.483278
C98	C	0.832542	-0.290853	-0.560916
C99	C	0.873753	-0.240760	-0.611350
H100	H	0.907667	-0.280787	-0.476168
H101	H	0.839047	-0.220894	-0.471941
H102	H	0.846088	-0.343610	-0.572249
H103	H	0.777469	-0.283724	-0.568051
H104	H	0.860212	-0.187990	-0.600013
H105	H	0.928830	-0.247887	-0.604233
H106	H	0.860152	-0.252411	-0.664032
H107	H	1.234127	-0.287008	-0.826671
C108	C	1.036668	-0.666028	-0.482916
C109	C	0.992382	-0.719473	-0.526834
C110	C	0.941690	-0.678639	-0.577022
H111	H	1.066789	-0.634001	-0.517210
H112	H	1.002188	-0.634109	-0.452870
H113	H	1.026858	-0.751378	-0.556878
H114	H	0.962245	-0.751502	-0.492561
H115	H	0.907210	-0.646720	-0.546975
H116	H	0.971817	-0.646613	-0.611310
H117	H	0.911631	-0.714895	-0.606821
C118	C	0.432779	-0.482939	-0.273500
C119	C	0.452866	-0.560623	-0.290438
C120	C	0.411661	-0.610913	-0.240197
H121	H	0.377698	-0.475873	-0.280661
H122	H	0.446295	-0.471430	-0.220763
H123	H	0.439345	-0.572128	-0.343162
H124	H	0.507940	-0.567714	-0.283272
H125	H	0.425178	-0.599404	-0.187459
H126	H	0.356583	-0.603840	-0.247362
H127	H	0.425290	-0.663627	-0.251677
H128	H	1.234150	-0.286982	-0.930799
H129	H	0.567919	-0.237132	-0.519856
H130	H	0.717680	-0.237098	-0.519831
H131	H	1.050650	-0.469068	-1.079435
H132	H	0.717448	-0.519303	-0.236754
H133	H	1.234185	-1.078585	-0.287371
H134	H	1.050591	-0.929869	-0.469327
H135	H	1.050610	-0.469099	-0.930708
H136	H	0.841304	-0.469150	-0.287010
C137	C	1.037010	-0.482855	-0.837745
C138	C	1.081750	-0.533176	-0.884792
C139	C	1.031322	-0.583475	-0.925802
H140	H	1.002576	-0.452906	-0.869789
H141	H	1.006896	-0.512803	-0.801601
H142	H	1.111851	-0.503231	-0.920931
H143	H	1.116183	-0.563143	-0.852767
H144	H	1.001208	-0.613423	-0.889658
H145	H	0.996889	-0.553519	-0.957842
H146	H	1.061670	-0.617629	-0.957722
C147	C	1.247862	-0.273343	-0.666969
C148	C	1.292144	-0.229356	-0.720438
C149	C	1.342749	-0.179066	-0.679631
H150	H	1.282354	-0.303294	-0.634987
H151	H	1.217654	-0.239103	-0.635007
H152	H	1.322350	-0.263591	-0.752386
H153	H	1.257673	-0.199388	-0.752421
H154	H	1.312541	-0.144826	-0.647668
H155	H	1.377236	-0.209024	-0.647651
H156	H	1.372796	-0.149210	-0.715903
C157	C	1.036885	-0.482720	-0.666576
C158	C	1.047680	-0.471983	-0.586015
C159	C	0.997121	-0.522096	-0.544839
H160	H	1.048377	-0.535493	-0.679904
H161	H	0.983767	-0.471212	-0.679956
H162	H	1.100785	-0.483497	-0.572640
H163	H	1.036181	-0.419221	-0.572663
H164	H	0.944004	-0.510588	-0.558218
H165	H	1.008618	-0.574865	-0.558173
H166	H	1.004434	-0.514813	-0.490174
C167	C	1.036909	-1.089589	-0.483057
C168	C	0.992612	-1.036153	-0.526992
C169	C	0.942026	-1.076996	-0.577264
H170	H	1.002426	-1.121622	-0.453095
H171	H	1.067132	-1.121504	-0.517331
H172	H	0.962391	-1.004252	-0.492723
H173	H	1.027074	-1.004118	-0.556970
H174	H	0.972249	-1.108910	-0.611537
H175	H	0.907548	-1.109027	-0.547296
H176	H	0.911969	-1.040746	-0.607085
H177	H	1.234115	-0.929855	-0.287336
