data_functionalizedCrystal
_audit_creation_method	'MofGen! by Chris Wilmer'
_symmetry_space_group_name_H-M	'P1'
_symmetry_Int_Tables_number	1
_symmetry_cell_setting	triclinic
loop_
_symmetry_equiv_pos_as_xyz
  x,y,z
_cell_length_a	12.645331
_cell_length_b	13.897448
_cell_length_c	12.645323
_cell_angle_alpha	90.028168
_cell_angle_beta	89.977324
_cell_angle_gamma	89.983329
loop_
_atom_site_label
_atom_site_type_symbol
_atom_site_fract_x
_atom_site_fract_y
_atom_site_fract_z
Zn1	Zn	1.620731	0.384034	-0.599422
Zn2	Zn	1.620613	0.545348	-0.422152
Zn3	Zn	1.443446	0.384066	-0.422166
Zn4	Zn	1.443428	0.545285	-0.599367
O5	O	1.532054	0.464683	-0.510777
O6	O	1.769063	0.405445	-0.575924
O7	O	1.597069	0.523994	-0.273806
O8	O	1.467020	0.249080	-0.445709
O9	O	1.768976	0.523962	-0.445684
O10	O	1.597271	0.249056	-0.575938
O11	O	1.466906	0.405501	-0.273817
O12	O	1.295096	0.405439	-0.445656
O13	O	1.466989	0.523855	-0.747722
O14	O	1.295083	0.523887	-0.575844
O15	O	1.597253	0.405384	-0.747762
O16	O	1.597052	0.680322	-0.445631
O17	O	1.466874	0.680275	-0.575830
C18	C	1.531977	0.715298	-0.510746
C19	C	1.532041	0.822512	-0.510768
C20	C	1.256625	0.464660	-0.510746
C21	C	1.138795	0.464674	-0.510758
C22	C	1.532132	0.464609	-0.787282
C23	C	1.532166	0.464577	-0.905112
C24	C	0.971204	0.389816	-0.429308
C25	C	1.093763	0.390010	-0.428949
C26	C	1.094274	0.566286	-0.480237
C27	C	0.971676	0.565877	-0.479681
C28	C	0.971645	0.438886	-0.623044
C29	C	1.094251	0.436616	-0.622420
C30	C	1.808560	0.464707	-0.510808
C31	C	1.926390	0.464717	-0.510822
C32	C	1.532161	0.213090	-0.510831
C33	C	1.532206	0.105876	-0.510854
C34	C	1.532152	1.018807	-0.510835
C35	C	1.532087	0.909574	-0.510801
C36	C	1.449964	0.538756	-1.072651
C37	C	1.450179	0.539123	-0.950091
C38	C	1.643865	0.492166	-0.949631
C39	C	1.643414	0.492631	-1.072229
C40	C	1.503724	0.362395	-1.072317
C41	C	1.501232	0.363007	-0.949710
C42	C	1.532038	0.464688	-0.235347
C43	C	1.532210	0.464448	-0.117518
H44	H	1.123864	0.314660	-0.448081
H45	H	0.942666	0.493441	-0.683779
H46	H	0.940356	0.406700	-0.346636
C47	C	1.390194	0.334888	-0.910392
H48	H	1.362795	0.384831	-0.866974
H49	H	1.344766	0.325444	-0.969299
H50	H	1.394527	0.277047	-0.870621
H51	H	0.943030	0.587783	-0.397641
H52	H	1.123041	0.407082	-0.345788
C53	C	1.728874	0.421375	-0.910272
H54	H	1.696923	0.374255	-0.866230
H55	H	1.761235	0.390722	-0.969138
H56	H	1.780903	0.455477	-0.871144
H57	H	0.940749	0.366084	-0.650800
C58	C	1.338290	0.515789	-0.909422
H59	H	1.292293	0.506005	-0.967828
H60	H	1.340549	0.459101	-0.867541
H61	H	1.312991	0.567880	-0.867822
C62	C	1.133679	0.643701	-0.557910
H63	H	1.105820	0.704567	-0.537998
H64	H	1.208735	0.646072	-0.556250
H65	H	1.110772	0.628227	-0.627407
H66	H	1.366889	0.521657	-1.102126
H67	H	1.124930	0.588568	-0.399077
H68	H	0.941740	0.314240	-0.448234
H69	H	1.123355	0.361841	-0.645435
C70	C	1.676028	0.593409	-1.110885
H71	H	1.676047	0.594580	-1.186002
H72	H	1.627275	0.639773	-1.084931
H73	H	1.744900	0.608040	-1.085577
C74	C	1.677042	0.591895	-0.908181
H75	H	1.622981	0.616852	-0.863758
H76	H	1.740831	0.586169	-0.869033
H77	H	1.687760	0.634199	-0.966190
C78	C	1.135644	0.504948	-0.708855
H79	H	1.180830	0.551695	-0.677835
H80	H	1.173968	0.469070	-0.760081
H81	H	1.077658	0.536260	-0.741961
C82	C	0.931622	0.643739	-0.556479
H83	H	0.990281	0.675493	-0.587861
H84	H	0.889949	0.614558	-0.610118
H85	H	0.889942	0.689191	-0.518852
H86	H	1.468585	0.613940	-1.103465
C87	C	1.729017	0.422711	-1.112333
H88	H	1.763920	0.394154	-1.053695
H89	H	1.697007	0.373906	-1.154066
H90	H	1.778954	0.456953	-1.153963
C91	C	1.475572	0.641328	-0.910476
H92	H	1.485813	0.682782	-0.969311
H93	H	1.418450	0.664428	-0.868768
H94	H	1.538122	0.639834	-0.868921
C95	C	1.395610	0.328418	-1.114066
H96	H	1.366829	0.376162	-1.159457
H97	H	1.404300	0.270065	-1.152247
H98	H	1.348992	0.318089	-1.056247
H99	H	1.556760	0.304716	-0.919093
H100	H	1.563628	0.307032	-1.101334
