data_functionalizedCrystal
_audit_creation_method	'MofGen! by Chris Wilmer'
_symmetry_space_group_name_H-M	'P1'
_symmetry_Int_Tables_number	1
_symmetry_cell_setting	triclinic
loop_
_symmetry_equiv_pos_as_xyz
  x,y,z
_cell_length_a	14.971486
_cell_length_b	17.699092
_cell_length_c	13.448316
_cell_angle_alpha	89.995078
_cell_angle_beta	89.998199
_cell_angle_gamma	83.450248
loop_
_atom_site_label
_atom_site_type_symbol
_atom_site_fract_x
_atom_site_fract_y
_atom_site_fract_z
O1	O	1.186612	0.098633	-0.082574
O2	O	1.519945	0.431966	0.250760
O3	O	1.853278	0.765300	0.584093
O4	O	0.926171	0.110444	-0.082600
O5	O	1.259505	0.443778	0.250733
O6	O	1.592838	0.777111	0.584066
O7	O	1.063746	-0.005632	-0.082584
O8	O	1.397079	0.327701	0.250749
O9	O	1.730413	0.661035	0.584083
O10	O	1.049037	0.214709	-0.082590
O11	O	1.382371	0.548043	0.250743
O12	O	1.715704	0.881376	0.584077
O13	O	1.063729	-0.005639	0.082800
O14	O	1.397062	0.327694	0.416133
O15	O	1.730395	0.661028	0.749466
O16	O	0.926154	0.110437	0.082783
O17	O	1.259488	0.443771	0.416117
O18	O	1.592821	0.777104	0.749450
O19	O	1.186595	0.098626	0.082810
O20	O	1.519928	0.431959	0.416143
O21	O	1.853261	0.765292	0.749477
Cu22	Cu	1.056373	0.104531	0.097898
Cu23	Cu	1.389706	0.437864	0.431231
Cu24	Cu	1.723039	0.771198	0.764564
Cu25	Cu	1.056393	0.104539	-0.097688
Cu26	Cu	1.389727	0.437873	0.235645
Cu27	Cu	1.723060	0.771206	0.568979
O28	O	1.049020	0.214702	0.082794
O29	O	1.382353	0.548036	0.416127
O30	O	1.715687	0.881369	0.749460
C31	C	0.892840	0.109913	0.000088
C32	C	1.226173	0.443246	0.333421
C33	C	1.559507	0.776579	0.666755
C34	C	0.793548	0.108330	0.000078
C35	C	1.126882	0.441663	0.333411
C36	C	1.460215	0.774996	0.666745
C37	C	0.736091	0.176521	0.000077
C38	C	1.069424	0.509855	0.333411
C39	C	1.402758	0.843188	0.666744
C40	C	0.642797	0.175030	0.000092
C41	C	0.976130	0.508363	0.333426
C42	C	1.309463	0.841696	0.666759
C43	C	0.606961	0.105345	0.000101
C44	C	0.940295	0.438678	0.333434
C45	C	1.273628	0.772012	0.666767
C46	C	0.664426	0.037148	0.000104
C47	C	0.997759	0.370482	0.333437
C48	C	1.331093	0.703815	0.666771
C49	C	0.757719	0.038641	0.000096
C50	C	1.091052	0.371974	0.333430
C51	C	1.424385	0.705308	0.666763
C52	C	0.469974	0.034042	0.000118
C53	C	0.803307	0.367375	0.333451
C54	C	1.136641	0.700709	0.666784
C55	C	0.376675	0.032549	0.000124
C56	C	0.710008	0.365882	0.333457
C57	C	1.043342	0.699215	0.666790
C58	C	0.355052	0.170431	0.000114
C59	C	0.688385	0.503764	0.333447
C60	C	1.021719	0.837097	0.666781
C61	C	0.448345	0.171923	0.000106
C62	C	0.781678	0.505257	0.333439
C63	C	1.115011	0.838590	0.666773
C64	C	0.505803	0.103726	0.000108
C65	C	0.839136	0.437059	0.333441
C66	C	1.172470	0.770393	0.666774
C67	C	1.063209	-0.033834	0.000106
C68	C	1.396542	0.299500	0.333440
C69	C	1.729876	0.632833	0.666773
C70	C	1.061624	-0.117855	0.000102
C71	C	1.394957	0.215478	0.333435
C72	C	1.728291	0.548811	0.666768
C73	C	1.060891	-0.157321	-0.090050
C74	C	1.394224	0.176013	0.243283
C75	C	1.727558	0.509346	0.576616
C76	C	1.059396	-0.236267	-0.090052
C77	C	1.392729	0.097066	0.243282
C78	C	1.726063	0.430399	0.576615
C79	C	1.058641	-0.275748	0.000100
C80	C	1.391974	0.057585	0.333433
C81	C	1.725307	0.390919	0.666767
C82	C	1.059371	-0.236277	0.090259
C83	C	1.392705	0.097057	0.423592
C84	C	1.726038	0.430390	0.756926
C85	C	1.060860	-0.157331	0.090259
C86	C	1.394193	0.176002	0.423592
C87	C	1.727526	0.509336	0.756926
C88	C	1.053367	-0.554657	0.090260
C89	C	1.386701	-0.221323	0.423593
C90	C	1.720034	0.112010	0.756926
C91	C	1.051881	-0.633608	0.090252
C92	C	1.385215	-0.300275	0.423586
C93	C	1.718548	0.033058	0.756919
C94	C	1.051904	-0.633593	-0.090051
C95	C	1.385237	-0.300260	0.243282
C96	C	1.718570	0.033074	0.576616
C97	C	1.053392	-0.554647	-0.090051
C98	C	1.386725	-0.221314	0.243283
C99	C	1.720059	0.112019	0.576616
C100	C	1.054118	-0.515182	0.000107
C101	C	1.387451	-0.181849	0.333441
C102	C	1.720784	0.151484	0.666774
C103	C	1.055737	-0.429579	0.000108
C104	C	1.389070	-0.096246	0.333441
C105	C	1.722404	0.237087	0.666774
C106	C	1.057028	-0.361350	0.000101
C107	C	1.390361	-0.028017	0.333434
C108	C	1.723695	0.305316	0.666767
C109	C	1.219926	0.099158	0.000119
C110	C	1.553259	0.432491	0.333453
C111	C	1.886593	0.765824	0.666786
C112	C	1.319218	0.100741	0.000123
C113	C	1.652551	0.434074	0.333457
C114	C	1.985884	0.767407	0.666790
C115	C	1.049557	0.242904	0.000101
C116	C	1.382890	0.576237	0.333435
C117	C	1.716224	0.909571	0.666768
C118	C	1.051142	0.326926	0.000099
C119	C	1.384475	0.660259	0.333433
C120	C	1.717809	0.993592	0.666766
N121	N	1.056365	0.104524	0.235462
N122	N	1.389698	0.437858	0.568795
N123	N	1.723032	0.771191	0.902129
N124	N	1.056408	0.104540	-0.235252
N125	N	1.389741	0.437873	0.098081
N126	N	1.723075	0.771206	0.431415
C127	C	1.117302	0.053147	0.287510
C128	C	1.450635	0.386480	0.620843
C129	C	1.783968	0.719814	0.954176
C130	C	1.117307	0.053146	0.391613
C131	C	1.450641	0.386480	0.724946
C132	C	1.783974	0.719813	1.058279
C133	C	1.056380	0.104527	0.443667
C134	C	1.389713	0.437861	0.777000
C135	C	1.723046	0.771194	1.110333
C136	C	0.995437	0.155907	0.391612
C137	C	1.328770	0.489241	0.724945
C138	C	1.662103	0.822574	1.058278
C139	C	0.995427	0.155904	0.287510
C140	C	1.328761	0.489237	0.620844
C141	C	1.662094	0.822570	0.954177
C142	C	0.995461	0.155912	0.608592
C143	C	1.328795	0.489246	0.941925
C144	C	1.662128	0.822579	1.275258
C145	C	0.995471	0.155917	0.712700
C146	C	1.328805	0.489251	1.046034
C147	C	1.662138	0.822584	1.379367
C148	C	1.117341	0.053155	0.712694
C149	C	1.450675	0.386488	1.046028
C150	C	1.784008	0.719822	1.379361
C151	C	1.117332	0.053151	0.608593
C152	C	1.450666	0.386485	0.941926
C153	C	1.783999	0.719818	1.275260
C154	C	1.056390	0.104533	0.556545
C155	C	1.389723	0.437866	0.889879
C156	C	1.723056	0.771199	1.223212
H157	H	0.477518	0.228666	0.000090
H158	H	0.810852	0.562000	0.333423
H159	H	1.144185	0.895333	0.666757
H160	H	1.054011	-0.522506	-0.163462
H161	H	1.387345	-0.189173	0.169872
H162	H	1.720678	0.144160	0.503205
F163	F	1.054128	-0.512664	0.186214
F164	F	1.387462	-0.179331	0.519548
F165	F	1.720795	0.154003	0.852881
F166	F	1.182162	-0.001536	0.447006
F167	F	1.515495	0.331797	0.780339
F168	F	1.848828	0.665131	1.113673
F169	F	0.338539	-0.041617	0.000158
F170	F	0.671872	0.291716	0.333491
F171	F	1.005205	0.625050	0.666825
H172	H	1.058751	-0.268428	0.163662
H173	H	1.392084	0.064906	0.496995
H174	H	1.725417	0.398239	0.830329
H175	H	1.061511	-0.125182	-0.163462
H176	H	1.394844	0.208151	0.169871
H177	H	1.728178	0.541485	0.503204
H178	H	0.635242	-0.019590	0.000125
H179	H	0.968575	0.313743	0.333458
H180	H	1.301908	0.647076	0.666792
F181	F	1.051076	-0.675625	0.186209
F182	F	1.384410	-0.342291	0.519542
F183	F	1.717743	-0.008958	0.852876
H184	H	0.945824	0.197740	0.434000
H185	H	1.279157	0.531074	0.767333
H186	H	1.612490	0.864407	1.100666
F187	F	1.182182	-0.001529	0.553193
F188	F	1.515516	0.331805	0.886526
F189	F	1.848849	0.665138	1.219860
H190	H	1.166920	0.011310	0.245134
H191	H	1.500253	0.344643	0.578468
H192	H	1.833586	0.677976	0.911801
F193	F	1.058617	-0.278266	-0.186004
F194	F	1.391950	0.055067	0.147330
F195	F	1.725283	0.388401	0.480663
H196	H	1.061444	-0.125198	0.163670
H197	H	1.394777	0.208136	0.497003
H198	H	1.728111	0.541469	0.830337
H199	H	0.516755	-0.021492	0.000121
H200	H	0.850088	0.311842	0.333454
H201	H	1.183422	0.645175	0.666787
F202	F	1.182201	-0.001527	0.768091
F203	F	1.515534	0.331806	1.101425
F204	F	1.848868	0.665140	1.434758
F205	F	1.051128	-0.675600	-0.186007
F206	F	1.384462	-0.342267	0.147327
F207	F	1.717795	-0.008934	0.480660
F208	F	0.930622	0.210603	0.768092
F209	F	1.263955	0.543937	1.101426
F210	F	1.597289	0.877270	1.434759
H211	H	0.945805	0.197740	0.245134
H212	H	1.279139	0.531073	0.578467
H213	H	1.612472	0.864406	0.911801
F214	F	0.774220	0.250690	0.000062
F215	F	1.107554	0.584024	0.333395
F216	F	1.440887	0.917357	0.666729
F217	F	0.581650	0.247609	0.000087
F218	F	0.914983	0.580942	0.333421
F219	F	1.248316	0.914275	0.666754
H220	H	0.804500	-0.016888	0.000096
H221	H	1.137834	0.316445	0.333429
H222	H	1.471167	0.649779	0.666763
H223	H	0.308265	0.225959	0.000117
H224	H	0.641598	0.559293	0.333450
H225	H	0.974931	0.892626	0.666784
H226	H	0.945833	0.197750	0.566218
H227	H	1.279166	0.531083	0.899551
H228	H	1.612499	0.864417	1.232885
