data_functionalizedCrystal
_audit_creation_method	'MofGen! by Chris Wilmer'
_symmetry_space_group_name_H-M	'P1'
_symmetry_Int_Tables_number	1
_symmetry_cell_setting	triclinic
loop_
_symmetry_equiv_pos_as_xyz
  x,y,z
_cell_length_a	19.121321
_cell_length_b	19.120786
_cell_length_c	11.169409
_cell_angle_alpha	92.479283
_cell_angle_beta	87.582304
_cell_angle_gamma	90.133760
loop_
_atom_site_label
_atom_site_type_symbol
_atom_site_fract_x
_atom_site_fract_y
_atom_site_fract_z
Zn1	Zn	1.059845	-0.324726	0.577592
Zn2	Zn	1.054747	-0.441991	0.368707
Zn3	Zn	0.942604	-0.319773	0.385829
Zn4	Zn	0.937579	-0.436940	0.578256
O5	O	0.998694	-0.380857	0.477596
O6	O	1.157270	-0.344468	0.542439
O7	O	1.039840	-0.425819	0.203027
O8	O	0.962393	-0.222319	0.418155
O9	O	1.153524	-0.430622	0.388972
O10	O	1.048529	-0.225959	0.559042
O11	O	0.957449	-0.336026	0.215607
O12	O	0.843836	-0.331128	0.418799
O13	O	0.953829	-0.422014	0.746119
O14	O	0.840144	-0.417211	0.560174
O15	O	1.043657	-0.339571	0.745631
O16	O	1.034968	-0.539431	0.389616
O17	O	0.948885	-0.535721	0.543571
C18	C	0.816554	-0.373085	0.491418
C19	C	0.738633	-0.369776	0.497358
C20	C	0.298027	-0.348763	0.535029
C21	C	0.371242	-0.351884	0.529439
C22	C	0.405893	-0.398227	0.446624
C23	C	0.367326	-0.441456	0.369400
C24	C	0.294112	-0.438337	0.374996
C25	C	0.626852	-0.409886	0.425730
C26	C	0.700071	-0.413000	0.420138
C27	C	0.703982	-0.323429	0.580179
C28	C	0.630767	-0.320312	0.585763
C29	C	0.592206	-0.363543	0.508544
C30	C	0.480730	-0.401417	0.440906
C31	C	0.517370	-0.360356	0.514268
C32	C	0.990847	-0.563016	0.464832
C33	C	0.987554	-0.640946	0.459407
C34	C	1.030821	-0.679391	0.530276
C35	C	1.027724	-0.752616	0.525180
C36	C	0.981364	-0.787393	0.449210
C37	C	0.938093	-0.748943	0.378338
C38	C	0.941186	-0.675720	0.383441
C39	C	0.969778	-1.008388	0.430137
C40	C	0.966689	-1.081616	0.425037
C41	C	1.056320	-1.085283	0.571881
C42	C	1.059412	-1.012059	0.576971
C43	C	1.016138	-0.973615	0.506105
C44	C	0.978199	-0.862240	0.443997
C45	C	1.019300	-0.898769	0.511325
C46	C	1.181545	-0.388661	0.463721
C47	C	1.259465	-0.391987	0.457808
C48	C	0.998751	-0.380782	0.790640
C49	C	0.998775	-0.380750	0.924041
C50	C	1.006590	-0.197989	0.490434
C51	C	1.009955	-0.120061	0.495905
C52	C	0.998679	-0.380884	0.165770
C53	C	0.998799	-0.380724	0.032374
H54	H	0.262716	-0.473536	0.312117
H55	H	0.900342	-0.777265	0.316486
H56	H	0.489154	-0.322627	0.581700
Br57	Br	1.122333	-0.964865	0.680077
Br58	Br	0.527763	-0.464309	0.328515
Br59	Br	1.093747	-0.632200	0.633374
Br60	Br	0.251008	-0.285860	0.647418
Br61	Br	1.086433	-0.804788	0.621385
Br62	Br	0.903772	-1.128814	0.321918
Br63	Br	0.911040	-0.956222	0.333976
H64	H	1.091550	-1.116592	0.629578
Br65	Br	0.414351	-0.504355	0.257014
H66	H	0.735386	-0.288234	0.643048
Br67	Br	0.882462	-0.623543	0.287263
H68	H	0.402636	-0.316689	0.592324
H69	H	1.057044	-0.870451	0.573185
Br70	Br	0.583745	-0.257417	0.698162
H71	H	0.728281	-0.450740	0.352697
H72	H	0.595464	-0.445087	0.362849
H73	H	0.940454	-0.890565	0.382138
