data_functionalizedCrystal
_audit_creation_method	'MofGen! by Chris Wilmer'
_symmetry_space_group_name_H-M	'P1'
_symmetry_Int_Tables_number	1
_symmetry_cell_setting	triclinic
loop_
_symmetry_equiv_pos_as_xyz
  x,y,z
_cell_length_a	10.685194
_cell_length_b	12.759401
_cell_length_c	10.686551
_cell_angle_alpha	85.602629
_cell_angle_beta	98.415440
_cell_angle_gamma	85.626560
loop_
_atom_site_label
_atom_site_type_symbol
_atom_site_fract_x
_atom_site_fract_y
_atom_site_fract_z
Zn1	Zn	-0.450347	-1.620954	0.678975
Zn2	Zn	-0.678956	-1.591674	0.450437
Zn3	Zn	-0.466689	-1.430649	0.466730
Zn4	Zn	-0.662559	-1.430678	0.662639
O5	O	-0.564637	-1.518489	0.564695
O6	O	-0.480695	-1.764091	0.648676
O7	O	-0.664499	-1.558048	0.274965
O8	O	-0.286875	-1.468136	0.508539
O9	O	-0.648653	-1.742579	0.480770
O10	O	-0.274868	-1.607952	0.664475
O11	O	-0.508548	-1.439744	0.286936
O12	O	-0.492648	-1.283632	0.492700
O13	O	-0.620707	-1.468184	0.842439
O14	O	-0.636553	-1.283654	0.636634
O15	O	-0.464796	-1.607979	0.854440
O16	O	-0.854427	-1.558076	0.464931
O17	O	-0.842380	-1.439793	0.620835
C18	C	-0.564595	-1.245522	0.564663
C19	C	-0.564606	-1.128746	0.564677
C20	C	-0.489553	-1.073860	0.489886
C21	C	-0.489576	-0.964135	0.489895
C22	C	-0.639707	-0.964192	0.639498
C23	C	-0.639690	-1.073914	0.639480
C24	C	-0.414469	-1.128691	0.415082
C25	C	-0.339409	-1.073805	0.340286
C26	C	-0.339432	-0.964080	0.340296
C27	C	-0.414515	-0.909241	0.415101
C28	C	-0.894463	-1.495791	0.539370
C29	C	-1.035560	-1.486179	0.528578
C30	C	-0.233522	-1.541306	0.590147
C31	C	-0.092420	-1.551030	0.600993
C32	C	-0.539100	-1.541351	0.895786
C33	C	-0.528217	-1.551094	1.036877
C34	C	-0.564667	-0.792522	0.564718
C35	C	-0.564646	-0.909299	0.564704
C36	C	-0.589984	-1.495782	0.234900
C37	C	-0.600510	-1.486268	0.093837
H38	H	-0.278287	-1.118461	0.279374
H39	H	-0.278324	-0.919393	0.279385
C40	C	-1.114354	-1.402224	0.434862
C41	C	-1.033622	-1.344310	0.370244
C42	C	-1.106159	-1.266955	0.283918
H43	H	-1.170337	-1.435024	0.375577
H44	H	-1.162327	-1.356219	0.479431
H45	H	-0.985670	-1.390308	0.325678
H46	H	-0.977639	-1.311486	0.429496
H47	H	-1.154132	-1.220951	0.328487
H48	H	-1.162139	-1.299765	0.224641
H49	H	-1.051393	-1.227645	0.240073
C50	C	-1.013626	-1.634910	0.694798
C51	C	-1.094351	-1.692791	0.759462
C52	C	-1.021801	-1.770060	0.845899
H53	H	-0.965605	-1.680959	0.650349
H54	H	-0.957684	-1.602005	0.754036
H55	H	-1.150270	-1.725695	0.700232
H56	H	-1.142371	-1.646771	0.803936
H57	H	-0.965860	-1.737155	0.905138
H58	H	-0.973784	-1.816102	0.801440
H59	H	-1.076561	-1.809336	0.889792
H60	H	-0.670732	-1.423317	1.034664
C61	C	-0.720995	-1.133487	0.720910
C62	C	-0.683843	-1.117411	0.848666
C63	C	-0.758705	-1.172285	0.923714
H64	H	-0.807741	-1.108410	0.695815
H65	H	-0.710213	-1.206701	0.710267
H66	H	-0.694636	-1.044212	0.859303
H67	H	-0.597108	-1.142492	0.873800
H68	H	-0.747923	-1.245499	0.913071
H69	H	-0.845447	-1.147203	0.898608
H70	H	-0.733500	-1.161393	1.010405
C71	C	-0.414321	-1.247814	0.414847
C72	C	-0.332528	-1.284086	0.333309
C73	C	-0.332372	-1.393813	0.333052
H74	H	-0.386138	-1.279934	0.498401
H75	H	-0.497888	-1.265520	0.386403
H76	H	-0.248978	-1.266389	0.361759
H77	H	-0.360691	-1.251994	0.249744
H78	H	-0.415939	-1.411519	0.304608
H79	H	-0.304191	-1.425923	0.416610
H80	H	-0.276886	-1.418436	0.277720
C81	C	-0.414324	-0.790115	0.414985
C82	C	-0.332507	-0.753783	0.333493
C83	C	-0.332281	-0.644056	0.333370
H84	H	-0.497847	-0.758015	0.386576
H85	H	-0.386122	-0.772430	0.498598
H86	H	-0.360715	-0.771459	0.249897
H87	H	-0.248973	-0.785855	0.361883
H88	H	-0.304079	-0.626371	0.416983
H89	H	-0.415808	-0.611966	0.304963
H90	H	-0.276761	-0.619392	0.278088
H91	H	-0.457999	-1.614056	1.096056
H92	H	-0.700834	-0.919534	0.700403
