data_functionalizedCrystal
_audit_creation_method	'MofGen! by Chris Wilmer'
_symmetry_space_group_name_H-M	'P1'
_symmetry_Int_Tables_number	1
_symmetry_cell_setting	triclinic
loop_
_symmetry_equiv_pos_as_xyz
  x,y,z
_cell_length_a	6.817900
_cell_length_b	15.185107
_cell_length_c	15.185511
_cell_angle_alpha	94.893400
_cell_angle_beta	75.734714
_cell_angle_gamma	75.742106
loop_
_atom_site_label
_atom_site_type_symbol
_atom_site_fract_x
_atom_site_fract_y
_atom_site_fract_z
V1	V	4.039266	-0.283666	-0.126389
O2	O	4.022508	-0.277990	0.005423
O3	O	3.994576	-0.281991	-0.249982
O4	O	3.994549	-0.407261	-0.124730
O5	O	4.022535	-0.151853	-0.120696
V6	V	4.521936	-0.267868	-0.110589
O7	O	4.302396	-0.318320	-0.161047
O8	O	4.709003	-0.233213	-0.075930
O9	O	4.343419	-0.269542	0.013005
O10	O	4.656091	-0.273544	-0.242401
O11	O	4.656063	-0.399681	-0.116281
O12	O	4.343446	-0.144272	-0.112247
C13	C	3.840361	-0.277585	-0.280103
C14	C	3.885133	-0.277040	-0.381144
C15	C	3.863002	-0.193517	-0.415450
C16	C	3.949325	-0.360053	-0.441779
C17	C	3.991389	-0.359546	-0.536714
C18	C	3.969258	-0.276023	-0.571020
C19	C	3.905062	-0.193007	-0.510393
C20	C	4.055566	-0.442560	-0.597347
C21	C	4.097632	-0.442057	-0.692288
C22	C	4.075516	-0.358533	-0.726596
C23	C	4.011318	-0.275514	-0.665963
C24	C	3.989187	-0.191991	-0.700269
C25	C	3.925004	-0.108971	-0.639638
C26	C	3.882946	-0.109484	-0.544701
C27	C	4.117574	-0.358020	-0.821533
C28	C	4.031248	-0.191481	-0.795212
C29	C	3.840325	-0.437378	-0.120330
C30	C	3.885072	-0.538420	-0.119791
C31	C	4.160977	-0.273946	0.043121
C32	C	4.095443	-0.274497	0.144161
C33	C	4.117659	-0.978815	-0.200714
C34	C	4.031263	-0.952461	-0.034177
C35	C	3.989175	-0.857528	-0.034697
C36	C	4.011330	-0.823235	-0.118227
C37	C	4.075574	-0.883874	-0.201237
C38	C	3.924948	-0.796883	0.048312
C39	C	3.882858	-0.701943	0.047795
C40	C	3.904999	-0.667648	-0.035735
C41	C	3.969245	-0.728293	-0.118749
C42	C	3.991401	-0.694000	-0.202279
C43	C	4.055633	-0.754643	-0.285293
C44	C	4.097716	-0.849578	-0.284768
C45	C	3.862916	-0.572713	-0.036261
C46	C	3.949316	-0.599059	-0.202801
C47	C	4.161012	-0.114151	-0.116651
C48	C	4.095504	-0.013108	-0.117184
H49	H	4.013228	-0.123466	-0.823136
C50	C	3.900671	-0.017102	-0.677382
H51	H	3.934922	-0.028695	-0.742607
H52	H	3.759363	0.019947	-0.653445
H53	H	3.992762	0.014112	-0.659394
C54	C	4.188166	-0.449329	-0.888222
H55	H	4.195326	-0.499145	-0.854193
H56	H	4.089684	-0.449678	-0.922836
H57	H	4.323074	-0.455507	-0.928771
C58	C	4.188316	-1.045516	-0.292023
H59	H	4.210219	-1.106969	-0.279754
H60	H	4.082493	-1.032412	-0.323416
H61	H	4.315866	-1.038326	-0.329227
C62	C	4.168253	-0.533373	-0.758974
H63	H	4.175423	-0.583188	-0.724944
H64	H	4.069782	-0.533730	-0.793593
H65	H	4.303162	-0.539544	-0.799520
H66	H	4.013242	-0.980390	0.033829
C67	C	3.973703	-0.561343	-0.294687
H68	H	4.017999	-0.611059	-0.344047
H69	H	3.842412	-0.521896	-0.295447
H70	H	4.075789	-0.527819	-0.301259
C71	C	4.080020	-0.716919	-0.377173
H72	H	4.124316	-0.766627	-0.426540
H73	H	3.948729	-0.677468	-0.377930
H74	H	4.182107	-0.683395	-0.383739
H75	H	3.830685	-0.041894	-0.495327
H76	H	3.967325	-0.428053	-0.413840
C77	C	3.792399	-0.102202	-0.348762
H78	H	3.770507	-0.114462	-0.287306
H79	H	3.898241	-0.070815	-0.361887
H80	H	3.664852	-0.064997	-0.355942
H81	H	3.906928	-0.824812	0.116317
H82	H	4.150018	-0.898962	-0.352353
C83	C	3.812184	-0.635244	0.139106
H84	H	3.805002	-0.669266	0.188927
H85	H	3.910635	-0.600610	0.139461
H86	H	3.677272	-0.594714	0.145269
H87	H	4.073564	-0.510560	-0.569407
H88	H	3.810633	-0.523342	0.031328
