data_functionalizedCrystal
_audit_creation_method	'MofGen! by Chris Wilmer'
_symmetry_space_group_name_H-M	'P1'
_symmetry_Int_Tables_number	1
_symmetry_cell_setting	triclinic
loop_
_symmetry_equiv_pos_as_xyz
  x,y,z
_cell_length_a	12.645330
_cell_length_b	19.805407
_cell_length_c	19.805399
_cell_angle_alpha	90.021064
_cell_angle_beta	89.978279
_cell_angle_gamma	89.983323
loop_
_atom_site_label
_atom_site_type_symbol
_atom_site_fract_x
_atom_site_fract_y
_atom_site_fract_z
Zn1	Zn	-0.422093	-1.034777	-0.382774
Zn2	Zn	-0.599371	-1.034709	-0.269597
Zn3	Zn	-0.422119	-0.921591	-0.269596
Zn4	Zn	-0.599311	-0.921572	-0.382741
O5	O	-0.510723	-0.978162	-0.326177
O6	O	-0.445623	-1.129484	-0.367775
O7	O	-0.575894	-1.019683	-0.174881
O8	O	-0.273768	-0.936642	-0.284622
O9	O	-0.575868	-1.129434	-0.284625
O10	O	-0.273749	-1.019799	-0.367774
O11	O	-0.445667	-0.936576	-0.174879
O12	O	-0.445610	-0.826872	-0.284590
O13	O	-0.575767	-0.936609	-0.477462
O14	O	-0.575792	-0.826858	-0.367718
O15	O	-0.445565	-1.019780	-0.477486
O16	O	-0.747710	-1.019664	-0.284593
O17	O	-0.747666	-0.936543	-0.367719
C18	C	-0.510698	-0.802306	-0.326151
C19	C	-0.510713	-0.727074	-0.326155
C20	C	-0.578600	-0.691740	-0.369369
C21	C	-0.578600	-0.621052	-0.369377
C22	C	-0.510717	-0.585699	-0.326167
C23	C	-0.442823	-0.621037	-0.282952
C24	C	-0.442818	-0.691725	-0.282948
C25	C	-0.442838	-0.335964	-0.282966
C26	C	-0.442850	-0.265272	-0.282972
C27	C	-0.578620	-0.265292	-0.369395
C28	C	-0.578616	-0.335979	-0.369392
C29	C	-0.510717	-0.371311	-0.326179
C30	C	-0.510717	-0.447960	-0.326172
C31	C	-0.510722	-0.509051	-0.326170
C32	C	-0.786153	-0.978113	-0.326168
C33	C	-0.903983	-0.978154	-0.326186
C34	C	-1.071564	-0.926078	-0.378642
C35	C	-0.949004	-0.925811	-0.378474
C36	C	-0.948571	-0.958847	-0.254853
C37	C	-1.071169	-0.958530	-0.255172
C38	C	-1.071076	-1.049854	-0.344485
C39	C	-0.948469	-1.049415	-0.346044
C40	C	-0.234218	-0.978230	-0.326201
C41	C	-0.116388	-0.978259	-0.326212
C42	C	-0.510657	-0.978200	-0.502720
C43	C	-0.510628	-0.978216	-0.577952
C44	C	-0.510742	-0.154705	-0.326198
C45	C	-0.510733	-0.229937	-0.326190
C46	C	-0.442829	-1.021524	-0.613310
C47	C	-0.442798	-1.021531	-0.683998
C48	C	-0.510573	-0.978233	-0.719328
C49	C	-0.578375	-0.934920	-0.683965
C50	C	-0.578400	-0.934910	-0.613278
C51	C	-0.578276	-0.934958	-0.969038
C52	C	-0.578249	-0.934973	-1.039730
C53	C	-0.442674	-1.021579	-1.039759
C54	C	-0.442699	-1.021570	-0.969072
C55	C	-0.510497	-0.978255	-0.933715
C56	C	-0.510528	-0.978247	-0.857067
C57	C	-0.510548	-0.978244	-0.795975
C58	C	-0.510713	-0.978163	-0.150321
C59	C	-0.510443	-0.978278	-0.075090
H60	H	-0.387532	-0.720492	-0.247762
H61	H	-0.387466	-1.056846	-1.068555
O62	O	-1.106482	-0.940394	-0.441981
C63	C	-1.058990	-0.969298	-0.556234
C64	C	-1.019293	-0.953109	-0.484528
H65	H	-0.988518	-0.979569	-0.590657
H66	H	-1.112088	-1.015779	-0.554604
H67	H	-1.105764	-0.924478	-0.576537
H68	H	-0.972474	-0.997888	-0.464182
H69	H	-0.966251	-0.906605	-0.486201
H70	H	-0.387565	-0.236489	-0.247786
H71	H	-0.633882	-0.720520	-0.404553
H72	H	-0.633882	-0.592286	-0.404565
O73	O	-1.107809	-1.070984	-0.405460
C74	C	-1.107363	-1.159040	-0.489452
C75	C	-1.065701	-1.135210	-0.420380
H76	H	-1.073318	-1.210962	-0.501542
H77	H	-1.197350	-1.162163	-0.487865
H78	H	-1.082205	-1.121606	-0.530109
H79	H	-1.090781	-1.172620	-0.379685
H80	H	-0.975719	-1.132067	-0.422023
H81	H	-0.633902	-0.236515	-0.404584
H82	H	-0.387591	-1.056799	-0.712784
O83	O	-1.105458	-0.896138	-0.236601
C84	C	-1.206444	-0.830662	-0.156797
C85	C	-1.167671	-0.901358	-0.177740
H86	H	-1.256770	-0.834860	-0.109214
H87	H	-1.135475	-0.796729	-0.146416
H88	H	-1.255854	-0.808060	-0.199293
H89	H	-1.118281	-0.924020	-0.135270
H90	H	-1.238687	-0.935244	-0.188144
H91	H	-0.919324	-1.063974	-0.398542
O92	O	-0.644590	-0.370215	-0.411430
C93	C	-0.779299	-0.362773	-0.497129
C94	C	-0.704623	-0.323917	-0.449564
H95	H	-0.827871	-0.325357	-0.527963
H96	H	-0.730747	-0.395870	-0.532615
H97	H	-0.834618	-0.395864	-0.465982
H98	H	-0.649289	-0.290789	-0.480656
H99	H	-0.753241	-0.290862	-0.414075
O100	O	-0.376851	-0.370176	-0.240928
C101	C	-0.242126	-0.362690	-0.155241
C102	C	-0.316827	-0.323858	-0.202804
H103	H	-0.193562	-0.325260	-0.124416
H104	H	-0.290658	-0.395747	-0.119747
H105	H	-0.186801	-0.395820	-0.186390
H106	H	-0.372167	-0.290692	-0.171710
H107	H	-0.268229	-0.290844	-0.238300
O108	O	-0.644176	-0.892922	-0.718386
C109	C	-0.704182	-0.854524	-0.827268
C110	C	-0.629623	-0.902131	-0.788373
H111	H	-0.692426	-0.861943	-0.883859
H112	H	-0.789693	-0.866385	-0.813414
H113	H	-0.685571	-0.799957	-0.813319
H114	H	-0.648139	-0.956714	-0.802301
H115	H	-0.544134	-0.890212	-0.802231
H116	H	-0.387513	-1.056830	-0.940310
H117	H	-0.633497	-0.899699	-0.940259
H118	H	-0.387547	-0.592247	-0.247772
O119	O	-0.912849	-0.940237	-0.441527
C120	C	-0.760554	-0.956277	-0.512925
C121	C	-0.801348	-0.939952	-0.441478
H122	H	-0.670402	-0.956039	-0.512912
H123	H	-0.790239	-1.008224	-0.528909
H124	H	-0.790835	-0.916604	-0.549861
H125	H	-0.771085	-0.979582	-0.404493
H126	H	-0.771673	-0.887987	-0.425551
H127	H	-1.102462	-0.873332	-0.366691
H128	H	-0.917817	-1.090340	-0.310638
H129	H	-0.919767	-0.872734	-0.366367
O130	O	-1.106377	-1.001900	-0.206925
C131	C	-1.059286	-1.080779	-0.119339
C132	C	-1.019276	-1.031679	-0.173946
H133	H	-0.988886	-1.104880	-0.092670
H134	H	-1.109272	-1.052006	-0.081008
H135	H	-1.109335	-1.121838	-0.143950
H136	H	-0.969185	-0.990610	-0.149395
H137	H	-0.969348	-1.060499	-0.212271
O138	O	-0.913779	-1.002657	-0.206891
C139	C	-0.816411	-1.016843	-0.103297
C140	C	-0.855742	-0.967148	-0.157561
H141	H	-0.769461	-0.988155	-0.063408
H142	H	-0.887039	-1.042648	-0.078524
H143	H	-0.763553	-1.056530	-0.127819
H144	H	-0.908581	-0.927422	-0.133091
H145	H	-0.785066	-0.941394	-0.182330
O146	O	-0.644118	-0.892843	-1.073946
C147	C	-0.778631	-0.806958	-1.066462
C148	C	-0.704076	-0.854620	-1.027629
H149	H	-0.827142	-0.776052	-1.029033
H150	H	-0.729987	-0.771544	-1.099537
H151	H	-0.834012	-0.838035	-1.099575
H152	H	-0.648679	-0.823598	-0.994480
H153	H	-0.752785	-0.890036	-0.994598
O154	O	-0.912243	-0.897026	-0.236016
C155	C	-0.957180	-0.783023	-0.204579
C156	C	-0.998460	-0.853008	-0.225886
H157	H	-1.026864	-0.747411	-0.196396
H158	H	-0.910266	-0.787832	-0.155673
H159	H	-0.903833	-0.762002	-0.245946
H160	H	-1.051849	-0.874069	-0.184564
H161	H	-1.045314	-0.848156	-0.274811
O162	O	-0.644374	-0.892828	-0.579033
C163	C	-0.778828	-0.806912	-0.586461
C164	C	-0.704179	-0.854546	-0.625325
H165	H	-0.827184	-0.775938	-0.623870
H166	H	-0.834341	-0.837944	-0.553391
H167	H	-0.730159	-0.771554	-0.553341
H168	H	-0.752763	-0.889913	-0.658482
H169	H	-0.648663	-0.823471	-0.658352
O170	O	-0.376891	-1.063607	-0.579099
C171	C	-0.242453	-1.149538	-0.586596
C172	C	-0.317060	-1.101904	-0.625421
H173	H	-0.194075	-1.180524	-0.624031
H174	H	-0.186957	-1.118505	-0.553519
H175	H	-0.291156	-1.184885	-0.553487
H176	H	-0.268442	-1.066548	-0.658567
H177	H	-0.372558	-1.132980	-0.658456
O178	O	-1.105836	-1.096236	-0.298987
C179	C	-1.256495	-1.151069	-0.248570
C180	C	-1.217264	-1.098540	-0.300131
H181	H	-1.346589	-1.152939	-0.249467
H182	H	-1.223415	-1.202884	-0.262128
H183	H	-1.228516	-1.136236	-0.195903
H184	H	-1.245230	-1.113310	-0.352816
H185	H	-1.250335	-1.046738	-0.286515
