data_functionalizedCrystal
_audit_creation_method	'MofGen! by Chris Wilmer'
_symmetry_space_group_name_H-M	'P1'
_symmetry_Int_Tables_number	1
_symmetry_cell_setting	triclinic
loop_
_symmetry_equiv_pos_as_xyz
  x,y,z
_cell_length_a	9.065215
_cell_length_b	15.944551
_cell_length_c	8.140239
_cell_angle_alpha	90.004470
_cell_angle_beta	90.002190
_cell_angle_gamma	84.256718
loop_
_atom_site_label
_atom_site_type_symbol
_atom_site_fract_x
_atom_site_fract_y
_atom_site_fract_z
O1	O	1.957522	0.123149	0.136599
O2	O	1.528000	0.133254	0.136606
O3	O	1.754490	0.006015	0.136588
O4	O	1.731032	0.250387	0.136618
O5	O	1.754478	0.006014	-0.136640
O6	O	1.527988	0.133252	-0.136621
O7	O	1.957509	0.123147	-0.136628
Zn8	Zn	1.742747	0.128200	-0.180005
Zn9	Zn	1.742763	0.128202	0.179983
O10	O	1.731019	0.250386	-0.136610
C11	C	1.473030	0.132282	-0.000006
C12	C	1.309255	0.129380	-0.000004
C13	C	1.753510	-0.025287	-0.000026
C14	C	1.750591	-0.118555	-0.000027
C15	C	1.603223	-0.334527	-0.000002
C16	C	1.671649	-0.395027	-0.134721
C17	C	1.745309	-0.289321	-0.000014
C18	C	1.671695	-0.395009	0.134660
C19	C	1.740196	-0.454272	0.000005
C20	C	1.813774	-0.348592	-0.134844
C21	C	1.813800	-0.348568	0.134657
C22	C	1.882330	-0.409049	-0.000095
C23	C	1.748250	-0.194296	-0.000027
C24	C	1.737266	-0.549295	0.000006
C25	C	2.012480	0.124119	-0.000012
C26	C	2.176255	0.127021	-0.000004
C27	C	1.731999	0.281688	0.000008
C28	C	1.734919	0.374956	0.000019
N29	N	1.742746	0.128198	-0.425688
N30	N	1.742775	0.128197	0.425666
H31	H	1.485285	-0.302112	-0.000134
H32	H	1.611585	-0.415540	0.248562
Cl33	Cl	1.578861	-0.426777	-0.310562
Cl34	Cl	2.064573	-0.458868	-0.000208
H35	H	1.873815	-0.328148	-0.248863
H36	H	1.873850	-0.327982	0.248555
