data_functionalizedCrystal
_audit_creation_method	'MofGen! by Chris Wilmer'
_symmetry_space_group_name_H-M	'P1'
_symmetry_Int_Tables_number	1
_symmetry_cell_setting	triclinic
loop_
_symmetry_equiv_pos_as_xyz
  x,y,z
_cell_length_a	14.908783
_cell_length_b	25.639239
_cell_length_c	14.909227
_cell_angle_alpha	86.672199
_cell_angle_beta	83.584164
_cell_angle_gamma	93.329368
loop_
_atom_site_label
_atom_site_type_symbol
_atom_site_fract_x
_atom_site_fract_y
_atom_site_fract_z
Zn1	Zn	1.413344	-0.141147	-0.591770
Zn2	Zn	1.746677	0.192187	-0.258437
Zn3	Zn	2.080010	0.525520	0.074897
Zn4	Zn	1.404451	-0.233947	-0.440386
Zn5	Zn	1.737785	0.099386	-0.107053
Zn6	Zn	2.071118	0.432719	0.226281
Zn7	Zn	1.253226	-0.151870	-0.431669
Zn8	Zn	1.586559	0.181464	-0.098336
Zn9	Zn	1.919892	0.514797	0.234997
Zn10	Zn	1.261886	-0.233906	-0.582961
Zn11	Zn	1.595219	0.099427	-0.249628
Zn12	Zn	1.928552	0.432761	0.083705
O13	O	1.333227	-0.190217	-0.511697
O14	O	1.666560	0.143116	-0.178363
O15	O	1.999893	0.476449	0.154970
O16	O	1.538839	-0.148987	-0.579023
O17	O	1.872172	0.184347	-0.245690
O18	O	2.205505	0.517680	0.087644
O19	O	1.377045	-0.227564	-0.312559
O20	O	1.710379	0.105769	0.020775
O21	O	2.043712	0.439102	0.354108
O22	O	1.274563	-0.077278	-0.452945
O23	O	1.607896	0.256056	-0.119612
O24	O	1.941229	0.589389	0.213721
O25	O	1.532305	-0.217167	-0.467802
O26	O	1.865639	0.116167	-0.134469
O27	O	2.198972	0.449500	0.198865
O28	O	1.392201	-0.069399	-0.570571
O29	O	1.725534	0.263934	-0.237237
O30	O	2.058868	0.597267	0.096096
O31	O	1.265940	-0.167262	-0.306155
O32	O	1.599273	0.166071	0.027179
O33	O	1.932607	0.499404	0.360512
O34	O	1.127700	-0.167222	-0.444404
O35	O	1.461033	0.166111	-0.111071
O36	O	1.794367	0.499444	0.222263
O37	O	1.289323	-0.217096	-0.710801
O38	O	1.622656	0.116237	-0.377467
O39	O	1.955989	0.449570	-0.044134
O40	O	1.134063	-0.227494	-0.555558
O41	O	1.467396	0.105839	-0.222224
O42	O	1.800729	0.439173	0.111109
O43	O	1.400598	-0.148947	-0.717273
O44	O	1.733932	0.184387	-0.383939
O45	O	2.067265	0.517720	-0.050606
O46	O	1.385443	-0.307111	-0.459260
O47	O	1.718776	0.026222	-0.125927
O48	O	2.052109	0.359555	0.207406
O49	O	1.280700	-0.307081	-0.564010
O50	O	1.614034	0.026252	-0.230677
O51	O	1.947367	0.359585	0.102657
C52	C	1.098036	-0.198518	-0.498080
C53	C	1.431369	0.134816	-0.164746
C54	C	1.764703	0.468149	0.168587
C55	C	0.997422	-0.202080	-0.492276
C56	C	1.330755	0.131253	-0.158942
C57	C	1.664089	0.464586	0.174391
C58	C	0.815168	-0.137865	-0.597361
C59	C	1.148501	0.195469	-0.264027
C60	C	1.481835	0.528802	0.069306
C61	C	0.720632	-0.141210	-0.591910
C62	C	1.053966	0.192123	-0.258577
C63	C	1.387299	0.525457	0.074756
C64	C	0.713812	-0.212114	-0.475920
C65	C	1.047145	0.121219	-0.142587
C66	C	1.380479	0.454552	0.190746
C67	C	0.808348	-0.208769	-0.481371
C68	C	1.141681	0.124565	-0.148037
C69	C	1.475015	0.457898	0.185296
C70	C	0.859023	-0.171643	-0.542094
C71	C	1.192356	0.161690	-0.208761
C72	C	1.525690	0.495023	0.124573
C73	C	0.953561	-0.168300	-0.547548
C74	C	1.286894	0.165033	-0.214215
C75	C	1.620227	0.498366	0.119118
C76	C	0.946739	-0.239202	-0.431554
C77	C	1.280072	0.094132	-0.098221
C78	C	1.613405	0.427465	0.235112
C79	C	0.852203	-0.242547	-0.426104
C80	C	1.185536	0.090786	-0.092771
C81	C	1.518870	0.424119	0.240563
C82	C	1.333072	-0.326067	-0.511646
C83	C	1.666405	0.007266	-0.178313
C84	C	1.999739	0.340600	0.155020
C85	C	1.333090	-0.384180	-0.511660
C86	C	1.666424	-0.050847	-0.178327
C87	C	1.999757	0.282487	0.155007
C88	C	1.387923	-0.744531	-0.457261
C89	C	1.721256	-0.411198	-0.123928
C90	C	2.054589	-0.077865	0.209406
C91	C	1.387959	-0.799134	-0.457275
C92	C	1.721292	-0.465801	-0.123942
C93	C	2.054625	-0.132467	0.209392
O94	O	1.434418	-0.827368	-0.410969
O95	O	1.767752	-0.494035	-0.077635
O96	O	2.101085	-0.160702	0.255698
N97	N	1.333389	-0.826449	-0.511766
N98	N	1.666723	-0.493115	-0.178432
N99	N	2.000056	-0.159782	0.154901
C100	C	1.278787	-0.799157	-0.566253
C101	C	1.612121	-0.465824	-0.232919
C102	C	1.945454	-0.132491	0.100414
O103	O	1.232376	-0.827404	-0.612603
O104	O	1.565709	-0.494071	-0.279270
O105	O	1.899043	-0.160738	0.054063
C106	C	1.278757	-0.744555	-0.566243
C107	C	1.612090	-0.411222	-0.232910
C108	C	1.945424	-0.077889	0.100424
C109	C	1.333323	-0.717244	-0.511742
C110	C	1.666656	-0.383911	-0.178408
C111	C	1.999990	-0.050577	0.154925
C112	C	1.442485	-0.717220	-0.402765
C113	C	1.775818	-0.383887	-0.069432
C114	C	2.109152	-0.050553	0.263902
C115	C	1.442448	-0.662621	-0.402750
C116	C	1.775781	-0.329288	-0.069417
C117	C	2.109115	0.004046	0.263917
C118	C	1.387848	-0.635334	-0.457231
C119	C	1.721182	-0.302001	-0.123897
C120	C	2.054515	0.031333	0.209436
C121	C	1.333286	-0.662645	-0.511727
C122	C	1.666619	-0.329312	-0.178393
C123	C	1.999953	0.004021	0.154940
C124	C	1.224161	-0.717265	-0.620734
C125	C	1.557494	-0.383932	-0.287401
C126	C	1.890827	-0.050598	0.045933
C127	C	1.224136	-0.662659	-0.620720
C128	C	1.557469	-0.329326	-0.287387
C129	C	1.890802	0.004007	0.045947
C130	C	1.278702	-0.635348	-0.566219
C131	C	1.612035	-0.302014	-0.232885
C132	C	1.945368	0.031319	0.100448
C133	C	1.278649	-0.580759	-0.566192
C134	C	1.611982	-0.247426	-0.232859
C135	C	1.945316	0.085907	0.100475
N136	N	1.333218	-0.553445	-0.511701
N137	N	1.666552	-0.220111	-0.178368
N138	N	1.999885	0.113222	0.154965
C139	C	1.387818	-0.580732	-0.457221
C140	C	1.721151	-0.247399	-0.123887
C141	C	2.054485	0.085935	0.209446
C142	C	1.278856	-0.913825	-0.566271
C143	C	1.612190	-0.580492	-0.232937
C144	C	1.945523	-0.247158	0.100396
C145	C	1.278881	-0.968426	-0.566276
C146	C	1.612215	-0.635093	-0.232943
C147	C	1.945548	-0.301760	0.100390
C148	C	1.388054	-0.968399	-0.457300
C149	C	1.721387	-0.635066	-0.123966
C150	C	2.054721	-0.301733	0.209367
C151	C	1.388024	-0.913797	-0.457290
C152	C	1.721357	-0.580464	-0.123957
C153	C	2.054690	-0.247131	0.209377
C154	C	1.333426	-0.886510	-0.511780
C155	C	1.666759	-0.553177	-0.178447
C156	C	2.000092	-0.219844	0.154887
C157	C	1.387735	-0.466071	-0.457192
C158	C	1.721068	-0.132737	-0.123859
C159	C	2.054402	0.200596	0.209474
C160	C	1.387690	-0.411467	-0.457179
C161	C	1.721023	-0.078134	-0.123846
C162	C	2.054357	0.255200	0.209487
C163	C	1.278521	-0.411499	-0.566159
C164	C	1.611855	-0.078166	-0.232826
C165	C	1.945188	0.255168	0.100508
C166	C	1.278562	-0.466098	-0.566169
C167	C	1.611896	-0.132764	-0.232836
C168	C	1.945229	0.200569	0.100498
C169	C	1.333176	-0.493382	-0.511683
C170	C	1.666510	-0.160049	-0.178350
C171	C	1.999843	0.173285	0.154984
O172	O	1.232216	-0.552490	-0.612478
O173	O	1.565549	-0.219157	-0.279144
O174	O	1.898882	0.114176	0.054189
O175	O	1.434231	-0.552478	-0.410887
O176	O	1.767564	-0.219144	-0.077554
O177	O	2.100897	0.114189	0.255780
C178	C	1.569336	-0.181885	-0.525367
C179	C	1.902669	0.151448	-0.192034
C180	C	2.236002	0.484782	0.141299
C181	C	1.669951	-0.178334	-0.531193
C182	C	2.003284	0.154999	-0.197860
C183	C	2.336618	0.488332	0.135474
C184	C	1.346919	-0.181821	-0.747799
C185	C	1.680252	0.151513	-0.414466
C186	C	2.013585	0.484846	-0.081133
C187	C	1.352753	-0.178243	-0.848412
C188	C	1.686087	0.155091	-0.515079
C189	C	2.019420	0.488424	-0.181746
C190	C	1.333408	-0.053836	-0.511768
C191	C	1.666741	0.279497	-0.178435
C192	C	2.000074	0.612831	0.154898
C193	C	1.333485	0.004282	-0.511799
C194	C	1.666818	0.337615	-0.178466
C195	C	2.000151	0.670948	0.154868
C196	C	1.418905	-0.137722	-0.993592
C197	C	1.752239	0.195612	-0.660259
C198	C	2.085572	0.528945	-0.326925
C199	C	1.413428	-0.141081	-0.899057
C200	C	1.746761	0.192252	-0.565724
C201	C	2.080095	0.525585	-0.232391
C202	C	1.297554	-0.212048	-0.892308
C203	C	1.630887	0.121285	-0.558975
C204	C	1.964220	0.454619	-0.225642
C205	C	1.303031	-0.208688	-0.986843
C206	C	1.636365	0.124645	-0.653509
C207	C	1.969698	0.457979	-0.320176
C208	C	1.363708	-0.171523	-1.037481
C209	C	1.697041	0.161810	-0.704148
C210	C	2.030375	0.495144	-0.370815
C211	C	1.369180	-0.168161	-1.132017
C212	C	1.702514	0.165172	-0.798684
C213	C	2.035847	0.498505	-0.465351
C214	C	1.253311	-0.239130	-1.125267
C215	C	1.586645	0.094203	-0.791933
C216	C	1.919978	0.427537	-0.458600
C217	C	1.247834	-0.242490	-1.030732
C218	C	1.581167	0.090844	-0.697399
C219	C	1.914501	0.424177	-0.364065
C220	C	1.319640	-0.198542	-0.276515
C221	C	1.652973	0.134792	0.056818
C222	C	1.986307	0.468125	0.390151
C223	C	1.313981	-0.201966	-0.175913
C224	C	1.647314	0.131367	0.157420
C225	C	1.980648	0.464700	0.490753
H226	H	0.982455	-0.266711	-0.386559
H227	H	1.315789	0.066623	-0.053226
H228	H	1.649122	0.399956	0.280108
H229	H	1.418582	-0.137897	-1.173246
H230	H	1.751916	0.195436	-0.839913
H231	H	2.085249	0.528769	-0.506579
H232	H	1.458376	-0.113557	-0.863327
H233	H	1.791709	0.219777	-0.529993
H234	H	2.125042	0.553110	-0.196660
H235	H	0.684929	-0.113703	-0.636912
H236	H	1.018263	0.219630	-0.303579
H237	H	1.351596	0.552964	0.029755
H238	H	1.208356	-0.266649	-1.161011
H239	H	1.541689	0.066685	-0.827677
H240	H	1.875023	0.400018	-0.494344
H241	H	1.468302	-0.107455	-1.034822
H242	H	1.801635	0.225878	-0.701489
H243	H	2.134968	0.559211	-0.368156
H244	H	1.486883	-0.640387	-0.358373
H245	H	1.820216	-0.307054	-0.025040
H246	H	2.153550	0.026279	0.308293
H247	H	1.198435	-0.272750	-0.989490
H248	H	1.531769	0.060584	-0.656156
H249	H	1.865102	0.393917	-0.322823
H250	H	1.486952	-0.739431	-0.358400
H251	H	1.820285	-0.406098	-0.025067
H252	H	2.153618	-0.072765	0.308266
H253	H	0.994819	-0.138071	-0.596993
H254	H	1.328152	0.195262	-0.263660
H255	H	1.661486	0.528595	0.069674
H256	H	0.856429	-0.107638	-0.646808
H257	H	1.189762	0.225696	-0.313474
H258	H	1.523095	0.559029	0.019859
H259	H	1.248160	-0.242309	-0.851063
H260	H	1.581494	0.091024	-0.517729
H261	H	1.914827	0.424357	-0.184396
H262	H	0.810930	-0.272772	-0.376662
H263	H	1.144264	0.060561	-0.043329
H264	H	1.477597	0.393894	0.290004
H265	H	0.672536	-0.242335	-0.426473
H266	H	1.005869	0.090999	-0.093139
H267	H	1.339203	0.424332	0.240194
H268	H	1.432124	-0.389232	-0.412795
H269	H	1.765457	-0.055899	-0.079461
H270	H	2.098791	0.277435	0.253872
H271	H	1.432209	-0.488279	-0.412827
H272	H	1.765542	-0.154946	-0.079494
H273	H	2.098876	0.178388	0.253840
H274	H	1.432456	-0.891563	-0.412911
H275	H	1.765790	-0.558230	-0.079578
H276	H	2.099123	-0.224897	0.253756
H277	H	1.234439	-0.990659	-0.610648
H278	H	1.567772	-0.657326	-0.277314
H279	H	1.901106	-0.323993	0.056019
H280	H	1.432515	-0.990626	-0.412942
H281	H	1.765849	-0.657293	-0.079608
H282	H	2.099182	-0.323960	0.253725
H283	H	1.234389	-0.891611	-0.610640
H284	H	1.567722	-0.558278	-0.277307
H285	H	1.901055	-0.224945	0.056027
H286	H	1.234064	-0.389273	-0.610514
H287	H	1.567397	-0.055940	-0.277181
H288	H	1.900731	0.277393	0.056153
H289	H	1.179723	-0.739493	-0.665110
H290	H	1.513056	-0.406159	-0.331777
H291	H	1.846389	-0.072826	0.001556
H292	H	1.179677	-0.640445	-0.665095
H293	H	1.513010	-0.307111	-0.331762
H294	H	1.846343	0.026222	0.001571
H295	H	1.234133	-0.488336	-0.610551
H296	H	1.567467	-0.155002	-0.277218
H297	H	1.900800	0.178331	0.056115
