data_functionalizedCrystal
_audit_creation_method	'MofGen! by Chris Wilmer'
_symmetry_space_group_name_H-M	'P1'
_symmetry_Int_Tables_number	1
_symmetry_cell_setting	triclinic
loop_
_symmetry_equiv_pos_as_xyz
  x,y,z
_cell_length_a	13.033808
_cell_length_b	16.625545
_cell_length_c	13.033109
_cell_angle_alpha	97.153577
_cell_angle_beta	89.075520
_cell_angle_gamma	97.220097
loop_
_atom_site_label
_atom_site_type_symbol
_atom_site_fract_x
_atom_site_fract_y
_atom_site_fract_z
Zn1	Zn	1.646058	-0.196890	-0.382101
Zn2	Zn	1.979391	0.136444	-0.048767
Zn3	Zn	2.312724	0.469777	0.284566
Zn4	Zn	1.624089	-0.317044	-0.210141
Zn5	Zn	1.957422	0.016289	0.123193
Zn6	Zn	2.290755	0.349622	0.456526
Zn7	Zn	1.452242	-0.201231	-0.231953
Zn8	Zn	1.785575	0.132103	0.101380
Zn9	Zn	2.118908	0.465436	0.434714
Zn10	Zn	1.474022	-0.350699	-0.403865
Zn11	Zn	1.807355	-0.017366	-0.070532
Zn12	Zn	2.140689	0.315968	0.262802
O13	O	1.549103	-0.266466	-0.307015
O14	O	1.882436	0.066867	0.026318
O15	O	2.215769	0.400201	0.359652
O16	O	1.787060	-0.196927	-0.341053
O17	O	2.120393	0.136406	-0.007720
O18	O	2.453726	0.469739	0.325614
O19	O	1.582983	-0.289413	-0.069123
O20	O	1.916317	0.043920	0.264211
O21	O	2.249650	0.377253	0.597544
O22	O	1.478031	-0.087817	-0.251890
O23	O	1.811364	0.245517	0.081443
O24	O	2.144697	0.578850	0.414776
O25	O	1.770919	-0.285204	-0.214715
O26	O	2.104252	0.048129	0.118619
O27	O	2.437586	0.381462	0.451952
O28	O	1.620427	-0.084627	-0.362203
O29	O	1.953760	0.248706	-0.028870
O30	O	2.287093	0.582039	0.304463
O31	O	1.456728	-0.204326	-0.085148
O32	O	1.790061	0.129008	0.248185
O33	O	2.123395	0.462341	0.581519
O34	O	1.311215	-0.236959	-0.272994
O35	O	1.644548	0.096374	0.060339
O36	O	1.977881	0.429707	0.393672
O37	O	1.515152	-0.342564	-0.544890
O38	O	1.848486	-0.009231	-0.211556
O39	O	2.181819	0.324103	0.121777
O40	O	1.327217	-0.346773	-0.399298
O41	O	1.660550	-0.013440	-0.065964
O42	O	1.993884	0.319894	0.267369
O43	O	1.641546	-0.229561	-0.528899
O44	O	1.974880	0.103773	-0.195566
O45	O	2.308213	0.437106	0.137767
O46	O	1.604103	-0.434347	-0.235819
O47	O	1.937436	-0.101014	0.097515
O48	O	2.270770	0.232320	0.430848
O49	O	1.493850	-0.459073	-0.378147
O50	O	1.827183	-0.125740	-0.044814
O51	O	2.160516	0.207594	0.288519
C52	C	1.281900	-0.295990	-0.340875
C53	C	1.615233	0.037343	-0.007542
C54	C	1.948567	0.370677	0.325791
C55	C	1.167593	-0.308642	-0.355385
C56	C	1.500926	0.024692	-0.022052
C57	C	1.834259	0.358025	0.311281
C58	C	0.990556	-0.272954	-0.314458
C59	C	1.323889	0.060379	0.018876
C60	C	1.657222	0.393712	0.352209
C61	C	1.108698	-0.259878	-0.299457
C62	C	1.442031	0.073455	0.033876
C63	C	1.775364	0.406789	0.367209
C64	C	1.548987	-0.475966	-0.306997
C65	C	1.882320	-0.142633	0.026337
C66	C	2.215653	0.190700	0.359670
C67	C	1.549036	-0.565584	-0.307011
C68	C	1.882369	-0.232251	0.026322
C69	C	2.215702	0.101083	0.359655
C70	C	1.549078	-0.638364	-0.307027
C71	C	1.882411	-0.305031	0.026307
C72	C	2.215745	0.028303	0.359640
C73	C	1.549141	-0.729668	-0.307042
C74	C	1.882474	-0.396334	0.026291
C75	C	2.215808	-0.063001	0.359625
C76	C	1.549196	-0.802439	-0.307048
C77	C	1.882529	-0.469106	0.026285
C78	C	2.215863	-0.135773	0.359619
C79	C	1.549257	-0.893749	-0.307062
C80	C	1.882591	-0.560416	0.026272
C81	C	2.215924	-0.227082	0.359605
C82	C	1.817348	-0.236827	-0.273023
C83	C	2.150682	0.096506	0.060310
C84	C	2.484015	0.429839	0.393644
C85	C	1.931659	-0.224197	-0.258537
C86	C	2.264992	0.109136	0.074796
C87	C	2.598325	0.442469	0.408129
C88	C	1.583229	-0.289332	-0.575253
C89	C	1.916563	0.044001	-0.241919
C90	C	2.249896	0.377334	0.091414
C91	C	1.597772	-0.299076	-0.689560
C92	C	1.931106	0.034257	-0.356226
C93	C	2.264439	0.367590	-0.022893
C94	C	1.549250	-0.056146	-0.307052
C95	C	1.882583	0.277187	0.026281
C96	C	2.215916	0.610520	0.359615
C97	C	1.549312	0.033480	-0.307068
C98	C	1.882646	0.366813	0.026265
C99	C	2.215979	0.700146	0.359599
C100	C	1.541787	-0.261321	-0.748450
C101	C	1.875121	0.072012	-0.415117
C102	C	2.208454	0.405346	-0.081784
C103	C	1.556817	-0.271391	-0.866593
C104	C	1.890150	0.061942	-0.533259
C105	C	2.223483	0.395275	-0.199926
C106	C	1.515168	-0.243624	-0.039813
C107	C	1.848501	0.089709	0.293520
C108	C	2.181834	0.423043	0.626854
C109	C	1.500824	-0.233631	0.074518
C110	C	1.834157	0.099703	0.407852
C111	C	2.167491	0.433036	0.741185
H112	H	1.130558	-0.360070	-0.414369
H113	H	1.463892	-0.026737	-0.081035
H114	H	1.797225	0.306596	0.252298
O115	O	1.430220	-0.186275	-0.881369
O116	O	1.763554	0.147058	-0.548036
O117	O	2.096887	0.480392	-0.214702
C118	C	1.251142	-0.163632	-0.870529
C119	C	1.584476	0.169701	-0.537195
C120	C	1.917809	0.503035	-0.203862
C121	C	1.330986	-0.217340	-0.920545
C122	C	1.664319	0.115993	-0.587212
C123	C	1.997653	0.449327	-0.253878
H124	H	1.170897	-0.188717	-0.902198
H125	H	1.504230	0.144616	-0.568865
H126	H	1.837563	0.477949	-0.235532
H127	H	1.251479	-0.163976	-0.783118
H128	H	1.584813	0.169358	-0.449785
H129	H	1.918146	0.502691	-0.116451
H130	H	1.271963	-0.098398	-0.889294
H131	H	1.605296	0.234935	-0.555961
H132	H	1.938629	0.568269	-0.222627
H133	H	1.310222	-0.282598	-0.901860
H134	H	1.643555	0.050735	-0.568527
H135	H	1.976888	0.384069	-0.235193
H136	H	1.330634	-0.216927	-1.007943
H137	H	1.663967	0.116407	-0.674609
H138	H	1.997301	0.449740	-0.341276
H139	H	0.968699	-0.172777	-0.199553
H140	H	1.302032	0.160557	0.133780
H141	H	1.635365	0.493890	0.467113
H142	H	1.145733	-0.208454	-0.240469
H143	H	1.479066	0.124880	0.092864
H144	H	1.812400	0.458213	0.426198
H145	H	1.482726	-0.221546	-0.711405
H146	H	1.816059	0.111788	-0.378072
H147	H	2.149393	0.445121	-0.044738
H148	H	0.953515	-0.324380	-0.373434
H149	H	1.286848	0.008953	-0.040101
H150	H	1.620181	0.342286	0.293232
H151	H	1.615877	-0.311174	-0.903634
H152	H	1.949210	0.022159	-0.570301
H153	H	2.282544	0.355493	-0.236967
O154	O	1.668221	-0.346472	-0.733907
O155	O	2.001554	-0.013139	-0.400574
O156	O	2.334888	0.320195	-0.067240
C157	C	1.747364	-0.399785	-0.892100
C158	C	2.080697	-0.066451	-0.558767
C159	C	2.414031	0.266882	-0.225433
C160	C	1.667558	-0.346071	-0.842014
C161	C	2.000891	-0.012738	-0.508680
C162	C	2.334225	0.320595	-0.175347
H163	H	1.746839	-0.399492	-0.979513
H164	H	2.080173	-0.066159	-0.646180
H165	H	2.413506	0.267174	-0.312846
H166	H	1.827672	-0.374678	-0.860607
H167	H	2.161005	-0.041344	-0.527273
H168	H	2.494338	0.291989	-0.193940
H169	H	1.726609	-0.465003	-0.873255
H170	H	2.059942	-0.131670	-0.539921
H171	H	2.393276	0.201664	-0.206588
H172	H	1.688216	-0.280841	-0.860839
H173	H	2.021550	0.052492	-0.527506
H174	H	2.354883	0.385825	-0.194172
H175	H	1.587273	-0.371246	-0.873509
H176	H	1.920606	-0.037912	-0.540176
H177	H	2.253939	0.295421	-0.206843
