data_functionalizedCrystal
_audit_creation_method	'MofGen! by Chris Wilmer'
_symmetry_space_group_name_H-M	'P1'
_symmetry_Int_Tables_number	1
_symmetry_cell_setting	triclinic
loop_
_symmetry_equiv_pos_as_xyz
  x,y,z
_cell_length_a	12.777686
_cell_length_b	15.624803
_cell_length_c	15.625605
_cell_angle_alpha	39.022070
_cell_angle_beta	97.079234
_cell_angle_gamma	82.921597
loop_
_atom_site_label
_atom_site_type_symbol
_atom_site_fract_x
_atom_site_fract_y
_atom_site_fract_z
O1	O	0.351563	0.482423	0.711725
O2	O	0.328324	0.351061	0.580354
O3	O	0.188479	0.421488	0.650797
O4	O	0.491408	0.411995	0.641282
O5	O	0.119372	0.650769	0.421531
O6	O	0.259218	0.580342	0.351088
O7	O	0.282457	0.711703	0.482459
Zn8	Zn	0.259865	0.682426	0.380372
Zn9	Zn	0.350916	0.380339	0.682440
O10	O	0.422302	0.641276	0.412016
C11	C	0.287973	0.448913	0.448931
C12	C	0.270684	0.398889	0.398905
C13	C	0.495991	0.526626	0.526649
C14	C	0.614793	0.526626	0.526651
C15	C	0.114793	0.536127	0.536175
C16	C	-0.004007	0.536121	0.536178
C17	C	0.402158	-0.390581	0.859377
C18	C	0.385892	-0.437582	0.812369
C19	C	0.310551	-0.187641	0.562421
C20	C	0.326806	-0.140617	0.609409
C21	C	0.372611	-0.242096	0.757889
C22	C	0.297259	0.007868	0.507920
C23	C	0.313518	0.054887	0.554905
C24	C	0.359325	-0.046579	0.703378
C25	C	0.388871	-0.195077	0.804873
C26	C	0.251461	0.109344	0.359440
C27	C	0.221914	0.257830	0.257952
C28	C	0.238166	0.304851	0.304936
C29	C	0.283972	0.203385	0.453409
C30	C	0.208620	0.453349	0.203441
C31	C	0.224879	0.500368	0.250425
C32	C	0.300232	0.250404	0.500394
O33	O	0.991407	0.421486	0.650802
O34	O	0.688469	0.411993	0.641274
O35	O	0.828320	0.482409	0.711734
O36	O	0.851557	0.351070	0.580341
O37	O	0.759224	0.711694	0.482473
O38	O	0.619374	0.641277	0.412012
O39	O	0.922312	0.650771	0.421540
Zn40	Zn	0.759873	0.682428	0.380376
Zn41	Zn	0.850909	0.380335	0.682438
O42	O	0.782462	0.580354	0.351080
C43	C	0.322809	0.613848	0.613884
C44	C	0.340100	0.663863	0.663920
C45	C	0.787975	0.613835	0.613897
C46	C	0.770688	0.663845	0.663936
C47	C	0.822804	0.448938	0.448907
C48	C	0.840082	0.398956	0.398839
C49	C	0.902122	0.203460	1.453320
C50	C	0.885865	0.250494	1.500297
C51	C	0.810543	0.500443	1.250357
C52	C	0.826799	0.453430	1.203357
C53	C	0.872587	0.304937	1.304847
C54	C	0.797264	0.554906	1.054884
C55	C	0.813513	0.507896	1.007889
C56	C	0.859296	0.359409	1.109367
C57	C	0.888836	0.257926	1.257852
C58	C	0.751468	0.703399	0.953396
C59	C	0.721934	0.804875	0.804923
C60	C	0.738190	0.757866	0.757926
C61	C	0.783973	0.609379	0.859404
C62	C	0.708650	0.859349	0.609441
C63	C	0.724899	0.812338	0.562446
C64	C	0.800222	0.562369	0.812409
N65	N	0.197726	0.888596	0.174223
N66	N	0.413048	0.174173	0.888594
N67	N	0.697751	0.888600	0.174228
N68	N	0.913041	0.174168	0.888591
C69	C	0.114084	0.991915	0.133309
C70	C	0.070564	1.136249	-0.010996
C71	C	0.110694	1.177263	-0.114382
C72	C	0.194341	1.073930	-0.073462
C73	C	0.237854	0.929597	0.070838
C74	C	0.373015	0.133297	0.991965
C75	C	0.416496	-0.011017	1.136290
C76	C	0.500004	-0.114455	1.177239
C77	C	0.540041	-0.073571	1.073856
C78	C	0.496566	0.070743	0.929536
C79	C	0.603978	0.987543	0.128877
C80	C	0.560484	1.131873	-0.015432
C81	C	0.610770	1.177259	-0.114385
C82	C	0.704550	1.078303	-0.069028
C83	C	0.748037	0.933973	0.075277
C84	C	1.006547	0.075093	0.933805
C85	C	1.050048	-0.069234	1.078117
C86	C	1.000047	-0.114480	1.177215
C87	C	0.906530	-0.015393	1.131992
C88	C	0.863025	0.128928	0.987679
H89	H	0.337527	0.167768	0.621301
C90	C	0.281160	0.247059	0.946956
N91	N	0.211980	0.332739	0.913069
H92	H	0.773257	0.621347	1.167735
C93	C	1.061563	0.124829	0.824818
N94	N	1.103003	0.162277	0.742733
H95	H	1.126190	-0.149897	1.114912
C96	C	0.260164	-0.076029	0.399097
N97	N	0.222207	0.008042	0.276079
H98	H	0.575356	1.294789	-0.231879
C99	C	0.851525	-0.065194	1.241012
N100	N	0.810096	-0.102711	1.323131
C101	C	0.939214	0.094576	1.369495
N102	N	0.977156	-0.028454	1.453580
H103	H	0.200825	0.621276	0.167782
H104	H	0.745493	1.115284	-0.149612
C105	C	0.760163	0.237900	0.937963
N106	N	0.682682	0.319971	0.900525
C107	C	0.540604	0.115682	0.815834
N108	N	0.573778	0.149520	0.730198
H109	H	0.700881	0.894973	0.441550
C110	C	0.069917	0.946830	0.247010
N111	N	0.036638	0.912880	0.332640
C112	C	0.733613	0.755108	1.005098
N113	N	0.720174	0.794055	1.044042
C114	C	0.952500	0.040110	1.564963
N115	N	0.990441	-0.082921	1.649047
H116	H	0.684648	0.925779	0.722302
C117	C	0.158243	0.564958	0.040117
N118	N	0.120298	0.649025	-0.082901
C119	C	0.851208	0.825155	0.125150
N120	N	0.928921	0.743201	0.162708
C121	C	0.657577	1.022636	0.497775
N122	N	0.618855	1.145609	0.413651
H123	H	1.035475	-0.232003	1.294716
H124	H	0.002458	1.220370	-0.044290
H125	H	0.909931	0.167849	1.621205
C126	C	0.631895	-0.187375	1.118920
N127	N	0.701074	-0.273100	1.152866
C128	C	0.548638	0.937647	0.237701
N129	N	0.506945	0.900073	0.319657
H130	H	0.372569	-0.008288	0.741630
C131	C	0.457326	1.240700	-0.065295
N132	N	0.379628	1.322665	-0.102847
H133	H	0.426166	-0.277713	0.925780
C134	C	0.329930	0.815981	0.115847
N135	N	0.399305	0.730419	0.149747
H136	H	0.227008	1.107342	-0.157657
H137	H	0.439454	-0.473217	0.980284
C138	C	0.372429	-0.055963	1.249984
N139	N	0.339234	-0.089812	1.335613
C140	C	0.171527	0.369442	0.094628
N141	N	0.133570	0.453513	-0.028390
C142	C	0.418399	-0.600934	0.924027
N143	N	0.442885	-0.723969	1.008127
H144	H	0.535396	-0.231960	1.294757
C145	C	0.850601	0.399018	0.924052
N146	N	0.888542	0.275988	1.008136
H147	H	0.872531	0.321136	1.071095
H148	H	0.238230	0.071050	0.321190
H149	H	0.075255	1.294793	-0.231877
