data_functionalizedCrystal
_audit_creation_method	'MofGen! by Chris Wilmer'
_symmetry_space_group_name_H-M	'P1'
_symmetry_Int_Tables_number	1
_symmetry_cell_setting	triclinic
loop_
_symmetry_equiv_pos_as_xyz
  x,y,z
_cell_length_a	12.827893
_cell_length_b	12.759400
_cell_length_c	12.827885
_cell_angle_alpha	89.969506
_cell_angle_beta	89.980538
_cell_angle_gamma	90.014655
loop_
_atom_site_label
_atom_site_type_symbol
_atom_site_fract_x
_atom_site_fract_y
_atom_site_fract_z
Zn1	Zn	1.597677	-0.418216	-0.590844
Zn2	Zn	2.097677	0.081784	-0.090844
Zn3	Zn	1.597572	-0.593932	-0.416102
Zn4	Zn	2.097572	-0.093932	0.083898
Zn5	Zn	1.422918	-0.418267	-0.416117
Zn6	Zn	1.922918	0.081733	0.083883
Zn7	Zn	1.422906	-0.593854	-0.590802
Zn8	Zn	1.922906	-0.093854	-0.090802
O9	O	1.510268	-0.506067	-0.503466
O10	O	2.010268	-0.006067	-0.003466
O11	O	1.743899	-0.441537	-0.567675
O12	O	2.243899	0.058463	-0.067675
O13	O	1.574365	-0.570684	-0.269868
O14	O	2.074365	-0.070684	0.230132
O15	O	1.446148	-0.271240	-0.439319
O16	O	1.946148	0.228760	0.060681
O17	O	1.743822	-0.570634	-0.439293
O18	O	2.243822	-0.070634	0.060707
O19	O	1.574543	-0.271202	-0.567690
O20	O	2.074543	0.228798	-0.067690
O21	O	1.446047	-0.441624	-0.269879
O22	O	1.946047	0.058376	0.230121
O23	O	1.276680	-0.441548	-0.439278
O24	O	1.776680	0.058452	0.060722
O25	O	1.446128	-0.570501	-0.737043
O26	O	1.946128	-0.070501	-0.237043
O27	O	1.276671	-0.570550	-0.567618
O28	O	1.776671	-0.070550	-0.067618
O29	O	1.574532	-0.441461	-0.737074
O30	O	2.074532	0.058539	-0.237074
O31	O	1.574354	-0.740942	-0.439252
O32	O	2.074354	-0.240942	0.060748
O33	O	1.446027	-0.740885	-0.567603
O34	O	1.946027	-0.240885	-0.067603
C35	C	1.238758	-0.506047	-0.503446
C36	C	1.738758	-0.006047	-0.003446
C37	C	1.122605	-0.506064	-0.503462
C38	C	1.622605	-0.006064	-0.003462
C39	C	1.070844	-0.569998	-0.566871
C40	C	1.570844	-0.069998	-0.066871
C41	C	0.950793	-0.570017	-0.566889
C42	C	1.450793	-0.070017	-0.066889
C43	C	1.510206	-0.779035	-0.503444
C44	C	2.010206	-0.279035	-0.003444
C45	C	1.510275	-0.895811	-0.503470
C46	C	2.010275	-0.395811	-0.003470
C47	C	1.577169	-0.950668	-0.436711
C48	C	2.077169	-0.450668	0.063289
C49	C	1.577233	-1.060392	-0.436743
C50	C	2.077233	-0.560392	0.063257
C51	C	1.443500	-1.060393	-0.570296
C52	C	1.943500	-0.560393	-0.070296
C53	C	1.443442	-0.950671	-0.570268
C54	C	1.943442	-0.450671	-0.070268
C55	C	1.644002	-0.895809	-0.369913
C56	C	2.144002	-0.395809	0.130087
C57	C	1.710900	-0.950666	-0.303148
C58	C	2.210900	-0.450666	0.196852
C59	C	1.710965	-1.060390	-0.303180
C60	C	2.210965	-0.560390	0.196820
C61	C	1.644130	-1.115257	-0.369977
C62	C	2.144130	-0.615257	0.130023
C63	C	1.782838	-0.506088	-0.503487
C64	C	2.282838	-0.006088	-0.003487
C65	C	1.898991	-0.506097	-0.503495
C66	C	2.398991	-0.006097	-0.003495
C67	C	1.510340	-0.505966	-0.776036
C68	C	2.010340	-0.005966	-0.276036
C69	C	1.510371	-0.505923	-0.892190
C70	C	2.010371	-0.005923	-0.392190
C71	C	1.510359	-0.232034	-0.503511
C72	C	2.010359	0.267966	-0.003511
C73	C	1.510397	-0.115257	-0.503530
C74	C	2.010397	0.384743	-0.003530
C75	C	1.446895	-0.442048	-0.943980
C76	C	1.946895	0.057952	-0.443980
C77	C	1.446925	-0.442002	-1.064030
C78	C	1.946925	0.057998	-0.564030
C79	C	1.510256	-0.506092	-0.231956
C80	C	2.010256	-0.006092	0.268044
C81	C	1.510428	-0.505839	-0.115803
C82	C	2.010428	-0.005839	0.384197
H83	H	1.078043	-0.451337	-0.449194
H84	H	1.578043	0.048663	0.050806
H85	H	1.644196	-1.204602	-0.370006
H86	H	2.144196	-0.704602	0.129994
O87	O	1.643937	-0.777465	-0.369860
O88	O	2.143937	-0.277465	0.130140
H89	H	1.565110	-0.748627	-0.348655
H90	H	2.065110	-0.248627	0.151345
H91	H	0.943498	-0.451362	-0.449202
H92	H	1.443498	0.048638	0.050798
H93	H	1.115405	-0.624717	-0.621148
H94	H	1.615405	-0.124717	-0.121148
O95	O	0.891835	-0.642611	-0.638715
O96	O	1.391835	-0.142611	-0.138715
H97	H	0.948049	-0.689466	-0.685113
H98	H	1.448049	-0.189466	-0.185113
H99	H	1.765321	-0.905988	-0.248770
H100	H	2.265321	-0.405988	0.251230
H101	H	1.765444	-1.105052	-0.248825
H102	H	2.265444	-0.605052	0.251175
O103	O	1.582428	-0.578284	-1.056832
O104	O	2.082428	-0.078284	-0.556832
H105	H	1.535585	-0.631716	-1.007096
H106	H	2.035585	-0.131716	-0.507096
O107	O	1.371400	-1.119563	-0.642321
O108	O	1.871400	-0.619563	-0.142321
H109	H	1.382668	-1.205076	-0.631113
H110	H	1.882668	-0.705076	-0.131113
H111	H	1.388972	-0.906006	-0.624630
H112	H	1.888972	-0.406006	-0.124630
H113	H	1.564736	-0.560577	-0.936727
H114	H	2.064736	-0.060577	-0.436727
O115	O	1.374878	-0.369651	-0.884992
O116	O	1.874878	0.130349	-0.384992
H117	H	1.328381	-0.322858	-0.941191
H118	H	1.828381	0.177142	-0.441191
O119	O	1.374948	-0.369543	-1.123013
O120	O	1.874948	0.130457	-0.623013
H121	H	1.386269	-0.380875	-1.208048
H122	H	1.886269	0.119125	-0.708048
