data_functionalizedCrystal
_audit_creation_method	'MofGen! by Chris Wilmer'
_symmetry_space_group_name_H-M	'P1'
_symmetry_Int_Tables_number	1
_symmetry_cell_setting	triclinic
loop_
_symmetry_equiv_pos_as_xyz
  x,y,z
_cell_length_a	13.262402
_cell_length_b	13.339070
_cell_length_c	10.065875
_cell_angle_alpha	101.189098
_cell_angle_beta	96.893138
_cell_angle_gamma	99.431904
loop_
_atom_site_label
_atom_site_type_symbol
_atom_site_fract_x
_atom_site_fract_y
_atom_site_fract_z
O1	O	1.393114	0.189179	0.403670
O2	O	1.102355	0.189909	0.295730
O3	O	1.214364	0.040517	0.337316
O4	O	1.281105	0.338571	0.362084
O5	O	1.193039	0.069125	0.556387
O6	O	1.081029	0.218517	0.514802
O7	O	1.371789	0.217787	0.622741
Zn8	Zn	1.223023	0.222694	0.603553
Zn9	Zn	1.251120	0.185002	0.314918
O10	O	1.259779	0.367179	0.581155
C11	C	1.053718	0.201539	0.391169
C12	C	0.940563	0.193561	0.349162
C13	C	0.899026	0.174217	0.210007
C14	C	0.792713	0.166731	0.170543
C15	C	0.727925	0.178581	0.270228
C16	C	0.769461	0.197918	0.409385
C17	C	0.875785	0.205413	0.448854
C18	C	0.704684	0.209776	0.509075
C19	C	0.746219	0.229114	0.648232
C20	C	0.852534	0.236606	0.687694
C21	C	0.917322	0.224757	0.588009
C22	C	0.598359	0.202282	0.469605
C23	C	0.575118	0.233477	0.708452
C24	C	0.681431	0.240963	0.747917
C25	C	1.192428	0.016535	0.442665
C26	C	1.158825	-0.097544	0.430184
C27	C	1.420111	-0.448522	0.527183
C28	C	1.451686	-0.341339	0.538918
C29	C	1.378473	-0.280385	0.511735
C30	C	1.273681	-0.326625	0.472817
C31	C	1.242102	-0.433818	0.461091
C32	C	1.200464	-0.265680	0.445643
C33	C	1.095671	-0.311921	0.406725
C34	C	1.064098	-0.419103	0.395001
C35	C	1.137311	-0.480057	0.422183
C36	C	1.232043	-0.158488	0.457368
C37	C	1.054033	-0.143783	0.391276
C38	C	1.022459	-0.250967	0.379542
C39	C	1.420426	0.206156	0.527300
C40	C	1.533581	0.214133	0.569298
C41	C	1.281716	0.391160	0.475804
C42	C	1.315320	0.505238	0.488275
N43	N	1.203855	0.248417	0.800543
N44	N	1.270294	0.159271	0.117931
C45	C	1.244443	0.193945	0.883390
C46	C	1.229700	0.213751	1.035084
H47	H	0.886350	0.252362	0.801005
H48	H	0.715265	0.256709	0.861221
Cl49	Cl	0.932357	-0.477229	0.346094
H50	H	0.994416	-0.094153	0.369148
Cl51	Cl	1.314652	0.099061	0.819416
Cl52	Cl	1.363777	-0.100370	0.506292
H53	H	1.184030	0.275050	1.076449
Cl54	Cl	1.341077	0.064853	1.054178
H55	H	1.158187	0.309712	0.841914
Cl56	Cl	0.740505	0.142423	-0.004389
Cl57	Cl	0.546156	0.177972	0.294672
H58	H	1.537008	-0.303697	0.570607
H59	H	1.404188	-0.193111	0.521292
Cl60	Cl	0.493678	0.248381	0.833780
H61	H	0.641361	0.172485	0.238087
H62	H	0.951786	0.164579	0.128859
H63	H	1.479708	-0.498159	0.549322
H64	H	1.003891	0.230844	0.620134
H65	H	0.937134	-0.288631	0.347855
Cl66	Cl	1.097636	-0.614829	0.407277
