data_functionalizedCrystal
_audit_creation_method	'MofGen! by Chris Wilmer'
_symmetry_space_group_name_H-M	'P1'
_symmetry_Int_Tables_number	1
_symmetry_cell_setting	triclinic
loop_
_symmetry_equiv_pos_as_xyz
  x,y,z
_cell_length_a	16.959455
_cell_length_b	16.959447
_cell_length_c	16.959453
_cell_angle_alpha	90.031096
_cell_angle_beta	89.976231
_cell_angle_gamma	89.983277
loop_
_atom_site_label
_atom_site_type_symbol
_atom_site_fract_x
_atom_site_fract_y
_atom_site_fract_z
Zn1	Zn	1.208358	-0.446955	0.314688
Zn2	Zn	1.708358	0.053045	0.814688
Zn3	Zn	1.208269	-0.314775	0.446881
Zn4	Zn	1.708269	0.185225	0.946881
Zn5	Zn	1.076186	-0.314787	0.314718
Zn6	Zn	1.576186	0.185213	0.814718
Zn7	Zn	1.076140	-0.446908	0.446826
Zn8	Zn	1.576140	0.053092	0.946826
O9	O	1.142238	-0.380856	0.380778
O10	O	1.642238	0.119144	0.880778
O11	O	1.318957	-0.429436	0.332234
O12	O	1.818957	0.070564	0.832234
O13	O	1.190731	-0.204165	0.429384
O14	O	1.690731	0.295835	0.929384
O15	O	1.093775	-0.332344	0.204103
O16	O	1.593775	0.167656	0.704103
O17	O	1.318892	-0.332323	0.429355
O18	O	1.818892	0.167677	0.929355
O19	O	1.190881	-0.429448	0.204081
O20	O	1.690881	0.070552	0.704081
O21	O	1.093690	-0.204174	0.332284
O22	O	1.593690	0.295826	0.832284
O23	O	0.965569	-0.332298	0.332232
O24	O	1.465569	0.167702	0.832232
O25	O	1.093697	-0.557525	0.429263
O26	O	1.593697	-0.057525	0.929263
O27	O	0.965535	-0.429367	0.429291
O28	O	1.465535	0.070633	0.929291
O29	O	1.190836	-0.557560	0.332181
O30	O	1.690836	-0.057560	0.832181
O31	O	1.190686	-0.332277	0.557484
O32	O	1.690686	0.167723	1.057484
O33	O	1.093611	-0.429355	0.557444
O34	O	1.593611	0.070645	1.057444
C35	C	0.936872	-0.380829	0.380759
C36	C	1.436872	0.119171	0.880759
C37	C	0.849015	-0.380837	0.380770
C38	C	1.349015	0.119163	0.880770
C39	C	0.807736	-0.330379	0.330164
C40	C	1.307736	0.169621	0.830164
C41	C	0.807742	-0.431307	0.431383
C42	C	1.307742	0.068693	0.931383
C43	C	0.725196	-0.431318	0.431392
C44	C	1.225196	0.068682	0.931392
C45	C	0.683916	-0.380860	0.380785
C46	C	1.183916	0.119140	0.880785
C47	C	0.725182	-0.330390	0.330169
C48	C	1.225182	0.169610	0.830169
C49	C	0.683923	-0.481793	0.482001
C50	C	1.183923	0.018207	0.982001
C51	C	0.601372	-0.481807	0.482011
C52	C	1.101372	0.018193	0.982011
C53	C	0.560091	-0.431344	0.431408
C54	C	1.060091	0.068656	0.931408
C55	C	0.601362	-0.380872	0.380791
C56	C	1.101362	0.119128	0.880791
C57	C	0.560083	-0.330414	0.330184
C58	C	1.060083	0.169586	0.830184
C59	C	0.601352	-0.279937	0.279571
C60	C	1.101352	0.220063	0.779571
C61	C	0.683901	-0.279928	0.279566
C62	C	1.183901	0.220072	0.779566
C63	C	0.477543	-0.431353	0.431413
C64	C	0.977543	0.068647	0.931413
C65	C	0.477529	-0.330425	0.330190
C66	C	0.977529	0.169575	0.830190
C67	C	1.142271	-0.587024	0.380713
C68	C	1.642271	-0.087024	0.880713
C69	C	1.142285	-0.674881	0.380685
C70	C	1.642285	-0.174881	0.880685
C71	C	1.091803	-1.046341	0.431147
C72	C	1.591803	-0.546341	0.931147
C73	C	1.192956	-1.046373	0.330056
C74	C	1.692956	-0.546373	0.830056
C75	C	1.192935	-0.963827	0.330072
C76	C	1.692935	-0.463827	0.830072
C77	C	1.142348	-0.922534	0.380628
C78	C	1.642348	-0.422534	0.880628
C79	C	1.091782	-0.963788	0.431167
C80	C	1.591782	-0.463788	0.931167
C81	C	1.243505	-0.922567	0.279540
C82	C	1.743505	-0.422567	0.779540
C83	C	1.243487	-0.840016	0.279555
C84	C	1.743487	-0.340016	0.779555
C85	C	1.192896	-0.798722	0.330108
C86	C	1.692896	-0.298722	0.830108
C87	C	1.142327	-0.839981	0.380648
C88	C	1.642327	-0.339981	0.880648
C89	C	1.091740	-0.798688	0.431204
C90	C	1.591740	-0.298688	0.931204
C91	C	1.041167	-0.839945	0.481741
C92	C	1.541167	-0.339945	0.981741
C93	C	1.041191	-0.922494	0.481719
C94	C	1.541191	-0.422494	0.981719
C95	C	1.192872	-0.716174	0.330129
C96	C	1.692872	-0.216174	0.830129
C97	C	1.091719	-0.716135	0.431224
C98	C	1.591719	-0.216135	0.931224
C99	C	1.348406	-0.380883	0.380798
C100	C	1.848406	0.119117	0.880798
C101	C	1.436263	-0.380895	0.380806
C102	C	1.936263	0.119105	0.880806
C103	C	1.142155	-0.380827	0.586144
C104	C	1.642155	0.119173	1.086144
C105	C	1.142192	-0.380841	0.674001
C106	C	1.642192	0.119159	1.174001
C107	C	1.142251	-0.175490	0.380786
C108	C	1.642251	0.324510	0.880786
C109	C	1.142390	-0.087634	0.380591
C110	C	1.642390	0.412366	0.880591
C111	C	1.142343	-0.380903	0.174610
C112	C	1.642343	0.119097	0.674610
C113	C	1.142388	-0.380922	0.086753
C114	C	1.642388	0.119078	0.586753
C115	C	1.091624	-0.431349	0.715283
C116	C	1.591624	0.068651	1.215283
C117	C	1.192798	-0.330351	0.715272
C118	C	1.692798	0.169649	1.215272
C119	C	1.192838	-0.330365	0.797818
C120	C	1.692838	0.169635	1.297818
C121	C	1.142270	-0.380873	0.839100
C122	C	1.642270	0.119127	1.339100
C123	C	1.091664	-0.431367	0.797837
C124	C	1.591664	0.068633	1.297837
C125	C	1.243449	-0.279878	0.839088
C126	C	1.743449	0.220122	1.339088
C127	C	1.243491	-0.279891	0.921639
C128	C	1.743491	0.220109	1.421639
C129	C	1.192919	-0.330395	0.962923
C130	C	1.692919	0.169605	1.462923
C131	C	1.142310	-0.380891	0.921654
C132	C	1.642310	0.119109	1.421654
C133	C	1.091742	-0.431399	0.962936
C134	C	1.591742	0.068601	1.462936
C135	C	1.041129	-0.481890	0.921669
C136	C	1.541129	0.018110	1.421669
C137	C	1.041092	-0.481871	0.839120
C138	C	1.541092	0.018129	1.339120
C139	C	1.192955	-0.330414	1.045471
C140	C	1.692955	0.169586	1.545471
C141	C	1.091782	-0.431416	1.045490
C142	C	1.591782	0.068584	1.545490
H143	H	0.717510	-0.238833	0.238359
H144	H	1.217510	0.261167	0.738359
O145	O	1.298078	-0.225429	0.966138
O146	O	1.798078	0.274571	1.466138
H147	H	1.338291	-0.260854	1.003681
H148	H	1.838291	0.239146	1.503681
H149	H	1.234050	-0.682586	0.288985
H150	H	1.734050	-0.182586	0.788985
O151	O	0.852240	-0.275931	0.275580
O152	O	1.352240	0.224069	0.775580
H153	H	0.836420	-0.289588	0.213560
H154	H	1.336420	0.210412	0.713560
H155	H	1.050518	-0.682520	0.472386
H156	H	1.550518	-0.182520	0.972386
O157	O	1.298030	-0.795519	0.225051
O158	O	1.798030	-0.295519	0.725051
H159	H	1.284506	-0.811379	0.163009
H160	H	1.784506	-0.311379	0.663009
H161	H	0.443945	-0.472456	0.472616
H162	H	0.943945	0.027544	0.972616
H163	H	1.284623	-0.238759	0.805474
H164	H	1.784623	0.261241	1.305474
O165	O	1.247536	-0.275962	1.089984
O166	O	1.747536	0.224038	1.589984
H167	H	1.282690	-0.240836	1.047409
H168	H	1.782690	0.259164	1.547409
O169	O	0.556813	-0.225516	0.224997
O170	O	1.056813	0.274484	0.724997
H171	H	0.572671	-0.239172	0.162971
H172	H	1.072671	0.260828	0.662971
H173	H	1.050603	-0.472547	1.079096
H174	H	1.550603	0.027453	1.579096
O175	O	1.298036	-0.967099	0.224985
O176	O	1.798036	-0.467099	0.724985
H177	H	1.289535	-1.031431	0.233445
H178	H	1.789535	-0.531431	0.733445
H179	H	0.999960	-0.523018	0.955291
H180	H	1.499960	-0.023018	1.455291
O181	O	0.852258	-0.485752	0.485940
O182	O	1.352258	0.014248	0.985940
H183	H	0.916593	-0.477271	0.477426
H184	H	1.416593	0.022729	0.977426
H185	H	0.999983	-0.806314	0.522907
H186	H	1.499983	-0.306314	1.022907
O187	O	1.037255	-1.090836	0.485647
O188	O	1.537255	-0.590836	0.985647
H189	H	1.050768	-1.074974	0.547690
H190	H	1.550768	-0.574974	1.047690
O191	O	1.247494	-1.090903	0.275507
O192	O	1.747494	-0.590903	0.775507
H193	H	1.239003	-1.155236	0.283973
H194	H	1.739003	-0.655236	0.783973
O195	O	0.986511	-0.536334	0.794614
O196	O	1.486511	-0.036334	1.294614
H197	H	0.994989	-0.527843	0.730278
H198	H	1.494989	-0.027843	1.230278
H199	H	1.000020	-0.956093	0.522866
H200	H	1.500020	-0.456093	1.022866
O201	O	1.037037	-0.485810	0.670783
O202	O	1.537037	0.014190	1.170783
H203	H	1.045504	-0.477319	0.606445
H204	H	1.545504	0.022681	1.106445
O205	O	0.728442	-0.536246	0.536549
O206	O	1.228442	-0.036246	1.036549
H207	H	0.792776	-0.527761	0.528036
H208	H	1.292776	-0.027761	1.028036
H209	H	1.233973	-0.289232	0.681658
H210	H	1.733973	0.210768	1.181658
O211	O	0.556861	-0.536138	0.536705
O212	O	1.056861	-0.036138	1.036705
H213	H	0.599435	-0.571181	0.571934
H214	H	1.099435	-0.071181	1.071934
H215	H	0.443925	-0.289334	0.288981
H216	H	0.943925	0.210666	0.788981
