data_functionalizedCrystal
_audit_creation_method	'MofGen! by Chris Wilmer'
_symmetry_space_group_name_H-M	'P1'
_symmetry_Int_Tables_number	1
_symmetry_cell_setting	triclinic
loop_
_symmetry_equiv_pos_as_xyz
  x,y,z
_cell_length_a	17.640280
_cell_length_b	15.298073
_cell_length_c	15.296720
_cell_angle_alpha	91.646683
_cell_angle_beta	90.295581
_cell_angle_gamma	93.442077
loop_
_atom_site_label
_atom_site_type_symbol
_atom_site_fract_x
_atom_site_fract_y
_atom_site_fract_z
Zn1	Zn	-0.220229	-1.311289	-0.686692
Zn2	Zn	-0.319637	-1.362695	-0.521846
Zn3	Zn	-0.213033	-1.188278	-0.516185
Zn4	Zn	-0.361127	-1.201836	-0.635195
O5	O	-0.278506	-1.266024	-0.589979
O6	O	-0.219064	-1.436909	-0.688746
O7	O	-0.285121	-1.355397	-0.402301
O8	O	-0.110407	-1.177408	-0.557985
O9	O	-0.292099	-1.474676	-0.567635
O10	O	-0.115694	-1.267784	-0.683256
O11	O	-0.206799	-1.227253	-0.398142
O12	O	-0.247030	-1.071275	-0.508051
O13	O	-0.362811	-1.200516	-0.760820
O14	O	-0.355834	-1.081237	-0.595486
O15	O	-0.259294	-1.280931	-0.798655
O16	O	-0.428722	-1.368544	-0.517700
O17	O	-0.459204	-1.250362	-0.600976
C18	C	-0.305154	-1.045452	-0.545566
C19	C	-0.316575	-0.951093	-0.526583
C20	C	-0.197023	-0.606490	-0.725588
C21	C	-0.186295	-0.695145	-0.743428
C22	C	-0.218864	-0.759136	-0.689218
C23	C	-0.262163	-0.734463	-0.617165
C24	C	-0.272896	-0.645800	-0.599327
C25	C	-0.294737	-0.798446	-0.562958
C26	C	-0.338036	-0.773774	-0.490905
C27	C	-0.348767	-0.685118	-0.473070
C28	C	-0.316199	-0.621127	-0.527280
C29	C	-0.284004	-0.887110	-0.580796
C30	C	-0.359877	-0.926420	-0.454536
C31	C	-0.370605	-0.837765	-0.436695
C32	C	-0.470820	-1.316523	-0.554387
C33	C	-0.553088	-1.338201	-0.539205
C34	C	-0.903121	-1.101651	-0.705697
C35	C	-0.980419	-1.122025	-0.691404
C36	C	-0.948624	-1.245141	-0.604812
C37	C	-0.871321	-1.224779	-0.619101
C38	C	-0.848576	-1.153032	-0.669544
C39	C	-0.816776	-1.276161	-0.582948
C40	C	-0.739480	-1.255798	-0.597232
C41	C	-0.716729	-1.184053	-0.647670
C42	C	-0.771280	-1.132669	-0.683828
C43	C	-0.839522	-1.347904	-0.532500
C44	C	-0.784978	-1.399286	-0.496347
C45	C	-0.707680	-1.378927	-0.510636
C46	C	-0.684929	-1.307182	-0.561074
C47	C	-0.653129	-1.430310	-0.474478
C48	C	-0.575833	-1.409947	-0.488763
C49	C	-0.607633	-1.286819	-0.575359
C50	C	-0.085442	-1.215349	-0.625734
C51	C	-0.003170	-1.193755	-0.640970
C52	C	-0.316483	-1.236502	-0.811401
C53	C	-0.332667	-1.223921	-0.905757
C54	C	-0.251748	-0.487457	-0.634560
C55	C	-0.240325	-0.581817	-0.653540
C56	C	-0.162707	-1.355938	-1.250528
C57	C	-0.147502	-1.367764	-1.161876
C58	C	-0.193792	-1.331804	-1.097842
C59	C	-0.255289	-1.284017	-1.122469
C60	C	-0.270499	-1.272196	-1.211129
C61	C	-0.301584	-1.248062	-1.058444
C62	C	-0.363081	-1.200274	-1.083070
C63	C	-0.378288	-1.188455	-1.171722
C64	C	-0.331998	-1.224415	-1.235756
C65	C	-0.286374	-1.259883	-0.969783
C66	C	-0.394166	-1.176140	-0.930384
C67	C	-0.409371	-1.164315	-1.019036
C68	C	-0.240618	-1.295467	-0.369439
C69	C	-0.224206	-1.308157	-0.275155
H70	H	-0.405860	-0.817663	-0.378030
O71	O	-0.749308	-1.062931	-0.732833
C72	C	-0.789000	-0.943005	-0.817296
C73	C	-0.813988	-1.021937	-0.761798
H74	H	-0.841280	-0.909851	-0.840746
H75	H	-0.751550	-0.894261	-0.776071
H76	H	-0.755663	-0.966513	-0.876215
H77	H	-0.847354	-0.998511	-0.702874
H78	H	-0.851399	-1.070665	-0.803085
O79	O	-0.881149	-1.031912	-0.754702
C80	C	-0.920840	-0.911987	-0.839166
C81	C	-0.945828	-0.990919	-0.783667
H82	H	-0.973120	-0.878832	-0.862615
H83	H	-0.883391	-0.863242	-0.797940
H84	H	-0.887504	-0.935494	-0.898084
H85	H	-0.979195	-0.967492	-0.724743
H86	H	-0.983240	-1.039647	-0.824954
O87	O	-0.346903	-1.212969	-1.321851
C88	C	-0.437027	-1.236488	-1.440347
C89	C	-0.420257	-1.249488	-1.342826
H90	H	-0.496327	-1.266023	-1.457339
H91	H	-0.433795	-1.163508	-1.454060
H92	H	-0.393343	-1.270366	-1.481855
H93	H	-0.463924	-1.215662	-1.301253
H94	H	-0.423463	-1.322483	-1.329182
H95	H	-0.653788	-1.167470	-0.659292
O96	O	-0.675360	-1.499985	-0.425521
C97	C	-0.780344	-1.585866	-0.365061
C98	C	-0.755276	-1.506952	-0.420545
H99	H	-0.844957	-1.591514	-0.361005
H100	H	-0.759454	-1.648339	-0.396608
H101	H	-0.755169	-1.576128	-0.296435
H102	H	-0.780441	-1.516605	-0.489180
H103	H	-0.776156	-1.444508	-0.388928
H104	H	-0.531421	-1.451787	-0.459321
H105	H	-0.902463	-1.364483	-0.520874
H106	H	-1.024830	-1.080187	-0.720861
H107	H	-0.803508	-1.457700	-0.455274
O108	O	-0.970853	-1.314816	-0.555855
C109	C	-1.075834	-1.400701	-0.495394
C110	C	-1.050769	-1.321787	-0.550879
H111	H	-1.140447	-1.406352	-0.491338
H112	H	-1.054941	-1.463173	-0.526942
H113	H	-1.050659	-1.390963	-0.426769
H114	H	-1.075934	-1.331440	-0.619513
H115	H	-1.071650	-1.259343	-0.519262
O116	O	-0.438039	-1.141984	-1.195495
C117	C	-0.543375	-1.060215	-1.147059
C118	C	-0.475722	-1.112806	-1.120018
H119	H	-0.573871	-1.036625	-1.086052
H120	H	-0.521911	-1.001327	-1.185882
H121	H	-0.584461	-1.103818	-1.189276
H122	H	-0.434609	-1.069274	-1.077770
H123	H	-0.497241	-1.171701	-1.081241
H124	H	-0.236302	-1.298791	-0.949742
H125	H	-0.151044	-0.715227	-0.802095
O126	O	-0.178895	-1.343335	-1.011763
C127	C	-0.097952	-1.406290	-0.906160
C128	C	-0.114733	-1.393283	-1.003677
H129	H	-0.046087	-1.446689	-0.899591
H130	H	-0.086346	-1.339743	-0.871668
H131	H	-0.149043	-1.442120	-0.875025
H132	H	-0.063668	-1.357485	-1.034888
H133	H	-0.126370	-1.459856	-1.038105
O134	O	-0.439237	-1.141319	-0.868226
C135	C	-0.565476	-1.136736	-0.809506
C136	C	-0.514520	-1.176247	-0.879940
H137	H	-0.626356	-1.164946	-0.818964
H138	H	-0.544103	-1.153413	-0.741891
H139	H	-0.563698	-1.062542	-0.815558
H140	H	-0.516275	-1.250446	-0.873970
H141	H	-0.535910	-1.159501	-0.947527
O142	O	-0.391437	-0.988682	-0.401937
C143	C	-0.408566	-1.142694	-0.373494
C144	C	-0.372768	-1.072267	-0.433112
H145	H	-0.393500	-1.210289	-0.398688
H146	H	-0.385840	-1.130998	-0.303973
H147	H	-0.472914	-1.138929	-0.373718
H148	H	-0.308419	-1.075991	-0.432963
H149	H	-0.395554	-1.083985	-0.502605
O150	O	-0.390825	-0.661298	-0.403025
C151	C	-0.464984	-0.709651	-0.279703
C152	C	-0.417358	-0.736745	-0.358988
H153	H	-0.486463	-0.770635	-0.244088
H154	H	-0.428386	-0.665138	-0.233269
H155	H	-0.515410	-0.673114	-0.303098
H156	H	-0.366928	-0.773315	-0.335673
H157	H	-0.454009	-0.781216	-0.405405
H158	H	-0.097433	-1.406675	-1.141832
H159	H	-0.125028	-1.385217	-1.302670
O160	O	-0.585440	-1.217079	-0.624255
C161	C	-0.514084	-1.077947	-0.628610
C162	C	-0.539145	-1.156877	-0.573146
H163	H	-0.476663	-1.029244	-0.587306
H164	H	-0.480727	-1.101369	-0.687549
H165	H	-0.566361	-1.044765	-0.652026
H166	H	-0.486910	-1.190093	-0.549667
H167	H	-0.572528	-1.133402	-0.514250
H168	H	-0.459442	-1.125405	-1.039100
H169	H	-0.248748	-0.907189	-0.639461
H170	H	-0.210124	-0.831322	-0.703746
H171	H	-0.170515	-0.554382	-0.769722
H172	H	-0.324937	-0.548935	-0.512763
