data_functionalizedCrystal
_audit_creation_method	'MofGen! by Chris Wilmer'
_symmetry_space_group_name_H-M	'P1'
_symmetry_Int_Tables_number	1
_symmetry_cell_setting	triclinic
loop_
_symmetry_equiv_pos_as_xyz
  x,y,z
_cell_length_a	12.759401
_cell_length_b	18.215405
_cell_length_c	12.759393
_cell_angle_alpha	90.037569
_cell_angle_beta	90.018496
_cell_angle_gamma	90.025046
loop_
_atom_site_label
_atom_site_type_symbol
_atom_site_fract_x
_atom_site_fract_y
_atom_site_fract_z
Zn1	Zn	1.606181	-0.292938	0.593937
Zn2	Zn	1.606044	-0.416024	0.418239
Zn3	Zn	1.430483	-0.292976	0.418277
Zn4	Zn	1.430440	-0.415967	0.593881
O5	O	1.518287	-0.354476	0.506084
O6	O	1.753184	-0.309273	0.570639
O7	O	1.582716	-0.399741	0.271223
O8	O	1.453865	-0.189987	0.441618
O9	O	1.753083	-0.399704	0.441554
O10	O	1.582949	-0.189959	0.570675
O11	O	1.453732	-0.309339	0.271251
O12	O	1.283456	-0.309284	0.441563
O13	O	1.453792	-0.399607	0.740909
O14	O	1.283425	-0.399645	0.570578
O15	O	1.582908	-0.309218	0.740951
O16	O	1.582675	-0.519001	0.441499
O17	O	1.453660	-0.518959	0.570542
C18	C	1.245320	-0.354463	0.506069
C19	C	1.128543	-0.354475	0.506088
C20	C	1.073692	-0.401601	0.573155
C21	C	0.963968	-0.401610	0.573167
C22	C	0.963956	-0.307365	0.439035
C23	C	1.073678	-0.307353	0.439029
C24	C	1.073699	-0.456015	0.650592
C25	C	0.963975	-0.456025	0.650604
C26	C	1.518176	-0.545683	0.506033
C27	C	1.518225	-0.627482	0.506047
C28	C	1.585561	-0.815673	0.438977
C29	C	1.585608	-0.892531	0.439003
C30	C	1.451148	-0.892528	0.573265
C31	C	1.451107	-0.815671	0.573244
C32	C	1.518312	-0.777245	0.506094
C33	C	1.518400	-0.930961	0.506141
C34	C	1.518450	-1.014295	0.506169
C35	C	1.518263	-0.693906	0.506067
C36	C	1.792320	-0.354491	0.506098
C37	C	1.909097	-0.354497	0.506105
C38	C	1.518361	-0.354402	0.780117
C39	C	1.518392	-0.354370	0.896894
C40	C	1.518427	-0.162523	0.506157
C41	C	1.518487	-0.080724	0.506189
C42	C	1.518274	-0.354497	0.233116
C43	C	1.518447	-0.354322	0.116340
C44	C	1.585632	-0.307300	0.951779
C45	C	1.585657	-0.307274	1.061503
C46	C	1.451199	-0.401394	1.061447
C47	C	1.451170	-0.401416	0.951725
C48	C	1.663263	-0.252963	0.951813
C49	C	1.663288	-0.252936	1.061537
H50	H	0.919271	-0.268999	0.384439
C51	C	1.633866	-0.175970	0.911620
N52	N	1.611722	-0.117982	0.881348
H53	H	1.396430	-0.923824	0.627935
H54	H	1.640370	-0.923816	0.384351
C55	C	1.119637	-0.529119	0.611023
N56	N	1.154238	-0.584182	0.581217
H57	H	0.929982	-0.435680	0.727959
C58	C	1.377145	-0.773398	0.647104
N59	N	1.321449	-0.741558	0.702741
C60	C	0.923698	-0.533003	0.620954
N61	N	0.893362	-0.590980	0.598621
H62	H	1.103511	-0.440815	0.732001
H63	H	1.740530	-0.273395	0.917774
C64	C	1.377185	-0.453186	0.891355
N65	N	1.321454	-0.492179	0.845884
H66	H	1.744655	-0.268201	1.091313
H67	H	1.634188	-0.198783	1.095593
C68	C	1.377257	-0.453140	1.121771
N69	N	1.321562	-0.492117	1.167206
H70	H	1.118333	-0.268973	0.384424
C71	C	1.659494	-0.773407	0.365117
N72	N	1.715185	-0.741575	0.309485
