data_functionalizedCrystal
_audit_creation_method	'MofGen! by Chris Wilmer'
_symmetry_space_group_name_H-M	'P1'
_symmetry_Int_Tables_number	1
_symmetry_cell_setting	triclinic
loop_
_symmetry_equiv_pos_as_xyz
  x,y,z
_cell_length_a	9.065218
_cell_length_b	8.140239
_cell_length_c	9.065218
_cell_angle_alpha	89.998670
_cell_angle_beta	85.015919
_cell_angle_gamma	89.996351
loop_
_atom_site_label
_atom_site_type_symbol
_atom_site_fract_x
_atom_site_fract_y
_atom_site_fract_z
O1	O	-1.960395	0.136690	-0.216355
O2	O	-1.460395	0.636690	0.283645
O3	O	-1.531110	0.136674	-0.234101
O4	O	-1.031110	0.636674	0.265899
O5	O	-1.754626	0.136679	-0.010586
O6	O	-1.254626	0.636679	0.489414
O7	O	-1.736880	0.136685	-0.439871
O8	O	-1.236880	0.636685	0.060129
O9	O	-1.754619	-0.136548	-0.010584
O10	O	-1.254619	0.363452	0.489416
O11	O	-1.531103	-0.136553	-0.234100
O12	O	-1.031103	0.363447	0.265900
O13	O	-1.960388	-0.136537	-0.216354
O14	O	-1.460388	0.363463	0.283646
Zn15	Zn	-1.745744	-0.179925	-0.225226
Zn16	Zn	-1.245744	0.320075	0.274774
Zn17	Zn	-1.745754	0.180063	-0.225229
Zn18	Zn	-1.245754	0.680063	0.274771
O19	O	-1.736872	-0.136542	-0.439869
O20	O	-1.236872	0.363458	0.060131
C21	C	-1.476120	0.000059	-0.232395
C22	C	-0.976120	0.500059	0.267605
C23	C	-1.312277	0.000053	-0.227295
C24	C	-0.812277	0.500053	0.272705
N25	N	-1.745749	-0.425608	-0.225224
N26	N	-1.245749	0.074392	0.274776
C27	C	-1.015378	0.000072	-0.218060
C28	C	-0.515378	0.500072	0.281940
C29	C	-1.179221	0.000058	-0.223159
C30	C	-0.679221	0.500058	0.276841
C31	C	-1.752917	0.000068	0.044402
C32	C	-1.252917	0.500068	0.544402
C33	C	-1.747817	0.000076	0.208244
C34	C	-1.247817	0.500076	0.708244
N35	N	-1.745761	0.425746	-0.225219
N36	N	-1.245761	0.925746	0.274781
C37	C	-1.738581	0.000073	-0.494856
C38	C	-1.238581	0.500073	0.005144
C39	C	-1.743681	0.000076	-0.658699
C40	C	-1.243681	0.500076	-0.158699
