data_functionalizedCrystal
_audit_creation_method	'MofGen! by Chris Wilmer'
_symmetry_space_group_name_H-M	'P1'
_symmetry_Int_Tables_number	1
_symmetry_cell_setting	triclinic
loop_
_symmetry_equiv_pos_as_xyz
  x,y,z
_cell_length_a	10.723023
_cell_length_b	10.723023
_cell_length_c	9.198806
_cell_angle_alpha	89.997827
_cell_angle_beta	89.996513
_cell_angle_gamma	84.467548
loop_
_atom_site_label
_atom_site_type_symbol
_atom_site_fract_x
_atom_site_fract_y
_atom_site_fract_z
O1	O	1.657188	0.175020	-0.120874
O2	O	1.294035	0.191774	-0.120880
O3	O	1.483989	0.001821	-0.120871
O4	O	1.467234	0.364973	-0.120883
O5	O	1.483974	0.001820	0.120914
O6	O	1.294020	0.191774	0.120905
O7	O	1.657173	0.175019	0.120911
Cu8	Cu	1.475595	0.183396	0.142985
Cu9	Cu	1.475613	0.183397	-0.142954
O10	O	1.467219	0.364973	0.120902
C11	C	1.247528	0.190555	0.000012
C12	C	1.108974	0.186908	0.000010
C13	C	1.047194	0.185281	0.125260
C14	C	0.903991	0.181512	0.125261
C15	C	1.482762	-0.044679	0.000020
C16	C	1.479115	-0.183233	0.000015
C17	C	1.477497	-0.244999	-0.125239
C18	C	1.473727	-0.388202	-0.125246
C19	C	1.703680	0.176239	0.000016
C20	C	1.842234	0.179886	0.000009
C21	C	1.468446	0.411473	0.000008
C22	C	1.472093	0.550027	0.000003
N23	N	1.475592	0.183395	0.344099
N24	N	1.475626	0.183388	-0.344068
C25	C	1.555347	0.103288	0.416300
C26	C	1.555367	0.103283	0.583712
H27	H	0.895354	0.181292	-0.107229
O28	O	1.045691	0.185022	-0.127962
C29	C	1.090649	0.077988	-0.208210
H30	H	1.135748	0.003521	-0.131146
H31	H	1.163143	0.104371	-0.290504
C32	C	0.925515	0.117487	-0.383452
C33	C	0.980898	0.026020	-0.288799
H34	H	0.857818	0.085432	-0.433169
H35	H	0.895228	0.189600	-0.329391
H36	H	0.985939	0.139464	-0.452017
H37	H	0.920479	0.004056	-0.220225
H38	H	1.011172	-0.046098	-0.342850
H39	H	1.473491	-0.396865	0.107243
O40	O	0.840592	0.179617	0.253159
C41	C	0.778462	0.069761	0.260918
H42	H	0.827010	-0.004610	0.186181
H43	H	0.676852	0.091558	0.225364
C44	C	0.722648	0.112120	0.510173
C45	C	0.782281	0.020773	0.418389
H46	H	0.724997	0.081904	0.607309
H47	H	0.764502	0.186135	0.504945
H48	H	0.637978	0.130276	0.480527
H49	H	0.866953	0.002630	0.448024
H50	H	0.740442	-0.053247	0.423626
O51	O	1.479029	-0.181454	-0.253070
C52	C	1.373117	-0.092944	-0.260874
H53	H	1.337630	-0.069178	-0.146416
H54	H	1.296262	-0.133777	-0.326023
C55	C	1.452765	-0.002394	-0.476586
C56	C	1.409186	0.026804	-0.336006
H57	H	1.475010	0.071471	-0.522936
H58	H	1.524118	-0.062027	-0.471332
H59	H	1.388712	-0.036423	-0.530859
H60	H	1.473244	0.060818	-0.281731
H61	H	1.337844	0.086446	-0.341252
H62	H	1.100320	0.186673	0.232492
O63	O	1.471839	-0.451594	-0.253142
C64	C	1.361983	-0.513723	-0.260891
H65	H	1.287609	-0.465176	-0.186155
H66	H	1.383778	-0.615334	-0.225328
C67	C	1.404355	-0.569535	-0.510142
C68	C	1.313004	-0.509902	-0.418360
H69	H	1.374144	-0.567184	-0.607277
H70	H	1.478370	-0.527682	-0.504921
H71	H	1.422509	-0.654205	-0.480489
H72	H	1.294863	-0.425229	-0.448002
H73	H	1.238984	-0.551741	-0.423590
H74	H	1.477701	-0.236370	0.107244
O75	O	1.636670	0.021319	0.342231
C76	C	1.615072	-0.102358	0.379309
H77	H	1.515179	-0.103671	0.421290
H78	H	1.683949	-0.138650	0.467501
C79	C	1.756068	-0.185044	0.192409
C80	C	1.633373	-0.186658	0.243959
H81	H	1.767362	-0.237047	0.108921
H82	H	1.770623	-0.101721	0.167431
H83	H	1.813451	-0.215284	0.265914
H84	H	1.575993	-0.156404	0.170460
H85	H	1.618808	-0.269978	0.268921
H86	H	1.623654	0.034704	0.645801
H87	H	1.407345	0.251980	0.593852
H88	H	1.407319	0.251971	0.406224
