data_functionalizedCrystal
_audit_creation_method	'MofGen! by Chris Wilmer'
_symmetry_space_group_name_H-M	'P1'
_symmetry_Int_Tables_number	1
_symmetry_cell_setting	triclinic
loop_
_symmetry_equiv_pos_as_xyz
  x,y,z
_cell_length_a	27.440280
_cell_length_b	17.052862
_cell_length_c	17.052862
_cell_angle_alpha	61.493325
_cell_angle_beta	90.004253
_cell_angle_gamma	70.263485
loop_
_atom_site_label
_atom_site_type_symbol
_atom_site_fract_x
_atom_site_fract_y
_atom_site_fract_z
Zr1	Zr	0.564821	0.816610	-0.200353
O2	O	0.511001	0.944511	-0.328491
O3	O	0.569470	0.665888	-0.146161
O4	O	0.595584	0.783687	-0.306969
O5	O	0.477766	0.860640	-0.057797
O6	O	0.675785	0.783677	-0.306953
O7	O	0.484886	0.826712	-0.167684
O8	O	0.629070	0.572955	-0.019297
O9	O	0.524480	1.071362	-0.345453
O10	O	0.645621	0.736326	-0.141052
O11	O	0.580455	0.761654	-0.059057
O12	O	0.611202	0.900348	-0.248387
O13	O	0.546035	0.925676	-0.166392
Zr14	Zr	0.681375	0.870704	-0.025072
Zr15	Zr	0.692731	0.816593	-0.200328
Zr16	Zr	0.553464	0.870721	-0.025097
Zr17	Zr	0.586319	1.018921	-0.227405
Zr18	Zr	0.659877	0.668393	0.001980
O19	O	0.676726	1.021426	-0.079264
O20	O	0.692873	0.944487	-0.328455
O21	O	0.494854	1.021450	-0.079300
O22	O	0.735195	0.742803	0.103066
O23	O	0.751342	0.665864	-0.146125
O24	O	0.553323	0.742827	0.103031
O25	O	0.768430	0.826674	-0.167628
O26	O	0.650611	0.903627	0.081544
O27	O	0.570411	0.903637	0.081528
O28	O	0.761309	0.860602	-0.057741
O29	O	0.626152	1.071348	-0.345433
O30	O	0.620044	0.615966	0.120008
O31	O	0.721715	0.615952	0.120028
O32	O	0.730742	0.572941	-0.019277
O33	O	0.515453	1.114373	-0.206147
O34	O	0.617125	1.114359	-0.206128
O35	O	0.634994	0.786966	0.022962
O36	O	0.700160	0.761638	-0.059033
O37	O	0.665740	0.925660	-0.166368
O38	O	0.600574	0.950988	-0.084373
C39	C	0.596207	0.590596	-0.078875
C40	C	0.587081	0.504710	-0.067391
C41	C	0.697419	0.209731	-0.206234
C42	C	0.705993	0.290429	-0.217030
C43	C	0.676266	0.344003	-0.179621
C44	C	0.637963	0.316872	-0.131414
C45	C	0.629386	0.236171	-0.120624
C46	C	0.608232	0.370442	-0.094010
C47	C	0.569929	0.343312	-0.045804
C48	C	0.561354	0.262618	-0.035015
C49	C	0.591081	0.209044	-0.072424
C50	C	0.616810	0.451143	-0.104801
C51	C	0.548776	0.477583	-0.019191
C52	C	0.540202	0.396885	-0.008395
C53	C	0.463101	0.843678	-0.112744
C54	C	0.408800	0.843685	-0.112755
C55	C	0.090059	0.758028	-0.056660
C56	C	0.039040	0.758025	-0.056652
O57	O	0.027930	0.685218	-0.008977
N58	N	-0.004444	0.843641	-0.112680
C59	C	0.003093	0.929269	-0.168714
O60	O	-0.038578	1.002092	-0.216369
C61	C	0.054112	0.929273	-0.168716
C62	C	0.097594	0.843649	-0.112691
C63	C	0.133540	0.672412	-0.000638
C64	C	0.184556	0.672415	-0.000648
C65	C	0.192091	0.758036	-0.056679
C66	C	0.148610	0.843653	-0.112700
C67	C	0.061648	1.014901	-0.224744
C68	C	0.112671	1.014898	-0.224741
C69	C	0.156154	0.929274	-0.168716
C70	C	0.207161	0.929277	-0.168741
N71	N	0.250645	0.843661	-0.112712
C72	C	0.243110	0.758040	-0.056681
C73	C	-0.104048	0.929253	-0.168703
C74	C	-0.155065	0.929249	-0.168705
C75	C	-0.119115	0.758005	-0.056642
C76	C	-0.068097	0.758009	-0.056645
C77	C	-0.060564	0.843637	-0.112674
C78	C	0.350246	0.758054	-0.056706
C79	C	0.401265	0.758065	-0.056723
C80	C	0.365311	0.929309	-0.168783
C81	C	0.314296	0.929298	-0.168770
C82	C	0.306766	0.843664	-0.112724
O83	O	0.218311	1.002047	-0.216388
O84	O	0.284784	0.685232	-0.009025
C85	C	0.783094	0.843636	-0.112681
C86	C	0.837395	0.843629	-0.112670
C87	C	0.637303	0.775973	-0.331931
C88	C	0.642124	0.753001	-0.406332
C89	C	0.649988	1.096718	-0.146550
C90	C	0.659115	1.182604	-0.158034
C91	C	0.583838	1.030727	-0.840172
C92	C	0.579305	1.052313	-0.770271
C93	C	0.595010	0.977487	-0.679284
C94	C	0.615247	0.881071	-0.658203
C95	C	0.619777	0.859483	-0.728111
C96	C	0.630948	0.806243	-0.567222
C97	C	0.651186	0.709827	-0.546141
C98	C	0.655714	0.688243	-0.616044
C99	C	0.640010	0.763069	-0.707031
C100	C	0.626419	0.827831	-0.497314
C101	C	0.662357	0.656587	-0.385253
C102	C	0.666890	0.635001	-0.455154
C103	C	0.608893	0.911342	0.106506
C104	C	0.604072	0.934313	0.180907
C105	C	0.756203	0.590575	-0.078844
C106	C	0.801378	0.504681	-0.067349
C107	C	0.582002	0.658281	0.140344
C108	C	0.568055	0.595366	0.226229
C109	C	0.741998	0.658260	0.140375
C110	C	0.782352	0.595338	0.226271
C111	C	0.504197	1.029054	-0.365800
C112	C	0.463843	1.091977	-0.451696
C113	C	0.489992	1.096739	-0.146581
C114	C	0.444817	1.182633	-0.158076
C115	C	0.664193	1.029033	-0.365769
C116	C	0.678141	1.091948	-0.451654
C117	C	0.794125	0.451130	-0.104771
C118	C	0.836568	0.370430	-0.093988
C119	C	0.886265	0.343279	-0.045778
C120	C	0.893518	0.396839	-0.008355
C121	C	0.851075	0.477541	-0.019144
C122	C	0.589973	0.579035	0.309381
C123	C	0.576866	0.519933	0.390085
C124	C	0.541844	0.477157	0.387634
C125	C	0.519924	0.493493	0.304472
C126	C	0.533027	0.552600	0.223770
C127	C	0.835324	0.552568	0.223808
C128	C	0.873248	0.493455	0.304507
C129	C	0.858197	0.477107	0.387670
C130	C	0.805220	0.519885	0.390131
C131	C	0.767298	0.579002	0.309431
C132	C	0.410872	1.134756	-0.449234
C133	C	0.372951	1.193894	-0.529937
C134	C	0.388003	1.210246	-0.613100
C135	C	0.440979	1.167463	-0.615560
C136	C	0.478899	1.108332	-0.534859
C137	C	0.452072	1.236190	-0.120662
C138	C	0.409632	1.316907	-0.131467
C139	C	0.359936	1.344060	-0.179681
C140	C	0.352682	1.290497	-0.217100
C141	C	0.395123	1.209786	-0.206300
C142	C	0.713164	1.134707	-0.449173
C143	C	0.726280	1.193813	-0.529863
C144	C	0.704368	1.210166	-0.613033
C145	C	0.669342	1.167400	-0.615511
C146	C	0.656230	1.108289	-0.534821
H147	H	0.737178	0.312516	-0.256280
Cl148	Cl	0.564089	1.124781	-0.954552
Cl149	Cl	0.545491	1.054550	-0.537968
Cl150	Cl	0.734781	0.142388	-0.253267
H151	H	0.389208	1.166181	-0.236765
H152	H	0.792972	0.506566	0.457853
Cl153	Cl	0.580304	0.107588	-0.058846
H154	H	0.357120	1.258396	-0.678806
H155	H	0.415548	1.360506	-0.100991
Cl156	Cl	0.682098	0.562515	-0.270871
H157	H	0.731010	1.121404	-0.381460
Cl158	Cl	-0.013438	0.650364	0.013792
Cl159	Cl	0.720855	1.284484	-0.714465
Cl160	Cl	0.374793	1.036945	-0.239205
Cl161	Cl	0.391937	1.114214	-0.344696
Cl162	Cl	0.505471	0.573115	0.119240
H163	H	0.329818	1.228719	-0.527916
H164	H	0.524569	0.521205	0.011268
H165	H	-0.097921	0.998986	-0.214333
Cl166	Cl	0.641794	1.187977	-0.720077
Cl167	Cl	0.827438	0.303110	-0.141035
H168	H	0.325383	1.409782	-0.188468
Cl169	Cl	0.634004	0.632798	0.312487
H170	H	0.916381	0.458629	0.302488
Cl171	Cl	0.459892	1.188025	-0.720116
Cl172	Cl	-0.128597	0.650367	0.013799
Cl173	Cl	0.513196	0.228521	0.025576
Cl174	Cl	0.514543	1.202078	-0.060052
Cl175	Cl	0.700704	0.632758	0.312544
Cl176	Cl	0.612193	1.054551	-0.537957
Cl177	Cl	0.290203	1.324642	-0.277704
H178	H	-0.190466	0.998969	-0.214337
Cl179	Cl	0.731655	0.485247	-0.165388
Cl180	Cl	0.604432	0.499406	0.494619
Cl181	Cl	0.860202	0.544850	0.027916
H182	H	0.609940	0.906334	-0.514487
Cl183	Cl	0.525377	0.402852	0.489098
Cl184	Cl	0.492054	0.362765	0.052210
Cl185	Cl	0.939616	0.241818	-0.032221
H186	H	0.754798	1.228630	-0.527828
H187	H	0.491407	0.458657	0.302490
H188	H	0.933986	0.374720	0.030898
H189	H	0.647996	0.473226	-0.144052
H190	H	0.683249	0.409709	-0.188414
H191	H	0.847589	0.565867	0.156100
H192	H	0.436669	0.688337	-0.011098
Cl193	Cl	0.340789	0.650397	0.013750
Cl194	Cl	0.905876	0.402783	0.489115
Cl195	Cl	0.124080	0.564760	0.069813
Cl196	Cl	0.006995	1.122553	-0.295173
Cl197	Cl	0.239213	0.564770	0.069795
H198	H	0.118798	1.084632	-0.270358
Cl199	Cl	0.259632	1.036936	-0.239219
H200	H	0.591318	0.995068	-0.622370
H201	H	0.672188	0.609735	-0.598873
Cl202	Cl	0.645708	0.735936	-0.794915
Cl203	Cl	0.692329	0.513797	-0.428665
Cl204	Cl	0.553847	1.173516	-0.796775
