data_functionalizedCrystal
_audit_creation_method	'MofGen! by Chris Wilmer'
_symmetry_space_group_name_H-M	'P1'
_symmetry_Int_Tables_number	1
_symmetry_cell_setting	triclinic
loop_
_symmetry_equiv_pos_as_xyz
  x,y,z
_cell_length_a	9.065218
_cell_length_b	10.489716
_cell_length_c	8.140239
_cell_angle_alpha	90.000513
_cell_angle_beta	89.997198
_cell_angle_gamma	84.772511
loop_
_atom_site_label
_atom_site_type_symbol
_atom_site_fract_x
_atom_site_fract_y
_atom_site_fract_z
O1	O	1.959475	0.187045	-0.136601
O2	O	1.530115	0.202387	-0.136602
O3	O	1.754584	0.009151	-0.136607
O4	O	1.735006	0.380280	-0.136596
O5	O	1.754571	0.009149	0.136620
O6	O	1.530102	0.202385	0.136625
O7	O	1.959463	0.187042	0.136626
Zn8	Zn	1.744780	0.194713	0.180006
Zn9	Zn	1.744797	0.194716	-0.179982
O10	O	1.734994	0.380278	0.136631
C11	C	1.475129	0.200911	0.000011
C12	C	1.311308	0.196503	0.000010
C13	C	1.753106	-0.038387	0.000001
C14	C	1.748706	-0.180034	-0.000014
C15	C	1.886357	-0.277211	0.000001
C16	C	1.813625	-0.354833	-0.134710
C17	C	1.813581	-0.354800	0.134671
C18	C	1.676031	-0.255791	-0.134836
C19	C	1.676007	-0.255752	0.134665
C20	C	1.603174	-0.333325	-0.000079
C21	C	2.014448	0.188518	0.000009
C22	C	2.178269	0.192927	-0.000001
C23	C	1.736471	0.427817	0.000019
C24	C	1.740872	0.569464	0.000023
N25	N	1.744780	0.194710	0.425689
N26	N	1.744809	0.194709	-0.425665
H27	H	2.006090	-0.252102	-0.000135
H28	H	1.871738	-0.398117	-0.248600
H29	H	1.871713	-0.398063	0.248556
N30	N	1.452871	-0.364551	-0.000175
N31	N	1.425055	-0.479090	0.000910
H32	H	1.318905	-0.501148	0.000835
H33	H	1.617945	-0.212444	0.248560
H34	H	1.617960	-0.212696	-0.248850
