data_functionalizedCrystal
_audit_creation_method	'MofGen! by Chris Wilmer'
_symmetry_space_group_name_H-M	'P1'
_symmetry_Int_Tables_number	1
_symmetry_cell_setting	triclinic
loop_
_symmetry_equiv_pos_as_xyz
  x,y,z
_cell_length_a	10.654541
_cell_length_b	17.038272
_cell_length_c	9.730217
_cell_angle_alpha	89.996329
_cell_angle_beta	89.999932
_cell_angle_gamma	87.797742
loop_
_atom_site_label
_atom_site_type_symbol
_atom_site_fract_x
_atom_site_fract_y
_atom_site_fract_z
O1	O	1.678040	0.109868	-0.114249
O2	O	1.313533	0.120338	-0.114261
O3	O	1.493620	0.001275	-0.114245
O4	O	1.497953	0.228930	-0.114266
O5	O	1.493614	0.001274	0.114336
O6	O	1.313527	0.120337	0.114319
O7	O	1.678034	0.109867	0.114331
Zn8	Zn	1.495780	0.115102	0.150617
Zn9	Zn	1.495788	0.115103	-0.150547
O10	O	1.497947	0.228929	0.114314
C11	C	1.266661	0.119569	0.000027
C12	C	1.127004	0.117270	0.000023
C13	C	1.112253	0.259642	-0.000008
C14	C	1.039268	0.329744	-0.000029
C15	C	0.908049	0.327580	-0.000030
C16	C	0.849813	0.255304	-0.000006
C17	C	0.922798	0.185202	0.000015
C18	C	1.054019	0.187374	0.000012
C19	C	0.937548	0.042832	0.000055
C20	C	1.068768	0.044995	0.000047
C21	C	0.879312	-0.029443	0.000079
C22	C	0.952297	-0.099548	0.000090
C23	C	1.083524	-0.097380	0.000090
C24	C	1.141753	-0.025108	0.000067
C25	C	1.489677	-0.027875	0.000045
C26	C	1.477920	-0.114734	0.000044
C27	C	1.585864	-0.164246	0.000049
C28	C	1.574809	-0.245858	0.000036
C29	C	1.455809	-0.277957	0.000027
C30	C	1.347857	-0.228439	0.000018
C31	C	1.358913	-0.146828	0.000022
C32	C	1.416751	-0.523933	0.000007
C33	C	1.405704	-0.605550	0.000008
C34	C	1.632657	-0.622963	0.000023
C35	C	1.643703	-0.541350	0.000035
C36	C	1.535750	-0.491839	0.000018
C37	C	1.444507	-0.361377	0.000018
C38	C	1.547054	-0.408420	0.000018
C39	C	1.724907	0.110635	0.000039
C40	C	1.864564	0.112934	0.000034
C41	C	1.501891	0.258080	0.000021
C42	C	1.513648	0.344939	0.000013
N43	N	1.495784	0.115100	0.356153
N44	N	1.495793	0.115098	-0.356084
C45	C	1.655323	0.009701	0.356159
C46	C	1.735102	-0.042996	0.428101
C47	C	1.735115	-0.042997	0.571981
C48	C	1.655338	0.009704	0.643922
C49	C	1.575559	0.062402	0.571979
C50	C	1.575558	0.062398	0.428096
C51	C	1.416015	0.167796	0.571973
C52	C	1.416007	0.167801	0.428094
C53	C	1.336238	0.220496	0.643914
C54	C	1.256464	0.273199	0.571971
C55	C	1.256455	0.273198	0.428083
C56	C	1.336228	0.220498	0.356151
H57	H	1.086699	0.388590	-0.000044
Br58	Br	1.721312	-0.313050	0.000042
Br59	Br	1.319836	-0.022160	0.000054
H60	H	1.800053	-0.085906	0.369515
Br61	Br	1.336241	0.220493	0.839181
Br62	Br	1.270243	-0.456749	-0.000024
Br63	Br	0.701228	-0.032383	0.000089
Br64	Br	0.808993	0.422719	-0.000039
Br65	Br	1.186355	-0.272000	-0.000016
H66	H	1.191509	0.316101	0.630554
H67	H	1.271013	-0.106516	0.000017
Br68	Br	1.290337	0.262585	-0.000039
H69	H	1.740605	-0.515222	0.000042
Br70	Br	1.655336	0.009709	0.160892
H71	H	1.643943	-0.382282	-0.000005
H72	H	1.336233	0.220495	0.238996
H73	H	0.742967	0.253548	0.000010
H74	H	0.904870	-0.158388	0.000108
Br75	Br	1.182565	-0.192525	0.000134
H76	H	1.655342	0.009694	0.761076
Br77	Br	1.747372	-0.120692	0.000081
Br78	Br	1.244193	-0.649112	0.000010
H79	H	1.720546	-0.663284	0.000034
Br80	Br	1.843375	-0.114521	0.669622
Br81	Br	1.148167	0.344713	0.330459
H82	H	1.347616	-0.387521	0.000014
