data_functionalizedCrystal
_audit_creation_method	'MofGen! by Chris Wilmer'
_symmetry_space_group_name_H-M	'P1'
_symmetry_Int_Tables_number	1
_symmetry_cell_setting	triclinic
loop_
_symmetry_equiv_pos_as_xyz
  x,y,z
_cell_length_a	6.817900
_cell_length_b	11.514786
_cell_length_c	7.190334
_cell_angle_alpha	77.321215
_cell_angle_beta	60.611776
_cell_angle_gamma	70.411456
loop_
_atom_site_label
_atom_site_type_symbol
_atom_site_fract_x
_atom_site_fract_y
_atom_site_fract_z
V1	V	-4.220990	0.167149	0.602956
O2	O	-4.206848	-0.010038	0.656068
O3	O	-4.169216	0.333357	0.536713
O4	O	-4.258195	0.163697	0.894267
O5	O	-4.117252	0.160796	0.296038
V6	V	-4.693963	0.146059	0.573793
O7	O	-4.505391	0.213410	0.666929
O8	O	-4.859759	0.099797	0.509820
O9	O	-4.522531	-0.020149	0.640036
O10	O	-4.825503	0.323246	0.520681
O11	O	-4.915098	0.152412	0.880711
O12	O	-4.433552	0.149510	0.282482
C13	C	-4.010626	0.373902	0.511172
C14	C	-4.050151	0.509774	0.458952
C15	C	-4.160594	0.586392	0.615336
C16	C	-4.201448	0.726822	0.561368
C17	C	-4.351427	0.939311	0.665562
C18	C	-4.311901	0.803439	0.717774
C19	C	-4.124139	0.157479	0.967267
C20	C	-4.237917	0.155723	1.209476
H21	H	-3.985829	0.548143	0.285111
C22	C	-4.398798	0.751619	0.952643
N23	N	-4.464251	0.712587	1.129544
C24	C	-4.114575	0.778646	0.326501
N25	N	-4.049155	0.817683	0.149603
C26	C	-4.247474	0.534563	0.850191
N27	N	-4.312917	0.495527	1.027090
