data_functionalizedCrystal
_audit_creation_method	'MofGen! by Chris Wilmer'
_symmetry_space_group_name_H-M	'P1'
_symmetry_Int_Tables_number	1
_symmetry_cell_setting	triclinic
loop_
_symmetry_equiv_pos_as_xyz
  x,y,z
_cell_length_a	17.699077
_cell_length_b	17.699083
_cell_length_c	13.448316
_cell_angle_alpha	89.992503
_cell_angle_beta	89.993795
_cell_angle_gamma	83.281795
loop_
_atom_site_label
_atom_site_type_symbol
_atom_site_fract_x
_atom_site_fract_y
_atom_site_fract_z
O1	O	1.004081	0.095691	-0.082681
O2	O	0.783702	0.108149	-0.082686
O3	O	0.900118	-0.008269	-0.082674
O4	O	0.887665	0.212109	-0.082692
O5	O	0.900103	-0.008276	0.082710
O6	O	0.783687	0.108142	0.082698
O7	O	1.004066	0.095684	0.082703
Cu8	Cu	0.893876	0.101912	0.097801
Cu9	Cu	0.893893	0.101921	-0.097784
O10	O	0.887651	0.212102	0.082692
C11	C	0.755498	0.107700	0.000006
C12	C	0.671479	0.106363	0.000004
C13	C	0.632004	0.105729	0.090156
C14	C	0.553061	0.104461	0.090157
C15	C	0.513595	0.103832	0.000005
C16	C	0.553076	0.104463	-0.090154
C17	C	0.632018	0.105726	-0.090154
C18	C	0.234713	0.099370	-0.090155
C19	C	0.155765	0.098110	-0.090148
C20	C	0.155756	0.098105	0.090156
C21	C	0.234698	0.099367	0.090155
C22	C	0.274173	0.099995	-0.000003
C23	C	0.359772	0.101369	-0.000003
C24	C	0.427997	0.102464	0.000004
C25	C	0.899664	-0.036470	0.000018
C26	C	0.898326	-0.120488	0.000018
C27	C	0.966659	-0.169110	0.000021
C28	C	0.965397	-0.248054	0.000012
C29	C	0.895800	-0.278373	0.000008
C30	C	0.827461	-0.229744	0.000002
C31	C	0.828724	-0.150803	0.000003
C32	C	0.822366	-0.548107	-0.000007
C33	C	0.821108	-0.627055	-0.000005
C34	C	0.959039	-0.645358	0.000002
C35	C	0.960302	-0.566417	0.000004
C36	C	0.891963	-0.517795	-0.000007
C37	C	0.893333	-0.432196	0.000001
C38	C	0.894430	-0.363971	0.000007
C39	C	1.032271	0.096133	0.000010
C40	C	1.116289	0.097470	0.000005
C41	C	0.888104	0.240303	-0.000002
C42	C	0.889443	0.324321	-0.000009
N43	N	0.893869	0.101906	0.235366
N44	N	0.893905	0.101921	-0.235348
C45	C	0.945434	0.050377	0.287411
C46	C	0.945438	0.050377	0.391514
C47	C	0.893881	0.101909	0.443570
C48	C	0.842311	0.153440	0.391518
C49	C	0.842303	0.153436	0.287416
C50	C	0.842332	0.153445	0.608498
C51	C	0.842341	0.153450	0.712606
C52	C	0.945467	0.050385	0.712596
C53	C	0.945459	0.050382	0.608495
C54	C	0.893890	0.101914	0.556449
H55	H	0.266844	0.099879	-0.163567
O56	O	0.514620	0.103883	-0.177639
C57	C	0.436480	0.102616	-0.158310
H58	H	0.422513	0.126394	-0.080833
H59	H	0.422133	0.041562	-0.162578
C60	C	0.406527	0.122383	-0.331249
C61	C	0.389371	0.151593	-0.236093
H62	H	0.377467	0.152591	-0.379231
H63	H	0.459171	0.123234	-0.344273
H64	H	0.394571	0.071505	-0.334791
H65	H	0.401336	0.202466	-0.232549
H66	H	0.336728	0.150752	-0.223071
O67	O	0.670226	0.106303	0.177820
C68	C	0.618450	0.105489	0.257389
H69	H	0.565358	0.080639	0.230959
H70	H	0.601996	0.166049	0.285107
C71	C	0.721044	0.086881	0.375030
C72	C	0.655839	0.056354	0.342569
H73	H	0.744107	0.056576	0.427576
H74	H	0.755927	0.087433	0.321423
H75	H	0.707323	0.137347	0.398121
H76	H	0.669561	0.005893	0.319467
H77	H	0.620958	0.055793	0.396174
H78	H	0.770794	-0.254436	-0.000008
H79	H	0.123607	0.097590	0.163567
H80	H	0.664157	0.106244	-0.163565
H81	H	0.987426	0.008417	0.433889
H82	H	0.520926	0.103932	0.163568
H83	H	0.773080	-0.111214	0.000001
H84	H	0.987445	0.008424	0.566111
H85	H	1.023333	-0.144431	0.000031
H86	H	0.800336	0.195406	0.566126
O87	O	1.027888	-0.536928	0.000182
C88	C	1.032733	-0.491804	0.085822
H89	H	0.993214	-0.510406	0.145692
H90	H	1.015160	-0.429515	0.066456
C91	C	1.163684	-0.478682	0.051123
C92	C	1.115151	-0.501533	0.124659
H93	H	1.214523	-0.484679	0.075078
H94	H	1.160420	-0.509080	-0.006577
H95	H	1.149030	-0.426776	0.034991
H96	H	1.129799	-0.553440	0.140780
H97	H	1.118419	-0.471143	0.182362
H98	H	1.021041	-0.287639	0.000017
O99	O	0.272923	0.099942	0.177818
C100	C	0.221149	0.099129	0.257391
H101	H	0.168057	0.074279	0.230965
H102	H	0.204697	0.159689	0.285109
C103	C	0.323748	0.080521	0.375024
C104	C	0.258542	0.049994	0.342569
H105	H	0.346814	0.050216	0.427569
H106	H	0.358629	0.081072	0.321415
H107	H	0.310029	0.130987	0.398116
H108	H	0.272263	-0.000468	0.319467
H109	H	0.223664	0.049433	0.396177
H110	H	1.014683	-0.684956	0.000006
O111	O	0.753432	-0.656382	-0.000062
C112	C	0.693384	-0.596541	-0.000050
H113	H	0.714504	-0.542947	-0.031358
H114	H	0.672298	-0.585337	0.079288
C115	C	0.601808	-0.684527	-0.026468
C116	C	0.627746	-0.618704	-0.064928
H117	H	0.561318	-0.698199	-0.066483
H118	H	0.642263	-0.724844	-0.026472
H119	H	0.584241	-0.675182	0.039647
H120	H	0.645321	-0.628052	-0.131037
H121	H	0.587293	-0.578389	-0.064936
H122	H	0.800329	0.195396	0.433908
H123	H	0.766721	-0.508528	-0.000015
O124	O	0.995546	0.000245	0.237003
C125	C	1.041071	-0.045223	0.305268
H126	H	1.010047	-0.046035	0.379483
H127	H	1.097247	-0.020719	0.316319
C128	C	1.094925	-0.125899	0.173505
C129	C	1.056818	-0.126901	0.264655
H130	H	1.104642	-0.176280	0.148452
H131	H	1.064256	-0.095264	0.127512
H132	H	1.141734	-0.105475	0.182726
H133	H	1.010006	-0.147315	0.255431
H134	H	1.087480	-0.157540	0.310646
O135	O	0.995532	0.000221	0.763035
C136	C	0.983366	-0.074691	0.737632
H137	H	0.954185	-0.074563	0.662058
H138	H	0.945748	-0.098055	0.796239
C139	C	1.096152	-0.125289	0.825627
C140	C	1.060316	-0.125133	0.732801
H141	H	1.143617	-0.156406	0.822650
H142	H	1.104347	-0.074820	0.842744
H143	H	1.064796	-0.144757	0.874455
H144	H	1.091668	-0.105656	0.683976
H145	H	1.052128	-0.175600	0.715674
O146	O	0.792175	0.203525	0.763021
C147	C	0.746661	0.249013	0.694765
H148	H	0.745868	0.217985	0.620561
H149	H	0.771109	0.305217	0.683681
C150	C	0.665962	0.302798	0.826553
C151	C	0.664983	0.264687	0.735417
H152	H	0.615580	0.312470	0.851630
H153	H	0.696628	0.272155	0.872540
H154	H	0.686339	0.349631	0.817304
H155	H	0.644616	0.217851	0.744669
H156	H	0.634313	0.295323	0.689432
H157	H	0.123634	0.097597	-0.163565
O158	O	0.792187	0.203567	0.237010
C159	C	0.746670	0.249040	0.305276
H160	H	0.777703	0.249860	0.379474
H161	H	0.690496	0.224535	0.316371
C162	C	0.692795	0.329701	0.173499
C163	C	0.730914	0.330713	0.264628
H164	H	0.683072	0.380080	0.148424
H165	H	0.723458	0.299063	0.127506
H166	H	0.645988	0.309276	0.182757
H167	H	0.777724	0.351129	0.255367
H168	H	0.700258	0.361356	0.310619
