data_functionalizedCrystal
_audit_creation_method	'MofGen! by Chris Wilmer'
_symmetry_space_group_name_H-M	'P1'
_symmetry_Int_Tables_number	1
_symmetry_cell_setting	triclinic
loop_
_symmetry_equiv_pos_as_xyz
  x,y,z
_cell_length_a	27.731994
_cell_length_b	27.732048
_cell_length_c	26.210047
_cell_angle_alpha	89.999521
_cell_angle_beta	89.997128
_cell_angle_gamma	82.631595
loop_
_atom_site_label
_atom_site_type_symbol
_atom_site_fract_x
_atom_site_fract_y
_atom_site_fract_z
O1	O	0.640948	0.057385	-0.042362
O2	O	1.140948	0.557385	0.457638
O3	O	0.500151	0.066158	-0.042379
O4	O	1.000151	0.566158	0.457621
O5	O	0.574923	-0.008626	-0.042360
O6	O	1.074923	0.491374	0.457640
O7	O	0.566177	0.132169	-0.042381
O8	O	1.066177	0.632169	0.457619
O9	O	0.574908	-0.008614	0.042498
O10	O	1.074908	0.491386	0.542498
O11	O	0.500137	0.066170	0.042479
O12	O	1.000137	0.566170	0.542479
O13	O	0.640934	0.057397	0.042496
O14	O	1.140934	0.557397	0.542496
Cu15	Cu	0.570534	0.061784	0.050236
Cu16	Cu	1.070534	0.561784	0.550236
Cu17	Cu	0.570551	0.061771	-0.050119
Cu18	Cu	1.070551	0.561771	0.449881
O19	O	0.566162	0.132181	0.042477
O20	O	1.066162	0.632181	0.542477
C21	C	0.482137	0.065984	0.000047
C22	C	0.982137	0.565984	0.500047
C23	C	0.428480	0.065442	0.000041
C24	C	0.928480	0.565442	0.500041
C25	C	0.095754	0.062032	0.046317
C26	C	0.595754	0.562032	0.546317
C27	C	-0.105904	0.059971	0.046324
C28	C	0.394096	0.559971	0.546324
O29	O	-0.131984	0.059689	0.085663
O30	O	0.368016	0.559689	0.585663
N31	N	-0.131111	0.059708	0.000067
N32	N	0.368889	0.559708	0.500067
C33	C	-0.105900	0.059958	-0.046193
C34	C	0.394100	0.559958	0.453807
O35	O	-0.131967	0.059683	-0.085537
O36	O	0.368033	0.559683	0.414463
C37	C	0.095758	0.062016	-0.046199
C38	C	0.595758	0.562016	0.453801
C39	C	0.120961	0.062283	0.000060
C40	C	0.620961	0.562283	0.500060
C41	C	0.120958	0.062299	0.092573
C42	C	0.620958	0.562299	0.592573
C43	C	0.171369	0.062817	0.092571
C44	C	0.671369	0.562817	0.592571
C45	C	0.196576	0.063068	0.046313
C46	C	0.696576	0.563068	0.546313
C47	C	0.171372	0.062802	0.000058
C48	C	0.671372	0.562802	0.500058
C49	C	0.120968	0.062263	-0.092459
C50	C	0.620968	0.562263	0.407541
C51	C	0.171386	0.062776	-0.092457
C52	C	0.671386	0.562776	0.407543
C53	C	0.196590	0.063043	-0.046197
C54	C	0.696590	0.563043	0.453803
C55	C	0.246991	0.063571	-0.046201
C56	C	0.746991	0.563571	0.453799
N57	N	0.272198	0.063833	0.000055
N58	N	0.772198	0.563833	0.500055
C59	C	0.246991	0.063582	0.046312
C60	C	0.746991	0.563582	0.546312
C61	C	-0.211773	0.058878	-0.046187
C62	C	0.288227	0.558878	0.453813
C63	C	-0.262188	0.058365	-0.046186
C64	C	0.237812	0.558365	0.453814
C65	C	-0.262188	0.058376	0.046331
C66	C	0.237812	0.558376	0.546331
C67	C	-0.211774	0.058894	0.046329
C68	C	0.288226	0.558894	0.546329
C69	C	-0.186566	0.059141	0.000069
C70	C	0.313434	0.559141	0.500069
C71	C	0.352858	0.064670	0.046305
C72	C	0.852858	0.564670	0.546305
C73	C	0.403273	0.065190	0.046298
C74	C	0.903273	0.565190	0.546298
C75	C	0.403269	0.065176	-0.046218
C76	C	0.903269	0.565176	0.453782
C77	C	0.352858	0.064659	-0.046213
C78	C	0.852858	0.564659	0.453787
C79	C	0.327654	0.064404	0.000053
C80	C	0.827654	0.564404	0.500053
O81	O	0.273102	0.063848	-0.085520
O82	O	0.773102	0.563848	0.414480
O83	O	0.273067	0.063847	0.085650
O84	O	0.773067	0.563847	0.585650
C85	C	0.045343	0.061514	0.046319
C86	C	0.545343	0.561514	0.546319
C87	C	0.020139	0.061247	0.000064
C88	C	0.520139	0.561247	0.500064
C89	C	0.045346	0.061499	-0.046193
C90	C	0.545346	0.561499	0.453807
C91	C	-0.030275	0.060734	0.000065
C92	C	0.469725	0.560734	0.500065
C93	C	-0.055483	0.060482	0.046323
C94	C	0.444517	0.560482	0.546323
C95	C	-0.030276	0.060745	0.092579
C96	C	0.469724	0.560745	0.592579
C97	C	0.020135	0.061263	0.092577
C98	C	0.520135	0.561263	0.592577
C99	C	0.020139	0.061236	-0.092449
C100	C	0.520139	0.561236	0.407551
C101	C	-0.030272	0.060719	-0.092443
C102	C	0.469728	0.560719	0.407557
C103	C	-0.055479	0.060468	-0.046186
C104	C	0.444521	0.560468	0.453814
C105	C	0.574732	-0.026627	0.000070
C106	C	1.074732	0.473373	0.500070
C107	C	0.574179	-0.080282	0.000074
C108	C	1.074179	0.419718	0.500074
C109	C	0.614884	-0.419105	0.000053
C110	C	1.114884	0.080895	0.500053
C111	C	0.612833	-0.620764	0.000046
C112	C	1.112833	-0.120764	0.500046
O113	O	0.650055	-0.652027	0.000028
O114	O	1.150055	-0.152027	0.500028
N115	N	0.568496	-0.639879	0.000041
N116	N	1.068496	-0.139879	0.500041
C117	C	0.524670	-0.608576	0.000034
C118	C	1.024670	-0.108576	0.500034
O119	O	0.486912	-0.629462	0.000024
O120	O	0.986912	-0.129462	0.500024
C121	C	0.526721	-0.406918	0.000038
C122	C	1.026721	0.093082	0.500038
C123	C	0.571061	-0.387805	0.000048
C124	C	1.071061	0.112195	0.500048
C125	C	0.659220	-0.399992	0.000063
C126	C	1.159220	0.100008	0.500063
C127	C	0.659732	-0.349580	0.000068
C128	C	1.159732	0.150420	0.500068
C129	C	0.615908	-0.318281	0.000062
C130	C	1.115908	0.181719	0.500062
C131	C	0.571573	-0.337394	0.000053
C132	C	1.071573	0.162606	0.500053
C133	C	0.482895	-0.375615	0.000028
C134	C	0.982895	0.124385	0.500028
C135	C	0.483412	-0.325198	0.000027
C136	C	0.983412	0.174802	0.500027
C137	C	0.527751	-0.306086	0.000037
C138	C	1.027751	0.193914	0.500037
C139	C	0.528262	-0.255683	0.000052
C140	C	1.028262	0.244317	0.500052
N141	N	0.572598	-0.236567	0.000057
N142	N	1.072598	0.263433	0.500057
C143	C	0.616421	-0.267867	0.000062
C144	C	1.116421	0.232133	0.500062
C145	C	0.523596	-0.714450	0.000033
C146	C	1.023596	-0.214450	0.500033
C147	C	0.523083	-0.764864	0.000033
C148	C	1.023083	-0.264864	0.500033
C149	C	0.611246	-0.777049	0.000044
C150	C	1.111246	-0.277049	0.500044
C151	C	0.611759	-0.726633	0.000048
C152	C	1.111759	-0.226633	0.500048
C153	C	0.567932	-0.695335	0.000038
C154	C	1.067932	-0.195335	0.500038
C155	C	0.617494	-0.161998	0.000073
C156	C	1.117494	0.338002	0.500073
C157	C	0.618002	-0.111581	0.000079
C158	C	1.118002	0.388419	0.500079
C159	C	0.529839	-0.099401	0.000066
C160	C	1.029839	0.400599	0.500066
C161	C	0.529331	-0.149813	0.000062
C162	C	1.029331	0.350187	0.500062
C163	C	0.573162	-0.181111	0.000063
C164	C	1.073162	0.318889	0.500063
O165	O	0.491060	-0.224391	0.000064
O166	O	0.991060	0.275609	0.500064
O167	O	0.654174	-0.246971	0.000061
O168	O	1.154174	0.253029	0.500061
C169	C	0.614372	-0.469517	0.000049
C170	C	1.114372	0.030483	0.500049
C171	C	0.570036	-0.488629	0.000039
C172	C	1.070036	0.011371	0.500039
C173	C	0.526213	-0.457330	0.000034
C174	C	1.026213	0.042670	0.500034
C175	C	0.569523	-0.539043	0.000039
C176	C	1.069523	-0.039043	0.500039
C177	C	0.613346	-0.570343	0.000044
C178	C	1.113346	-0.070343	0.500044
C179	C	0.657683	-0.551228	0.000049
C180	C	1.157683	-0.051228	0.500049
C181	C	0.658195	-0.500816	0.000054
C182	C	1.158195	-0.000816	0.500054
C183	C	0.481876	-0.476445	0.000029
C184	C	0.981876	0.023555	0.500029
C185	C	0.481367	-0.526857	0.000025
C186	C	0.981367	-0.026857	0.500025
C187	C	0.525191	-0.558157	0.000030
C188	C	1.025191	-0.058157	0.500030
C189	C	0.658949	0.057571	0.000068
C190	C	1.158949	0.557571	0.500068
C191	C	0.712605	0.058114	0.000071
C192	C	1.212605	0.558114	0.500071
C193	C	0.566353	0.150182	0.000046
C194	C	1.066353	0.650182	0.500046
C195	C	0.566906	0.203837	0.000038
C196	C	1.066906	0.703837	0.500038
N197	N	0.570526	0.061794	0.120820
N198	N	1.070526	0.561794	0.620820
N199	N	0.570563	0.061757	-0.120703
N200	N	1.070563	0.561757	0.379297
C201	C	0.603656	0.028664	0.473342
C202	C	1.103656	0.528664	0.973342
C203	C	0.603667	0.028657	0.687001
C204	C	1.103667	0.528657	1.187001
O205	O	0.631818	0.000491	0.714630
O206	O	1.131818	0.500491	1.214630
N207	N	0.570554	0.061760	0.713714
N208	N	1.070554	0.561760	1.213714
C209	C	0.537433	0.094865	0.687008
C210	C	1.037433	0.594865	1.187008
O211	O	0.509265	0.123018	0.714632
O212	O	1.009265	0.623018	1.214632
C213	C	0.537421	0.094869	0.473351
C214	C	1.037421	0.594869	0.973351
C215	C	0.570539	0.061767	0.446641
C216	C	1.070539	0.561767	0.946641
C217	C	0.636772	-0.004436	0.446632
C218	C	1.136772	0.495564	0.946632
C219	C	0.636771	-0.004432	0.393221
C220	C	1.136771	0.495568	0.893221
C221	C	0.603654	0.028671	0.366519
C222	C	1.103654	0.528671	0.866519
C223	C	0.570538	0.061771	0.393229
C224	C	1.070538	0.561771	0.893229
C225	C	0.504298	0.127971	0.446647
C226	C	1.004298	0.627971	0.946647
C227	C	0.504297	0.127969	0.393229
C228	C	1.004297	0.627969	0.893229
C229	C	0.537416	0.094867	0.366519
C230	C	1.037416	0.594867	0.866519
C231	C	0.537420	0.094878	0.313117
C232	C	1.037420	0.594878	0.813117
N233	N	0.570533	0.061775	0.286404
N234	N	1.070533	0.561775	0.786404
C235	C	0.603650	0.028672	0.313105
C236	C	1.103650	0.528672	0.813105
C237	C	0.537443	0.094861	0.799182
C238	C	1.037443	0.594861	1.299182
C239	C	0.537446	0.094861	0.852596
C240	C	1.037446	0.594861	1.352596
C241	C	0.603680	0.028652	0.852585
C242	C	1.103680	0.528652	1.352585
C243	C	0.603678	0.028655	0.799169
C244	C	1.103678	0.528655	1.299169
C245	C	0.570556	0.061758	0.772469
C246	C	1.070556	0.561758	1.272469
C247	C	0.603645	0.028682	0.200937
C248	C	1.103645	0.528682	0.700937
C249	C	0.603643	0.028690	0.147521
C250	C	1.103643	0.528690	0.647521
C251	C	0.537408	0.094897	0.147537
C252	C	1.037408	0.594897	0.647537
C253	C	0.537412	0.094891	0.200949
C254	C	1.037412	0.594891	0.700949
C255	C	0.570533	0.061780	0.227647
C256	C	1.070533	0.561780	0.727647
O257	O	0.509281	0.123026	0.285454
O258	O	1.009281	0.623026	0.785454
O259	O	0.631807	0.000516	0.285473
O260	O	1.131807	0.500516	0.785473
C261	C	0.603658	0.028660	0.526754
C262	C	1.103658	0.528660	1.026754
C263	C	0.570542	0.061760	0.553464
C264	C	1.070542	0.561760	1.053464
C265	C	0.537425	0.094863	0.526762
C266	C	1.037425	0.594863	1.026762
C267	C	0.570546	0.061759	0.606878
C268	C	1.070546	0.561759	1.106878
C269	C	0.603663	0.028656	0.633579
C270	C	1.103663	0.528656	1.133579
C271	C	0.636776	-0.004447	0.606866
C272	C	1.136776	0.495553	1.106866
C273	C	0.636775	-0.004443	0.553455
C274	C	1.136775	0.495557	1.053455
C275	C	0.504311	0.127966	0.553475
C276	C	1.004311	0.627966	1.053475
C277	C	0.504316	0.127960	0.606887
C278	C	1.004316	0.627960	1.106887
C279	C	0.537433	0.094857	0.633588
C280	C	1.037433	0.594857	1.133588
H281	H	0.423802	0.065383	-0.083880
H282	H	0.923802	0.565383	0.416120
H283	H	0.695837	-0.334024	0.000074
H284	H	1.195837	0.165976	0.500074
O285	O	0.096448	0.061934	-0.137363
O286	O	0.596448	0.561934	0.362637
C287	C	0.073092	0.019747	-0.140128
C288	C	0.573092	0.519747	0.359872
H289	H	0.067462	0.005718	-0.099962
H290	H	0.567462	0.505718	0.400038
H291	H	0.036342	0.028797	-0.159714
H292	H	0.536342	0.528797	0.340286
H293	H	0.096583	-0.009385	-0.162944
H294	H	0.596583	0.490615	0.337056
H295	H	0.447722	-0.299716	0.000019
H296	H	0.947722	0.200284	0.500019
O297	O	0.480054	-0.783507	0.000050
O298	O	0.980054	-0.283507	0.500050
C299	C	0.488992	-0.834716	0.000037
C300	C	0.988992	-0.334716	0.500037
H301	H	0.526801	-0.846844	0.016109
H302	H	1.026801	-0.346844	0.516109
H303	H	0.460637	-0.849981	0.024667
H304	H	0.960637	-0.349981	0.524667
H305	H	0.486764	-0.848733	-0.040675
H306	H	0.986764	-0.348733	0.459325
O307	O	0.195838	0.063105	-0.137408
O308	O	0.695838	0.563105	0.362592
C309	C	0.177716	0.104848	-0.165561
C310	C	0.677716	0.604848	0.334439
H311	H	0.159808	0.133982	-0.138498
H312	H	0.659808	0.633982	0.361502
H313	H	0.208925	0.119244	-0.186548
H314	H	0.708925	0.619244	0.313452
H315	H	0.149763	0.095074	-0.194400
H316	H	0.649763	0.595074	0.305600
H317	H	0.446789	-0.391167	0.000016
H318	H	0.946789	0.108833	0.500016
H319	H	0.663740	-0.031395	0.468368
H320	H	1.163740	0.468605	0.968368
H321	H	-0.282705	0.058155	-0.083855
H322	H	0.217295	0.558155	0.416145
H323	H	0.332335	0.064449	-0.083880
H324	H	0.832335	0.564449	0.416120
H325	H	-0.191254	0.059079	-0.083860
H326	H	0.308746	0.559079	0.416140
H327	H	0.693365	-0.576720	0.000055
H328	H	1.193365	-0.076720	0.500055
H329	H	0.191886	0.063032	0.130240
H330	H	0.691886	0.563032	0.630240
O331	O	0.096547	0.062079	0.137557
O332	O	0.596547	0.562079	0.637557
C333	C	0.129615	0.062412	0.178376
C334	C	0.629615	0.562412	0.678376
H335	H	0.163435	0.078082	0.164801
H336	H	0.663435	0.578082	0.664801
H337	H	0.111809	0.085749	0.210726
H338	H	0.611809	0.585749	0.710726
H339	H	0.140341	0.023674	0.192607
H340	H	0.640341	0.523674	0.692607
O341	O	0.472057	0.160079	0.472560
O342	O	0.972057	0.660079	0.972560
C343	C	0.424270	0.152559	0.459494
C344	C	0.924270	0.652559	0.959494
H345	H	0.424333	0.113856	0.444816
H346	H	0.924333	0.613856	0.944816
H347	H	0.399964	0.158293	0.494618
H348	H	0.899964	0.658293	0.994618
H349	H	0.409873	0.179448	0.428484
H350	H	0.909873	0.679448	0.928484
H351	H	0.445258	-0.542413	0.000021
H352	H	0.945258	-0.042413	0.500021
H353	H	0.040652	0.061481	0.130246
H354	H	0.540652	0.561481	0.630246
O355	O	0.668879	-0.036652	0.632833
O356	O	1.168879	0.463348	1.132833
C357	C	0.643210	-0.066279	0.663740
C358	C	1.143210	0.433721	1.163740
H359	H	0.605097	-0.066824	0.647640
H360	H	1.105097	0.433176	1.147640
H361	H	0.663217	-0.104842	0.664350
H362	H	1.163217	0.395158	1.164350
H363	H	0.640558	-0.051129	0.704220
H364	H	1.140558	0.448871	1.204220
O365	O	0.635866	-0.003549	0.773305
O366	O	1.135866	0.496451	1.273305
C367	C	0.665103	-0.032755	0.808333
C368	C	1.165103	0.467245	1.308333
H369	H	0.645290	-0.033157	0.846410
H370	H	1.145290	0.466843	1.346410
H371	H	0.672768	-0.071413	0.792904
H372	H	1.172768	0.428587	1.292904
H373	H	0.700893	-0.017312	0.814008
H374	H	1.200893	0.482688	1.314008
H375	H	0.477343	0.154922	0.531739
H376	H	0.977343	0.654922	1.031739
O377	O	0.439260	-0.446113	0.000049
O378	O	0.939260	0.053887	0.500049
C379	C	0.400022	-0.473802	0.000031
C380	C	0.900022	0.026198	0.500031
H381	H	0.412584	-0.511526	0.016092
H382	H	0.912584	-0.011526	0.516092
H383	H	0.369336	-0.454981	0.024668
H384	H	0.869336	0.045019	0.524668
H385	H	0.386418	-0.477287	-0.040681
H386	H	0.886418	0.022713	0.459319
H387	H	0.040658	0.061439	-0.130118
H388	H	0.540658	0.561439	0.369882
O389	O	-0.286607	0.058152	0.091312
O390	O	0.213393	0.558152	0.591312
C391	C	-0.253553	0.058477	0.132144
C392	C	0.246447	0.558477	0.632144
H393	H	-0.219731	0.074155	0.118589
H394	H	0.280269	0.574155	0.618589
H395	H	-0.271372	0.081804	0.164495
H396	H	0.228628	0.581804	0.664495
H397	H	-0.242828	0.019737	0.146367
H398	H	0.257172	0.519737	0.646367
H399	H	0.510448	0.121850	0.222696
H400	H	1.010448	0.621850	0.722696
O401	O	0.653861	-0.807389	0.000068
O402	O	1.153861	-0.307389	0.500068
C403	C	0.693109	-0.779714	0.000056
C404	C	1.193109	-0.279714	0.500056
H405	H	0.680557	-0.741991	0.016124
H406	H	1.180557	-0.241991	0.516124
H407	H	0.723788	-0.798548	0.024690
H408	H	1.223788	-0.298548	0.524690
H409	H	0.706719	-0.776226	-0.040655
H410	H	1.206719	-0.276226	0.459345
H411	H	0.493226	-0.165375	0.000068
H412	H	0.993226	0.334625	0.500068
H413	H	0.477324	0.154925	0.371492
H414	H	0.977324	0.654925	0.871492
H415	H	-0.050809	0.060543	0.130243
H416	H	0.449191	0.560543	0.630243
H417	H	0.653186	-0.187475	0.000072
H418	H	1.153186	0.312525	0.500072
O419	O	0.505231	0.127038	0.878460
O420	O	1.005231	0.627038	1.378460
C421	C	0.476010	0.156261	0.843432
C422	C	0.976010	0.656261	1.343432
H423	H	0.475616	0.136443	0.805358
H424	H	0.975616	0.636443	1.305358
H425	H	0.437352	0.163908	0.858865
H426	H	0.937352	0.663908	1.358865
H427	H	0.491434	0.192060	0.837748
H428	H	0.991434	0.692060	1.337748
O429	O	0.654799	-0.708012	-0.000015
O430	O	1.154799	-0.208012	0.499985
C431	C	0.657749	-0.679228	-0.043971
C432	C	1.157749	-0.179228	0.456029
H433	H	0.619556	-0.666382	-0.058629
H434	H	1.119556	-0.166382	0.441371
H435	H	0.676768	-0.646358	-0.034087
H436	H	1.176768	-0.146358	0.465913
H437	H	0.679307	-0.701669	-0.074742
H438	H	1.179307	-0.201669	0.425258
O439	O	0.635833	-0.003514	0.121655
O440	O	1.135833	0.496486	0.621655
C441	C	0.665069	-0.032725	0.156680
C442	C	1.165069	0.467275	0.656680
H443	H	0.645254	-0.033131	0.194756
H444	H	1.145254	0.466869	0.694756
H445	H	0.672734	-0.071381	0.141247
H446	H	1.172734	0.428619	0.641247
H447	H	0.700859	-0.017283	0.162360
H448	H	1.200859	0.482717	0.662360
H449	H	0.630646	0.001698	0.874334
H450	H	1.130646	0.501698	1.374334
O451	O	0.505304	0.127070	0.121537
O452	O	1.005304	0.627070	0.621537
C453	C	0.530963	0.156719	0.090646
C454	C	1.030963	0.656719	0.590646
H455	H	0.568935	0.137203	0.082645
H456	H	1.068935	0.637203	0.582645
H457	H	0.510731	0.164502	0.053084
H458	H	1.010731	0.664502	0.553084
H459	H	0.533972	0.192426	0.111227
H460	H	1.033972	0.692426	0.611227
H461	H	0.494160	-0.073908	0.000064
H462	H	0.994160	0.426092	0.500064
H463	H	0.694301	-0.485260	0.000062
H464	H	1.194301	0.014740	0.500062
O465	O	0.635840	-0.003415	0.226922
O466	O	1.135840	0.496585	0.726922
C467	C	0.665478	0.022258	0.257807
C468	C	1.165478	0.522258	0.757807
H469	H	0.645941	0.060218	0.265822
H470	H	1.145941	0.560218	0.765822
H471	H	0.673286	0.002019	0.295363
H472	H	1.173286	0.502019	0.795363
H473	H	0.701174	0.025296	0.237214
H474	H	1.201174	0.525296	0.737214
O475	O	-0.054707	0.060525	-0.137416
O476	O	0.445293	0.560525	0.362584
C477	C	-0.048190	0.102532	-0.165562
C478	C	0.451810	0.602532	0.334438
H479	H	-0.013522	0.116876	-0.152409
H480	H	0.486478	0.616876	0.347591
H481	H	-0.045154	0.093120	-0.207876
H482	H	0.454846	0.593120	0.292124
H483	H	-0.080623	0.131566	-0.159160
H484	H	0.419377	0.631566	0.340840
O485	O	0.505335	0.127044	0.773194
O486	O	1.005335	0.627044	1.273194
C487	C	0.530997	0.156694	0.742307
C488	C	1.030997	0.656694	1.242307
H489	H	0.568962	0.137170	0.734291
H490	H	1.068962	0.637170	1.234291
H491	H	0.510757	0.164495	0.704752
H492	H	1.010757	0.664495	1.204752
H493	H	0.534021	0.192392	0.762899
H494	H	1.034021	0.692392	1.262899
H495	H	0.654110	-0.096023	0.000089
H496	H	1.154110	0.403977	0.500089
H497	H	0.663738	-0.031388	0.371476
H498	H	1.163738	0.468612	0.871476
O499	O	0.668963	-0.036648	0.527592
O500	O	1.168963	0.463352	1.027592
C501	C	0.698197	-0.065855	0.562622
C502	C	1.198197	0.434145	1.062622
H503	H	0.678380	-0.066256	0.600697
H504	H	1.178380	0.433744	1.100697
H505	H	0.705862	-0.104513	0.547193
H506	H	1.205862	0.395487	1.047193
H507	H	0.733987	-0.050413	0.568301
H508	H	1.233987	0.449587	1.068301
O509	O	0.701838	-0.430323	0.000092
O510	O	1.201838	0.069677	0.500092
C511	C	0.741073	-0.402633	0.000087
C512	C	1.241073	0.097367	0.500087
H513	H	0.728503	-0.364909	0.016147
H514	H	1.228503	0.135091	0.516147
H515	H	0.771751	-0.421452	0.024732
H516	H	1.271751	0.078548	0.524732
H517	H	0.754691	-0.399145	-0.040621
H518	H	1.254691	0.100855	0.459379
O519	O	0.480975	-0.684118	0.000051
O520	O	0.980975	-0.184118	0.500051
C521	C	0.441738	-0.711807	0.000036
C522	C	0.941738	-0.211807	0.500036
H523	H	0.454301	-0.749529	0.016101
H524	H	0.954301	-0.249529	0.516101
H525	H	0.411052	-0.692984	0.024671
H526	H	0.911052	-0.192984	0.524671
H527	H	0.428135	-0.715296	-0.040676
H528	H	0.928135	-0.215296	0.459324
O529	O	0.472095	0.160137	0.632750
O530	O	0.972095	0.660137	1.132750
C531	C	0.442875	0.189360	0.597722
C532	C	0.942875	0.689360	1.097722
H533	H	0.442484	0.169545	0.559646
H534	H	0.942484	0.669545	1.059646
H535	H	0.404215	0.197003	0.613153
H536	H	0.904215	0.697003	1.113153
H537	H	0.458296	0.225162	0.592044
H538	H	0.958296	0.725162	1.092044
H539	H	0.423791	0.065410	0.083970
H540	H	0.923791	0.565410	0.583970
H541	H	0.332341	0.064467	0.083978
H542	H	0.832341	0.564467	0.583978
H543	H	-0.191256	0.059112	0.083998
H544	H	0.308744	0.559112	0.583998
