data_functionalizedCrystal
_audit_creation_method	'MofGen! by Chris Wilmer'
_symmetry_space_group_name_H-M	'P1'
_symmetry_Int_Tables_number	1
_symmetry_cell_setting	triclinic
loop_
_symmetry_equiv_pos_as_xyz
  x,y,z
_cell_length_a	17.699083
_cell_length_b	12.503552
_cell_length_c	17.699083
_cell_angle_alpha	93.511598
_cell_angle_beta	96.716985
_cell_angle_gamma	93.510006
loop_
_atom_site_label
_atom_site_type_symbol
_atom_site_fract_x
_atom_site_fract_y
_atom_site_fract_z
O1	O	1.008446	0.089172	-0.091335
O2	O	1.258446	0.339172	0.158665
O3	O	1.508446	0.589172	0.408665
O4	O	1.758446	0.839172	0.658665
O5	O	0.788069	0.089207	-0.103786
O6	O	1.038069	0.339207	0.146214
O7	O	1.288069	0.589207	0.396214
O8	O	1.538069	0.839207	0.646214
O9	O	0.904483	0.089179	0.012628
O10	O	1.154483	0.339179	0.262628
O11	O	1.404483	0.589179	0.512628
O12	O	1.654483	0.839179	0.762628
O13	O	0.892032	0.089200	-0.207749
O14	O	1.142032	0.339200	0.042251
O15	O	1.392032	0.589200	0.292251
O16	O	1.642032	0.839200	0.542251
O17	O	0.895718	-0.089461	0.003865
O18	O	1.145718	0.160539	0.253865
O19	O	1.395718	0.410539	0.503865
O20	O	1.645718	0.660539	0.753865
O21	O	0.779304	-0.089433	-0.112549
O22	O	1.029304	0.160567	0.137451
O23	O	1.279304	0.410567	0.387451
O24	O	1.529304	0.660567	0.637451
O25	O	0.999681	-0.089469	-0.100098
O26	O	1.249681	0.160531	0.149902
O27	O	1.499681	0.410531	0.399902
O28	O	1.749681	0.660531	0.649902
Cu29	Cu	0.888692	-0.105762	-0.107124
Cu30	Cu	1.138692	0.144238	0.142876
Cu31	Cu	1.388692	0.394238	0.392876
Cu32	Cu	1.638692	0.644238	0.642876
Cu33	Cu	0.899058	0.105501	-0.096761
Cu34	Cu	1.149058	0.355501	0.153239
Cu35	Cu	1.399058	0.605501	0.403239
Cu36	Cu	1.649058	0.855501	0.653239
O37	O	0.883267	-0.089440	-0.216512
O38	O	1.133267	0.160560	0.033488
O39	O	1.383267	0.410560	0.283488
O40	O	1.633267	0.660560	0.533488
C41	C	0.755490	-0.000109	-0.107721
C42	C	1.005490	0.249891	0.142279
C43	C	1.255490	0.499891	0.392279
C44	C	1.505490	0.749891	0.642279
C45	C	0.671473	-0.000095	-0.106382
C46	C	0.921473	0.249905	0.143618
C47	C	1.171473	0.499905	0.393618
C48	C	1.421473	0.749905	0.643618
C49	C	0.622852	-0.000089	-0.174715
C50	C	0.872852	0.249911	0.075285
C51	C	1.122852	0.499911	0.325285
C52	C	1.372852	0.749911	0.575285
C53	C	0.543908	-0.000103	-0.173453
C54	C	0.793908	0.249897	0.076547
C55	C	1.043908	0.499897	0.326547
C56	C	1.293908	0.749897	0.576547
C57	C	0.513587	-0.000116	-0.103857
C58	C	0.763587	0.249884	0.146143
C59	C	1.013587	0.499884	0.396143
C60	C	1.263587	0.749884	0.646143
C61	C	0.562213	-0.000125	-0.035519
C62	C	0.812213	0.249875	0.214481
C63	C	1.062213	0.499875	0.464481
C64	C	1.312213	0.749875	0.714481
C65	C	0.641155	-0.000119	-0.036782
C66	C	0.891155	0.249881	0.213218
C67	C	1.141155	0.499881	0.463218
C68	C	1.391155	0.749881	0.713218
C69	C	0.243849	-0.000152	-0.030425
C70	C	0.493849	0.249848	0.219575
C71	C	0.743849	0.499848	0.469575
C72	C	0.993849	0.749848	0.719575
C73	C	0.164901	-0.000155	-0.029168
C74	C	0.414901	0.249845	0.220832
C75	C	0.664901	0.499845	0.470832
C76	C	0.914901	0.749845	0.720832
C77	C	0.146602	-0.000137	-0.167097
C78	C	0.396602	0.249863	0.082903
C79	C	0.646602	0.499863	0.332903
C80	C	0.896602	0.749863	0.582903
C81	C	0.225544	-0.000130	-0.168359
C82	C	0.475544	0.249870	0.081641
C83	C	0.725544	0.499870	0.331641
C84	C	0.975544	0.749870	0.581641
C85	C	0.274163	-0.000145	-0.100022
C86	C	0.524163	0.249855	0.149978
C87	C	0.774163	0.499855	0.399978
C88	C	1.024163	0.749855	0.649978
C89	C	0.359763	-0.000132	-0.101391
C90	C	0.609763	0.249868	0.148609
C91	C	0.859763	0.499868	0.398609
C92	C	1.109763	0.749868	0.648609
C93	C	0.427989	-0.000121	-0.102487
C94	C	0.677989	0.249879	0.147513
C95	C	0.927989	0.499879	0.397513
C96	C	1.177989	0.749879	0.647513
N97	N	0.881407	-0.254353	-0.114412
N98	N	1.131407	-0.004353	0.135588
N99	N	1.381407	0.245647	0.385588
N100	N	1.631407	0.495647	0.635588
C101	C	0.917062	-0.526795	-0.078743
C102	C	1.167062	-0.276795	0.171257
C103	C	1.417062	-0.026795	0.421257
C104	C	1.667062	0.223205	0.671257
C105	C	0.870697	-0.473460	-0.125133
C106	C	1.120697	-0.223460	0.124867
C107	C	1.370697	0.026540	0.374867
C108	C	1.620697	0.276540	0.624867
C109	C	0.876658	-0.351538	-0.119166
C110	C	1.126658	-0.101538	0.130834
C111	C	1.376658	0.148462	0.380834
C112	C	1.626658	0.398462	0.630834
C113	C	0.911102	-0.648728	-0.084709
C114	C	1.161102	-0.398728	0.165291
C115	C	1.411102	-0.148728	0.415291
C116	C	1.661102	0.101272	0.665291
C117	C	1.032260	-0.000151	-0.096163
C118	C	1.282260	0.249849	0.153837
C119	C	1.532260	0.499849	0.403837
C120	C	1.782260	0.749849	0.653837
C121	C	1.116278	-0.000157	-0.097502
C122	C	1.366278	0.249843	0.152498
C123	C	1.616278	0.499843	0.402498
C124	C	1.866278	0.749843	0.652498
C125	C	0.899655	-0.000141	0.036444
C126	C	1.149655	0.249859	0.286444
C127	C	1.399655	0.499859	0.536444
C128	C	1.649655	0.749859	0.786444
C129	C	0.898316	-0.000142	0.120462
C130	C	1.148316	0.249858	0.370462
C131	C	1.398316	0.499858	0.620462
C132	C	1.648316	0.749858	0.870462
N133	N	0.906349	0.254092	-0.089466
N134	N	1.156349	0.504092	0.160534
N135	N	1.406349	0.754092	0.410534
N136	N	1.656349	1.004092	0.660534
C137	C	0.888096	-0.000118	-0.240328
C138	C	1.138096	0.249882	0.009672
C139	C	1.388096	0.499882	0.259672
C140	C	1.638096	0.749882	0.509672
C141	C	0.889435	-0.000111	-0.324345
C142	C	1.139435	0.249889	-0.074345
C143	C	1.389435	0.499889	0.175655
C144	C	1.639435	0.749889	0.425655
C145	C	0.966649	-0.000154	0.169082
C146	C	1.216649	0.249846	0.419082
C147	C	1.466649	0.499846	0.669082
C148	C	1.716649	0.749846	0.919082
C149	C	0.965387	-0.000144	0.248026
C150	C	1.215387	0.249856	0.498026
C151	C	1.465387	0.499856	0.748026
C152	C	1.715387	0.749856	0.998026
C153	C	0.895791	-0.000130	0.278347
C154	C	1.145791	0.249870	0.528347
C155	C	1.395791	0.499870	0.778347
C156	C	1.645791	0.749870	1.028347
C157	C	0.827453	-0.000114	0.229721
C158	C	1.077453	0.249886	0.479721
C159	C	1.327453	0.499886	0.729721
C160	C	1.577453	0.749886	0.979721
C161	C	0.828716	-0.000116	0.150779
C162	C	1.078716	0.249884	0.400779
C163	C	1.328716	0.499884	0.650779
C164	C	1.578716	0.749884	0.900779
C165	C	0.822359	-0.000105	0.548084
C166	C	1.072359	0.249895	0.798084
C167	C	1.322359	0.499895	1.048084
C168	C	1.572359	0.749895	1.298084
C169	C	0.821101	-0.000106	0.627032
C170	C	1.071101	0.249894	0.877032
C171	C	1.321101	0.499894	1.127032
C172	C	1.571101	0.749894	1.377032
C173	C	0.959029	-0.000133	0.645331
C174	C	1.209029	0.249867	0.895331
C175	C	1.459029	0.499867	1.145331
C176	C	1.709029	0.749867	1.395331
C177	C	0.960292	-0.000135	0.566389
C178	C	1.210292	0.249865	0.816389
C179	C	1.460292	0.499865	1.066389
C180	C	1.710292	0.749865	1.316389
C181	C	0.891955	-0.000113	0.517770
C182	C	1.141955	0.249887	0.767770
C183	C	1.391955	0.499887	1.017770
C184	C	1.641955	0.749887	1.267770
C185	C	0.893324	-0.000122	0.432171
C186	C	1.143324	0.249878	0.682171
C187	C	1.393324	0.499878	0.932171
C188	C	1.643324	0.749878	1.182171
C189	C	0.894421	-0.000129	0.363945
C190	C	1.144421	0.249871	0.613945
C191	C	1.394421	0.499871	0.863945
C192	C	1.644421	0.749871	1.113945
H193	H	0.504324	-0.000097	-0.229097
H194	H	0.754324	0.249903	0.020903
H195	H	1.004324	0.499903	0.270903
H196	H	1.254324	0.749903	0.520903
Br197	Br	0.266690	-0.000103	-0.262813
Br198	Br	0.516690	0.249897	-0.012813
Br199	Br	0.766690	0.499897	0.237187
Br200	Br	1.016690	0.749897	0.487187
H201	H	0.107005	-0.000130	-0.222741
H202	H	0.357005	0.249870	0.027259
H203	H	0.607005	0.499870	0.277259
H204	H	0.857005	0.749870	0.527259
Br205	Br	0.990682	-0.450291	-0.005082
Br206	Br	1.240682	-0.200291	0.244918
Br207	Br	1.490682	0.049709	0.494918
Br208	Br	1.740682	0.299709	0.744918
H209	H	1.023321	-0.000172	0.144401
H210	H	1.273321	0.249828	0.394401
H211	H	1.523321	0.499828	0.644401
H212	H	1.773321	0.749828	0.894401
H213	H	0.764424	-0.000096	0.651716
H214	H	1.014424	0.249904	0.901716
H215	H	1.264424	0.499904	1.151716
H216	H	1.514424	0.749904	1.401716
Br217	Br	0.735976	-0.000090	0.084793
Br218	Br	0.985976	0.249910	0.334793
Br219	Br	1.235976	0.499910	0.584793
Br220	Br	1.485976	0.749910	0.834793
H221	H	0.140217	-0.000167	0.027509
H222	H	0.390217	0.249833	0.277509
H223	H	0.640217	0.499833	0.527509
H224	H	0.890217	0.749833	0.777509
H225	H	1.021031	-0.000157	0.287610
H226	H	1.271031	0.249843	0.537610
H227	H	1.521031	0.499843	0.787610
H228	H	1.771031	0.749843	1.037610
H229	H	0.826526	-0.519365	-0.169331
H230	H	1.076526	-0.269365	0.080669
H231	H	1.326526	-0.019365	0.330669
H232	H	1.576526	0.230635	0.580669
Br233	Br	0.729615	-0.000069	0.482111
Br234	Br	0.979615	0.249931	0.732111
Br235	Br	1.229615	0.499931	0.982111
Br236	Br	1.479615	0.749931	1.232111
Br237	Br	1.054747	-0.000154	0.525243
Br238	Br	1.304747	0.249846	0.775243
Br239	Br	1.554747	0.499846	1.025243
Br240	Br	1.804747	0.749846	1.275243
Br241	Br	1.051775	-0.000161	0.711319
Br242	Br	1.301775	0.249839	0.961319
Br243	Br	1.551775	0.499839	1.211319
Br244	Br	1.801775	0.749839	1.461319
H245	H	0.647533	-0.000078	-0.231388
H246	H	0.897533	0.249922	0.018612
H247	H	1.147533	0.499922	0.268612
H248	H	1.397533	0.749922	0.518612
Br249	Br	0.309823	-0.000175	0.062319
Br250	Br	0.559823	0.249825	0.312319
Br251	Br	0.809823	0.499825	0.562319
Br252	Br	1.059823	0.749825	0.812319
H253	H	0.770788	-0.000095	0.254415
H254	H	1.020788	0.249905	0.504415
H255	H	1.270788	0.499905	0.754415
H256	H	1.520788	0.749905	1.004415
H257	H	0.680742	-0.000123	0.018862
H258	H	0.930742	0.249877	0.268862
H259	H	1.180742	0.499877	0.518862
H260	H	1.430742	0.749877	0.768862
Br261	Br	0.521063	-0.000153	0.058933
Br262	Br	0.771063	0.249847	0.308933
Br263	Br	1.021063	0.499847	0.558933
Br264	Br	1.271063	0.749847	0.808933
