data_functionalizedCrystal
_audit_creation_method	'MofGen! by Chris Wilmer'
_symmetry_space_group_name_H-M	'P1'
_symmetry_Int_Tables_number	1
_symmetry_cell_setting	triclinic
loop_
_symmetry_equiv_pos_as_xyz
  x,y,z
_cell_length_a	10.654537
_cell_length_b	14.185328
_cell_length_c	10.654545
_cell_angle_alpha	104.657884
_cell_angle_beta	95.516298
_cell_angle_gamma	75.339570
loop_
_atom_site_label
_atom_site_type_symbol
_atom_site_fract_x
_atom_site_fract_y
_atom_site_fract_z
O1	O	-1.693479	0.083395	0.201984
O2	O	-1.328001	0.083401	0.218801
O3	O	-1.519142	0.083397	0.027653
O4	O	-1.502338	0.083399	0.393132
O5	O	-1.467848	-0.083445	-0.023625
O6	O	-1.276707	-0.083441	0.167523
O7	O	-1.642185	-0.083447	0.150706
Cu8	Cu	-1.454762	-0.098678	0.154432
Cu9	Cu	-1.515423	0.098632	0.215074
O10	O	-1.451044	-0.083443	0.341854
C11	C	-1.255556	-0.000019	0.191930
C12	C	-1.116113	-0.000017	0.188242
C13	C	-1.088147	-0.000004	0.416811
C14	C	-1.008656	0.000007	0.529359
C15	C	-0.877638	0.000007	0.525886
C16	C	-0.826108	-0.000006	0.409851
C17	C	-0.905599	-0.000017	0.297304
C18	C	-1.036620	-0.000014	0.300790
C19	C	-0.933562	-0.000037	0.068735
C20	C	-1.064583	-0.000030	0.072208
C21	C	-0.882032	-0.000051	-0.047299
C22	C	-0.961526	-0.000054	-0.159847
C23	C	-1.092552	-0.000053	-0.156369
C24	C	-1.144074	-0.000041	-0.040340
N25	N	-1.412105	-0.237455	0.111780
C26	C	-1.683314	-0.605066	0.383066
C27	C	-1.651032	-0.710092	0.350738
C28	C	-1.497390	-0.710076	0.196993
C29	C	-1.529655	-0.605047	0.229313
C30	C	-1.622619	-0.552551	0.322349
C31	C	-1.468960	-0.552532	0.168595
C32	C	-1.501228	-0.447513	0.200908
C33	C	-1.594191	-0.395009	0.293938
C34	C	-1.654887	-0.447532	0.354662
C35	C	-1.376003	-0.605030	0.075553
C36	C	-1.315308	-0.552515	0.014835
C37	C	-1.347569	-0.447494	0.047154
C38	C	-1.440532	-0.394990	0.140184
C39	C	-1.286873	-0.394971	-0.013569
C40	C	-1.319141	-0.289952	0.018743
C41	C	-1.472800	-0.289971	0.172497
C42	C	-0.714629	-0.000026	0.177582
C43	C	-0.854071	-0.000027	0.181283
C44	C	-1.492261	-0.000022	-0.044784
C45	C	-1.488570	-0.000016	-0.184225
N46	N	-1.558090	0.237409	0.257717
C47	C	-1.544508	0.181880	-0.128329
C48	C	-1.570747	0.272828	-0.165891
C49	C	-1.567278	0.272829	-0.296909
C50	C	-1.537564	0.181873	-0.390371
C51	C	-1.511325	0.090925	-0.352809
C52	C	-1.514801	0.090934	-0.221785
C53	C	-1.455379	-0.090969	-0.408703
C54	C	-1.458856	-0.090973	-0.277687
C55	C	-1.425665	-0.181925	-0.502165
C56	C	-1.399435	-0.272875	-0.464605
C57	C	-1.402906	-0.272873	-0.333578
C58	C	-1.432618	-0.181920	-0.240125
C59	C	-1.477925	-0.000022	0.414291
C60	C	-1.481618	-0.000021	0.553735
H61	H	-0.719421	-0.000018	0.407030
Cl62	Cl	-1.436991	-0.181909	-0.075412
Cl63	Cl	-0.777700	0.000011	0.667372
H64	H	-0.775348	-0.000056	-0.050121
Cl65	Cl	-1.600253	0.387164	-0.344132
H66	H	-1.349741	-0.690544	0.049239
H67	H	-1.759001	-0.562321	0.458839
Cl68	Cl	-1.771772	-0.381528	0.471612
Cl69	Cl	-1.252862	0.000015	0.421192
H70	H	-1.421702	-0.752833	0.121238
Cl71	Cl	-0.896736	-0.000079	-0.305705
Cl72	Cl	-1.198441	-0.618520	-0.102120
Cl73	Cl	-1.533177	0.181877	-0.555077
Cl74	Cl	-1.727351	-0.776109	0.427073
Cl75	Cl	-1.634764	-0.262983	0.334558
H76	H	-1.547350	0.181888	-0.021646
Cl77	Cl	-1.170019	-0.460979	-0.130536
H78	H	-1.594938	0.346882	-0.089780
H79	H	-1.269715	-0.247193	-0.030697
H80	H	-1.050626	0.000015	0.623831
H81	H	-1.157266	-0.000065	-0.248021
Cl82	Cl	-1.308784	-0.000034	-0.035956
H83	H	-1.548487	-0.247225	0.248270
Cl84	Cl	-1.421292	-0.181924	-0.666874
Cl85	Cl	-1.362069	-0.387207	-0.582099
Cl86	Cl	-1.369910	-0.387214	-0.286370
