data_functionalizedCrystal
_audit_creation_method	'MofGen! by Chris Wilmer'
_symmetry_space_group_name_H-M	'P1'
_symmetry_Int_Tables_number	1
_symmetry_cell_setting	triclinic
loop_
_symmetry_equiv_pos_as_xyz
  x,y,z
_cell_length_a	10.654550
_cell_length_b	10.654550
_cell_length_c	9.730223
_cell_angle_alpha	90.001022
_cell_angle_beta	89.996699
_cell_angle_gamma	95.515071
loop_
_atom_site_label
_atom_site_type_symbol
_atom_site_fract_x
_atom_site_fract_y
_atom_site_fract_z
O1	O	0.176402	-1.667841	-0.114178
O2	O	0.193208	-1.302362	-0.114202
O3	O	0.002066	-1.493504	-0.114190
O4	O	0.367544	-1.476698	-0.114189
O5	O	0.002054	-1.493489	0.114390
O6	O	0.193196	-1.302347	0.114378
O7	O	0.176390	-1.667825	0.114402
Zn8	Zn	0.184791	-1.485084	0.150682
Zn9	Zn	0.184807	-1.485104	-0.150482
O10	O	0.367532	-1.476683	0.114391
C11	C	0.191968	-1.255556	0.000085
C12	C	0.188276	-1.116113	0.000075
C13	C	-0.044738	-1.492263	0.000096
C14	C	-0.184181	-1.488571	0.000087
C15	C	0.177630	-1.714631	0.000113
C16	C	0.181322	-1.854074	0.000113
C17	C	-0.380716	-1.483362	-0.124502
C18	C	-0.249695	-1.486844	-0.124510
C19	C	-0.249696	-1.486828	0.124700
C20	C	-0.380715	-1.483356	0.124707
C21	C	-0.079623	-1.565052	-0.274210
C22	C	-0.014111	-1.566776	-0.398821
C23	C	-0.047649	-1.492193	-0.508837
C24	C	-0.146693	-1.415856	-0.494248
C25	C	-0.212197	-1.414120	-0.369635
C26	C	-0.178665	-1.488732	-0.259624
C27	C	-0.550788	-1.405137	0.274398
C28	C	-0.616294	-1.403393	0.399012
C29	C	-0.582757	-1.477968	0.509040
C30	C	-0.483706	-1.554287	0.494464
C31	C	-0.418201	-1.556031	0.369850
C32	C	-0.451747	-1.481458	0.259822
C33	C	0.414336	-1.477925	0.000101
C34	C	0.553779	-1.481616	0.000102
N35	N	0.184780	-1.485079	0.356219
C36	C	0.300818	-1.036628	0.000079
C37	C	0.297341	-0.905607	0.000103
C38	C	0.068772	-0.933570	0.000113
C39	C	0.072250	-1.064588	0.000099
N40	N	0.184808	-1.485118	-0.356018
C41	C	0.107921	-1.408281	0.572076
C42	C	0.107903	-1.408265	0.428193
C43	C	0.261671	-1.561924	0.428135
C44	C	0.261681	-1.561947	0.572015
H45	H	-0.434046	-1.481945	-0.225964
C46	C	0.346264	-1.646472	0.651123
C47	C	0.430833	-1.730969	0.571968
C48	C	0.515407	-1.815493	0.651077
C49	C	0.515412	-1.815521	0.809340
C50	C	0.430840	-1.731021	0.888503
C51	C	0.346266	-1.646496	0.809394
H52	H	0.430832	-1.730951	0.454805
H53	H	0.578013	-1.878046	0.592474
H54	H	0.578019	-1.878091	0.867901
H55	H	0.430841	-1.731038	1.005666
H56	H	0.283660	-1.583944	0.867997
H57	H	-0.196345	-1.488242	0.226149
C58	C	0.094831	-1.650748	-0.414874
C59	C	0.131714	-1.732814	-0.293868
C60	C	0.240660	-1.816774	-0.309924
C61	C	0.312724	-1.818668	-0.446986
C62	C	0.275842	-1.736600	-0.568002
C63	C	0.166895	-1.652640	-0.551945
H64	H	0.078368	-1.731414	-0.192398
H65	H	0.267962	-1.877526	-0.220340
H66	H	0.393372	-1.880820	-0.458872
H67	H	0.329188	-1.738000	-0.669472
H68	H	0.139593	-1.591887	-0.641530
H69	H	-0.292833	-1.351963	-0.357755
H70	H	-0.052318	-1.625802	-0.184641
C71	C	-0.309249	-1.639989	0.353803
C72	C	-0.316356	-1.743738	0.243119
C73	C	-0.207406	-1.827694	0.227069
C74	C	-0.091348	-1.807902	0.321701
C75	C	-0.084236	-1.704148	0.432393
C76	C	-0.193186	-1.620192	0.448444
H77	H	-0.402274	-1.758394	0.173059
H78	H	-0.212672	-1.904499	0.145127
H79	H	-0.010697	-1.870051	0.309820
H80	H	0.001681	-1.689493	0.502453
H81	H	-0.187920	-1.543387	0.530385
C82	C	-0.183575	-1.333800	-0.615267
C83	C	-0.111525	-1.335709	-0.752336
C84	C	-0.148412	-1.253655	-0.873359
C85	C	-0.257349	-1.169692	-0.857313
C86	C	-0.329406	-1.167779	-0.720238
C87	C	-0.292519	-1.249834	-0.599215
H88	H	-0.030878	-1.397867	-0.764220
H89	H	-0.095071	-1.255071	-0.974831
H90	H	-0.284655	-1.108950	-0.946901
H91	H	-0.410053	-1.105622	-0.708354
H92	H	-0.345860	-1.248418	-0.497743
C93	C	-0.058851	-0.876886	0.000124
C94	C	-0.092676	-0.790661	0.118824
C95	C	-0.220301	-0.733979	0.118829
C96	C	-0.314102	-0.763522	0.000135
C97	C	-0.280280	-0.849751	-0.118574
C98	C	-0.152654	-0.906433	-0.118580
H99	H	-0.023237	-0.768788	0.206697
H100	H	-0.245338	-0.670146	0.206706
H101	H	-0.408578	-0.721563	0.000139
H102	H	-0.349719	-0.871624	-0.206447
H103	H	-0.127617	-0.970265	-0.206456
C104	C	-0.725218	-1.319401	0.415069
C105	C	-0.797243	-1.317449	0.552151
C106	C	-0.906152	-1.233444	0.568216
C107	C	-0.943036	-1.151391	0.447199
C108	C	-0.871009	-1.153341	0.310108
C109	C	-0.762101	-1.237346	0.294043
H110	H	-0.769941	-1.378192	0.641743
H111	H	-0.959471	-1.232001	0.669700
H112	H	-1.023657	-1.089206	0.459091
H113	H	-0.898312	-1.092598	0.220516
H114	H	-0.708782	-1.238788	0.192559
H115	H	0.005701	-1.493598	-0.610297
H116	H	-0.456395	-1.615006	0.584060
H117	H	-0.019401	-1.129309	0.000099
H118	H	-0.636092	-1.476527	0.610512
H119	H	-0.578107	-1.344410	0.184807
H120	H	0.395294	-1.078574	0.000070
H121	H	0.388984	-0.840894	0.000110
H122	H	0.045325	-1.345724	0.630667
H123	H	0.045292	-1.345698	0.369654
H124	H	0.324259	-1.624474	0.369522
