data_functionalizedCrystal
_audit_creation_method	'MofGen! by Chris Wilmer'
_symmetry_space_group_name_H-M	'P1'
_symmetry_Int_Tables_number	1
_symmetry_cell_setting	triclinic
loop_
_symmetry_equiv_pos_as_xyz
  x,y,z
_cell_length_a	8.597366
_cell_length_b	10.489741
_cell_length_c	7.088929
_cell_angle_alpha	83.712943
_cell_angle_beta	103.954530
_cell_angle_gamma	84.936895
loop_
_atom_site_label
_atom_site_type_symbol
_atom_site_fract_x
_atom_site_fract_y
_atom_site_fract_z
O1	O	2.103374	0.175158	0.187498
O2	O	1.638932	0.195982	0.110987
O3	O	1.881722	-0.000119	0.150995
O4	O	1.860584	0.371258	0.147490
O5	O	1.914168	-0.026385	0.474317
O6	O	1.671378	0.169716	0.434309
O7	O	2.135820	0.148892	0.510819
Cu8	Cu	1.906561	0.156905	0.502086
Cu9	Cu	1.868190	0.187968	0.119721
O10	O	1.893030	0.344992	0.470812
C11	C	1.595683	0.182076	0.262851
C12	C	1.418476	0.179759	0.233659
C13	C	1.896349	-0.060770	0.312392
C14	C	1.891572	-0.202358	0.311601
C15	C	1.737091	-0.269190	0.286139
C16	C	1.826064	-0.374880	0.457575
C17	C	1.794111	-0.348959	0.138811
C18	C	1.980621	-0.306195	0.483179
C19	C	1.948633	-0.280252	0.164269
C20	C	2.037721	-0.385920	0.335762
C21	C	2.179068	0.162797	0.358951
C22	C	2.356275	0.165116	0.388131
C23	C	1.878403	0.405643	0.309411
C24	C	1.883178	0.547233	0.310188
N25	N	1.933561	0.135057	0.771023
N26	N	1.841203	0.209806	-0.149214
H27	H	1.438601	0.154351	0.542736
O28	O	1.309454	0.194017	0.028867
H29	H	1.182707	0.189903	0.037290
H30	H	1.745485	0.287269	0.753367
H31	H	2.164857	-0.436427	0.356793
O32	O	2.017229	-0.225422	-0.000049
H33	H	2.141140	-0.273995	0.019197
O34	O	1.568881	-0.201994	0.258623
H35	H	1.518442	-0.240093	0.380659
O36	O	2.060370	0.032442	0.900057
H37	H	2.058138	0.034250	1.055646
O38	O	2.085063	-0.280608	0.676151
H39	H	2.209491	-0.328602	0.697040
O40	O	1.689599	-0.374761	-0.053985
H41	H	1.564884	-0.327566	-0.074184
H42	H	1.774224	-0.416287	0.581580
