data_functionalizedCrystal
_audit_creation_method	'MofGen! by Chris Wilmer'
_symmetry_space_group_name_H-M	'P1'
_symmetry_Int_Tables_number	1
_symmetry_cell_setting	triclinic
loop_
_symmetry_equiv_pos_as_xyz
  x,y,z
_cell_length_a	17.640280
_cell_length_b	18.215407
_cell_length_c	18.215399
_cell_angle_alpha	89.980167
_cell_angle_beta	78.775397
_cell_angle_gamma	78.800709
loop_
_atom_site_label
_atom_site_type_symbol
_atom_site_fract_x
_atom_site_fract_y
_atom_site_fract_z
Zn1	Zn	-0.314661	1.184366	-0.356963
Zn2	Zn	0.018673	1.517699	-0.023629
Zn3	Zn	0.352006	1.851032	0.309704
Zn4	Zn	-0.446838	1.209181	-0.209048
Zn5	Zn	-0.113505	1.542514	0.124285
Zn6	Zn	0.219829	1.875848	0.457618
Zn7	Zn	-0.314687	1.061303	-0.233905
Zn8	Zn	0.018647	1.394636	0.099428
Zn9	Zn	0.351980	1.727970	0.432761
Zn10	Zn	-0.446794	1.086163	-0.332082
Zn11	Zn	-0.113461	1.419496	0.001252
Zn12	Zn	0.219873	1.752829	0.334585
O13	O	-0.380745	1.135253	-0.282999
O14	O	-0.047412	1.468586	0.050334
O15	O	0.285922	1.801920	0.383667
O16	O	-0.332202	1.290643	-0.337352
O17	O	0.001131	1.623976	-0.004018
O18	O	0.334465	1.957310	0.329315
O19	O	-0.429337	1.189546	-0.109356
O20	O	-0.096004	1.522879	0.223977
O21	O	0.237329	1.856213	0.557311
O22	O	-0.204079	1.056838	-0.271045
O23	O	0.129254	1.390172	0.062289
O24	O	0.462587	1.723505	0.395622
O25	O	-0.429312	1.308875	-0.228680
O26	O	-0.095979	1.642208	0.104654
O27	O	0.237355	1.975542	0.437987
O28	O	-0.204060	1.147252	-0.361454
O29	O	0.129273	1.480585	-0.028121
O30	O	0.462606	1.813918	0.305212
O31	O	-0.332246	1.080901	-0.127618
O32	O	0.001087	1.414234	0.205715
O33	O	0.334421	1.747567	0.539049
O34	O	-0.332203	0.961615	-0.246918
O35	O	0.001130	1.294948	0.086415
O36	O	0.334463	1.628282	0.419748
O37	O	-0.429237	1.099208	-0.438372
O38	O	-0.095904	1.432541	-0.105039
O39	O	0.237430	1.765875	0.228295
O40	O	-0.429262	0.979879	-0.319048
O41	O	-0.095929	1.313213	0.014285
O42	O	0.237404	1.646546	0.347619
O43	O	-0.332159	1.171357	-0.456652
O44	O	0.001174	1.504691	-0.123319
O45	O	0.334507	1.838024	0.210015
O46	O	-0.557436	1.213652	-0.204553
O47	O	-0.224103	1.546985	0.128780
O48	O	0.109230	1.880318	0.462113
O49	O	-0.557404	1.123271	-0.294945
O50	O	-0.224071	1.456604	0.038388
O51	O	0.109263	1.789937	0.371721
C52	C	-0.380731	0.944044	-0.282981
C53	C	-0.047398	1.277378	0.050352
C54	C	0.285935	1.610711	0.383686
C55	C	-0.380745	0.862248	-0.282987
C56	C	-0.047411	1.195581	0.050347
C57	C	0.285922	1.528915	0.383680
C58	C	-0.431363	0.683598	-0.320471
C59	C	-0.098029	1.016932	0.012863
C60	C	0.235304	1.350265	0.346196
C61	C	-0.431365	0.606740	-0.320479
C62	C	-0.098032	0.940073	0.012854
C63	C	0.235302	1.273407	0.346187
C64	C	-0.330142	0.587662	-0.245542
C65	C	0.003192	0.920996	0.087792
C66	C	0.336525	1.254329	0.421125
C67	C	-0.330136	0.664519	-0.245538
C68	C	0.003198	0.997852	0.087796
C69	C	0.336531	1.331185	0.421129
C70	C	-0.380751	0.712485	-0.283000
C71	C	-0.047417	1.045819	0.050333
C72	C	0.285916	1.379152	0.383666
C73	C	-0.380759	0.558771	-0.283013
C74	C	-0.047426	0.892104	0.050320
C75	C	0.285908	1.225438	0.383654
C76	C	-0.380761	0.475438	-0.283022
C77	C	-0.047428	0.808771	0.050311
C78	C	0.285905	1.142104	0.383645
C79	C	-0.380748	0.795824	-0.282993
C80	C	-0.047414	1.129157	0.050341
C81	C	0.285919	1.462491	0.383674
C82	C	-0.586099	1.173871	-0.244368
C83	C	-0.252765	1.507205	0.088965
C84	C	0.080568	1.840538	0.422298
C85	C	-0.673950	1.190460	-0.227866
C86	C	-0.340616	1.523793	0.105467
C87	C	-0.007283	1.857127	0.438800
C88	C	-0.962935	1.009534	-0.408631
C89	C	-0.629601	1.342868	-0.075297
C90	C	-0.296268	1.676201	0.258036
C91	C	-1.045484	1.025123	-0.393101
C92	C	-0.712151	1.358457	-0.059768
C93	C	-0.378817	1.691790	0.273565
C94	C	-1.045452	1.119295	-0.299071
C95	C	-0.712119	1.452629	0.034262
C96	C	-0.378786	1.785962	0.367595
C97	C	-0.962901	1.103717	-0.314596
C98	C	-0.629568	1.437050	0.018738
C99	C	-0.296234	1.770384	0.352071
C100	C	-0.921649	1.048835	-0.369375
C101	C	-0.588315	1.382168	-0.036042
C102	C	-0.254982	1.715502	0.297291
C103	C	-0.921615	1.143018	-0.275340
C104	C	-0.588282	1.476351	0.057993
C105	C	-0.254949	1.809684	0.391326
C106	C	-0.839071	1.127438	-0.290861
C107	C	-0.505738	1.460771	0.042473
C108	C	-0.172405	1.794104	0.375806
C109	C	-0.797813	1.072557	-0.345636
C110	C	-0.464480	1.405890	-0.012303
C111	C	-0.131146	1.739223	0.321030
C112	C	-0.839105	1.033255	-0.384896
C113	C	-0.505771	1.366588	-0.051563
C114	C	-0.172438	1.699922	0.281771
C115	C	-0.962869	1.197896	-0.220557
C116	C	-0.629536	1.531229	0.112777
C117	C	-0.296202	1.864562	0.446110
C118	C	-0.921583	1.237196	-0.181301
C119	C	-0.588250	1.570530	0.152032
C120	C	-0.254917	1.903863	0.485365
C121	C	-0.839038	1.221620	-0.196825
C122	C	-0.505704	1.554953	0.136508
C123	C	-0.172371	1.888287	0.469841
C124	C	-0.797780	1.166739	-0.251601
C125	C	-0.464446	1.500073	0.081732
C126	C	-0.131113	1.833406	0.415065
C127	C	-0.797746	1.260922	-0.157566
C128	C	-0.464413	1.594255	0.175767
C129	C	-0.131079	1.927589	0.509101
C130	C	-0.715202	1.245342	-0.173086
C131	C	-0.381869	1.578675	0.160247
C132	C	-0.048535	1.912008	0.493580
C133	C	-0.715236	1.151159	-0.267122
C134	C	-0.381902	1.484493	0.066212
C135	C	-0.048569	1.817826	0.399545
C136	C	-0.174589	1.096504	-0.321798
C137	C	0.158744	1.429837	0.011536
C138	C	0.492077	1.763171	0.344869
C139	C	-0.086738	1.079991	-0.338331
C140	C	0.246595	1.413325	-0.004998
C141	C	0.579928	1.746658	0.328336
C142	C	-0.380690	1.135288	-0.474963
C143	C	-0.047357	1.468621	-0.141629
C144	C	0.285976	1.801954	0.191704
C145	C	-0.380667	1.135302	-0.556766
C146	C	-0.047334	1.468636	-0.223433
C147	C	0.285999	1.801969	0.109901
C148	C	-0.380759	1.327209	-0.283018
C149	C	-0.047426	1.660542	0.050315
C150	C	0.285908	1.993875	0.383648
C151	C	-0.380765	1.409009	-0.283027
C152	C	-0.047432	1.742342	0.050307
C153	C	0.285902	2.075675	0.383640
C154	C	-0.330072	1.172878	-0.754489
C155	C	0.003262	1.506212	-0.421155
C156	C	0.336595	1.839545	-0.087822
C157	C	-0.330049	1.172883	-0.831352
C158	C	0.003285	1.506216	-0.498018
C159	C	0.336618	1.839550	-0.164685
C160	C	-0.431141	1.097755	-0.812304
C161	C	-0.097807	1.431089	-0.478971
C162	C	0.235526	1.764422	-0.145638
C163	C	-0.431159	1.097747	-0.735444
C164	C	-0.097826	1.431080	-0.402110
C165	C	0.235508	1.764413	-0.068777
C166	C	-0.380626	1.135313	-0.706537
C167	C	-0.047292	1.468646	-0.373204
C168	C	0.286041	1.801979	-0.039871
C169	C	-0.380584	1.135326	-0.860261
C170	C	-0.047251	1.468659	-0.526928
C171	C	0.286082	1.801992	-0.193595
C172	C	-0.380560	1.135330	-0.943600
C173	C	-0.047226	1.468664	-0.610266
C174	C	0.286107	1.801997	-0.276933
C175	C	-0.380649	1.135307	-0.623194
C176	C	-0.047316	1.468641	-0.289861
C177	C	0.286018	1.801974	0.043473
C178	C	-0.380742	1.135250	-0.091794
C179	C	-0.047409	1.468584	0.241540
C180	C	0.285924	1.801917	0.574873
C181	C	-0.380543	1.135336	-0.010033
C182	C	-0.047209	1.468669	0.323301
C183	C	0.286124	1.802003	0.656634
H184	H	-0.288934	0.548599	-0.215039
H185	H	0.044399	0.881932	0.118294
H186	H	0.377733	1.215266	0.451627
H187	H	-0.730600	1.059867	-0.358267
H188	H	-0.397267	1.393201	-0.024934
H189	H	-0.063934	1.726534	0.308400
H190	H	-0.288916	0.688037	-0.215026
H191	H	0.044417	1.021371	0.118308
H192	H	0.377750	1.354704	0.451641
H193	H	-0.472326	1.067151	-0.696400
H194	H	-0.138992	1.400484	-0.363067
H195	H	0.194341	1.733818	-0.029733
H196	H	-1.030082	1.210581	-0.207924
H197	H	-0.696748	1.543914	0.125409
H198	H	-0.363415	1.877247	0.458743
H199	H	-0.472285	1.067172	-0.835849
H200	H	-0.138952	1.400506	-0.502516
H201	H	0.194382	1.733839	-0.169183
H202	H	-0.831346	1.305601	-0.112959
H203	H	-0.498013	1.638935	0.220374
H204	H	-0.164680	1.972268	0.553708
H205	H	-0.955182	1.281879	-0.136698
H206	H	-0.621849	1.615212	0.196636
H207	H	-0.288516	1.948546	0.529969
H208	H	-0.472575	0.722651	-0.350978
H209	H	-0.139241	1.055984	-0.017644
H210	H	0.194092	1.389318	0.315689
H211	H	-0.472577	0.583224	-0.350993
H212	H	-0.139244	0.916558	-0.017660
H213	H	0.194089	1.249891	0.315674
H214	H	-0.681646	1.106474	-0.311735
H215	H	-0.348313	1.439808	0.021599
H216	H	-0.014980	1.773141	0.354932
H217	H	-0.805515	0.988570	-0.429509
H218	H	-0.472182	1.321903	-0.096176
H219	H	-0.138849	1.655237	0.237158
H220	H	-0.929345	0.964849	-0.453244
H221	H	-0.596012	1.298183	-0.119910
H222	H	-0.262679	1.631516	0.213423
H223	H	-0.681587	1.277344	-0.141120
H224	H	-0.348254	1.610677	0.192214
H225	H	-0.014920	1.944011	0.525547
H226	H	-1.079096	0.993124	-0.425081
H227	H	-0.745763	1.326458	-0.091747
H228	H	-0.412429	1.659791	0.241586
H229	H	-1.079051	1.163978	-0.254467
H230	H	-0.745718	1.497311	0.078866
H231	H	-0.412385	1.830645	0.412199
H232	H	-0.288922	1.203465	-0.730956
H233	H	0.044411	1.536798	-0.397623
H234	H	0.377745	1.870131	-0.064290
H235	H	-0.288881	1.203471	-0.870391
H236	H	0.044452	1.536805	-0.537058
H237	H	0.377786	1.870138	-0.203725
