data_functionalizedCrystal
_audit_creation_method	'MofGen! by Chris Wilmer'
_symmetry_space_group_name_H-M	'P1'
_symmetry_Int_Tables_number	1
_symmetry_cell_setting	triclinic
loop_
_symmetry_equiv_pos_as_xyz
  x,y,z
_cell_length_a	16.109301
_cell_length_b	15.944493
_cell_length_c	15.186229
_cell_angle_alpha	90.006101
_cell_angle_beta	90.005196
_cell_angle_gamma	83.468262
loop_
_atom_site_label
_atom_site_type_symbol
_atom_site_fract_x
_atom_site_fract_y
_atom_site_fract_z
O1	O	1.103148	0.107979	0.073161
O2	O	0.861087	0.121415	0.073174
O3	O	0.988753	-0.007583	0.073175
O4	O	0.975482	0.236977	0.073161
O5	O	0.988735	-0.007604	-0.073283
O6	O	0.861070	0.121394	-0.073283
O7	O	1.103130	0.107958	-0.073296
Zn8	Zn	0.982097	0.114673	-0.096543
Zn9	Zn	0.982120	0.114700	0.096421
O10	O	0.975465	0.236957	-0.073297
C11	C	0.830104	0.120861	-0.000053
C12	C	0.737808	0.119229	-0.000048
C13	C	0.515544	0.191980	-0.000062
C14	C	0.428824	0.190440	-0.000068
C15	C	0.448680	0.037388	-0.000055
C16	C	0.535399	0.038928	-0.000056
C17	C	0.568829	0.116227	-0.000055
C18	C	0.395389	0.113146	-0.000060
C19	C	0.301363	0.111476	-0.000066
C20	C	0.662861	0.117897	-0.000050
C21	C	0.988202	-0.038888	-0.000050
C22	C	0.986576	-0.132136	-0.000039
C23	C	1.061722	-0.367921	-0.000060
C24	C	1.021207	-0.418466	0.072153
C25	C	0.983563	-0.302856	-0.000050
C26	C	1.021172	-0.418462	-0.072242
C27	C	0.980658	-0.467765	-0.000064
C28	C	0.943068	-0.352173	0.072223
C29	C	0.943044	-0.352166	-0.072238
C30	C	0.902472	-0.402677	-0.000007
C31	C	0.985238	-0.207857	-0.000041
C32	C	0.978976	-0.562762	-0.000066
C33	C	1.134114	0.108513	-0.000067
C34	C	1.226410	0.110144	-0.000067
C35	C	0.976016	0.268262	-0.000070
C36	C	0.977642	0.361510	-0.000075
N37	N	0.982088	0.114654	-0.228236
C38	C	0.931701	0.063730	-0.546182
C39	C	0.931694	0.063718	-0.453992
C40	C	1.032529	0.165638	-0.453947
C41	C	1.032540	0.165645	-0.546135
C42	C	0.982121	0.114693	-0.592250
C43	C	0.982103	0.114674	-0.407872
C44	C	0.982096	0.114661	-0.307916
C45	C	0.982129	0.114704	-0.692212
N46	N	0.982136	0.114713	0.228113
H47	H	0.542760	0.254921	-0.000068
Cl48	Cl	1.072178	-0.463163	0.166405
Cl49	Cl	1.165664	-0.343822	0.000043
Cl50	Cl	1.095935	0.229714	-0.604053
H51	H	0.910058	-0.323203	-0.133288
H52	H	1.073577	0.207123	-0.416388
H53	H	0.385443	0.252126	-0.000075
H54	H	0.421451	-0.025546	-0.000061
Cl55	Cl	0.868321	-0.000328	-0.604152
Cl56	Cl	0.892150	-0.307653	0.166584
H57	H	0.578786	-0.022763	-0.000053
Cl58	Cl	0.868301	-0.000347	-0.396082
Cl59	Cl	1.072145	-0.463158	-0.166495
H60	H	0.835095	-0.418121	0.000036
