data_functionalizedCrystal
_audit_creation_method	'MofGen! by Chris Wilmer'
_symmetry_space_group_name_H-M	'P1'
_symmetry_Int_Tables_number	1
_symmetry_cell_setting	triclinic
loop_
_symmetry_equiv_pos_as_xyz
  x,y,z
_cell_length_a	18.050591
_cell_length_b	19.077068
_cell_length_c	19.076919
_cell_angle_alpha	94.470751
_cell_angle_beta	87.724882
_cell_angle_gamma	87.676702
loop_
_atom_site_label
_atom_site_type_symbol
_atom_site_fract_x
_atom_site_fract_y
_atom_site_fract_z
Zn1	Zn	1.105350	0.296760	0.409964
Zn2	Zn	1.605350	0.796760	0.909964
Zn3	Zn	1.105258	0.409914	0.296808
Zn4	Zn	1.605258	0.909914	0.796808
Zn5	Zn	0.986363	0.292036	0.292081
Zn6	Zn	1.486363	0.792036	0.792081
Zn7	Zn	0.975925	0.414601	0.414638
Zn8	Zn	1.475925	0.914601	0.914638
O9	O	1.043224	0.353328	0.353373
O10	O	1.543224	0.853328	0.853373
O11	O	1.209261	0.311786	0.394975
O12	O	1.709261	0.811786	0.894975
O13	O	1.093816	0.390338	0.197534
O14	O	1.593816	0.890338	0.697534
O15	O	1.006553	0.194014	0.303784
O16	O	1.506553	0.694014	0.803784
O17	O	1.209193	0.394919	0.311840
O18	O	1.709193	0.894919	0.811840
O19	O	1.093973	0.197485	0.390391
O20	O	1.593973	0.697485	0.890391
O21	O	1.006464	0.303734	0.194062
O22	O	1.506464	0.803734	0.694062
O23	O	0.881055	0.308280	0.308317
O24	O	1.381055	0.808280	0.808317
O25	O	0.988764	0.402908	0.512665
O26	O	1.488764	0.902908	1.012665
O27	O	0.873386	0.398328	0.398359
O28	O	1.373386	0.898328	0.898359
O29	O	1.083852	0.316331	0.509230
O30	O	1.583852	0.816331	1.009230
O31	O	1.083695	0.509185	0.316373
O32	O	1.583695	1.009185	0.816373
O33	O	0.988674	0.512629	0.402943
O34	O	1.488674	1.012629	0.902943
C35	C	0.850275	0.353300	0.353333
C36	C	1.350275	0.853300	0.853333
C37	C	0.767729	0.353306	0.353333
C38	C	1.267729	0.853306	0.853333
C39	C	1.035062	0.536486	0.360694
C40	C	1.535062	1.036486	0.860694
C41	C	1.031637	0.614842	0.363849
C42	C	1.531637	1.114842	0.863849
C43	C	1.035154	0.360670	0.537241
C44	C	1.535154	0.860670	1.037241
C45	C	1.031714	0.363798	0.615594
C46	C	1.531714	0.863798	1.115594
C47	C	0.572424	0.304288	0.304474
C48	C	1.072424	0.804288	0.804474
C49	C	0.520935	0.367890	0.289705
C50	C	1.020935	0.867890	0.789705
C51	C	0.616596	0.353329	0.353366
C52	C	1.116596	0.853329	0.853366
C53	C	0.521003	0.289749	0.368134
C54	C	1.021003	0.789749	0.868134
C55	C	0.470609	0.353345	0.353396
C56	C	0.970609	0.853345	0.853396
C57	C	0.566193	0.416963	0.338564
C58	C	1.066193	0.916963	0.838564
C59	C	0.566267	0.338780	0.417021
C60	C	1.066267	0.838780	0.917021
C61	C	0.514796	0.402428	0.402278
C62	C	1.014796	0.902428	0.902278
C63	C	0.700695	0.353318	0.353347
C64	C	1.200695	0.853318	0.853347
C65	C	0.386511	0.353362	0.353415
C66	C	0.886511	0.853362	0.853415
C67	C	1.236927	0.353356	0.353413
C68	C	1.736927	0.853356	0.853413
C69	C	1.319471	0.353369	0.353431
C70	C	1.819471	0.853369	0.853431
C71	C	1.051438	0.169456	0.346039
C72	C	1.551438	0.669456	0.846039
C73	C	1.054938	0.091100	0.342914
C74	C	1.554938	0.591100	0.842914
C75	C	1.079535	0.649840	0.320297
C76	C	1.579535	1.149840	0.820297
C77	C	1.076318	0.723464	0.323269
C78	C	1.576318	1.223464	0.823269
C79	C	1.025198	0.762090	0.369790
C80	C	1.525198	1.262090	0.869790
C81	C	0.977298	0.727088	0.413347
C82	C	1.477298	1.227088	0.913347
C83	C	0.980519	0.653465	0.410378
C84	C	1.480519	1.153465	0.910378
C85	C	1.010259	0.982475	0.383502
C86	C	1.510259	1.482475	0.883502
C87	C	1.007040	1.056103	0.386466
C88	C	1.507040	1.556103	0.886466
C89	C	1.106061	1.052474	0.296388
C90	C	1.606061	1.552474	0.796388
C91	C	1.109274	0.978849	0.293421
C92	C	1.609274	1.478849	0.793421
C93	C	1.061377	0.943854	0.336980
C94	C	1.561377	1.443854	0.836980
N95	N	1.021907	0.837346	0.372827
N96	N	1.521907	1.337346	0.872827
N97	N	1.064672	0.868599	0.333946
N98	N	1.564672	1.368599	0.833946
C99	C	1.051308	0.345964	0.170218
C100	C	1.551308	0.845964	0.670218
C101	C	1.054900	0.342637	0.091857
C102	C	1.554900	0.842637	0.591857
C103	C	1.079603	0.320194	0.650618
C104	C	1.579603	0.820194	1.150618
C105	C	1.076363	0.323131	0.724239
C106	C	1.576363	0.823131	1.224239
C107	C	1.025237	0.369676	0.762836
C108	C	1.525237	0.869676	1.262836
C109	C	0.977343	0.413282	0.727807
C110	C	1.477343	0.913282	1.227807
C111	C	0.980580	0.410341	0.654187
C112	C	1.480580	0.910341	1.154187
C113	C	1.010243	0.383302	0.983208
C114	C	1.510243	0.883302	1.483208
C115	C	1.007011	0.386241	1.056833
C116	C	1.507011	0.886241	1.556833
C117	C	1.106031	0.296089	1.053261
C118	C	1.606031	0.796089	1.553261
C119	C	1.109266	0.293155	0.979639
C120	C	1.609266	0.793155	1.479639
C121	C	1.061370	0.336758	0.944617
C122	C	1.561370	0.836758	1.444617
N123	N	1.021925	0.372681	0.838089
N124	N	1.521925	0.872681	1.338089
N125	N	1.064678	0.333749	0.869365
N126	N	1.564678	0.833749	1.369365
H127	H	0.500954	0.380207	0.235886
H128	H	1.000954	0.880207	0.735886
H129	H	0.941516	0.624971	0.445844
H130	H	1.441516	1.124971	0.945844
H131	H	0.597591	0.262856	0.263087
H132	H	1.097591	0.762856	0.763087
H133	H	0.971252	0.418817	0.954702
H134	H	1.471252	0.918817	1.454702
O135	O	0.592450	0.488212	0.321941
O136	O	1.092450	0.988212	0.821941
H137	H	0.653959	0.487636	0.322029
H138	H	1.153959	0.987636	0.822029
H139	H	0.971257	0.953987	0.418968
H140	H	1.471257	1.453987	0.918968
O141	O	0.481617	0.457427	0.457060
O142	O	0.981617	0.957427	0.957060
H143	H	0.499769	0.510129	0.444643
H144	H	0.999769	1.010129	0.944643
O145	O	0.592770	0.322441	0.488286
O146	O	1.092770	0.822441	0.988286
H147	H	0.574778	0.269604	0.500413
H148	H	1.074778	0.769604	1.000413
H149	H	0.501047	0.235979	0.380589
H150	H	1.001047	0.735979	0.880589
H151	H	0.935678	0.758543	0.451228
H152	H	1.435678	1.258543	0.951228
H153	H	1.121159	0.618395	0.282411
H154	H	1.621159	1.118395	0.782411
O155	O	1.127975	0.761214	0.276291
O156	O	1.627975	1.261214	0.776291
H157	H	1.164054	0.721986	0.243436
H158	H	1.664054	1.221986	0.743436
O159	O	0.951894	1.097757	0.436646
O160	O	1.451894	1.597757	0.936646
H161	H	0.914048	1.130068	0.406407
H162	H	1.414048	1.630068	0.906407
O163	O	1.164417	0.937188	0.243251
O164	O	1.664417	1.437188	0.743251
H165	H	1.197190	0.973894	0.213470
H166	H	1.697190	1.473894	0.713470
O167	O	0.928919	0.457369	0.616414
O168	O	1.428919	0.957369	1.116414
H169	H	0.962020	0.491901	0.584304
H170	H	1.462020	0.991901	1.084304
O171	O	1.134747	0.269991	0.608989
O172	O	1.634747	0.769991	1.108989
H173	H	1.167498	0.240160	0.645715
H174	H	1.667498	0.740160	1.145715
O175	O	1.128018	0.276105	0.762018
O176	O	1.628018	0.776105	1.262018
H177	H	1.164121	0.243253	0.722811
H178	H	1.664121	0.743253	1.222811
O179	O	1.157741	1.090218	0.249428
O180	O	1.657741	1.590218	0.749428
H181	H	1.146926	1.147902	0.259315
H182	H	1.646926	1.647902	0.759315
O183	O	1.164413	0.242956	0.938009
O184	O	1.664413	0.742956	1.438009
H185	H	1.197168	0.213125	0.974733
H186	H	1.697168	0.713125	1.474733
H187	H	1.145024	0.260588	1.081784
H188	H	1.645024	0.760588	1.581784
H189	H	0.965375	0.424146	1.088257
H190	H	1.465375	0.924146	1.588257
O191	O	0.922193	0.463482	0.769431
O192	O	1.422193	0.963482	1.269431
H193	H	0.927990	0.458207	0.826508
H194	H	1.427990	0.958207	1.326508
