data_functionalizedCrystal
_audit_creation_method	'MofGen! by Chris Wilmer'
_symmetry_space_group_name_H-M	'P1'
_symmetry_Int_Tables_number	1
_symmetry_cell_setting	triclinic
loop_
_symmetry_equiv_pos_as_xyz
  x,y,z
_cell_length_a	21.395362
_cell_length_b	16.625546
_cell_length_c	16.625539
_cell_angle_alpha	89.969603
_cell_angle_beta	89.960022
_cell_angle_gamma	90.038346
loop_
_atom_site_label
_atom_site_type_symbol
_atom_site_fract_x
_atom_site_fract_y
_atom_site_fract_z
Zn1	Zn	0.957871	-0.320658	-0.456315
Zn2	Zn	1.457871	0.179342	0.043685
Zn3	Zn	0.957796	-0.455502	-0.321478
Zn4	Zn	1.457796	0.044498	0.178522
Zn5	Zn	0.853093	-0.320724	-0.321450
Zn6	Zn	1.353093	0.179276	0.178550
Zn7	Zn	0.853070	-0.455490	-0.456222
Zn8	Zn	1.353070	0.044510	0.043778
O9	O	0.905457	-0.388093	-0.388866
O10	O	1.405457	0.111907	0.111134
O11	O	1.045539	-0.338523	-0.438479
O12	O	1.545539	0.161477	0.061521
O13	O	0.943885	-0.437655	-0.208642
O14	O	1.443885	0.062345	0.291358
O15	O	0.867033	-0.207883	-0.339368
O16	O	1.367033	0.292117	0.160632
O17	O	1.045484	-0.437592	-0.339415
O18	O	1.545484	0.062408	0.160585
O19	O	0.944013	-0.207835	-0.438453
O20	O	1.444013	0.292165	0.061547
O21	O	0.866960	-0.338635	-0.208621
O22	O	1.366960	0.161365	0.291379
O23	O	0.765412	-0.338624	-0.339277
O24	O	1.265412	0.161376	0.160723
O25	O	0.866994	-0.437572	-0.569067
O26	O	1.366994	0.062428	-0.069067
O27	O	0.765395	-0.437636	-0.438293
O28	O	1.265395	0.062364	0.061707
O29	O	0.943991	-0.338512	-0.569135
O30	O	1.443991	0.161488	-0.069135
O31	O	0.943862	-0.568332	-0.339324
O32	O	1.443862	-0.068332	0.160676
O33	O	0.866921	-0.568324	-0.438320
O34	O	1.366921	-0.068324	0.061680
C35	C	0.742670	-0.388136	-0.388773
C36	C	1.242670	0.111864	0.111227
C37	C	0.673028	-0.388174	-0.388752
C38	C	1.173028	0.111826	0.111248
C39	C	0.640323	-0.439798	-0.440232
C40	C	1.140323	0.060202	0.059768
C41	C	0.574888	-0.439778	-0.440268
C42	C	1.074888	0.060222	0.059732
C43	C	0.542160	-0.388143	-0.388809
C44	C	1.042160	0.111857	0.111191
C45	C	0.574874	-0.336509	-0.337325
C46	C	1.074874	0.163491	0.162675
C47	C	0.640308	-0.336524	-0.337296
C48	C	1.140308	0.163476	0.162704
C49	C	0.438439	-0.381662	-0.316222
C50	C	0.938439	0.118338	0.183778
C51	C	0.373006	-0.381652	-0.316249
C52	C	0.873006	0.118348	0.183751
C53	C	0.340339	-0.388090	-0.388898
C54	C	0.840339	0.111910	0.111102
C55	C	0.373114	-0.394555	-0.461523
C56	C	0.873114	0.105445	0.038477
C57	C	0.438548	-0.394570	-0.461494
C58	C	0.938548	0.105430	0.038506
C59	C	0.471208	-0.388120	-0.388835
C60	C	0.971208	0.111880	0.111165
C61	C	0.236681	-0.439695	-0.440422
C62	C	0.736681	0.060305	0.059578
C63	C	0.171245	-0.439670	-0.440459
C64	C	0.671245	0.060330	0.059541
C65	C	0.171232	-0.336405	-0.337509
C66	C	0.671232	0.163595	0.162491
C67	C	0.236667	-0.336426	-0.337479
C68	C	0.736667	0.163574	0.162521
C69	C	0.269388	-0.388076	-0.388934
C70	C	0.769388	0.111924	0.111066
C71	C	0.905398	-0.597584	-0.388832
C72	C	1.405398	-0.097584	0.111168
C73	C	0.905430	-0.687205	-0.388845
C74	C	1.405430	-0.187205	0.111155
C75	C	0.905539	-1.015381	-0.388929
C76	C	1.405539	-0.515381	0.111071
C77	C	0.905507	-0.924073	-0.388908
C78	C	1.405507	-0.424073	0.111092
C79	C	0.905484	-0.851296	-0.388887
C80	C	1.405484	-0.351296	0.111113
C81	C	0.905453	-0.759982	-0.388866
C82	C	1.405453	-0.259982	0.111134
C83	C	1.068881	-0.388051	-0.388961
C84	C	1.568881	0.111949	0.111039
C85	C	1.138522	-0.388033	-0.389001
C86	C	1.638522	0.111967	0.110999
C87	C	0.905498	-0.388033	-0.599175
C88	C	1.405498	0.111967	-0.099175
C89	C	0.905516	-0.388008	-0.688796
C90	C	1.405516	0.111992	-0.188796
C91	C	0.905534	-0.177785	-0.388918
C92	C	1.405534	0.322215	0.111082
C93	C	0.905567	-0.088163	-0.388940
C94	C	1.405567	0.411837	0.111060
C95	C	0.905544	-0.387917	-1.016972
C96	C	1.405544	0.112083	-0.516972
C97	C	0.905535	-0.387945	-0.925664
C98	C	1.405535	0.112055	-0.425664
C99	C	0.905530	-0.387963	-0.852887
C100	C	1.405530	0.112037	-0.352887
C101	C	0.905520	-0.387990	-0.761573
C102	C	1.405520	0.112010	-0.261573
C103	C	0.905453	-0.388095	-0.179375
C104	C	1.405453	0.111905	0.320625
C105	C	0.905557	-0.387894	-0.089755
C106	C	1.405557	0.112106	0.410245
H107	H	0.666960	-0.481854	-0.482133
H108	H	1.166960	0.018146	0.017867
Br109	Br	0.126824	-0.266319	-0.267678
Br110	Br	0.626824	0.233681	0.232322
Br111	Br	0.281057	-0.266361	-0.267608
Br112	Br	0.781057	0.233639	0.232392
H113	H	0.666936	-0.294483	-0.295375
H114	H	1.166936	0.205517	0.204625
Br115	Br	0.482765	-0.372925	-0.217617
Br116	Br	0.982765	0.127075	0.282383
H117	H	0.548223	-0.294466	-0.295428
H118	H	1.048223	0.205534	0.204572
H119	H	0.465231	-0.399832	-0.520627
H120	H	0.965231	0.100168	-0.020627
Br121	Br	0.530491	-0.509842	-0.510141
Br122	Br	1.030491	-0.009842	-0.010141
H123	H	0.346519	-0.399795	-0.520681
H124	H	0.846519	0.100205	-0.020681
H125	H	0.263324	-0.481747	-0.482324
H126	H	0.763324	0.018253	0.017676
H127	H	0.144617	-0.481707	-0.482386
H128	H	0.644617	0.018293	0.017614
H129	H	0.346325	-0.376394	-0.257114
H130	H	0.846325	0.123606	0.242886
