data_functionalizedCrystal
_audit_creation_method	'MofGen! by Chris Wilmer'
_symmetry_space_group_name_H-M	'P1'
_symmetry_Int_Tables_number	1
_symmetry_cell_setting	triclinic
loop_
_symmetry_equiv_pos_as_xyz
  x,y,z
_cell_length_a	14.519731
_cell_length_b	13.596369
_cell_length_c	11.026607
_cell_angle_alpha	89.997861
_cell_angle_beta	96.137435
_cell_angle_gamma	90.006024
loop_
_atom_site_label
_atom_site_type_symbol
_atom_site_fract_x
_atom_site_fract_y
_atom_site_fract_z
O1	O	1.250096	0.081791	0.159249
O2	O	1.500096	0.331791	0.409249
O3	O	1.750096	0.581791	0.659249
O4	O	2.000096	0.831791	0.909249
O5	O	0.984705	0.081792	0.177962
O6	O	1.234705	0.331792	0.427962
O7	O	1.484705	0.581792	0.677962
O8	O	1.734705	0.831792	0.927962
O9	O	1.095405	0.081788	-0.008097
O10	O	1.345405	0.331788	0.241903
O11	O	1.595405	0.581788	0.491903
O12	O	1.845405	0.831788	0.741903
O13	O	1.139396	0.081795	0.345309
O14	O	1.389396	0.331795	0.595309
O15	O	1.639396	0.581795	0.845309
O16	O	1.889396	0.831795	1.095309
O17	O	1.095389	-0.081795	-0.008087
O18	O	1.345389	0.168205	0.241913
O19	O	1.595389	0.418205	0.491913
O20	O	1.845389	0.668205	0.741913
O21	O	0.984689	-0.081791	0.177973
O22	O	1.234689	0.168209	0.427973
O23	O	1.484689	0.418209	0.677973
O24	O	1.734689	0.668209	0.927973
O25	O	1.250080	-0.081792	0.159260
O26	O	1.500080	0.168208	0.409260
O27	O	1.750080	0.418208	0.659260
O28	O	2.000080	0.668208	0.909260
Zn29	Zn	1.117382	-0.107764	0.168618
Zn30	Zn	1.367382	0.142236	0.418618
Zn31	Zn	1.617382	0.392236	0.668618
Zn32	Zn	1.867382	0.642236	0.918618
Zn33	Zn	1.117403	0.107764	0.168604
Zn34	Zn	1.367403	0.357764	0.418604
Zn35	Zn	1.617403	0.607764	0.668604
Zn36	Zn	1.867403	0.857764	0.918604
O37	O	1.139380	-0.081788	0.345319
O38	O	1.389380	0.168212	0.595319
O39	O	1.639380	0.418212	0.845319
O40	O	1.889380	0.668212	1.095319
C41	C	0.950193	0.000001	0.177091
C42	C	1.200193	0.250001	0.427091
C43	C	1.450193	0.500001	0.677091
C44	C	1.700193	0.750001	0.927091
C45	C	0.847380	0.000001	0.174463
C46	C	1.097380	0.250001	0.424463
C47	C	1.347380	0.500001	0.674463
C48	C	1.597380	0.750001	0.924463
C49	C	0.763884	0.000005	0.172328
C50	C	1.013884	0.250005	0.422328
C51	C	1.263884	0.500005	0.672328
C52	C	1.513884	0.750005	0.922328
C53	C	0.659136	0.000005	0.169661
C54	C	0.909136	0.250005	0.419661
C55	C	1.159136	0.500005	0.669661
C56	C	1.409136	0.750005	0.919661
C57	C	0.575648	0.000005	0.167543
C58	C	0.825648	0.250005	0.417543
C59	C	1.075648	0.500005	0.667543
C60	C	1.325648	0.750005	0.917543
C61	C	0.470893	0.000007	0.164876
C62	C	0.720893	0.250007	0.414876
C63	C	0.970893	0.500007	0.664876
C64	C	1.220893	0.750007	0.914876
N65	N	1.117375	-0.254856	0.168626
N66	N	1.367375	-0.004856	0.418626
N67	N	1.617375	0.245144	0.668626
N68	N	1.867375	0.495144	0.918626
C69	C	1.117380	-0.343854	0.168629
C70	C	1.367380	-0.093854	0.418629
C71	C	1.617380	0.156146	0.668629
C72	C	1.867380	0.406146	0.918629
C73	C	1.117387	-0.455505	0.168621
C74	C	1.367387	-0.205505	0.418621
C75	C	1.617387	0.044495	0.668621
C76	C	1.867387	0.294495	0.918621
C77	C	1.117397	-0.544495	0.168607
C78	C	1.367397	-0.294495	0.418607
C79	C	1.617397	-0.044495	0.668607
C80	C	1.867397	0.205505	0.918607
C81	C	1.117406	-0.656154	0.168600
C82	C	1.367406	-0.406154	0.418600
C83	C	1.617406	-0.156154	0.668600
C84	C	1.867406	0.093846	0.918600
C85	C	1.284592	0.000001	0.160131
C86	C	1.534592	0.250001	0.410131
C87	C	1.784592	0.500001	0.660131
C88	C	2.034592	0.750001	0.910131
C89	C	1.387405	0.000007	0.162759
C90	C	1.637405	0.250007	0.412759
C91	C	1.887405	0.500007	0.662759
C92	C	2.137405	0.750007	0.912759
C93	C	1.087282	-0.000002	-0.053321
C94	C	1.337282	0.249998	0.196679
C95	C	1.587282	0.499998	0.446679
C96	C	1.837282	0.749998	0.696679
C97	C	1.063089	0.000001	-0.188090
C98	C	1.313089	0.250001	0.061910
C99	C	1.563089	0.500001	0.311910
C100	C	1.813089	0.750001	0.561910
N101	N	1.117416	0.254856	0.168586
N102	N	1.367416	0.504856	0.418586
N103	N	1.617416	0.754856	0.668586
N104	N	1.867416	1.004856	0.918586
C105	C	1.129889	0.000002	-0.261744
C106	C	1.379889	0.250002	-0.011744
C107	C	1.629889	0.500002	0.238256
C108	C	1.879889	0.750002	0.488256
C109	C	1.104886	0.000006	-0.401035
C110	C	1.354886	0.250006	-0.151035
C111	C	1.604886	0.500006	0.098965
C112	C	1.854886	0.750006	0.348965
C113	C	1.147503	0.000004	0.390543
C114	C	1.397503	0.250004	0.640543
C115	C	1.647503	0.500004	0.890543
C116	C	1.897503	0.750004	1.140543
C117	C	1.171696	0.000007	0.525312
C118	C	1.421696	0.250007	0.775312
C119	C	1.671696	0.500007	1.025312
C120	C	1.921696	0.750007	1.275312
H121	H	1.205589	-0.000004	-0.221681
H122	H	1.455589	0.249996	0.028319
H123	H	1.705589	0.499996	0.278319
H124	H	1.955589	0.749996	0.528319
H125	H	0.987389	0.000008	-0.228154
H126	H	1.237389	0.250008	0.021846
H127	H	1.487389	0.500008	0.271846
H128	H	1.737389	0.750008	0.521846
C129	C	1.002612	0.000005	-0.455147
C130	C	1.252612	0.250005	-0.205147
C131	C	1.502612	0.500005	0.044853
C132	C	1.752612	0.750005	0.294853
N133	N	0.925580	0.000002	-0.495906
N134	N	1.175580	0.250002	-0.245906
N135	N	1.425580	0.500002	0.004094
N136	N	1.675580	0.750002	0.254094
C137	C	1.273971	0.000006	-0.420579
C138	C	1.523971	0.250006	-0.170579
C139	C	1.773971	0.500006	0.079421
C140	C	2.023971	0.750006	0.329421
N141	N	1.351004	0.000003	-0.379823
N142	N	1.601004	0.250003	-0.129823
N143	N	1.851004	0.500003	0.120177
N144	N	2.101004	0.750003	0.370177
