data_functionalizedCrystal
_audit_creation_method	'MofGen! by Chris Wilmer'
_symmetry_space_group_name_H-M	'P1'
_symmetry_Int_Tables_number	1
_symmetry_cell_setting	triclinic
loop_
_symmetry_equiv_pos_as_xyz
  x,y,z
_cell_length_a	27.732048
_cell_length_b	27.732064
_cell_length_c	22.610064
_cell_angle_alpha	89.999473
_cell_angle_beta	89.999096
_cell_angle_gamma	82.646040
loop_
_atom_site_label
_atom_site_type_symbol
_atom_site_fract_x
_atom_site_fract_y
_atom_site_fract_z
O1	O	0.057549	0.640925	-0.049085
O2	O	0.390882	0.974259	0.284248
O3	O	0.724215	1.307592	0.617581
O4	O	0.066286	0.500133	-0.049111
O5	O	0.399619	0.833466	0.284223
O6	O	0.732952	1.166800	0.617556
O7	O	-0.008479	0.574902	-0.049086
O8	O	0.324854	0.908235	0.284247
O9	O	0.658187	1.241568	0.617581
O10	O	0.132314	0.566156	-0.049110
O11	O	0.465647	0.899490	0.284223
O12	O	0.798980	1.232823	0.617557
O13	O	-0.008468	0.574889	0.049283
O14	O	0.324865	0.908222	0.382617
O15	O	0.658198	1.241555	0.715950
O16	O	0.066297	0.500120	0.049259
O17	O	0.399630	0.833453	0.382592
O18	O	0.732963	1.166786	0.715925
O19	O	0.057560	0.640912	0.049284
O20	O	0.390893	0.974245	0.382617
O21	O	0.724226	1.307579	0.715951
Zn22	Zn	0.061930	0.570514	0.064889
Zn23	Zn	0.395263	0.903847	0.398223
Zn24	Zn	0.728596	1.237180	0.731556
Zn25	Zn	0.061915	0.570531	-0.064716
Zn26	Zn	0.395249	0.903865	0.268617
Zn27	Zn	0.728582	1.237198	0.601950
O28	O	0.132325	0.566143	0.049259
O29	O	0.465658	0.899477	0.382593
O30	O	0.798991	1.232810	0.715926
C31	C	0.066106	0.482120	0.000071
C32	C	0.399440	0.815453	0.333404
C33	C	0.732773	1.148786	0.666738
C34	C	0.065551	0.428465	0.000062
C35	C	0.398884	0.761798	0.333395
C36	C	0.732217	1.095132	0.666729
C37	C	0.017583	0.051392	0.000104
C38	C	0.350917	0.384726	0.333437
C39	C	0.684250	0.718059	0.666770
C40	C	0.019630	0.253053	0.000088
C41	C	0.352963	0.586386	0.333421
C42	C	0.686296	0.919719	0.666755
O43	O	-0.017591	0.284305	0.000116
O44	O	0.315742	0.617639	0.333450
O45	O	0.649075	0.950972	0.666783
N46	N	0.063964	0.272180	0.000078
N47	N	0.397297	0.605513	0.333411
N48	N	0.730631	0.938847	0.666744
C49	C	0.107790	0.240889	0.000075
C50	C	0.441123	0.574222	0.333409
C51	C	0.774456	0.907556	0.666742
O52	O	0.145546	0.261785	0.000072
O53	O	0.478879	0.595119	0.333406
O54	O	0.812212	0.928452	0.666739
C55	C	0.105743	0.039230	0.000095
C56	C	0.439076	0.372563	0.333429
C57	C	0.772410	0.705896	0.666762
C58	C	0.061406	0.020105	0.000100
C59	C	0.394739	0.353439	0.333433
C60	C	0.728072	0.686772	0.666766
C61	C	-0.026750	0.032267	0.000109
C62	C	0.306583	0.365601	0.333442
C63	C	0.639916	0.698934	0.666775
C64	C	-0.027261	-0.018145	0.000109
C65	C	0.306072	0.315189	0.333443
C66	C	0.639405	0.648522	0.666776
C67	C	0.016561	-0.049432	0.000105
C68	C	0.349895	0.283901	0.333438
C69	C	0.683228	0.617235	0.666772
C70	C	0.060895	-0.030307	0.000100
C71	C	0.394228	0.303027	0.333434
C72	C	0.727561	0.636360	0.666767
C73	C	0.149568	0.007940	0.000097
C74	C	0.482902	0.341273	0.333431
C75	C	0.816235	0.674606	0.666764
C76	C	0.149053	-0.042478	0.000104
C77	C	0.482386	0.290855	0.333437
C78	C	0.815719	0.624189	0.666770
C79	C	0.104716	-0.061602	0.000108
C80	C	0.438049	0.271731	0.333441
C81	C	0.771382	0.605064	0.666775
C82	C	0.104206	-0.112006	0.000097
C83	C	0.437539	0.221327	0.333430
C84	C	0.770873	0.554661	0.666763
N85	N	0.059872	-0.131134	0.000107
N86	N	0.393205	0.202200	0.333440
N87	N	0.726539	0.535533	0.666774
C88	C	0.016049	-0.099846	0.000111
C89	C	0.349383	0.233487	0.333445
C90	C	0.682716	0.566820	0.666778
C91	C	0.108861	0.346763	0.000064
C92	C	0.442195	0.680097	0.333397
C93	C	0.775528	1.013430	0.666730
C94	C	0.109373	0.397178	0.000058
C95	C	0.442706	0.730511	0.333391
C96	C	0.776040	1.063845	0.666724
C97	C	0.021213	0.409338	0.000071
C98	C	0.354546	0.742672	0.333405
C99	C	0.687879	1.076005	0.666738
C100	C	0.020701	0.358923	0.000073
C101	C	0.354035	0.692256	0.333407
C102	C	0.687368	1.025589	0.666740
C103	C	0.064527	0.327636	0.000074
C104	C	0.397860	0.660969	0.333407
C105	C	0.731194	0.994303	0.666741
C106	C	0.014979	-0.205716	0.000112
C107	C	0.348313	0.127617	0.333446
C108	C	0.681646	0.460951	0.666779
C109	C	0.014472	-0.256133	0.000110
C110	C	0.347806	0.077200	0.333444
C111	C	0.681139	0.410534	0.666777
C112	C	0.102632	-0.268289	0.000100
C113	C	0.435966	0.065045	0.333433
C114	C	0.769299	0.398378	0.666766
C115	C	0.103140	-0.217876	0.000098
C116	C	0.436473	0.115457	0.333432
C117	C	0.769806	0.448791	0.666765
C118	C	0.059309	-0.186590	0.000107
C119	C	0.392643	0.146743	0.333440
C120	C	0.725976	0.480076	0.666773
O121	O	0.141407	-0.143287	0.000075
O122	O	0.474741	0.190046	0.333408
O123	O	0.808074	0.523380	0.666742
O124	O	-0.021701	-0.120752	0.000127
O125	O	0.311632	0.212581	0.333461
O126	O	0.644966	0.545914	0.666794
C127	C	0.018094	0.101804	0.000103
C128	C	0.351428	0.435138	0.333436
C129	C	0.684761	0.768471	0.666770
C130	C	0.062428	0.120930	0.000098
C131	C	0.395761	0.454263	0.333431
C132	C	0.729095	0.787596	0.666765
C133	C	0.106250	0.089642	0.000094
C134	C	0.439584	0.422976	0.333427
C135	C	0.772917	0.756309	0.666761
C136	C	0.062940	0.171344	0.000092
C137	C	0.396273	0.504677	0.333425
C138	C	0.729606	0.838011	0.666759
C139	C	0.019117	0.202631	0.000096
C140	C	0.352451	0.535965	0.333430
C141	C	0.685784	0.869298	0.666763
C142	C	-0.025217	0.183504	0.000106
C143	C	0.308116	0.516837	0.333440
C144	C	0.641450	0.850170	0.666773
C145	C	-0.025728	0.133092	0.000107
C146	C	0.307605	0.466425	0.333441
C147	C	0.640939	0.799758	0.666774
C148	C	0.150585	0.108770	0.000084
C149	C	0.483918	0.442103	0.333417
C150	C	0.817251	0.775437	0.666750
C151	C	0.151092	0.159183	0.000082
C152	C	0.484426	0.492516	0.333416
C153	C	0.817759	0.825849	0.666749
C154	C	0.107270	0.190470	0.000087
C155	C	0.440603	0.523803	0.333420
C156	C	0.773936	0.857136	0.666753
C157	C	-0.026481	0.574712	0.000100
C158	C	0.306853	0.908045	0.333434
C159	C	0.640186	1.241378	0.666767
C160	C	-0.080136	0.574159	0.000105
C161	C	0.253198	0.907492	0.333438
C162	C	0.586531	1.240826	0.666772
C163	C	-0.418948	0.614862	0.000082
C164	C	-0.085615	0.948196	0.333415
C165	C	0.247718	1.281529	0.666749
C166	C	-0.620608	0.612811	0.000073
C167	C	-0.287275	0.946145	0.333407
C168	C	0.046059	1.279478	0.666740
O169	O	-0.651862	0.650032	0.000054
O170	O	-0.318528	0.983365	0.333387
O171	O	0.014805	1.316698	0.666721
N172	N	-0.639735	0.568476	0.000066
N173	N	-0.306401	0.901810	0.333399
N174	N	0.026932	1.235143	0.666733
C175	C	-0.608442	0.524651	0.000057
C176	C	-0.275109	0.857985	0.333390
C177	C	0.058224	1.191318	0.666724
O178	O	-0.629338	0.486895	0.000044
O179	O	-0.296004	0.820228	0.333378
O180	O	0.037329	1.153561	0.666711
C181	C	-0.406784	0.526703	0.000061
C182	C	-0.073450	0.860036	0.333395
C183	C	0.259883	1.193369	0.666728
C184	C	-0.387660	0.571040	0.000075
C185	C	-0.054327	0.904374	0.333408
C186	C	0.279006	1.237707	0.666741
C187	C	-0.399824	0.659196	0.000095
C188	C	-0.066491	0.992530	0.333428
C189	C	0.266842	1.325863	0.666761
C190	C	-0.349412	0.659709	0.000100
C191	C	-0.016079	0.993042	0.333433
C192	C	0.317254	1.326375	0.666767
C193	C	-0.318124	0.615887	0.000093
C194	C	0.015209	0.949220	0.333426
C195	C	0.348542	1.282554	0.666759
C196	C	-0.337248	0.571553	0.000080
C197	C	-0.003915	0.904886	0.333413
C198	C	0.329418	1.238219	0.666747
C199	C	-0.375493	0.482878	0.000048
C200	C	-0.042159	0.816211	0.333381
C201	C	0.291174	1.149545	0.666715
C202	C	-0.325075	0.483395	0.000047
C203	C	0.008258	0.816728	0.333381
C204	C	0.341591	1.150062	0.666714
C205	C	-0.305952	0.527733	0.000061
C206	C	0.027381	0.861066	0.333394
C207	C	0.360715	1.194399	0.666728
C208	C	-0.255548	0.528243	0.000078
C209	C	0.077785	0.861576	0.333411
C210	C	0.411118	1.194910	0.666745
N211	N	-0.236422	0.572578	0.000085
N212	N	0.096911	0.905911	0.333419
N213	N	0.430245	1.239245	0.666752
C214	C	-0.267710	0.616400	0.000093
C215	C	0.065623	0.949733	0.333426
C216	C	0.398957	1.283067	0.666759
C217	C	-0.714317	0.523577	0.000056
C218	C	-0.380983	0.856911	0.333389
C219	C	-0.047650	1.190244	0.666722
C220	C	-0.764731	0.523064	0.000056
C221	C	-0.431398	0.856398	0.333389
C222	C	-0.098064	1.189731	0.666722
C223	C	-0.776893	0.611225	0.000071
C224	C	-0.443560	0.944558	0.333404
C225	C	-0.110227	1.277891	0.666738
C226	C	-0.726478	0.611737	0.000075
C227	C	-0.393145	0.945070	0.333409
C228	C	-0.059811	1.278404	0.666742
C229	C	-0.695190	0.567912	0.000063
C230	C	-0.361857	0.901245	0.333396
C231	C	-0.028524	1.234579	0.666730
C232	C	-0.161841	0.617472	0.000105
C233	C	0.171493	0.950806	0.333438
C234	C	0.504826	1.284139	0.666771
C235	C	-0.111424	0.617981	0.000112
C236	C	0.221910	0.951314	0.333446
C237	C	0.555243	1.284647	0.666779
C238	C	-0.099266	0.529821	0.000094
C239	C	0.234067	0.863154	0.333427
C240	C	0.567401	1.196487	0.666761
C241	C	-0.149679	0.529312	0.000089
C242	C	0.183655	0.862645	0.333423
C243	C	0.516988	1.195979	0.666756
C244	C	-0.180965	0.573142	0.000093
C245	C	0.152368	0.906475	0.333426
C246	C	0.485701	1.239808	0.666759
O247	O	-0.224267	0.491043	0.000091
O248	O	0.109067	0.824376	0.333424
O249	O	0.442400	1.157709	0.666757
O250	O	-0.246805	0.654151	0.000092
O251	O	0.086528	0.987484	0.333426
O252	O	0.419862	1.320818	0.666759
C253	C	-0.469360	0.614350	0.000077
C254	C	-0.136027	0.947683	0.333410
C255	C	0.197306	1.281017	0.666743
C256	C	-0.488484	0.570016	0.000064
C257	C	-0.155151	0.903349	0.333397
C258	C	0.178182	1.236683	0.666731
C259	C	-0.457196	0.526194	0.000057
C260	C	-0.123863	0.859527	0.333390
C261	C	0.209470	1.192861	0.666723
C262	C	-0.538899	0.569503	0.000064
C263	C	-0.205565	0.902836	0.333397
C264	C	0.127768	1.236170	0.666731
C265	C	-0.570187	0.613325	0.000071
C266	C	-0.236853	0.946658	0.333405
C267	C	0.096480	1.279991	0.666738
C268	C	-0.551060	0.657660	0.000079
C269	C	-0.217727	0.990993	0.333412
C270	C	0.115606	1.324326	0.666745
C271	C	-0.500648	0.658172	0.000084
C272	C	-0.167315	0.991505	0.333417
C273	C	0.166018	1.324839	0.666751
C274	C	-0.476323	0.481859	0.000049
C275	C	-0.142989	0.815193	0.333382
C276	C	0.190344	1.148526	0.666716
C277	C	-0.526735	0.481351	0.000044
C278	C	-0.193402	0.814684	0.333378
C279	C	0.139932	1.148017	0.666711
C280	C	-0.558023	0.525172	0.000052
C281	C	-0.224690	0.858506	0.333385
C282	C	0.108643	1.191839	0.666718
C283	C	0.150326	0.566333	0.000072
C284	C	0.483659	0.899667	0.333405
C285	C	0.816993	1.233000	0.666738
C286	C	0.203981	0.566886	0.000063
C287	C	0.537314	0.900219	0.333396
C288	C	0.870648	1.233553	0.666730
C289	C	0.057739	0.658925	0.000101
C290	C	0.391072	0.992259	0.333434
C291	C	0.724405	1.325592	0.666768
C292	C	0.058295	0.712580	0.000106
C293	C	0.391628	1.045913	0.333440
C294	C	0.724961	1.379247	0.666773
N295	N	0.061939	0.570505	0.153342
N296	N	0.395273	0.903839	0.486675
N297	N	0.728606	1.237172	0.820009
N298	N	0.061902	0.570543	-0.153169
N299	N	0.395235	0.903877	0.180165
N300	N	0.728569	1.237210	0.513498
C301	C	0.028814	0.603640	0.561994
C302	C	0.362148	0.936974	0.895328
C303	C	0.695481	1.270307	1.228661
C304	C	0.028811	0.603643	0.623914
C305	C	0.362144	0.936976	0.957247
C306	C	0.695478	1.270309	1.290581
O307	O	0.000654	0.631795	0.655942
O308	O	0.333988	0.965128	0.989276
O309	O	0.667321	1.298461	1.322609
N310	N	0.061905	0.570531	0.654879
N311	N	0.395239	0.903864	0.988212
N312	N	0.728572	1.237198	1.321546
C313	C	0.095002	0.537411	0.623921
C314	C	0.428336	0.870744	0.957254
C315	C	0.761669	1.204078	1.290588
O316	O	0.123151	0.509247	0.655945
O317	O	0.456484	0.842580	0.989278
O318	O	0.789818	1.175913	1.322611
C319	C	0.095003	0.537407	0.562002
C320	C	0.428336	0.870740	0.895335
C321	C	0.761670	1.204073	1.228669
C322	C	0.061910	0.570524	0.531040
C323	C	0.395243	0.903857	0.864374
C324	C	0.728576	1.237191	1.197707
C325	C	-0.004277	0.636755	0.531032
C326	C	0.329057	0.970088	0.864366
C327	C	0.662390	1.303421	1.197699
C328	C	-0.004272	0.636753	0.469117
C329	C	0.329061	0.970086	0.802450
C330	C	0.662394	1.303419	1.135783
C331	C	0.028823	0.603636	0.438163
C332	C	0.362156	0.936970	0.771496
C333	C	0.695490	1.270303	1.104830
C334	C	0.061914	0.570522	0.469125
C335	C	0.395247	0.903855	0.802458
C336	C	0.728581	1.237189	1.135791
C337	C	0.128097	0.504285	0.531045
C338	C	0.461431	0.837618	0.864378
C339	C	0.794764	1.170952	1.197712
C340	C	0.128095	0.504283	0.469122
C341	C	0.461428	0.837616	0.802455
C342	C	0.794762	1.170950	1.135789
C343	C	0.095002	0.537400	0.438160
C344	C	0.428335	0.870734	0.771494
C345	C	0.761668	1.204067	1.104827
C346	C	0.095013	0.537404	0.376255
C347	C	0.428347	0.870737	0.709589
C348	C	0.761680	1.204070	1.042922
N349	N	0.061919	0.570516	0.345290
N350	N	0.395252	0.903849	0.678624
N351	N	0.728586	1.237182	1.011957
C352	C	0.028824	0.603632	0.376244
C353	C	0.362157	0.936965	0.709578
C354	C	0.695490	1.270299	1.042911
C355	C	0.094997	0.537422	0.753954
C356	C	0.428331	0.870756	1.087288
C357	C	0.761664	1.204089	1.420621
C358	C	0.094999	0.537429	0.815872
C359	C	0.428333	0.870762	1.149205
C360	C	0.761666	1.204095	1.482539
C361	C	0.028807	0.603660	0.815861
C362	C	0.362141	0.936993	1.149194
C363	C	0.695474	1.270326	1.482528
C364	C	0.028808	0.603655	0.753942
C365	C	0.362141	0.936989	1.087276
C366	C	0.695475	1.270322	1.420609
C367	C	0.061903	0.570534	0.722990
C368	C	0.395236	0.903868	1.056323
C369	C	0.728570	1.237201	1.389656
C370	C	0.028836	0.603625	0.246217
C371	C	0.362169	0.936959	0.579550
C372	C	0.695502	1.270292	0.912884
C373	C	0.028844	0.603622	0.184296
C374	C	0.362177	0.936955	0.517629
C375	C	0.695511	1.270288	0.850962
C376	C	0.095034	0.537389	0.184312
C377	C	0.428367	0.870722	0.517645
C378	C	0.761701	1.204056	0.850979
C379	C	0.095027	0.537394	0.246228
C380	C	0.428361	0.870727	0.579561
C381	C	0.761694	1.204061	0.912895
C382	C	0.061924	0.570514	0.277179
C383	C	0.395257	0.903848	0.610512
C384	C	0.728591	1.237181	0.943845
O385	O	0.123154	0.509265	0.344188
O386	O	0.456488	0.842598	0.677521
O387	O	0.789821	1.175932	1.010855
O388	O	0.000676	0.631787	0.344213
O389	O	0.334009	0.965121	0.677546
O390	O	0.667342	1.298454	1.010880
H391	H	-0.061832	0.117526	0.000111
H392	H	0.271501	0.450859	0.333444
H393	H	0.604835	0.784192	0.666777
H394	H	-0.060899	0.208987	0.000106
H395	H	0.272435	0.542320	0.333440
H396	H	0.605768	0.875653	0.666773
N397	N	-0.480025	0.705993	0.000092
N398	N	-0.146691	1.039326	0.333425
N399	N	0.186642	1.372659	0.666758
H400	H	-0.459381	0.708170	0.036559
H401	H	-0.126048	1.041503	0.369892
H402	H	0.207286	1.374836	0.703225
H403	H	-0.507527	0.733644	0.000072
H404	H	-0.174193	1.066978	0.333406
H405	H	0.159140	1.400311	0.666739
H406	H	-0.710911	0.647841	0.000086
H407	H	-0.377578	0.981174	0.333419
H408	H	-0.044245	1.314507	0.666752
N409	N	-0.006862	0.639352	0.279594
N410	N	0.326471	0.972685	0.612928
N411	N	0.659804	1.306019	0.946261
H412	H	-0.028147	0.621051	0.305285
H413	H	0.305187	0.954384	0.638619
H414	H	0.638520	1.287718	0.971952
H415	H	-0.027787	0.660319	0.250540
H416	H	0.305546	0.993652	0.583873
H417	H	0.638880	1.326986	0.917206
N418	N	0.150959	-0.197245	0.000085
N419	N	0.484292	0.136088	0.333419
N420	N	0.817625	0.469422	0.666752
H421	H	0.178642	-0.224717	0.000081
H422	H	0.511975	0.108616	0.333414
H423	H	0.845309	0.441949	0.666747
H424	H	0.153094	-0.176596	0.036554
H425	H	0.486427	0.156738	0.369887
H426	H	0.819761	0.490071	0.703220
H427	H	-0.021634	-0.271701	0.000112
H428	H	0.311699	0.061632	0.333446
H429	H	0.645033	0.394966	0.666779
N430	N	0.198917	0.179805	0.000083
N431	N	0.532251	0.513138	0.333416
N432	N	0.865584	0.846471	0.666750
H433	H	0.192597	0.216490	0.000085
H434	H	0.525930	0.549823	0.333418
H435	H	0.859264	0.883156	0.666752
H436	H	0.218077	0.168336	-0.036384
H437	H	0.551410	0.501670	0.296950
H438	H	0.884743	0.835003	0.630283
N439	N	-0.328790	0.707530	0.000112
N440	N	0.004543	1.040863	0.333446
N441	N	0.337877	1.374197	0.666779
H442	H	-0.356267	0.735209	0.000115
H443	H	-0.022933	1.068543	0.333448
H444	H	0.310400	1.401876	0.666782
H445	H	-0.308138	0.709670	-0.036354
H446	H	0.025195	1.043004	0.296980
H447	H	0.358528	1.376337	0.630313
H448	H	-0.031221	0.663718	0.443911
H449	H	0.302112	0.997051	0.777245
H450	H	0.635446	1.330385	1.110578
H451	H	-0.014469	0.434821	0.000073
H452	H	0.318864	0.768154	0.333406
H453	H	0.652197	1.101488	0.666739
N454	N	-0.433569	0.706464	0.000107
N455	N	-0.100235	1.039797	0.333440
N456	N	0.233098	1.373131	0.666773
H457	H	-0.427452	0.725832	-0.036352
H458	H	-0.094119	1.059165	0.296981
H459	H	0.239214	1.392498	0.630314
H460	H	-0.427431	0.725775	0.036603
H461	H	-0.094098	1.059108	0.369936
H462	H	0.239235	1.392441	0.703269
H463	H	0.186271	0.083300	0.000081
H464	H	0.519605	0.416634	0.333414
H465	H	0.852938	0.749967	0.666748
N466	N	-0.785354	0.475243	0.000057
N467	N	-0.452021	0.808577	0.333391
N468	N	-0.118688	1.141910	0.666724
H469	H	-0.757879	0.447563	0.000053
H470	H	-0.424546	0.780896	0.333386
H471	H	-0.091213	1.114229	0.666720
H472	H	-0.806007	0.473110	-0.036409
H473	H	-0.472674	0.806444	0.296925
H474	H	-0.139340	1.139777	0.630258
N475	N	-0.680574	0.476306	0.000044
N476	N	-0.347240	0.809639	0.333377
N477	N	-0.013907	1.142973	0.666710
H478	H	-0.700345	0.448146	0.000041
H479	H	-0.367012	0.781480	0.333374
H480	H	-0.033678	1.114813	0.666708
H481	H	-0.659392	0.474592	0.036511
H482	H	-0.326058	0.807925	0.369844
H483	H	0.007275	1.141258	0.703177
H484	H	0.184742	-0.067950	0.000107
H485	H	0.518075	0.265384	0.333440
H486	H	0.851408	0.598717	0.666774
N487	N	-0.006887	0.639383	0.849252
N488	N	0.326446	0.972716	1.182586
N489	N	0.659780	1.306049	1.515919
H490	H	-0.041159	0.634079	0.838480
H491	H	0.292174	0.967413	1.171813
H492	H	0.625507	1.300746	1.505146
H493	H	-0.001506	0.673628	0.838458
H494	H	0.331827	1.006961	1.171791
H495	H	0.665161	1.340295	1.505125
N496	N	-0.090798	0.665804	0.000130
N497	N	0.242535	0.999137	0.333464
N498	N	0.575869	1.332470	0.666797
H499	H	-0.118272	0.693486	0.000132
H500	H	0.215061	1.026819	0.333466
H501	H	0.548395	1.360152	0.666799
H502	H	-0.070143	0.667944	-0.036333
H503	H	0.263190	1.001277	0.297000
H504	H	0.596523	1.334610	0.630333
H505	H	0.138311	-0.293772	0.000093
H506	H	0.471645	0.039562	0.333427
H507	H	0.804978	0.372895	0.666760
N508	N	-0.006896	0.639370	0.720559
N509	N	0.326438	0.972703	1.053893
N510	N	0.659771	1.306036	1.387226
H511	H	-0.028175	0.621056	0.694877
H512	H	0.305159	0.954390	1.028210
H513	H	0.638492	1.287723	1.361543
H514	H	0.011456	0.660628	0.694897
H515	H	0.344789	0.993961	1.028230
H516	H	0.678123	1.327294	1.361563
H517	H	-0.299603	0.447706	0.000037
H518	H	0.033731	0.781040	0.333370
H519	H	0.367064	1.114373	0.666703
N520	N	0.130693	0.501710	0.849263
N521	N	0.464026	0.835043	1.182596
N522	N	0.797360	1.168377	1.515930
H523	H	0.151972	0.520016	0.874954
H524	H	0.485306	0.853349	1.208287
H525	H	0.818639	1.186683	1.541621
H526	H	0.151623	0.480741	0.820215
H527	H	0.484957	0.814074	1.153548
H528	H	0.818290	1.147408	1.486881
H529	H	-0.062438	0.057737	0.000114
H530	H	0.270896	0.391070	0.333447
H531	H	0.604229	0.724404	0.666781
H532	H	0.155044	0.477310	0.443923
H533	H	0.488378	0.810644	0.777257
H534	H	0.821711	1.143977	1.110590
H535	H	0.001895	0.630592	0.159089
H536	H	0.335229	0.963925	0.492422
H537	H	0.668562	1.297258	0.825755
N538	N	-0.027121	0.338303	0.000087
N539	N	0.306212	0.671636	0.333420
N540	N	0.639545	1.004969	0.666753
H541	H	-0.029297	0.317661	0.036557
H542	H	0.304036	0.650995	0.369890
H543	H	0.637369	0.984328	0.703223
H544	H	-0.029279	0.317678	-0.036398
H545	H	0.304055	0.651011	0.296935
H546	H	0.637388	0.984344	0.630268
N547	N	0.130696	0.501698	0.720572
N548	N	0.464030	0.835031	1.053905
N549	N	0.797363	1.168365	1.387238
H550	H	0.151659	0.480725	0.749588
H551	H	0.484992	0.814058	1.082921
H552	H	0.818325	1.147392	1.416254
H553	H	0.151943	0.520038	0.694879
H554	H	0.485276	0.853371	1.028212
H555	H	0.818610	1.186704	1.361545
H556	H	-0.802377	0.646906	0.000077
H557	H	-0.469043	0.980239	0.333411
H558	H	-0.135710	1.313573	0.666744
N559	N	0.163783	0.468558	0.564429
N560	N	0.497117	0.801891	0.897763
N561	N	0.830450	1.135224	1.231096
H562	H	0.184741	0.447577	0.535416
H563	H	0.518075	0.780910	0.868749
H564	H	0.851408	1.114243	1.202083
H565	H	0.145413	0.447332	0.590114
H566	H	0.478746	0.780665	0.923447
H567	H	0.812079	1.113999	1.256780
H568	H	-0.165249	0.493209	0.000095
H569	H	0.168084	0.826542	0.333428
H570	H	0.501417	1.159875	0.666761
N571	N	0.130723	0.501683	0.279632
N572	N	0.464056	0.835017	0.612966
N573	N	0.797389	1.168350	0.946299
H574	H	0.164994	0.506993	0.268861
H575	H	0.498327	0.840326	0.602195
H576	H	0.831661	1.173659	0.935528
H577	H	0.125350	0.467435	0.268845
H578	H	0.458684	0.800768	0.602178
H579	H	0.792017	1.134101	0.935511
N580	N	-0.396115	0.435059	0.000026
N581	N	-0.062782	0.768392	0.333359
N582	N	0.270551	1.101725	0.666692
H583	H	-0.416762	0.432869	0.036488
H584	H	-0.083429	0.766202	0.369822
H585	H	0.249905	1.099535	0.703155
H586	H	-0.368615	0.407405	-0.000006
H587	H	-0.035281	0.740739	0.333328
H588	H	0.298052	1.074072	0.666661
H589	H	-0.073782	0.494142	0.000090
H590	H	0.259551	0.827476	0.333423
H591	H	0.592884	1.160809	0.666757
N592	N	-0.584812	0.704925	0.000092
N593	N	-0.251478	1.038259	0.333425
N594	N	0.081855	1.371592	0.666759
H595	H	-0.619649	0.697868	0.000088
H596	H	-0.286316	1.031201	0.333421
H597	H	0.047017	1.364535	0.666754
H598	H	-0.578658	0.724270	-0.036371
H599	H	-0.245324	1.057603	0.296963
H600	H	0.088009	1.390937	0.630296
H601	H	-0.187309	0.653163	0.000105
H602	H	0.146024	0.986496	0.333438
H603	H	0.479358	1.319829	0.666772
N604	N	0.130728	0.501672	0.150920
N605	N	0.464062	0.835005	0.484254
N606	N	0.797395	1.168339	0.817587
H607	H	0.125705	0.506697	0.106998
H608	H	0.459038	0.840030	0.440331
H609	H	0.792371	1.173364	0.773664
H610	H	0.125374	0.467426	0.161745
H611	H	0.458707	0.800759	0.495078
H612	H	0.792040	1.134092	0.828411
H613	H	-0.450852	0.446173	0.000042
H614	H	-0.117519	0.779507	0.333375
H615	H	0.215815	1.112840	0.666708
N616	N	-0.032293	-0.171977	0.000123
N617	N	0.301040	0.161357	0.333456
N618	N	0.634373	0.494690	0.666790
H619	H	-0.060452	-0.191749	0.000126
H620	H	0.272881	0.141585	0.333459
H621	H	0.606214	0.474918	0.666792
H622	H	-0.034007	-0.150794	-0.036344
H623	H	0.299326	0.182539	0.296989
H624	H	0.632660	0.515872	0.630323
H625	H	-0.063365	-0.033711	0.000115
H626	H	0.269968	0.299623	0.333449
H627	H	0.603302	0.632956	0.666782
H628	H	-0.542300	0.445243	0.000039
H629	H	-0.208967	0.778576	0.333372
H630	H	0.124367	1.111909	0.666705
H631	H	-0.031229	0.663722	0.556230
H632	H	0.302104	0.997055	0.889563
H633	H	0.635438	1.330388	1.222896
N634	N	0.157193	0.417803	0.000038
N635	N	0.490527	0.751136	0.333371
N636	N	0.823860	1.084469	0.666704
H637	H	0.184874	0.390328	0.000036
H638	H	0.518208	0.723661	0.333369
H639	H	0.851541	1.056995	0.666703
H640	H	0.159333	0.438457	0.036501
H641	H	0.492667	0.771791	0.369834
H642	H	0.826000	1.105124	0.703167
H643	H	0.144551	0.321293	0.000063
H644	H	0.477885	0.654627	0.333397
H645	H	0.811218	0.987960	0.666730
H646	H	0.185672	0.023501	0.000091
H647	H	0.519006	0.356835	0.333424
H648	H	0.852339	0.690168	0.666758
