data_functionalizedCrystal
_audit_creation_method	'MofGen! by Chris Wilmer'
_symmetry_space_group_name_H-M	'P1'
_symmetry_Int_Tables_number	1
_symmetry_cell_setting	triclinic
loop_
_symmetry_equiv_pos_as_xyz
  x,y,z
_cell_length_a	10.654550
_cell_length_b	15.500227
_cell_length_c	10.654549
_cell_angle_alpha	87.143379
_cell_angle_beta	84.484854
_cell_angle_gamma	92.868690
loop_
_atom_site_label
_atom_site_type_symbol
_atom_site_fract_x
_atom_site_fract_y
_atom_site_fract_z
O1	O	1.673627	0.071877	0.170625
O2	O	1.308150	0.071893	0.187430
O3	O	1.499291	0.071881	-0.003712
O4	O	1.482485	0.071889	0.361766
O5	O	1.487692	-0.072007	0.007841
O6	O	1.296550	-0.071995	0.198983
O7	O	1.662028	-0.072011	0.182178
Cu8	Cu	1.478230	-0.085141	0.191635
Cu9	Cu	1.491947	0.085023	0.177972
O10	O	1.470886	-0.071999	0.373319
C11	C	1.255552	-0.000049	0.191972
C12	C	1.116109	-0.000043	0.188280
N13	N	1.468591	-0.204825	0.201244
C14	C	1.036624	-0.000043	0.300821
C15	C	0.905602	-0.000058	0.297346
C16	C	0.933564	-0.000070	0.068777
C17	C	1.064583	-0.000061	0.072254
C18	C	1.549613	-0.250107	0.120281
C19	C	1.542335	-0.340679	0.127560
C20	C	1.454040	-0.385968	0.215809
C21	C	1.373009	-0.340680	0.296775
C22	C	1.380282	-0.250110	0.289489
C23	C	1.427839	-0.659434	0.242034
C24	C	1.420574	-0.750011	0.249316
C25	C	1.589899	-0.750003	0.080099
C26	C	1.597170	-0.659431	0.072826
C27	C	1.516135	-0.614151	0.153788
C28	C	1.446601	-0.478548	0.223254
C29	C	1.523568	-0.521573	0.146336
C30	C	1.714625	-0.000067	0.177635
C31	C	1.854068	-0.000067	0.181327
C32	C	1.492258	-0.000062	-0.044733
C33	C	1.488566	-0.000059	-0.184177
N34	N	1.501596	0.204708	0.168354
C35	C	1.597630	-0.000058	-0.394692
C36	C	1.601108	-0.000065	-0.263670
C37	C	1.372539	-0.000055	-0.235709
C38	C	1.369062	-0.000054	-0.366728
C39	C	1.477920	-0.000054	0.414341
C40	C	1.481612	-0.000051	0.553784
H41	H	0.840889	-0.000060	0.388989
H42	H	1.274580	-0.000053	-0.408678
H43	H	1.374711	-0.515430	0.295110
H44	H	1.078571	-0.000035	0.395297
H45	H	1.689275	-0.000055	-0.459408
H46	H	0.891595	-0.000089	-0.025686
H47	H	1.129304	-0.000063	-0.019396
H48	H	1.348670	-0.786881	0.321184
H49	H	1.655873	-0.786879	0.014182
N50	N	1.726240	-0.000077	-0.208095
H51	H	1.797007	-0.000076	-0.278335
H52	H	1.736963	0.053261	-0.158619
H53	H	1.621517	-0.213238	0.048425
H54	H	1.608308	-0.377547	0.061633
N55	N	1.251150	-0.000074	-0.149975
H56	H	1.270954	-0.000079	-0.059155
H57	H	1.204919	0.053263	-0.171040
H58	H	1.669066	-0.622558	0.000967
N59	N	1.340434	-0.610602	0.329347
H60	H	1.283400	-0.653039	0.386356
H61	H	1.391999	-0.573007	0.382298
H62	H	1.301111	-0.377560	0.368625
H63	H	1.314304	-0.213242	0.355417
H64	H	1.595454	-0.484696	0.074479
