data_functionalizedCrystal
_audit_creation_method	'MofGen! by Chris Wilmer'
_symmetry_space_group_name_H-M	'P1'
_symmetry_Int_Tables_number	1
_symmetry_cell_setting	triclinic
loop_
_symmetry_equiv_pos_as_xyz
  x,y,z
_cell_length_a	17.077404
_cell_length_b	12.645330
_cell_length_c	17.077396
_cell_angle_alpha	89.975931
_cell_angle_beta	89.980499
_cell_angle_gamma	90.017917
loop_
_atom_site_label
_atom_site_type_symbol
_atom_site_fract_x
_atom_site_fract_y
_atom_site_fract_z
Zn1	Zn	1.200083	-0.422033	-0.443867
Zn2	Zn	1.200002	-0.599318	-0.312611
Zn3	Zn	1.068815	-0.422070	-0.312615
Zn4	Zn	1.068795	-0.599256	-0.443834
O5	O	1.134424	-0.510669	-0.378232
O6	O	1.309919	-0.445561	-0.426467
O7	O	1.182574	-0.575848	-0.202764
O8	O	1.086270	-0.273718	-0.330041
O9	O	1.309860	-0.575812	-0.330034
O10	O	1.182712	-0.273691	-0.426471
O11	O	1.086192	-0.445624	-0.202767
O12	O	0.958965	-0.445563	-0.330009
O13	O	1.086236	-0.575705	-0.553686
O14	O	0.958950	-0.575741	-0.426416
O15	O	1.182693	-0.445500	-0.553709
O16	O	1.182555	-0.747657	-0.330003
O17	O	1.086157	-0.747611	-0.426412
C18	C	0.930476	-0.510650	-0.378210
C19	C	0.843226	-0.510667	-0.378219
C20	C	1.134366	-0.786099	-0.378221
C21	C	1.134414	-0.903929	-0.378242
C22	C	0.802249	-0.578553	-0.428338
C23	C	0.720268	-0.578555	-0.428350
C24	C	0.679267	-0.510677	-0.378240
C25	C	0.720250	-0.442783	-0.328119
C26	C	0.802229	-0.442777	-0.328111
C27	C	0.549380	-0.442804	-0.328138
C28	C	0.467395	-0.442812	-0.328145
C29	C	0.467419	-0.578583	-0.428377
C30	C	0.549398	-0.578576	-0.428369
C31	C	0.590376	-0.510684	-0.378247
C32	C	1.074020	-1.071508	-0.439080
C33	C	1.073711	-0.948949	-0.438885
C34	C	1.112022	-0.948522	-0.295515
C35	C	1.111653	-1.071120	-0.295885
C36	C	1.217568	-1.071018	-0.399460
C37	C	1.217059	-0.948411	-0.401269
C38	C	1.339168	-0.510689	-0.378254
C39	C	1.426418	-0.510698	-0.378263
C40	C	1.134471	-0.510591	-0.582976
C41	C	1.134491	-0.510558	-0.670226
C42	C	1.134502	-0.234164	-0.378260
C43	C	1.134536	-0.116334	-0.378272
C44	C	1.184718	-0.442755	-0.711230
C45	C	1.184728	-0.442719	-0.793210
C46	C	1.134514	-0.510493	-0.834185
C47	C	1.084281	-0.578300	-0.793176
C48	C	1.084268	-0.578329	-0.711197
C49	C	1.084313	-0.578236	-0.964046
C50	C	1.084326	-0.578208	-1.046031
C51	C	1.184772	-0.442627	-1.046059
C52	C	1.184759	-0.442656	-0.964080
C53	C	1.134528	-0.510464	-0.923076
C54	C	1.134421	-0.510671	-0.174284
C55	C	1.134553	-0.510405	-0.087034
H56	H	0.835626	-0.633831	-0.469141
H57	H	0.434014	-0.387527	-0.287350
H58	H	1.043360	-0.633530	-0.677813
H59	H	1.225629	-0.387510	-0.826592
H60	H	1.051958	-0.917910	-0.277242
H61	H	1.233945	-0.919262	-0.462152
H62	H	1.264520	-0.917760	-0.360204
C63	C	1.029037	-0.652842	-0.838252
N64	N	0.987426	-0.708988	-0.872202
C65	C	0.422343	-0.653260	-0.483516
N66	N	0.388387	-0.709506	-0.525043
H67	H	1.043396	-0.633436	-0.930663
H68	H	1.225611	-0.387568	-0.677874
H69	H	1.225653	-0.387474	-0.930721
H70	H	0.686908	-0.633836	-0.469161
C71	C	0.594453	-0.368122	-0.272999
N72	N	0.628402	-0.311877	-0.231466
C73	C	0.594498	-0.653252	-0.483489
N74	N	0.628468	-0.709498	-0.525007
H75	H	1.050956	-1.099811	-0.277936
C76	C	0.847303	-0.368099	-0.272975
N77	N	0.881252	-0.311848	-0.231447
H78	H	0.686860	-0.387511	-0.287322
C79	C	0.990538	-0.909449	-0.419979
N80	N	0.927883	-0.879699	-0.405757
C81	C	1.092634	-0.908211	-0.521755
N82	N	1.106884	-0.877532	-0.584178
H83	H	1.087901	-1.100921	-0.500623
C84	C	0.991377	-1.113239	-0.420354
N85	N	0.929129	-1.144668	-0.406244
H86	H	1.153818	-1.100776	-0.249033
H87	H	1.154702	-0.919362	-0.248970
H88	H	1.237995	-1.101863	-0.458759
C89	C	1.278478	-1.110185	-0.339631
N90	N	1.324350	-1.139692	-0.294567
H91	H	1.225671	-0.387413	-1.079449
H92	H	1.043436	-0.633394	-1.079391
