data_functionalizedCrystal
_audit_creation_method	'MofGen! by Chris Wilmer'
_symmetry_space_group_name_H-M	'P1'
_symmetry_Int_Tables_number	1
_symmetry_cell_setting	triclinic
loop_
_symmetry_equiv_pos_as_xyz
  x,y,z
_cell_length_a	12.759401
_cell_length_b	17.077402
_cell_length_c	17.077396
_cell_angle_alpha	89.970216
_cell_angle_beta	89.983593
_cell_angle_gamma	90.023044
loop_
_atom_site_label
_atom_site_type_symbol
_atom_site_fract_x
_atom_site_fract_y
_atom_site_fract_z
Zn1	Zn	1.606174	-0.312505	-0.443771
Zn2	Zn	1.939507	0.020829	-0.110437
Zn3	Zn	2.272841	0.354162	0.222896
Zn4	Zn	1.606050	-0.443780	-0.312502
Zn5	Zn	1.939383	-0.110446	0.020832
Zn6	Zn	2.272716	0.222887	0.354165
Zn7	Zn	1.430482	-0.312532	-0.312526
Zn8	Zn	1.763816	0.020801	0.020808
Zn9	Zn	2.097149	0.354134	0.354141
Zn10	Zn	1.430439	-0.443733	-0.443732
Zn11	Zn	1.763773	-0.110400	-0.110399
Zn12	Zn	2.097106	0.222934	0.222934
O13	O	1.518286	-0.378137	-0.378133
O14	O	1.851620	-0.044804	-0.044799
O15	O	2.184953	0.288529	0.288534
O16	O	1.753178	-0.329927	-0.426364
O17	O	2.086512	0.003407	-0.093030
O18	O	2.419845	0.336740	0.240303
O19	O	1.582726	-0.426400	-0.202658
O20	O	1.916059	-0.093067	0.130675
O21	O	2.249393	0.240266	0.464009
O22	O	1.453858	-0.202682	-0.329962
O23	O	1.787192	0.130652	0.003371
O24	O	2.120525	0.463985	0.336705
O25	O	1.753087	-0.426374	-0.329921
O26	O	2.086420	-0.093041	0.003412
O27	O	2.419754	0.240293	0.336746
O28	O	1.582938	-0.202661	-0.426387
O29	O	1.916271	0.130672	-0.093054
O30	O	2.249605	0.464005	0.240280
O31	O	1.453738	-0.329973	-0.202676
O32	O	1.787071	0.003360	0.130658
O33	O	2.120404	0.336693	0.463991
O34	O	1.283456	-0.329928	-0.329925
O35	O	1.616789	0.003405	0.003409
O36	O	1.950122	0.336738	0.336742
O37	O	1.453785	-0.426294	-0.553585
O38	O	1.787118	-0.092961	-0.220251
O39	O	2.120452	0.240372	0.113082
O40	O	1.283424	-0.426321	-0.426322
O41	O	1.616757	-0.092987	-0.092988
O42	O	1.950091	0.240346	0.240345
O43	O	1.582897	-0.329881	-0.553613
O44	O	1.916230	0.003452	-0.220279
O45	O	2.249563	0.336785	0.113054
O46	O	1.582685	-0.553620	-0.329884
O47	O	1.916018	-0.220287	0.003450
O48	O	2.249351	0.113046	0.336783
O49	O	1.453665	-0.553586	-0.426298
O50	O	1.786998	-0.220253	-0.092965
O51	O	2.120331	0.113081	0.240368
C52	C	1.518185	-0.582085	-0.378101
C53	C	1.851518	-0.248752	-0.044768
C54	C	2.184852	0.084581	0.288565
C55	C	1.518238	-0.669335	-0.378114
C56	C	1.851571	-0.336002	-0.044781
C57	C	2.184904	-0.002668	0.288552
C58	C	1.245319	-0.378123	-0.378122
C59	C	1.578652	-0.044790	-0.044789
C60	C	1.911986	0.288544	0.288545
C61	C	1.128542	-0.378136	-0.378136
C62	C	1.461876	-0.044802	-0.044803
C63	C	1.795209	0.288531	0.288531
C64	C	1.585487	-0.710317	-0.327965
C65	C	1.918820	-0.376984	0.005368
C66	C	2.252154	-0.043650	0.338702
C67	C	1.585538	-0.792297	-0.327985
C68	C	1.918872	-0.458964	0.005348
C69	C	2.252205	-0.125631	0.338682
C70	C	1.518334	-0.833294	-0.378151
C71	C	1.851668	-0.499961	-0.044818
C72	C	2.185001	-0.166628	0.288516
C73	C	1.451082	-0.792307	-0.428306
C74	C	1.784415	-0.458973	-0.094972
C75	C	2.117749	-0.125640	0.238361
C76	C	1.451037	-0.710328	-0.428289
C77	C	1.784370	-0.376994	-0.094956
C78	C	2.117703	-0.043661	0.238378
C79	C	1.451179	-0.963177	-0.428335
C80	C	1.784513	-0.629843	-0.095002
C81	C	2.117846	-0.296510	0.238331
C82	C	1.451223	-1.045161	-0.428351
C83	C	1.784556	-0.711828	-0.095018
C84	C	2.117890	-0.378495	0.238315
C85	C	1.585681	-1.045146	-0.328032
C86	C	1.919014	-0.711813	0.005302
C87	C	2.252348	-0.378480	0.338635
C88	C	1.585636	-0.963167	-0.328015
C89	C	1.918969	-0.629834	0.005318
C90	C	2.252302	-0.296501	0.338652
C91	C	1.518382	-0.922185	-0.378169
C92	C	1.851715	-0.588852	-0.044835
C93	C	2.185048	-0.255519	0.288498
C94	C	1.073691	-0.428408	-0.428247
C95	C	1.407025	-0.095074	-0.094914
C96	C	1.740358	0.238259	0.238420
C97	C	0.963967	-0.428418	-0.428256
C98	C	1.297301	-0.095084	-0.094922
C99	C	1.630634	0.238249	0.238411
C100	C	0.963955	-0.327881	-0.328036
C101	C	1.297288	0.005452	0.005298
C102	C	1.630621	0.338785	0.338631
C103	C	1.073677	-0.327868	-0.328032
C104	C	1.407010	0.005465	0.005302
C105	C	1.740344	0.338799	0.338635
C106	C	1.073698	-0.486454	-0.486106
C107	C	1.407031	-0.153121	-0.152773
C108	C	1.740364	0.180213	0.180561
C109	C	0.963974	-0.486464	-0.486114
C110	C	1.297307	-0.153130	-0.152781
C111	C	1.630640	0.180203	0.180552
C112	C	1.792320	-0.378152	-0.378144
C113	C	2.125653	-0.044819	-0.044811
C114	C	2.458986	0.288514	0.288523
C115	C	1.909096	-0.378159	-0.378149
C116	C	2.242430	-0.044826	-0.044815
C117	C	2.575763	0.288508	0.288518
C118	C	1.518350	-0.378080	-0.582877
C119	C	1.851683	-0.044746	-0.249544
C120	C	2.185017	0.288587	0.083790
C121	C	1.518377	-0.378055	-0.670127
C122	C	1.851710	-0.044722	-0.336794
C123	C	2.185044	0.288612	-0.003460
C124	C	1.518417	-0.173393	-0.378181
C125	C	1.851750	0.159940	-0.044848
C126	C	2.185083	0.493274	0.288485
C127	C	1.518472	-0.086143	-0.378202
C128	C	1.851806	0.247190	-0.044869
C129	C	2.185139	0.580523	0.288465
C130	C	1.585608	-0.327849	-0.711133
C131	C	1.918941	0.005485	-0.377800
C132	C	2.252274	0.338818	-0.044466
C133	C	1.585620	-0.327822	-0.793114
C134	C	1.918954	0.005511	-0.459780
C135	C	2.252287	0.338844	-0.126447
C136	C	1.518407	-0.378007	-0.834086
C137	C	1.851740	-0.044674	-0.500753
C138	C	2.185073	0.288659	-0.167420
C139	C	1.451169	-0.428216	-0.793075
C140	C	1.784502	-0.094882	-0.459741
C141	C	2.117835	0.238451	-0.126408
C142	C	1.451152	-0.428237	-0.711096
C143	C	1.784485	-0.094904	-0.377762
C144	C	2.117818	0.238429	-0.044429
C145	C	1.451211	-0.428168	-0.963945
C146	C	1.784544	-0.094835	-0.630611
C147	C	2.117878	0.238498	-0.297278
C148	C	1.451229	-0.428148	-1.045929
C149	C	1.784563	-0.094815	-0.712596
C150	C	2.117896	0.238519	-0.379263
C151	C	1.585680	-0.327754	-1.045963
C152	C	1.919013	0.005580	-0.712629
C153	C	2.252347	0.338913	-0.379296
C154	C	1.585663	-0.327775	-0.963984
C155	C	1.918996	0.005558	-0.630650
C156	C	2.252329	0.338891	-0.297317
C157	C	1.518426	-0.377985	-0.922978
C158	C	1.851759	-0.044652	-0.589644
C159	C	2.185092	0.288682	-0.256311
C160	C	1.518283	-0.378138	-0.174185
C161	C	1.851617	-0.044805	0.159148
C162	C	2.184950	0.288528	0.492482
C163	C	1.518460	-0.377942	-0.086936
C164	C	1.851793	-0.044609	0.246398
C165	C	2.185127	0.288725	0.579731
H166	H	1.640208	-0.676943	-0.287111
H167	H	1.973541	-0.343609	0.046222
H168	H	2.306874	-0.010276	0.379556
Br169	Br	0.907299	-0.450304	-0.582438
Br170	Br	1.240632	-0.116970	-0.249105
Br171	Br	1.573966	0.216363	0.084229
H172	H	1.396368	-0.825693	-0.469155
H173	H	1.729701	-0.492360	-0.135822
H174	H	2.063035	-0.159026	0.197512
Br175	Br	1.148115	-0.259622	-0.260039
Br176	Br	1.481449	0.073712	0.073294
Br177	Br	1.814782	0.407045	0.406628
H178	H	1.640369	-0.286941	-0.826497
H179	H	1.973702	0.046392	-0.493164
H180	H	2.307036	0.379725	-0.159830
H181	H	0.934167	-0.547243	-0.469723
H182	H	1.267501	-0.213909	-0.136390
H183	H	1.600834	0.119424	0.196943
Br184	Br	1.676816	-0.847913	-0.259927
Br185	Br	2.010149	-0.514580	0.073406
Br186	Br	2.343482	-0.181247	0.406739
Br187	Br	1.360000	-0.496249	-1.101536
Br188	Br	1.693333	-0.162916	-0.768202
Br189	Br	2.026666	0.170418	-0.434869
Br190	Br	1.359956	-0.496308	-0.908294
Br191	Br	1.693290	-0.162975	-0.574961
Br192	Br	2.026623	0.170358	-0.241627
H193	H	1.396418	-0.929812	-0.469179
H194	H	1.729751	-0.596479	-0.135846
H195	H	2.063084	-0.263145	0.197488
Br196	Br	1.676839	-0.259743	-0.655535
Br197	Br	2.010173	0.073590	-0.322202
Br198	Br	2.343506	0.406924	0.011132
Br199	Br	1.359773	-0.654708	-0.496356
Br200	Br	1.693106	-0.321375	-0.163023
Br201	Br	2.026440	0.011958	0.170310
H202	H	1.640425	-0.286870	-1.079354
H203	H	1.973758	0.046464	-0.746020
H204	H	2.307092	0.379797	-0.412687
Br205	Br	0.889488	-0.259662	-0.260042
Br206	Br	1.222822	0.073671	0.073291
Br207	Br	1.556155	0.407005	0.406624
Br208	Br	1.676891	-0.259674	-0.908377
Br209	Br	2.010225	0.073660	-0.575044
Br210	Br	2.343558	0.406993	-0.241711
H211	H	1.103506	-0.470248	-0.546930
H212	H	1.436839	-0.136914	-0.213597
H213	H	1.770173	0.196419	0.119736
Br214	Br	1.676840	-0.907529	-0.259930
Br215	Br	2.010173	-0.574195	0.073403
Br216	Br	2.343506	-0.240862	0.406736
H217	H	1.396438	-0.469074	-0.826441
H218	H	1.729772	-0.135741	-0.493108
H219	H	2.063105	0.197593	-0.159775
Br220	Br	1.130385	-0.582680	-0.449712
Br221	Br	1.463718	-0.249347	-0.116379
Br222	Br	1.797051	0.083987	0.216955
Br223	Br	1.359900	-0.496372	-0.655443
Br224	Br	1.693233	-0.163039	-0.322110
Br225	Br	2.026566	0.170294	0.011223
H226	H	1.640445	-1.078518	-0.287197
H227	H	1.973778	-0.745185	0.046136
H228	H	2.307112	-0.411851	0.379470
H229	H	1.396519	-1.078539	-0.469215
H230	H	1.729853	-0.745206	-0.135882
H231	H	2.063186	-0.411872	0.197451
