data_functionalizedCrystal
_audit_creation_method	'MofGen! by Chris Wilmer'
_symmetry_space_group_name_H-M	'P1'
_symmetry_Int_Tables_number	1
_symmetry_cell_setting	triclinic
loop_
_symmetry_equiv_pos_as_xyz
  x,y,z
_cell_length_a	15.995350
_cell_length_b	14.971486
_cell_length_c	14.048226
_cell_angle_alpha	90.001501
_cell_angle_beta	90.004202
_cell_angle_gamma	83.553252
loop_
_atom_site_label
_atom_site_type_symbol
_atom_site_fract_x
_atom_site_fract_y
_atom_site_fract_z
O1	O	0.109116	1.186822	0.079046
O2	O	0.122183	0.926407	0.079072
O3	O	-0.006231	1.063733	0.079057
O4	O	0.237530	1.049496	0.079061
O5	O	-0.006238	1.063717	-0.079264
O6	O	0.122176	0.926391	-0.079250
O7	O	0.109109	1.186806	-0.079275
Zn8	Zn	0.115641	1.056596	-0.104399
Zn9	Zn	0.115651	1.056617	0.104196
O10	O	0.237523	1.049480	-0.079261
C11	C	0.121595	0.893075	-0.000086
C12	C	0.119844	0.793780	-0.000076
C13	C	0.195284	0.736468	-0.000076
C14	C	0.193633	0.643171	-0.000090
C15	C	0.116542	0.607187	-0.000098
C16	C	0.041097	0.664505	-0.000100
C17	C	0.042748	0.757801	-0.000093
C18	C	0.037660	0.470047	-0.000113
C19	C	0.036008	0.376745	-0.000119
C20	C	0.188545	0.355417	-0.000111
C21	C	0.190197	0.448712	-0.000104
C22	C	0.114751	0.506025	-0.000104
C23	C	-0.037430	1.063137	-0.000101
C24	C	-0.130382	1.061372	-0.000096
C25	C	-0.468136	1.055035	-0.000098
C26	C	-0.420800	0.957234	0.000266
C27	C	-0.324108	0.958999	-0.000091
C28	C	-0.300572	1.058178	-0.000097
C29	C	-0.341606	1.106408	-0.090509
C30	C	-0.438244	1.103951	-0.090584
C31	C	-0.438591	1.105990	0.089456
C32	C	-0.341646	1.105967	0.090651
C33	C	-0.205873	1.059960	-0.000099
C34	C	-0.562835	1.053256	-0.000103
C35	C	0.268722	1.050077	-0.000100
C36	C	0.361674	1.051841	-0.000099
C37	C	0.109697	1.220138	-0.000116
C38	C	0.111448	1.319433	-0.000119
N39	N	0.115634	1.056587	-0.246760
C40	C	0.058795	1.117414	-0.296584
C41	C	0.058795	1.117421	-0.396242
C42	C	0.115637	1.056603	-0.446073
C43	C	0.172478	0.995769	-0.396242
C44	C	0.172474	0.995760	-0.296586
C45	C	0.172484	0.995795	-0.603956
C46	C	0.172490	0.995806	-0.703619
C47	C	0.058805	1.117456	-0.703612
C48	C	0.058801	1.117446	-0.603956
C49	C	0.115643	1.056614	-0.554132
N50	N	0.115652	1.056633	0.246557
H51	H	-0.021672	0.635200	-0.000119
H52	H	0.012511	1.166943	-0.256018
F53	F	-0.037545	0.818797	-0.000096
H54	H	0.255064	0.596511	-0.000090
F55	F	-0.323049	1.201647	-0.094913
F56	F	-0.321468	1.200502	0.097787
F57	F	0.232981	0.931046	-0.550934
H58	H	-0.295721	0.921086	0.064720
H59	H	-0.470280	1.178098	0.090060
H60	H	-0.440436	0.918310	-0.064202
H61	H	-0.026766	0.347450	-0.000126
H62	H	0.012522	1.166988	-0.744185
H63	H	0.258060	0.765759	-0.000070
H64	H	-0.439368	0.918150	0.065103
F65	F	0.272245	0.487007	-0.000086
F66	F	-0.305683	1.060232	0.178087
H67	H	0.012513	1.166950	-0.436809
F68	F	0.268841	0.294420	-0.000112
H69	H	0.012520	1.166973	-0.563384
F70	F	-0.042639	0.531041	-0.000117
F71	F	0.232988	0.931074	-0.756646
F72	F	0.232971	0.931038	-0.449277
F73	F	-0.287736	0.909091	-0.084937
H74	H	-0.456584	1.068768	-0.158165
F75	F	0.232967	0.931016	-0.243561
F76	F	-0.480303	1.197801	-0.095961
H77	H	-0.313261	1.072896	-0.157786
F78	F	-0.465466	1.064199	0.179027
