data_functionalizedCrystal
_audit_creation_method	'MofGen! by Chris Wilmer'
_symmetry_space_group_name_H-M	'P1'
_symmetry_Int_Tables_number	1
_symmetry_cell_setting	triclinic
loop_
_symmetry_equiv_pos_as_xyz
  x,y,z
_cell_length_a	19.188930
_cell_length_b	19.188933
_cell_length_c	9.565339
_cell_angle_alpha	89.998444
_cell_angle_beta	89.987193
_cell_angle_gamma	83.145175
loop_
_atom_site_label
_atom_site_type_symbol
_atom_site_fract_x
_atom_site_fract_y
_atom_site_fract_z
O1	O	0.087177	0.926142	-0.116229
O2	O	0.098910	0.722831	-0.116244
O3	O	-0.008612	0.830354	-0.116209
O4	O	0.194699	0.818619	-0.116264
O5	O	-0.008622	0.830348	0.116311
O6	O	0.098900	0.722825	0.116276
O7	O	0.087168	0.926137	0.116291
Zn8	Zn	0.093032	0.824480	0.153201
Zn9	Zn	0.093045	0.824487	-0.153154
O10	O	0.194690	0.818614	0.116256
C11	C	0.098525	0.696817	0.000014
C12	C	0.097384	0.619313	0.000010
C13	C	0.089244	0.066060	-0.126720
C14	C	0.090312	0.138885	-0.126725
C15	C	0.090844	0.175299	0.000021
C16	C	0.090290	0.138885	0.126782
C17	C	0.089215	0.066063	0.126784
N18	N	0.132259	0.284316	0.094352
N19	N	0.133281	0.353494	0.094342
C20	C	0.094082	0.394707	0.000022
N21	N	0.053830	0.364128	-0.094308
N22	N	0.052810	0.294944	-0.094301
C23	C	0.092009	0.254262	0.000033
C24	C	0.095789	0.510077	-0.126737
C25	C	0.096853	0.582904	-0.126738
C26	C	0.096838	0.582901	0.126773
C27	C	0.095767	0.510078	0.126770
C28	C	0.095246	0.473669	0.000011
C29	C	-0.034628	0.829971	0.000055
C30	C	-0.112132	0.828830	0.000067
C31	C	-0.157056	0.891921	0.000079
C32	C	-0.229880	0.890849	0.000056
C33	C	-0.257777	0.826683	0.000050
C34	C	-0.212843	0.763584	0.000031
C35	C	-0.140021	0.764658	0.000039
N36	N	-0.365785	0.777634	0.079178
N37	N	-0.434964	0.776619	0.079173
C38	C	-0.477185	0.823445	0.000022
N39	N	-0.447616	0.871336	-0.079106
N40	N	-0.378431	0.872354	-0.079095
C41	C	-0.336739	0.825512	0.000040
C42	C	-0.601073	0.885378	0.000007
C43	C	-0.673898	0.884304	-0.000024
C44	C	-0.656860	0.757037	-0.000035
C45	C	-0.584037	0.758113	-0.000018
C46	C	-0.556148	0.822286	0.000009
C47	C	0.220705	0.818997	-0.000011
C48	C	0.298210	0.820137	-0.000032
C49	C	0.087553	0.952150	0.000029
C50	C	0.088694	1.029655	0.000025
N51	N	0.093023	0.824480	0.362280
C52	C	0.042916	0.873826	0.546633
C53	C	0.105769	0.887744	0.453378
C54	C	0.030174	0.810594	0.453466
C55	C	0.155933	0.838442	0.546564
C56	C	0.080297	0.761265	0.546659
C57	C	0.143196	0.775155	0.453447
N58	N	0.093047	0.824493	0.637766
H59	H	0.095322	0.480435	0.229980
H60	H	0.097268	0.612549	0.229973
H61	H	0.000578	0.915579	0.587546
H62	H	-0.710475	0.935682	-0.000023
Cl63	Cl	0.063623	0.678743	0.609973
H64	H	0.185627	0.733428	0.412790
H65	H	-0.022986	0.798843	0.412569
Cl66	Cl	0.097537	0.628672	-0.286089
Cl67	Cl	-0.083543	0.685337	0.000026
Cl68	Cl	-0.121999	0.972595	0.000074
H69	H	0.209106	0.850250	0.587288
Cl70	Cl	-0.286365	0.970169	0.000069
Cl71	Cl	-0.247913	0.682918	0.000012
H72	H	0.088817	0.036422	-0.229937
Cl73	Cl	-0.566010	0.966050	0.000050
H74	H	-0.679573	0.704792	-0.000047
H75	H	0.090764	0.168531	-0.229939
H76	H	-0.547459	0.706738	-0.000020
H77	H	0.090722	0.168538	0.229980
Cl78	Cl	0.095129	0.464305	-0.286088
Cl79	Cl	0.088527	0.020293	0.286134
Cl80	Cl	0.122401	0.970285	0.390078
