data_functionalizedCrystal
_audit_creation_method	'MofGen! by Chris Wilmer'
_symmetry_space_group_name_H-M	'P1'
_symmetry_Int_Tables_number	1
_symmetry_cell_setting	triclinic
loop_
_symmetry_equiv_pos_as_xyz
  x,y,z
_cell_length_a	17.077404
_cell_length_b	16.625545
_cell_length_c	17.077396
_cell_angle_alpha	89.972074
_cell_angle_beta	89.980223
_cell_angle_gamma	90.020944
loop_
_atom_site_label
_atom_site_type_symbol
_atom_site_fract_x
_atom_site_fract_y
_atom_site_fract_z
Zn1	Zn	1.200040	-0.321101	-0.443851
Zn2	Zn	1.199941	-0.455944	-0.312587
Zn3	Zn	1.068772	-0.321118	-0.312599
Zn4	Zn	1.068734	-0.455884	-0.443810
O5	O	1.134372	-0.388512	-0.378212
O6	O	1.309874	-0.339006	-0.426451
O7	O	1.182516	-0.438091	-0.202741
O8	O	1.086242	-0.208283	-0.330032
O9	O	1.309801	-0.438074	-0.330012
O10	O	1.182684	-0.208271	-0.426463
O11	O	1.086146	-0.339035	-0.202750
O12	O	0.958920	-0.338977	-0.329992
O13	O	1.086177	-0.437973	-0.553662
O14	O	0.958892	-0.437990	-0.426392
O15	O	1.182647	-0.338948	-0.553693
O16	O	1.182479	-0.568768	-0.329971
O17	O	1.086081	-0.568725	-0.426380
C18	C	0.930424	-0.388479	-0.378189
C19	C	0.843174	-0.388485	-0.378198
C20	C	0.467366	-0.440183	-0.428351
C21	C	0.549346	-0.440172	-0.428339
C22	C	0.590325	-0.388533	-0.378224
C23	C	0.549319	-0.336907	-0.328113
C24	C	0.467340	-0.336922	-0.328121
C25	C	0.720189	-0.336877	-0.328100
C26	C	0.802174	-0.336861	-0.328092
C27	C	0.802195	-0.440128	-0.428317
C28	C	0.720216	-0.440143	-0.428326
C29	C	0.679216	-0.388515	-0.378215
C30	C	1.134286	-0.598003	-0.378187
C31	C	1.134322	-0.687624	-0.378203
C32	C	1.134352	-0.760406	-0.378218
C33	C	1.134398	-0.851714	-0.378236
C34	C	1.134439	-0.924491	-0.378246
C35	C	1.134483	-1.015805	-0.378262
C36	C	1.339116	-0.388545	-0.378235
C37	C	1.426366	-0.388559	-0.378245
C38	C	1.134419	-0.388452	-0.582956
C39	C	1.134439	-0.388427	-0.670206
C40	C	1.134479	-0.178203	-0.378254
C41	C	1.134524	-0.088582	-0.378272
C42	C	1.184673	-0.336860	-0.711213
C43	C	1.184683	-0.336834	-0.793194
C44	C	1.134462	-0.388378	-0.834165
C45	C	1.084222	-0.439947	-0.793152
C46	C	1.084209	-0.439969	-0.711173
C47	C	1.084254	-0.439898	-0.964022
C48	C	1.084268	-0.439877	-1.046007
C49	C	1.184727	-0.336763	-1.046043
C50	C	1.184714	-0.336785	-0.964064
C51	C	1.134476	-0.388355	-0.923056
C52	C	1.134370	-0.388513	-0.174264
C53	C	1.134501	-0.388311	-0.087014
H54	H	0.686810	-0.294835	-0.287296
O55	O	1.035432	-0.489825	-1.085890
C56	C	0.929420	-0.500594	-1.178380
C57	C	0.984694	-0.443942	-1.133280
H58	H	0.888373	-0.463519	-1.216694
H59	H	0.965386	-0.542747	-1.216815
H60	H	0.893543	-0.537463	-1.134971
H61	H	1.020583	-0.407020	-1.176633
H62	H	0.948683	-0.401842	-1.094834
O63	O	1.035364	-0.490044	-0.832828
C64	C	0.935758	-0.592360	-0.824133
C65	C	0.991035	-0.535649	-0.779106
H66	H	0.899916	-0.629258	-0.780719
H67	H	0.894685	-0.555365	-0.862495
H68	H	0.971796	-0.634482	-0.862531
H69	H	0.955060	-0.493516	-0.740666
H70	H	1.032110	-0.572693	-0.740794
O71	O	0.427441	-0.490270	-0.477008
C72	C	0.301161	-0.536100	-0.521407
C73	C	0.346275	-0.479318	-0.466277
H74	H	0.235531	-0.527277	-0.512738
H75	H	0.317253	-0.522023	-0.584743
H76	H	0.317310	-0.601084	-0.507513
H77	H	0.330150	-0.414314	-0.480100
H78	H	0.330179	-0.493464	-0.402957
O79	O	0.841934	-0.490394	-0.476953
C80	C	0.867045	-0.627595	-0.514790
C81	C	0.821973	-0.570767	-0.459673
H82	H	0.850936	-0.692589	-0.500828
H83	H	0.850945	-0.613586	-0.578125
H84	H	0.932672	-0.618675	-0.506186
H85	H	0.756336	-0.579655	-0.468207
H86	H	0.838138	-0.584790	-0.396358
H87	H	0.582724	-0.482212	-0.469138
H88	H	0.686853	-0.482188	-0.469137
O89	O	0.841861	-0.286688	-0.279324
C90	C	0.833194	-0.184263	-0.179915
C91	C	0.788152	-0.241048	-0.235098
H92	H	0.789790	-0.147336	-0.144156
H93	H	0.871523	-0.221201	-0.138760
H94	H	0.871627	-0.142171	-0.216021
H95	H	0.749677	-0.283152	-0.199055
H96	H	0.749873	-0.204060	-0.276255
H97	H	0.582691	-0.294865	-0.287305
H98	H	0.433959	-0.294882	-0.287322
O99	O	1.233484	-0.286714	-0.671538
C100	C	1.333156	-0.184466	-0.680236
C101	C	1.277906	-0.241207	-0.725262
H102	H	1.369097	-0.147671	-0.723652
H103	H	1.297171	-0.142256	-0.641879
H104	H	1.374144	-0.221514	-0.641834
H105	H	1.236907	-0.204224	-0.763706
H106	H	1.313941	-0.283419	-0.763569
H107	H	1.225590	-0.294845	-0.826578
H108	H	1.043296	-0.481952	-0.677786
O109	O	1.233488	-0.286548	-1.085783
C110	C	1.271640	-0.149389	-1.110920
C111	C	1.216380	-0.206161	-1.065851
H112	H	1.257817	-0.084383	-1.094834
H113	H	1.334938	-0.163500	-1.094794
H114	H	1.263038	-0.158258	-1.176547
H115	H	1.224912	-0.197324	-1.000214
H116	H	1.153103	-0.192036	-1.082042
H117	H	1.225613	-0.294818	-0.930707
H118	H	1.043332	-0.481879	-0.930637
