data_functionalizedCrystal
_audit_creation_method	'MofGen! by Chris Wilmer'
_symmetry_space_group_name_H-M	'P1'
_symmetry_Int_Tables_number	1
_symmetry_cell_setting	triclinic
loop_
_symmetry_equiv_pos_as_xyz
  x,y,z
_cell_length_a	19.805405
_cell_length_b	12.759401
_cell_length_c	12.759393
_cell_angle_alpha	90.019676
_cell_angle_beta	90.036554
_cell_angle_gamma	90.026837
loop_
_atom_site_label
_atom_site_type_symbol
_atom_site_fract_x
_atom_site_fract_y
_atom_site_fract_z
Zn1	Zn	-0.269423	1.606181	0.593940
Zn2	Zn	0.230577	2.106181	1.093940
Zn3	Zn	-0.382625	1.606036	0.418242
Zn4	Zn	0.117375	2.106036	0.918242
Zn5	Zn	-0.269457	1.430480	0.418280
Zn6	Zn	0.230543	1.930480	0.918280
Zn7	Zn	-0.382576	1.430436	0.593883
Zn8	Zn	0.117424	1.930436	1.093883
O9	O	-0.326020	1.518283	0.506086
O10	O	0.173980	2.018283	1.006086
O11	O	-0.284446	1.753183	0.570642
O12	O	0.215554	2.253183	1.070642
O13	O	-0.367648	1.582706	0.271226
O14	O	0.132352	2.082706	0.771226
O15	O	-0.174736	1.453866	0.441621
O16	O	0.325264	1.953866	0.941621
O17	O	-0.367615	1.753076	0.441557
O18	O	0.132385	2.253076	0.941557
O19	O	-0.174711	1.582953	0.570678
O20	O	0.325289	2.082953	1.070678
O21	O	-0.284504	1.453725	0.271253
O22	O	0.215496	1.953725	0.771253
O23	O	-0.284456	1.283453	0.441565
O24	O	0.215544	1.783453	0.941565
O25	O	-0.367531	1.453791	0.740912
O26	O	0.132469	1.953791	1.240912
O27	O	-0.367564	1.283420	0.570581
O28	O	0.132436	1.783420	1.070581
O29	O	-0.284398	1.582910	0.740954
O30	O	0.215602	2.082910	1.240954
O31	O	-0.477335	1.582663	0.441501
O32	O	0.022665	2.082663	0.941501
O33	O	-0.477299	1.453650	0.570544
O34	O	0.022701	1.953650	1.070544
C35	C	-0.326009	1.245316	0.506071
C36	C	0.173991	1.745316	1.006071
C37	C	-0.326020	1.128539	0.506090
C38	C	0.173980	1.628539	1.006090
C39	C	-0.282792	1.073733	0.573408
C40	C	0.217208	1.573733	1.073408
C41	C	-0.282799	0.964009	0.573415
C42	C	0.217201	1.464009	1.073415
C43	C	-0.369268	0.963907	0.438783
C44	C	0.130732	1.463907	0.938783
C45	C	-0.369257	1.073629	0.438771
C46	C	0.130743	1.573629	0.938771
C47	C	-0.501876	1.518165	0.506035
C48	C	-0.001876	2.018165	1.006035
C49	C	-0.577108	1.518210	0.506049
C50	C	-0.077108	2.018210	1.006049
C51	C	-0.612449	1.585453	0.438927
C52	C	-0.112449	2.085453	0.938927
C53	C	-0.683137	1.585497	0.438950
C54	C	-0.183137	2.085497	0.938950
C55	C	-0.718484	1.518293	0.506091
C56	C	-0.218484	2.018293	1.006091
C57	C	-0.683138	1.451048	0.573220
C58	C	-0.183138	1.951048	1.073220
C59	C	-0.612451	1.451010	0.573202
C60	C	-0.112451	1.951010	1.073202
C61	C	-0.968211	1.451203	0.573298
C62	C	-0.468211	1.951203	1.073298
C63	C	-1.038904	1.451245	0.573310
C64	C	-0.538904	1.951245	1.073310
C65	C	-1.038898	1.585691	0.439046
C66	C	-0.538898	2.085691	0.939046
C67	C	-0.968210	1.585652	0.439028
C68	C	-0.468210	2.085652	0.939028
C69	C	-0.932871	1.518411	0.506161
C70	C	-0.432871	2.018411	1.006161
C71	C	-0.856223	1.518365	0.506136
C72	C	-0.356223	2.018365	1.006136
C73	C	-0.795131	1.518334	0.506111
C74	C	-0.295131	2.018334	1.006111
C75	C	-0.149477	1.518430	0.506160
C76	C	0.350523	2.018430	1.006160
C77	C	-0.074245	1.518493	0.506192
C78	C	0.425755	2.018493	1.006192
C79	C	-0.325955	1.518362	0.780120
C80	C	0.174045	2.018362	1.280120
C81	C	-0.325928	1.518395	0.896896
C82	C	0.174072	2.018395	1.396896
C83	C	-0.326032	1.792316	0.506102
C84	C	0.173968	2.292316	1.006102
C85	C	-0.326038	1.909093	0.506108
C86	C	0.173962	2.409093	1.006108
C87	C	-0.326036	1.518265	0.233119
C88	C	0.173964	2.018265	0.733119
C89	C	-0.325873	1.518435	0.116343
C90	C	0.174127	2.018435	0.616343
C91	C	-0.282633	1.585633	0.951782
C92	C	0.217367	2.085633	1.451782
C93	C	-0.282604	1.585650	1.061506
C94	C	0.217396	2.085650	1.561506
C95	C	-0.369169	1.451190	1.061450
C96	C	0.130831	1.951190	1.561450
C97	C	-0.369195	1.451168	0.951727
C98	C	0.130805	1.951168	1.451727
H99	H	-0.247597	0.919391	0.628231
H100	H	0.252403	1.419391	1.128231
H101	H	-0.939433	1.640372	0.384352
H102	H	-0.439433	2.140372	0.884352
Cl103	Cl	-0.228180	1.670191	1.130501
Cl104	Cl	0.271820	2.170191	1.630501
H105	H	-0.404397	1.396459	1.106106
H106	H	0.095603	1.896459	1.606106
Cl107	Cl	-0.423622	0.894869	0.354162
Cl108	Cl	0.076378	1.394869	0.854162
H109	H	-0.404450	1.396408	0.907038
H110	H	0.095550	1.896408	1.407038
Cl111	Cl	-0.423598	1.142533	0.354125
Cl112	Cl	0.076402	1.642533	0.854125
Cl113	Cl	-0.568020	1.669936	0.354509
Cl114	Cl	-0.068020	2.169936	0.854509
H115	H	-0.711923	1.396334	0.627892
H116	H	-0.211923	1.896334	1.127892
H117	H	-0.247583	1.118438	0.628220
H118	H	0.252417	1.618438	1.128220
H119	H	-0.711908	1.640252	0.384291
H120	H	-0.211908	2.140252	0.884291
H121	H	-1.067679	1.640446	0.384387
H122	H	-0.567679	2.140446	0.884387
H123	H	-0.939444	1.396451	0.627958
H124	H	-0.439444	1.896451	1.127958
H125	H	-1.067681	1.396521	0.627992
H126	H	-0.567681	1.896521	1.127992
Cl127	Cl	-0.568023	1.366476	0.657591
Cl128	Cl	-0.068023	1.866476	1.157591
Cl129	Cl	-0.228238	1.670142	0.882856
Cl130	Cl	0.271762	2.170142	1.382856
