data_functionalizedCrystal
_audit_creation_method	'MofGen! by Chris Wilmer'
_symmetry_space_group_name_H-M	'P1'
_symmetry_Int_Tables_number	1
_symmetry_cell_setting	triclinic
loop_
_symmetry_equiv_pos_as_xyz
  x,y,z
_cell_length_a	17.639617
_cell_length_b	18.050590
_cell_length_c	17.639306
_cell_angle_alpha	101.183132
_cell_angle_beta	65.670249
_cell_angle_gamma	101.203438
loop_
_atom_site_label
_atom_site_type_symbol
_atom_site_fract_x
_atom_site_fract_y
_atom_site_fract_z
Zn1	Zn	1.354249	-0.175790	-0.721140
Zn2	Zn	1.326314	-0.279104	-0.583309
Zn3	Zn	1.188572	-0.175762	-0.555433
Zn4	Zn	1.216384	-0.320779	-0.693175
O5	O	1.271380	-0.237858	-0.638264
O6	O	1.465886	-0.172065	-0.726226
O7	O	1.284713	-0.247942	-0.464283
O8	O	1.210602	-0.071838	-0.577451
O9	O	1.445363	-0.247970	-0.624963
O10	O	1.332324	-0.071858	-0.699195
O11	O	1.183514	-0.172017	-0.443802
O12	O	1.076919	-0.212428	-0.550335
O13	O	1.258002	-0.318998	-0.812213
O14	O	1.097352	-0.318971	-0.651534
O15	O	1.359291	-0.212475	-0.832759
O16	O	1.311680	-0.388559	-0.597847
O17	O	1.230915	-0.419178	-0.678565
C18	C	1.057228	-0.270219	-0.594875
C19	C	0.965617	-0.284084	-0.576333
C20	C	0.717795	-0.132543	-0.779334
C21	C	0.631709	-0.145587	-0.761894
C22	C	0.610329	-0.224446	-0.656296
C23	C	0.696415	-0.211411	-0.673730
C24	C	0.750142	-0.165459	-0.735250
C25	C	0.728762	-0.244327	-0.629646
C26	C	0.814840	-0.231290	-0.647076
C27	C	0.868572	-0.185337	-0.708591
C28	C	0.836220	-0.152421	-0.752680
C29	C	0.675033	-0.290275	-0.568123
C30	C	0.707380	-0.323191	-0.524039
C31	C	0.793461	-0.310158	-0.541473
C32	C	0.847192	-0.264206	-0.602987
C33	C	0.825812	-0.343074	-0.497383
C34	C	0.911891	-0.330037	-0.514813
C35	C	0.933270	-0.251169	-0.620417
C36	C	1.271310	-0.430815	-0.638219
C37	C	1.271361	-0.513356	-0.638242
C38	C	1.315411	-0.696123	-0.594447
C39	C	1.350744	-0.753815	-0.673739
C40	C	1.271414	-0.664484	-0.638284
C41	C	1.236173	-0.753867	-0.559044
C42	C	1.271466	-0.810466	-0.638319
C43	C	1.306793	-0.721088	-0.717623
C44	C	1.192177	-0.721133	-0.602870
C45	C	1.227492	-0.778814	-0.682207
C46	C	1.271386	-0.580387	-0.638264
C47	C	1.271496	-0.894562	-0.638348
C48	C	1.486368	-0.205372	-0.681823
C49	C	1.577983	-0.191528	-0.700386
C50	C	1.314865	-0.270389	-0.853225
C51	C	1.333396	-0.284251	-0.944829
C52	C	1.271476	-0.044147	-0.638333
C53	C	1.271517	0.038401	-0.638362
C54	C	1.130924	-0.132221	-1.192814
C55	C	1.148355	-0.145260	-1.278894
C56	C	1.253722	-0.224313	-1.300198
C57	C	1.236303	-0.211277	-1.214120
C58	C	1.174902	-0.165232	-1.160434
C59	C	1.280281	-0.244288	-1.181739
C60	C	1.262860	-0.231257	-1.095667
C61	C	1.201460	-0.185215	-1.041976
C62	C	1.157481	-0.152201	-1.074362
C63	C	1.341677	-0.290338	-1.235426
C64	C	1.385655	-0.323348	-1.203045
C65	C	1.368238	-0.310313	-1.116973
C66	C	1.306839	-0.264272	-1.063281
C67	C	1.412218	-0.343328	-1.084587
C68	C	1.394796	-0.330297	-0.998515
C69	C	1.289418	-0.251241	-0.977210
C70	C	1.228112	-0.205394	-0.424149
C71	C	1.209741	-0.191298	-0.332578
H72	H	0.761543	-0.095127	-0.829432
H73	H	1.336568	-0.706528	-0.784692
C74	C	1.360843	-0.304667	-1.330108
N75	N	1.375280	-0.315458	-1.401424
H76	H	1.206346	-0.768537	-0.492016
C77	C	1.089940	-0.101545	-1.015303
N78	N	1.039069	-0.063394	-0.970820
H79	H	0.879969	-0.115005	-0.802778
C80	C	1.063383	-0.081565	-1.133755
N81	N	1.012513	-0.043414	-1.089272
H82	H	0.605376	-0.118776	-0.797793
C83	C	1.365711	-0.647803	-0.544440
N84	N	1.403599	-0.611404	-0.506781
H85	H	0.663624	-0.360603	-0.473947
H86	H	0.782055	-0.380482	-0.447289
C87	C	0.551221	-0.274994	-0.588628
N88	N	0.506702	-0.313069	-0.537661
H89	H	1.125158	-0.706477	-0.572879
C90	C	1.441300	-0.773590	-0.714227
N91	N	1.509507	-0.788483	-0.744716
H92	H	1.303712	-0.261806	-1.343920
H93	H	1.190318	-0.814450	-0.719347
H94	H	1.239428	-0.213737	-0.933497
H95	H	0.604940	-0.300869	-0.553916
H96	H	1.112541	-0.118372	-1.305253
H97	H	0.938228	-0.356840	-0.478916
H98	H	1.187271	-0.174613	-0.971890
H99	H	1.435645	-0.360842	-1.246767
C100	C	1.479581	-0.394160	-1.143616
N101	N	1.530259	-0.432511	-1.188065
H102	H	1.430619	-0.357166	-0.972153
H103	H	0.977019	-0.213752	-0.670515
H104	H	0.938661	-0.174720	-0.722778
