data_functionalizedCrystal
_audit_creation_method	'MofGen! by Chris Wilmer'
_symmetry_space_group_name_H-M	'P1'
_symmetry_Int_Tables_number	1
_symmetry_cell_setting	triclinic
loop_
_symmetry_equiv_pos_as_xyz
  x,y,z
_cell_length_a	10.723024
_cell_length_b	10.654550
_cell_length_c	9.130313
_cell_angle_alpha	90.000110
_cell_angle_beta	89.999953
_cell_angle_gamma	84.476386
loop_
_atom_site_label
_atom_site_type_symbol
_atom_site_fract_x
_atom_site_fract_y
_atom_site_fract_z
O1	O	-1.657208	-0.176144	-0.121786
O2	O	-1.294058	-0.193005	-0.121790
O3	O	-1.483982	-0.001834	-0.121783
O4	O	-1.467283	-0.367315	-0.121794
O5	O	-1.483980	-0.001839	0.121816
O6	O	-1.294055	-0.193010	0.121808
O7	O	-1.657205	-0.176149	0.121813
Cu8	Cu	-1.475630	-0.184580	0.144053
Cu9	Cu	-1.475633	-0.184574	-0.144031
O10	O	-1.467281	-0.367320	0.121805
C11	C	-1.482755	0.044961	0.000015
C12	C	-1.479086	0.184404	0.000010
C13	C	-1.247557	-0.191780	0.000008
C14	C	-1.109002	-0.188109	0.000007
C15	C	-1.703706	-0.177373	0.000011
C16	C	-1.842261	-0.181045	0.000003
C17	C	-1.034035	-0.295078	0.000002
C18	C	-0.890831	-0.291287	0.000001
C19	C	-1.468508	-0.414115	0.000004
C20	C	-1.472176	-0.553558	-0.000000
N21	N	-1.475637	-0.184583	0.346676
C22	C	-1.590911	0.263907	0.000016
C23	C	-1.587456	0.394927	0.000005
C24	C	-1.360343	0.366929	-0.000010
C25	C	-1.363799	0.235912	-0.000011
C26	C	-1.722033	0.280072	0.000031
C27	C	-1.718579	0.411092	0.000021
N28	N	-1.475635	-0.184560	-0.346653
C29	C	-1.559758	-0.099962	0.423331
C30	C	-1.559754	-0.099947	0.576668
C31	C	-1.391506	-0.269186	0.576681
C32	C	-1.391504	-0.269194	0.423347
C33	C	-1.656898	-0.002257	0.423325
C34	C	-1.656895	-0.002242	0.576662
H35	H	-0.826412	-0.382860	-0.000009
O36	O	-1.236007	0.422495	-0.000015
H37	H	-1.182223	0.390645	-0.099308
O38	O	-1.628726	0.125606	0.368149
H39	H	-1.542294	0.115167	0.300591
O40	O	-0.927578	-0.059734	0.000019
H41	H	-0.909334	-0.004237	-0.099270
O42	O	-1.053606	-0.063071	0.000019
H43	H	-0.994949	-0.056098	-0.099271
H44	H	-1.272741	0.171184	-0.000036
O45	O	-1.789947	0.241180	-0.135004
H46	H	-1.887028	0.287931	-0.134925
H47	H	-1.763786	0.244449	0.105213
H48	H	-1.758206	0.456743	-0.105158
H49	H	-1.752791	-0.023746	0.618279
O50	O	-1.783998	0.466432	0.135060
H51	H	-1.818753	0.389617	0.201188
O52	O	-1.300770	-0.360456	0.340661
H53	H	-1.242279	-0.419295	0.419739
H54	H	-1.626576	0.088976	0.624211
O55	O	-1.300775	-0.360453	0.659373
H56	H	-1.314911	-0.346238	0.778875
H57	H	-1.075871	-0.389466	0.000008
H58	H	-1.747501	-0.032832	0.375767
