data_functionalizedCrystal
_audit_creation_method	'MofGen! by Chris Wilmer'
_symmetry_space_group_name_H-M	'P1'
_symmetry_Int_Tables_number	1
_symmetry_cell_setting	triclinic
loop_
_symmetry_equiv_pos_as_xyz
  x,y,z
_cell_length_a	19.805407
_cell_length_b	13.897448
_cell_length_c	13.897441
_cell_angle_alpha	90.029627
_cell_angle_beta	90.020698
_cell_angle_gamma	90.017692
loop_
_atom_site_label
_atom_site_type_symbol
_atom_site_fract_x
_atom_site_fract_y
_atom_site_fract_z
Zn1	Zn	1.034784	-0.383993	0.545435
Zn2	Zn	1.534784	0.116007	1.045435
Zn3	Zn	1.034714	-0.545312	0.384137
Zn4	Zn	1.534714	-0.045312	0.884137
Zn5	Zn	0.921597	-0.384033	0.384148
Zn6	Zn	1.421597	0.115967	0.884148
Zn7	Zn	0.921580	-0.545248	0.545383
Zn8	Zn	1.421580	-0.045248	1.045383
O9	O	0.978169	-0.464647	0.464776
O10	O	1.478169	0.035353	0.964776
O11	O	1.129491	-0.405403	0.524056
O12	O	1.629491	0.094597	1.024056
O13	O	1.019687	-0.523962	0.249156
O14	O	1.519687	-0.023962	0.749156
O15	O	0.936648	-0.249046	0.405569
O16	O	1.436648	0.250954	0.905569
O17	O	1.129440	-0.523923	0.405550
O18	O	1.629440	-0.023923	0.905550
O19	O	1.019806	-0.249017	0.524066
O20	O	1.519806	0.250983	1.024066
O21	O	0.936580	-0.405470	0.249165
O22	O	1.436580	0.094530	0.749165
O23	O	0.826878	-0.405408	0.405519
O24	O	1.326878	0.094592	0.905519
O25	O	0.936619	-0.523814	0.680372
O26	O	1.436619	-0.023814	1.180372
O27	O	0.826865	-0.523852	0.523978
O28	O	1.326865	-0.023852	1.023978
O29	O	1.019790	-0.405341	0.680410
O30	O	1.519790	0.094659	1.180410
O31	O	1.019670	-0.680285	0.405500
O32	O	1.519670	-0.180285	0.905500
O33	O	0.936551	-0.680238	0.523967
O34	O	1.436551	-0.180238	1.023967
C35	C	0.802313	-0.464628	0.464745
C36	C	1.302313	0.035372	0.964745
C37	C	0.727081	-0.464644	0.464754
C38	C	1.227081	0.035356	0.964754
C39	C	0.691748	-0.526410	0.526336
C40	C	1.191748	-0.026410	1.026336
C41	C	0.621059	-0.526412	0.526350
C42	C	1.121059	-0.026412	1.026350
C43	C	0.585705	-0.464651	0.464776
C44	C	1.085705	0.035349	0.964776
C45	C	0.621043	-0.402878	0.403191
C46	C	1.121043	0.097122	0.903191
C47	C	0.691730	-0.402872	0.403183
C48	C	1.191730	0.097128	0.903183
C49	C	0.335970	-0.402899	0.403223
C50	C	0.835970	0.097101	0.903223
C51	C	0.265278	-0.402912	0.403234
C52	C	0.765278	0.097088	0.903234
C53	C	0.265299	-0.526439	0.526389
C54	C	0.765299	-0.026439	1.026389
C55	C	0.335986	-0.526433	0.526381
C56	C	0.835986	-0.026433	1.026381
C57	C	0.371318	-0.464657	0.464801
C58	C	0.871318	0.035343	0.964801
C59	C	0.447966	-0.464654	0.464788
C60	C	0.947966	0.035346	0.964788
C61	C	0.509058	-0.464658	0.464783
C62	C	1.009058	0.035342	0.964783
C63	C	0.978119	-0.715261	0.464748
C64	C	1.478119	-0.215261	0.964748
C65	C	0.978160	-0.822475	0.464768
C66	C	1.478160	-0.322475	0.964768
C67	C	0.978231	-1.018770	0.464829
C68	C	1.478231	-0.518770	0.964829
C69	C	0.978190	-0.909538	0.464798
C70	C	1.478190	-0.409538	0.964798
C71	C	1.154711	-0.464666	0.464808
C72	C	1.654711	0.035334	0.964808
C73	C	1.229943	-0.464674	0.464821
C74	C	1.729943	0.035326	0.964821
C75	C	0.978210	-0.464566	0.716369
C76	C	1.478210	0.035434	1.216369
C77	C	0.978228	-0.464531	0.823583
C78	C	1.478228	0.035469	1.323583
C79	C	0.978237	-0.213054	0.464825
C80	C	1.478237	0.286946	0.964825
C81	C	0.978266	-0.105840	0.464846
C82	C	1.478266	0.394160	0.964846
C83	C	0.978166	-0.464658	0.214161
C84	C	1.478166	0.035342	0.714161
C85	C	0.978280	-0.464421	0.106948
C86	C	1.478280	0.035579	0.606948
C87	C	0.978242	-0.464504	0.910653
C88	C	1.478242	0.035496	1.410653
C89	C	0.978261	-0.464460	1.019885
C90	C	1.478261	0.035540	1.519885
H91	H	0.592294	-0.576709	0.576495
H92	H	1.092294	-0.076709	1.076495
N93	N	0.227191	-0.593071	0.592812
N94	N	0.727191	-0.093071	1.092812
H95	H	0.177046	-0.583705	0.583480
H96	H	0.677046	-0.083705	1.083480
H97	H	0.239573	-0.578148	0.661727
H98	H	0.739573	-0.078148	1.161727
H99	H	0.364728	-0.352604	0.353073
H100	H	0.864728	0.147396	0.853073
N101	N	0.582915	-0.336280	0.336760
N102	N	1.082915	0.163720	0.836760
H103	H	0.532773	-0.345665	0.346098
H104	H	1.032773	0.154335	0.846098
H105	H	0.595258	-0.351231	0.267851
H106	H	1.095258	0.148769	0.767851
N107	N	0.729843	-0.336246	0.336770
N108	N	1.229843	0.163754	0.836770
H109	H	0.696721	-0.297121	0.297764
H110	H	1.196721	0.202879	0.797764
H111	H	0.759154	-0.375446	0.292058
H112	H	1.259154	0.124554	0.792058
H113	H	0.364768	-0.576729	0.576518
H114	H	0.864768	-0.076729	1.076518
N115	N	0.227144	-0.336292	0.336821
N116	N	0.727144	0.163708	0.836821
H117	H	0.197800	-0.375444	0.292052
H118	H	0.697800	0.124556	0.792052
H119	H	0.260296	-0.297170	0.297874
H120	H	0.760296	0.202830	0.797874
H121	H	0.720528	-0.576706	0.576473
H122	H	1.220528	-0.076706	1.076473
