data_functionalizedCrystal
_audit_creation_method	'MofGen! by Chris Wilmer'
_symmetry_space_group_name_H-M	'P1'
_symmetry_Int_Tables_number	1
_symmetry_cell_setting	triclinic
loop_
_symmetry_equiv_pos_as_xyz
  x,y,z
_cell_length_a	14.971506
_cell_length_b	16.992695
_cell_length_c	13.448316
_cell_angle_alpha	89.993283
_cell_angle_beta	89.992937
_cell_angle_gamma	87.145305
loop_
_atom_site_label
_atom_site_type_symbol
_atom_site_fract_x
_atom_site_fract_y
_atom_site_fract_z
O1	O	1.194121	0.102266	-0.082700
O2	O	0.934582	0.114487	-0.082701
O3	O	1.063311	-0.005767	-0.082692
O4	O	1.065392	0.222520	-0.082708
O5	O	1.063294	-0.005775	0.082691
O6	O	0.934565	0.114479	0.082683
O7	O	1.194104	0.102258	0.082684
Cu8	Cu	1.064333	0.108368	0.097784
Cu9	Cu	1.064354	0.108377	-0.097801
O10	O	1.065375	0.222513	0.082676
C11	C	0.901211	0.113934	-0.000009
C12	C	0.801799	0.112287	-0.000009
C13	C	1.060626	-0.034986	-0.000001
C14	C	1.052639	-0.122039	-0.000001
C15	C	0.368038	0.176652	-0.000023
C16	C	0.461447	0.178192	-0.000028
C17	C	0.513703	0.107538	-0.000018
C18	C	0.472545	0.035339	-0.000015
C19	C	0.379139	0.033799	-0.000018
C20	C	0.667234	0.038554	-0.000007
C21	C	0.760648	0.040093	-0.000002
C22	C	0.749543	0.182947	-0.000017
C23	C	0.656136	0.181407	-0.000020
C24	C	0.614985	0.109207	-0.000014
C25	C	1.129703	-0.172202	0.000000
C26	C	1.122193	-0.253996	-0.000009
C27	C	1.037618	-0.285625	-0.000013
C28	C	0.960548	-0.235455	-0.000017
C29	C	0.968059	-0.153663	-0.000015
C30	C	1.006489	-0.529254	-0.000027
C31	C	0.998983	-0.611053	-0.000026
C32	C	1.160629	-0.629588	-0.000020
C33	C	1.168132	-0.547793	-0.000012
C34	C	1.091062	-0.497631	-0.000021
N35	N	1.029939	-0.369232	-0.000019
N36	N	1.098742	-0.414026	-0.000022
C37	C	1.227476	0.102811	-0.000010
C38	C	1.326887	0.104458	-0.000017
C39	C	1.068060	0.251731	-0.000018
C40	C	1.076047	0.338784	-0.000025
N41	N	1.064324	0.108361	0.235349
N42	N	1.064368	0.108377	-0.235365
C43	C	1.121346	0.055135	0.287393
C44	C	1.121351	0.055134	0.391496
C45	C	1.064339	0.108365	0.443553
C46	C	1.007311	0.161594	0.391502
C47	C	1.007302	0.161590	0.287401
C48	C	1.007336	0.161599	0.608482
C49	C	1.007347	0.161604	0.712591
C50	C	1.121386	0.055143	0.712577
C51	C	1.121377	0.055140	0.608476
C52	C	1.064350	0.108370	0.556432
H53	H	0.494947	0.236980	-0.000042
H54	H	0.613591	0.238940	-0.000021
H55	H	0.960921	0.204949	0.754970
H56	H	1.167782	0.011793	0.433870
O57	O	1.176787	0.003358	0.558060
C58	C	1.227137	-0.043611	0.626315
H59	H	1.190412	-0.044555	0.700534
H60	H	1.236308	-0.106215	0.596242
H61	H	1.295406	-0.018048	0.637361
O62	O	0.951915	0.213384	0.558079
C63	C	0.901583	0.260357	0.626346
H64	H	0.938325	0.261299	0.700545
H65	H	0.892411	0.322961	0.596258
H66	H	0.833314	0.234798	0.637438
H67	H	0.905305	-0.112820	-0.000016
O68	O	0.952038	0.213329	0.236732
C69	C	1.003391	0.261791	0.176509
H70	H	1.071154	0.230666	0.160903
H71	H	0.966933	0.274135	0.103311
H72	H	1.013609	0.319758	0.216613
H73	H	1.167776	0.011792	0.245014
O74	O	0.339060	-0.036282	0.000123
C75	C	0.285365	-0.041459	0.085786
H76	H	0.266549	0.020323	0.114337
H77	H	0.222033	-0.072771	0.066520
H78	H	0.324092	-0.076115	0.145769
O79	O	0.951841	0.213328	0.441913
C80	C	0.901523	0.260318	0.373651
H81	H	0.898213	0.228163	0.299451
H82	H	0.830944	0.272169	0.403743
H83	H	0.934721	0.318618	0.362559
H84	H	1.167819	0.011801	0.754958
O85	O	0.931559	-0.480616	-0.000157
C86	C	0.880575	-0.494947	-0.085820
H87	H	0.898114	-0.556965	-0.114379
H88	H	0.806379	-0.489277	-0.066552
H89	H	0.896001	-0.450189	-0.145798
O90	O	0.317414	0.245359	-0.000077
C91	C	0.373770	0.309409	-0.000062
H92	H	0.441985	0.289565	-0.031366
H93	H	0.342909	0.358918	-0.048087
H94	H	0.381987	0.331536	0.079278
O95	O	0.523400	-0.033242	-0.000139
C96	C	0.577760	-0.036633	-0.085801
H97	H	0.586938	0.025612	-0.114365
H98	H	0.645790	-0.065778	-0.066529
H99	H	0.544511	-0.072474	-0.145777
O100	O	0.789544	0.253067	-0.000221
C101	C	0.843257	0.258222	-0.085873
H102	H	0.818265	0.217213	-0.145722
H103	H	0.839395	0.321407	-0.114647
H104	H	0.915543	0.240214	-0.066514
O105	O	0.811376	-0.028557	-0.000183
C106	C	0.791928	-0.072383	-0.085830
H107	H	0.763002	-0.031008	-0.145692
H108	H	0.855882	-0.103755	-0.114585
H109	H	0.741177	-0.117824	-0.066471
H110	H	0.633733	-0.020239	-0.000007
O111	O	1.211928	-0.141611	-0.000043
C112	C	1.278335	-0.203430	-0.000022
H113	H	1.249288	-0.259014	-0.031332
H114	H	1.337034	-0.186278	-0.048041
H115	H	1.302382	-0.214987	0.079319
H116	H	1.184947	-0.294836	-0.000006
H117	H	1.237002	-0.522047	-0.000009
O118	O	0.878460	-0.266308	0.000023
C119	C	0.888354	-0.349257	0.000000
H120	H	0.956783	-0.368398	0.031311
H121	H	0.833877	-0.374426	0.048015
H122	H	0.882400	-0.372022	-0.079343
H123	H	1.223374	-0.670439	-0.000014
H124	H	0.930109	-0.636802	-0.000013
