data_functionalizedCrystal
_audit_creation_method	'MofGen! by Chris Wilmer'
_symmetry_space_group_name_H-M	'P1'
_symmetry_Int_Tables_number	1
_symmetry_cell_setting	triclinic
loop_
_symmetry_equiv_pos_as_xyz
  x,y,z
_cell_length_a	13.185408
_cell_length_b	13.339071
_cell_length_c	11.892113
_cell_angle_alpha	93.122584
_cell_angle_beta	95.261173
_cell_angle_gamma	83.801390
loop_
_atom_site_label
_atom_site_type_symbol
_atom_site_fract_x
_atom_site_fract_y
_atom_site_fract_z
O1	O	1.380645	-0.239725	0.093890
O2	O	1.091816	-0.144986	0.093921
O3	O	1.203080	-0.330595	0.093884
O4	O	1.269381	-0.054116	0.093927
O5	O	1.188346	-0.338128	-0.094124
O6	O	1.077082	-0.152519	-0.094086
O7	O	1.365912	-0.247257	-0.094118
Zn8	Zn	1.219157	-0.201084	-0.123952
Zn9	Zn	1.238570	-0.191159	0.123756
O10	O	1.254647	-0.061649	-0.094080
C11	C	1.046727	-0.139148	-0.000079
C12	C	0.934323	-0.110541	-0.000068
C13	C	0.895273	-0.008686	-0.000049
C14	C	0.789663	0.018194	-0.000056
C15	C	0.723094	-0.056777	-0.000071
C16	C	0.762144	-0.158634	-0.000081
C17	C	0.867763	-0.185518	-0.000084
C18	C	0.695584	-0.233609	-0.000105
C19	C	0.734634	-0.335466	-0.000116
C20	C	0.840244	-0.362344	-0.000118
C21	C	0.906813	-0.287373	-0.000102
C22	C	0.589965	-0.206726	-0.000102
C23	C	0.562455	-0.383557	-0.000137
C24	C	0.668065	-0.410438	-0.000131
C25	C	1.184514	-0.369002	-0.000123
C26	C	1.151132	-0.472216	-0.000131
C27	C	1.047037	-0.484572	-0.000100
C28	C	1.015673	-0.581544	-0.000072
C29	C	1.088401	-0.666169	-0.000068
C30	C	1.192499	-0.653814	-0.000091
C31	C	1.223866	-0.556832	-0.000127
C32	C	1.265229	-0.738430	-0.000095
C33	C	1.369327	-0.726074	-0.000119
C34	C	1.400689	-0.629102	-0.000154
C35	C	1.327960	-0.544476	-0.000159
C36	C	1.233862	-0.835411	-0.000059
C37	C	1.410691	-0.907671	-0.000087
C38	C	1.442055	-0.810699	-0.000114
C39	C	1.411001	-0.253095	-0.000115
C40	C	1.523405	-0.281702	-0.000119
C41	C	1.273213	-0.023242	-0.000071
C42	C	1.306596	0.079973	-0.000055
N43	N	1.205916	-0.207860	-0.293007
C44	C	1.343959	-0.137193	-0.529651
C45	C	1.334709	-0.141940	-0.647993
C46	C	1.178171	-0.222105	-0.648035
C47	C	1.187421	-0.217359	-0.529693
C48	C	1.270317	-0.174900	-0.470505
C49	C	1.279562	-0.170148	-0.352161
C50	C	1.123029	-0.250319	-0.352205
C51	C	1.113779	-0.255066	-0.470547
N52	N	1.251817	-0.184393	0.292810
H53	H	0.949481	0.052345	-0.000045
N54	N	0.882353	-0.472205	-0.000150
H55	H	0.863417	-0.503392	0.069537
H56	H	0.959349	-0.477782	-0.000196
N57	N	0.547857	-0.096872	-0.000073
H58	H	0.470851	-0.091213	-0.000073
H59	H	0.566869	-0.065752	-0.069761
N60	N	1.361793	-0.439882	-0.000176
H61	H	1.299924	-0.388152	-0.000166
H62	H	1.398610	-0.433607	-0.069884
H63	H	1.062858	-0.745126	-0.000043
N64	N	0.710187	-0.520295	-0.000145
H65	H	0.787193	-0.525943	-0.000144
H66	H	0.680265	-0.556998	-0.069849
H67	H	0.992810	-0.309254	-0.000101
N68	N	1.043587	-0.290981	-0.288414
H69	H	1.062019	-0.281529	-0.204462
H70	H	1.041304	-0.365197	-0.309104
N71	N	0.490661	-0.464423	-0.000161
H72	H	0.451686	-0.454422	0.069534
H73	H	0.531488	-0.532991	-0.000221
N74	N	1.121592	-0.848724	-0.000037
H75	H	1.093870	-0.813233	0.069657
H76	H	1.112830	-0.923013	-0.000059
H77	H	0.757876	0.101126	-0.000047
N78	N	1.088780	-0.267902	-0.711901
H79	H	1.047945	-0.215776	-0.761006
H80	H	1.043595	-0.291081	-0.656417
H81	H	0.930918	-0.591596	-0.000048
H82	H	1.485450	-0.619048	-0.000186
N83	N	1.554328	-0.797369	-0.000154
H84	H	1.563156	-0.723094	-0.000182
H85	H	1.581974	-0.832912	-0.069856
N86	N	1.489137	-0.998940	-0.000088
H87	H	1.485539	-1.037970	0.069621
H88	H	1.559800	-0.976322	-0.000162
H89	H	1.046290	-0.289638	-0.518754
H90	H	1.347057	-0.135571	-0.303972
H91	H	1.394677	-0.111236	-0.696145
N92	N	0.968619	-0.393292	-0.000112
H93	H	0.929973	-0.391539	0.069591
H94	H	0.919107	-0.397237	-0.069844
N95	N	1.433354	-0.091396	-0.465796
H96	H	1.432440	-0.018818	-0.486378
H97	H	1.499435	-0.130647	-0.486403
H98	H	0.637102	-0.034885	-0.000077
