data_functionalizedCrystal
_audit_creation_method	'MofGen! by Chris Wilmer'
_symmetry_space_group_name_H-M	'P1'
_symmetry_Int_Tables_number	1
_symmetry_cell_setting	triclinic
loop_
_symmetry_equiv_pos_as_xyz
  x,y,z
_cell_length_a	12.837943
_cell_length_b	17.699083
_cell_length_c	16.176319
_cell_angle_alpha	90.007696
_cell_angle_beta	89.993965
_cell_angle_gamma	90.944023
loop_
_atom_site_label
_atom_site_type_symbol
_atom_site_fract_x
_atom_site_fract_y
_atom_site_fract_z
O1	O	1.374962	-0.196724	-0.068735
O2	O	1.073181	-0.187006	-0.068740
O3	O	1.232598	-0.082302	-0.068730
O4	O	1.215546	-0.301428	-0.068745
O5	O	1.232576	-0.082293	0.068763
O6	O	1.073159	-0.186997	0.068753
O7	O	1.374941	-0.196715	0.068758
Cu8	Cu	1.224048	-0.191855	0.081310
Cu9	Cu	1.224074	-0.191866	-0.081292
O10	O	1.215524	-0.301419	0.068748
C11	C	1.034558	-0.183719	0.000006
C12	C	0.919506	-0.173928	0.000004
N13	N	1.224037	-0.191848	0.195675
C14	C	1.231976	-0.054056	0.000016
C15	C	1.230143	0.030097	0.000017
C16	C	0.678251	-0.291632	0.000008
C17	C	0.570148	-0.282436	0.000007
C18	C	0.595196	-0.146341	0.000008
C19	C	0.703298	-0.155537	0.000009
C20	C	0.744822	-0.228185	0.000008
C21	C	0.852926	-0.237380	0.000003
C22	C	0.877972	-0.101285	0.000009
C23	C	0.769869	-0.092090	0.000008
C24	C	1.413564	-0.200002	0.000010
C25	C	1.528616	-0.209793	0.000006
C26	C	1.216146	-0.329665	-0.000001
C27	C	1.217979	-0.413818	-0.000006
C28	C	1.323717	0.071843	0.000019
C29	C	1.321989	0.150914	0.000012
C30	C	1.226685	0.188236	0.000008
C31	C	1.133103	0.146484	0.000003
C32	C	1.134833	0.067415	0.000004
C33	C	1.126126	0.465359	-0.000004
C34	C	1.124404	0.544434	-0.000003
C35	C	1.313282	0.548858	0.000004
C36	C	1.315011	0.469789	0.000005
C37	C	1.221430	0.428044	-0.000004
C38	C	1.223306	0.342307	0.000002
C39	C	1.224808	0.273972	0.000007
N40	N	1.224093	-0.191868	-0.195657
C41	C	1.294648	-0.145507	0.238943
C42	C	1.294653	-0.145507	0.325490
C43	C	1.224052	-0.191852	0.368767
C44	C	1.153434	-0.238194	0.325493
C45	C	1.153424	-0.238190	0.238947
C46	C	1.153469	-0.238211	0.674521
C47	C	1.153486	-0.238213	0.761073
C48	C	1.294698	-0.145528	0.761064
C49	C	1.294689	-0.145524	0.674519
C50	C	1.224067	-0.191863	0.631252
C51	C	1.224061	-0.191862	0.537408
C52	C	1.224062	-0.191857	0.462610
H53	H	0.886732	-0.296534	0.000003
H54	H	1.095943	-0.275925	0.360734
Cl55	Cl	0.542976	-0.055020	0.000020
H56	H	1.352144	-0.107772	0.203713
H57	H	0.712059	-0.350785	0.000006
Cl58	Cl	1.064648	-0.296446	0.184553
H59	H	0.736045	-0.032941	0.000018
H60	H	0.932186	-0.049622	0.000003
Cl61	Cl	0.486462	-0.362203	0.000011
Cl62	Cl	1.443535	0.024932	0.000033
H63	H	1.046791	0.574819	-0.000005
Cl64	Cl	1.439630	0.203392	0.000018
Cl65	Cl	1.434826	0.422874	0.000007
H66	H	1.352182	-0.107789	0.639285
H67	H	1.389480	0.582857	0.000007
Cl68	Cl	1.064722	-0.296478	0.815477
H69	H	1.049927	0.431380	-0.000011
Cl70	Cl	1.013292	0.193403	-0.000012
H71	H	1.058635	0.033426	0.000002
Cl72	Cl	1.383422	-0.087249	0.379887
H73	H	1.352199	-0.107794	0.796301
Cl74	Cl	1.064694	-0.296467	0.620134
