data_functionalizedCrystal
_audit_creation_method	'MofGen! by Chris Wilmer'
_symmetry_space_group_name_H-M	'P1'
_symmetry_Int_Tables_number	1
_symmetry_cell_setting	triclinic
loop_
_symmetry_equiv_pos_as_xyz
  x,y,z
_cell_length_a	17.699083
_cell_length_b	27.731996
_cell_length_c	16.776229
_cell_angle_alpha	89.987372
_cell_angle_beta	89.998886
_cell_angle_gamma	82.952202
loop_
_atom_site_label
_atom_site_type_symbol
_atom_site_fract_x
_atom_site_fract_y
_atom_site_fract_z
O1	O	1.003522	0.061128	-0.066187
O2	O	1.503522	0.561128	0.433813
O3	O	0.783071	0.069081	-0.066214
O4	O	1.283071	0.569081	0.433786
O5	O	0.900164	-0.005269	-0.066183
O6	O	1.400164	0.494731	0.433817
O7	O	0.886429	0.135479	-0.066219
O8	O	1.386429	0.635479	0.433781
O9	O	0.900148	-0.005274	0.066394
O10	O	1.400148	0.494726	0.566394
O11	O	0.783055	0.069077	0.066362
O12	O	1.283055	0.569077	0.566362
O13	O	1.003506	0.061124	0.066390
O14	O	1.503506	0.561124	0.566390
Zn15	Zn	0.893278	0.065100	0.087425
Zn16	Zn	1.393278	0.565100	0.587425
Zn17	Zn	0.893299	0.065106	-0.087250
Zn18	Zn	1.393299	0.565106	0.412750
O19	O	0.886414	0.135474	0.066358
O20	O	1.386414	0.635474	0.566358
C21	C	0.754869	0.068794	0.000071
C22	C	1.254869	0.568794	0.500071
C23	C	0.670858	0.067939	0.000061
C24	C	1.170858	0.567939	0.500061
C25	C	0.621840	0.111581	0.000050
C26	C	1.121840	0.611581	0.500050
C27	C	0.542904	0.110775	0.000060
C28	C	1.042904	0.610775	0.500060
C29	C	0.512988	0.066326	0.000076
C30	C	1.012988	0.566326	0.500076
C31	C	0.562013	0.022681	0.000090
C32	C	1.062013	0.522681	0.500090
C33	C	0.640947	0.023488	0.000085
C34	C	1.140947	0.523488	0.500085
C35	C	0.243679	0.019427	0.000110
C36	C	0.743679	0.519427	0.500110
C37	C	0.164739	0.018623	0.000113
C38	C	0.664739	0.518623	0.500113
C39	C	0.145636	0.106714	0.000086
C40	C	0.645636	0.606714	0.500086
C41	C	0.224571	0.107521	0.000081
C42	C	0.724571	0.607521	0.500081
C43	C	0.273588	0.063876	0.000098
C44	C	0.773588	0.563876	0.500098
C45	C	0.359180	0.064750	0.000089
C46	C	0.859180	0.564750	0.500089
C47	C	0.427398	0.065451	0.000080
C48	C	0.927398	0.565451	0.500080
C49	C	0.899874	-0.023280	0.000108
C50	C	1.399874	0.476720	0.500108
C51	C	0.899024	-0.076939	0.000116
C52	C	1.399024	0.423061	0.500116
C53	C	0.893686	-0.409672	-0.072191
C54	C	1.393686	0.090328	0.427809
C55	C	0.890459	-0.611342	-0.072205
C56	C	1.390459	-0.111342	0.427795
O57	O	0.890016	-0.637412	-0.133666
O58	O	1.390016	-0.137412	0.366334
N59	N	0.890049	-0.636563	0.000062
N60	N	1.390049	-0.136563	0.500062
C61	C	0.890442	-0.611363	0.072337
C62	C	1.390442	-0.111363	0.572337
O63	O	0.890012	-0.637442	0.133804
O64	O	1.390012	-0.137442	0.633804
C65	C	0.893664	-0.409694	0.072351
C66	C	1.393664	0.090306	0.572351
C67	C	0.894080	-0.384476	0.000079
C68	C	1.394080	0.115524	0.500079
C69	C	0.894102	-0.384454	-0.144456
C70	C	1.394102	0.115546	0.355544
C71	C	0.894912	-0.334040	-0.144452
C72	C	1.394912	0.165960	0.355548
C73	C	0.895307	-0.308844	-0.072182
C74	C	1.395307	0.191156	0.427818
C75	C	0.894891	-0.334062	0.000083
C76	C	1.394891	0.165938	0.500083
C77	C	0.894051	-0.384494	0.144625
C78	C	1.394051	0.115506	0.644625
C79	C	0.894854	-0.334073	0.144622
C80	C	1.394854	0.165927	0.644622
C81	C	0.895271	-0.308856	0.072351
C82	C	1.395271	0.191144	0.572351
C83	C	0.896097	-0.258451	0.072358
C84	C	1.396097	0.241549	0.572358
N85	N	0.896506	-0.233230	0.000091
N86	N	1.396506	0.266770	0.500091
C87	C	0.896111	-0.258427	-0.072179
C88	C	1.396111	0.241573	0.427821
C89	C	0.888752	-0.717242	0.072325
C90	C	1.388752	-0.217242	0.572325
C91	C	0.887948	-0.767660	0.072322
C92	C	1.387948	-0.267660	0.572322
C93	C	0.887963	-0.767635	-0.072221
C94	C	1.387963	-0.267635	0.427779
C95	C	0.888773	-0.717217	-0.072217
C96	C	1.388773	-0.217217	0.427783
C97	C	0.889161	-0.692021	0.000058
C98	C	1.389161	-0.192021	0.500058
C99	C	0.897815	-0.152553	-0.072164
C100	C	1.397815	0.347447	0.427836
C101	C	0.898629	-0.102135	-0.072154
C102	C	1.398629	0.397865	0.427846
C103	C	0.898610	-0.102164	0.072388
C104	C	1.398610	0.397836	0.572388
C105	C	0.897800	-0.152578	0.072378
C106	C	1.397800	0.347422	0.572378
C107	C	0.897400	-0.177771	0.000095
C108	C	1.397400	0.322229	0.500095
O109	O	0.896532	-0.232349	0.133787
O110	O	1.396532	0.267651	0.633787
O111	O	0.896525	-0.232338	-0.133637
O112	O	1.396525	0.267662	0.366363
C113	C	0.892875	-0.460086	-0.072195
C114	C	1.392875	0.039914	0.427805
C115	C	0.892459	-0.485304	0.000070
C116	C	1.392459	0.014696	0.500070
C117	C	0.892854	-0.460108	0.072340
C118	C	1.392854	0.039892	0.572340
C119	C	0.891655	-0.535721	0.000067
C120	C	1.391655	-0.035721	0.500067
C121	C	0.891260	-0.560917	-0.072203
C122	C	1.391260	-0.060917	0.427797
C123	C	0.891669	-0.535696	-0.144469
C124	C	1.391669	-0.035696	0.355531
C125	C	0.892480	-0.485282	-0.144465
C126	C	1.392480	0.014718	0.355535
C127	C	0.892444	-0.485329	0.144607
C128	C	1.392444	0.014671	0.644607
C129	C	0.891634	-0.535743	0.144597
C130	C	1.391634	-0.035743	0.644597
C131	C	0.891240	-0.560939	0.072327
C132	C	1.391240	-0.060939	0.572327
C133	C	1.031708	0.061411	0.000103
C134	C	1.531708	0.561411	0.500103
C135	C	1.115719	0.062266	0.000107
C136	C	1.615719	0.562266	0.500107
C137	C	0.886703	0.153485	0.000065
C138	C	1.386703	0.653485	0.500065
C139	C	0.887553	0.207144	0.000052
C140	C	1.387553	0.707144	0.500052
N141	N	0.893270	0.065095	0.206636
N142	N	1.393270	0.565095	0.706636
N143	N	0.893313	0.065106	-0.206461
N144	N	1.393313	0.565106	0.293539
C145	C	0.945134	0.032186	0.248368
C146	C	1.445134	0.532186	0.748368
C147	C	0.945139	0.032186	0.331820
C148	C	1.445139	0.532186	0.831820
C149	C	0.893282	0.065097	0.373539
C150	C	1.393282	0.565097	0.873539
C151	C	0.841412	0.098008	0.331802
C152	C	1.341412	0.598008	0.831802
C153	C	0.841405	0.098005	0.248352
C154	C	1.341405	0.598005	0.748352
C155	C	0.841439	0.098017	0.668349
C156	C	1.341439	0.598017	1.168349
C157	C	0.841452	0.098018	0.751806
C158	C	1.341452	0.598018	1.251806
C159	C	0.945173	0.032198	0.751818
C160	C	1.445173	0.532198	1.251818
C161	C	0.945166	0.032195	0.668367
C162	C	1.445166	0.532195	1.168367
C163	C	0.893294	0.065104	0.626637
C164	C	1.393294	0.565104	1.126637
C165	C	0.893289	0.065103	0.536149
C166	C	1.393289	0.565103	1.036149
C167	C	0.893289	0.065100	0.464026
C168	C	1.393289	0.565100	0.964026
H169	H	0.680858	-0.012050	0.000093
H170	H	1.180858	0.487950	0.500093
O171	O	0.135641	-0.024545	-0.000008
O172	O	0.635641	0.475455	0.499992
C173	C	0.057569	-0.076566	-0.068644
C174	C	0.557569	0.423434	0.431356
C175	C	0.090485	-0.027671	-0.068615
C176	C	0.590485	0.472329	0.431385
H177	H	0.021040	-0.079105	-0.124098
H178	H	0.521040	0.420895	0.375902
H179	H	0.106132	-0.107642	-0.068682
H180	H	0.606132	0.392358	0.431318
H181	H	0.021122	-0.079136	-0.013135
H182	H	0.521122	0.420864	0.486865
H183	H	0.126923	-0.025054	-0.124115
H184	H	0.626923	0.474946	0.375885
H185	H	0.041887	0.003382	-0.068536
H186	H	0.541887	0.503382	0.431464
H187	H	0.799185	0.124803	0.365775
H188	H	1.299185	0.624803	0.865775
O189	O	0.897527	-0.177079	-0.142332
O190	O	1.397527	0.322921	0.357668
C191	C	0.962241	-0.239511	-0.226265
C192	C	1.462241	0.260489	0.273735
C193	C	0.962648	-0.211784	-0.146763
C194	C	1.462648	0.288216	0.353237
H195	H	1.014894	-0.267568	-0.229881
H196	H	1.514894	0.232432	0.270119
H197	H	0.908910	-0.258658	-0.229913
H198	H	1.408910	0.241342	0.270087
H199	H	0.962641	-0.212803	-0.277888
H200	H	1.462641	0.287197	0.222112
H201	H	0.962276	-0.238459	-0.095096
H202	H	1.462276	0.261541	0.404904
H203	H	1.015975	-0.192629	-0.143185
H204	H	1.515975	0.307371	0.356815
O205	O	0.291181	-0.023013	0.000089
O206	O	0.791181	0.476987	0.500089
C207	C	0.301791	-0.110475	0.000166
C208	C	0.801791	0.389525	0.500166
C209	C	0.247906	-0.062446	0.000171
C210	C	0.747906	0.437554	0.500171
H211	H	0.266825	-0.142369	0.000249
H212	H	0.766825	0.357631	0.500249
H213	H	0.339212	-0.112335	-0.055329
H214	H	0.839212	0.387665	0.444671
H215	H	0.339238	-0.112275	0.055637
H216	H	0.839238	0.387725	0.555637
H217	H	0.210411	-0.060614	-0.055263
H218	H	0.710411	0.439386	0.444737
H219	H	0.210537	-0.060606	0.055702
H220	H	0.710537	0.439394	0.555702
O221	O	0.995601	0.000205	0.372234
O222	O	1.495601	0.500205	0.872234
C223	C	1.098471	-0.065088	0.363439
C224	C	1.598471	0.434912	0.863439
C225	C	1.041369	-0.028890	0.317572
C226	C	1.541369	0.471110	0.817572
H227	H	1.135479	-0.088628	0.319265
H228	H	1.635479	0.411372	0.819265
H229	H	1.136076	-0.044265	0.402469
H230	H	1.636076	0.455735	0.902469
H231	H	1.066088	-0.089193	0.402548
H232	H	1.566088	0.410807	0.902548
H233	H	1.073690	-0.004776	0.278419
H234	H	1.573690	0.495224	0.778419
H235	H	1.003765	-0.049743	0.278592
H236	H	1.503765	0.450257	0.778592
H237	H	0.248923	0.143716	0.000064
H238	H	0.748923	0.643716	0.500064
H239	H	0.987395	0.005398	0.634401
H240	H	1.487395	0.505398	1.134401
H241	H	0.105716	0.142252	0.000076
H242	H	0.605716	0.642252	0.500076
H243	H	0.987408	0.005400	0.785803
H244	H	1.487408	0.505400	1.285803
O245	O	0.790997	0.130005	0.792210
O246	O	1.290997	0.630005	1.292210
C247	C	0.688134	0.195304	0.783397
C248	C	1.188134	0.695304	1.283397
C249	C	0.745216	0.159101	0.737540
C250	C	1.245216	0.659101	1.237540
H251	H	0.651116	0.218845	0.739217
H252	H	1.151116	0.718845	1.239217
H253	H	0.650536	0.174486	0.822460
H254	H	1.150536	0.674486	1.322460
H255	H	0.720533	0.219408	0.822473
H256	H	1.220533	0.719408	1.322473
H257	H	0.712879	0.134988	0.698422
H258	H	1.212879	0.634988	1.198422
H259	H	0.782813	0.179949	0.698527
H260	H	1.282813	0.679949	1.198527
H261	H	0.502996	0.146313	0.000050
H262	H	1.002996	0.646313	0.500050
O263	O	0.790990	0.129921	0.627780
O264	O	1.290990	0.629921	1.127780
C265	C	0.687533	0.140304	0.533528
C266	C	1.187533	0.640304	1.033528
C267	C	0.744609	0.104115	0.579444
C268	C	1.244609	0.604115	1.079444
H269	H	0.650030	0.119454	0.494425
H270	H	1.150030	0.619454	0.994425
H271	H	0.650420	0.163824	0.577642
H272	H	1.150420	0.663824	1.077642
H273	H	0.719938	0.164430	0.494482
H274	H	1.219938	0.664430	0.994482
H275	H	0.712267	0.079957	0.618491
H276	H	1.212267	0.579957	1.118491
H277	H	0.781722	0.080629	0.535287
H278	H	1.281722	0.580629	1.035287
H279	H	0.892767	-0.464819	0.203459
H280	H	1.392767	0.035181	0.703459
O281	O	0.790997	0.130021	0.207935
O282	O	1.290997	0.630021	0.707935
C283	C	0.688086	0.195289	0.216725
C284	C	1.188086	0.695289	0.716725
C285	C	0.745147	0.159066	0.262594
C286	C	1.245147	0.659066	0.762594
H287	H	0.650991	0.218774	0.260897
H288	H	1.150991	0.718774	0.760897
H289	H	0.720425	0.219444	0.177661
H290	H	1.220425	0.719444	0.677661
H291	H	0.650561	0.174437	0.177649
H292	H	1.150561	0.674437	0.677649
H293	H	0.782687	0.179877	0.301714
H294	H	1.282687	0.679877	0.801714
H295	H	0.712761	0.134911	0.301608
H296	H	1.212761	0.634911	0.801608
H297	H	0.646191	0.147777	0.000036
H298	H	1.146191	0.647777	0.500036
H299	H	0.898970	-0.081605	-0.131008
H300	H	1.398970	0.418395	0.368992
O301	O	0.532829	-0.020455	0.000071
O302	O	1.032829	0.479545	0.500071
C303	C	0.419695	-0.060741	0.000135
C304	C	0.919695	0.439259	0.500135
C305	C	0.452642	-0.011855	0.000140
C306	C	0.952642	0.488145	0.500140
H307	H	0.354860	-0.053804	0.000208
H308	H	0.854860	0.446196	0.500208
H309	H	0.439871	-0.082309	-0.055355
H310	H	0.939871	0.417691	0.444645
H311	H	0.439973	-0.082303	0.055611
H312	H	0.939973	0.417697	0.555611
H313	H	0.432379	0.009747	-0.055298
H314	H	0.932379	0.509747	0.444702
H315	H	0.432470	0.009677	0.055667
H316	H	0.932470	0.509677	0.555667
O317	O	0.892731	-0.460810	-0.214703
O318	O	1.392731	0.039190	0.285297
C319	C	0.827385	-0.439884	-0.338269
C320	C	1.327385	0.060116	0.161731
C321	C	0.827008	-0.467599	-0.258734
C322	C	1.327008	0.032401	0.241266
H323	H	0.774262	-0.445371	-0.373899
H324	H	1.274262	0.054629	0.126101
H325	H	0.827976	-0.399506	-0.325944
H326	H	1.327976	0.100494	0.174056
H327	H	0.880236	-0.454286	-0.373872
H328	H	1.380236	0.045714	0.126128
H329	H	0.774165	-0.453238	-0.223092
H330	H	1.274165	0.046762	0.276908
H331	H	0.826457	-0.507973	-0.271115
H332	H	1.326457	-0.007973	0.228885
H333	H	0.895249	-0.313512	-0.203303
H334	H	1.395249	0.186488	0.296697
H335	H	0.893777	-0.404963	-0.203310
H336	H	1.393777	0.095037	0.296690
O337	O	0.889137	-0.692794	-0.142492
O338	O	1.389137	-0.192794	0.357508
C339	C	0.889116	-0.698109	-0.285857
C340	C	1.389116	-0.198109	0.214143
C341	C	0.888687	-0.725823	-0.206325
C342	C	1.388687	-0.225823	0.293675
H343	H	0.888768	-0.724802	-0.337487
H344	H	1.388768	-0.224802	0.162513
H345	H	0.836491	-0.670030	-0.289536
H346	H	1.336491	-0.170030	0.210464
H347	H	0.942467	-0.678977	-0.289422
H348	H	1.442467	-0.178977	0.210578
H349	H	0.835371	-0.744984	-0.202706
H350	H	1.335371	-0.244984	0.297294
H351	H	0.941347	-0.753874	-0.202680
H352	H	1.441347	-0.253874	0.297320
O353	O	0.891353	-0.560272	0.214783
O354	O	1.391353	-0.060272	0.714783
C355	C	0.955958	-0.622790	0.298674
C356	C	1.455958	-0.122790	0.798674
C357	C	0.956396	-0.595043	0.219174
C358	C	1.456396	-0.095043	0.719174
H359	H	1.008530	-0.650916	0.302243
H360	H	1.508530	-0.150916	0.802243
H361	H	0.956420	-0.596146	0.350361
H362	H	1.456420	-0.096146	0.850361
H363	H	0.902558	-0.641874	0.302250
H364	H	1.402558	-0.141874	0.802250
H365	H	1.009786	-0.575958	0.215521
H366	H	1.509786	-0.075958	0.715521
H367	H	0.955893	-0.621710	0.167526
H368	H	1.455893	-0.121710	0.667526
H369	H	0.887642	-0.788158	-0.131066
H370	H	1.387642	-0.288158	0.368934
H371	H	0.887620	-0.788189	0.131172
H372	H	1.387620	-0.288189	0.631172
H373	H	0.889072	-0.696733	0.131183
H374	H	1.389072	-0.196733	0.631183
H375	H	0.893713	-0.405018	0.203477
H376	H	1.393713	0.094982	0.703477
H377	H	0.987365	0.005388	0.214405
H378	H	1.487365	0.505388	0.714405
H379	H	0.895159	-0.313561	0.203479
H380	H	1.395159	0.186439	0.703479
O381	O	0.898853	-0.077646	0.142564
O382	O	1.398853	0.422354	0.642564
C383	C	0.834162	-0.015145	0.226384
C384	C	1.334162	0.484855	0.726384
C385	C	0.833794	-0.042886	0.146893
C386	C	1.333794	0.457114	0.646893
H387	H	0.781576	0.012971	0.229902
H388	H	1.281576	0.512971	0.729902
H389	H	0.833674	-0.041796	0.278079
H390	H	1.333674	0.458204	0.778079
H391	H	0.887548	0.003948	0.229995
H392	H	1.387548	0.503948	0.729995
H393	H	0.780417	-0.061982	0.143204
H394	H	1.280417	0.438018	0.643204
H395	H	0.834321	-0.016213	0.095236
H396	H	1.334321	0.483787	0.595236
O397	O	0.897270	-0.177049	0.142598
O398	O	1.397270	0.322951	0.642598
C399	C	0.831439	-0.186918	0.266149
C400	C	1.331439	0.313082	0.766149
C401	C	0.831943	-0.159179	0.186647
C402	C	1.331943	0.340821	0.686647
H403	H	0.778636	-0.172474	0.301792
H404	H	1.278636	0.327526	0.801792
H405	H	0.830739	-0.227281	0.253775
H406	H	1.330739	0.272719	0.753775
H407	H	0.884609	-0.181513	0.301761
H408	H	1.384609	0.318487	0.801761
H409	H	0.778784	-0.164544	0.150995
H410	H	1.278784	0.335456	0.650995
H411	H	0.832683	-0.118826	0.199078
H412	H	1.332683	0.381174	0.699078
O413	O	0.891146	-0.560190	-0.214650
O414	O	1.391146	-0.060190	0.285350
C415	C	0.824655	-0.611576	-0.298492
C416	C	1.324655	-0.111576	0.201508
C417	C	0.825152	-0.583846	-0.219001
C418	C	1.325152	-0.083846	0.280999
H419	H	0.771313	-0.630717	-0.302029
H420	H	1.271313	-0.130717	0.197971
H421	H	0.825037	-0.584917	-0.350187
H422	H	1.325037	-0.084917	0.149813
H423	H	0.877287	-0.639652	-0.302084
H424	H	1.377287	-0.139652	0.197916
H425	H	0.772530	-0.555769	-0.215331
H426	H	1.272530	-0.055769	0.284669
H427	H	0.824809	-0.610534	-0.167344
H428	H	1.324809	-0.110534	0.332656
