data_functionalizedCrystal
_audit_creation_method	'MofGen! by Chris Wilmer'
_symmetry_space_group_name_H-M	'P1'
_symmetry_Int_Tables_number	1
_symmetry_cell_setting	triclinic
loop_
_symmetry_equiv_pos_as_xyz
  x,y,z
_cell_length_a	10.654550
_cell_length_b	10.540539
_cell_length_c	9.616153
_cell_angle_alpha	89.997886
_cell_angle_beta	90.000069
_cell_angle_gamma	84.505211
loop_
_atom_site_label
_atom_site_type_symbol
_atom_site_fract_x
_atom_site_fract_y
_atom_site_fract_z
O1	O	1.667903	0.178292	0.115535
O2	O	1.302430	0.195280	0.115560
O3	O	1.493504	0.002077	0.115545
O4	O	1.476828	0.371496	0.115549
O5	O	1.493490	0.002087	-0.115747
O6	O	1.302416	0.195291	-0.115732
O7	O	1.667889	0.178303	-0.115757
Zn8	Zn	1.485150	0.186799	-0.152467
Zn9	Zn	1.485169	0.186784	0.152270
O10	O	1.476814	0.371506	-0.115742
C11	C	1.255625	0.194038	-0.000083
C12	C	1.116180	0.190306	-0.000073
C13	C	1.492247	-0.045221	-0.000098
C14	C	1.488505	-0.186167	-0.000091
C15	C	1.036735	0.304061	-0.000076
C16	C	0.905712	0.300547	-0.000100
C17	C	0.933594	0.069513	-0.000113
C18	C	1.064614	0.073029	-0.000099
C19	C	1.345134	-0.369543	0.000438
C20	C	1.348927	-0.222926	-0.000083
C21	C	1.555669	-0.247843	-0.132174
C22	C	1.550905	-0.394386	-0.132285
C23	C	1.553760	-0.394917	0.130737
C24	C	1.555045	-0.247936	0.132483
C25	C	1.714694	0.179545	-0.000111
C26	C	1.854139	0.183277	-0.000112
C27	C	1.478072	0.418804	-0.000096
C28	C	1.481813	0.559750	-0.000094
N29	N	1.485147	0.186808	-0.360441
C30	C	1.382890	0.290142	-0.419475
C31	C	1.382542	0.289845	-0.580643
C32	C	1.455907	0.053903	-0.581225
C33	C	1.455151	0.054533	-0.420008
C34	C	1.616988	0.215138	-0.419836
C35	C	1.616153	0.218115	-0.581064
N36	N	1.485182	0.186765	0.360244
H37	H	0.841032	0.393178	-0.000105
O38	O	1.645561	0.347586	-0.631756
H39	H	1.656639	0.410823	-0.541178
O40	O	1.490054	-0.193697	0.261928
H41	H	1.410695	-0.123034	0.231985
O42	O	1.654014	0.340869	-0.366004
H43	H	1.747270	0.358645	-0.409378
O44	O	1.329988	0.020395	-0.634727
H45	H	1.266074	0.008222	-0.545570
H46	H	1.285619	0.272119	-0.378983
O47	O	0.877977	-0.056976	-0.000138
H48	H	0.818953	-0.064120	0.094132
H49	H	1.656809	-0.223752	0.140452
H50	H	1.078715	0.399556	-0.000065
O51	O	1.272085	-0.407397	0.125896
H52	H	1.186870	-0.451392	0.091101
O53	O	1.687300	-0.457524	0.131927
H54	H	1.702418	-0.520629	0.039845
O55	O	1.150317	-0.049669	-0.000099
H56	H	1.092451	-0.131810	-0.000101
O57	O	1.278901	-0.166454	0.125313
H58	H	1.242013	-0.243861	0.186872
O59	O	1.721772	0.125045	-0.634353
H60	H	1.682389	0.054670	-0.703802
H61	H	1.693094	0.139804	-0.381647
O62	O	1.485130	-0.431711	-0.263055
H63	H	1.550157	-0.498380	-0.324695
O64	O	1.253024	0.265479	-0.631778
H65	H	1.190394	0.253865	-0.541355
O66	O	1.272381	-0.409495	-0.124323
H67	H	1.333146	-0.479490	-0.186712
O68	O	1.278447	-0.167568	-0.125715
H69	H	1.241528	-0.245538	-0.186341
H70	H	1.400075	0.388553	-0.620219
O71	O	1.405748	0.421355	-0.368197
H72	H	1.490224	0.414327	-0.300072
H73	H	1.651288	-0.442390	-0.138284
O74	O	1.691442	-0.218275	-0.138717
H75	H	1.712540	-0.159162	-0.047681
O76	O	1.493866	-0.191389	-0.262372
H77	H	1.393080	-0.209985	-0.263673
O78	O	1.493932	-0.436680	0.263353
H79	H	1.412240	-0.490219	0.237490
O80	O	1.327774	0.021801	-0.370187
H81	H	1.253465	0.093580	-0.410118
H82	H	1.526764	-0.024760	-0.380952
H83	H	1.528391	-0.024926	-0.619510
