data_functionalizedCrystal
_audit_creation_method	'MofGen! by Chris Wilmer'
_symmetry_space_group_name_H-M	'P1'
_symmetry_Int_Tables_number	1
_symmetry_cell_setting	triclinic
loop_
_symmetry_equiv_pos_as_xyz
  x,y,z
_cell_length_a	11.792241
_cell_length_b	10.654562
_cell_length_c	9.730223
_cell_angle_alpha	89.997803
_cell_angle_beta	89.996745
_cell_angle_gamma	95.658240
loop_
_atom_site_label
_atom_site_type_symbol
_atom_site_fract_x
_atom_site_fract_y
_atom_site_fract_z
O1	O	-0.159484	1.667372	-0.114364
O2	O	0.340516	2.167372	0.385636
O3	O	-0.174658	1.301853	-0.114345
O4	O	0.325342	1.801853	0.385655
O5	O	-0.001921	1.493482	-0.114363
O6	O	0.498079	1.993482	0.385637
O7	O	-0.332221	1.475742	-0.114346
O8	O	0.167779	1.975742	0.385654
O9	O	-0.001924	1.493483	0.114217
O10	O	0.498076	1.993483	0.614217
O11	O	-0.174661	1.301854	0.114235
O12	O	0.325339	1.801854	0.614235
O13	O	-0.159487	1.667373	0.114216
O14	O	0.340513	2.167373	0.614216
Zn15	Zn	-0.167074	1.484613	0.150518
Zn16	Zn	0.332926	1.984613	0.650518
Zn17	Zn	-0.167071	1.484612	-0.150646
Zn18	Zn	0.332929	1.984612	0.349354
O19	O	-0.332223	1.475743	0.114234
O20	O	0.167777	1.975743	0.614234
C21	C	-0.173542	1.255059	-0.000053
C22	C	0.326458	1.755059	0.499947
C23	C	-0.170200	1.115626	-0.000047
C24	C	0.329800	1.615626	0.499953
C25	C	-0.168642	1.050100	0.124542
C26	C	0.331358	1.550100	0.624542
C27	C	-0.165511	0.919086	0.124518
C28	C	0.334489	1.419086	0.624518
C29	C	-0.165499	0.919135	-0.124692
C30	C	0.334501	1.419135	0.375308
C31	C	-0.168623	1.050148	-0.124667
C32	C	0.331377	1.550148	0.375333
C33	C	-0.168654	1.050070	0.268421
C34	C	0.331346	1.550070	0.768421
C35	C	-0.165523	0.919056	0.268398
C36	C	0.334477	1.419056	0.768398
C37	C	-0.374516	1.476857	-0.000054
C38	C	0.125484	1.976857	0.499946
C39	C	-0.500537	1.480192	-0.000048
C40	C	-0.000537	1.980192	0.499952
C41	C	-0.731264	1.486326	-0.000083
C42	C	-0.231264	1.986326	0.499917
C43	C	-0.602871	1.482918	-0.000064
C44	C	-0.102871	1.982918	0.499936
C45	C	0.040371	1.492369	-0.000078
C46	C	0.540371	1.992369	0.499922
C47	C	0.166392	1.489033	-0.000093
C48	C	0.666392	1.989033	0.499907
C49	C	-0.160603	1.714167	-0.000079
C50	C	0.339397	2.214167	0.499921
C51	C	-0.163945	1.853600	-0.000094
C52	C	0.336055	2.353600	0.499906
N53	N	-0.167076	1.484624	0.356054
N54	N	0.332924	1.984624	0.856054
C55	C	-0.236554	1.561249	0.571888
C56	C	0.263446	2.061249	1.071888
C57	C	-0.236560	1.561251	0.428005
C58	C	0.263440	2.061251	0.928005
C59	C	-0.097591	1.407980	0.427993
C60	C	0.402409	1.907980	0.927993
C61	C	-0.097592	1.407973	0.571874
C62	C	0.402408	1.907973	1.071874
C63	C	-0.316783	1.649743	0.571893
C64	C	0.183217	2.149743	1.071893
C65	C	-0.316789	1.649744	0.428010
C66	C	0.183211	2.149744	0.928010
N67	N	-0.167072	1.484615	0.643817
N68	N	0.332928	1.984615	1.143817
H69	H	-0.243965	0.872549	0.323638
H70	H	0.256035	1.372549	0.823638
F71	F	-0.023656	1.326390	0.648422
F72	F	0.476344	1.826390	1.148422
F73	F	-0.057417	0.880669	0.326979
F74	F	0.442583	1.380669	0.826979
F75	F	-0.023651	1.326417	0.351414
F76	F	0.476349	1.826417	0.851414
H77	H	-0.288894	1.748878	0.388960
H78	H	0.211106	2.248878	0.888960
H79	H	-0.090215	1.096552	0.323670
H80	H	0.409785	1.596552	0.823670
F81	F	-0.433771	1.608987	0.622942
F82	F	0.066229	2.108987	1.122942
H83	H	-0.402258	1.609991	0.383392
H84	H	0.097742	2.109991	0.883392
H85	H	-0.169873	1.103496	-0.226119
H86	H	0.330127	1.603496	0.273881
F87	F	-0.163810	0.849440	-0.257315
F88	F	0.336190	1.349440	0.242685
F89	F	-0.276851	1.088427	0.326780
F90	F	0.223149	1.588427	0.826780
F91	F	-0.270170	1.773496	0.630231
F92	F	0.229830	2.273496	1.130231
