data_functionalizedCrystal
_audit_creation_method	'MofGen! by Chris Wilmer'
_symmetry_space_group_name_H-M	'P1'
_symmetry_Int_Tables_number	1
_symmetry_cell_setting	triclinic
loop_
_symmetry_equiv_pos_as_xyz
  x,y,z
_cell_length_a	19.805407
_cell_length_b	19.077068
_cell_length_c	19.077314
_cell_angle_alpha	89.878373
_cell_angle_beta	92.280666
_cell_angle_gamma	92.327086
loop_
_atom_site_label
_atom_site_type_symbol
_atom_site_fract_x
_atom_site_fract_y
_atom_site_fract_z
Zn1	Zn	1.008751	-0.263811	-0.408556
Zn2	Zn	1.008299	-0.386040	-0.295763
Zn3	Zn	0.899922	-0.268549	-0.291061
Zn4	Zn	0.890807	-0.381285	-0.413227
O5	O	0.951945	-0.324921	-0.352152
O6	O	1.103407	-0.280032	-0.393606
O7	O	0.997549	-0.374427	-0.196808
O8	O	0.918362	-0.169587	-0.302725
O9	O	1.103075	-0.369833	-0.310738
O10	O	0.998318	-0.166106	-0.389048
O11	O	0.917925	-0.288107	-0.193354
O12	O	0.803997	-0.283497	-0.307254
O13	O	0.902827	-0.361730	-0.510939
O14	O	0.797301	-0.366324	-0.397009
O15	O	0.989479	-0.275422	-0.507507
O16	O	0.988710	-0.483743	-0.315267
O17	O	0.902389	-0.480250	-0.401568
C18	C	0.776090	-0.324909	-0.352128
C19	C	0.700858	-0.324920	-0.352136
C20	C	0.662044	-0.368118	-0.398801
C21	C	0.591355	-0.368119	-0.398811
C22	C	0.559481	-0.324925	-0.352152
C23	C	0.598300	-0.281721	-0.305484
C24	C	0.668987	-0.281717	-0.305478
C25	C	0.313225	-0.281736	-0.305508
C26	C	0.242532	-0.281745	-0.305516
C27	C	0.235593	-0.368138	-0.398841
C28	C	0.306280	-0.368134	-0.398835
C29	C	0.345093	-0.324928	-0.352170
C30	C	0.421742	-0.324926	-0.352161
C31	C	0.482834	-0.324929	-0.352157
C32	C	0.944530	-0.507492	-0.359450
C33	C	0.941418	-0.585596	-0.362595
C34	C	0.984931	-0.624083	-0.319178
C35	C	0.982009	-0.697470	-0.322141
C36	C	0.935570	-0.732368	-0.368518
C37	C	0.892055	-0.693875	-0.411939
C38	C	0.894981	-0.620490	-0.408980
C39	C	0.921998	-0.951654	-0.382187
C40	C	0.919074	-1.025044	-0.385142
C41	C	1.009030	-1.028634	-0.295344
C42	C	1.011949	-0.955247	-0.292386
C43	C	0.968436	-0.916761	-0.335810
N44	N	0.932580	-0.807381	-0.371546
N45	N	0.971430	-0.841749	-0.332785
C46	C	1.128486	-0.324934	-0.352175
C47	C	1.203718	-0.324940	-0.352186
C48	C	0.945187	-0.317517	-0.535432
C49	C	0.942307	-0.314361	-0.613535
C50	C	0.959407	-0.141637	-0.344841
C51	C	0.962587	-0.063532	-0.341725
C52	C	0.982407	-0.357819	-0.652029
C53	C	0.979701	-0.354846	-0.725415
C54	C	0.936891	-0.308418	-0.760305
C55	C	0.896790	-0.264956	-0.721806
C56	C	0.899500	-0.267926	-0.648421
C57	C	0.924345	-0.294712	-0.979588
C58	C	0.921637	-0.291746	-1.052978
C59	C	1.004549	-0.381636	-1.056582
C60	C	1.007252	-0.384605	-0.983196
C61	C	0.967153	-0.341140	-0.944703
N62	N	0.934123	-0.305379	-0.835317
N63	N	0.969926	-0.344176	-0.869692
C64	C	0.958718	-0.332246	-0.169583
C65	C	0.961737	-0.335204	-0.091472
H66	H	0.332229	-0.403310	-0.436827
H67	H	0.886567	-0.920324	-0.417544
N68	N	1.035018	-0.586446	-0.269155
H69	H	1.062141	-0.621966	-0.242102
H70	H	1.066478	-0.554802	-0.296560
N71	N	0.881100	-0.247822	-0.938088
H72	H	0.831823	-0.258210	-0.951286
H73	H	0.889364	-0.256754	-0.886315
N74	N	0.848051	-0.578975	-0.455810
H75	H	0.818187	-0.612217	-0.485638
H76	H	0.819019	-0.549721	-0.425952
H77	H	0.854245	-0.722295	-0.449703
N78	N	0.563925	-0.235145	-0.255145
H79	H	0.513255	-0.241709	-0.262222
H80	H	0.577692	-0.248048	-0.205383
H81	H	1.042101	-0.422422	-0.954794
H82	H	0.861937	-0.227150	-0.750219
H83	H	1.044456	-1.059977	-0.259992
H84	H	1.012354	-0.390233	-0.756754
N85	N	1.028938	-0.738979	-0.275308
H86	H	1.020043	-0.790764	-0.284222
H87	H	1.077378	-0.725659	-0.285771
N88	N	0.868983	-1.062687	-0.435164
H89	H	0.841863	-1.027171	-0.462226
H90	H	0.894100	-1.091786	-0.468931
H91	H	0.559756	-0.403296	-0.436810
H92	H	0.203983	-0.403315	-0.436840
N93	N	1.047805	-0.428503	-1.098101
H94	H	1.075336	-0.458363	-1.064862
H95	H	1.017808	-0.459789	-1.129844
N96	N	0.875460	-0.241670	-1.090613
H97	H	0.850469	-0.214585	-1.055092
H98	H	0.903213	-0.207926	-1.119770
N99	N	0.208154	-0.235152	-0.255189
H100	H	0.157484	-0.241717	-0.262272
H101	H	0.221913	-0.248039	-0.205420
H102	H	0.344818	-0.246560	-0.267506
H103	H	1.049764	-0.926835	-0.254622
H104	H	1.017269	-0.395623	-0.623627
N105	N	0.710848	-0.235119	-0.255147
H106	H	0.699951	-0.247982	-0.205356
H107	H	0.760450	-0.241685	-0.262284
N108	N	0.696420	-0.414712	-0.449122
H109	H	0.661103	-0.442077	-0.478686
H110	H	0.725714	-0.384843	-0.480544
N111	N	0.856255	-0.221049	-0.606899
H112	H	0.828724	-0.191186	-0.640136
H113	H	0.824891	-0.250879	-0.577585
