data_functionalizedCrystal
_audit_creation_method	'MofGen! by Chris Wilmer'
_symmetry_space_group_name_H-M	'P1'
_symmetry_Int_Tables_number	1
_symmetry_cell_setting	triclinic
loop_
_symmetry_equiv_pos_as_xyz
  x,y,z
_cell_length_a	19.188930
_cell_length_b	19.188925
_cell_length_c	10.868271
_cell_angle_alpha	89.995220
_cell_angle_beta	89.981803
_cell_angle_gamma	83.143665
loop_
_atom_site_label
_atom_site_type_symbol
_atom_site_fract_x
_atom_site_fract_y
_atom_site_fract_z
O1	O	0.926143	0.087168	-0.102717
O2	O	1.426143	0.587168	0.397283
O3	O	0.722831	0.098903	-0.102632
O4	O	1.222831	0.598903	0.397368
O5	O	0.830356	-0.008621	-0.102670
O6	O	1.330356	0.491379	0.397330
O7	O	0.818618	0.194691	-0.102679
O8	O	1.318618	0.694691	0.397321
O9	O	0.830347	-0.008625	0.101975
O10	O	1.330347	0.491375	0.601975
O11	O	0.722823	0.098898	0.102012
O12	O	1.222823	0.598898	0.602012
O13	O	0.926134	0.087164	0.101928
O14	O	1.426134	0.587164	0.601928
Zn15	Zn	0.824477	0.093031	0.134462
Zn16	Zn	1.324477	0.593031	0.634462
Zn17	Zn	0.824489	0.093036	-0.135166
Zn18	Zn	1.324489	0.593036	0.364834
O19	O	0.818609	0.194687	0.101966
O20	O	1.318609	0.694687	0.601966
C21	C	0.829972	-0.034634	-0.000348
C22	C	1.329972	0.465366	0.499652
C23	C	0.828833	-0.112138	-0.000350
C24	C	1.328833	0.387862	0.499650
C25	C	0.696816	0.098520	-0.000299
C26	C	1.196816	0.598520	0.499701
C27	C	0.619311	0.097380	-0.000267
C28	C	1.119311	0.597380	0.499733
C29	C	0.884297	-0.673909	-0.000405
C30	C	1.384297	-0.173909	0.499595
C31	C	0.885374	-0.601085	-0.000394
C32	C	1.385374	-0.101085	0.499606
C33	C	0.822282	-0.556151	-0.000368
C34	C	1.322282	-0.056151	0.499632
C35	C	0.758108	-0.584045	-0.000321
C36	C	1.258108	-0.084045	0.499679
C37	C	0.757033	-0.656867	-0.000320
C38	C	1.257033	-0.156867	0.499680
N39	N	0.776608	-0.435469	-0.070005
N40	N	1.276608	0.064531	0.429995
N41	N	0.777634	-0.366292	-0.070009
N42	N	1.277634	0.133708	0.429991
C43	C	0.825516	-0.336742	-0.000370
C44	C	1.325516	0.163258	0.499630
N45	N	0.872344	-0.378984	0.069257
N46	N	1.372344	0.121016	0.569257
N47	N	0.871321	-0.448168	0.069256
N48	N	1.371321	0.051832	0.569256
C49	C	0.823440	-0.477187	-0.000369
C50	C	1.323440	0.022813	0.499631
C51	C	0.890852	-0.229893	-0.000397
C52	C	1.390852	0.270107	0.499603
C53	C	0.891926	-0.157068	-0.000378
C54	C	1.391926	0.342932	0.499622
C55	C	0.764659	-0.140029	-0.000318
C56	C	1.264659	0.359971	0.499682
C57	C	0.763587	-0.212852	-0.000324
C58	C	1.263587	0.287148	0.499676
C59	C	0.826685	-0.257780	-0.000369
C60	C	1.326685	0.242220	0.499631
C61	C	0.574386	0.160471	-0.000289
C62	C	1.074386	0.660471	0.499711
C63	C	0.501563	0.159399	-0.000302
C64	C	1.001563	0.659399	0.499698
C65	C	0.473667	0.095233	-0.000318
C66	C	0.973667	0.595233	0.499682
C67	C	0.518602	0.032134	-0.000289
C68	C	1.018602	0.532134	0.499711
C69	C	0.591424	0.033207	-0.000264
C70	C	1.091424	0.533207	0.499736
N71	N	0.365691	0.046187	-0.070015
N72	N	0.865691	0.546187	0.429985
N73	N	0.296512	0.045172	-0.070042
N74	N	0.796512	0.545172	0.429958
C75	C	0.254259	0.091995	-0.000394
C76	C	0.754259	0.591995	0.499606
N77	N	0.283795	0.139882	0.069268
N78	N	0.783795	0.639882	0.569268
N79	N	0.352980	0.140900	0.069290
N80	N	0.852980	0.640900	0.569290
C81	C	0.394705	0.094062	-0.000346
C82	C	0.894705	0.594062	0.499654
C83	C	0.130369	0.153928	-0.000429
C84	C	0.630369	0.653928	0.499571
C85	C	0.057544	0.152854	-0.000434
C86	C	0.557544	0.652854	0.499566
C87	C	0.074586	0.025586	-0.000434
C88	C	0.574586	0.525586	0.499566
C89	C	0.147409	0.026663	-0.000416
C90	C	0.647409	0.526663	0.499584
C91	C	0.175296	0.090835	-0.000419
C92	C	0.675296	0.590835	0.499581
C93	C	0.952149	0.087546	-0.000408
C94	C	1.452149	0.587546	0.499592
C95	C	1.029654	0.088687	-0.000448
C96	C	1.529654	0.588687	0.499552
C97	C	0.818993	0.220700	-0.000359
C98	C	1.318993	0.720700	0.499641
C99	C	0.820132	0.298205	-0.000365
C100	C	1.320132	0.798205	0.499635
N101	N	0.824474	0.093026	0.318476
N102	N	1.324474	0.593026	0.818476
N103	N	0.824497	0.093035	-0.319180
N104	N	1.324497	0.593035	0.180820
C105	C	0.824485	0.093035	0.569482
C106	C	1.324485	0.593035	1.069482
C107	C	0.824477	0.093032	0.429804
C108	C	1.324477	0.593032	0.929804
H109	H	0.935677	-0.710485	-0.000435
H110	H	1.435677	-0.210485	0.499565
H111	H	0.183988	-0.024713	-0.000404
H112	H	0.683988	0.475287	0.499596
H113	H	0.628003	-0.018171	-0.000246
H114	H	1.128003	0.481829	0.499754
O115	O	0.954582	-0.570994	-0.000455
O116	O	1.454582	-0.070994	0.499545
H117	H	0.998277	-0.614470	-0.000496
H118	H	1.498277	-0.114470	0.499504
O119	O	0.604461	0.229685	-0.000283
O120	O	1.104461	0.729685	0.499717
H121	H	0.662647	0.219835	-0.000271
H122	H	1.162647	0.719835	0.499729
O123	O	0.690056	-0.535586	-0.000295
O124	O	1.190056	-0.035586	0.499705
H125	H	0.701583	-0.480263	-0.000315
H126	H	1.201583	0.019737	0.499685
H127	H	0.711337	-0.235557	-0.000301
H128	H	1.211337	0.264443	0.499699
O129	O	0.687823	-0.686948	-0.000274
O130	O	1.187823	-0.186948	0.499726
H131	H	0.684291	-0.719719	-0.083677
H132	H	1.184291	-0.219719	0.416323
O133	O	0.958903	-0.278359	-0.000422
O134	O	1.458903	0.221641	0.499578
H135	H	1.003704	-0.246730	-0.000424
H136	H	1.503704	0.253270	0.499576
H137	H	0.495885	-0.020111	-0.000319
H138	H	0.995885	0.479889	0.499681
O139	O	0.044503	-0.043621	-0.000445
O140	O	0.544503	0.456379	0.499555
H141	H	0.062537	-0.073923	0.082978
H142	H	0.562537	0.426077	0.582978
H143	H	0.944179	-0.134365	-0.000403
H144	H	1.444179	0.365635	0.499597
H145	H	0.464977	0.210777	-0.000317
H146	H	0.964977	0.710777	0.499683
H147	H	0.713288	-0.103444	-0.000286
H148	H	1.213288	0.396556	0.499714
H149	H	0.153076	0.206181	-0.000413
H150	H	0.653076	0.706181	0.499587
H151	H	0.020966	0.204232	-0.000445
H152	H	0.520966	0.704232	0.499555
