data_functionalizedCrystal
_audit_creation_method	'MofGen! by Chris Wilmer'
_symmetry_space_group_name_H-M	'P1'
_symmetry_Int_Tables_number	1
_symmetry_cell_setting	triclinic
loop_
_symmetry_equiv_pos_as_xyz
  x,y,z
_cell_length_a	15.297327
_cell_length_b	18.215407
_cell_length_c	18.215399
_cell_angle_alpha	89.985640
_cell_angle_beta	99.645421
_cell_angle_gamma	99.704016
loop_
_atom_site_label
_atom_site_type_symbol
_atom_site_fract_x
_atom_site_fract_y
_atom_site_fract_z
Zn1	Zn	-0.359211	1.074329	-0.466754
Zn2	Zn	-0.510087	1.052939	-0.364977
Zn3	Zn	-0.359239	0.951264	-0.343711
Zn4	Zn	-0.510023	0.929932	-0.487999
O5	O	-0.434640	1.002116	-0.415860
O6	O	-0.379240	1.174473	-0.453263
O7	O	-0.490115	1.039428	-0.259178
O8	O	-0.232990	0.985467	-0.342242
O9	O	-0.490088	1.158759	-0.378488
O10	O	-0.232969	1.075883	-0.432641
O11	O	-0.379288	0.964727	-0.243553
O12	O	-0.379225	0.845452	-0.362842
O13	O	-0.489978	0.949111	-0.588159
O14	O	-0.490005	0.829780	-0.468849
O15	O	-0.379178	1.055198	-0.572551
O16	O	-0.636324	1.018743	-0.399087
O17	O	-0.636277	0.928370	-0.489471
C18	C	-0.434612	0.810914	-0.415843
C19	C	-0.434622	0.729113	-0.415857
C20	C	-0.377022	0.549084	-0.454883
C21	C	-0.377030	0.472224	-0.454887
C22	C	-0.492283	0.455896	-0.376854
C23	C	-0.492270	0.532755	-0.376846
C24	C	-0.434641	0.579347	-0.415865
C25	C	-0.434662	0.425628	-0.415876
C26	C	-0.434670	0.342293	-0.415880
C27	C	-0.434631	0.662688	-0.415861
C28	C	-0.669035	0.968941	-0.448908
C29	C	-0.769310	0.954816	-0.463071
C30	C	-1.051941	1.103373	-0.314889
C31	C	-0.957728	1.116644	-0.301579
C32	C	-0.910619	1.076188	-0.341951
C33	C	-0.957732	1.022459	-0.395635
C34	C	-1.051955	1.009183	-0.408942
C35	C	-0.910632	0.981998	-0.436004
C36	C	-0.957746	0.928269	-0.489688
C37	C	-1.051959	0.914996	-0.502994
C38	C	-1.099068	0.955451	-0.462622
C39	C	-0.816410	0.995274	-0.422697
C40	C	-0.816423	0.901085	-0.516750
C41	C	-0.910636	0.887814	-0.530060
C42	C	-0.199330	1.035440	-0.382700
C43	C	-0.099055	1.049641	-0.368568
C44	C	-0.434568	1.002161	-0.607803
C45	C	-0.434537	1.002180	-0.689598
C46	C	-0.434668	1.194065	-0.415878
C47	C	-0.434680	1.275862	-0.415885
C48	C	-0.376790	0.963329	-0.869651
C49	C	-0.376772	0.963344	-0.946508
C50	C	-0.492176	1.041135	-0.962767
C51	C	-0.492198	1.041114	-0.885912
C52	C	-0.434500	1.002213	-0.839356
C53	C	-0.434460	1.002249	-0.993067
C54	C	-0.434441	1.002266	-1.076398
C55	C	-0.434520	1.002195	-0.756020
C56	C	-0.434647	1.002123	-0.224655
C57	C	-0.434423	1.002282	-0.142825
H58	H	-0.330110	0.447589	-0.486658
H59	H	-0.539203	0.417952	-0.345087
C60	C	-0.555658	0.566046	-0.333921
N61	N	-0.603398	0.591121	-0.301590
C62	C	-0.555671	1.083909	-0.852584
N63	N	-0.603471	1.116144	-0.827480
H64	H	-0.329780	0.931679	-0.971170
C65	C	-0.764596	1.054376	-0.363646
N66	N	-0.725571	1.098896	-0.319167
H67	H	-0.330094	0.587018	-0.486652
C68	C	-0.905911	1.175731	-0.242516
N69	N	-0.866881	1.220235	-0.198022
H70	H	-0.833906	1.086996	-0.331110
H71	H	-1.175784	0.944651	-0.473458
C72	C	-1.103781	0.855886	-0.562041
N73	N	-1.142812	0.811364	-0.606516
C74	C	-0.962473	0.828707	-0.589106
N75	N	-1.001518	0.784187	-0.633577
H76	H	-0.778067	0.868141	-0.549623
C77	C	-1.103768	1.147859	-0.270479
N78	N	-1.142804	1.181367	-0.237024
H79	H	-0.329809	0.931653	-0.831747
H80	H	-0.539151	1.072807	-1.000682
