data_functionalizedCrystal
_audit_creation_method	'MofGen! by Chris Wilmer'
_symmetry_space_group_name_H-M	'P1'
_symmetry_Int_Tables_number	1
_symmetry_cell_setting	triclinic
loop_
_symmetry_equiv_pos_as_xyz
  x,y,z
_cell_length_a	27.732048
_cell_length_b	23.532407
_cell_length_c	22.610064
_cell_angle_alpha	90.000603
_cell_angle_beta	89.989356
_cell_angle_gamma	97.254334
loop_
_atom_site_label
_atom_site_type_symbol
_atom_site_fract_x
_atom_site_fract_y
_atom_site_fract_z
O1	O	0.641035	-0.067758	-0.049224
O2	O	0.891035	0.182242	0.200776
O3	O	1.141035	0.432242	0.450776
O4	O	1.391035	0.682242	0.700776
O5	O	0.500257	-0.078062	-0.049218
O6	O	0.750257	0.171938	0.200782
O7	O	1.000257	0.421938	0.450782
O8	O	1.250257	0.671938	0.700782
O9	O	0.574891	0.010031	-0.049210
O10	O	0.824891	0.260031	0.200790
O11	O	1.074891	0.510031	0.450790
O12	O	1.324891	0.760031	0.700790
O13	O	0.566401	-0.155851	-0.049232
O14	O	0.816401	0.094149	0.200768
O15	O	1.066401	0.344149	0.450768
O16	O	1.316401	0.594149	0.700768
O17	O	0.574878	0.010018	0.049159
O18	O	0.824878	0.260018	0.299159
O19	O	1.074878	0.510018	0.549159
O20	O	1.324878	0.760018	0.799159
O21	O	0.500244	-0.078075	0.049151
O22	O	0.750244	0.171925	0.299151
O23	O	1.000244	0.421925	0.549151
O24	O	1.250244	0.671925	0.799151
O25	O	0.641022	-0.067771	0.049145
O26	O	0.891022	0.182229	0.299145
O27	O	1.141022	0.432229	0.549145
O28	O	1.391022	0.682229	0.799145
Zn29	Zn	0.570631	-0.072925	0.064766
Zn30	Zn	0.820631	0.177075	0.314766
Zn31	Zn	1.070631	0.427075	0.564766
Zn32	Zn	1.320631	0.677075	0.814766
Zn33	Zn	0.570648	-0.072908	-0.064839
Zn34	Zn	0.820648	0.177092	0.185161
Zn35	Zn	1.070648	0.427092	0.435161
Zn36	Zn	1.320648	0.677092	0.685161
O37	O	0.566388	-0.155864	0.049137
O38	O	0.816388	0.094136	0.299137
O39	O	1.066388	0.344136	0.549137
O40	O	1.316388	0.594136	0.799137
C41	C	0.482243	-0.077852	-0.000033
C42	C	0.732243	0.172148	0.249967
C43	C	0.982243	0.422148	0.499967
C44	C	1.232243	0.672148	0.749967
C45	C	0.428587	-0.077201	-0.000031
C46	C	0.678587	0.172799	0.249969
C47	C	0.928587	0.422799	0.499969
C48	C	1.178587	0.672799	0.749969
C49	C	0.659035	-0.067981	-0.000041
C50	C	0.909035	0.182019	0.249959
C51	C	1.159035	0.432019	0.499959
C52	C	1.409035	0.682019	0.749959
C53	C	0.712691	-0.068632	-0.000048
C54	C	0.962691	0.181368	0.249952
C55	C	1.212691	0.431368	0.499952
C56	C	1.462691	0.681368	0.749952
C57	C	1.051433	-0.020675	-0.000021
C58	C	1.301433	0.229325	0.249979
C59	C	1.551433	0.479325	0.499979
C60	C	1.801433	0.729325	0.749979
C61	C	1.253096	-0.023092	-0.000020
C62	C	1.503096	0.226908	0.249980
C63	C	1.753096	0.476908	0.499980
C64	C	2.003096	0.726908	0.749980
O65	O	1.284284	0.020761	0.000011
O66	O	1.534284	0.270761	0.250011
O67	O	1.784284	0.520761	0.500011
O68	O	2.034284	0.770761	0.750011
N69	N	1.272300	-0.075327	-0.000028
N70	N	1.522300	0.174673	0.249972
N71	N	1.772300	0.424673	0.499972
N72	N	2.022300	0.674673	0.749972
C73	C	1.241085	-0.126962	-0.000033
C74	C	1.491085	0.123038	0.249967
C75	C	1.741085	0.373038	0.499967
C76	C	1.991085	0.623038	0.749967
O77	O	1.262046	-0.171447	-0.000034
O78	O	1.512046	0.078553	0.249966
O79	O	1.762046	0.328553	0.499966
O80	O	2.012046	0.578553	0.749966
C81	C	1.039422	-0.124545	-0.000030
C82	C	1.289422	0.125455	0.249970
C83	C	1.539422	0.375455	0.499970
C84	C	1.789422	0.625455	0.749970
C85	C	1.020221	-0.072306	-0.000028
C86	C	1.270221	0.177694	0.249972
C87	C	1.520221	0.427694	0.499972
C88	C	1.770221	0.677694	0.749972
C89	C	1.032231	0.031559	-0.000018
C90	C	1.282231	0.281559	0.249982
C91	C	1.532231	0.531559	0.499982
C92	C	1.782231	0.781559	0.749982
C93	C	0.981818	0.032163	-0.000022
C94	C	1.231818	0.282163	0.249978
C95	C	1.481818	0.532163	0.499978
C96	C	1.731818	0.782163	0.749978
C97	C	0.950607	-0.019468	-0.000028
C98	C	1.200607	0.230532	0.249972
C99	C	1.450607	0.480532	0.499972
C100	C	1.700607	0.730532	0.749972
C101	C	0.969809	-0.071703	-0.000032
C102	C	1.219809	0.178297	0.249968
C103	C	1.469809	0.428297	0.499968
C104	C	1.719809	0.678297	0.749968
C105	C	1.008208	-0.176179	-0.000031
C106	C	1.258208	0.073821	0.249969
C107	C	1.508208	0.323821	0.499969
C108	C	1.758208	0.573821	0.749969
C109	C	0.957790	-0.175570	-0.000029
C110	C	1.207790	0.074430	0.249971
C111	C	1.457790	0.324430	0.499971
C112	C	1.707790	0.574430	0.749971
C113	C	0.938589	-0.123332	-0.000027
C114	C	1.188589	0.126668	0.249973
C115	C	1.438589	0.376668	0.499973
C116	C	1.688589	0.626668	0.749973
C117	C	0.888184	-0.122730	-0.000042
C118	C	1.138184	0.127270	0.249958
C119	C	1.388184	0.377270	0.499958
C120	C	1.638184	0.627270	0.749958
N121	N	0.868980	-0.070495	-0.000034
N122	N	1.118980	0.179505	0.249966
N123	N	1.368980	0.429505	0.499966
N124	N	1.618980	0.679505	0.749966
C125	C	0.900192	-0.018864	-0.000027
C126	C	1.150192	0.231136	0.249973
C127	C	1.400192	0.481136	0.499973
C128	C	1.650192	0.731136	0.749973
C129	C	1.346961	-0.128227	-0.000036
C130	C	1.596961	0.121773	0.249964
C131	C	1.846961	0.371773	0.499964
C132	C	2.096961	0.621773	0.749964
C133	C	1.397376	-0.128832	-0.000037
C134	C	1.647376	0.121168	0.249963
C135	C	1.897376	0.371168	0.499963
C136	C	2.147376	0.621168	0.749963
C137	C	1.409384	-0.024961	-0.000023
C138	C	1.659384	0.225039	0.249977
C139	C	1.909384	0.475039	0.499977
C140	C	2.159384	0.725039	0.749977
C141	C	1.358968	-0.024358	-0.000025
C142	C	1.608968	0.225642	0.249975
C143	C	1.858968	0.475642	0.499975
C144	C	2.108968	0.725642	0.749975
C145	C	1.327757	-0.075992	-0.000027
C146	C	1.577757	0.174008	0.249973
C147	C	1.827757	0.424008	0.499973
C148	C	2.077757	0.674008	0.749973
C149	C	0.794320	-0.017600	-0.000035
C150	C	1.044320	0.232400	0.249965
C151	C	1.294320	0.482400	0.499965
C152	C	1.544320	0.732400	0.749965
C153	C	0.743903	-0.017001	-0.000041
C154	C	0.993903	0.232999	0.249959
C155	C	1.243903	0.482999	0.499959
C156	C	1.493903	0.732999	0.749959
C157	C	0.731899	-0.120871	-0.000052
C158	C	0.981899	0.129129	0.249948
C159	C	1.231899	0.379129	0.499948
C160	C	1.481899	0.629129	0.749948
C161	C	0.782313	-0.121471	-0.000049
C162	C	1.032313	0.128529	0.249951
C163	C	1.282313	0.378529	0.499951
C164	C	1.532313	0.628529	0.749951
C165	C	0.813523	-0.069831	-0.000039
C166	C	1.063523	0.180169	0.249961
C167	C	1.313523	0.430169	0.499961
C168	C	1.563523	0.680169	0.749961
O169	O	0.856968	-0.166560	-0.000066
O170	O	1.106968	0.083440	0.249934
O171	O	1.356968	0.333440	0.499934
O172	O	1.606968	0.583440	0.749934
O173	O	0.879221	0.025614	-0.000013
O174	O	1.129221	0.275614	0.249987
O175	O	1.379221	0.525614	0.499987
O176	O	1.629221	0.775614	0.749987
C177	C	1.101845	-0.021279	-0.000018
C178	C	1.351845	0.228721	0.249982
C179	C	1.601845	0.478721	0.499982
C180	C	1.851845	0.728721	0.749982
C181	C	1.121047	-0.073513	-0.000021
C182	C	1.371047	0.176487	0.249979
C183	C	1.621047	0.426487	0.499979
C184	C	1.871047	0.676487	0.749979
C185	C	1.089836	-0.125144	-0.000027
C186	C	1.339836	0.124856	0.249973
C187	C	1.589836	0.374856	0.499973
C188	C	1.839836	0.624856	0.749973
C189	C	1.171462	-0.074118	-0.000022
C190	C	1.421462	0.175882	0.249978
C191	C	1.671462	0.425882	0.499978
C192	C	1.921462	0.675882	0.749978
C193	C	1.202674	-0.022487	-0.000016
C194	C	1.452674	0.227513	0.249984
C195	C	1.702674	0.477513	0.499984
C196	C	1.952674	0.727513	0.749984
C197	C	1.183470	0.029748	-0.000007
C198	C	1.433470	0.279748	0.249993
C199	C	1.683470	0.529748	0.499993
C200	C	1.933470	0.779748	0.749993
C201	C	1.133057	0.030352	-0.000011
C202	C	1.383057	0.280352	0.249989
C203	C	1.633057	0.530352	0.499989
C204	C	1.883057	0.780352	0.749989
C205	C	1.109040	-0.177380	-0.000036
C206	C	1.359040	0.072620	0.249964
C207	C	1.609040	0.322620	0.499964
C208	C	1.859040	0.572620	0.749964
C209	C	1.159453	-0.177979	-0.000033
C210	C	1.409453	0.072021	0.249967
C211	C	1.659453	0.322021	0.499967
C212	C	1.909453	0.572021	0.749967
C213	C	1.190665	-0.126348	-0.000026
C214	C	1.440665	0.123652	0.249974
C215	C	1.690665	0.373652	0.499974
C216	C	1.940665	0.623652	0.749974
C217	C	0.574668	0.031240	-0.000024
C218	C	0.824668	0.281240	0.249976
C219	C	1.074668	0.531240	0.499976
C220	C	1.324668	0.781240	0.749976
C221	C	0.574018	0.094455	-0.000020
C222	C	0.824018	0.344455	0.249980
C223	C	1.074018	0.594455	0.499980
C224	C	1.324018	0.844455	0.749980
C225	C	0.566610	-0.177073	-0.000050
C226	C	0.816610	0.072927	0.249950
C227	C	1.066610	0.322927	0.499950
C228	C	1.316610	0.572927	0.749950
C229	C	0.567260	-0.240289	-0.000059
C230	C	0.817260	0.009711	0.249941
C231	C	1.067260	0.259711	0.499941
C232	C	1.317260	0.509711	0.749941
N233	N	0.570622	-0.072936	0.153219
N234	N	0.820622	0.177064	0.403219
N235	N	1.070622	0.427064	0.653219
N236	N	1.320622	0.677064	0.903219
C237	C	0.614108	0.493644	-0.000054
C238	C	0.864108	0.743644	0.249946
C239	C	1.114108	0.993644	0.499946
C240	C	1.364108	1.243644	0.749946
C241	C	0.613504	0.553043	-0.000058
C242	C	0.863504	0.803043	0.249942
C243	C	1.113504	1.053043	0.499942
C244	C	1.363504	1.303043	0.749942
O245	O	0.650668	0.589867	-0.000081
O246	O	0.900668	0.839867	0.249919
O247	O	1.150668	1.089867	0.499919
O248	O	1.400668	1.339867	0.749919
N249	N	0.569134	0.575574	-0.000056
N250	N	0.819134	0.825574	0.249944
N251	N	1.069134	1.075574	0.499944
N252	N	1.319134	1.325574	0.749944
C253	C	0.525365	0.538703	-0.000056
C254	C	0.775365	0.788703	0.249944
C255	C	1.025365	1.038703	0.499944
C256	C	1.275365	1.288703	0.749944
O257	O	0.487570	0.563322	-0.000055
O258	O	0.737570	0.813322	0.249945
O259	O	0.987570	1.063322	0.499945
O260	O	1.237570	1.313322	0.749945
C261	C	0.525970	0.479306	-0.000055
C262	C	0.775970	0.729306	0.249945
C263	C	1.025970	0.979306	0.499945
C264	C	1.275970	1.229306	0.749945
C265	C	0.570343	0.456778	-0.000051
C266	C	0.820343	0.706778	0.249949
C267	C	1.070343	0.956778	0.499949
C268	C	1.320343	1.206778	0.749949
C269	C	0.658477	0.471116	-0.000050
C270	C	0.908477	0.721116	0.249950
C271	C	1.158477	0.971116	0.499950
C272	C	1.408477	1.221116	0.749950
C273	C	0.659081	0.411721	-0.000045
C274	C	0.909081	0.661721	0.249955
C275	C	1.159081	0.911721	0.499955
C276	C	1.409081	1.161721	0.749955
C277	C	0.615315	0.374854	-0.000043
C278	C	0.865315	0.624854	0.249957
C279	C	1.115315	0.874854	0.499957
C280	C	1.365315	1.124854	0.749957
C281	C	0.570946	0.397383	-0.000046
C282	C	0.820946	0.647383	0.249954
C283	C	1.070946	0.897383	0.499954
C284	C	1.320946	1.147383	0.749954
C285	C	0.482201	0.442436	-0.000059
C286	C	0.732201	0.692436	0.249941
C287	C	0.982201	0.942436	0.499941
C288	C	1.232201	1.192436	0.749941
C289	C	0.482810	0.383035	-0.000059
C290	C	0.732810	0.633035	0.249941
C291	C	0.982810	0.883035	0.499941
C292	C	1.232810	1.133035	0.749941
C293	C	0.527182	0.360507	-0.000055
C294	C	0.777182	0.610507	0.249945
C295	C	1.027182	0.860507	0.499945
C296	C	1.277182	1.110507	0.749945
C297	C	0.527784	0.301122	-0.000038
C298	C	0.777784	0.551122	0.249962
C299	C	1.027784	0.801122	0.499962
C300	C	1.277784	1.051122	0.749962
N301	N	0.572154	0.278590	-0.000040
N302	N	0.822154	0.528590	0.249960
N303	N	1.072154	0.778590	0.499960
N304	N	1.322154	1.028590	0.749960
C305	C	0.615920	0.315457	-0.000042
C306	C	0.865920	0.565457	0.249958
C307	C	1.115920	0.815457	0.499958
C308	C	1.365920	1.065457	0.749958
C309	C	0.524100	0.663443	-0.000057
C310	C	0.774100	0.913443	0.249943
C311	C	1.024100	1.163443	0.499943
C312	C	1.274100	1.413443	0.749943
C313	C	0.523495	0.722840	-0.000053
C314	C	0.773495	0.972840	0.249947
C315	C	1.023495	1.222840	0.499947
C316	C	1.273495	1.472840	0.749947
C317	C	0.611634	0.737175	-0.000057
C318	C	0.861634	0.987175	0.249943
C319	C	1.111634	1.237175	0.499943
C320	C	1.361634	1.487175	0.749943
C321	C	0.612238	0.677778	-0.000057
C322	C	0.862238	0.927778	0.249943
C323	C	1.112238	1.177778	0.499943
C324	C	1.362238	1.427778	0.749943
C325	C	0.568469	0.640912	-0.000059
C326	C	0.818469	0.890912	0.249941
C327	C	1.068469	1.140912	0.499941
C328	C	1.318469	1.390912	0.749941
C329	C	0.617184	0.190723	-0.000030
C330	C	0.867184	0.440723	0.249970
C331	C	1.117184	0.690723	0.499970
C332	C	1.367184	0.940723	0.749970
C333	C	0.617784	0.131322	-0.000022
C334	C	0.867784	0.381322	0.249978
C335	C	1.117784	0.631322	0.499978
C336	C	1.367784	0.881322	0.749978
C337	C	0.529645	0.116991	-0.000021
C338	C	0.779645	0.366991	0.249979
C339	C	1.029645	0.616991	0.499979
C340	C	1.279645	0.866991	0.749979
C341	C	0.529045	0.176387	-0.000026
C342	C	0.779045	0.426387	0.249974
C343	C	1.029045	0.676387	0.499974
C344	C	1.279045	0.926387	0.749974
C345	C	0.572818	0.213252	-0.000033
C346	C	0.822818	0.463252	0.249967
C347	C	1.072818	0.713252	0.499967
C348	C	1.322818	0.963252	0.749967
O349	O	0.490640	0.264263	-0.000017
O350	O	0.740640	0.514263	0.249983
O351	O	0.990640	0.764263	0.499983
O352	O	1.240640	1.014263	0.749983
O353	O	0.653709	0.290829	-0.000051
O354	O	0.903709	0.540829	0.249949
O355	O	1.153709	0.790829	0.499949
O356	O	1.403709	1.040829	0.749949
N357	N	0.570660	-0.072892	-0.153292
N358	N	0.820660	0.177108	0.096708
N359	N	1.070660	0.427108	0.346708
N360	N	1.320660	0.677108	0.596708
C361	C	0.603697	-0.033907	0.561864
C362	C	0.853697	0.216093	0.811864
C363	C	1.103697	0.466093	1.061864
C364	C	1.353697	0.716093	1.311864
C365	C	0.603700	-0.033902	0.623784
C366	C	0.853700	0.216098	0.873784
C367	C	1.103700	0.466098	1.123784
C368	C	1.353700	0.716098	1.373784
O369	O	0.631801	-0.000727	0.655805
O370	O	0.881801	0.249273	0.905805
O371	O	1.131801	0.499273	1.155805
O372	O	1.381801	0.749273	1.405805
N373	N	0.570648	-0.072896	0.654756
N374	N	0.820648	0.177104	0.904756
N375	N	1.070648	0.427104	1.154756
N376	N	1.320648	0.677104	1.404756
C377	C	0.537588	-0.111893	0.623805
C378	C	0.787588	0.138107	0.873805
C379	C	1.037588	0.388107	1.123805
C380	C	1.287588	0.638107	1.373805
O381	O	0.509474	-0.145060	0.655835
O382	O	0.759474	0.104940	0.905835
O383	O	1.009474	0.354940	1.155835
O384	O	1.259474	0.604940	1.405835
C385	C	0.537583	-0.111894	0.561886
C386	C	0.787583	0.138106	0.811886
C387	C	1.037583	0.388106	1.061886
C388	C	1.287583	0.638106	1.311886
C389	C	0.570641	-0.072901	0.530917
C390	C	0.820641	0.177099	0.780917
C391	C	1.070641	0.427099	1.030917
C392	C	1.320641	0.677099	1.280917
C393	C	0.636752	0.005083	0.530895
C394	C	0.886752	0.255083	0.780895
C395	C	1.136752	0.505083	1.030895
C396	C	1.386752	0.755083	1.280895
C397	C	0.636750	0.005078	0.468979
C398	C	0.886750	0.255078	0.718979
C399	C	1.136750	0.505078	0.968979
C400	C	1.386750	0.755078	1.218979
C401	C	0.603693	-0.033917	0.438032
C402	C	0.853693	0.216083	0.688032
C403	C	1.103693	0.466083	0.938032
C404	C	1.353693	0.716083	1.188032
C405	C	0.570639	-0.072906	0.469002
C406	C	0.820639	0.177094	0.719002
C407	C	1.070639	0.427094	0.969002
C408	C	1.320639	0.677094	1.219002
C409	C	0.504521	-0.150887	0.530937
C410	C	0.754521	0.099113	0.780937
C411	C	1.004521	0.349113	1.030937
C412	C	1.254521	0.599113	1.280937
C413	C	0.504519	-0.150885	0.469014
C414	C	0.754519	0.099115	0.719014
C415	C	1.004519	0.349115	0.969014
C416	C	1.254519	0.599115	1.219014
C417	C	0.537577	-0.111892	0.438044
C418	C	0.787577	0.138108	0.688044
C419	C	1.037577	0.388108	0.938044
C420	C	1.287577	0.638108	1.188044
C421	C	0.537580	-0.111906	0.376139
C422	C	0.787580	0.138094	0.626139
C423	C	1.037580	0.388094	0.876139
C424	C	1.287580	0.638094	1.126139
N425	N	0.570632	-0.072912	0.345167
N426	N	0.820632	0.177088	0.595167
N427	N	1.070632	0.427088	0.845167
N428	N	1.320632	0.677088	1.095167
C429	C	0.603689	-0.033918	0.376114
C430	C	0.853689	0.216082	0.626114
C431	C	1.103689	0.466082	0.876114
C432	C	1.353689	0.716082	1.126114
C433	C	0.537599	-0.111887	0.753839
C434	C	0.787599	0.138113	1.003839
C435	C	1.037599	0.388113	1.253839
C436	C	1.287599	0.638113	1.503839
C437	C	0.537605	-0.111889	0.815756
C438	C	0.787605	0.138111	1.065756
C439	C	1.037605	0.388111	1.315756
C440	C	1.287605	0.638111	1.565756
C441	C	0.603717	-0.033898	0.815731
C442	C	0.853717	0.216102	1.065731
C443	C	1.103717	0.466102	1.315731
C444	C	1.353717	0.716102	1.565731
C445	C	0.603713	-0.033899	0.753812
C446	C	0.853713	0.216101	1.003812
C447	C	1.103713	0.466101	1.253812
C448	C	1.353713	0.716101	1.503812
C449	C	0.570651	-0.072893	0.722866
C450	C	0.820651	0.177107	0.972866
C451	C	1.070651	0.427107	1.222866
C452	C	1.320651	0.677107	1.472866
C453	C	0.603683	-0.033931	0.246086
C454	C	0.853683	0.216069	0.496086
C455	C	1.103683	0.466069	0.746086
C456	C	1.353683	0.716069	0.996086
C457	C	0.603679	-0.033941	0.184165
C458	C	0.853679	0.216059	0.434165
C459	C	1.103679	0.466059	0.684165
C460	C	1.353679	0.716059	0.934165
C461	C	0.537566	-0.111931	0.184196
C462	C	0.787566	0.138069	0.434196
C463	C	1.037566	0.388069	0.684196
C464	C	1.287566	0.638069	0.934196
C465	C	0.537571	-0.111923	0.246112
C466	C	0.787571	0.138077	0.496112
C467	C	1.037571	0.388077	0.746112
C468	C	1.287571	0.638077	0.996112
C469	C	0.570631	-0.072918	0.277055
C470	C	0.820631	0.177082	0.527055
C471	C	1.070631	0.427082	0.777055
C472	C	1.320631	0.677082	1.027055
O473	O	0.509492	-0.145064	0.344078
O474	O	0.759492	0.104936	0.594078
O475	O	1.009492	0.354936	0.844078
O476	O	1.259492	0.604936	1.094078
O477	O	0.631794	-0.000752	0.344076
O478	O	0.881794	0.249248	0.594076
O479	O	1.131794	0.499248	0.844076
O480	O	1.381794	0.749248	1.094076
H481	H	0.728272	0.025540	-0.000041
H482	H	0.978272	0.275540	0.249959
H483	H	1.228272	0.525540	0.499959
H484	H	1.478272	0.775540	0.749959
H485	H	0.630633	-0.002145	0.840938
H486	H	0.880633	0.247855	1.090938
H487	H	1.130633	0.497855	1.340938
H488	H	1.380633	0.747855	1.590938
F489	F	0.659465	0.653808	-0.000053
F490	F	0.909465	0.903808	0.249947
F491	F	1.159465	1.153808	0.499947
F492	F	1.409465	1.403808	0.749947
H493	H	0.494012	0.086964	-0.000017
H494	H	0.744012	0.336964	0.249983
H495	H	0.994012	0.586964	0.499983
H496	H	1.244012	0.836964	0.749983
F497	F	0.671932	0.046582	0.436025
F498	F	0.921932	0.296582	0.686025
F499	F	1.171932	0.546582	0.936025
F500	F	1.421932	0.796582	1.186025
H501	H	0.630600	-0.002189	0.158952
H502	H	0.880600	0.247811	0.408952
H503	H	1.130600	0.497811	0.658952
H504	H	1.380600	0.747811	0.908952
H505	H	0.510653	-0.143681	0.158990
H506	H	0.760653	0.106319	0.408990
H507	H	1.010653	0.356319	0.658990
H508	H	1.260653	0.606319	0.908990
F509	F	0.638869	0.007582	0.279010
F510	F	0.888869	0.257582	0.529010
F511	F	1.138869	0.507582	0.779010
F512	F	1.388869	0.757582	1.029010
F513	F	0.663773	0.229949	-0.000037
F514	F	0.913773	0.479949	0.249963
F515	F	1.163773	0.729949	0.499963
F516	F	1.413773	0.979949	0.749963
F517	F	0.671938	0.046591	0.563822
F518	F	0.921938	0.296591	0.813822
F519	F	1.171938	0.546591	1.063822
F520	F	1.421938	0.796591	1.313822
H521	H	0.630631	-0.002148	0.728600
H522	H	0.880631	0.247852	0.978600
H523	H	1.130631	0.497852	1.228600
H524	H	1.380631	0.747852	1.478600
F525	F	0.502427	-0.153397	0.848710
F526	F	0.752427	0.096603	1.098710
F527	F	1.002427	0.346603	1.348710
F528	F	1.252427	0.596603	1.598710
F529	F	0.502411	-0.153397	0.720909
F530	F	0.752411	0.096603	0.970909
F531	F	1.002411	0.346603	1.220909
F532	F	1.252411	0.596603	1.470909
F533	F	0.469336	-0.192388	0.563885
F534	F	0.719336	0.057612	0.813885
F535	F	0.969336	0.307612	1.063885
F536	F	1.219336	0.557612	1.313885
F537	F	0.502392	-0.153430	0.279071
F538	F	0.752392	0.096570	0.529071
F539	F	1.002392	0.346570	0.779071
F540	F	1.252392	0.596570	1.029071
F541	F	0.827529	0.037361	-0.000024
F542	F	1.077529	0.287361	0.249976
F543	F	1.327529	0.537361	0.499976
F544	F	1.577529	0.787361	0.749976
F545	F	0.961390	0.087763	-0.000024
F546	F	1.211390	0.337763	0.249976
F547	F	1.461390	0.587763	0.499976
F548	F	1.711390	0.837763	0.749976
F549	F	0.469328	-0.192388	0.436083
F550	F	0.719328	0.057612	0.686083
F551	F	0.969328	0.307612	0.936083
F552	F	1.219328	0.557612	1.186083
H553	H	1.057639	0.073606	-0.000011
H554	H	1.307639	0.323606	0.249989
H555	H	1.557639	0.573606	0.499989
H556	H	1.807639	0.823606	0.749989
H557	H	0.653919	0.112983	-0.000017
H558	H	0.903919	0.362983	0.249983
H559	H	1.153919	0.612983	0.499983
H560	H	1.403919	0.862983	0.749983
F561	F	1.442610	0.029988	-0.000017
F562	F	1.692610	0.279988	0.249983
F563	F	1.942610	0.529988	0.499983
F564	F	2.192610	0.779988	0.749983
F565	F	1.338537	0.031241	-0.000021
F566	F	1.588537	0.281241	0.249979
F567	F	1.838537	0.531241	0.499979
F568	F	2.088537	0.781241	0.749979
F569	F	0.706309	0.387753	-0.000054
F570	F	0.956309	0.637753	0.249946
F571	F	1.206309	0.887753	0.499946
F572	F	1.456309	1.137753	0.749946
H573	H	0.487362	0.741176	-0.000046
H574	H	0.737362	0.991176	0.249954
H575	H	0.987362	1.241176	0.499954
H576	H	1.237362	1.491176	0.749954
H577	H	1.413005	-0.171370	-0.000048
H578	H	1.663005	0.078630	0.249952
H579	H	1.913005	0.328630	0.499952
H580	H	2.163005	0.578630	0.749952
H581	H	0.488456	0.633430	-0.000054
H582	H	0.738456	0.883430	0.249946
H583	H	0.988456	1.133430	0.499946
H584	H	1.238456	1.383430	0.749946
F585	F	1.313749	-0.183188	-0.000041
F586	F	1.563749	0.066812	0.249959
F587	F	1.813749	0.316812	0.499959
F588	F	2.063749	0.566812	0.749959
H589	H	0.694118	0.501127	-0.000055
H590	H	0.944118	0.751127	0.249945
H591	H	1.194118	1.001127	0.499945
H592	H	1.444118	1.251127	0.749945
H593	H	0.932380	-0.217619	-0.000028
H594	H	1.182380	0.032381	0.249972
H595	H	1.432380	0.282381	0.499972
H596	H	1.682380	0.532381	0.749972
F597	F	1.028632	-0.231780	-0.000034
F598	F	1.278632	0.018220	0.249966
F599	F	1.528632	0.268220	0.499966
F600	F	1.778632	0.518220	0.749966
H601	H	0.492913	0.194730	-0.000013
H602	H	0.742913	0.444730	0.249987
H603	H	0.992913	0.694730	0.499987
H604	H	1.242913	0.944730	0.749987
H605	H	0.797947	-0.164008	-0.000052
H606	H	1.047947	0.085992	0.249948
H607	H	1.297947	0.335992	0.499948
H608	H	1.547947	0.585992	0.749948
H609	H	0.706478	-0.162908	-0.000061
H610	H	0.956478	0.087092	0.249939
H611	H	1.206478	0.337092	0.499939
H612	H	1.456478	0.587092	0.749939
H613	H	1.117428	0.072890	-0.000009
H614	H	1.367428	0.322890	0.249991
H615	H	1.617428	0.572890	0.499991
H616	H	1.867428	0.822890	0.749991
F617	F	1.216696	0.084698	-0.000003
F618	F	1.466696	0.334698	0.249997
F619	F	1.716696	0.584698	0.499997
F620	F	1.966696	0.834698	0.749997
H621	H	1.175082	-0.220521	-0.000039
H622	H	1.425082	0.029479	0.249961
H623	H	1.675082	0.279479	0.499961
H624	H	1.925082	0.529479	0.749961
H625	H	1.083632	-0.219425	-0.000041
H626	H	1.333632	0.030575	0.249959
H627	H	1.583632	0.280575	0.499959
H628	H	1.833632	0.530575	0.749959
F629	F	0.434973	0.466398	-0.000066
F630	F	0.684973	0.716398	0.249934
F631	F	0.934973	0.966398	0.499934
F632	F	1.184973	1.216398	0.749934
H633	H	0.647270	0.767203	-0.000061
H634	H	0.897270	1.017203	0.249939
H635	H	1.147270	1.267203	0.499939
H636	H	1.397270	1.517203	0.749939
F637	F	0.436224	0.343802	-0.000063
F638	F	0.686224	0.593802	0.249937
F639	F	0.936224	0.843802	0.499937
F640	F	1.186224	1.093802	0.749937
