data_functionalizedCrystal
_audit_creation_method	'MofGen! by Chris Wilmer'
_symmetry_space_group_name_H-M	'P1'
_symmetry_Int_Tables_number	1
_symmetry_cell_setting	triclinic
loop_
_symmetry_equiv_pos_as_xyz
  x,y,z
_cell_length_a	27.731994
_cell_length_b	27.731996
_cell_length_c	15.021413
_cell_angle_alpha	89.998029
_cell_angle_beta	89.998844
_cell_angle_gamma	82.620961
loop_
_atom_site_label
_atom_site_type_symbol
_atom_site_fract_x
_atom_site_fract_y
_atom_site_fract_z
O1	O	0.640936	0.057387	-0.073916
O2	O	0.500137	0.066160	-0.073948
O3	O	0.574923	-0.008626	-0.073912
O4	O	0.566151	0.132173	-0.073952
O5	O	0.574911	-0.008615	0.074152
O6	O	0.500126	0.066171	0.074116
O7	O	0.640924	0.057398	0.074148
Zn8	Zn	0.570523	0.061786	0.097641
Zn9	Zn	0.570539	0.061772	-0.097440
O10	O	0.566139	0.132184	0.074112
C11	C	0.482124	0.065986	0.000081
C12	C	0.428468	0.065443	0.000070
C13	C	0.095744	0.062033	0.080815
C14	C	-0.105914	0.059972	0.080825
O15	O	-0.131992	0.059689	0.149466
N16	N	-0.131122	0.059710	0.000116
C17	C	-0.105913	0.059960	-0.080602
O18	O	-0.131980	0.059685	-0.149251
C19	C	0.095745	0.062018	-0.080612
C20	C	0.120950	0.062285	0.000103
C21	C	0.120949	0.062299	0.161523
C22	C	0.171360	0.062818	0.161520
C23	C	0.196566	0.063069	0.080808
C24	C	0.171361	0.062803	0.000099
C25	C	0.120954	0.062265	-0.161329
C26	C	0.171372	0.062779	-0.161324
C27	C	0.196577	0.063045	-0.080610
C28	C	0.246978	0.063573	-0.080616
N29	N	0.272186	0.063835	0.000094
C30	C	0.246980	0.063583	0.080806
C31	C	-0.211786	0.058881	-0.080591
C32	C	-0.262200	0.058367	-0.080589
C33	C	-0.262198	0.058377	0.080839
C34	C	-0.211783	0.058895	0.080836
C35	C	-0.186578	0.059142	0.000118
C36	C	0.352847	0.064671	0.080792
C37	C	0.403262	0.065191	0.080781
C38	C	0.403256	0.065178	-0.080646
C39	C	0.352845	0.064661	-0.080636
C40	C	0.327642	0.064406	0.000090
O41	O	0.273088	0.063850	-0.149220
O42	O	0.273058	0.063847	0.149444
C43	C	0.045333	0.061515	0.080818
C44	C	0.020127	0.061249	0.000110
C45	C	0.045333	0.061501	-0.080602
C46	C	-0.030287	0.060735	0.000112
C47	C	-0.055493	0.060484	0.080824
C48	C	-0.030284	0.060745	0.161534
C49	C	0.020127	0.061263	0.161530
C50	C	0.020125	0.061239	-0.161312
C51	C	-0.030286	0.060721	-0.161302
C52	C	-0.055492	0.060470	-0.080590
C53	C	0.574737	-0.026628	0.000123
C54	C	0.574194	-0.080284	0.000132
C55	C	0.570786	-0.413005	-0.080622
C56	C	0.568725	-0.614663	-0.080638
O57	O	0.568443	-0.640739	-0.149279
N58	N	0.568462	-0.639874	0.000071
C59	C	0.568712	-0.614668	0.080790
O60	O	0.568436	-0.640738	0.149437
C61	C	0.570769	-0.413010	0.080805
C62	C	0.571037	-0.387802	0.000091
C63	C	0.571053	-0.387797	-0.161330
C64	C	0.571570	-0.337386	-0.161325
C65	C	0.571821	-0.312183	-0.080612
C66	C	0.571555	-0.337391	0.000096
C67	C	0.571016	-0.387804	0.161523
C68	C	0.571529	-0.337386	0.161519
C69	C	0.571796	-0.312178	0.080805
C70	C	0.572324	-0.261777	0.080813
N71	N	0.572586	-0.236566	0.000104
C72	C	0.572335	-0.261769	-0.080609
C73	C	0.567632	-0.720541	0.080776
C74	C	0.567119	-0.770955	0.080773
C75	C	0.567131	-0.770947	-0.080656
C76	C	0.567648	-0.720532	-0.080651
C77	C	0.567895	-0.695329	0.000067
C78	C	0.573423	-0.155902	-0.080592
C79	C	0.573943	-0.105487	-0.080580
C80	C	0.573928	-0.105499	0.080847
C81	C	0.573411	-0.155910	0.080836
C82	C	0.573157	-0.181110	0.000109
O83	O	0.572600	-0.235670	0.149418
O84	O	0.572600	-0.235688	-0.149246
C85	C	0.570268	-0.463416	-0.080627
C86	C	0.570001	-0.488624	0.000081
C87	C	0.570252	-0.463421	0.080794
C88	C	0.569487	-0.539039	0.000077
C89	C	0.569236	-0.564242	-0.080635
C90	C	0.569499	-0.539030	-0.161344
C91	C	0.570017	-0.488619	-0.161339
C92	C	0.569990	-0.488633	0.161502
C93	C	0.569472	-0.539044	0.161491
C94	C	0.569221	-0.564247	0.080779
C95	C	0.658938	0.057573	0.000117
C96	C	0.712594	0.058115	0.000123
C97	C	0.566325	0.150186	0.000075
C98	C	0.566868	0.203842	0.000060
N99	N	0.570516	0.061795	0.230778
N100	N	0.570550	0.061759	-0.230578
C101	C	0.535930	0.096360	0.470445
C102	C	0.579539	0.105408	0.529786
C103	C	0.570528	0.061783	0.412385
C104	C	0.526932	0.052746	0.529786
C105	C	0.570537	0.061773	0.587809
C106	C	0.614159	0.070852	0.470420
C107	C	0.561523	0.018172	0.470414
C108	C	0.605164	0.027201	0.529729
C109	C	0.570523	0.061791	0.311328
C110	C	0.570547	0.061765	0.688864
H111	H	0.191891	0.062981	-0.227056
H112	H	0.569297	-0.559560	-0.227063
H113	H	0.570195	-0.468118	0.227230
H114	H	0.191878	0.063032	0.227246
H115	H	0.570846	-0.408312	-0.227059
O116	O	0.573240	-0.180435	-0.158957
C117	C	0.614829	-0.215388	-0.163806
H118	H	0.628708	-0.224890	-0.093730
H119	H	0.605048	-0.249527	-0.197993
H120	H	0.644359	-0.200013	-0.203616
O121	O	0.567814	-0.696061	-0.159084
C122	C	0.525816	-0.702602	-0.208193
H123	H	0.496402	-0.712406	-0.160963
H124	H	0.512093	-0.667508	-0.244822
H125	H	0.534991	-0.733183	-0.258504
O126	O	-0.286695	0.058041	0.159222
C127	C	-0.310065	0.015866	0.164034
H128	H	-0.290815	-0.013248	0.118231
H129	H	-0.308693	0.001799	0.235418
H130	H	-0.349583	0.024943	0.142345
O131	O	0.658159	0.080097	0.439580
C132	C	0.667641	0.125937	0.470574
H133	H	0.645379	0.135900	0.533233
H134	H	0.707989	0.124477	0.486551
H135	H	0.657223	0.154502	0.417004
H136	H	-0.191268	0.059082	-0.146325
H137	H	0.332320	0.064451	-0.146361
O138	O	0.096556	0.061980	-0.239817
C139	C	0.129623	0.062319	-0.311043
H140	H	0.167678	0.047385	-0.287359
H141	H	0.118318	0.038681	-0.367482
H142	H	0.129612	0.101166	-0.335886
O143	O	-0.187310	0.059063	0.159264
C144	C	-0.193847	0.017066	0.208385
H145	H	-0.203651	-0.012351	0.161165
H146	H	-0.158749	0.003346	0.245006
H147	H	-0.224424	0.026241	0.258704
H148	H	0.567836	-0.700026	0.146510
O149	O	0.640171	-0.007640	0.560554
C150	C	0.686048	0.002061	0.530122
H151	H	0.684357	0.042359	0.513557
H152	H	0.714386	-0.007890	0.584270
H153	H	0.696501	-0.020442	0.467932
H154	H	0.553885	-0.018692	0.444315
H155	H	0.566927	-0.791476	-0.146375
H156	H	0.423781	0.065410	0.146512
H157	H	0.490059	0.045108	0.555865
O158	O	0.044640	0.061401	-0.239696
C159	C	0.079612	0.019827	-0.244521
H160	H	0.068480	-0.009602	-0.198712
H161	H	0.082127	0.005774	-0.315906
H162	H	0.116509	0.029691	-0.222850
O163	O	0.588648	0.149363	0.561058
C164	C	0.588950	0.148602	0.654909
H165	H	0.597130	0.109446	0.679120
H166	H	0.618091	0.170577	0.680570
H167	H	0.551872	0.165168	0.680927
H168	H	0.332332	0.064468	0.146527
H169	H	0.423787	0.065385	-0.146360
O170	O	0.566844	-0.795362	0.159258
C171	C	0.567187	-0.762302	0.230491
H172	H	0.552246	-0.724246	0.206820
H173	H	0.543555	-0.773615	0.286937
H174	H	0.606035	-0.762311	0.255319
O175	O	0.501111	0.131332	0.439422
C176	C	0.510792	0.177245	0.469694
H177	H	0.551079	0.175573	0.486336
H178	H	0.500880	0.205518	0.415419
H179	H	0.488246	0.187773	0.531804
H180	H	0.100432	0.062093	0.227252
H181	H	-0.282719	0.058157	-0.146315
O182	O	0.574098	-0.081051	0.159300
C183	C	0.532073	-0.087559	0.208362
H184	H	0.517747	-0.122236	0.185416
H185	H	0.541456	-0.090576	0.282208
H186	H	0.503035	-0.055130	0.197135
O187	O	0.044536	0.061497	0.240017
C188	C	0.011468	0.061175	0.311246
H189	H	-0.022347	0.045497	0.287578
H190	H	0.029279	0.037850	0.367706
H191	H	0.000732	0.099918	0.336052
O192	O	0.570732	-0.412205	0.240010
C193	C	0.571072	-0.379141	0.311237
H194	H	0.556135	-0.341085	0.287556
H195	H	0.547435	-0.390449	0.367679
H196	H	0.609919	-0.379151	0.336073
H197	H	-0.050804	0.060508	-0.227034
O198	O	-0.054783	0.060413	0.239916
C199	C	-0.078153	0.018237	0.244736
H200	H	-0.058901	-0.010880	0.198941
H201	H	-0.076783	0.004175	0.316123
H202	H	-0.117670	0.027312	0.223041
H203	H	0.574162	-0.084965	-0.146310
H204	H	0.571723	-0.316868	0.227251
O205	O	0.571802	-0.312973	-0.239811
C206	C	0.571480	-0.346039	-0.311041
H207	H	0.555804	-0.379855	-0.287371
H208	H	0.548152	-0.328226	-0.367496
H209	H	0.610222	-0.356772	-0.335854
H210	H	0.573198	-0.176436	0.146560
H211	H	0.570234	-0.468099	-0.227065
H212	H	0.569258	-0.559564	0.227223
