data_functionalizedCrystal
_audit_creation_method	'MofGen! by Chris Wilmer'
_symmetry_space_group_name_H-M	'P1'
_symmetry_Int_Tables_number	1
_symmetry_cell_setting	triclinic
loop_
_symmetry_equiv_pos_as_xyz
  x,y,z
_cell_length_a	18.050591
_cell_length_b	18.215405
_cell_length_c	18.215399
_cell_angle_alpha	90.030551
_cell_angle_beta	89.974300
_cell_angle_gamma	89.979109
loop_
_atom_site_label
_atom_site_type_symbol
_atom_site_fract_x
_atom_site_fract_y
_atom_site_fract_z
Zn1	Zn	1.135345	0.293070	-0.416218
Zn2	Zn	1.135252	0.416141	-0.293146
Zn3	Zn	1.011154	0.293085	-0.293152
Zn4	Zn	1.011119	0.416091	-0.416158
O5	O	1.073217	0.354597	-0.354669
O6	O	1.239257	0.309411	-0.399914
O7	O	1.118766	0.399845	-0.190162
O8	O	1.027681	0.190099	-0.309505
O9	O	1.239189	0.399831	-0.309494
O10	O	1.118924	0.190088	-0.399921
O11	O	1.027591	0.309436	-0.190167
O12	O	0.907224	0.309387	-0.309447
O13	O	1.027622	0.399745	-0.519150
O14	O	0.907199	0.399759	-0.399819
O15	O	1.118890	0.309362	-0.519194
O16	O	1.118733	0.519119	-0.309436
O17	O	1.027533	0.519082	-0.399813
C18	C	0.880265	0.354569	-0.354628
C19	C	0.797720	0.354575	-0.354628
C20	C	1.073139	0.545803	-0.354633
C21	C	1.073173	0.627602	-0.354643
C22	C	1.073263	0.354546	-0.546622
C23	C	1.073282	0.354524	-0.628420
C24	C	0.598261	0.305374	-0.305597
C25	C	0.548844	0.372499	-0.287483
C26	C	0.646589	0.354598	-0.354661
C27	C	0.548925	0.287496	-0.372773
C28	C	0.500604	0.354613	-0.354692
C29	C	0.598259	0.421758	-0.336512
C30	C	0.598344	0.336710	-0.421833
C31	C	0.548949	0.403881	-0.403745
C32	C	0.730687	0.354588	-0.354642
C33	C	0.416508	0.354631	-0.354712
C34	C	1.266923	0.354625	-0.354710
C35	C	1.349469	0.354637	-0.354727
C36	C	1.073316	0.162644	-0.354720
C37	C	1.073359	0.080845	-0.354742
C38	C	1.120773	0.815791	-0.307670
C39	C	1.120806	0.892650	-0.307688
C40	C	1.025757	0.892651	-0.401720
C41	C	1.025728	0.815794	-0.401705
C42	C	1.073235	0.777365	-0.354676
C43	C	1.073297	0.931082	-0.354709
C44	C	1.073333	1.014415	-0.354728
C45	C	1.073201	0.694027	-0.354657
C46	C	1.120822	0.307418	-0.816639
C47	C	1.120831	0.307397	-0.893497
C48	C	1.025794	0.401517	-0.893440
C49	C	1.025782	0.401534	-0.816583
C50	C	1.073300	0.354486	-0.778184
C51	C	1.073321	0.354447	-0.931900
C52	C	1.073331	0.354424	-1.015234
C53	C	1.073290	0.354508	-0.694845
C54	C	1.073215	0.354594	-0.163462
C55	C	1.073340	0.354409	-0.081664
H56	H	0.527102	0.387640	-0.230690
C57	C	1.015404	0.500542	-0.730108
C58	C	0.973544	0.453275	-0.774305
H59	H	0.983153	0.532478	-0.704004
H60	H	1.047742	0.528690	-0.760091
H61	H	1.043696	0.472513	-0.696245
H62	H	0.945255	0.481304	-0.808172
H63	H	0.941192	0.425124	-0.744319
C64	C	0.545725	0.191661	-0.463273
C65	C	0.519666	0.210885	-0.393444
H66	H	0.527658	0.144366	-0.476030
H67	H	0.598340	0.190993	-0.462966
H68	H	0.528839	0.226584	-0.498184
H69	H	0.536557	0.175966	-0.358533
H70	H	0.467040	0.211548	-0.393746
C71	C	0.602505	0.268162	-0.179236
C72	C	0.627498	0.249240	-0.249528
H73	H	0.620559	0.233511	-0.144622
H74	H	0.549889	0.268091	-0.178556
H75	H	0.620128	0.315714	-0.166854
H76	H	0.609870	0.201689	-0.261912
H77	H	0.680125	0.249303	-0.250210
C78	C	1.214731	0.823512	-0.214730
C79	C	1.172997	0.773550	-0.255982
H80	H	1.246976	0.797434	-0.182824
H81	H	1.182404	0.853532	-0.186553
H82	H	1.243127	0.853446	-0.246840
H83	H	1.144597	0.743619	-0.223873
H84	H	1.205328	0.743518	-0.284162
C85	C	1.220794	0.978948	-0.297646
C86	C	1.173110	0.934859	-0.256043
H87	H	1.253103	1.004993	-0.265769
H88	H	1.192508	1.012855	-0.325621
H89	H	1.249118	0.948892	-0.329755
H90	H	1.144782	0.964915	-0.223938
H91	H	1.201399	0.900948	-0.228056
H92	H	0.987108	0.439824	-0.924714
C93	C	0.704955	0.497683	-0.315896
C94	C	0.627385	0.498395	-0.315755
H95	H	0.722935	0.544994	-0.303076
H96	H	0.722310	0.484896	-0.363449
H97	H	0.722226	0.462684	-0.281249
H98	H	0.610114	0.533391	-0.350407
H99	H	0.610023	0.511191	-0.268196
C100	C	0.983590	1.010469	-0.443488
C101	C	0.973532	0.934894	-0.453405
H102	H	0.951342	1.036545	-0.475393
H103	H	1.033480	1.023018	-0.454318
H104	H	0.972758	1.023099	-0.394029
H105	H	0.984369	0.922263	-0.502863
H106	H	0.923631	0.922339	-0.442580
H107	H	0.527434	0.445563	-0.445250
H108	H	0.987017	0.784506	-0.439987
H109	H	1.159513	0.269106	-0.785376
C110	C	0.705293	0.317115	-0.497782
C111	C	0.627729	0.316243	-0.498477
H112	H	0.723434	0.304477	-0.545099
H113	H	0.722903	0.282632	-0.462796
H114	H	0.722145	0.364834	-0.484990
H115	H	0.610877	0.268523	-0.511264
H116	H	0.610112	0.350727	-0.533474
H117	H	1.159527	0.269068	-0.924803
