data_functionalizedCrystal
_audit_creation_method	'MofGen! by Chris Wilmer'
_symmetry_space_group_name_H-M	'P1'
_symmetry_Int_Tables_number	1
_symmetry_cell_setting	triclinic
loop_
_symmetry_equiv_pos_as_xyz
  x,y,z
_cell_length_a	19.121275
_cell_length_b	25.639240
_cell_length_c	19.120904
_cell_angle_alpha	87.592153
_cell_angle_beta	94.963872
_cell_angle_gamma	92.395078
loop_
_atom_site_label
_atom_site_type_symbol
_atom_site_fract_x
_atom_site_fract_y
_atom_site_fract_z
Zn1	Zn	1.058547	0.252940	-0.351898
Zn2	Zn	1.063449	0.336793	-0.234233
Zn3	Zn	0.945914	0.245803	-0.239273
Zn4	Zn	0.940819	0.336767	-0.356877
O5	O	1.002182	0.293076	-0.295570
O6	O	1.157655	0.267061	-0.332097
O7	O	1.052041	0.321747	-0.136441
O8	O	0.960935	0.173588	-0.254239
O9	O	1.161257	0.328668	-0.245649
O10	O	1.043686	0.178832	-0.336984
O11	O	0.965689	0.254897	-0.140144
O12	O	0.846780	0.254871	-0.259067
O13	O	0.952253	0.328624	-0.454677
O14	O	0.843037	0.321703	-0.345469
O15	O	1.038746	0.267036	-0.451019
O16	O	1.047101	0.409952	-0.250476
O17	O	0.957006	0.409933	-0.340582
C18	C	0.819379	0.287510	-0.303356
C19	C	0.741174	0.285142	-0.306703
C20	C	0.706309	0.316049	-0.263200
C21	C	0.632827	0.313824	-0.266354
C22	C	0.594212	0.280690	-0.313008
C23	C	0.629082	0.249783	-0.356516
C24	C	0.702563	0.252010	-0.353365
C25	C	0.372254	0.272365	-0.324782
C26	C	0.298769	0.270139	-0.327928
C27	C	0.302518	0.334181	-0.237766
C28	C	0.376000	0.336403	-0.234616
C29	C	0.410864	0.305498	-0.278127
C30	C	0.519101	0.278414	-0.316232
C31	C	0.485973	0.307777	-0.274906
C32	C	1.002051	0.428913	-0.295537
C33	C	1.002059	0.487028	-0.295544
C34	C	1.049152	0.847396	-0.248700
C35	C	1.049173	0.902001	-0.248705
O36	O	1.089121	0.930239	-0.208859
N37	N	1.002238	0.929317	-0.295584
C38	C	0.955284	0.902025	-0.342464
O39	O	0.915365	0.930274	-0.382339
C40	C	0.955267	0.847421	-0.342461
C41	C	1.002200	0.820108	-0.295575
C42	C	1.096082	0.820083	-0.201818
C43	C	1.096059	0.765481	-0.201811
C44	C	1.049107	0.738193	-0.248686
C45	C	1.002177	0.765507	-0.295568
C46	C	0.908316	0.820131	-0.389344
C47	C	0.908303	0.765523	-0.389338
C48	C	0.955237	0.738210	-0.342451
C49	C	0.955203	0.683617	-0.342437
N50	N	1.002138	0.656301	-0.295559
C51	C	1.049090	0.683589	-0.248683
C52	C	0.955325	1.016697	-0.342468
C53	C	0.955338	1.071300	-0.342468
C54	C	1.049228	1.071272	-0.248710
C55	C	1.049211	1.016668	-0.248707
C56	C	1.002260	0.989381	-0.295589
C57	C	1.049039	0.568922	-0.248673
C58	C	1.049011	0.514316	-0.248669
C59	C	0.955123	0.514348	-0.342429
C60	C	0.955149	0.568950	-0.342431
C61	C	1.002113	0.596236	-0.295550
O62	O	0.915278	0.655345	-0.382265
O63	O	1.089009	0.655335	-0.208822
C64	C	1.185699	0.298664	-0.287755
C65	C	1.263903	0.301045	-0.284425
C66	C	0.994384	0.298623	-0.479092
C67	C	0.991062	0.300987	-0.557298
C68	C	1.002306	1.156708	-0.295607
C69	C	1.002293	1.098593	-0.295595
C70	C	1.034531	0.270034	-0.592136
C71	C	1.031400	0.272253	-0.665619
C72	C	0.984803	0.305428	-0.704263
C73	C	0.941329	0.336383	-0.669420
C74	C	0.944457	0.334161	-0.595938
C75	C	0.973103	0.313739	-0.926225
C76	C	0.969980	0.315960	-0.999712
C77	C	1.060051	0.251829	-0.995906
C78	C	1.063177	0.249612	-0.922423
C79	C	1.019701	0.280565	-0.887587
C80	C	0.981603	0.307698	-0.779374
C81	C	1.022897	0.278291	-0.812477
C82	C	1.009990	0.287514	-0.112761
C83	C	1.013449	0.285006	-0.034550
H84	H	0.400631	0.247200	-0.360212
H85	H	1.066799	0.247049	-0.693981
H86	H	1.101123	0.222599	-0.890964
H87	H	0.730949	0.226843	-0.388790
H88	H	1.072477	0.243021	-0.560677
H89	H	0.407435	0.363384	-0.196624
H90	H	0.916934	0.591190	-0.380611
Cl91	Cl	0.534518	0.349431	-0.216259
Cl92	Cl	0.849276	0.731223	-0.448281
H93	H	1.087229	0.492079	-0.210486
H94	H	0.917085	0.994483	-0.380643
H95	H	1.134278	0.743246	-0.163634
Cl96	Cl	1.114701	0.212918	-1.039705
Cl97	Cl	0.896105	0.480033	-0.401358
Cl98	Cl	0.849319	0.854454	-0.448299
Cl99	Cl	0.911393	0.357666	-1.048292
H100	H	0.604443	0.338991	-0.230929
H101	H	0.917114	1.093533	-0.380641
H102	H	0.937712	0.338951	-0.897870
Cl103	Cl	1.081467	0.236581	-0.763895
Cl104	Cl	0.882747	0.378087	-0.718000
H105	H	0.943667	0.334712	-0.810846
Cl106	Cl	0.580538	0.208132	-0.415173
H107	H	0.737744	0.343028	-0.225206
Cl108	Cl	0.258685	0.373033	-0.183073
Cl109	Cl	0.250225	0.228478	-0.386580
H110	H	0.909052	0.359361	-0.567574
H111	H	0.487653	0.251436	-0.354218
H112	H	1.087283	0.591132	-0.210500
H113	H	1.134320	0.842295	-0.163646
Cl114	Cl	1.108253	1.105588	-0.189779
Cl115	Cl	1.108216	0.982338	-0.189763
