data_functionalizedCrystal
_audit_creation_method	'MofGen! by Chris Wilmer'
_symmetry_space_group_name_H-M	'P1'
_symmetry_Int_Tables_number	1
_symmetry_cell_setting	triclinic
loop_
_symmetry_equiv_pos_as_xyz
  x,y,z
_cell_length_a	14.044220
_cell_length_b	10.540510
_cell_length_c	12.503572
_cell_angle_alpha	93.560801
_cell_angle_beta	86.164750
_cell_angle_gamma	88.851094
loop_
_atom_site_label
_atom_site_type_symbol
_atom_site_fract_x
_atom_site_fract_y
_atom_site_fract_z
O1	O	1.265169	0.299543	-0.089195
O2	O	0.989127	0.288489	-0.089223
O3	O	1.133460	0.109945	-0.089208
O4	O	1.120836	0.478086	-0.089210
O5	O	1.122606	0.123397	0.089433
O6	O	0.978273	0.301941	0.089418
O7	O	1.254314	0.312995	0.089446
Cu8	Cu	1.115302	0.308696	0.105743
Cu9	Cu	1.128139	0.292788	-0.105520
O10	O	1.109981	0.491538	0.089431
C11	C	0.948353	0.290377	0.000094
C12	C	0.843032	0.275946	0.000083
C13	C	0.650193	0.249567	0.000105
C14	C	0.593244	0.351910	0.000109
C15	C	0.485942	0.337232	0.000121
C16	C	0.757505	0.264243	0.000093
C17	C	1.127093	0.069272	0.000110
C18	C	1.124278	-0.071963	0.000103
C19	C	1.224521	-0.279250	0.000523
C20	C	1.227548	-0.132381	0.000115
C21	C	1.077612	-0.129748	-0.101912
C22	C	1.075346	-0.276744	-0.101992
C23	C	1.060852	-0.261473	0.101155
C24	C	1.065668	-0.114536	0.102499
C25	C	1.295088	0.311106	0.000127
C26	C	1.400410	0.325537	0.000130
C27	C	1.116349	0.532211	0.000110
C28	C	1.119164	0.673446	0.000110
N29	N	1.106281	0.319885	0.254335
N30	N	1.137168	0.281589	-0.254112
C31	C	1.093009	0.336355	0.473448
C32	C	1.150437	0.265123	0.526781
C33	C	1.143052	0.274287	0.648704
C34	C	1.100392	0.327192	0.351515
H35	H	0.625075	0.450552	0.000103
Br36	Br	1.001826	0.449468	0.549956
H37	H	0.983274	-0.291411	0.101835
Br38	Br	1.289054	-0.067314	0.122019
Br39	Br	0.939376	-0.044692	0.112758
Br40	Br	0.597142	0.085165	0.000111
H41	H	1.205148	0.197257	0.480874
H42	H	1.260309	-0.311628	0.073684
H43	H	1.268942	-0.324189	-0.072216
Br44	Br	1.304306	-0.087208	-0.121971
H45	H	1.116107	-0.319049	-0.178243
Br46	Br	0.947082	-0.328678	-0.109728
Br47	Br	0.951282	-0.064052	-0.108258
Br48	Br	1.107348	-0.317123	0.230033
Br49	Br	1.122129	-0.050885	0.228293
Br50	Br	1.146489	-0.081669	-0.228443
