data_functionalizedCrystal
_audit_creation_method	'MofGen! by Chris Wilmer'
_symmetry_space_group_name_H-M	'P1'
_symmetry_Int_Tables_number	1
_symmetry_cell_setting	triclinic
loop_
_symmetry_equiv_pos_as_xyz
  x,y,z
_cell_length_a	14.628931
_cell_length_b	20.016444
_cell_length_c	14.628931
_cell_angle_alpha	119.997645
_cell_angle_beta	90.000000
_cell_angle_gamma	59.999194
loop_
_atom_site_label
_atom_site_type_symbol
_atom_site_fract_x
_atom_site_fract_y
_atom_site_fract_z
Zr1	Zr	0.880621	0.731248	0.119909
O2	O	0.734660	0.870621	0.265861
O3	O	0.925366	0.591875	0.075174
O4	O	0.925366	0.731248	0.265870
O5	O	0.734661	0.731247	-0.075267
O6	O	1.075798	0.731247	0.265870
O7	O	0.734660	0.731248	0.075165
O8	O	1.075798	0.481934	-0.075251
O9	O	0.734661	0.980560	0.265853
O10	O	1.056715	0.649200	0.056087
O11	O	0.944449	0.649200	-0.056179
O12	O	0.944449	0.813294	0.168341
O13	O	0.832184	0.813294	0.056076
Zr14	Zr	1.120543	0.731247	-0.120013
Zr15	Zr	1.120543	0.731247	0.119909
Zr16	Zr	0.880622	0.731247	-0.120012
Zr17	Zr	0.880622	0.906589	0.119897
Zr18	Zr	1.120543	0.555906	-0.120001
O19	O	1.075799	0.870619	-0.075277
O20	O	1.075798	0.870620	0.265861
O21	O	0.734661	0.870620	-0.075277
O22	O	1.266504	0.591873	-0.265964
O23	O	1.266504	0.591874	0.075174
O24	O	0.925366	0.591874	-0.265964
O25	O	1.266504	0.731247	0.075164
O26	O	1.075799	0.731246	-0.265974
O27	O	0.925367	0.731247	-0.265974
O28	O	1.266504	0.731246	-0.075268
O29	O	0.925367	0.980560	0.265853
O30	O	1.075798	0.481934	-0.265957
O31	O	1.266504	0.481934	-0.265957
O32	O	1.266504	0.481934	-0.075251
O33	O	0.734661	0.980560	0.075148
O34	O	0.925367	0.980560	0.075147
O35	O	1.056715	0.649200	-0.168445
O36	O	1.168981	0.649200	-0.056179
O37	O	1.056715	0.813294	0.056075
O38	O	0.944450	0.813294	-0.056190
C39	C	1.000582	0.511922	-0.000037
C40	C	1.000581	0.437485	-0.000032
C41	C	0.700477	0.731248	-0.000051
C42	C	0.598624	0.731248	-0.000051
C43	C	1.059187	0.266215	0.058551
C44	C	1.059190	0.196268	0.058543
C45	C	0.941976	0.196281	-0.058662
C46	C	0.941980	0.266223	-0.058659
C47	C	1.000583	0.301192	-0.000046
C48	C	1.000582	0.161303	-0.000057
C49	C	1.000585	0.085462	-0.000067
C50	C	1.000582	0.377035	-0.000038
C51	C	0.608906	0.649846	-0.055737
C52	C	0.503636	0.649845	-0.055738
C53	C	1.300688	0.731246	-0.000052
C54	C	1.402541	0.731246	-0.000052
C55	C	1.000582	0.731248	0.300054
C56	C	1.000582	0.731248	0.401907
C57	C	1.000583	0.950572	-0.000067
C58	C	1.000583	1.025009	-0.000072
C59	C	0.944892	0.812648	0.608266
C60	C	0.944891	0.812649	0.502997
C61	C	1.000583	0.731246	0.699843
C62	C	1.000583	0.731246	0.597990
C63	C	1.300687	0.511922	-0.000037
C64	C	1.402540	0.437485	-0.000032
C65	C	1.000582	0.511922	-0.300142
C66	C	1.000582	0.437485	-0.401990
C67	C	1.300688	0.511921	-0.300143
C68	C	1.402541	0.437484	-0.401991
C69	C	0.700477	0.950573	0.300039
C70	C	0.598624	1.025010	0.401887
C71	C	0.700477	0.950572	-0.000066
C72	C	0.598625	1.025010	-0.000071
C73	C	1.000583	0.950572	0.300039
C74	C	1.000583	1.025010	0.401887
C75	C	1.391770	0.402528	0.058582
C76	C	1.487462	0.332596	0.058609
C77	C	1.593924	0.297617	0.000015
C78	C	1.604692	0.332580	-0.058601
C79	C	1.509001	0.402516	-0.058621
C80	C	1.059184	0.402528	-0.508431
C81	C	1.059179	0.332596	-0.604137
C82	C	1.000579	0.297618	-0.593400
C83	C	0.941970	0.332581	-0.486948
C84	C	0.941969	0.402516	-0.391245
C85	C	1.508984	0.402527	-0.391218
C86	C	1.604694	0.332595	-0.486906
C87	C	1.593960	0.297616	-0.593366
C88	C	1.487506	0.332580	-0.604136
C89	C	1.391798	0.402515	-0.508449
C90	C	0.492181	1.059975	0.391115
C91	C	0.396470	1.129929	0.486803
C92	C	0.407205	1.164912	0.593262
C93	C	0.513659	1.129944	0.604033
C94	C	0.609367	1.059996	0.508346
C95	C	0.609395	1.059973	-0.058675
C96	C	0.513703	1.129924	-0.058676
C97	C	0.407241	1.164906	-0.000078
C98	C	0.396472	1.129939	0.058533
C99	C	0.492164	1.059994	0.058539
C100	C	1.059194	1.059966	0.391114
C101	C	1.059216	1.129898	0.486802
C102	C	1.000619	1.164877	0.593262
C103	C	0.942006	1.129914	0.604032
C104	C	0.941991	1.059978	0.508345
H105	H	1.106906	0.294684	0.106276
H106	H	0.894260	0.304091	-0.478223
H107	H	0.894263	0.167802	-0.106382
H108	H	0.894252	0.430969	-0.304579
H109	H	1.048267	0.661553	0.393275
H110	H	0.894298	1.158405	0.690724
H111	H	0.695642	0.580157	-0.103416
H112	H	1.517745	0.430997	-0.304542
H113	H	0.897209	0.882337	0.694998
H114	H	0.894258	1.031525	0.517132
H115	H	1.671901	0.240670	-0.671271
H116	H	1.691386	0.304090	-0.106306
H117	H	1.106912	0.167791	0.106256
H118	H	1.048255	0.661557	0.511258
H119	H	0.512265	0.580154	-0.103405
H120	H	0.894257	0.294700	-0.106381
H121	H	1.517786	0.430968	-0.106358
H122	H	1.106903	0.431000	-0.517195
H123	H	0.309800	1.158388	0.478012
H124	H	0.393904	0.800941	0.047630
H125	H	0.309778	1.158432	0.106241
H126	H	1.000589	0.240672	-0.671338
H127	H	1.305092	0.431008	0.106310
H128	H	1.106909	0.304137	-0.690805
H129	H	1.106944	1.158358	0.478010
H130	H	1.478672	0.304138	0.106341
H131	H	0.511887	0.800937	0.047621
H132	H	0.897215	0.882340	0.511621
H133	H	0.329263	1.221867	0.671168
H134	H	1.671833	0.240671	0.000039
H135	H	0.483379	1.031529	0.106259
H136	H	1.691365	0.304135	-0.478117
H137	H	1.106911	1.031497	0.304438
H138	H	1.478783	0.304089	-0.690828
H139	H	1.305131	0.430968	-0.517236
H140	H	0.483420	1.031496	0.304439
H141	H	0.696035	1.031528	0.517130
H142	H	0.522386	1.158436	0.690723
H143	H	0.696073	1.031496	-0.106400
H144	H	0.522492	1.158382	-0.106409
H145	H	0.329332	1.221860	-0.000093
H146	H	1.000640	1.221824	0.671167
