data_functionalizedCrystal
_audit_creation_method	'MofGen! by Chris Wilmer'
_symmetry_space_group_name_H-M	'P1'
_symmetry_Int_Tables_number	1
_symmetry_cell_setting	triclinic
loop_
_symmetry_equiv_pos_as_xyz
  x,y,z
_cell_length_a	6.394989
_cell_length_b	8.634740
_cell_length_c	7.681481
_cell_angle_alpha	96.618670
_cell_angle_beta	95.906187
_cell_angle_gamma	86.465991
loop_
_atom_site_label
_atom_site_type_symbol
_atom_site_fract_x
_atom_site_fract_y
_atom_site_fract_z
O1	O	-0.700591	2.045098	-0.146410
O2	O	-0.643262	1.595031	-0.146414
O3	O	-0.369148	1.826453	-0.146413
O4	O	-0.974705	1.813676	-0.146410
O5	O	-0.335320	1.854935	0.146445
O6	O	-0.609433	1.623514	0.146444
O7	O	-0.666763	2.073580	0.146448
Zn8	Zn	-0.632727	1.853069	0.192944
Zn9	Zn	-0.677298	1.815542	-0.192909
O10	O	-0.940877	1.842159	0.146447
C11	C	-0.613360	1.551570	0.000015
C12	C	-0.574637	1.379634	0.000013
C13	C	-0.273905	1.838167	0.000009
C14	C	-0.036116	1.830447	0.000008
C15	C	-0.696665	2.117041	0.000016
C16	C	-0.735389	2.288976	0.000006
N17	N	-0.602310	1.878692	0.456278
N18	N	-0.707701	1.789932	-0.456243
H19	H	-0.815271	1.699326	0.468559
C20	C	-0.458545	1.999414	0.556320
C21	C	-0.252578	1.965793	0.511574
C22	C	-0.120091	2.076974	0.603680
H23	H	-0.461591	1.996740	0.679307
H24	H	-0.505329	2.100321	0.526135
H25	H	-0.205806	1.864911	0.541771
H26	H	-0.249465	1.968479	0.388603
H27	H	-0.166876	2.177882	0.573495
H28	H	-0.123156	2.074292	0.726663
H29	H	0.019667	2.054186	0.573322
C30	C	-0.958267	1.361147	-0.000088
C31	C	-0.953663	1.523048	-0.000122
C32	C	-1.158944	1.589590	-0.000239
H33	H	-1.017746	1.338784	0.102002
H34	H	-1.041158	1.318840	-0.102263
H35	H	-0.870804	1.565341	0.102043
H36	H	-0.894223	1.545455	-0.102204
H37	H	-1.241835	1.547283	-0.102414
H38	H	-1.218407	1.567216	0.101853
H39	H	-1.155850	1.699444	-0.000278
C40	C	-0.351770	1.307438	-0.000088
C41	C	-0.356378	1.145528	-0.000146
C42	C	-0.151121	1.078968	-0.000265
H43	H	-0.268713	1.349652	0.102009
H44	H	-0.292478	1.329884	-0.102256
H45	H	-0.415640	1.123094	0.102011
H46	H	-0.439394	1.103272	-0.102237
H47	H	-0.091829	1.101413	-0.102432
H48	H	-0.068080	1.121193	0.101835
H49	H	-0.154222	0.969104	-0.000321
