data_functionalizedCrystal
_audit_creation_method	'MofGen! by Chris Wilmer'
_symmetry_space_group_name_H-M	'P1'
_symmetry_Int_Tables_number	1
_symmetry_cell_setting	triclinic
loop_
_symmetry_equiv_pos_as_xyz
  x,y,z
_cell_length_a	12.759401
_cell_length_b	12.759400
_cell_length_c	12.759393
_cell_angle_alpha	90.030609
_cell_angle_beta	90.019748
_cell_angle_gamma	90.016209
loop_
_atom_site_label
_atom_site_type_symbol
_atom_site_fract_x
_atom_site_fract_y
_atom_site_fract_z
Zn1	Zn	1.606254	-0.418171	0.594020
Zn2	Zn	1.606149	-0.593887	0.418340
Zn3	Zn	1.430557	-0.418228	0.418355
Zn4	Zn	1.430545	-0.593814	0.593978
O5	O	1.518376	-0.506025	0.506173
O6	O	1.753261	-0.441488	0.570727
O7	O	1.582817	-0.570640	0.271321
O8	O	1.453912	-0.271199	0.441682
O9	O	1.753184	-0.570586	0.441656
O10	O	1.582996	-0.271158	0.570742
O11	O	1.453810	-0.441584	0.271332
O12	O	1.283534	-0.441512	0.441640
O13	O	1.453892	-0.570460	0.741004
O14	O	1.283525	-0.570514	0.570669
O15	O	1.582985	-0.441416	0.741036
O16	O	1.582806	-0.740899	0.441615
O17	O	1.453790	-0.740844	0.570655
C18	C	1.245409	-0.506012	0.506152
C19	C	1.128632	-0.506032	0.506168
C20	C	1.073793	-0.573306	0.573248
C21	C	0.964069	-0.573310	0.573269
C22	C	0.964033	-0.438763	0.439122
C23	C	1.073755	-0.438755	0.439107
C24	C	1.518314	-0.778992	0.506151
C25	C	1.518383	-0.895769	0.506177
C26	C	1.585636	-0.950624	0.439060
C27	C	1.585701	-1.060348	0.439093
C28	C	1.451250	-1.060352	0.573362
C29	C	1.451192	-0.950630	0.573334
C30	C	1.663257	-0.950623	0.361538
C31	C	1.663321	-1.060347	0.361570
C32	C	1.792409	-0.506039	0.506195
C33	C	1.909186	-0.506045	0.506204
C34	C	1.518449	-0.505924	0.780207
C35	C	1.518480	-0.505880	0.896984
C36	C	1.518467	-0.231992	0.506218
C37	C	1.518506	-0.115215	0.506237
C38	C	1.518364	-0.506050	0.233206
C39	C	1.518536	-0.505798	0.116430
C40	C	1.585731	-0.438631	1.061589
C41	C	1.585706	-0.438674	0.951864
C42	C	1.451282	-0.573055	0.951833
C43	C	1.451314	-0.573015	1.061555
C44	C	1.663336	-0.361044	1.061606
C45	C	1.663311	-0.361088	0.951882
H46	H	1.118406	-0.383966	0.384482
O47	O	1.385767	-0.897506	0.638568
C48	C	1.252466	-0.909093	0.771796
C49	C	1.326493	-0.969386	0.697954
H50	H	1.204540	-0.967181	0.819845
H51	H	1.197454	-0.857837	0.723553
H52	H	1.300664	-0.857610	0.826712
H53	H	1.278379	-1.020925	0.643023
H54	H	1.381508	-1.020575	0.746262
O55	O	0.910835	-0.373472	0.373831
C56	C	0.877134	-0.322304	0.195209
C57	C	0.937462	-0.396293	0.269036
H58	H	0.898623	-0.340743	0.110466
H59	H	0.898751	-0.237590	0.213716
H60	H	0.789299	-0.333852	0.206796
H61	H	1.025312	-0.384839	0.257490
H62	H	0.915759	-0.480980	0.250510
H63	H	1.396546	-1.105033	0.628039
O64	O	1.385842	-0.638301	0.898646
C65	C	1.207109	-0.689296	0.865009
C66	C	1.281101	-0.615349	0.925319
H67	H	1.122410	-0.670751	0.886536
H68	H	1.225463	-0.774016	0.886603
H69	H	1.218682	-0.677818	0.777171
H70	H	1.269570	-0.626734	1.013172
H71	H	1.262729	-0.530656	0.903638
H72	H	1.641584	-1.090209	0.280189
O73	O	1.755502	-0.395720	0.911148
C74	C	1.905000	-0.355594	0.803009
C75	C	1.800610	-0.316247	0.849055
H76	H	1.941511	-0.291352	0.752815
H77	H	1.890030	-0.427893	0.752640
H78	H	1.960780	-0.376650	0.869557
H79	H	1.744778	-0.295132	0.782574
H80	H	1.815660	-0.243985	0.899451
O81	O	1.760341	-0.915168	0.387673
C82	C	1.937331	-0.960804	0.435183
C83	C	1.827431	-1.001099	0.405623
H84	H	1.991609	-1.030258	0.449682
H85	H	1.932026	-0.911152	0.509300
H86	H	1.969736	-0.911157	0.368370
H87	H	1.794961	-1.050789	0.472367
H88	H	1.832801	-1.050694	0.331474
O89	O	1.637261	-0.263985	0.916538
C90	C	1.589956	-0.086983	0.962377
C91	C	1.619425	-0.196901	1.002546
H92	H	1.575549	-0.032709	1.031894
H93	H	1.515808	-0.092252	0.912772
H94	H	1.656776	-0.054598	0.912714
H95	H	1.552673	-0.229351	1.052252
H96	H	1.693605	-0.191566	1.052094
H97	H	1.634132	-0.916675	0.284211
H98	H	1.744708	-0.382827	1.091383
O99	O	0.910961	-0.638761	0.638461
C100	C	0.922584	-0.772169	0.771557
C101	C	0.982858	-0.698116	0.697758
H102	H	0.980686	-0.820162	0.819533
H103	H	0.871206	-0.827119	0.723285
H104	H	0.871227	-0.723988	0.826542
H105	H	1.034273	-0.746213	0.642758
H106	H	1.034170	-0.643163	0.746096
H107	H	1.740625	-1.094290	0.390784
H108	H	1.118471	-0.628084	0.627857
O109	O	1.386099	-0.638419	1.114705
C110	C	1.335122	-0.817133	1.148266
C111	C	1.409027	-0.743174	1.087994
H112	H	1.353647	-0.901844	1.126709
H113	H	1.250386	-0.798786	1.126667
H114	H	1.346666	-0.805518	1.236110
H115	H	1.397577	-0.754748	1.000136
H116	H	1.493735	-0.761539	1.109680
O117	O	1.628437	-0.268907	1.102276
C118	C	1.499662	-0.183116	1.210522
C119	C	1.539068	-0.287527	1.164516
H120	H	1.427416	-0.198137	1.260871
H121	H	1.478538	-0.127323	1.144035
H122	H	1.563919	-0.146594	1.260779
H123	H	1.474860	-0.324140	1.114271
H124	H	1.560223	-0.343247	1.231053
