data_functionalizedCrystal
_audit_creation_method	'MofGen! by Chris Wilmer'
_symmetry_space_group_name_H-M	'P1'
_symmetry_Int_Tables_number	1
_symmetry_cell_setting	triclinic
loop_
_symmetry_equiv_pos_as_xyz
  x,y,z
_cell_length_a	19.377372
_cell_length_b	23.196402
_cell_length_c	23.196401
_cell_angle_alpha	119.990204
_cell_angle_beta	89.985068
_cell_angle_gamma	72.113939
loop_
_atom_site_label
_atom_site_type_symbol
_atom_site_fract_x
_atom_site_fract_y
_atom_site_fract_z
Zr1	Zr	0.580537	0.802625	0.161439
O2	O	0.484290	0.894439	0.239259
O3	O	0.610040	0.691081	0.137586
O4	O	0.610008	0.811340	0.257847
O5	O	0.484350	0.774186	0.024131
O6	O	0.709179	0.840658	0.272506
O7	O	0.484322	0.774180	0.118998
O8	O	0.709237	0.625537	0.057381
O9	O	0.484292	0.989307	0.239256
O10	O	0.696636	0.766148	0.138349
O11	O	0.622646	0.744273	0.056611
O12	O	0.622608	0.885862	0.198203
O13	O	0.548619	0.863987	0.116464
Zr14	Zr	0.738749	0.849394	0.033515
Zr15	Zr	0.738704	0.849385	0.184818
Zr16	Zr	0.580582	0.802635	0.010136
Zr17	Zr	0.580542	0.953929	0.161433
Zr18	Zr	0.738745	0.698090	0.033521
O19	O	0.709246	0.960938	0.057368
O20	O	0.709182	0.960925	0.272502
O21	O	0.484354	0.894452	0.024126
O22	O	0.834996	0.757580	-0.044305
O23	O	0.834933	0.757567	0.170829
O24	O	0.610104	0.691095	-0.077547
O25	O	0.834936	0.877833	0.170824
O26	O	0.709278	0.840679	-0.062893
O27	O	0.610107	0.811361	-0.077552
O28	O	0.834964	0.877839	0.075956
O29	O	0.610014	1.026475	0.257839
O30	O	0.709272	0.625545	-0.062885
O31	O	0.834994	0.662712	-0.044301
O32	O	0.834958	0.662705	0.075965
O33	O	0.484328	0.989315	0.118990
O34	O	0.610050	1.026482	0.137573
O35	O	0.696678	0.766157	-0.003248
O36	O	0.770667	0.788033	0.078490
O37	O	0.696640	0.907746	0.138344
O38	O	0.622650	0.885871	0.056605
C39	C	0.659638	0.636752	0.097485
C40	C	0.659636	0.572519	0.097487
C41	C	0.698252	0.553766	0.140156
C42	C	0.698260	0.493407	0.140151
C43	C	0.659636	0.451811	0.097485
C44	C	0.621017	0.470568	0.054808
C45	C	0.621017	0.530922	0.054809
C46	C	0.594923	0.370651	0.093194
C47	C	0.594921	0.310301	0.093198
C48	C	0.659637	0.265657	0.097478
C49	C	0.724353	0.281377	0.101769
C50	C	0.724354	0.341731	0.101770
C51	C	0.659632	0.386366	0.097479
C52	C	0.698264	0.181456	0.140144
C53	C	0.698274	0.121093	0.140134
C54	C	0.621024	0.098258	0.054796
C55	C	0.621022	0.158616	0.054801
C56	C	0.659641	0.200214	0.097479
C57	C	0.461801	0.767521	0.068233
C58	C	0.394655	0.747671	0.058308
C59	C	-0.019383	0.994824	0.181881
C60	C	-0.082466	0.976155	0.172546
C61	C	-0.005178	0.851183	0.110064
C62	C	0.057914	0.869842	0.119391
C63	C	0.050805	0.941663	0.155301
C64	C	0.128101	0.816681	0.092810
C65	C	0.191187	0.835338	0.102140
C66	C	0.184085	0.907156	0.138050
C67	C	0.113891	0.960321	0.164630
C68	C	0.135208	0.744860	0.056905
C69	C	0.205396	0.691699	0.030324
C70	C	0.268483	0.710356	0.039649
C71	C	0.261382	0.782174	0.075559
C72	C	0.338678	0.657191	0.013069
C73	C	0.401764	0.675849	0.022398
C74	C	0.324467	0.800831	0.084889
C75	C	0.857486	0.884498	0.126721
C76	C	0.924631	0.904349	0.136646
C77	C	0.659587	0.825998	0.286734
C78	C	0.659568	0.825994	0.350966
C79	C	0.659649	1.015268	0.097470
C80	C	0.659650	1.079500	0.097467
C81	C	0.620929	0.888482	0.412383
C82	C	0.620945	0.888488	0.472741
C83	C	0.659590	0.826000	0.471677
C84	C	0.698238	0.763504	0.410249
C85	C	0.698227	0.763501	0.349894
C86	C	0.654097	0.767748	0.538185
C87	C	0.654103	0.767753	0.598539
C88	C	0.659628	0.826006	0.657831
C89	C	0.665132	0.884265	0.656765
C90	C	0.665121	0.884262	0.596410
C91	C	0.659606	0.825996	0.537118
C92	C	0.621004	0.888506	0.784696
C93	C	0.621025	0.888511	0.845055
C94	C	0.698313	0.763523	0.782560
C95	C	0.698297	0.763522	0.722205
C96	C	0.659638	0.826014	0.723277
C97	C	0.659688	0.826021	0.908220
C98	C	0.659672	0.826022	0.843986
C99	C	0.857480	0.695241	0.126728
C100	C	0.924624	0.650859	0.136656
C101	C	0.659694	0.636764	-0.091772
C102	C	0.659711	0.572535	-0.156002
C103	C	0.857536	0.695252	-0.062529
C104	C	0.924699	0.650874	-0.116833
C105	C	0.461750	0.956767	0.257483
C106	C	0.394587	1.001145	0.311788
C107	C	0.461806	0.956779	0.068226
C108	C	0.394662	1.001161	0.058299
C109	C	0.659592	1.015256	0.286727
C110	C	0.659575	1.079484	0.350957
C111	C	0.917512	0.618593	0.172570
C112	C	0.980595	0.576898	0.181911
C113	C	1.050789	0.567466	0.155334
C114	C	1.057900	0.599737	0.119418
C115	C	0.994818	0.641435	0.110082
C116	C	0.698363	0.553796	-0.217417
C117	C	0.698376	0.493455	-0.277774
C118	C	0.659742	0.451850	-0.276713
C119	C	0.621085	0.470593	-0.215292
C120	C	0.621068	0.530937	-0.154937
C121	C	0.994868	0.641455	-0.099667
C122	C	1.057981	0.599767	-0.150686
C123	C	1.050924	0.567496	-0.218869
C124	C	0.980747	0.576919	-0.236034
C125	C	0.917636	0.618610	-0.185017
C126	C	0.324418	1.010572	0.294622
C127	C	0.261305	1.052278	0.345640
C128	C	0.268363	1.084553	0.413824
C129	C	0.338539	1.075126	0.430989
C130	C	0.401650	1.033424	0.379971
C131	C	0.401774	1.033433	0.022391
C132	C	0.338691	1.075144	0.013066
C133	C	0.268497	1.084579	0.039646
C134	C	0.261386	1.052305	0.075558
C135	C	0.324468	1.010598	0.084887
C136	C	0.698217	1.121072	0.349875
C137	C	0.698216	1.181418	0.410222
C138	C	0.659567	1.200177	0.471649
C139	C	0.620924	1.158583	0.472729
C140	C	0.620930	1.098236	0.412384
H141	H	0.729707	0.478136	0.174898
Br142	Br	0.568610	0.556357	-0.071591
H143	H	0.659761	0.402716	-0.325863
Br144	Br	1.153210	0.586987	-0.127375
Br145	Br	1.153170	0.586926	0.083351
Br146	Br	1.004467	0.685249	-0.007137
Br147	Br	0.970928	0.533108	0.230653
H148	H	1.102149	0.533510	0.162941
Br149	Br	0.750724	0.678707	0.638846
Br150	Br	0.497023	0.603702	-0.013670
Br151	Br	0.568588	0.973326	0.928412
Br152	Br	0.568475	1.041805	0.413863
Br153	Br	0.348314	0.559724	-0.035653
Br154	Br	0.750843	0.468030	-0.361121
H155	H	1.000619	0.667701	0.080833
Br156	Br	0.568468	1.184057	0.556100
H157	H	1.102319	0.533550	-0.260404
Br158	Br	0.750663	0.610217	0.198075
Br159	Br	0.568606	0.041811	-0.003111
Br160	Br	0.497030	1.020642	-0.013687
H161	H	0.777049	0.354527	0.105261
H162	H	0.659567	1.249318	0.520781
Br163	Br	0.568656	0.414122	-0.213864
Br164	Br	0.971182	0.533117	-0.328573
H165	H	0.729824	0.587666	-0.218293
H166	H	0.860504	0.626272	-0.199003
Br167	Br	0.348359	1.118935	-0.035675
Br168	Br	0.314819	0.966776	0.202092
H169	H	-0.139617	1.019450	0.194196
Br170	Br	0.750675	1.095628	0.266517
H171	H	0.777053	0.245023	0.105246
H172	H	0.216967	1.118507	0.455359
Br173	Br	0.750678	0.237909	0.198058
Br174	Br	0.182892	1.141184	0.026980
Br175	Br	0.166076	1.065061	0.322329
H176	H	0.729724	0.105823	0.174878
Br177	Br	0.348104	1.118930	0.523528
H178	H	0.729780	0.712644	0.781693
H179	H	0.318677	0.859316	0.114110
Br180	Br	0.496877	1.020633	0.403280
H181	H	0.669605	0.931697	0.595545
Br182	Br	0.166116	1.065114	0.111625
Br183	Br	0.568607	0.556373	-0.003104
H184	H	0.318667	0.984321	0.114124
H185	H	0.589573	0.173886	0.020058
Br186	Br	0.507091	0.288975	0.087382
H187	H	0.542217	0.407006	0.089722
Br188	Br	0.568608	0.414111	-0.003103
H189	H	0.729682	1.215278	0.409329
H190	H	0.235456	0.922346	0.145647
Br191	Br	0.672628	0.963331	0.737227
Br192	Br	-0.029024	1.092297	0.230606
H193	H	0.108100	1.018805	0.193851
H194	H	0.083837	0.729671	0.049315
Br195	Br	0.004461	0.753714	0.061333
Br196	Br	0.215035	0.594230	-0.018406
H197	H	0.589453	0.939369	0.413262
H198	H	0.589478	0.939375	0.522755
Br199	Br	0.646622	0.688694	0.599983
Br200	Br	0.646669	0.688654	0.457705
Br201	Br	0.750690	0.678699	0.408804
Br202	Br	0.568558	0.973320	0.786149
H203	H	0.729692	0.712614	0.299885
H204	H	0.860362	0.626273	0.194223
