data_functionalizedCrystal
_audit_creation_method	'MofGen! by Chris Wilmer'
_symmetry_space_group_name_H-M	'P1'
_symmetry_Int_Tables_number	1
_symmetry_cell_setting	triclinic
loop_
_symmetry_equiv_pos_as_xyz
  x,y,z
_cell_length_a	12.645331
_cell_length_b	25.639240
_cell_length_c	12.645324
_cell_angle_alpha	89.954047
_cell_angle_beta	89.976891
_cell_angle_gamma	90.032972
loop_
_atom_site_label
_atom_site_type_symbol
_atom_site_fract_x
_atom_site_fract_y
_atom_site_fract_z
Zn1	Zn	1.620623	-0.208108	-0.599346
Zn2	Zn	1.620457	-0.295557	-0.422042
Zn3	Zn	1.443337	-0.208138	-0.422090
Zn4	Zn	1.443273	-0.295515	-0.599257
O5	O	1.531923	-0.251830	-0.510684
O6	O	1.768949	-0.219714	-0.575843
O7	O	1.596919	-0.283992	-0.273701
O8	O	1.466951	-0.134969	-0.445660
O9	O	1.768827	-0.283962	-0.445579
O10	O	1.597202	-0.134947	-0.575890
O11	O	1.466790	-0.219765	-0.273736
O12	O	1.294981	-0.219724	-0.445574
O13	O	1.466842	-0.283889	-0.747616
O14	O	1.294934	-0.283919	-0.575738
O15	O	1.597140	-0.219672	-0.747682
O16	O	1.596857	-0.368717	-0.445493
O17	O	1.466681	-0.368686	-0.575692
C18	C	1.256493	-0.251820	-0.510652
C19	C	1.138663	-0.251829	-0.510664
C20	C	1.093775	-0.211381	-0.428912
C21	C	0.971215	-0.211231	-0.429192
C22	C	0.970842	-0.237128	-0.622579
C23	C	1.093440	-0.236826	-0.622068
C24	C	1.093418	-0.307098	-0.481558
C25	C	0.970811	-0.306809	-0.479132
C26	C	1.531773	-0.387672	-0.510601
C27	C	1.531806	-0.445786	-0.510601
C28	C	1.599778	-0.806099	-0.578616
C29	C	1.599810	-0.860704	-0.578638
O30	O	1.657424	-0.888898	-0.636382
N31	N	1.532070	-0.888069	-0.510786
C32	C	1.464287	-0.860827	-0.442916
O33	O	1.406671	-0.889117	-0.385205
C34	C	1.464251	-0.806223	-0.442901
C35	C	1.532003	-0.778861	-0.510749
C36	C	1.667524	-0.778737	-0.646460
C37	C	1.667494	-0.724136	-0.646437
C38	C	1.599718	-0.696898	-0.578570
C39	C	1.531973	-0.724260	-0.510726
C40	C	1.396463	-0.778982	-0.375037
C41	C	1.396433	-0.724375	-0.375028
C42	C	1.464184	-0.697013	-0.442876
C43	C	1.464167	-0.642422	-0.442836
N44	N	1.531907	-0.615057	-0.510687
C45	C	1.599682	-0.642295	-0.578555
C46	C	1.464366	-0.975497	-0.442955
C47	C	1.464406	-1.030099	-0.442964
C48	C	1.599928	-1.029973	-0.578688
C49	C	1.599892	-0.975369	-0.578672
C50	C	1.532106	-0.948132	-0.510807
C51	C	1.599614	-0.527630	-0.578500
C52	C	1.599581	-0.473024	-0.578468
C53	C	1.464056	-0.473156	-0.442749
C54	C	1.464093	-0.527757	-0.442776
C55	C	1.531875	-0.554992	-0.510661
O56	O	1.406579	-0.614193	-0.385124
O57	O	1.657278	-0.613998	-0.636265
C58	C	1.808428	-0.251840	-0.510716
C59	C	1.926258	-0.251844	-0.510729
C60	C	1.532002	-0.251773	-0.787189
C61	C	1.532036	-0.251749	-0.905019
C62	C	1.532102	-0.115457	-0.510790
C63	C	1.532178	-0.057342	-0.510836
C64	C	1.614326	-0.211467	-1.072625
C65	C	1.614062	-0.211321	-0.950065
C66	C	1.420362	-0.236776	-0.949505
C67	C	1.420862	-0.236470	-1.072103
C68	C	1.560514	-0.307062	-1.072190
C69	C	1.562958	-0.306784	-0.949584
C70	C	1.531905	-0.251848	-0.235254
C71	C	1.532076	-0.251725	-0.117425
H72	H	0.941665	-0.317909	-0.396815
F73	F	1.671758	-0.556608	-0.650749
H74	H	1.341293	-0.801251	-0.319786
H75	H	0.941928	-0.170282	-0.448523
F76	F	0.930841	-0.348288	-0.551273
H77	H	1.396752	-0.196020	-1.100733
F78	F	1.132263	-0.273674	-0.704441
H79	H	1.409247	-1.052373	-0.387703
H80	H	1.408877	-0.450970	-0.387488
H81	H	1.696871	-0.220698	-0.919989
F82	F	0.931805	-0.223227	-0.320806
F83	F	1.131383	-0.346487	-0.559364
H84	H	1.645140	-0.318074	-0.920508
F85	F	1.722925	-0.223565	-1.111171
F86	F	1.739599	-0.695022	-0.718658
F87	F	1.132233	-0.223230	-0.320164
H88	H	0.941727	-0.265692	-0.685185
H89	H	1.124623	-0.170659	-0.447989
F90	F	1.671697	-0.443907	-0.650683
F91	F	1.391997	-0.556878	-0.370552
H92	H	0.940184	-0.197183	-0.647619
F93	F	1.324282	-0.695390	-0.302794
H94	H	1.409169	-0.953323	-0.387682
H95	H	1.500612	-0.337059	-1.101167
F96	F	1.590038	-0.158182	-1.112939
H97	H	1.595235	-0.170329	-0.920772
F98	F	1.739662	-0.807718	-0.718705
F99	F	1.338028	-0.273123	-1.110839
H100	H	1.357413	-0.265198	-0.920323
H101	H	1.655061	-0.953094	-0.633921
H102	H	1.395810	-0.196777	-0.918829
F103	F	1.490339	-0.348101	-0.909507
H104	H	1.640522	-0.320693	-1.103168
F105	F	1.130878	-0.184030	-0.654224
H106	H	1.124276	-0.320533	-0.401352
H107	H	1.655113	-1.052160	-0.633951
