data_functionalizedCrystal
_audit_creation_method	'MofGen! by Chris Wilmer'
_symmetry_space_group_name_H-M	'P1'
_symmetry_Int_Tables_number	1
_symmetry_cell_setting	triclinic
loop_
_symmetry_equiv_pos_as_xyz
  x,y,z
_cell_length_a	20.875621
_cell_length_b	12.970454
_cell_length_c	12.970454
_cell_angle_alpha	60.000396
_cell_angle_beta	87.028207
_cell_angle_gamma	58.315264
loop_
_atom_site_label
_atom_site_type_symbol
_atom_site_fract_x
_atom_site_fract_y
_atom_site_fract_z
Zr1	Zr	0.617940	1.128514	-0.186849
O2	O	0.515519	1.343602	-0.342925
O3	O	0.649337	0.913426	-0.139005
O4	O	0.649339	1.128513	-0.354093
O5	O	0.515517	1.128515	0.041829
O6	O	0.754898	1.128514	-0.362901
O7	O	0.515518	1.128514	-0.127837
O8	O	0.754896	0.743761	0.021853
O9	O	0.515520	1.513268	-0.342924
O10	O	0.741506	1.001895	-0.125171
O11	O	0.662728	1.001896	0.008022
O12	O	0.662729	1.255134	-0.245216
O13	O	0.583951	1.255134	-0.112023
Zr14	Zr	0.786294	1.128517	0.069702
Zr15	Zr	0.786295	1.128515	-0.200897
Zr16	Zr	0.617939	1.128516	0.083749
Zr17	Zr	0.617941	1.399112	-0.186847
Zr18	Zr	0.786293	0.857919	0.069700
O19	O	0.754897	1.343605	0.021858
O20	O	0.754899	1.343603	-0.362899
O21	O	0.515518	1.343604	0.041831
O22	O	0.888715	0.913429	0.225778
O23	O	0.888716	0.913427	-0.158978
O24	O	0.649336	0.913428	0.245751
O25	O	0.888717	1.128516	-0.158976
O26	O	0.754896	1.128517	0.236946
O27	O	0.649336	1.128517	0.245753
O28	O	0.888716	1.128517	0.010690
O29	O	0.649340	1.513268	-0.354090
O30	O	0.754895	0.743762	0.236942
O31	O	0.888714	0.743763	0.225777
O32	O	0.888715	0.743762	0.010687
O33	O	0.515519	1.513269	-0.127834
O34	O	0.649339	1.513270	-0.139000
O35	O	0.741505	1.001897	0.128069
O36	O	0.820283	1.001897	-0.005124
O37	O	0.741507	1.255135	-0.125169
O38	O	0.662728	1.255135	0.008024
C39	C	0.702116	0.790039	-0.058576
C40	C	0.702116	0.675163	-0.058577
C41	C	0.491531	1.128514	-0.041003
C42	C	0.420060	1.128514	-0.035039
C43	C	0.386482	1.128517	-0.125711
C44	C	0.319330	1.128509	-0.120102
C45	C	0.285753	1.128509	-0.023825
C46	C	0.319336	1.128501	0.066856
C47	C	0.386490	1.128498	0.061250
C48	C	0.084912	1.128506	0.002967
C49	C	0.017752	1.128513	0.008564
C50	C	0.017751	1.128519	-0.178393
C51	C	0.084904	1.128526	-0.183994
C52	C	0.118484	1.128510	-0.093310
N53	N	0.217111	1.128505	-0.018091
N54	N	0.187128	1.128503	-0.099040
C55	C	0.912704	1.128517	-0.076145
C56	C	0.984175	1.128517	-0.082108
C57	C	0.702119	1.128514	-0.397051
C58	C	0.702119	1.128513	-0.511927
C59	C	0.702118	1.466992	-0.058571
C60	C	0.702118	1.581867	-0.058570
C61	C	0.702116	1.128517	0.279904
C62	C	0.702115	1.128518	0.394780
C63	C	0.912703	0.790040	-0.076147
C64	C	0.984174	0.675165	-0.082112
C65	C	0.702115	0.790041	0.279901
C66	C	0.702114	0.675166	0.394776
C67	C	0.912701	0.790042	0.262330
C68	C	0.984172	0.675167	0.371242
C69	C	0.491533	1.466989	-0.379478
C70	C	0.420063	1.581863	-0.488389
C71	C	0.491531	1.466990	-0.041000
C72	C	0.420061	1.581866	-0.035036
C73	C	0.702119	1.466990	-0.397048
C74	C	0.702120	1.581865	-0.511924
C75	C	0.976616	0.621217	-0.147587
C76	C	1.043764	0.513295	-0.153216
C77	C	1.118469	0.459314	-0.093361
C78	C	1.126025	0.513272	-0.027884
C79	C	1.058878	0.621200	-0.022263
C80	C	1.058863	0.621221	0.352862
C81	C	1.126024	0.513299	0.455185
C82	C	1.118491	0.459318	0.575888
C83	C	1.043791	0.513275	0.594266
C84	C	0.976633	0.621202	0.491944
C85	C	0.345371	1.635823	-0.470009
C86	C	0.278210	1.743779	-0.572333
C87	C	0.285743	1.797765	-0.693035
C88	C	0.360443	1.743801	-0.711413
C89	C	0.427602	1.635855	-0.609091
C90	C	0.427618	1.635824	0.030429
C91	C	0.360470	1.743777	0.036028
C92	C	0.285765	1.797761	-0.023831
C93	C	0.278209	1.743798	-0.089304
C94	C	0.345357	1.635855	-0.094909
H95	H	0.413814	1.128527	-0.204114
C96	C	0.216390	1.128516	0.158455
C97	C	0.282428	1.128503	0.172685
H98	H	0.193604	1.128529	0.223787
H99	H	0.231691	1.043956	0.161059
H100	H	0.179085	1.213089	0.080874
H101	H	0.319737	1.043924	0.250263
H102	H	0.267130	1.213071	0.170093
H103	H	0.488417	1.591922	-0.624071
H104	H	0.291992	1.128511	-0.193933
C105	C	0.837165	0.786619	0.396869
C106	C	0.894531	0.680486	0.512159
H107	H	0.786480	0.823219	0.409359
H108	H	0.843054	0.744513	0.351538
H109	H	0.843048	0.864117	0.351531
H110	H	0.888651	0.602982	0.557493
H111	H	0.888639	0.722591	0.557508
C112	C	0.411749	1.470380	-0.159143
C113	C	0.337042	1.576531	-0.166855
H114	H	0.406609	1.433766	-0.203567
H115	H	0.439646	1.392907	-0.074525
H116	H	0.439651	1.512486	-0.194128
H117	H	0.309142	1.534422	-0.131861
H118	H	0.309134	1.654017	-0.251490
C119	C	1.265493	0.347909	0.550257
C120	C	1.208128	0.454021	0.434966
H121	H	1.316177	0.311332	0.537769
H122	H	1.259623	0.270406	0.595597
H123	H	1.259588	0.390038	0.595584
H124	H	1.214028	0.411889	0.389642
H125	H	1.214001	0.531537	0.389607
H126	H	1.065012	0.665156	0.254589
C127	C	0.502165	1.646684	0.154862
C128	C	0.509729	1.576501	0.096232
H129	H	0.552856	1.610071	0.195480
H130	H	0.474262	1.628993	0.214234
H131	H	0.474259	1.748584	0.094628
H132	H	0.537631	1.474601	0.156468
H133	H	0.537644	1.594180	0.036855
H134	H	0.366637	1.787695	0.089347
H135	H	0.217376	1.787769	-0.138038
H136	H	0.339222	1.591873	-0.371736
C137	C	0.234380	1.952346	0.052463
C138	C	0.211960	1.916404	-0.017650
H139	H	0.188816	2.025581	0.056289
H140	H	0.264753	1.987722	0.014531
H141	H	0.264764	1.868111	0.134128
H142	H	0.181580	2.000638	-0.099317
H143	H	0.181574	1.881032	0.020279
C144	C	1.192325	0.392852	0.760311
C145	C	1.192321	0.340683	0.688350
H146	H	1.237910	0.319614	0.829731
H147	H	1.146774	0.417230	0.788547
H148	H	1.192307	0.477082	0.711461
H149	H	1.192333	0.256459	0.737198
H150	H	1.237884	0.316286	0.660115
H151	H	-0.009595	1.128530	-0.252223
C152	C	0.078161	1.128515	-0.368223
C153	C	0.121813	1.128518	-0.289821
H154	H	0.100950	1.128505	-0.433553
H155	H	0.025666	1.213076	-0.402234
H156	H	0.078275	1.043943	-0.322051
H157	H	0.121694	1.213095	-0.335991
H158	H	0.174322	1.043948	-0.255808
C159	C	0.154982	1.953273	-0.606663
C160	C	0.196108	1.803071	-0.552109
H161	H	0.104299	1.989870	-0.594168
H162	H	0.149849	2.000878	-0.693184
H163	H	0.182902	1.970933	-0.569618
H164	H	0.168190	1.785412	-0.589161
H165	H	0.201237	1.755451	-0.465572
C166	C	0.902069	0.610391	-0.272054
C167	C	0.894506	0.680543	-0.213394
H168	H	0.851378	0.647023	-0.312691
H169	H	0.929969	0.508501	-0.211844
H170	H	0.929979	0.628096	-0.331425
H171	H	0.866601	0.662830	-0.154016
H172	H	0.866594	0.782458	-0.273610
H173	H	0.413829	1.128493	0.135086
C174	C	1.265477	0.347781	0.019157
C175	C	1.208145	0.453913	0.037918
H176	H	1.316175	0.311124	0.059793
H177	H	1.259582	0.389908	-0.067300
H178	H	1.259564	0.270321	0.052276
H179	H	1.214055	0.531379	0.004791
H180	H	1.214043	0.411788	0.124393
H181	H	-0.009584	1.128514	0.086968
H182	H	1.065042	0.665110	0.031062
H183	H	1.037669	0.469308	0.692555
H184	H	0.112247	1.128498	0.076804
H185	H	1.037597	0.469375	-0.206535
H186	H	0.231052	1.885661	-0.776342
H187	H	1.173138	0.371431	-0.097947
H188	H	0.366567	1.787771	-0.809701
