data_functionalizedCrystal
_audit_creation_method	'MofGen! by Chris Wilmer'
_symmetry_space_group_name_H-M	'P1'
_symmetry_Int_Tables_number	1
_symmetry_cell_setting	triclinic
loop_
_symmetry_equiv_pos_as_xyz
  x,y,z
_cell_length_a	18.215407
_cell_length_b	12.759400
_cell_length_c	18.215407
_cell_angle_alpha	90.007693
_cell_angle_beta	90.008215
_cell_angle_gamma	90.007678
loop_
_atom_site_label
_atom_site_type_symbol
_atom_site_fract_x
_atom_site_fract_y
_atom_site_fract_z
Zn1	Zn	1.125062	-0.418594	0.416099
Zn2	Zn	1.625062	0.081406	0.916099
Zn3	Zn	1.125016	-0.594243	0.293043
Zn4	Zn	1.625016	-0.094243	0.793043
Zn5	Zn	1.002015	-0.418562	0.293051
Zn6	Zn	1.502015	0.081438	0.793051
Zn7	Zn	1.001986	-0.594215	0.416072
Zn8	Zn	1.501986	-0.094215	0.916072
O9	O	1.063520	-0.506403	0.354566
O10	O	1.563520	-0.006403	0.854566
O11	O	1.228040	-0.441920	0.399783
O12	O	1.728040	0.058080	0.899783
O13	O	1.108693	-0.570937	0.190059
O14	O	1.608693	-0.070937	0.690059
O15	O	1.018369	-0.271545	0.309388
O16	O	1.518369	0.228455	0.809388
O17	O	1.228007	-0.570968	0.309374
O18	O	1.728007	-0.070968	0.809374
O19	O	1.108771	-0.271569	0.399791
O20	O	1.608771	0.228431	0.899791
O21	O	1.018325	-0.441865	0.190065
O22	O	1.518325	0.058135	0.690065
O23	O	0.899027	-0.441837	0.309362
O24	O	1.399027	0.058163	0.809362
O25	O	1.018319	-0.570920	0.519060
O26	O	1.518319	-0.070920	1.019060
O27	O	0.899005	-0.570889	0.399745
O28	O	1.399005	-0.070889	0.899745
O29	O	1.108743	-0.441892	0.519080
O30	O	1.608743	0.058108	1.019080
O31	O	1.108665	-0.741260	0.309348
O32	O	1.608665	-0.241260	0.809348
O33	O	1.018274	-0.741239	0.399737
O34	O	1.518274	-0.241239	0.899737
C35	C	0.872314	-0.506357	0.354552
C36	C	1.372314	-0.006357	0.854552
C37	C	0.790515	-0.506363	0.354563
C38	C	1.290515	-0.006363	0.854563
C39	C	1.063481	-0.779371	0.354554
C40	C	1.563481	-0.279371	0.854554
C41	C	1.063532	-0.896147	0.354574
C42	C	1.563532	-0.396147	0.854574
C43	C	0.525469	-0.439337	0.401717
C44	C	1.025469	0.060663	0.901717
C45	C	0.602328	-0.439320	0.401715
C46	C	1.102328	0.060680	0.901715
C47	C	0.602312	-0.573504	0.307431
C48	C	1.102312	-0.073504	0.807431
C49	C	0.525455	-0.573525	0.307438
C50	C	1.025455	-0.073525	0.807438
C51	C	0.487035	-0.506436	0.354580
C52	C	0.987035	-0.006436	0.854580
C53	C	0.640751	-0.506397	0.354571
C54	C	1.140751	-0.006397	0.854571
C55	C	0.724085	-0.506380	0.354568
C56	C	1.224085	-0.006380	0.854568
C57	C	0.403696	-0.506455	0.354584
C58	C	0.903696	-0.006455	0.854584
C59	C	1.110581	-0.950942	0.401685
C60	C	1.610581	-0.450942	0.901685
C61	C	1.110615	-1.060666	0.401703
C62	C	1.610615	-0.560666	0.901703
C63	C	1.016550	-1.060791	0.307492
C64	C	1.516550	-0.560791	0.807492
C65	C	1.016512	-0.951069	0.307479
C66	C	1.516512	-0.451069	0.807479
C67	C	1.157601	-0.896020	0.448781
C68	C	1.657601	-0.396020	0.948781
C69	C	1.204654	-0.950815	0.495896
C70	C	1.704654	-0.450815	0.995896
C71	C	1.204688	-1.060539	0.495914
C72	C	1.704688	-0.560539	0.995914
C73	C	1.157669	-1.115468	0.448817
C74	C	1.657669	-0.615468	0.948817
C75	C	1.255473	-0.506451	0.354581
C76	C	1.755473	-0.006451	0.854581
C77	C	1.337272	-0.506471	0.354587
C78	C	1.837272	-0.006471	0.854587
C79	C	1.063533	-0.506406	0.546519
C80	C	1.563533	-0.006406	1.046519
C81	C	1.063538	-0.506408	0.628318
C82	C	1.563538	-0.006408	1.128318
C83	C	1.063579	-0.232370	0.354594
C84	C	1.563579	0.267630	0.854594
C85	C	1.063604	-0.115594	0.354606
C86	C	1.563604	0.384406	0.854606
C87	C	1.110607	-0.439234	0.816523
C88	C	1.610607	0.060766	1.316523
C89	C	1.110603	-0.439233	0.893382
C90	C	1.610603	0.060767	1.393382
C91	C	1.016445	-0.573597	0.893350
C92	C	1.516445	-0.073597	1.393350
C93	C	1.016446	-0.573591	0.816493
C94	C	1.516446	-0.073591	1.316493
C95	C	1.063531	-0.506411	0.778081
C96	C	1.563531	-0.006411	1.278081
C97	C	1.063526	-0.506416	0.931797
C98	C	1.563526	-0.006416	1.431797
C99	C	1.063521	-0.506416	1.015131
C100	C	1.563521	-0.006416	1.515131
C101	C	1.063535	-0.506409	0.694742
C102	C	1.563535	-0.006409	1.194742
C103	C	1.063508	-0.506423	1.163360
C104	C	1.563508	-0.006423	1.663360
C105	C	1.063519	-0.506420	1.081561
C106	C	1.563519	-0.006420	1.581561
H107	H	0.494190	-0.384709	0.440103
H108	H	0.994190	0.115291	0.940103
C109	C	1.161599	-0.366225	0.774727
C110	C	1.661599	0.133775	1.274727
C111	C	1.119941	-0.298894	0.730593
C112	C	1.619941	0.201106	1.230593
C113	C	1.166889	-0.231627	0.692075
C114	C	1.666889	0.268373	1.192075
H115	H	1.189650	-0.326115	0.808549
H116	H	1.689650	0.173885	1.308549
H117	H	1.193650	-0.406383	0.744701
H118	H	1.693650	0.093617	1.244701
H119	H	1.087903	-0.258740	0.760616
H120	H	1.587903	0.241260	1.260616
H121	H	1.091892	-0.338975	0.696757
H122	H	1.591892	0.161025	1.196757
H123	H	1.198939	-0.271785	0.662049
H124	H	1.698939	0.228215	1.162049
H125	H	1.194936	-0.191524	0.725902
H126	H	1.694936	0.308476	1.225902
H127	H	1.138630	-0.185942	0.662121
H128	H	1.638630	0.314058	1.162121
C129	C	0.965311	-0.891700	0.256375
C130	C	1.465311	-0.391700	0.756375
C131	C	0.892496	-0.918466	0.272331
C132	C	1.392496	-0.418466	0.772331
C133	C	0.845306	-0.863804	0.225267
C134	C	1.345306	-0.363804	0.725267
H135	H	0.971924	-0.818473	0.263071
H136	H	1.471924	-0.318473	0.763071
H137	H	0.976075	-0.909709	0.206925
H138	H	1.476075	-0.409709	0.706925
H139	H	0.881737	-0.900450	0.321769
H140	H	1.381737	-0.400450	0.821769
H141	H	0.885861	-0.991683	0.265631
H142	H	1.385861	-0.491683	0.765631
H143	H	0.856070	-0.881813	0.175817
H144	H	1.356070	-0.381813	0.675817
H145	H	0.851925	-0.790580	0.231967
H146	H	1.351925	-0.290580	0.731967
H147	H	0.795897	-0.881964	0.236082
H148	H	1.295897	-0.381964	0.736082
C149	C	0.643923	-0.366352	0.452920
C150	C	1.143923	0.133648	0.952920
C151	C	0.593824	-0.307589	0.494190
C152	C	1.093824	0.192411	0.994190
C153	C	0.632114	-0.240348	0.541364
C154	C	1.132114	0.259652	1.041364
H155	H	0.673915	-0.406483	0.485005
H156	H	1.173915	0.093517	0.985005
H157	H	0.673883	-0.320452	0.424834
H158	H	1.173883	0.179548	0.924834
H159	H	0.563877	-0.353483	0.522274
H160	H	1.063877	0.146517	1.022274
H161	H	0.563830	-0.267437	0.462125
H162	H	1.063830	0.232563	0.962125
H163	H	0.662073	-0.194448	0.513278
H164	H	1.162073	0.305552	1.013278
H165	H	0.662105	-0.280487	0.573444
H166	H	1.162105	0.219513	1.073444
H167	H	0.598127	-0.200463	0.569366
H168	H	1.098127	0.299537	1.069366
C169	C	1.161755	-0.366466	0.935216
C170	C	1.661755	0.133534	1.435216
C171	C	1.208898	-0.425960	0.979359
C172	C	1.708898	0.074040	1.479359
C173	C	1.256022	-0.358957	1.017914
C174	C	1.756022	0.141043	1.517914
H175	H	1.189865	-0.326431	0.901416
H176	H	1.689865	0.173569	1.401416
H177	H	1.133628	-0.320702	0.965238
H178	H	1.633628	0.179298	1.465238
H179	H	1.237022	-0.471705	0.949339
H180	H	1.737022	0.028295	1.449339
H181	H	1.180808	-0.465993	1.013172
H182	H	1.680808	0.034007	1.513172
H183	H	1.227894	-0.313193	1.047937
H184	H	1.727894	0.186807	1.547937
H185	H	1.284127	-0.318925	0.984109
H186	H	1.784127	0.181075	1.484109
H187	H	1.288009	-0.399312	1.047875
H188	H	1.788009	0.100688	1.547875
H189	H	0.978112	-0.628294	0.924634
H190	H	1.478112	-0.128294	1.424634
C191	C	0.965305	-0.646648	0.774882
C192	C	1.465305	-0.146648	1.274882
C193	C	0.924088	-0.705509	0.824969
C194	C	1.424088	-0.205509	1.324969
C195	C	0.876978	-0.772824	0.786665
C196	C	1.376978	-0.272824	1.286665
H197	H	0.933184	-0.606566	0.744898
H198	H	1.433184	-0.106566	1.244898
H199	H	0.993434	-0.692483	0.744914
H200	H	1.493434	-0.192483	1.244914
H201	H	0.895961	-0.659681	0.854925
H202	H	1.395961	-0.159681	1.354925
H203	H	0.956191	-0.745613	0.854956
H204	H	1.456191	-0.245613	1.354956
H205	H	0.905107	-0.818658	0.756697
H206	H	1.405107	-0.318658	1.256697
H207	H	0.844861	-0.732733	0.756682
H208	H	1.344861	-0.232733	1.256682
H209	H	0.849012	-0.812776	0.820643
H210	H	1.349012	-0.312776	1.320643
H211	H	0.633602	-0.628123	0.269048
H212	H	1.133602	-0.128123	0.769048
H213	H	0.494161	-0.628171	0.269052
H214	H	0.994161	-0.128171	0.769052
H215	H	1.242931	-0.906086	0.534245
H216	H	1.742931	-0.406086	1.034245
C217	C	1.157645	-0.776892	0.448898
C218	C	1.657645	-0.276892	0.948898
C219	C	1.208878	-0.740518	0.500237
C220	C	1.708878	-0.240518	1.000237
C221	C	1.208932	-0.630784	0.500370
C222	C	1.708932	-0.130784	1.000370
H223	H	1.170420	-0.751953	0.401457
H224	H	1.670420	-0.251953	0.901457
H225	H	1.110150	-0.752066	0.461619
H226	H	1.610150	-0.252066	0.961619
H227	H	1.256363	-0.765334	0.487511
H228	H	1.756363	-0.265334	0.987511
H229	H	1.196115	-0.765428	0.547685
H230	H	1.696115	-0.265428	1.047685
H231	H	1.161437	-0.605958	0.513091
H232	H	1.661437	-0.105958	1.013091
H233	H	1.221706	-0.605856	0.452926
H234	H	1.721706	-0.105856	0.952926
H235	H	1.243688	-0.606091	0.535207
H236	H	1.743688	-0.106091	1.035207
C237	C	1.255849	-1.119843	0.547095
C238	C	1.755849	-0.619843	1.047095
C239	C	1.297028	-1.048256	0.588320
C240	C	1.797028	-0.548256	1.088320
C241	C	1.344176	-1.102845	0.635468
C242	C	1.844176	-0.602845	1.135468
H243	H	1.227772	-1.162657	0.579209
H244	H	1.727772	-0.662657	1.079209
H245	H	1.287987	-1.162609	0.518992
H246	H	1.787987	-0.662609	1.018992
H247	H	1.264894	-1.005507	0.616421
H248	H	1.764894	-0.505507	1.116421
H249	H	1.325120	-1.005439	0.556226
H250	H	1.825120	-0.505439	1.056226
H251	H	1.376314	-1.145612	0.607366
H252	H	1.876314	-0.645612	1.107366
H253	H	1.316093	-1.145657	0.667578
H254	H	1.816093	-0.645657	1.167578
H255	H	1.372126	-1.054282	0.663441
H256	H	1.872126	-0.554282	1.163441
H257	H	1.157692	-1.204813	0.448844
H258	H	1.657692	-0.704813	0.948844
H259	H	0.978270	-1.105523	0.269148
H260	H	1.478270	-0.605523	0.769148
