data_functionalizedCrystal
_audit_creation_method	'MofGen! by Chris Wilmer'
_symmetry_space_group_name_H-M	'P1'
_symmetry_Int_Tables_number	1
_symmetry_cell_setting	triclinic
loop_
_symmetry_equiv_pos_as_xyz
  x,y,z
_cell_length_a	10.654550
_cell_length_b	10.654550
_cell_length_c	9.730223
_cell_angle_alpha	90.000146
_cell_angle_beta	90.000043
_cell_angle_gamma	84.484930
loop_
_atom_site_label
_atom_site_type_symbol
_atom_site_fract_x
_atom_site_fract_y
_atom_site_fract_z
O1	O	1.667839	0.176399	0.114173
O2	O	1.302361	0.193205	0.114197
O3	O	1.493503	0.002062	0.114190
O4	O	1.476697	0.367541	0.114180
O5	O	1.493490	0.002057	-0.114390
O6	O	1.302348	0.193199	-0.114383
O7	O	1.667827	0.176393	-0.114407
Zn8	Zn	1.485085	0.184796	-0.150687
Zn9	Zn	1.485102	0.184802	0.150477
O10	O	1.476684	0.367536	-0.114400
C11	C	1.255556	0.191968	-0.000090
C12	C	1.116113	0.188276	-0.000080
N13	N	1.485083	0.184790	-0.356223
C14	C	1.036628	0.300818	-0.000087
C15	C	0.905607	0.297341	-0.000111
C16	C	0.933570	0.068772	-0.000115
C17	C	1.064588	0.072250	-0.000101
C18	C	1.714631	0.177630	-0.000117
C19	C	1.854074	0.181322	-0.000118
C20	C	1.477925	0.414336	-0.000112
C21	C	1.481616	0.553779	-0.000116
C22	C	1.492263	-0.044738	-0.000095
C23	C	1.488571	-0.184181	-0.000082
C24	C	1.369075	0.633265	-0.000105
C25	C	1.372551	0.764286	-0.000083
C26	C	1.601121	0.736323	-0.000089
C27	C	1.597643	0.605304	-0.000101
C28	C	1.569750	0.100188	-0.428152
C29	C	1.569763	0.100189	-0.572035
C30	C	1.400438	0.269404	-0.572048
C31	C	1.400420	0.269396	-0.428167
N32	N	1.485114	0.184798	0.356013
H33	H	1.078574	0.395294	-0.000080
H34	H	1.689294	0.540583	-0.000104
H35	H	1.331468	0.338290	-0.369599
H36	H	1.638687	0.031295	-0.369579
H37	H	0.891602	-0.025693	-0.000140
C38	C	1.307310	0.362463	-0.651199
N39	N	1.237165	0.432557	-0.710815
C40	C	1.662893	0.007110	-0.651150
N41	N	1.733039	-0.063006	-0.710739
C42	C	1.241443	0.576593	-0.000106
N43	N	1.145306	0.533911	-0.000101
C44	C	1.728744	0.793013	-0.000095
N45	N	1.824872	0.835711	-0.000108
H46	H	0.840894	0.388984	-0.000120
H47	H	1.129309	-0.019401	-0.000099
H48	H	1.280908	0.828999	-0.000073
