data_functionalizedCrystal
_audit_creation_method	'MofGen! by Chris Wilmer'
_symmetry_space_group_name_H-M	'P1'
_symmetry_Int_Tables_number	1
_symmetry_cell_setting	triclinic
loop_
_symmetry_equiv_pos_as_xyz
  x,y,z
_cell_length_a	18.215407
_cell_length_b	13.031981
_cell_length_c	18.215399
_cell_angle_alpha	82.788957
_cell_angle_beta	89.982632
_cell_angle_gamma	97.189335
loop_
_atom_site_label
_atom_site_type_symbol
_atom_site_fract_x
_atom_site_fract_y
_atom_site_fract_z
Zn1	Zn	1.087911	-0.416191	-0.378823
Zn2	Zn	1.587911	0.083809	0.121177
Zn3	Zn	1.072212	-0.590982	-0.240115
Zn4	Zn	1.572212	-0.090982	0.259885
Zn5	Zn	0.964841	-0.416216	-0.255774
Zn6	Zn	1.464841	0.083784	0.244226
Zn7	Zn	0.949208	-0.590914	-0.363151
Zn8	Zn	1.449208	-0.090914	0.136849
O9	O	1.018543	-0.503576	-0.309466
O10	O	1.518543	-0.003576	0.190534
O11	O	1.188811	-0.439395	-0.360429
O12	O	1.688811	0.060605	0.139571
O13	O	1.057942	-0.567837	-0.139204
O14	O	1.557942	-0.067837	0.360796
O15	O	0.994279	-0.269950	-0.285208
O16	O	1.494279	0.230050	0.214792
O17	O	1.177277	-0.567813	-0.258521
O18	O	1.677277	-0.067813	0.241479
O19	O	1.084698	-0.269931	-0.375612
O20	O	1.584698	0.230069	0.124388
O21	O	0.979057	-0.439437	-0.150709
O22	O	1.479057	0.060563	0.349291
O23	O	0.859785	-0.439372	-0.270012
O24	O	1.359785	0.060628	0.229988
O25	O	0.967635	-0.567698	-0.468218
O26	O	1.467635	-0.067698	0.031782
O27	O	0.848299	-0.567722	-0.348902
O28	O	1.348299	-0.067722	0.151098
O29	O	1.069539	-0.439329	-0.479732
O30	O	1.569539	0.060671	0.020268
O31	O	1.042783	-0.737235	-0.243324
O32	O	1.542783	-0.237235	0.256676
O33	O	0.952413	-0.737186	-0.333718
O34	O	1.452413	-0.237186	0.166282
C35	C	0.827340	-0.503543	-0.309456
C36	C	1.327340	-0.003543	0.190544
C37	C	0.745540	-0.503555	-0.309467
C38	C	1.245540	-0.003555	0.190533
C39	C	0.563338	-0.436825	-0.362592
C40	C	1.063338	0.063175	0.137408
C41	C	0.486479	-0.436834	-0.362594
C42	C	0.986479	0.063166	0.137406
C43	C	0.474498	-0.570355	-0.256350
C44	C	0.974498	-0.070355	0.243650
C45	C	0.551356	-0.570340	-0.256345
C46	C	1.051356	-0.070340	0.243655
C47	C	0.595774	-0.503577	-0.309471
C48	C	1.095774	-0.003577	0.190529
C49	C	0.442056	-0.503601	-0.309477
C50	C	0.942056	-0.003601	0.190523
C51	C	0.358722	-0.503611	-0.309478
C52	C	0.858722	-0.003611	0.190522
C53	C	0.679114	-0.503565	-0.309469
C54	C	1.179114	-0.003565	0.190531
C55	C	0.994218	-0.775135	-0.285138
C56	C	1.494218	-0.275135	0.214862
C57	C	0.983879	-0.891309	-0.274755
C58	C	1.483879	-0.391309	0.225245
C59	C	1.023978	-0.943011	-0.314900
C60	C	1.523978	-0.443011	0.185100
C61	C	1.013293	-1.063083	-0.304169
C62	C	1.513293	-0.563083	0.195831
C63	C	1.210493	-0.503609	-0.309476
C64	C	1.710493	-0.003609	0.190524
C65	C	1.292291	-0.503623	-0.309481
C66	C	1.792291	-0.003623	0.190519
C67	C	1.018594	-0.503503	-0.501425
C68	C	1.518594	-0.003503	-0.001425
C69	C	1.018616	-0.503473	-0.583227
C70	C	1.518616	-0.003473	-0.083227
C71	C	1.042983	-0.230956	-0.333905
C72	C	1.542983	0.269044	0.166095
C73	C	1.053398	-0.114782	-0.344320
C74	C	1.553398	0.385218	0.155680
C75	C	1.071700	-0.436569	-0.777423
C76	C	1.571700	0.063431	-0.277423
C77	C	1.071712	-0.436538	-0.854285
C78	C	1.571712	0.063462	-0.354285
C79	C	0.965599	-0.570215	-0.842283
C80	C	1.465599	-0.070215	-0.342283
C81	C	0.965585	-0.570240	-0.765424
C82	C	1.465585	-0.070240	-0.265424
C83	C	1.018639	-0.503418	-0.732995
C84	C	1.518639	-0.003418	-0.232995
C85	C	1.018665	-0.503363	-0.886717
C86	C	1.518665	-0.003363	-0.386717
C87	C	1.018677	-0.503331	-0.970053
C88	C	1.518677	-0.003331	-0.470053
C89	C	1.018627	-0.503449	-0.649654
C90	C	1.518627	-0.003449	-0.149654
C91	C	1.018541	-0.503572	-0.118260
C92	C	1.518541	-0.003572	0.381740
C93	C	1.018688	-0.503308	-0.036485
C94	C	1.518688	-0.003308	0.463515
H95	H	0.438323	-0.624713	-0.213097
H96	H	0.938323	-0.124713	0.286903
H97	H	0.971047	-1.107708	-0.261856
H98	H	1.471047	-0.607708	0.238144
H99	H	0.941635	-0.935938	-0.232445
H100	H	1.441635	-0.435938	0.267555
H101	H	1.095639	-1.070158	-0.386639
H102	H	1.595639	-0.570158	0.113361
N103	N	0.586342	-0.642338	-0.199041
N104	N	1.086342	-0.142338	0.300959
H105	H	0.566291	-0.717042	-0.203693
H106	H	1.066291	-0.217042	0.296307
H107	H	0.641766	-0.632106	-0.207127
H108	H	1.141766	-0.132106	0.292873
H109	H	1.114918	-0.382101	-0.890455
H110	H	1.614918	0.117899	-0.390455
H111	H	1.066216	-0.898384	-0.357216
H112	H	1.566216	-0.398384	0.142784
H113	H	0.922405	-0.624621	-0.868696
H114	H	1.422405	-0.124621	-0.368696
N115	N	1.128920	-0.364499	-0.742445
N116	N	1.628920	0.135501	-0.242445
H117	H	1.162534	-0.322145	-0.782256
H118	H	1.662534	0.177855	-0.282256
H119	H	1.103293	-0.316137	-0.714888
H120	H	1.603293	0.183863	-0.214888
N121	N	0.908339	-0.642323	-0.717500
N122	N	1.408339	-0.142323	-0.217500
H123	H	0.874731	-0.684651	-0.749705
H124	H	1.374731	-0.184651	-0.249705
H125	H	0.933942	-0.690711	-0.681268
H126	H	1.433942	-0.190711	-0.181268
N127	N	0.611245	-0.364820	-0.419891
N128	N	1.111245	0.135180	0.080109
H129	H	0.664857	-0.374943	-0.411833
H130	H	1.164857	0.125057	0.088167
H131	H	0.596359	-0.381195	-0.470962
H132	H	1.096359	0.118805	0.029038
H133	H	0.460073	-0.382477	-0.405850
H134	H	0.960073	0.117523	0.094150
