data_functionalizedCrystal
_audit_creation_method	'MofGen! by Chris Wilmer'
_symmetry_space_group_name_H-M	'P1'
_symmetry_Int_Tables_number	1
_symmetry_cell_setting	triclinic
loop_
_symmetry_equiv_pos_as_xyz
  x,y,z
_cell_length_a	23.532407
_cell_length_b	23.532357
_cell_length_c	13.448316
_cell_angle_alpha	89.987857
_cell_angle_beta	89.995911
_cell_angle_gamma	82.838519
loop_
_atom_site_label
_atom_site_type_symbol
_atom_site_fract_x
_atom_site_fract_y
_atom_site_fract_z
O1	O	0.755249	0.069138	-0.082641
O2	O	1.255249	0.569138	0.417359
O3	O	0.589384	0.079142	-0.082658
O4	O	1.089384	0.579142	0.417342
O5	O	0.677333	-0.008794	-0.082629
O6	O	1.177333	0.491206	0.417371
O7	O	0.667300	0.157074	-0.082671
O8	O	1.167300	0.657074	0.417329
O9	O	0.677322	-0.008799	0.082755
O10	O	1.177322	0.491201	0.582755
O11	O	0.589373	0.079136	0.082725
O12	O	1.089373	0.579136	0.582725
O13	O	0.755238	0.069133	0.082743
O14	O	1.255238	0.569133	0.582743
Cu15	Cu	0.672304	0.074134	0.097835
Cu16	Cu	1.172304	0.574134	0.597835
Cu17	Cu	0.672317	0.074140	-0.097751
Cu18	Cu	1.172317	0.574140	0.402249
O19	O	0.667289	0.157068	0.082713
O20	O	1.167289	0.657068	0.582713
C21	C	0.568162	0.078884	0.000032
C22	C	1.068162	0.578884	0.500032
C23	C	0.504945	0.078118	0.000026
C24	C	1.004945	0.578118	0.500026
C25	C	0.238788	0.022922	0.000067
C26	C	0.738788	0.522922	0.500067
C27	C	0.298188	0.023633	0.000066
C28	C	0.798188	0.523633	0.500066
O29	O	0.334940	-0.020154	0.000112
O30	O	0.834940	0.479846	0.500112
N31	N	0.320805	0.075911	0.000046
N32	N	0.820805	0.575911	0.500046
C33	C	0.284018	0.127480	0.000037
C34	C	0.784018	0.627480	0.500037
O35	O	0.308710	0.172012	0.000021
O36	O	0.808710	0.672012	0.500021
C37	C	0.224619	0.126768	0.000045
C38	C	0.724619	0.626768	0.500045
C39	C	0.202006	0.074487	0.000054
C40	C	0.702006	0.574487	0.500054
C41	C	0.216174	-0.029355	0.000078
C42	C	0.716174	0.470645	0.500078
C43	C	0.156778	-0.030066	0.000076
C44	C	0.656778	0.469934	0.500076
C45	C	0.119996	0.021499	0.000064
C46	C	0.619996	0.521499	0.500064
C47	C	0.142610	0.073776	0.000053
C48	C	0.642610	0.573776	0.500053
C49	C	0.187833	0.178337	0.000042
C50	C	0.687833	0.678337	0.500042
C51	C	0.128431	0.177620	0.000051
C52	C	0.628431	0.677620	0.500051
C53	C	0.105818	0.125339	0.000060
C54	C	0.605818	0.625339	0.500060
C55	C	0.046431	0.124630	0.000039
C56	C	0.546431	0.624630	0.500039
N57	N	0.023815	0.072353	0.000059
N58	N	0.523815	0.572353	0.500059
C59	C	0.060597	0.020787	0.000072
C60	C	0.560597	0.520787	0.500072
C61	C	0.408760	0.128971	0.000023
C62	C	0.908760	0.628971	0.500023
C63	C	0.468158	0.129684	0.000008
C64	C	0.968158	0.629684	0.500008
C65	C	0.482324	0.025837	0.000039
C66	C	0.982324	0.525837	0.500039
C67	C	0.422925	0.025125	0.000047
C68	C	0.922925	0.525125	0.500047
C69	C	0.386143	0.076694	0.000043
C70	C	0.886143	0.576694	0.500043
C71	C	-0.064140	0.019297	0.000068
C72	C	0.435860	0.519297	0.500068
C73	C	-0.123542	0.018591	0.000062
C74	C	0.376458	0.518591	0.500062
C75	C	-0.137702	0.122438	0.000036
C76	C	0.362298	0.622438	0.500036
C77	C	-0.078306	0.123145	0.000037
C78	C	0.421694	0.623145	0.500037
C79	C	-0.041525	0.071570	0.000056
C80	C	0.458475	0.571570	0.500056
O81	O	0.009644	0.168394	-0.000002
O82	O	0.509644	0.668394	0.499998
O83	O	0.035897	-0.023737	0.000101
O84	O	0.535897	0.476263	0.500101
C85	C	0.677076	-0.030013	0.000066
C86	C	1.177076	0.469987	0.500066
C87	C	0.676322	-0.093232	0.000076
C88	C	1.176322	0.406768	0.500076
C89	C	0.671591	-0.485240	-0.090129
C90	C	1.171591	0.014760	0.409871
C91	C	0.670874	-0.544639	-0.090135
C92	C	1.170874	-0.044639	0.409865
O93	O	0.670489	-0.575353	-0.166805
O94	O	1.170489	-0.075353	0.333195
N95	N	0.670512	-0.574354	0.000014
N96	N	1.170512	-0.074354	0.500014
C97	C	0.670862	-0.544664	0.090175
C98	C	1.170862	-0.044664	0.590175
O99	O	0.670488	-0.575393	0.166854
O100	O	1.170488	-0.075393	0.666854
C101	C	0.671575	-0.485265	0.090180
C102	C	1.171575	0.014735	0.590180
C103	C	0.671942	-0.455555	0.000025
C104	C	1.171942	0.044445	0.500025
C105	C	0.671958	-0.455530	-0.180277
C106	C	1.171958	0.044470	0.319723
C107	C	0.672676	-0.396134	-0.180271
C108	C	1.172676	0.103866	0.319729
C109	C	0.673027	-0.366450	-0.090117
C110	C	1.173027	0.133550	0.409883
C111	C	0.672661	-0.396160	0.000031
C112	C	1.172661	0.103840	0.500031
C113	C	0.671921	-0.455577	0.180340
C114	C	1.171921	0.044423	0.680340
C115	C	0.672634	-0.396174	0.180337
C116	C	1.172634	0.103826	0.680337
C117	C	0.673001	-0.366463	0.090182
C118	C	1.173001	0.133537	0.590182
C119	C	0.673730	-0.307080	0.090191
C120	C	1.173730	0.192920	0.590191
N121	N	0.674092	-0.277366	0.000042
N122	N	1.174092	0.222634	0.500042
C123	C	0.673741	-0.307051	-0.090112
C124	C	1.173741	0.192949	0.409888
C125	C	0.669363	-0.669406	0.090159
C126	C	1.169363	-0.169406	0.590159
C127	C	0.668654	-0.728804	0.090155
C128	C	1.168654	-0.228804	0.590155
C129	C	0.668665	-0.728775	-0.090156
C130	C	1.168665	-0.228775	0.409844
C131	C	0.669378	-0.669376	-0.090151
C132	C	1.169378	-0.169376	0.409849
C133	C	0.669725	-0.639692	0.000009
C134	C	1.169725	-0.139692	0.500009
C135	C	0.675250	-0.182317	-0.090093
C136	C	1.175250	0.317683	0.409907
C137	C	0.675970	-0.122916	-0.090079
C138	C	1.175970	0.377084	0.409921
C139	C	0.675956	-0.122950	0.090232
C140	C	1.175956	0.377050	0.590232
C141	C	0.675239	-0.182346	0.090218
C142	C	1.175239	0.317654	0.590218
C143	C	0.674883	-0.212027	0.000048
C144	C	1.174883	0.287973	0.500048
O145	O	0.674114	-0.276328	0.166822
O146	O	1.174114	0.223672	0.666822
O147	O	0.674107	-0.276314	-0.166778
O148	O	1.174107	0.223686	0.333222
C149	C	0.776459	0.069390	0.000051
C150	C	1.276459	0.569390	0.500051
C151	C	0.839676	0.070156	0.000050
C152	C	1.339676	0.570156	0.500050
C153	C	0.667545	0.178288	0.000016
C154	C	1.167545	0.678288	0.500016
C155	C	0.668300	0.241506	0.000000
C156	C	1.168300	0.741506	0.500000
N157	N	0.672299	0.074129	0.235399
N158	N	1.172299	0.574129	0.735399
N159	N	0.672327	0.074141	-0.235315
N160	N	1.172327	0.574141	0.264685
C161	C	0.711255	0.035207	0.287453
C162	C	1.211255	0.535207	0.787453
C163	C	0.711259	0.035207	0.391556
C164	C	1.211259	0.535207	0.891556
C165	C	0.672309	0.074132	0.443604
C166	C	1.172309	0.574132	0.943604
C167	C	0.633349	0.113055	0.391543
C168	C	1.133349	0.613055	0.891543
C169	C	0.633343	0.113053	0.287442
C170	C	1.133343	0.613053	0.787442
C171	C	0.633365	0.113059	0.608523
C172	C	1.133365	0.613059	1.108523
C173	C	0.633371	0.113063	0.712632
C174	C	1.133371	0.613063	1.212632
C175	C	0.711280	0.035213	0.712637
C176	C	1.211280	0.535213	1.212637
C177	C	0.711274	0.035211	0.608536
C178	C	1.211274	0.535211	1.108536
C179	C	0.672315	0.074135	0.556483
C180	C	1.172315	0.574135	1.056483
H181	H	0.512283	-0.016151	0.000050
H182	H	1.012283	0.483849	0.500050
H183	H	0.601638	0.144754	0.566145
H184	H	1.101638	0.644754	1.066145
H185	H	0.674957	-0.206476	-0.163518
H186	H	1.174957	0.293524	0.336482
N187	N	0.753262	-0.006774	0.231306
N188	N	1.253262	0.493226	0.731306
H189	H	0.793644	-0.000422	0.249403
H190	H	1.293644	0.499578	0.749403
H191	H	0.746891	-0.047144	0.249462
H192	H	1.246891	0.452856	0.749462
N193	N	-0.053910	0.179531	0.000022
N194	N	0.446090	0.679531	0.500022
H195	H	-0.029577	0.182144	-0.061283
H196	H	0.470423	0.682144	0.438717
H197	H	-0.086258	0.212056	0.000048
H198	H	0.413742	0.712056	0.500048
H199	H	0.676245	-0.098771	0.163633
H200	H	1.176245	0.401229	0.663633
N201	N	0.591359	0.155036	0.768783
N202	N	1.091359	0.655036	1.268783
H203	H	0.612976	0.180145	0.811955
H204	H	1.112976	0.680145	1.311955
H205	H	0.566681	0.179655	0.719959
H206	H	1.066681	0.679655	1.219959
H207	H	0.378815	0.170968	0.000012
H208	H	0.878815	0.670968	0.500012
N209	N	0.674857	-0.214397	0.187453
N210	N	1.174857	0.285603	0.687453
H211	H	0.639252	-0.234223	0.191473
H212	H	1.139252	0.265777	0.691473
H213	H	0.709894	-0.243833	0.191400
H214	H	1.209894	0.256167	0.691400
N215	N	0.753294	-0.006754	0.447701
N216	N	1.253294	0.493246	0.947701
H217	H	0.777977	-0.031403	0.398932
H218	H	1.277977	0.468597	0.898932
H219	H	0.778333	0.014948	0.490856
H220	H	1.278333	0.514948	0.990856
H221	H	0.486564	0.172256	-0.000014
H222	H	0.986564	0.672256	0.499986
H223	H	0.404518	-0.017447	0.000056
H224	H	0.904518	0.482553	0.500056
H225	H	0.742993	0.003518	0.566159
H226	H	1.242993	0.503518	1.066159
H227	H	0.743002	0.003520	0.755026
H228	H	1.243002	0.503520	1.255026
H229	H	0.668364	-0.752990	0.163569
H230	H	1.168364	-0.252990	0.663569
H231	H	0.206234	0.220910	0.000030
H232	H	0.706234	0.720910	0.500030
N233	N	0.591329	0.155037	0.231297
N234	N	1.091329	0.655037	0.731297
H235	H	0.597234	0.149128	0.157452
H236	H	1.097234	0.649128	0.657452
H237	H	0.550970	0.148661	0.249510
H238	H	1.050970	0.648661	0.749510
N239	N	0.591342	0.155042	0.447678
N240	N	1.091342	0.655042	0.947678
H241	H	0.566662	0.179698	0.398903
H242	H	1.066662	0.679698	0.898903
H243	H	0.566297	0.133368	0.490892
H244	H	1.066297	0.633368	0.990892
H245	H	0.669647	-0.645241	0.163583
H246	H	1.169647	-0.145241	0.663583
H247	H	-0.141950	-0.023984	0.000068
H248	H	0.358050	0.476016	0.500068
N249	N	0.671525	-0.487612	0.277580
N250	N	1.171525	0.012388	0.777580
H251	H	0.671853	-0.459784	0.334684
H252	H	1.171853	0.040216	0.834684
H253	H	0.635917	-0.507436	0.281503
H254	H	1.135917	-0.007436	0.781503
N255	N	0.676345	-0.090859	-0.187311
N256	N	1.176345	0.409141	0.312689
H257	H	0.711947	-0.071028	-0.191338
H258	H	1.211947	0.428972	0.308662
H259	H	0.675983	-0.118704	-0.244377
H260	H	1.175983	0.381296	0.255623
H261	H	0.668377	-0.752955	-0.163564
H262	H	1.168377	-0.252955	0.336436
N263	N	0.088768	0.233248	0.000044
N264	N	0.588768	0.733248	0.500044
H265	H	0.063808	0.235277	-0.061263
H266	H	0.563808	0.735277	0.438737
H267	H	0.063844	0.235236	0.061394
H268	H	0.563844	0.735236	0.561394
N269	N	-0.024475	-0.036328	0.000092
N270	N	0.475525	0.463672	0.500092
H271	H	-0.047822	-0.069549	0.000098
H272	H	0.452178	0.430451	0.500098
H273	H	0.000481	-0.038296	-0.061218
H274	H	0.500481	0.461704	0.438782
N275	N	0.132392	-0.086455	0.000097
N276	N	0.632392	0.413545	0.500097
H277	H	0.164713	-0.119009	0.000109
H278	H	0.664713	0.380991	0.500109
H279	H	0.108057	-0.089014	0.061412
H280	H	0.608057	0.410986	0.561412
N281	N	0.673071	-0.364099	-0.277515
N282	N	1.173071	0.135901	0.222485
H283	H	0.708258	-0.379260	-0.316918
H284	H	1.208258	0.120740	0.183082
H285	H	0.637616	-0.369627	-0.316850
H286	H	1.137616	0.130373	0.183150
N287	N	0.255836	-0.084980	0.000095
N288	N	0.755836	0.415020	0.500095
H289	H	0.248589	-0.107797	-0.061207
H290	H	0.748589	0.392203	0.438793
H291	H	0.296884	-0.076562	0.000126
H292	H	0.796884	0.423438	0.500126
N293	N	-0.177380	0.178053	0.000019
N294	N	0.322620	0.678053	0.500019
H295	H	-0.218439	0.169664	0.000024
H296	H	0.281561	0.669664	0.500024
H297	H	-0.170094	0.200847	0.061325
H298	H	0.329906	0.700847	0.561325
N299	N	0.673017	-0.364160	0.277586
N300	N	1.173017	0.135840	0.777586
H301	H	0.673528	-0.322023	0.263917
H302	H	1.173528	0.177977	0.763917
H303	H	0.637578	-0.369728	0.316949
H304	H	1.137578	0.130272	0.816949
N305	N	0.671611	-0.487534	-0.277535
N306	N	1.171611	0.012466	0.222465
H307	H	0.636441	-0.472374	-0.316985
H308	H	1.136441	0.027626	0.183015
H309	H	0.707083	-0.481975	-0.316810
H310	H	1.207083	0.018025	0.183190
N311	N	0.669774	-0.637334	-0.187388
N312	N	1.169774	-0.137334	0.312612
H313	H	0.669445	-0.665158	-0.244496
H314	H	1.169445	-0.165158	0.255504
H315	H	0.634760	-0.607870	-0.191325
H316	H	1.134760	-0.107870	0.308675
