data_functionalizedCrystal
_audit_creation_method	'MofGen! by Chris Wilmer'
_symmetry_space_group_name_H-M	'P1'
_symmetry_Int_Tables_number	1
_symmetry_cell_setting	triclinic
loop_
_symmetry_equiv_pos_as_xyz
  x,y,z
_cell_length_a	15.944551
_cell_length_b	10.489741
_cell_length_c	8.965430
_cell_angle_alpha	90.001157
_cell_angle_beta	89.999468
_cell_angle_gamma	95.981044
loop_
_atom_site_label
_atom_site_type_symbol
_atom_site_fract_x
_atom_site_fract_y
_atom_site_fract_z
O1	O	0.118500	-1.692411	-0.123951
O2	O	0.129624	-1.321061	-0.123974
O3	O	0.001848	-1.516876	-0.123948
O4	O	0.246276	-1.496595	-0.123977
O5	O	0.001857	-1.516860	0.124130
O6	O	0.129633	-1.321044	0.124105
O7	O	0.118509	-1.692394	0.124128
Cu8	Cu	0.124071	-1.506718	0.146768
Cu9	Cu	0.124061	-1.506737	-0.146614
O10	O	0.246285	-1.496578	0.124102
C11	C	0.128788	-1.273532	0.000062
C12	C	0.126275	-1.131938	0.000054
C13	C	-0.029446	-1.516026	0.000091
C14	C	-0.122708	-1.513502	0.000092
N15	N	0.124078	-1.506713	0.353117
C16	C	-0.338330	-1.386093	0.000063
C17	C	-0.398988	-1.445249	0.122385
C18	C	-0.293461	-1.508935	0.000080
C19	C	-0.398979	-1.445294	-0.122201
C20	C	-0.458400	-1.504515	0.000062
C21	C	-0.352890	-1.568126	0.122503
C22	C	-0.352875	-1.568154	-0.122193
C23	C	-0.413515	-1.627399	0.000158
C24	C	-0.198443	-1.511478	0.000092
C25	C	-0.553417	-1.501982	0.000061
C26	C	0.277579	-1.497429	0.000059
C27	C	0.370841	-1.499953	0.000049
C28	C	0.119345	-1.739922	0.000088
C29	C	0.121858	-1.881517	0.000087
C30	C	0.044975	-1.064925	0.000077
C31	C	0.083376	-0.972274	-0.122240
C32	C	0.083403	-0.972291	0.122346
C33	C	0.164709	-1.041152	-0.122364
C34	C	0.164726	-1.041179	0.122332
C35	C	0.203186	-0.948554	-0.000015
N36	N	0.124048	-1.506752	-0.352963
C37	C	0.183150	-1.416127	0.450411
C38	C	0.200146	-1.531388	0.549830
C39	C	0.107089	-1.391501	0.549826
C40	C	0.141112	-1.622032	0.450347
C41	C	0.048022	-1.482069	0.450334
C42	C	0.064986	-1.597413	0.549708
H43	H	-0.419405	-1.393285	0.225792
H44	H	-0.332584	-1.620032	0.226030
O45	O	0.282982	-0.888415	0.000166
C46	C	0.385783	-0.743801	0.129133
C47	C	0.295402	-0.811856	0.129142
H48	H	0.395848	-0.681867	0.233382
H49	H	0.432930	-0.818377	0.128183
H50	H	0.395464	-0.680708	0.025752
H51	H	0.285640	-0.874945	0.232505
H52	H	0.248302	-0.737213	0.130014
H53	H	0.199079	-1.071510	-0.225891
H54	H	0.015015	-1.674119	0.593033
H55	H	-0.305636	-1.284128	0.000179
H56	H	-0.446060	-1.729454	0.000234
H57	H	-0.016264	-1.461162	0.406597
O58	O	0.276798	-1.556503	0.602062
C59	C	0.354378	-1.697558	0.747731
C60	C	0.267521	-1.669299	0.688650
H61	H	0.346904	-1.788738	0.817775
H62	H	0.398235	-1.710856	0.649796
H63	H	0.382293	-1.613931	0.819447
H64	H	0.239531	-1.752886	0.616957
H65	H	0.223722	-1.655950	0.786652
O66	O	-0.328508	-1.629908	-0.245711
C67	C	-0.324146	-1.635023	-0.514288
C68	C	-0.351774	-1.564959	-0.374516
H69	H	-0.342962	-1.582556	-0.618463
H70	H	-0.252809	-1.637119	-0.512607
H71	H	-0.356269	-1.737334	-0.515263
H72	H	-0.319711	-1.462618	-0.373450
H73	H	-0.423118	-1.562967	-0.376252
O74	O	-0.423461	-1.383291	-0.245462
C75	C	-0.539463	-1.312589	-0.384305
C76	C	-0.511858	-1.382822	-0.244644
H77	H	-0.610935	-1.312210	-0.383706
H78	H	-0.508336	-1.209693	-0.384149
H79	H	-0.519552	-1.363952	-0.488518
H80	H	-0.531763	-1.331566	-0.140357
H81	H	-0.542978	-1.485721	-0.244931
H82	H	-0.021859	-1.115541	-0.000068
H83	H	0.048972	-0.941743	-0.225644
H84	H	0.199101	-1.071741	0.225741
H85	H	0.048992	-0.941783	0.225756
O86	O	0.242908	-1.324959	0.398449
C87	C	0.390596	-1.247963	0.390269
C88	C	0.323009	-1.351300	0.449190
H89	H	0.455371	-1.269209	0.431295
H90	H	0.389717	-1.248184	0.263119
H91	H	0.376721	-1.149929	0.432860
H92	H	0.336839	-1.449385	0.406709
H93	H	0.323904	-1.350966	0.576338
O94	O	0.158204	-1.738389	0.398482
C95	C	0.115771	-1.965606	0.391415
C96	C	0.096295	-1.833929	0.450253
H97	H	0.065740	-2.042889	0.433274
H98	H	0.115628	-1.964671	0.264261
H99	H	0.180411	-1.986748	0.433238
H100	H	0.031654	-1.812705	0.408541
H101	H	0.096494	-1.834930	0.577405
H102	H	0.092733	-1.294052	0.593526
