data_functionalizedCrystal
_audit_creation_method	'MofGen! by Chris Wilmer'
_symmetry_space_group_name_H-M	'P1'
_symmetry_Int_Tables_number	1
_symmetry_cell_setting	triclinic
loop_
_symmetry_equiv_pos_as_xyz
  x,y,z
_cell_length_a	23.532407
_cell_length_b	10.654550
_cell_length_c	9.130313
_cell_angle_alpha	89.998357
_cell_angle_beta	90.000608
_cell_angle_gamma	83.666790
loop_
_atom_site_label
_atom_site_type_symbol
_atom_site_fract_x
_atom_site_fract_y
_atom_site_fract_z
O1	O	-0.756253	-0.152435	0.121613
O2	O	-0.590533	-0.174492	0.121656
O3	O	-0.677203	0.019397	0.121628
O4	O	-0.669583	-0.346323	0.121641
O5	O	-0.677195	0.019395	-0.121971
O6	O	-0.590525	-0.174493	-0.121943
O7	O	-0.756245	-0.152436	-0.121986
Cu8	Cu	-0.673384	-0.163465	-0.144207
Cu9	Cu	-0.673394	-0.163463	0.143877
O10	O	-0.669575	-0.346325	-0.121958
C11	C	-0.569310	-0.173931	-0.000138
C12	C	-0.506081	-0.172242	-0.000122
C13	C	-0.676640	0.066176	-0.000170
C14	C	-0.674966	0.205567	-0.000164
C15	C	-0.777469	-0.152997	-0.000189
C16	C	-0.840697	-0.154686	-0.000195
C17	C	-0.107657	-0.276389	-0.000185
C18	C	-0.048246	-0.274820	-0.000194
O19	O	-0.012131	-0.371366	-0.000244
N20	N	-0.024869	-0.159554	-0.000195
C21	C	-0.060906	-0.045849	-0.000203
O22	O	-0.035567	0.052339	-0.000207
C23	C	-0.120315	-0.047419	-0.000204
C24	C	-0.143689	-0.162693	-0.000188
C25	C	-0.131031	-0.391654	-0.000170
C26	C	-0.190438	-0.393222	-0.000158
C27	C	-0.226470	-0.279525	-0.000161
C28	C	-0.203095	-0.164261	-0.000176
C29	C	-0.156351	0.066285	-0.000222
C30	C	-0.215764	0.064705	-0.000225
C31	C	-0.239138	-0.050569	-0.000208
C32	C	-0.298534	-0.052133	-0.000168
N33	N	-0.321911	-0.167399	-0.000166
C34	C	-0.285879	-0.281096	-0.000163
C35	C	0.063858	-0.042560	-0.000202
C36	C	0.123266	-0.040989	-0.000190
C37	C	0.135922	-0.269961	-0.000184
C38	C	0.076512	-0.271531	-0.000186
C39	C	0.040481	-0.157827	-0.000201
C40	C	-0.410637	-0.284380	-0.000137
C41	C	-0.470049	-0.285938	-0.000119
C42	C	-0.482700	-0.056967	-0.000133
C43	C	-0.423293	-0.055408	-0.000143
C44	C	-0.387262	-0.169125	-0.000150
O45	O	-0.334684	0.044362	-0.000124
O46	O	-0.311227	-0.379267	-0.000179
C47	C	-0.670138	-0.393104	-0.000157
C48	C	-0.671812	-0.532494	-0.000153
N49	N	-0.673381	-0.163465	-0.346830
C50	C	-0.725996	0.286669	-0.000181
C51	C	-0.724419	0.417640	-0.000171
C52	C	-0.620779	0.386393	-0.000131
C53	C	-0.622356	0.255425	-0.000132
C54	C	-0.778606	0.236811	-0.000214
C55	C	-0.829640	0.317915	-0.000233
C56	C	-0.828064	0.448886	-0.000223
C57	C	-0.775453	0.498753	-0.000193
C58	C	-0.634999	-0.249281	-0.423507
C59	C	-0.635010	-0.249279	-0.576844
C60	C	-0.711788	-0.077632	-0.576812
C61	C	-0.711779	-0.077642	-0.423478
C62	C	-0.596601	-0.335104	-0.346858
C63	C	-0.558215	-0.420926	-0.423536
C64	C	-0.558226	-0.420924	-0.576872
C65	C	-0.596623	-0.335099	-0.653532
N66	N	-0.673401	-0.163453	0.346500
H67	H	-0.489077	-0.379812	-0.000105
H68	H	-0.743034	-0.007764	-0.361047
H69	H	0.057486	-0.365397	-0.000180
H70	H	-0.577945	0.427006	-0.000109
H71	H	-0.580802	0.189388	-0.000119
F72	F	-0.372299	-0.405411	-0.000145
F73	F	-0.780288	0.097422	-0.000230
H74	H	-0.512048	0.035602	-0.000130
F75	F	-0.254108	0.185729	-0.000245
H76	H	-0.869618	0.514918	-0.000223
H77	H	-0.774174	0.605399	-0.000168
F78	F	-0.596585	-0.335109	-0.183664
F79	F	-0.517356	-0.512272	-0.341949
H80	H	-0.526974	-0.490811	-0.639302
F81	F	-0.596636	-0.335113	-0.816728
H82	H	-0.209463	-0.487090	-0.000144
F83	F	-0.092691	-0.512676	-0.000167
F84	F	-0.752649	0.013705	-0.658403
F85	F	-0.398416	0.067279	-0.000161
F86	F	0.174280	-0.390968	-0.000187
F87	F	-0.885629	0.264841	-0.000248
F88	F	-0.131488	0.188977	-0.000219
H89	H	0.142291	0.052879	-0.000181
H90	H	0.034524	0.050038	-0.000202
