data_functionalizedCrystal
_audit_creation_method	'MofGen! by Chris Wilmer'
_symmetry_space_group_name_H-M	'P1'
_symmetry_Int_Tables_number	1
_symmetry_cell_setting	triclinic
loop_
_symmetry_equiv_pos_as_xyz
  x,y,z
_cell_length_a	27.732048
_cell_length_b	27.731996
_cell_length_c	26.210047
_cell_angle_alpha	89.998501
_cell_angle_beta	89.996535
_cell_angle_gamma	82.632022
loop_
_atom_site_label
_atom_site_type_symbol
_atom_site_fract_x
_atom_site_fract_y
_atom_site_fract_z
O1	O	0.640920	0.057512	-0.042370
O2	O	1.140920	0.557512	0.457630
O3	O	0.500125	0.066257	-0.042386
O4	O	1.000125	0.566257	0.457614
O5	O	0.574909	-0.008514	-0.042366
O6	O	1.074909	0.491486	0.457634
O7	O	0.566137	0.132283	-0.042389
O8	O	1.066137	0.632283	0.457611
O9	O	0.574894	-0.008503	0.042492
O10	O	1.074894	0.491497	0.542492
O11	O	0.500111	0.066269	0.042472
O12	O	1.000111	0.566269	0.542472
O13	O	0.640906	0.057523	0.042488
O14	O	1.140906	0.557523	0.542488
Cu15	Cu	0.570507	0.061897	0.050228
Cu16	Cu	1.070507	0.561897	0.550228
Cu17	Cu	0.570524	0.061883	-0.050126
Cu18	Cu	1.070524	0.561883	0.449874
O19	O	0.566122	0.132295	0.042469
O20	O	1.066122	0.632295	0.542469
C21	C	0.482111	0.066079	0.000041
C22	C	0.982111	0.566079	0.500041
C23	C	0.428456	0.065527	0.000035
C24	C	0.928456	0.565527	0.500035
C25	C	0.089634	0.106232	0.000051
C26	C	0.589634	0.606232	0.500051
C27	C	-0.112026	0.104180	0.000056
C28	C	0.387974	0.604180	0.500056
O29	O	-0.143288	0.141402	0.000072
O30	O	0.356712	0.641402	0.500072
N31	N	-0.131141	0.059844	0.000062
N32	N	0.368859	0.559844	0.500062
C33	C	-0.099838	0.016017	0.000070
C34	C	0.400162	0.516017	0.500070
O35	O	-0.120724	-0.021740	0.000081
O36	O	0.379276	0.478260	0.500081
C37	C	0.101820	0.018069	0.000069
C38	C	0.601820	0.518069	0.500069
C39	C	0.120933	0.062408	0.000058
C40	C	0.620933	0.562408	0.500058
C41	C	0.108747	0.150567	0.000040
C42	C	0.608747	0.650567	0.500040
C43	C	0.159159	0.151079	0.000036
C44	C	0.659159	0.651079	0.500036
C45	C	0.190457	0.107256	0.000043
C46	C	0.690457	0.607256	0.500043
C47	C	0.171344	0.062920	0.000054
C48	C	0.671344	0.562920	0.500054
C49	C	0.133122	-0.025757	0.000081
C50	C	0.633122	0.474243	0.500081
C51	C	0.183539	-0.025240	0.000082
C52	C	0.683539	0.474760	0.500082
C53	C	0.202652	0.019099	0.000071
C54	C	0.702652	0.519099	0.500071
C55	C	0.253055	0.019609	0.000057
C56	C	0.753055	0.519609	0.500057
N57	N	0.272171	0.063946	0.000050
N58	N	0.772171	0.563946	0.500050
C59	C	0.240872	0.107769	0.000043
C60	C	0.740872	0.607769	0.500043
C61	C	-0.205712	0.014943	0.000070
C62	C	0.294288	0.514943	0.500070
C63	C	-0.256126	0.014430	0.000069
C64	C	0.243874	0.514430	0.500069
C65	C	-0.268310	0.102594	0.000056
C66	C	0.231690	0.602594	0.500056
C67	C	-0.217895	0.103106	0.000052
C68	C	0.282105	0.603106	0.500052
C69	C	-0.186597	0.059280	0.000064
C70	C	0.313403	0.559280	0.500064
C71	C	0.346741	0.108842	0.000034
C72	C	0.846741	0.608842	0.500034
C73	C	0.397158	0.109350	0.000028
C74	C	0.897158	0.609350	0.500028
C75	C	0.409337	0.021187	0.000045
C76	C	0.909337	0.521187	0.500045
C77	C	0.358925	0.020678	0.000048
C78	C	0.858925	0.520678	0.500048
C79	C	0.327627	0.064510	0.000045
C80	C	0.827627	0.564510	0.500045
O81	O	0.284346	-0.017592	0.000046
O82	O	0.784346	0.482408	0.500046
O83	O	0.261767	0.145521	0.000044
O84	O	0.761767	0.645521	0.500044
C85	C	0.039222	0.105719	0.000055
C86	C	0.539222	0.605719	0.500055
C87	C	0.020109	0.061384	0.000066
C88	C	0.520109	0.561384	0.500066
C89	C	0.051408	0.017560	0.000073
C90	C	0.551408	0.517560	0.500073
C91	C	-0.030305	0.060871	0.000065
C92	C	0.469695	0.560871	0.500065
C93	C	-0.061604	0.104694	0.000058
C94	C	0.438396	0.604694	0.500058
C95	C	-0.042489	0.149030	0.000052
C96	C	0.457511	0.649030	0.500052
C97	C	0.007923	0.149543	0.000048
C98	C	0.507923	0.649543	0.500048
C99	C	0.032292	-0.026776	0.000079
C100	C	0.532292	0.473224	0.500079
C101	C	-0.018120	-0.027285	0.000082
C102	C	0.481880	0.472715	0.500082
C103	C	-0.049419	0.016539	0.000075
C104	C	0.450581	0.516539	0.500075
C105	C	0.574721	-0.026516	0.000064
C106	C	1.074721	0.473484	0.500064
C107	C	0.574179	-0.080172	0.000069
C108	C	1.074179	0.419828	0.500069
C109	C	0.570772	-0.412895	-0.046212
C110	C	1.070772	0.087105	0.453788
C111	C	0.568711	-0.614553	-0.046221
C112	C	1.068711	-0.114553	0.453779
O113	O	0.568430	-0.640629	-0.085561
O114	O	1.068430	-0.140629	0.414439
N115	N	0.568447	-0.639764	0.000034
N116	N	1.068447	-0.139764	0.500034
C117	C	0.568695	-0.614556	0.046296
C118	C	1.068695	-0.114556	0.546296
O119	O	0.568418	-0.640626	0.085639
O120	O	1.068418	-0.140626	0.585639
C121	C	0.570753	-0.412899	0.046304
C122	C	1.070753	0.087101	0.546304
C123	C	0.571021	-0.387691	0.000046
C124	C	1.071021	0.112309	0.500046
C125	C	0.571040	-0.387687	-0.092467
C126	C	1.071040	0.112313	0.407533
C127	C	0.571558	-0.337276	-0.092464
C128	C	1.071558	0.162724	0.407536
C129	C	0.571807	-0.312072	-0.046206
C130	C	1.071807	0.187928	0.453794
C131	C	0.571539	-0.337280	0.000048
C132	C	1.071539	0.162720	0.500048
C133	C	0.570997	-0.387692	0.092565
C134	C	1.070997	0.112308	0.592565
C135	C	0.571511	-0.337274	0.092563
C136	C	1.071511	0.162726	0.592563
C137	C	0.571779	-0.312066	0.046304
C138	C	1.071779	0.187934	0.546304
C139	C	0.572307	-0.261665	0.046309
C140	C	1.072307	0.238335	0.546309
N141	N	0.572571	-0.236454	0.000053
N142	N	1.072571	0.263546	0.500053
C143	C	0.572321	-0.261658	-0.046204
C144	C	1.072321	0.238342	0.453796
C145	C	0.567616	-0.720430	0.046288
C146	C	1.067616	-0.220430	0.546288
C147	C	0.567102	-0.770844	0.046286
C148	C	1.067102	-0.270844	0.546286
C149	C	0.567117	-0.770837	-0.046231
C150	C	1.067117	-0.270837	0.453769
C151	C	0.567634	-0.720422	-0.046229
C152	C	1.067634	-0.220422	0.453771
C153	C	0.567880	-0.695219	0.000032
C154	C	1.067880	-0.195219	0.500032
C155	C	0.573409	-0.155791	-0.046195
C156	C	1.073409	0.344209	0.453805
C157	C	0.573929	-0.105376	-0.046188
C158	C	1.073929	0.394624	0.453812
C159	C	0.573912	-0.105387	0.046329
C160	C	1.073912	0.394613	0.546329
C161	C	0.573394	-0.155798	0.046322
C162	C	1.073394	0.344202	0.546322
C163	C	0.573141	-0.180999	0.000056
C164	C	1.073141	0.319001	0.500056
O165	O	0.572582	-0.235557	0.085628
O166	O	1.072582	0.264443	0.585628
O167	O	0.572587	-0.235578	-0.085542
O168	O	1.072587	0.264422	0.414458
C169	C	0.570254	-0.463306	-0.046215
C170	C	1.070254	0.036694	0.453785
C171	C	0.569986	-0.488513	0.000040
C172	C	1.069986	0.011487	0.500040
C173	C	0.570235	-0.463310	0.046298
C174	C	1.070235	0.036690	0.546298
C175	C	0.569472	-0.538928	0.000038
C176	C	1.069472	-0.038928	0.500038
C177	C	0.569222	-0.564131	-0.046220
C178	C	1.069222	-0.064131	0.453780
C179	C	0.569486	-0.538921	-0.092475
C180	C	1.069486	-0.038921	0.407525
C181	C	0.570004	-0.488509	-0.092472
C182	C	1.070004	0.011491	0.407528
C183	C	0.569971	-0.488521	0.092554
C184	C	1.069971	0.011479	0.592554
C185	C	0.569454	-0.538932	0.092547
C186	C	1.069454	-0.038932	0.592547
C187	C	0.569204	-0.564135	0.046289
C188	C	1.069204	-0.064135	0.546289
C189	C	0.658920	0.057701	0.000060
C190	C	1.158920	0.557701	0.500060
C191	C	0.712575	0.058254	0.000062
C192	C	1.212575	0.558254	0.500062
C193	C	0.566310	0.150296	0.000037
C194	C	1.066310	0.650296	0.500037
C195	C	0.566853	0.203952	0.000028
C196	C	1.066853	0.703952	0.500028
N197	N	0.570499	0.061906	0.120812
N198	N	1.070499	0.561906	0.620812
N199	N	0.570536	0.061870	-0.120710
N200	N	1.070536	0.561870	0.379290
C201	C	0.603635	0.028782	0.473335
C202	C	1.103635	0.528782	0.973335
C203	C	0.603646	0.028775	0.686994
C204	C	1.103646	0.528775	1.186994
O205	O	0.631801	0.000614	0.714623
O206	O	1.131801	0.500614	1.214623
N207	N	0.570527	0.061873	0.713706
N208	N	1.070527	0.561873	1.213706
C209	C	0.537401	0.094972	0.687001
C210	C	1.037401	0.594972	1.187001
O211	O	0.509228	0.123120	0.714624
O212	O	1.009228	0.623120	1.214624
C213	C	0.537388	0.094976	0.473343
C214	C	1.037388	0.594976	0.973343
C215	C	0.570512	0.061880	0.446633
C216	C	1.070512	0.561880	0.946633
C217	C	0.636756	-0.004312	0.446625
C218	C	1.136756	0.495688	0.946625
C219	C	0.636755	-0.004308	0.393214
C220	C	1.136755	0.495692	0.893214
C221	C	0.603632	0.028790	0.366512
C222	C	1.103632	0.528790	0.866512
C223	C	0.570511	0.061884	0.393222
C224	C	1.070511	0.561884	0.893222
C225	C	0.504260	0.128073	0.446639
C226	C	1.004260	0.628073	0.946639
C227	C	0.504259	0.128070	0.393221
C228	C	1.004259	0.628070	0.893221
C229	C	0.537384	0.094974	0.366511
C230	C	1.037384	0.594974	0.866511
C231	C	0.537388	0.094985	0.313109
C232	C	1.037388	0.594985	0.813109
N233	N	0.570506	0.061888	0.286396
N234	N	1.070506	0.561888	0.786396
C235	C	0.603629	0.028790	0.313098
C236	C	1.103629	0.528790	0.813098
C237	C	0.537410	0.094968	0.799174
C238	C	1.037410	0.594968	1.299174
C239	C	0.537414	0.094968	0.852588
C240	C	1.037414	0.594968	1.352588
C241	C	0.603658	0.028770	0.852577
C242	C	1.103658	0.528770	1.352577
C243	C	0.603657	0.028773	0.799162
C244	C	1.103657	0.528773	1.299162
C245	C	0.570529	0.061871	0.772462
C246	C	1.070529	0.561871	1.272462
C247	C	0.603624	0.028801	0.200930
C248	C	1.103624	0.528801	0.700930
C249	C	0.603621	0.028809	0.147514
C250	C	1.103621	0.528809	0.647514
C251	C	0.537375	0.095004	0.147529
C252	C	1.037375	0.595004	0.647529
C253	C	0.537380	0.094998	0.200941
C254	C	1.037380	0.594998	0.700941
C255	C	0.570506	0.061892	0.227640
C256	C	1.070506	0.561892	0.727640
O257	O	0.509244	0.123128	0.285447
O258	O	1.009244	0.623128	0.785447
O259	O	0.631790	0.000639	0.285466
O260	O	1.131790	0.500639	0.785466
C261	C	0.603636	0.028778	0.526746
C262	C	1.103636	0.528778	1.026746
C263	C	0.570515	0.061872	0.553456
C264	C	1.070515	0.561872	1.053456
C265	C	0.537393	0.094970	0.526755
C266	C	1.037393	0.594970	1.026755
C267	C	0.570519	0.061872	0.606870
C268	C	1.070519	0.561872	1.106870
C269	C	0.603641	0.028774	0.633572
C270	C	1.103641	0.528774	1.133572
C271	C	0.636760	-0.004323	0.606860
C272	C	1.136760	0.495677	1.106860
C273	C	0.636758	-0.004320	0.553448
C274	C	1.136758	0.495680	1.053448
C275	C	0.504274	0.128068	0.553467
C276	C	1.004274	0.628068	1.053467
C277	C	0.504278	0.128061	0.606879
C278	C	1.004278	0.628061	1.106879
C279	C	0.537401	0.094964	0.633580
C280	C	1.037401	0.594964	1.133580
H281	H	0.321264	0.144533	0.000033
H282	H	0.821264	0.644533	0.500033
O283	O	0.114543	-0.068818	0.000004
O284	O	0.614543	0.431182	0.500004
C285	C	0.064690	-0.120576	-0.043924
C286	C	0.564690	0.379424	0.456076
C287	C	0.085705	-0.071795	-0.043907
C288	C	0.585705	0.428205	0.456093
H289	H	0.041362	-0.122995	-0.079417
H290	H	0.541362	0.377005	0.420583
H291	H	0.095710	-0.151822	-0.043949
H292	H	0.595710	0.348178	0.456051
H293	H	0.041412	-0.123011	-0.008393
H294	H	0.541412	0.376989	0.491607
H295	H	0.108976	-0.069312	-0.079432
H296	H	0.608976	0.430688	0.420568
H297	H	0.054662	-0.040572	-0.043856
H298	H	0.554662	0.459428	0.456144
O299	O	0.505278	0.127192	0.773265
O300	O	1.005278	0.627192	1.273265
C301	C	0.476291	0.211447	0.756967
C302	C	0.976291	0.711447	1.256967
C303	C	0.512712	0.175005	0.786327
C304	C	1.012712	0.675005	1.286327
H305	H	0.482282	0.250112	0.767525
H306	H	0.982282	0.750112	1.267525
H307	H	0.481968	0.205813	0.714195
H308	H	0.981968	0.705813	1.214195
H309	H	0.437630	0.205391	0.767473
H310	H	0.937630	0.705391	1.267473
H311	H	0.551387	0.181040	0.775864
H312	H	1.051387	0.681040	1.275864
H313	H	0.506992	0.180649	0.829093
H314	H	1.006992	0.680649	1.329093
O315	O	0.569172	-0.563348	-0.137441
O316	O	1.069172	-0.063348	0.362559
C317	C	0.527098	-0.573010	-0.216492
C318	C	1.027098	-0.073010	0.283508
C319	C	0.527408	-0.545295	-0.165597
C320	C	1.027408	-0.045295	0.334403
H321	H	0.493330	-0.558432	-0.239265
H322	H	0.993330	-0.058432	0.260735
H323	H	0.561018	-0.567775	-0.239345
H324	H	1.061018	-0.067775	0.260655
H325	H	0.526703	-0.613370	-0.208524
H326	H	1.026703	-0.113370	0.291476
H327	H	0.527786	-0.504926	-0.173519
H328	H	1.027786	-0.004926	0.326481
H329	H	0.493490	-0.550571	-0.142759
H330	H	0.993490	-0.050571	0.357241
H331	H	0.573201	-0.176303	-0.083869
H332	H	1.073201	0.323697	0.416131
O333	O	0.574064	-0.080861	0.091246
O334	O	1.074064	0.419139	0.591246
C335	C	0.532745	-0.018118	0.144897
C336	C	1.032745	0.481882	0.644897
C337	C	0.532513	-0.045867	0.094017
C338	C	1.032513	0.454133	0.594017
H339	H	0.499160	0.010188	0.147149
H340	H	0.999160	0.510188	0.647149
H341	H	0.532432	-0.044760	0.177985
H342	H	1.032432	0.455240	0.677985
H343	H	0.566841	0.000785	0.147207
H344	H	1.066841	0.500785	0.647207
H345	H	0.498423	-0.064771	0.091656
H346	H	0.998423	0.435229	0.591656
H347	H	0.532852	-0.019202	0.060953
H348	H	1.032852	0.480798	0.560953
H349	H	0.663731	-0.031271	0.628609
H350	H	1.163731	0.468729	1.128609
H351	H	0.573180	-0.176324	0.083990
H352	H	1.073180	0.323676	0.583990
O353	O	0.567795	-0.695997	0.091262
O354	O	1.067795	-0.195997	0.591262
C355	C	0.526043	-0.674775	0.170328
C356	C	1.026043	-0.174775	0.670328
C357	C	0.525779	-0.702471	0.119418
C358	C	1.025779	-0.202471	0.619418
H359	H	0.492071	-0.679991	0.193101
H360	H	0.992071	-0.179991	0.693101
H361	H	0.559759	-0.689380	0.193171
H362	H	1.059759	-0.189380	0.693171
H363	H	0.526480	-0.634416	0.162382
H364	H	1.026480	-0.134416	0.662382
H365	H	0.525325	-0.742833	0.127317
H366	H	1.025325	-0.242833	0.627317
H367	H	0.492066	-0.687826	0.096591
H368	H	0.992066	-0.187826	0.596591
O369	O	0.472035	0.160241	0.472497
O370	O	0.972035	0.660241	0.972497
C371	C	0.406344	0.225912	0.466847
C372	C	0.906344	0.725912	0.966847
C373	C	0.442808	0.189499	0.437501
C374	C	0.942808	0.689499	0.937501
H375	H	0.382711	0.249583	0.438565
H376	H	0.882711	0.749583	0.938565
H377	H	0.382323	0.205232	0.491842
H378	H	0.882323	0.705232	0.991842
H379	H	0.427030	0.249901	0.491866
H380	H	0.927030	0.749901	0.991866
H381	H	0.422161	0.165500	0.412454
H382	H	0.922161	0.665500	0.912454
H383	H	0.466827	0.210208	0.412538
H384	H	0.966827	0.710208	0.912538
O385	O	0.570172	-0.463973	-0.137384
O386	O	1.070172	0.036027	0.362616
C387	C	0.528793	-0.401321	-0.191100
C388	C	1.028793	0.098679	0.308900
C389	C	0.528566	-0.429051	-0.140207
C390	C	1.028566	0.070949	0.359793
H391	H	0.495153	-0.373087	-0.193404
H392	H	0.995153	0.126913	0.306596
H393	H	0.562842	-0.382348	-0.193457
H394	H	1.062842	0.117652	0.306543
H395	H	0.528537	-0.428026	-0.224136
H396	H	1.028537	0.071974	0.275864
H397	H	0.528805	-0.402378	-0.107142
H398	H	1.028805	0.097622	0.392858
H399	H	0.494520	-0.448032	-0.137894
H400	H	0.994520	0.051968	0.362106
H401	H	0.023479	0.185648	0.000039
H402	H	0.523479	0.685648	0.500039
H403	H	0.570779	-0.408207	0.130234
H404	H	1.070779	0.091793	0.630234
H405	H	0.569239	-0.559452	0.130219
H406	H	1.069239	-0.059452	0.630219
O407	O	-0.199389	0.146208	-0.000023
O408	O	0.300611	0.646208	0.499977
C409	C	-0.194363	0.221700	-0.044015
C410	C	0.305637	0.721700	0.455985
C411	C	-0.215357	0.172907	-0.043988
C412	C	0.284643	0.672907	0.456012
H413	H	-0.207256	0.243296	-0.079561
H414	H	0.292744	0.743296	0.420439
H415	H	-0.207301	0.243374	-0.008531
H416	H	0.292699	0.743374	0.491469
H417	H	-0.152954	0.214534	-0.043987
H418	H	0.347046	0.714534	0.456013
H419	H	-0.256766	0.180029	-0.044033
H420	H	0.243234	0.680029	0.455967
H421	H	-0.202380	0.151248	-0.079469
H422	H	0.297620	0.651248	0.420531
H423	H	0.209021	-0.060930	0.000092
H424	H	0.709021	0.439070	0.500092
O425	O	0.062713	-0.069335	0.000172
O426	O	0.562713	0.430665	0.500172
C427	C	0.126722	-0.119916	0.044113
C428	C	0.626722	0.380084	0.544113
C429	C	0.092293	-0.071702	0.044082
C430	C	0.592293	0.428298	0.544082
H431	H	0.150653	-0.121841	0.079605
H432	H	0.650653	0.378159	0.579605
H433	H	0.104420	-0.151709	0.044151
H434	H	0.604420	0.348291	0.544151
H435	H	0.150605	-0.121878	0.008581
H436	H	0.650605	0.378122	0.508581
H437	H	0.068403	-0.069693	0.079608
H438	H	0.568403	0.430307	0.579608
H439	H	0.114624	-0.039933	0.044018
H440	H	0.614624	0.460067	0.544018
H441	H	0.571703	-0.316755	0.130235
H442	H	1.071703	0.183245	0.630235
H443	H	0.574149	-0.084854	-0.083859
H444	H	1.074149	0.415146	0.416141
H445	H	-0.293803	0.138276	0.000050
H446	H	0.206197	0.638276	0.500050
H447	H	-0.067981	0.184713	0.000044
H448	H	0.432019	0.684713	0.500044
H449	H	-0.180232	-0.020747	0.000079
H450	H	0.319768	0.479253	0.500079
O451	O	0.340436	-0.022434	0.000075
O452	O	0.840436	0.477566	0.500075
C453	C	0.357848	-0.109826	0.000055
C454	C	0.857848	0.390174	0.500055
C455	C	0.378846	-0.061035	0.000031
C456	C	0.878846	0.438965	0.500031
H457	H	0.388892	-0.141047	0.000008
H458	H	0.888892	0.358953	0.500008
H459	H	0.334570	-0.112300	0.035579
H460	H	0.834570	0.387700	0.535579
H461	H	0.334532	-0.112247	-0.035447
H462	H	0.834532	0.387753	0.464553
H463	H	0.402184	-0.058580	0.035508
H464	H	0.902184	0.441420	0.535508
H465	H	0.402096	-0.058581	-0.035517
H466	H	0.902096	0.441419	0.464483
O467	O	0.635813	-0.003450	0.878464
O468	O	1.135813	0.496550	1.378464
C469	C	0.664750	-0.087703	0.894839
C470	C	1.164750	0.412297	1.394839
C471	C	0.628323	-0.051266	0.865479
C472	C	1.128323	0.448734	1.365479
H473	H	0.658701	-0.126370	0.884360
H474	H	1.158701	0.373630	1.384360
H475	H	0.703430	-0.081718	0.884327
H476	H	1.203430	0.418282	1.384327
H477	H	0.659066	-0.081990	0.937600
H478	H	1.159066	0.418010	1.437600
H479	H	0.633963	-0.056957	0.822711
H480	H	1.133963	0.443043	1.322711
H481	H	0.589657	-0.057260	0.876034
H482	H	1.089657	0.442740	1.376034
O483	O	0.472146	0.160243	0.367229
O484	O	0.972146	0.660243	0.867229
C485	C	0.461340	0.226361	0.306954
C486	C	0.961340	0.726361	0.806954
C487	C	0.497759	0.189944	0.336348
C488	C	0.997759	0.689944	0.836348
H489	H	0.482035	0.250390	0.281988
H490	H	0.982035	0.750390	0.781988
H491	H	0.437359	0.205684	0.281913
H492	H	0.937359	0.705684	0.781913
H493	H	0.437660	0.249991	0.335233
H494	H	0.937660	0.749991	0.835233
H495	H	0.521472	0.166305	0.308106
H496	H	1.021472	0.666305	0.808106
H497	H	0.521706	0.210651	0.361396
H498	H	1.021706	0.710651	0.861396
H499	H	0.570176	-0.468005	0.130223
H500	H	1.070176	0.031995	0.630223
H501	H	0.630629	0.001823	0.777418
H502	H	1.130629	0.501823	1.277418
H503	H	0.477305	0.155017	0.628622
H504	H	0.977305	0.655017	1.128622
H505	H	0.174715	0.187185	0.000026
H506	H	0.674715	0.687185	0.500026
H507	H	0.566891	-0.791365	0.083954
H508	H	1.066891	-0.291365	0.583954
H509	H	-0.271683	-0.021675	0.000071
H510	H	0.228317	0.478325	0.500071
H511	H	0.434830	-0.014493	0.000049
H512	H	0.934830	0.485507	0.500049
H513	H	0.412716	0.145458	0.000019
H514	H	0.912716	0.645458	0.500019
O515	O	0.635817	-0.003391	0.121648
O516	O	1.135817	0.496609	0.621648
C517	C	0.701541	-0.069030	0.127284
C518	C	1.201541	0.430970	0.627284
C519	C	0.665101	-0.032600	0.156638
C520	C	1.165101	0.467400	0.656638
H521	H	0.725233	-0.092648	0.155561
H522	H	1.225233	0.407352	0.655561
H523	H	0.680884	-0.093069	0.102292
H524	H	1.180884	0.406931	0.602292
H525	H	0.725506	-0.048316	0.102262
H526	H	1.225506	0.451684	0.602262
H527	H	0.641126	-0.053274	0.181688
H528	H	1.141126	0.446726	0.681688
H529	H	0.685788	-0.008561	0.181598
H530	H	1.185788	0.491439	0.681598
H531	H	0.630598	0.001842	0.222662
H532	H	1.130598	0.501842	0.722662
H533	H	0.510409	0.121954	0.125781
H534	H	1.010409	0.621954	0.625781
O535	O	-0.036705	-0.070347	0.000002
O536	O	0.463295	0.429653	0.500002
C537	C	-0.086568	-0.122098	-0.043924
C538	C	0.413432	0.377902	0.456076
C539	C	-0.065547	-0.073320	-0.043908
C540	C	0.434453	0.426680	0.456092
H541	H	-0.109899	-0.124512	-0.079416
H542	H	0.390101	0.375488	0.420584
H543	H	-0.055552	-0.153348	-0.043952
H544	H	0.444448	0.346652	0.456048
H545	H	-0.109844	-0.124530	-0.008391
H546	H	0.390156	0.375470	0.491609
H547	H	-0.042277	-0.070840	-0.079434
H548	H	0.457723	0.429160	0.420566
H549	H	-0.096586	-0.042093	-0.043854
H550	H	0.403414	0.457907	0.456146
O551	O	0.668947	-0.036509	0.367351
O552	O	1.168947	0.463491	0.867351
C553	C	0.734666	-0.102152	0.372998
C554	C	1.234666	0.397848	0.872998
C555	C	0.698228	-0.065715	0.402346
C556	C	1.198228	0.434285	0.902346
H557	H	0.758356	-0.125768	0.401278
H558	H	1.258356	0.374232	0.901278
H559	H	0.714008	-0.126193	0.348009
H560	H	1.214008	0.373807	0.848009
H561	H	0.758633	-0.081444	0.347972
H562	H	1.258633	0.418556	0.847972
H563	H	0.674251	-0.086384	0.427399
H564	H	1.174251	0.413616	0.927399
H565	H	0.718916	-0.041675	0.427302
H566	H	1.218916	0.458325	0.927302
O567	O	0.571710	-0.312823	-0.137428
O568	O	1.071710	0.187177	0.362572
C569	C	0.529957	-0.291712	-0.216513
C570	C	1.029957	0.208288	0.283487
C571	C	0.529731	-0.319398	-0.165593
C572	C	1.029731	0.180602	0.334407
H573	H	0.496025	-0.297026	-0.239304
H574	H	0.996025	0.202974	0.260696
H575	H	0.530329	-0.251331	-0.208642
H576	H	1.030329	0.248669	0.291358
H577	H	0.563708	-0.306311	-0.239307
H578	H	1.063708	0.193689	0.260693
H579	H	0.495985	-0.304840	-0.142774
H580	H	0.995985	0.195160	0.357226
H581	H	0.529384	-0.359776	-0.173500
H582	H	1.029384	0.140224	0.326500
O583	O	0.668869	-0.036512	0.472581
O584	O	1.168869	0.463488	0.972581
C585	C	0.679691	-0.102592	0.532901
C586	C	1.179691	0.397408	1.032901
C587	C	0.643264	-0.066160	0.503534
C588	C	1.143264	0.433840	1.003534
H589	H	0.659003	-0.126565	0.557941
H590	H	1.159003	0.373435	1.057941
H591	H	0.703352	-0.126276	0.504649
H592	H	1.203352	0.373724	1.004649
H593	H	0.703690	-0.081878	0.557879
H594	H	1.203690	0.418122	1.057879
H595	H	0.619233	-0.086835	0.478555
H596	H	1.119233	0.413165	0.978555
H597	H	0.619636	-0.042477	0.531813
H598	H	1.119636	0.457523	1.031813
O599	O	0.570864	-0.412227	-0.137373
O600	O	1.070864	0.087773	0.362627
C601	C	0.612210	-0.474903	-0.191086
C602	C	1.112210	0.025097	0.308914
C603	C	0.612459	-0.447162	-0.140203
C604	C	1.112459	0.052838	0.359797
H605	H	0.645841	-0.503147	-0.193395
H606	H	1.145841	-0.003147	0.306605
H607	H	0.578152	-0.493864	-0.193421
H608	H	1.078152	0.006136	0.306579
H609	H	0.612466	-0.448206	-0.224131
H610	H	1.112466	0.051794	0.275869
H611	H	0.612220	-0.473826	-0.107129
H612	H	1.112220	0.026174	0.392871
H613	H	0.646513	-0.428193	-0.137912
H614	H	1.146513	0.071807	0.362088
O615	O	0.567869	-0.696009	-0.091209
O616	O	1.067869	-0.196009	0.408791
C617	C	0.567861	-0.701341	-0.182973
C618	C	1.067861	-0.201341	0.317027
C619	C	0.567584	-0.729044	-0.132067
C620	C	1.067584	-0.229044	0.367933
H621	H	0.567640	-0.728039	-0.216020
H622	H	1.067640	-0.228039	0.283980
H623	H	0.534251	-0.673073	-0.185328
H624	H	1.034251	-0.173073	0.314672
H625	H	0.601934	-0.682401	-0.185255
H626	H	1.101934	-0.182401	0.314745
H627	H	0.533533	-0.748013	-0.129751
H628	H	1.033533	-0.248013	0.370249
H629	H	0.601216	-0.757284	-0.129734
H630	H	1.101216	-0.257284	0.370266
H631	H	0.566914	-0.791366	-0.083896
H632	H	1.066914	-0.291366	0.416104
H633	H	0.510446	0.121923	0.874332
H634	H	1.010446	0.621923	1.374332
H635	H	0.477301	0.155019	0.531731
H636	H	0.977301	0.655019	1.031731
H637	H	0.510412	0.121953	0.222688
H638	H	1.010412	0.621953	0.722688
H639	H	0.083267	0.186255	0.000036
H640	H	0.583267	0.686255	0.500036
H641	H	0.663731	-0.031270	0.531705
H642	H	1.163731	0.468730	1.031705
