data_functionalizedCrystal
_audit_creation_method	'MofGen! by Chris Wilmer'
_symmetry_space_group_name_H-M	'P1'
_symmetry_Int_Tables_number	1
_symmetry_cell_setting	triclinic
loop_
_symmetry_equiv_pos_as_xyz
  x,y,z
_cell_length_a	19.121063
_cell_length_b	16.120542
_cell_length_c	16.120297
_cell_angle_alpha	89.872913
_cell_angle_beta	95.179432
_cell_angle_gamma	90.317046
loop_
_atom_site_label
_atom_site_type_symbol
_atom_site_fract_x
_atom_site_fract_y
_atom_site_fract_z
Zn1	Zn	-0.355825	-1.228532	-0.551617
Zn2	Zn	-0.022492	-0.895199	-0.218284
Zn3	Zn	0.310842	-0.561865	0.115049
Zn4	Zn	-0.467608	-1.229541	-0.417908
Zn5	Zn	-0.134275	-0.896208	-0.084575
Zn6	Zn	0.199058	-0.562875	0.248758
Zn7	Zn	-0.343951	-1.097153	-0.404964
Zn8	Zn	-0.010618	-0.763820	-0.071631
Zn9	Zn	0.322716	-0.430486	0.261702
Zn10	Zn	-0.466953	-1.083532	-0.549843
Zn11	Zn	-0.133619	-0.750199	-0.216510
Zn12	Zn	0.199714	-0.416865	0.116823
O13	O	-0.408584	-1.159690	-0.481083
O14	O	-0.075251	-0.826356	-0.147750
O15	O	0.258083	-0.493023	0.185583
O16	O	-0.375897	-1.344754	-0.540040
O17	O	-0.042564	-1.011420	-0.206707
O18	O	0.290770	-0.678087	0.126626
O19	O	-0.446510	-1.218102	-0.299601
O20	O	-0.113177	-0.884769	0.033732
O21	O	0.220157	-0.551436	0.367065
O22	O	-0.247268	-1.119858	-0.419744
O23	O	0.086066	-0.786525	-0.086410
O24	O	0.419399	-0.453192	0.246923
O25	O	-0.458024	-1.345495	-0.441805
O26	O	-0.124690	-1.012162	-0.108472
O27	O	0.208643	-0.678829	0.224862
O28	O	-0.255991	-1.216382	-0.527489
O29	O	0.077342	-0.883049	-0.194156
O30	O	0.410675	-0.549715	0.139178
O31	O	-0.355660	-1.120837	-0.290092
O32	O	-0.022326	-0.787504	0.043242
O33	O	0.311007	-0.454171	0.376575
O34	O	-0.355024	-0.979258	-0.418023
O35	O	-0.021690	-0.645925	-0.084690
O36	O	0.311643	-0.312591	0.248643
O37	O	-0.456906	-1.096644	-0.666668
O38	O	-0.123573	-0.763310	-0.333335
O39	O	0.209761	-0.429977	-0.000002
O40	O	-0.445392	-0.969251	-0.524465
O41	O	-0.112059	-0.635918	-0.191132
O42	O	0.221274	-0.302584	0.142202
O43	O	-0.375261	-1.203175	-0.667972
O44	O	-0.041928	-0.869841	-0.334639
O45	O	0.291406	-0.536508	-0.001305
O46	O	-0.565780	-1.204895	-0.440085
O47	O	-0.232446	-0.871562	-0.106751
O48	O	0.100887	-0.538228	0.226582
O49	O	-0.565298	-1.097623	-0.537016
O50	O	-0.231965	-0.764289	-0.203683
O51	O	0.101369	-0.430956	0.129650
C52	C	-0.398849	-0.944154	-0.469647
C53	C	-0.065516	-0.610821	-0.136314
C54	C	0.267818	-0.277488	0.197019
C55	C	-0.394702	-0.851945	-0.464776
C56	C	-0.061369	-0.518612	-0.131442
C57	C	0.271965	-0.185279	0.201891
C58	C	-0.591018	-1.149912	-0.489782
C59	C	-0.257684	-0.816579	-0.156449
C60	C	0.075649	-0.483245	0.176885
C61	C	-0.669068	-1.145803	-0.493535
C62	C	-0.335735	-0.812470	-0.160202
C63	C	-0.002402	-0.479137	0.173132
C64	C	-0.430074	-0.637104	-0.506308
C65	C	-0.096740	-0.303771	-0.172975
C66	C	0.236593	0.029563	0.160359
C67	C	-0.387137	-0.683123	-0.455880
C68	C	-0.053803	-0.349790	-0.122547
C69	C	0.279530	-0.016456	0.210786
C70	C	-0.391347	-0.777064	-0.460831
C71	C	-0.058014	-0.443731	-0.127498
C72	C	0.275319	-0.110398	0.205835
C73	C	-0.425864	-0.543154	-0.501358
C74	C	-0.092531	-0.209821	-0.168025
C75	C	0.240803	0.123513	0.165308
C76	C	-0.705968	-1.199763	-0.444877
C77	C	-0.372634	-0.866430	-0.111544
C78	C	-0.039301	-0.533096	0.221789
C79	C	-0.779305	-1.195904	-0.448412
C80	C	-0.445971	-0.862570	-0.115079
C81	C	-0.112638	-0.529237	0.218254
C82	C	-0.815741	-1.138080	-0.500601
C83	C	-0.482407	-0.804747	-0.167268
C84	C	-0.149074	-0.471413	0.166066
C85	C	-0.778836	-1.084118	-0.549264
C86	C	-0.445503	-0.750785	-0.215931
C87	C	-0.112170	-0.417451	0.117402
C88	C	-0.705501	-1.087982	-0.545733
C89	C	-0.372168	-0.754649	-0.212400
C90	C	-0.038834	-0.421315	0.120933
C91	C	-1.037155	-1.123621	-0.513789
C92	C	-0.703822	-0.790288	-0.180456
C93	C	-0.370488	-0.456954	0.152877
C94	C	-1.110495	-1.119759	-0.517315
C95	C	-0.777162	-0.786426	-0.183982
C96	C	-0.443829	-0.453093	0.149352
C97	C	-1.110959	-1.231547	-0.416464
C98	C	-0.777625	-0.898213	-0.083130
C99	C	-0.444292	-0.564880	0.250203
C100	C	-1.037622	-1.235402	-0.412934
C101	C	-0.704288	-0.902069	-0.079600
C102	C	-0.370955	-0.568735	0.253733
C103	C	-1.000724	-1.181443	-0.461600
C104	C	-0.667391	-0.848110	-0.128267
C105	C	-0.334057	-0.514776	0.205067
C106	C	-0.890703	-1.134132	-0.504214
C107	C	-0.557369	-0.800799	-0.170880
C108	C	-0.224036	-0.467465	0.162453
C109	C	-0.925764	-1.185396	-0.457991
C110	C	-0.592430	-0.852062	-0.124658
C111	C	-0.259097	-0.518729	0.208675
C112	C	-0.225440	-1.169527	-0.472370
C113	C	0.107893	-0.836194	-0.139037
C114	C	0.441227	-0.502860	0.194296
C115	C	-0.147395	-1.173719	-0.468657
C116	C	0.185939	-0.840386	-0.135324
C117	C	0.519272	-0.507052	0.198009
C118	C	-0.417335	-1.148277	-0.698396
C119	C	-0.084002	-0.814944	-0.365063
C120	C	0.249332	-0.481611	-0.031729
C121	C	-0.421064	-1.143414	-0.791002
C122	C	-0.087731	-0.810081	-0.457668
C123	C	0.245603	-0.476747	-0.124335
C124	C	-0.418354	-0.376067	-0.492553
C125	C	-0.085020	-0.042734	-0.159219
C126	C	0.248313	0.290599	0.174114
C127	C	-0.422506	-0.468277	-0.497410
C128	C	-0.089173	-0.134943	-0.164077
C129	C	0.244160	0.198390	0.169257
C130	C	-0.427855	-1.134505	-0.960551
C131	C	-0.094522	-0.801172	-0.627218
C132	C	0.238811	-0.467839	-0.293884
C133	C	-0.389110	-1.185048	-1.002466
C134	C	-0.055777	-0.851715	-0.669133
C135	C	0.277557	-0.518382	-0.335799
C136	C	-0.392889	-1.180092	-1.096809
C137	C	-0.059556	-0.846758	-0.763476
C138	C	0.273778	-0.513425	-0.430142
C139	C	-0.424077	-1.139461	-0.866199
C140	C	-0.090744	-0.806128	-0.532866
C141	C	0.242589	-0.472794	-0.199533
C142	C	-0.399819	-1.171108	-0.264616
C143	C	-0.066486	-0.837775	0.068717
C144	C	0.266848	-0.504441	0.402050
C145	C	-0.395899	-1.176142	-0.172010
C146	C	-0.062566	-0.842809	0.161323
C147	C	0.270767	-0.509476	0.494657
H148	H	-0.469992	-0.668256	-0.553194
H149	H	-0.136659	-0.334923	-0.219861
H150	H	0.196674	-0.001589	0.113472
H151	H	-0.353101	-1.232042	-0.967497
H152	H	-0.019767	-0.898708	-0.634163
H153	H	0.313566	-0.565375	-0.300830
O154	O	-0.670688	-1.256006	-0.394161
O155	O	-0.337354	-0.922672	-0.060828
O156	O	-0.004021	-0.589339	0.272506
C157	C	-0.718985	-1.302789	-0.351958
C158	C	-0.385651	-0.969456	-0.018624
C159	C	-0.052318	-0.636123	0.314709
H160	H	-0.772748	-1.301089	-0.388756
H161	H	-0.439415	-0.967756	-0.055422
H162	H	-0.106081	-0.634423	0.277911
H163	H	-0.700347	-1.369741	-0.345567
H164	H	-0.367014	-1.036407	-0.012234
H165	H	-0.033680	-0.703074	0.321100
H166	H	-0.722914	-1.275371	-0.287426
H167	H	-0.389580	-0.942038	0.045907
H168	H	-0.056247	-0.608704	0.379241
H169	H	-0.920377	-1.087050	-0.546704
H170	H	-0.587044	-0.753717	-0.213371
H171	H	-0.253710	-0.420384	0.119962
O172	O	-0.815143	-1.248510	-0.401335
O173	O	-0.481810	-0.915177	-0.068002
O174	O	-0.148476	-0.581843	0.265332
C175	C	-0.861775	-1.297311	-0.453787
C176	C	-0.528441	-0.963978	-0.120453
C177	C	-0.195108	-0.630644	0.212880
H178	H	-0.842510	-1.299927	-0.518618
H179	H	-0.509176	-0.966594	-0.185284
H180	H	-0.175843	-0.633261	0.148049
H181	H	-0.864149	-1.362774	-0.427254
H182	H	-0.530816	-1.029440	-0.093921
H183	H	-0.197483	-0.696107	0.239412
H184	H	-0.916371	-1.268695	-0.457902
H185	H	-0.583038	-0.935362	-0.124568
H186	H	-0.249704	-0.602029	0.208765
H187	H	-0.347215	-0.651969	-0.408989
H188	H	-0.013882	-0.318636	-0.075656
H189	H	0.319451	0.014698	0.257677
O190	O	-1.002342	-1.291653	-0.362228
O191	O	-0.669008	-0.958320	-0.028894
O192	O	-0.335675	-0.624987	0.304439
C193	C	-1.050636	-1.338442	-0.320025
C194	C	-0.717302	-1.005109	0.013309
C195	C	-0.383969	-0.671775	0.346642
H196	H	-1.104401	-1.336737	-0.356817
H197	H	-0.771068	-1.003404	-0.023483
H198	H	-0.437735	-0.670070	0.309850
H199	H	-1.031999	-1.405394	-0.313644
H200	H	-0.698665	-1.072060	0.019689
H201	H	-0.365332	-0.738727	0.353023
H202	H	-1.054559	-1.311031	-0.255488
H203	H	-0.721226	-0.977698	0.077845
H204	H	-0.387893	-0.644365	0.411178
O205	O	-1.146913	-1.283933	-0.369286
O206	O	-0.813580	-0.950599	-0.035953
O207	O	-0.480246	-0.617266	0.297381
C208	C	-1.219453	-1.268116	-0.383578
C209	C	-0.886120	-0.934782	-0.050244
C210	C	-0.552786	-0.601449	0.283089
H211	H	-1.230824	-1.236982	-0.446886
H212	H	-0.897491	-0.903649	-0.113553
H213	H	-0.564158	-0.570316	0.219781
H214	H	-1.249857	-1.329090	-0.382625
H215	H	-0.916524	-0.995757	-0.049292
H216	H	-0.583191	-0.662423	0.284041
H217	H	-1.236335	-1.225487	-0.332779
H218	H	-0.903002	-0.892154	0.000554
H219	H	-0.569668	-0.558820	0.333887
H220	H	-0.463862	-1.087516	-0.995518
H221	H	-0.130528	-0.754182	-0.662185
H222	H	0.202805	-0.420849	-0.328852
H223	H	-1.140160	-1.072682	-0.559828
H224	H	-0.806827	-0.739348	-0.226495
H225	H	-0.473494	-0.406015	0.106838
H226	H	-1.007118	-1.079684	-0.553414
H227	H	-0.673785	-0.746350	-0.220081
H228	H	-0.340452	-0.413017	0.113253
O229	O	-0.814206	-1.028033	-0.600084
O230	O	-0.480873	-0.694700	-0.266751
O231	O	-0.147540	-0.361366	0.066582
C232	C	-0.800390	-1.042669	-0.683229
C233	C	-0.467057	-0.709336	-0.349896
C234	C	-0.133724	-0.376003	-0.016562
H235	H	-0.783344	-1.109780	-0.690032
H236	H	-0.450011	-0.776447	-0.356699
H237	H	-0.116678	-0.443113	-0.023365
H238	H	-0.849943	-1.030789	-0.726324
H239	H	-0.516609	-0.697456	-0.392991
H240	H	-0.183276	-0.364122	-0.059657
H241	H	-0.756714	-0.999275	-0.700564
H242	H	-0.423381	-0.665942	-0.367231
H243	H	-0.090047	-0.332609	-0.033897
O244	O	-0.669630	-1.035681	-0.593091
O245	O	-0.336297	-0.702348	-0.259758
O246	O	-0.002963	-0.369015	0.073576
C247	C	-0.631443	-1.082284	-0.647383
C248	C	-0.298109	-0.748951	-0.314050
C249	C	0.035224	-0.415617	0.019283
H250	H	-0.656656	-1.146180	-0.657109
H251	H	-0.323322	-0.812847	-0.323776
H252	H	0.010011	-0.479514	0.009558
H253	H	-0.631831	-1.048909	-0.709844
H254	H	-0.298498	-0.715576	-0.376510
H255	H	0.034836	-0.382243	-0.043177
H256	H	-0.574964	-1.089446	-0.619102
H257	H	-0.241631	-0.756112	-0.285769
H258	H	0.091703	-0.422779	0.047565
O259	O	-0.890332	-1.241450	-0.407199
O260	O	-0.556999	-0.908117	-0.073866
O261	O	-0.223666	-0.574783	0.259468
C262	C	-0.843654	-1.199314	-0.348827
C263	C	-0.510321	-0.865980	-0.015494
C264	C	-0.176988	-0.532647	0.317839
H265	H	-0.862650	-1.133089	-0.341232
H266	H	-0.529317	-0.799755	-0.007898
H267	H	-0.195984	-0.466422	0.325435
H268	H	-0.841592	-1.232773	-0.286285
H269	H	-0.508258	-0.899440	0.047049
H270	H	-0.174925	-0.566107	0.380382
H271	H	-0.788977	-1.198007	-0.371763
H272	H	-0.455644	-0.864674	-0.038430
H273	H	-0.122311	-0.531341	0.294904
