data_functionalizedCrystal
_audit_creation_method	'MofGen! by Chris Wilmer'
_symmetry_space_group_name_H-M	'P1'
_symmetry_Int_Tables_number	1
_symmetry_cell_setting	triclinic
loop_
_symmetry_equiv_pos_as_xyz
  x,y,z
_cell_length_a	16.109301
_cell_length_b	16.109301
_cell_length_c	14.586319
_cell_angle_alpha	89.992619
_cell_angle_beta	89.997824
_cell_angle_gamma	96.538519
loop_
_atom_site_label
_atom_site_type_symbol
_atom_site_fract_x
_atom_site_fract_y
_atom_site_fract_z
O1	O	1.103127	-0.106869	0.076185
O2	O	0.861065	-0.120168	0.076200
O3	O	0.988746	0.007512	0.076183
O4	O	0.975446	-0.234550	0.076203
O5	O	0.988745	0.007520	-0.076298
O6	O	0.861064	-0.120160	-0.076281
O7	O	1.103126	-0.106861	-0.076295
Cu8	Cu	0.982095	-0.113510	-0.090211
Cu9	Cu	0.982096	-0.113520	0.090115
O10	O	0.975445	-0.234542	-0.076278
C11	C	0.830090	-0.119626	-0.000038
C12	C	0.737794	-0.118011	-0.000033
C13	C	0.988206	0.038491	-0.000058
C14	C	0.986591	0.130786	-0.000059
N15	N	0.982097	-0.113520	0.216947
C16	C	0.515522	-0.190018	-0.000038
C17	C	0.428801	-0.188494	-0.000044
C18	C	0.448676	-0.037006	-0.000052
C19	C	0.535394	-0.038530	-0.000053
C20	C	0.568815	-0.115039	-0.000041
C21	C	0.395376	-0.111990	-0.000046
C22	C	0.301350	-0.110337	-0.000053
C23	C	0.662847	-0.116693	-0.000036
C24	C	1.134101	-0.107404	-0.000055
C25	C	1.226397	-0.109019	-0.000054
C26	C	0.975984	-0.265521	-0.000035
C27	C	0.977600	-0.357816	-0.000028
C28	C	1.058599	0.353059	-0.000049
C29	C	1.057075	0.439779	-0.000041
C30	C	0.905586	0.419905	-0.000036
C31	C	0.907111	0.333186	-0.000037
C32	C	0.983620	0.299766	-0.000048
C33	C	0.980571	0.473205	-0.000039
C34	C	0.978918	0.567231	-0.000031
C35	C	0.985273	0.205734	-0.000055
N36	N	0.982100	-0.113503	-0.217042
C37	C	1.038743	-0.057093	0.451946
C38	C	1.038746	-0.057091	0.547927
C39	C	0.925451	-0.169936	0.547952
C40	C	0.925453	-0.169942	0.451972
C41	C	0.982099	-0.113515	0.403972
C42	C	0.982099	-0.113508	0.595933
C43	C	0.982101	-0.113506	0.700000
C44	C	0.982098	-0.113518	0.299898
H45	H	0.542730	-0.252317	-0.000035
H46	H	0.578788	0.022530	-0.000058
H47	H	0.879326	-0.215891	0.412909
O48	O	1.093691	-0.002319	0.405176
C49	C	1.143945	0.047651	0.257305
C50	C	1.081655	-0.014410	0.310154
H51	H	1.134247	0.037885	0.180471
H52	H	1.133267	0.114303	0.276095
H53	H	1.210483	0.036671	0.276235
H54	H	1.015093	-0.003507	0.291253
H55	H	1.092406	-0.081040	0.291360
O56	O	0.376998	-0.261306	-0.000197
C57	C	0.267525	-0.347479	-0.079155
C58	C	0.326159	-0.264995	-0.079106
H59	H	0.226395	-0.350481	-0.142936
H60	H	0.306269	-0.402453	-0.079205
H61	H	0.226464	-0.350543	-0.015313
H62	H	0.367232	-0.261850	-0.142937
H63	H	0.287365	-0.210060	-0.079008
H64	H	0.421454	0.025285	-0.000067
O65	O	1.093800	-0.002200	0.594387
C66	C	1.206204	0.109696	0.584227
C67	C	1.143883	0.047589	0.531499
H68	H	1.246723	0.149954	0.533405
H69	H	1.170455	0.151379	0.629131
H70	H	1.247610	0.073687	0.629192
H71	H	1.102461	0.083530	0.486484
H72	H	1.179684	0.005907	0.486652
H73	H	1.120897	0.325851	-0.000056
O74	O	0.870455	-0.224660	0.594724
C75	C	0.820267	-0.274692	0.742595
C76	C	0.882586	-0.212662	0.689745
H77	H	0.830065	-0.265025	0.819429
H78	H	0.753702	-0.263705	0.723788
H79	H	0.830937	-0.341317	0.723686
H80	H	0.871992	-0.146013	0.708626
H81	H	0.949130	-0.223722	0.708556
O82	O	0.831249	0.452333	0.000131
C83	C	0.701284	0.461834	0.079103
C84	C	0.785450	0.425071	0.079042
H85	H	0.664224	0.439792	0.142885
H86	H	0.713024	0.532972	0.079160
H87	H	0.664268	0.439905	0.015262
H88	H	0.822509	0.446936	0.142871
H89	H	0.773651	0.353937	0.078937
H90	H	1.118130	0.483168	-0.000040
O91	O	0.834294	0.281377	0.000127
C92	C	0.748126	0.171889	0.079102
C93	C	0.830608	0.230527	0.079037
H94	H	0.745127	0.130750	0.142885
H95	H	0.693149	0.210629	0.079163
H96	H	0.745065	0.130837	0.015262
H97	H	0.833750	0.271591	0.142867
H98	H	0.885545	0.191737	0.078928
