data_functionalizedCrystal
_audit_creation_method	'MofGen! by Chris Wilmer'
_symmetry_space_group_name_H-M	'P1'
_symmetry_Int_Tables_number	1
_symmetry_cell_setting	triclinic
loop_
_symmetry_equiv_pos_as_xyz
  x,y,z
_cell_length_a	15.297475
_cell_length_b	25.639239
_cell_length_c	15.296720
_cell_angle_alpha	99.638856
_cell_angle_beta	91.617114
_cell_angle_gamma	80.340538
loop_
_atom_site_label
_atom_site_type_symbol
_atom_site_fract_x
_atom_site_fract_y
_atom_site_fract_z
Zn1	Zn	1.253213	-0.406888	-0.726521
Zn2	Zn	1.753213	0.093112	-0.226521
Zn3	Zn	1.278441	-0.482170	-0.580022
Zn4	Zn	1.778441	0.017830	-0.080022
Zn5	Zn	1.132104	-0.377518	-0.554767
Zn6	Zn	1.632104	0.122482	-0.054767
Zn7	Zn	1.106670	-0.477031	-0.701152
Zn8	Zn	1.606670	0.022969	-0.201152
O9	O	1.192607	-0.435902	-0.640616
O10	O	1.692607	0.064098	-0.140616
O11	O	1.379131	-0.431317	-0.728274
O12	O	1.879131	0.068683	-0.228274
O13	O	1.280232	-0.458147	-0.454100
O14	O	1.780232	0.041853	0.045900
O15	O	1.148256	-0.308262	-0.577599
O16	O	1.648256	0.191738	-0.077599
O17	O	1.397666	-0.486626	-0.620642
O18	O	1.897666	0.013374	-0.120642
O19	O	1.237234	-0.329841	-0.703785
O20	O	1.737234	0.170159	-0.203785
O21	O	1.172719	-0.381260	-0.435545
O22	O	1.672719	0.118740	0.064455
O23	O	1.006159	-0.376276	-0.552999
O24	O	1.506159	0.123724	-0.052999
O25	O	1.104906	-0.477867	-0.827090
O26	O	1.604906	0.022133	-0.327090
O27	O	0.987472	-0.449388	-0.660547
O28	O	1.487472	0.050612	-0.160547
O29	O	1.212571	-0.426334	-0.845728
O30	O	1.712571	0.073666	-0.345728
O31	O	1.255568	-0.554640	-0.596043
O32	O	1.755568	-0.054640	-0.096043
O33	O	1.129369	-0.550864	-0.685036
O34	O	1.629369	-0.050864	-0.185036
C35	C	0.965034	-0.409088	-0.601280
C36	C	1.465034	0.090912	-0.101280
C37	C	0.867674	-0.397631	-0.584473
C38	C	1.367674	0.102369	-0.084473
C39	C	0.554472	-0.517789	-0.760740
C40	C	1.054472	-0.017789	-0.260740
C41	C	0.645948	-0.528557	-0.776529
C42	C	1.145948	-0.028557	-0.276529
C43	C	0.701384	-0.495826	-0.728517
C44	C	1.201384	0.004174	-0.228517
C45	C	0.665336	-0.452326	-0.664713
C46	C	1.165336	0.047674	-0.164713
C47	C	0.573852	-0.441560	-0.648918
C48	C	1.073852	0.058440	-0.148918
C49	C	0.720763	-0.419597	-0.616694
C50	C	1.220763	0.080403	-0.116694
C51	C	0.684715	-0.376097	-0.552890
C52	C	1.184715	0.123903	-0.052890
C53	C	0.593241	-0.365332	-0.537098
C54	C	1.093241	0.134668	-0.037098
C55	C	0.537805	-0.398063	-0.585110
C56	C	1.037805	0.101937	-0.085110
C57	C	0.812247	-0.430363	-0.632489
C58	C	1.312247	0.069637	-0.132489
C59	C	0.831627	-0.354134	-0.520666
C60	C	1.331627	0.145866	-0.020666
C61	C	0.740151	-0.343366	-0.504877
C62	C	1.240151	0.156634	-0.004877
C63	C	1.192467	-0.571724	-0.640550
C64	C	1.692467	-0.071724	-0.140550
C65	C	1.192482	-0.629841	-0.640565
C66	C	1.692482	-0.129841	-0.140565
C67	C	1.258449	-0.992200	-0.594398
C68	C	1.758449	-0.492200	-0.094398
C69	C	1.258481	-1.046809	-0.594415
C70	C	1.758481	-0.546809	-0.094415
O71	O	1.314423	-1.076721	-0.555091
O72	O	1.814423	-0.576721	-0.055091
N73	N	1.192751	-1.072164	-0.640700
N74	N	1.692751	-0.572164	-0.140700
C75	C	1.126990	-1.042907	-0.686978
C76	C	1.626990	-0.542907	-0.186978
O77	O	1.071085	-1.069488	-0.726350
O78	O	1.571085	-0.569488	-0.226350
C79	C	1.126963	-0.988300	-0.686965
C80	C	1.626963	-0.488300	-0.186965
C81	C	1.192692	-0.962947	-0.640670
C82	C	1.692692	-0.462947	-0.140670
C83	C	1.324173	-0.966847	-0.548107
C84	C	1.824173	-0.466847	-0.048107
C85	C	1.324140	-0.912241	-0.548088
C86	C	1.824140	-0.412241	-0.048088
C87	C	1.258383	-0.882988	-0.594360
C88	C	1.758383	-0.382988	-0.094360
C89	C	1.192658	-0.908341	-0.640651
C90	C	1.692658	-0.408341	-0.140651
C91	C	1.061206	-0.959045	-0.733248
C92	C	1.561206	-0.459045	-0.233248
C93	C	1.061185	-0.904435	-0.733232
C94	C	1.561185	-0.404435	-0.233232
C95	C	1.126914	-0.879082	-0.686936
C96	C	1.626914	-0.379082	-0.186936
C97	C	1.126868	-0.824483	-0.686905
C98	C	1.626868	-0.324483	-0.186905
N99	N	1.192598	-0.799128	-0.640619
N100	N	1.692598	-0.299128	-0.140619
C101	C	1.258355	-0.828381	-0.594347
C102	C	1.758355	-0.328381	-0.094347
C103	C	1.127054	-1.157587	-0.687003
C104	C	1.627054	-0.657587	-0.187003
C105	C	1.127077	-1.212192	-0.687011
C106	C	1.627077	-0.712192	-0.187011
C107	C	1.258569	-1.216091	-0.594449
C108	C	1.758569	-0.716091	-0.094449
C109	C	1.258541	-1.161483	-0.594437
C110	C	1.758541	-0.661483	-0.094437
C111	C	1.192784	-1.132232	-0.640718
C112	C	1.692784	-0.632232	-0.140718
C113	C	1.258280	-0.713705	-0.594311
C114	C	1.758280	-0.213705	-0.094311
C115	C	1.258239	-0.659094	-0.594293
C116	C	1.758239	-0.159094	-0.094293
C117	C	1.126750	-0.655201	-0.686858
C118	C	1.626750	-0.155201	-0.186858
C119	C	1.126788	-0.709806	-0.686873
C120	C	1.626788	-0.209806	-0.186873
C121	C	1.192561	-0.739058	-0.640597
C122	C	1.692561	-0.239058	-0.140597
O123	O	1.070956	-0.794537	-0.726211
O124	O	1.570956	-0.294537	-0.226211
O125	O	1.314257	-0.801795	-0.554992
O126	O	1.814257	-0.301795	-0.054992
C127	C	1.421068	-0.462821	-0.680105
C128	C	1.921068	0.037179	-0.180105
C129	C	1.518425	-0.474292	-0.696933
C130	C	2.018425	0.025708	-0.196933
C131	C	1.153088	-0.454803	-0.869079
C132	C	1.653088	0.045197	-0.369079
C133	C	1.136247	-0.462858	-0.966437
C134	C	1.636247	0.037142	-0.466437
C135	C	1.192768	-0.299554	-0.640705
C136	C	1.692768	0.200446	-0.140705
C137	C	1.192837	-0.241450	-0.640743
C138	C	1.692837	0.258550	-0.140743
C139	C	1.313004	-0.378246	-1.279690
C140	C	1.813004	0.121754	-0.779690
C141	C	1.328832	-0.370679	-1.188219
C142	C	1.828832	0.129321	-0.688219
C143	C	1.280687	-0.393723	-1.132769
C144	C	1.780687	0.106277	-0.632769
C145	C	1.216711	-0.424335	-1.168799
C146	C	1.716711	0.075665	-0.668799
C147	C	1.200886	-0.431905	-1.260281
C148	C	1.700886	0.068095	-0.760281
C149	C	1.168569	-0.447383	-1.113359
C150	C	1.668569	0.052617	-0.613359
C151	C	1.104593	-0.477995	-1.149390
C152	C	1.604593	0.022005	-0.649390
C153	C	1.088771	-0.485564	-1.240862
C154	C	1.588771	0.014436	-0.740862
C155	C	1.136916	-0.462520	-1.296312
C156	C	1.636916	0.037480	-0.796312
C157	C	1.184394	-0.439812	-1.021878
C158	C	1.684394	0.060188	-0.521878
C159	C	1.072276	-0.493472	-1.002468
C160	C	1.572276	0.006528	-0.502468
C161	C	1.056448	-0.501039	-1.093940
C162	C	1.556448	-0.001039	-0.593940
C163	C	1.232023	-0.417042	-0.413049
C164	C	1.732023	0.082958	0.086951
C165	C	1.249034	-0.408860	-0.315722
C166	C	1.749034	0.091140	0.184278
H167	H	0.710788	-0.307948	-0.452927
H168	H	1.210788	0.192052	0.047073
H169	H	0.775866	-0.504596	-0.741376
H170	H	1.275866	-0.004596	-0.241376
N171	N	0.684814	-0.575469	-0.845350
N172	N	1.184814	-0.075469	-0.345350
H173	H	0.715763	-0.562093	-0.892564
H174	H	1.215763	-0.062093	-0.392564
H175	H	0.728869	-0.601162	-0.816161
H176	H	1.228869	-0.101162	-0.316161
N177	N	0.990308	-0.986380	-0.783176
N178	N	1.490308	-0.486380	-0.283176
H179	H	0.948656	-0.959556	-0.812485
H180	H	1.448656	-0.459556	-0.312485
H181	H	1.018920	-1.016558	-0.829907
H182	H	1.518920	-0.516558	-0.329907
H183	H	1.004358	-0.525963	-1.123289
H184	H	1.504358	-0.025963	-0.623289
H185	H	1.311840	-0.737515	-0.556631
H186	H	1.811840	-0.237515	-0.056631
H187	H	1.293579	-0.387561	-1.058289
H188	H	1.793579	0.112439	-0.558289
H189	H	1.007637	-0.880621	-0.770923
H190	H	1.507637	-0.380621	-0.270923
H191	H	1.380924	-0.345757	-1.158890
H192	H	1.880924	0.154243	-0.658890
N193	N	1.055830	-0.623639	-0.736758
N194	N	1.555830	-0.123639	-0.236758
H195	H	1.084364	-0.608501	-0.783513
H196	H	1.584364	-0.108501	-0.283513
H197	H	1.014212	-0.648009	-0.766034
H198	H	1.514212	-0.148009	-0.266034
H199	H	1.312114	-1.239919	-0.556776
H200	H	1.812114	-0.739919	-0.056776
N201	N	1.055890	-0.737153	-0.736792
N202	N	1.555890	-0.237153	-0.236792
H203	H	1.014226	-0.710333	-0.766100
H204	H	1.514226	-0.210333	-0.266100
H205	H	1.084509	-0.767328	-0.783525
H206	H	1.584509	-0.267328	-0.283525
H207	H	0.509330	-0.544436	-0.799820
H208	H	1.009330	-0.044436	-0.299820
H209	H	1.033074	-0.512238	-0.957321
H210	H	1.533074	-0.012238	-0.457321
H211	H	1.073547	-1.232828	-0.724700
H212	H	1.573547	-0.732828	-0.224700
N213	N	1.019772	-0.518582	-1.279724
N214	N	1.519772	-0.018582	-0.779724
H215	H	1.017055	-0.519882	-1.346087
H216	H	1.517055	-0.019882	-0.846087
H217	H	1.036126	-0.556199	-1.266063
H218	H	1.536126	-0.056199	-0.766063
N219	N	0.439142	-0.386454	-0.568067
N220	N	0.939142	0.113546	-0.068067
H221	H	0.409498	-0.413791	-0.608163
H222	H	0.909498	0.086209	-0.108163
H223	H	0.427574	-0.388433	-0.504124
H224	H	0.927574	0.111567	-0.004124
H225	H	1.352202	-0.359490	-1.324846
H226	H	1.852202	0.140510	-0.824846
N227	N	1.395096	-0.998389	-0.498181
N228	N	1.895096	-0.498389	0.001819
H229	H	1.385152	-1.036832	-0.505201
H230	H	1.885152	-0.536832	-0.005201
H231	H	1.455270	-0.997300	-0.522668
H232	H	1.955270	-0.497300	-0.022668
N233	N	0.891407	-0.318830	-0.468871
N234	N	1.391407	0.181170	0.031129
H235	H	0.954827	-0.332249	-0.488560
H236	H	1.454827	0.167751	0.011440
H237	H	0.873077	-0.280761	-0.479862
H238	H	1.373077	0.219239	0.020138
H239	H	1.312064	-1.140844	-0.556739
H240	H	1.812064	-0.640844	-0.056739
H241	H	0.841588	-0.465781	-0.684439
H242	H	1.341588	0.034219	-0.184439
N243	N	1.119819	-0.470665	-1.394969
N244	N	1.619819	0.029335	-0.894969
H245	H	1.160017	-0.451414	-1.424623
H246	H	1.660017	0.048586	-0.924623
H247	H	1.132039	-0.510251	-1.419713
H248	H	1.632039	-0.010251	-0.919713
N249	N	0.554359	-0.318421	-0.468271
N250	N	1.054359	0.181579	0.031729
H251	H	0.603355	-0.299319	-0.440252
H252	H	1.103355	0.200681	0.059748
H253	H	0.510251	-0.292751	-0.497451
H254	H	1.010251	0.207249	0.002549
N255	N	1.395044	-0.884903	-0.498170
N256	N	1.895044	-0.384903	0.001830
H257	H	1.436704	-0.911728	-0.468870
H258	H	1.936704	-0.411728	0.031130
H259	H	1.429362	-0.869942	-0.540862
H260	H	1.929362	-0.369942	-0.040862
N261	N	1.253396	-0.406801	-0.983024
N262	N	1.753396	0.093199	-0.483024
H263	H	1.224404	-0.375240	-0.938930
H264	H	1.724404	0.124760	-0.438930
H265	H	1.300501	-0.429733	-0.952124
H266	H	1.800501	0.070267	-0.452124
N267	N	1.329137	-0.631749	-0.544361
N268	N	1.829137	-0.131749	-0.044361
H269	H	1.370800	-0.658571	-0.515056
H270	H	1.870800	-0.158571	-0.015056
H271	H	1.363455	-0.616783	-0.587045
H272	H	1.863455	-0.116783	-0.087045
N273	N	1.056119	-1.126038	-0.736916
N274	N	1.556119	-0.626038	-0.236916
H275	H	1.014488	-1.150389	-0.766234
H276	H	1.514488	-0.650389	-0.266234
H277	H	1.021773	-1.095690	-0.694220
H278	H	1.521773	-0.595690	-0.194220
