data_functionalizedCrystal
_audit_creation_method	'MofGen! by Chris Wilmer'
_symmetry_space_group_name_H-M	'P1'
_symmetry_Int_Tables_number	1
_symmetry_cell_setting	triclinic
loop_
_symmetry_equiv_pos_as_xyz
  x,y,z
_cell_length_a	9.065218
_cell_length_b	14.971482
_cell_length_c	14.048226
_cell_angle_alpha	89.994098
_cell_angle_beta	90.004897
_cell_angle_gamma	95.685753
loop_
_atom_site_label
_atom_site_type_symbol
_atom_site_fract_x
_atom_site_fract_y
_atom_site_fract_z
O1	O	-0.192235	1.188382	-0.079145
O2	O	-0.215264	0.928153	-0.079149
O3	O	0.011002	1.063646	-0.079144
O4	O	-0.418501	1.052888	-0.079150
O5	O	0.011015	1.063630	0.079177
O6	O	-0.215251	0.928136	0.079172
O7	O	-0.192222	1.188365	0.079176
Zn8	Zn	-0.203734	1.058248	0.104311
Zn9	Zn	-0.203752	1.058270	-0.104284
O10	O	-0.418488	1.052872	0.079171
C11	C	-0.214229	0.894812	0.000011
C12	C	-0.211145	0.795492	0.000009
C13	C	-0.209686	0.748827	0.086311
C14	C	-0.206765	0.655507	0.086312
C15	C	-0.205314	0.608852	0.000010
C16	C	-0.206770	0.655524	-0.086298
C17	C	-0.209680	0.748843	-0.086299
C18	C	-0.200708	0.461017	-0.086292
C19	C	-0.197800	0.367691	-0.086293
C20	C	-0.197793	0.367681	0.086318
C21	C	-0.200703	0.461000	0.086318
C22	C	-0.202161	0.507665	0.000009
C23	C	-0.473460	1.053914	0.000010
C24	C	-0.637240	1.057005	0.000008
C25	C	0.065974	1.062604	0.000015
C26	C	0.229754	1.059513	0.000011
C27	C	-0.193257	1.221706	0.000014
C28	C	-0.196341	1.321026	0.000009
N29	N	-0.203721	1.058240	0.246672
N30	N	-0.203753	1.058285	-0.246645
C31	C	-0.103572	1.118255	0.296492
C32	C	-0.103571	1.118262	0.396150
C33	C	-0.203728	1.058255	0.445985
C34	C	-0.303882	0.998233	0.396158
C35	C	-0.303874	0.998223	0.296502
C36	C	-0.303893	0.998259	0.603872
C37	C	-0.303902	0.998269	0.703535
C38	C	-0.103589	1.118297	0.703520
C39	C	-0.103582	1.118287	0.603864
C40	C	-0.203738	1.058266	0.554043
H41	H	-0.210871	0.786836	-0.156575
H42	H	-0.205578	0.617531	-0.156567
H43	H	-0.201893	0.498983	0.156593
H44	H	-0.385459	0.949405	0.744106
H45	H	-0.022034	1.167153	0.563288
H46	H	-0.385424	0.949351	0.255939
O47	O	-0.006136	1.176580	0.248233
C48	C	0.082234	1.229566	0.313581
H49	H	0.083992	1.192887	0.384627
H50	H	0.200022	1.242258	0.284797
H51	H	0.034150	1.296397	0.324161
H52	H	-0.022021	1.167130	0.436713
H53	H	-0.210879	0.786806	0.156588
H54	H	-0.205552	0.617519	0.156588
O55	O	-0.196591	0.322448	-0.170182
C56	C	-0.324993	0.336134	-0.222684
H57	H	-0.369661	0.400860	-0.198159
H58	H	-0.296380	0.341366	-0.301636
H59	H	-0.412764	0.277244	-0.210712
O60	O	-0.006344	1.176513	0.752057
C61	C	-0.027841	1.163669	0.850702
H62	H	-0.082783	1.093003	0.864325
H63	H	0.083860	1.172725	0.888581
H64	H	-0.101978	1.214892	0.878968
O65	O	-0.401329	0.939924	0.555623
C66	C	-0.489713	0.886950	0.620976
H67	H	-0.491479	0.923640	0.692007
H68	H	-0.607497	0.874257	0.592175
H69	H	-0.441636	0.820118	0.631592
H70	H	-0.385427	0.949370	0.436740
H71	H	-0.196606	0.329682	0.156594
H72	H	-0.201895	0.499008	-0.156574
