data_functionalizedCrystal
_audit_creation_method	'MofGen! by Chris Wilmer'
_symmetry_space_group_name_H-M	'P1'
_symmetry_Int_Tables_number	1
_symmetry_cell_setting	triclinic
loop_
_symmetry_equiv_pos_as_xyz
  x,y,z
_cell_length_a	12.759401
_cell_length_b	15.299816
_cell_length_c	12.759393
_cell_angle_alpha	80.349878
_cell_angle_beta	90.018496
_cell_angle_gamma	80.350473
loop_
_atom_site_label
_atom_site_type_symbol
_atom_site_fract_x
_atom_site_fract_y
_atom_site_fract_z
Zn1	Zn	1.678544	-0.358997	0.666396
Zn2	Zn	2.178544	0.141003	1.166396
Zn3	Zn	1.708812	-0.509841	0.521143
Zn4	Zn	2.208812	-0.009841	1.021143
Zn5	Zn	1.502855	-0.359045	0.490745
Zn6	Zn	2.002855	0.140955	0.990745
Zn7	Zn	1.533194	-0.509771	0.696771
Zn8	Zn	2.033194	-0.009771	1.196771
O9	O	1.605851	-0.434413	0.593764
O10	O	2.105851	0.065587	1.093764
O11	O	1.829582	-0.379016	0.647138
O12	O	2.329582	0.120984	1.147138
O13	O	1.681462	-0.489886	0.370100
O14	O	2.181462	0.010114	0.870100
O15	O	1.500796	-0.232830	0.488612
O16	O	2.000796	0.267170	0.988612
O17	O	1.851820	-0.489840	0.540421
O18	O	2.351820	0.010160	1.040421
O19	O	1.629874	-0.232796	0.617662
O20	O	2.129874	0.267204	1.117662
O21	O	1.530146	-0.379097	0.347766
O22	O	2.030146	0.120903	0.847766
O23	O	1.359857	-0.379030	0.518065
O24	O	1.859857	0.120970	1.018065
O25	O	1.552505	-0.489722	0.839753
O26	O	2.052505	0.010278	1.339753
O27	O	1.382147	-0.489768	0.669431
O28	O	1.882147	0.010232	1.169431
O29	O	1.659292	-0.378949	0.817437
O30	O	2.159292	0.121051	1.317437
O31	O	1.710881	-0.636039	0.569874
O32	O	2.210881	-0.136039	1.069874
O33	O	1.581855	-0.635988	0.698907
O34	O	2.081855	-0.135988	1.198907
C35	C	1.332881	-0.434397	0.593746
C36	C	1.832881	0.065603	1.093746
C37	C	1.216107	-0.434411	0.593768
C38	C	1.716107	0.065589	1.093768
C39	C	1.172898	-0.492165	0.672492
C40	C	1.672898	0.007835	1.172492
C41	C	1.063176	-0.492177	0.672506
C42	C	1.563176	0.007823	1.172506
C43	C	1.039882	-0.376678	0.515062
C44	C	1.539882	0.123322	1.015062
C45	C	1.149601	-0.376663	0.515054
C46	C	1.649601	0.123337	1.015054
C47	C	1.239403	-0.549914	0.751206
C48	C	1.739403	-0.049914	1.251206
C49	C	1.196195	-0.607673	0.829936
C50	C	1.696195	-0.107673	1.329936
C51	C	1.086473	-0.607684	0.829950
C52	C	1.586473	-0.107684	1.329950
C53	C	1.019960	-0.549937	0.751234
C54	C	1.519960	-0.049937	1.251234
C55	C	1.652973	-0.668738	0.641008
C56	C	2.152973	-0.168738	1.141008
C57	C	1.673228	-0.768983	0.661255
C58	C	2.173228	-0.268983	1.161255
C59	C	1.461775	-1.051929	0.449415
C60	C	1.961775	-0.551929	0.949415
C61	C	1.442739	-0.957743	0.430395
C62	C	1.942739	-0.457743	0.930395
C63	C	1.500360	-0.910549	0.488108
C64	C	2.000360	-0.410549	0.988108
C65	C	1.577019	-0.957549	0.564845
C66	C	2.077019	-0.457549	1.064845
C67	C	1.596051	-1.051743	0.583873
C68	C	2.096051	-0.551743	1.083873
C69	C	1.634636	-0.910363	0.622566
C70	C	2.134636	-0.410363	1.122566
C71	C	1.711296	-0.957363	0.699303
C72	C	2.211296	-0.457363	1.199303
C73	C	1.730325	-1.051548	0.718327
C74	C	2.230325	-0.551548	1.218327
C75	C	1.672704	-1.098743	0.660614
C76	C	2.172704	-0.598743	1.160614
C77	C	1.615604	-0.816169	0.603538
C78	C	2.115604	-0.316169	1.103538
C79	C	1.749881	-0.815983	0.737996
C80	C	2.249881	-0.315983	1.237996
C81	C	1.768917	-0.910169	0.757016
C82	C	2.268917	-0.410169	1.257016
C83	C	1.879888	-0.434431	0.593782
C84	C	2.379888	0.065569	1.093782
C85	C	1.996666	-0.434438	0.593790
C86	C	2.496666	0.065562	1.093790
C87	C	1.605907	-0.434322	0.867779
C88	C	2.105907	0.065678	1.367779
C89	C	1.605930	-0.434284	0.984548
C90	C	2.105930	0.065716	1.484548
C91	C	1.558574	-0.199174	0.546358
C92	C	2.058574	0.300826	1.046358
C93	C	1.538428	-0.098928	0.526156
C94	C	2.038428	0.401072	1.026156
C95	C	1.605844	-0.434439	0.320802
C96	C	2.105844	0.065561	0.820802
C97	C	1.605973	-0.434224	0.203982
C98	C	2.105973	0.065776	0.703982
C99	C	1.661543	-0.376599	1.027790
C100	C	2.161543	0.123401	1.527790
C101	C	1.661561	-0.376566	1.137508
C102	C	2.161561	0.123434	1.637508
C103	C	1.550353	-0.491911	1.160732
C104	C	2.050353	0.008089	1.660732
C105	C	1.550329	-0.491939	1.051016
C106	C	2.050329	0.008061	1.551016
C107	C	1.717144	-0.318944	0.961323
C108	C	2.217144	0.181056	1.461323
C109	C	1.772761	-0.261255	1.004564
C110	C	2.272761	0.238745	1.504564
C111	C	1.772780	-0.261222	1.114282
C112	C	2.272780	0.238778	1.614282
C113	C	1.717180	-0.318879	1.180758
C114	C	2.217180	0.181121	1.680758
H115	H	0.985719	-0.329663	0.450975
H116	H	1.485719	0.170337	0.950975
F117	F	1.717188	-0.318830	1.297527
F118	F	2.217188	0.181170	1.797527
F119	F	1.491139	-0.553332	1.004991
F120	F	1.991139	-0.053332	1.504991
F121	F	1.811896	-1.101567	0.800015
F122	F	2.311896	-0.601567	1.300015
H123	H	1.250356	-0.654683	0.894029
H124	H	1.750356	-0.154683	1.394029
H125	H	1.051295	-0.654708	0.894061
H126	H	1.551295	-0.154708	1.394061
F127	F	1.479809	-0.810309	0.468153
F128	F	1.979809	-0.310309	0.968153
F129	F	0.903182	-0.549945	0.751259
F130	F	1.403182	-0.049945	1.251259
H131	H	1.184781	-0.329628	0.450956
H132	H	1.684781	0.170372	0.950956
H133	H	1.553187	-0.777910	0.541058
H134	H	2.053187	-0.277910	1.041058
H135	H	1.717137	-0.318966	0.871984
H136	H	2.217137	0.181034	1.371984
H137	H	1.505086	-0.538852	1.214865
H138	H	2.005086	-0.038852	1.714865
H139	H	1.328746	-0.549913	0.751202
H140	H	1.828746	-0.049913	1.251202
H141	H	1.380323	-0.919479	0.367918
H142	H	1.880323	-0.419479	0.867918
H143	H	1.414864	-1.090363	0.402439
H144	H	1.914864	-0.590363	0.902439
F145	F	1.693133	-1.198987	0.680680
F146	F	2.193133	-0.698987	1.180680
H147	H	1.831333	-0.948449	0.819496
H148	H	2.331333	-0.448449	1.319496
F149	F	1.811208	-0.765760	0.799424
F150	F	2.311208	-0.265760	1.299424
F151	F	1.831915	-0.199885	0.933814
F152	F	2.331915	0.300115	1.433814
F153	F	1.831973	-0.199827	1.160301
F154	F	2.331973	0.300173	1.660301
