data_functionalizedCrystal
_audit_creation_method	'MofGen! by Chris Wilmer'
_symmetry_space_group_name_H-M	'P1'
_symmetry_Int_Tables_number	1
_symmetry_cell_setting	triclinic
loop_
_symmetry_equiv_pos_as_xyz
  x,y,z
_cell_length_a	18.050589
_cell_length_b	18.050591
_cell_length_c	10.686551
_cell_angle_alpha	85.593335
_cell_angle_beta	94.403861
_cell_angle_gamma	89.978696
loop_
_atom_site_label
_atom_site_type_symbol
_atom_site_fract_x
_atom_site_fract_y
_atom_site_fract_z
Zn1	Zn	-0.263514	-1.167600	0.713839
Zn2	Zn	0.236486	-0.667600	1.213839
Zn3	Zn	-0.397254	-1.157961	0.502837
Zn4	Zn	0.102746	-0.657961	1.002837
Zn5	Zn	-0.273068	-1.033869	0.502812
Zn6	Zn	0.226932	-0.533869	1.002812
Zn7	Zn	-0.387656	-1.043364	0.713751
Zn8	Zn	0.112344	-0.543364	1.213751
O9	O	-0.330373	-1.100698	0.608310
O10	O	0.169627	-0.600698	1.108310
O11	O	-0.281273	-1.270248	0.685896
O12	O	0.218727	-0.770248	1.185896
O13	O	-0.388795	-1.133492	0.326250
O14	O	0.111205	-0.633492	0.826250
O15	O	-0.167875	-1.051669	0.530831
O16	O	0.332125	-0.551669	1.030831
O17	O	-0.379531	-1.263167	0.530874
O18	O	0.120469	-0.763167	1.030874
O19	O	-0.160856	-1.149921	0.685872
O20	O	0.339144	-0.649921	1.185872
O21	O	-0.297557	-1.042322	0.326231
O22	O	0.202443	-0.542322	0.826231
O23	O	-0.288250	-0.931201	0.530746
O24	O	0.211750	-0.431201	1.030746
O25	O	-0.363173	-1.067851	0.890346
O26	O	0.136827	-0.567851	1.390346
O27	O	-0.372437	-0.938177	0.685722
O28	O	0.127563	-0.438177	1.185722
O29	O	-0.271967	-1.159128	0.890411
O30	O	0.228033	-0.659128	1.390411
O31	O	-0.499906	-1.142699	0.530789
O32	O	0.000094	-0.642699	1.030789
O33	O	-0.492855	-1.058505	0.685747
O34	O	0.007145	-0.558505	1.185747
C35	C	-0.330339	-0.907742	0.608222
C36	C	0.169661	-0.407742	1.108222
C37	C	-0.330341	-0.825196	0.608215
C38	C	0.169659	-0.325196	1.108215
C39	C	-0.284485	-0.621939	0.524115
C40	C	0.215515	-0.121939	1.024115
C41	C	-0.353624	-0.571114	0.493065
C42	C	0.146376	-0.071114	0.993065
C43	C	-0.330354	-0.674068	0.608258
C44	C	0.169646	-0.174068	1.108258
C45	C	-0.261231	-0.577810	0.639291
C46	C	0.238769	-0.077810	1.139291
C47	C	-0.330361	-0.528085	0.608297
C48	C	0.169639	-0.028085	1.108297
C49	C	-0.399532	-0.624327	0.577148
C50	C	0.100468	-0.124327	1.077148
C51	C	-0.307091	-0.631031	0.723428
C52	C	0.192909	-0.131031	1.223428
C53	C	-0.376276	-0.580230	0.692422
C54	C	0.123724	-0.080230	1.192422
C55	C	-0.330350	-0.758165	0.608232
C56	C	0.169650	-0.258165	1.108232
C57	C	-0.330373	-0.443989	0.608324
C58	C	0.169627	0.056011	1.108324
C59	C	-0.523326	-1.100608	0.608289
C60	C	-0.023326	-0.600608	1.108289
C61	C	-0.605870	-1.100639	0.608322
C62	C	-0.105870	-0.600639	1.108322
C63	C	-0.801515	-1.054901	0.692558
C64	C	-0.301515	-0.554901	1.192558
C65	C	-0.856161	-1.031592	0.577406
C66	C	-0.356161	-0.531592	1.077406
C67	C	-0.757000	-1.100713	0.608338
C68	C	-0.257000	-0.600713	1.108338
C69	C	-0.849434	-1.124059	0.723503
C70	C	-0.349434	-0.624059	1.223503
C71	C	-0.902984	-1.100783	0.608364
C72	C	-0.402984	-0.600783	1.108364
C73	C	-0.810562	-1.077365	0.493125
C74	C	-0.310562	-0.577365	0.993125
C75	C	-0.803827	-1.169867	0.639300
C76	C	-0.303827	-0.669867	1.139300
C77	C	-0.858455	-1.146580	0.524069
C78	C	-0.358455	-0.646580	1.024069
C79	C	-0.672902	-1.100670	0.608325
C80	C	-0.172902	-0.600670	1.108325
C81	C	-0.987080	-1.100825	0.608365
C82	C	-0.487080	-0.600825	1.108365
C83	C	-0.136665	-1.100811	0.608358
C84	C	0.363335	-0.600811	1.108358
C85	C	-0.054118	-1.100859	0.608379
C86	C	0.445882	-0.600859	1.108379
C87	C	-0.315433	-1.115624	0.937445
C88	C	0.184567	-0.615624	1.437445
C89	C	-0.309067	-1.121984	1.077703
C90	C	0.190933	-0.621984	1.577703
C91	C	-0.330395	-0.294407	0.608375
C92	C	0.169605	0.205593	1.108375
C93	C	-0.330375	-0.376951	0.608345
C94	C	0.169625	0.123049	1.108345
C95	C	-0.345201	-1.085874	0.280455
C96	C	0.154799	-0.585874	0.780455
C97	C	-0.351358	-1.079657	0.140198
C98	C	0.148642	-0.579657	0.640198
H99	H	-0.202782	-0.557288	0.665479
H100	H	0.297218	-0.057288	1.165479
C101	C	-0.887156	-0.952625	0.542033
C102	C	-0.387156	-0.452625	1.042033
N103	N	-0.910499	-0.893147	0.515397
N104	N	-0.410499	-0.393147	1.015397
C105	C	-0.767905	-1.002475	0.788634
C106	C	-0.267905	-0.502475	1.288634
N107	N	-0.742587	-0.962986	0.860990
N108	N	-0.242587	-0.462986	1.360990
C109	C	-0.772794	-1.248809	0.674733
C110	C	-0.272794	-0.748809	1.174733
N111	N	-0.749414	-1.308266	0.701438
N112	N	-0.249414	-0.808266	1.201438
H113	H	-0.392437	-1.038556	1.086401
H114	H	0.107563	-0.538556	1.586401
C115	C	-0.891889	-1.198951	0.427757
C116	C	-0.391889	-0.698951	0.927757
N117	N	-0.917074	-1.238392	0.355211
N118	N	-0.417074	-0.738392	0.855211
H119	H	-0.793406	-1.057579	0.395715
H120	H	-0.293406	-0.557579	0.895715
C121	C	-0.253568	-1.177517	1.150383
C122	C	0.246432	-0.677517	1.650383
N123	N	-0.211765	-1.219342	1.205128
N124	N	0.288235	-0.719342	1.705128
C125	C	-0.232153	-0.646848	0.427890
C126	C	0.267847	-0.146848	0.927890
N127	N	-0.192741	-0.665612	0.355411
N128	N	0.307259	-0.165612	0.855411
C129	C	-0.478537	-0.651865	0.541549
C130	C	0.021463	-0.151865	1.041549
N131	N	-0.538041	-0.672608	0.514731
N132	N	-0.038041	-0.172608	1.014731
C133	C	-0.380213	-0.535786	0.361512
C134	C	0.119787	-0.035786	0.861512
N135	N	-0.400233	-0.509178	0.262424
N136	N	0.099767	-0.009178	0.762424
C137	C	-0.428748	-0.555499	0.788569
C138	C	0.071252	-0.055499	1.288569
N139	N	-0.468273	-0.536867	0.860979
N140	N	0.031727	-0.036867	1.360979
H141	H	-0.866681	-1.143777	0.820887
H142	H	-0.366681	-0.643777	1.320887
H143	H	-0.287388	-0.657193	0.820779
H144	H	0.212612	-0.157193	1.320779
