data_functionalizedCrystal
_audit_creation_method	'MofGen! by Chris Wilmer'
_symmetry_space_group_name_H-M	'P1'
_symmetry_Int_Tables_number	1
_symmetry_cell_setting	triclinic
loop_
_symmetry_equiv_pos_as_xyz
  x,y,z
_cell_length_a	19.288840
_cell_length_b	22.610064
_cell_length_c	23.532357
_cell_angle_alpha	89.998517
_cell_angle_beta	97.022847
_cell_angle_gamma	90.015423
loop_
_atom_site_label
_atom_site_type_symbol
_atom_site_fract_x
_atom_site_fract_y
_atom_site_fract_z
O1	O	0.921130	0.049290	-0.070970
O2	O	1.254463	0.382624	0.262363
O3	O	1.587797	0.715957	0.595696
O4	O	0.718835	0.049271	-0.080569
O5	O	1.052168	0.382604	0.252764
O6	O	1.385502	0.715938	0.586097
O7	O	0.826101	0.049269	0.007152
O8	O	1.159434	0.382602	0.340485
O9	O	1.492767	0.715936	0.673818
O10	O	0.813864	0.049292	-0.158691
O11	O	1.147198	0.382626	0.174642
O12	O	1.480531	0.715959	0.507975
O13	O	0.826082	-0.049100	0.007139
O14	O	1.159415	0.284233	0.340472
O15	O	1.492748	0.617567	0.673805
O16	O	0.718816	-0.049098	-0.080582
O17	O	1.052149	0.284235	0.252751
O18	O	1.385483	0.617568	0.586084
O19	O	0.921111	-0.049079	-0.070983
O20	O	1.254444	0.284255	0.262350
O21	O	1.587778	0.617588	0.595683
Zn22	Zn	0.819961	-0.064707	-0.075785
Zn23	Zn	1.153294	0.268627	0.257549
Zn24	Zn	1.486627	0.601960	0.590882
Zn25	Zn	0.819985	0.064899	-0.075768
Zn26	Zn	1.153319	0.398232	0.257565
Zn27	Zn	1.486652	0.731566	0.590899
O28	O	0.813845	-0.049077	-0.158704
O29	O	1.147179	0.284256	0.174629
O30	O	1.480512	0.617590	0.507962
C31	C	0.692950	0.000084	-0.080269
C32	C	1.026283	0.333417	0.253064
C33	C	1.359617	0.666750	0.586397
C34	C	0.615848	0.000076	-0.079349
C35	C	0.949182	0.333409	0.253984
C36	C	1.282515	0.666742	0.587317
N37	N	0.819949	-0.153159	-0.075796
N38	N	1.153282	0.180174	0.257537
N39	N	1.486615	0.513507	0.590871
C40	C	0.579657	0.053698	-0.078900
C41	C	0.912990	0.387031	0.254433
C42	C	1.246323	0.720365	0.587766
C43	C	0.507213	0.053705	-0.078030
C44	C	0.840546	0.387039	0.255304
C45	C	1.173879	0.720372	0.588637
C46	C	0.470965	0.000087	-0.077596
C47	C	0.804298	0.333420	0.255737
C48	C	1.137632	0.666753	0.589070
C49	C	0.507165	-0.053543	-0.078049
C50	C	0.840498	0.279791	0.255285
C51	C	1.173832	0.613124	0.588618
C52	C	0.579607	-0.053548	-0.078925
C53	C	0.912940	0.279785	0.254408
C54	C	1.246273	0.613118	0.587742
C55	C	0.361744	-0.040989	-0.042854
C56	C	0.695077	0.292344	0.290479
C57	C	1.028411	0.625678	0.623812
C58	C	0.289304	-0.040981	-0.041974
C59	C	0.622638	0.292352	0.291359
C60	C	0.955971	0.625685	0.624692
C61	C	0.247530	0.000102	-0.074895
C62	C	0.580864	0.333435	0.258438
C63	C	0.914197	0.666769	0.591771
C64	C	0.278206	0.041187	-0.108689
C65	C	0.611539	0.374520	0.224644
C66	C	0.944873	0.707854	0.557978
C67	C	0.350648	0.041181	-0.109566
C68	C	0.683981	0.374515	0.223768
C69	C	1.017314	0.707848	0.557101
C70	C	0.392414	0.000087	-0.076646
C71	C	0.725747	0.333420	0.256687
C72	C	1.059081	0.666754	0.590021
C73	C	0.132786	0.053736	-0.073503
C74	C	0.466120	0.387069	0.259830
C75	C	0.799453	0.720402	0.593164
C76	C	0.060340	0.053741	-0.072636
C77	C	0.393674	0.387074	0.260698
C78	C	0.727007	0.720407	0.594031
C79	C	0.060295	-0.053509	-0.072649
C80	C	0.393628	0.279824	0.260684
C81	C	0.726962	0.613158	0.594018
C82	C	0.132739	-0.053512	-0.073522
C83	C	0.466072	0.279821	0.259811
C84	C	0.799405	0.613154	0.593145
C85	C	0.168980	0.000112	-0.073946
C86	C	0.502314	0.333445	0.259387
C87	C	0.835647	0.666778	0.592721
C88	C	0.867485	-0.561801	-0.036931
C89	C	1.200818	-0.228468	0.296402
C90	C	1.534151	0.104865	0.629736
C91	C	0.867488	-0.623721	-0.036927
C92	C	1.200822	-0.290388	0.296406
C93	C	1.534155	0.042945	0.629740
O94	O	0.907876	-0.655741	-0.003891
O95	O	1.241209	-0.322407	0.329442
O96	O	1.574542	0.010926	0.662776
N97	N	0.819985	-0.654696	-0.075756
N98	N	1.153318	-0.321363	0.257577
N99	N	1.486652	0.011970	0.590911
C100	C	0.772470	-0.623748	-0.114588
C101	C	1.105804	-0.290415	0.218745
C102	C	1.439137	0.042918	0.552079
O103	O	0.732065	-0.655781	-0.147615
O104	O	1.065398	-0.322447	0.185719
O105	O	1.398731	0.010886	0.519052
C106	C	0.772464	-0.561830	-0.114589
C107	C	1.105797	-0.228496	0.218744
C108	C	1.439131	0.104837	0.552078
C109	C	0.819975	-0.530858	-0.075761
C110	C	1.153308	-0.197524	0.257572
C111	C	1.486642	0.135809	0.590906
C112	C	0.914992	-0.530829	0.001894
C113	C	1.248325	-0.197496	0.335228
C114	C	1.581658	0.135837	0.668561
C115	C	0.914989	-0.468914	0.001889
C116	C	1.248322	-0.135581	0.335223
C117	C	1.581655	0.197753	0.668556
C118	C	0.867479	-0.437970	-0.036941
C119	C	1.200812	-0.104637	0.296392
C120	C	1.534146	0.228697	0.629726
C121	C	0.819972	-0.468942	-0.075766
C122	C	1.153306	-0.135609	0.257567
C123	C	1.486639	0.197725	0.590901
C124	C	0.724946	-0.530883	-0.153418
C125	C	1.058280	-0.197549	0.179915
C126	C	1.391613	0.135784	0.513249
C127	C	0.724944	-0.468960	-0.153415
C128	C	1.058277	-0.135626	0.179918
C129	C	1.391611	0.197707	0.513251
C130	C	0.772455	-0.437988	-0.114587
C131	C	1.105788	-0.104654	0.218746
C132	C	1.439122	0.228679	0.552079
C133	C	0.772460	-0.376083	-0.114601
C134	C	1.105793	-0.042749	0.218732
C135	C	1.439126	0.290584	0.552065
N136	N	0.819963	-0.345108	-0.075772
N137	N	1.153296	-0.011774	0.257561
N138	N	1.486630	0.321559	0.590895
C139	C	0.867473	-0.376051	-0.036942
C140	C	1.200806	-0.042718	0.296391
C141	C	1.534139	0.290615	0.629725
C142	C	0.772486	-0.753782	-0.114582
C143	C	1.105820	-0.420449	0.218751
C144	C	1.439153	-0.087115	0.552084
C145	C	0.772495	-0.815700	-0.114585
C146	C	1.105829	-0.482366	0.218749
C147	C	1.439162	-0.149033	0.552082
C148	C	0.867513	-0.815668	-0.036923
C149	C	1.200846	-0.482335	0.296411
C150	C	1.534179	-0.149002	0.629744
C151	C	0.867507	-0.753750	-0.036923
C152	C	1.200840	-0.420416	0.296410
C153	C	1.534173	-0.087083	0.629743
C154	C	0.819990	-0.722807	-0.075753
C155	C	1.153323	-0.389474	0.257580
C156	C	1.486656	-0.056140	0.590913
C157	C	0.867463	-0.246024	-0.036956
C158	C	1.200797	0.087309	0.296378
C159	C	1.534130	0.420643	0.629711
C160	C	0.867458	-0.184103	-0.036966
C161	C	1.200792	0.149230	0.296368
C162	C	1.534125	0.482564	0.629701
C163	C	0.772439	-0.184140	-0.114626
C164	C	1.105772	0.149194	0.218708
C165	C	1.439105	0.482527	0.552041
C166	C	0.772446	-0.246055	-0.114618
C167	C	1.105779	0.087278	0.218715
C168	C	1.439113	0.420611	0.552049
C169	C	0.819961	-0.276996	-0.075778
C170	C	1.153294	0.056337	0.257555
C171	C	1.486628	0.389671	0.590889
O172	O	0.732091	-0.344024	-0.147619
O173	O	1.065424	-0.010691	0.185715
O174	O	1.398758	0.322643	0.519048
O175	O	0.907865	-0.344011	-0.003916
O176	O	1.241199	-0.010678	0.329417
O177	O	1.574532	0.322655	0.662751
C178	C	0.946996	0.000110	-0.071283
C179	C	1.280329	0.333443	0.262050
C180	C	1.613663	0.666776	0.595383
C181	C	1.024098	0.000122	-0.072203
C182	C	1.357431	0.333455	0.261130
C183	C	1.690764	0.666788	0.594463
C184	C	0.825785	0.000083	0.028362
C185	C	1.159119	0.333416	0.361696
C186	C	1.492452	0.666749	0.695029
C187	C	0.824865	0.000077	0.091583
C188	C	1.158198	0.333410	0.424916
C189	C	1.491532	0.666744	0.758249
N190	N	0.820003	0.153351	-0.075752
N191	N	1.153336	0.486685	0.257581
N192	N	1.486670	0.820018	0.590914
C193	C	0.814161	0.000111	-0.179915
C194	C	1.147494	0.333444	0.153418
C195	C	1.480827	0.666777	0.486752
C196	C	0.815081	0.000120	-0.243135
C197	C	1.148414	0.333454	0.090198
C198	C	1.481748	0.666787	0.423531
C199	C	0.819098	0.053729	0.483613
C200	C	1.152432	0.387063	0.816946
C201	C	1.485765	0.720396	1.150279
C202	C	0.818223	0.053733	0.543014
C203	C	1.151557	0.387066	0.876347
C204	C	1.484890	0.720399	1.209680
O205	O	0.817756	0.099335	0.573737
O206	O	1.151090	0.432669	0.907070
O207	O	1.484423	0.766002	1.240404
N208	N	0.817779	0.000112	0.572719
N209	N	1.151113	0.333446	0.906052
N210	N	1.484446	0.666779	1.239386
C211	C	0.818203	-0.053515	0.543019
C212	C	1.151536	0.279819	0.876352
C213	C	1.484870	0.613152	1.209686
O214	O	0.817744	-0.099123	0.573740
O215	O	1.151078	0.234211	0.907073
O216	O	1.484411	0.567544	1.240406
C217	C	0.819073	-0.053517	0.483618
C218	C	1.152406	0.279816	0.816952
C219	C	1.485739	0.613149	1.150285
C220	C	0.819524	0.000106	0.453917
C221	C	1.152857	0.333440	0.787250
C222	C	1.486191	0.666773	1.120584
C223	C	0.819549	0.107349	0.453911
C224	C	1.152882	0.440682	0.787245
C225	C	1.486215	0.774016	1.120578
C226	C	0.820425	0.107345	0.394514
C227	C	1.153758	0.440679	0.727848
C228	C	1.487091	0.774012	1.061181
C229	C	0.820850	0.053722	0.364819
C230	C	1.154184	0.387056	0.698152
C231	C	1.487517	0.720389	1.031485
C232	C	0.820400	0.000103	0.394520
C233	C	1.153733	0.333436	0.727853
C234	C	1.487067	0.666770	1.061187
C235	C	0.819491	-0.107144	0.453919
C236	C	1.152825	0.226189	0.787252
C237	C	1.486158	0.559523	1.120585
C238	C	0.820361	-0.107142	0.394514
C239	C	1.153694	0.226191	0.727847
C240	C	1.487027	0.559525	1.061181
C241	C	0.820812	-0.053518	0.364813
C242	C	1.154145	0.279815	0.698146
C243	C	1.487478	0.613148	1.031479
C244	C	0.821702	-0.053524	0.305428
C245	C	1.155035	0.279810	0.638761
C246	C	1.488368	0.613143	0.972094
N247	N	0.822146	0.000097	0.275722
N248	N	1.155479	0.333430	0.609056
N249	N	1.488812	0.666763	0.942389
C250	C	0.821720	0.053720	0.305418
C251	C	1.155053	0.387053	0.638751
C252	C	1.488387	0.720386	0.972085
C253	C	0.816375	-0.053505	0.667764
C254	C	1.149708	0.279828	1.001097
C255	C	1.483042	0.613162	1.334431
C256	C	0.815510	-0.053503	0.727164
C257	C	1.148844	0.279830	1.060498
C258	C	1.482177	0.613164	1.393831
C259	C	0.815530	0.053745	0.727155
C260	C	1.148863	0.387078	1.060488
C261	C	1.482196	0.720411	1.393822
C262	C	0.816399	0.053742	0.667754
C263	C	1.149733	0.387075	1.001088
C264	C	1.483066	0.720409	1.334421
C265	C	0.816819	0.000115	0.638059
C266	C	1.150153	0.333449	0.971392
C267	C	1.483486	0.666782	1.304726
C268	C	0.823560	0.053708	0.180680
C269	C	1.156894	0.387042	0.514014
C270	C	1.490227	0.720375	0.847347
C271	C	0.824439	0.053700	0.121278
C272	C	1.157773	0.387033	0.454612
C273	C	1.491106	0.720367	0.787945
C274	C	0.824416	-0.053547	0.121292
C275	C	1.157750	0.279786	0.454626
C276	C	1.491083	0.613119	0.787959
C277	C	0.823541	-0.053539	0.180690
C278	C	1.156874	0.279794	0.514023
C279	C	1.490208	0.613127	0.847356
C280	C	0.823111	0.000093	0.210382
C281	C	1.156444	0.333426	0.543715
C282	C	1.489777	0.666760	0.877048
O283	O	0.822166	-0.099103	0.274666
O284	O	1.155500	0.234230	0.608000
O285	O	1.488833	0.567564	0.941333
O286	O	0.822170	0.099320	0.274689
O287	O	1.155503	0.432653	0.608022
O288	O	1.488836	0.765987	0.941356
H289	H	0.609160	0.097363	-0.079246
H290	H	0.942494	0.430696	0.254087
H291	H	1.275827	0.764030	0.587421
H292	H	0.686248	-0.443769	-0.185035
H293	H	1.019581	-0.110436	0.148299
H294	H	1.352914	0.222898	0.481632
F295	F	0.815043	-0.110577	0.758769
F296	F	1.148376	0.222756	1.092103
F297	F	1.481710	0.556090	1.425436
F298	F	0.965561	-0.563754	0.043227
F299	F	1.298895	-0.230420	0.376560
F300	F	1.632228	0.102913	0.709893
F301	F	0.816828	-0.110586	0.636166
F302	F	1.150161	0.222747	0.969499
F303	F	1.483494	0.556081	1.302833
F304	F	0.468586	-0.110607	-0.077590
F305	F	0.801920	0.222726	0.255743
F306	F	1.135253	0.556059	0.589076
F307	F	0.819008	-0.164219	0.485516
F308	F	1.152342	0.169114	0.818849
F309	F	1.485675	0.502448	1.152183
H310	H	0.906150	-0.158887	-0.005347
H311	H	1.239483	0.174446	0.327986
H312	H	1.572817	0.507779	0.661319
F313	F	0.819095	0.164427	0.485507
F314	F	1.152428	0.497760	0.818840
F315	F	1.485762	0.831094	1.152173
F316	F	0.918034	-0.278944	0.004382
F317	F	1.251368	0.054389	0.337715
F318	F	1.584701	0.387722	0.671049
F319	F	0.820900	0.164420	0.362911
F320	F	1.154233	0.497753	0.696244
F321	F	1.487567	0.831086	1.029578
F322	F	0.815072	0.110816	0.758769
F323	F	1.148405	0.444149	1.092102
F324	F	1.481739	0.777482	1.425436
H325	H	0.733794	-0.728591	-0.146207
H326	H	1.067127	-0.395258	0.187126
H327	H	1.400461	-0.061925	0.520460
H328	H	0.820692	-0.150812	0.370338
H329	H	1.154025	0.182521	0.703672
H330	H	1.487359	0.515854	1.037005
H331	H	0.733765	-0.271273	-0.146241
H332	H	1.067098	0.062060	0.187093
H333	H	1.400431	0.395394	0.520426
F334	F	0.468687	0.110780	-0.077552
F335	F	0.802020	0.444113	0.255782
F336	F	1.135353	0.777447	0.589115
H337	H	0.162207	-0.097178	-0.073884
H338	H	0.495540	0.236156	0.259450
H339	H	0.828874	0.569489	0.592783
H340	H	0.953674	-0.443700	0.033508
H341	H	1.287008	-0.110367	0.366841
H342	H	1.620341	0.222967	0.700174
F343	F	0.824922	0.110776	0.089672
F344	F	1.158255	0.444110	0.423005
F345	F	1.491588	0.777443	0.756338
F346	F	0.618126	-0.110623	-0.079403
F347	F	0.951459	0.222710	0.253930
F348	F	1.284792	0.556043	0.587264
H349	H	0.162295	0.097400	-0.073854
H350	H	0.495628	0.430733	0.259479
H351	H	0.828962	0.764066	0.592812
F352	F	0.918073	-0.720793	0.004403
F353	F	1.251406	-0.387459	0.337736
F354	F	1.584740	-0.054126	0.671069
H355	H	0.823180	-0.097204	0.204874
H356	H	1.156513	0.236129	0.538208
H357	H	1.489847	0.569462	0.871541
H358	H	0.906197	-0.840874	-0.005304
H359	H	1.239530	-0.507541	0.328029
H360	H	1.572864	-0.174207	0.661363
H361	H	0.733759	-0.158936	-0.146242
H362	H	1.067092	0.174398	0.187091
H363	H	1.400425	0.507731	0.520424
F364	F	0.721936	-0.848656	-0.155917
F365	F	1.055270	-0.515323	0.177416
F366	F	1.388603	-0.181989	0.510749
F367	F	0.674378	-0.563834	-0.194743
F368	F	1.007711	-0.230501	0.138590
F369	F	1.341044	0.102833	0.471924
H370	H	0.264335	-0.074432	-0.014454
H371	H	0.597668	0.258901	0.318879
H372	H	0.931001	0.592234	0.652212
H373	H	0.823207	0.097381	0.204848
H374	H	1.156540	0.430714	0.538181
H375	H	1.489873	0.764048	0.871515
F376	F	0.816878	0.110815	0.636149
F377	F	1.150212	0.444148	0.969482
F378	F	1.483545	0.777482	1.302816
H379	H	0.375621	0.074633	-0.137083
H380	H	0.708954	0.407966	0.196250
H381	H	1.042287	0.741300	0.529584
F382	F	0.824871	-0.110614	0.089678
F383	F	1.158204	0.222719	0.423011
F384	F	1.491537	0.556053	0.756345
H385	H	0.244194	0.074639	-0.135499
H386	H	0.577528	0.407972	0.197834
H387	H	0.910861	0.741306	0.531168
H388	H	0.030782	-0.097166	-0.072300
H389	H	0.364116	0.236167	0.261034
H390	H	0.697449	0.569501	0.594367
F391	F	0.406197	-0.084719	-0.007814
F392	F	0.739530	0.248614	0.325520
F393	F	1.072864	0.581948	0.658853
F394	F	0.021822	0.110816	-0.072162
F395	F	0.355155	0.444150	0.261171
F396	F	0.688489	0.777483	0.594504
