data_functionalizedCrystal
_audit_creation_method	'MofGen! by Chris Wilmer'
_symmetry_space_group_name_H-M	'P1'
_symmetry_Int_Tables_number	1
_symmetry_cell_setting	triclinic
loop_
_symmetry_equiv_pos_as_xyz
  x,y,z
_cell_length_a	23.532407
_cell_length_b	9.065218
_cell_length_c	7.540329
_cell_angle_alpha	90.001757
_cell_angle_beta	90.002386
_cell_angle_gamma	96.067719
loop_
_atom_site_label
_atom_site_type_symbol
_atom_site_fract_x
_atom_site_fract_y
_atom_site_fract_z
O1	O	0.756573	-0.179072	-0.147254
O2	O	0.590900	-0.204983	-0.147305
O3	O	0.677161	0.022784	-0.147275
O4	O	0.670312	-0.406838	-0.147285
O5	O	0.677156	0.022786	0.147690
O6	O	0.590895	-0.204980	0.147660
O7	O	0.756568	-0.179069	0.147711
Cu8	Cu	0.673731	-0.192024	0.174618
Cu9	Cu	0.673737	-0.192028	-0.174213
O10	O	0.670307	-0.406836	0.147680
C11	C	0.569676	-0.204321	0.000170
C12	C	0.506445	-0.202338	0.000151
C13	C	0.676500	0.077739	0.000204
C14	C	0.674532	0.241485	0.000195
N15	N	0.673731	-0.192021	0.419966
C16	C	0.108240	-0.324683	0.000228
C17	C	0.048826	-0.322840	0.000239
O18	O	0.012914	-0.436255	0.000301
N19	N	0.025206	-0.187433	0.000239
C20	C	0.061003	-0.053860	0.000247
O21	O	0.035456	0.061484	0.000249
C22	C	0.120415	-0.055704	0.000248
C23	C	0.144032	-0.191120	0.000230
C24	C	0.131857	-0.460088	0.000212
C25	C	0.191267	-0.461930	0.000198
C26	C	0.227059	-0.328367	0.000200
C27	C	0.203442	-0.192962	0.000216
C28	C	0.156211	0.077867	0.000268
C29	C	0.215627	0.076011	0.000271
C30	C	0.239244	-0.059405	0.000253
C31	C	0.298644	-0.061242	0.000204
N32	N	0.322264	-0.196649	0.000204
C33	C	0.286472	-0.330211	0.000202
C34	C	-0.063768	-0.049997	0.000246
C35	C	-0.123180	-0.048151	0.000231
C36	C	-0.135352	-0.317131	0.000228
C37	C	-0.075939	-0.318976	0.000229
C38	C	-0.040148	-0.185404	0.000246
C39	C	0.411237	-0.334070	0.000171
C40	C	0.470653	-0.335900	0.000149
C41	C	0.482820	-0.066921	0.000162
C42	C	0.423410	-0.065089	0.000174
C43	C	0.387619	-0.198676	0.000185
O44	O	0.334591	0.052114	0.000149
O45	O	0.312027	-0.445536	0.000223
C46	C	0.777791	-0.179731	0.000231
C47	C	0.841023	-0.181714	0.000239
C48	C	0.670968	-0.461791	0.000197
C49	C	0.672936	-0.625537	0.000195
N50	N	0.673742	-0.192019	-0.419561
H51	H	0.489878	-0.446177	0.000133
C52	C	0.254995	0.222955	0.000282
N53	N	0.284646	0.333633	0.000283
C54	C	0.397430	0.083874	0.000171
N55	N	0.377867	0.196076	0.000184
C56	C	0.092494	-0.607031	0.000217
N57	N	0.062849	-0.717718	0.000210
C58	C	-0.049967	-0.467942	0.000229
N59	N	-0.030407	-0.580150	0.000236
C60	C	0.522202	0.079991	0.000185
N61	N	0.551867	0.190646	0.000221
H62	H	-0.164505	-0.425885	0.000234
C63	C	-0.149151	0.100817	0.000239
N64	N	-0.168710	0.213025	0.000260
H65	H	-0.034629	0.058781	0.000243
H66	H	0.210490	-0.572199	0.000183
C67	C	0.371876	-0.481023	0.000172
N68	N	0.342229	-0.591708	0.000160
H69	H	0.136993	0.188137	0.000284
