data_functionalizedCrystal
_audit_creation_method	'MofGen! by Chris Wilmer'
_symmetry_space_group_name_H-M	'P1'
_symmetry_Int_Tables_number	1
_symmetry_cell_setting	triclinic
loop_
_symmetry_equiv_pos_as_xyz
  x,y,z
_cell_length_a	19.077312
_cell_length_b	16.959453
_cell_length_c	19.077174
_cell_angle_alpha	92.272211
_cell_angle_beta	90.075859
_cell_angle_gamma	87.730907
loop_
_atom_site_label
_atom_site_type_symbol
_atom_site_fract_x
_atom_site_fract_y
_atom_site_fract_z
Zn1	Zn	1.090140	-0.379777	-0.354125
Zn2	Zn	1.590140	0.120223	0.145875
Zn3	Zn	1.085341	-0.506443	-0.236622
Zn4	Zn	1.585341	-0.006443	0.263378
Zn5	Zn	0.967925	-0.369207	-0.241356
Zn6	Zn	1.467925	0.130793	0.258644
Zn7	Zn	0.972603	-0.506834	-0.358811
Zn8	Zn	1.472603	-0.006834	0.141189
O9	O	1.029002	-0.440565	-0.297729
O10	O	1.529002	0.059435	0.202271
O11	O	1.187832	-0.400839	-0.334596
O12	O	1.687832	0.099161	0.165404
O13	O	1.065799	-0.483652	-0.138920
O14	O	1.565799	0.016348	0.361080
O15	O	0.984188	-0.260002	-0.256336
O16	O	1.484188	0.239998	0.243664
O17	O	1.184306	-0.493901	-0.248267
O18	O	1.684306	0.006099	0.251733
O19	O	1.073979	-0.267767	-0.339186
O20	O	1.573979	0.232233	0.160814
O21	O	0.979534	-0.382825	-0.142398
O22	O	1.479534	0.117175	0.357602
O23	O	0.870217	-0.383204	-0.260879
O24	O	1.370217	0.116796	0.239121
O25	O	0.992161	-0.494567	-0.456520
O26	O	1.492161	0.005433	0.043480
O27	O	0.873654	-0.484318	-0.347173
O28	O	1.373654	0.015682	0.152827
O29	O	1.078515	-0.401218	-0.453077
O30	O	1.578515	0.098782	0.046923
O31	O	1.070335	-0.617103	-0.252811
O32	O	1.570335	-0.117103	0.247189
O33	O	0.987507	-0.617390	-0.342582
O34	O	1.487507	-0.117390	0.157418
C35	C	0.846440	-0.432657	-0.305049
C36	C	1.346440	0.067343	0.194951
C37	C	0.768340	-0.429294	-0.308197
C38	C	1.268340	0.070706	0.191803
C39	C	0.328917	-0.405107	-0.330784
C40	C	0.828917	0.094893	0.169216
C41	C	0.402300	-0.408282	-0.327822
C42	C	0.902300	0.091718	0.172178
C43	C	0.437144	-0.458235	-0.281321
C44	C	0.937144	0.041765	0.218679
C45	C	0.398601	-0.505022	-0.237785
C46	C	0.898601	-0.005022	0.262215
C47	C	0.325219	-0.501851	-0.240751
C48	C	0.825219	-0.001851	0.259249
C49	C	0.656414	-0.472909	-0.267627
C50	C	1.156414	0.027091	0.232373
C51	C	0.729801	-0.476075	-0.264662
C52	C	1.229801	0.023925	0.235338
C53	C	0.733496	-0.379336	-0.354701
C54	C	1.233496	0.120664	0.145299
C55	C	0.660112	-0.376166	-0.357660
C56	C	1.160112	0.123834	0.142340
C57	C	0.621576	-0.422956	-0.314126
C58	C	1.121576	0.077044	0.185874
N59	N	0.512153	-0.461479	-0.278291
N60	N	1.012153	0.038521	0.221709
N61	N	0.546568	-0.419715	-0.317160
N62	N	1.046568	0.080285	0.182840
C63	C	1.028927	-0.645927	-0.297706
C64	C	1.528927	-0.145927	0.202294
C65	C	1.028960	-0.733786	-0.297717
C66	C	1.528960	-0.233786	0.202283
C67	C	0.985812	-0.775236	-0.344426
C68	C	1.485812	-0.275236	0.155574
C69	C	1.072144	-0.774892	-0.251022
C70	C	1.572144	-0.274892	0.248978
C71	C	1.072179	-0.857440	-0.251034
C72	C	1.572179	-0.357440	0.248966
C73	C	1.029031	-0.898890	-0.297743
C74	C	1.529031	-0.398890	0.202257
C75	C	0.985848	-0.857792	-0.344440
C76	C	1.485848	-0.357792	0.155560
C77	C	1.115367	-0.898544	-0.204342
C78	C	1.615367	-0.398544	0.295658
C79	C	1.115405	-0.981097	-0.204352
C80	C	1.615405	-0.481097	0.295648
C81	C	1.072253	-1.022548	-0.251058
C82	C	1.572253	-0.522548	0.248942
C83	C	1.029067	-0.981445	-0.297757
C84	C	1.529067	-0.481445	0.202243
C85	C	0.985919	-1.022895	-0.344466
C86	C	1.485919	-0.522895	0.155534
C87	C	0.942729	-0.981794	-0.391162
C88	C	1.442729	-0.481794	0.108838
C89	C	0.942696	-0.899243	-0.391147
C90	C	1.442696	-0.399243	0.108853
C91	C	1.072286	-1.105099	-0.251073
C92	C	1.572286	-0.605099	0.248927
C93	C	0.985955	-1.105451	-0.344480
C94	C	1.485955	-0.605451	0.155520
C95	C	1.212278	-0.448505	-0.290381
C96	C	1.712278	0.051495	0.209619
C97	C	1.290379	-0.451889	-0.287249
C98	C	1.790379	0.048111	0.212751
C99	C	1.036395	-0.449115	-0.481008
C100	C	1.536395	0.050885	0.018992
C101	C	1.039546	-0.452758	-0.559110
C102	C	1.539546	0.047242	-0.059110
C103	C	1.029097	-0.234403	-0.297766
C104	C	1.529097	0.265597	0.202234
C105	C	1.029138	-0.146549	-0.297782
C106	C	1.529138	0.353451	0.202218
C107	C	0.996115	-0.401976	-0.597613
C108	C	1.496115	0.098024	-0.097613
C109	C	0.999072	-0.405406	-0.670999
C110	C	1.499072	0.094594	-0.170999
C111	C	1.045465	-0.459615	-0.705880
C112	C	1.545465	0.040385	-0.205880
C113	C	1.088898	-0.510402	-0.667372
C114	C	1.588898	-0.010402	-0.167372
C115	C	1.085937	-0.506976	-0.593988
C116	C	1.585937	-0.006976	-0.093988
C117	C	1.059135	-0.475495	-0.925161
C118	C	1.559135	0.024505	-0.425161
C119	C	1.062095	-0.478916	-0.998551
C120	C	1.562095	0.021084	-0.498551
C121	C	0.972268	-0.373920	-1.002173
C122	C	1.472268	0.126080	-0.502173
C123	C	0.969313	-0.370495	-0.928787
C124	C	1.469313	0.129505	-0.428787
C125	C	1.012744	-0.421286	-0.890285
C126	C	1.512744	0.078714	-0.390285
N127	N	1.048491	-0.463120	-0.780892
N128	N	1.548491	0.036880	-0.280892
N129	N	1.009714	-0.417784	-0.815275
N130	N	1.509714	0.082216	-0.315275
C131	C	1.021678	-0.431994	-0.115161
C132	C	1.521678	0.068006	0.384839
C133	C	1.018664	-0.428134	-0.037054
C134	C	1.518664	0.071866	0.462946
H135	H	0.764881	-0.341243	-0.390144
H136	H	1.264881	0.158757	0.109856
C137	C	0.282827	-0.553312	-0.192857
C138	C	0.782827	-0.053312	0.307143
N139	N	0.250898	-0.592076	-0.156783
N140	N	0.750898	-0.092076	0.343217
H141	H	0.936909	-0.332570	-1.033529
H142	H	1.436909	0.167430	-0.533529
C143	C	1.133718	-0.562837	-0.551634
C144	C	1.633718	-0.062837	-0.051634
N145	N	1.169708	-0.604915	-0.519735
N146	N	1.669708	-0.104915	-0.019735
C147	C	0.290596	-0.350155	-0.381939
C148	C	0.790596	0.149845	0.118061
N149	N	0.261734	-0.308766	-0.420473
N150	N	0.761734	0.191234	0.079527
H151	H	1.107278	-0.741141	-0.212996
H152	H	1.607278	-0.241141	0.287004
C153	C	0.895267	-1.027399	-0.442540
C154	C	1.395267	-0.527399	0.057460
N155	N	0.859518	-1.061753	-0.481235
N156	N	1.359518	-0.561753	0.018765
H157	H	0.950818	-1.139194	-0.382517
H158	H	1.450818	-0.639194	0.117483
C159	C	0.895197	-0.854025	-0.442513
C160	C	1.395197	-0.354025	0.057487
N161	N	0.859424	-0.819964	-0.481205
N162	N	1.359424	-0.319964	0.018795
C163	C	0.768128	-0.531035	-0.213510
C164	C	1.268128	-0.031035	0.286490
N165	N	0.796996	-0.572428	-0.174984
N166	N	1.296996	-0.072428	0.325016
C167	C	1.139772	-0.570205	-0.705750
C168	C	1.639772	-0.070205	-0.205750
N169	N	1.178035	-0.615309	-0.734658
N170	N	1.678035	-0.115309	-0.234658
H171	H	0.931533	-0.326355	-0.900392
H172	H	1.431533	0.173645	-0.400392
H173	H	0.625046	-0.511007	-0.232176
H174	H	1.125046	-0.011007	0.267824
H175	H	1.150501	-0.864793	-0.166316
H176	H	1.650501	-0.364793	0.333684
C177	C	0.444689	-0.356811	-0.375708
C178	C	0.944689	0.143189	0.124292
N179	N	0.476615	-0.318039	-0.411777
N180	N	0.976615	0.181961	0.088223
H181	H	0.631748	-0.335492	-0.395528
H182	H	1.131748	0.164508	0.104472
C183	C	1.119792	-1.150307	-0.199711
C184	C	1.619792	-0.650307	0.300289
N185	N	1.155575	-1.184357	-0.161021
N186	N	1.655575	-0.684357	0.338979
H187	H	0.426976	-0.545698	-0.199926
H188	H	0.926976	-0.045698	0.300074
C189	C	0.938307	-0.730024	-0.395791
C190	C	1.438307	-0.230024	0.104209
N191	N	0.902527	-0.695969	-0.434480
N192	N	1.402527	-0.195969	0.065520
C193	C	0.945078	-0.342342	-0.559251
C194	C	1.445078	0.157658	-0.059251
N195	N	0.906634	-0.297426	-0.530358
N196	N	1.406634	0.202574	-0.030358
H197	H	0.963703	-0.364056	-0.702345
H198	H	1.463703	0.135944	-0.202345
C199	C	1.113131	-0.538556	-1.036919
C200	C	1.613131	-0.038556	-0.536919
N201	N	1.151569	-0.583474	-1.065817
N202	N	1.651569	-0.083474	-0.565817
C203	C	1.162908	-1.026301	-0.152979
C204	C	1.662908	-0.526301	0.347021
N205	N	1.198684	-1.060349	-0.114282
N206	N	1.698684	-0.560349	0.385718
C207	C	1.106950	-0.531324	-0.882817
C208	C	1.606950	-0.031324	-0.382817
N209	N	1.142980	-0.573363	-0.850921
N210	N	1.642980	-0.073363	-0.350921
