data_functionalizedCrystal
_audit_creation_method	'MofGen! by Chris Wilmer'
_symmetry_space_group_name_H-M	'P1'
_symmetry_Int_Tables_number	1
_symmetry_cell_setting	triclinic
loop_
_symmetry_equiv_pos_as_xyz
  x,y,z
_cell_length_a	15.995292
_cell_length_b	15.995350
_cell_length_c	14.048226
_cell_angle_alpha	89.995798
_cell_angle_beta	89.992366
_cell_angle_gamma	83.480495
loop_
_atom_site_label
_atom_site_type_symbol
_atom_site_fract_x
_atom_site_fract_y
_atom_site_fract_z
O1	O	1.111018	0.107697	-0.079182
O2	O	0.867236	0.121075	-0.079177
O3	O	0.995791	-0.007503	-0.079179
O4	O	0.982463	0.236275	-0.079180
O5	O	0.995776	-0.007511	0.079143
O6	O	0.867221	0.121067	0.079144
O7	O	1.111003	0.107689	0.079140
Zn8	Zn	0.989109	0.114377	0.104279
Zn9	Zn	0.989130	0.114387	-0.104316
O10	O	0.982448	0.236267	0.079141
C11	C	0.836033	0.120527	-0.000016
C12	C	0.743080	0.118894	-0.000015
C13	C	0.405341	0.112893	-0.000025
C14	C	0.428654	0.205697	-0.000379
C15	C	0.525329	0.207461	-0.000019
C16	C	0.572897	0.115871	-0.000021
C17	C	0.543787	0.069469	0.090386
C18	C	0.446996	0.068352	0.090457
C19	C	0.447158	0.066465	-0.089584
C20	C	0.543651	0.069904	-0.090774
C21	C	0.667593	0.117549	-0.000015
C22	C	0.310646	0.111212	-0.000025
C23	C	0.995232	-0.038702	-0.000020
C24	C	0.993580	-0.131652	-0.000025
C25	C	0.987648	-0.469398	-0.000022
C26	C	0.896094	-0.421945	-0.000375
C27	C	0.897746	-0.325255	-0.000018
C28	C	0.990591	-0.301838	-0.000024
C29	C	1.035740	-0.342929	0.090383
C30	C	1.033440	-0.439565	0.090458
C31	C	1.035349	-0.439914	-0.089583
C32	C	1.035327	-0.342969	-0.090777
C33	C	0.992259	-0.207141	-0.000022
C34	C	0.985983	-0.564095	-0.000017
C35	C	1.142206	0.108237	-0.000024
C36	C	1.235159	0.109870	-0.000031
C37	C	0.983006	0.267466	-0.000020
C38	C	0.984658	0.360416	-0.000021
N39	N	0.989101	0.114370	0.246639
N40	N	0.989144	0.114388	-0.246677
C41	C	1.046043	0.057459	0.296457
C42	C	1.046049	0.057458	0.396115
C43	C	0.989116	0.114373	0.445953
C44	C	0.932168	0.171287	0.396129
C45	C	0.932159	0.171283	0.296473
C46	C	0.932192	0.171293	0.603843
C47	C	0.932202	0.171299	0.703506
C48	C	1.046082	0.057468	0.703485
C49	C	1.046073	0.057464	0.603829
C50	C	0.989126	0.114379	0.554011
H51	H	0.418838	0.095476	-0.158106
H52	H	0.862004	-0.297386	0.064900
H53	H	1.092436	0.011124	0.563251
H54	H	0.885840	0.217644	0.744079
C55	C	0.849791	-0.286841	-0.087562
C56	C	0.895445	-0.237285	-0.161492
C57	C	0.847483	-0.198878	-0.249037
C58	C	0.753866	-0.210027	-0.262651
C59	C	0.708207	-0.259586	-0.188719
C60	C	0.756170	-0.297993	-0.101174
H61	H	0.964751	-0.229029	-0.151416
H62	H	0.881284	-0.162191	-0.303767
H63	H	0.718362	-0.181596	-0.327457
H64	H	0.638902	-0.267842	-0.198795
H65	H	0.722369	-0.334680	-0.046445
C66	C	1.126799	-0.322245	-0.098167
C67	C	1.155086	-0.274532	-0.185525
C68	C	1.246562	-0.253812	-0.192908
C69	C	1.309751	-0.280805	-0.112932
C70	C	1.281465	-0.328521	-0.025568
C71	C	1.189989	-0.349241	-0.018185
H72	H	1.108309	-0.254548	-0.244733
H73	H	1.267501	-0.218490	-0.257581
H74	H	1.377468	-0.265467	-0.118398
H75	H	1.328242	-0.348506	0.033640
H76	H	1.169050	-0.384564	0.046488
C77	C	1.124240	-0.483160	0.096016
C78	C	1.180237	-0.466905	0.181682
C79	C	1.271033	-0.510497	0.187249
C80	C	1.305833	-0.570344	0.107151
C81	C	1.249835	-0.586602	0.021478
C82	C	1.159038	-0.543010	0.015911
H83	H	1.154477	-0.422600	0.240982
H84	H	1.312487	-0.498461	0.250670
H85	H	1.373046	-0.602614	0.111272
H86	H	1.275595	-0.630907	-0.037821
H87	H	1.117585	-0.555045	-0.047510
C88	C	1.108672	-0.005150	0.241640
C89	C	1.171303	-0.067755	0.296444
C90	C	1.233931	-0.130368	0.241630
C91	C	1.233929	-0.130377	0.132013
C92	C	1.171295	-0.067771	0.077203
C93	C	1.108667	-0.005157	0.132016
H94	H	1.171307	-0.067750	0.377595
H95	H	1.280297	-0.176713	0.282205
H96	H	1.280290	-0.176727	0.091436
H97	H	1.171291	-0.067775	-0.003948
H98	H	1.062302	0.041188	0.091442
H99	H	1.092450	0.011126	0.744052
H100	H	1.092415	0.011117	0.436675
H101	H	0.885817	0.217637	0.563285
H102	H	0.399629	0.241267	0.064091
C103	C	0.568750	0.115536	-0.181133
C104	C	0.547027	0.082537	-0.280028
C105	C	0.572135	0.128169	-0.370386
C106	C	0.618966	0.206800	-0.361847
C107	C	0.640692	0.239803	-0.262948
C108	C	0.615584	0.194172	-0.172591
H109	H	0.512358	0.024326	-0.286353
H110	H	0.556052	0.103737	-0.443597
H111	H	0.637553	0.240580	-0.428735
H112	H	0.675362	0.298015	-0.256624
H113	H	0.631668	0.218603	-0.099379
C114	C	0.993359	-0.304595	0.181281
C115	C	0.917847	-0.236061	0.173662
C116	C	0.875460	-0.197729	0.264557
C117	C	0.908587	-0.227930	0.363071
C118	C	0.984103	-0.296467	0.370693
C119	C	1.026490	-0.334800	0.279798
H120	H	0.893321	-0.213701	0.100733
H121	H	0.819558	-0.146993	0.258914
H122	H	0.877210	-0.199554	0.430357
H123	H	1.008629	-0.318827	0.443623
H124	H	1.082392	-0.385536	0.285442
C125	C	0.869523	0.233888	0.241670
C126	C	0.806927	0.296523	0.296487
C127	C	0.744285	0.359127	0.241687
C128	C	0.744241	0.359096	0.132069
C129	C	0.806840	0.296458	0.077246
C130	C	0.869481	0.233854	0.132047
H131	H	0.806958	0.296548	0.377638
H132	H	0.697946	0.405496	0.282271
H133	H	0.697870	0.405439	0.091503
H134	H	0.806809	0.296433	-0.003905
H135	H	0.915820	0.187486	0.091463
H136	H	0.544362	0.243796	-0.064828
H137	H	1.005422	-0.460445	-0.158106
H138	H	0.859656	-0.441534	0.064097
H139	H	0.400664	0.241471	-0.065214
H140	H	0.543726	0.244014	0.064898
H141	H	0.576622	0.003053	-0.096236
H142	H	0.859507	-0.440466	-0.065208
C143	C	0.988936	-0.464290	0.181751
C144	C	0.955733	-0.396137	0.254080
C145	C	0.911225	-0.420857	0.345373
C146	C	0.899920	-0.513729	0.364338
C147	C	0.933123	-0.581888	0.292008
C148	C	0.977631	-0.557168	0.200714
H149	H	0.964102	-0.327383	0.240042
H150	H	0.886646	-0.370401	0.398916
H151	H	0.866972	-0.532028	0.431918
H152	H	0.924754	-0.650642	0.306045
H153	H	1.002210	-0.607624	0.147171
H154	H	0.420173	0.100482	0.158039
H155	H	0.432445	0.000307	0.094563
H156	H	1.103950	-0.328818	0.093741
H157	H	0.575655	0.002070	0.093746
H158	H	1.002317	-0.315710	-0.157658
C159	C	0.570866	0.112991	0.181284
C160	C	0.619355	0.190571	0.173666
C161	C	0.646431	0.234098	0.264562
C162	C	0.625019	0.200046	0.363075
C163	C	0.576528	0.122462	0.370697
C164	C	0.549452	0.078934	0.279801
H165	H	0.635208	0.215782	0.100737
H166	H	0.682328	0.291532	0.258919
H167	H	0.645063	0.232268	0.430361
H168	H	0.560675	0.097250	0.443626
H169	H	0.513555	0.021501	0.285444
H170	H	0.433165	-0.001845	-0.090196
H171	H	0.885808	0.217626	0.436713
H172	H	1.102851	-0.471689	-0.090194
