data_functionalizedCrystal
_audit_creation_method	'MofGen! by Chris Wilmer'
_symmetry_space_group_name_H-M	'P1'
_symmetry_Int_Tables_number	1
_symmetry_cell_setting	triclinic
loop_
_symmetry_equiv_pos_as_xyz
  x,y,z
_cell_length_a	18.101398
_cell_length_b	18.101397
_cell_length_c	11.169409
_cell_angle_alpha	90.039881
_cell_angle_beta	90.028498
_cell_angle_gamma	90.015732
loop_
_atom_site_label
_atom_site_type_symbol
_atom_site_fract_x
_atom_site_fract_y
_atom_site_fract_z
Zn1	Zn	1.132206	-0.294863	0.678757
Zn2	Zn	1.132116	-0.418729	0.478048
Zn3	Zn	1.008356	-0.294896	0.478061
Zn4	Zn	1.008339	-0.418657	0.678662
O5	O	1.070254	-0.356786	0.578382
O6	O	1.235827	-0.311311	0.652167
O7	O	1.115669	-0.402347	0.310100
O8	O	1.024830	-0.191259	0.504730
O9	O	1.235761	-0.402315	0.504707
O10	O	1.115822	-0.191235	0.652180
O11	O	1.024743	-0.311367	0.310110
O12	O	0.904721	-0.311297	0.504638
O13	O	1.024801	-0.402191	0.846625
O14	O	0.904708	-0.402223	0.652018
O15	O	1.115806	-0.311240	0.846695
O16	O	1.115652	-0.522353	0.504614
O17	O	1.024713	-0.522300	0.652005
C18	C	0.877844	-0.356756	0.578320
C19	C	0.795530	-0.356761	0.578321
C20	C	0.496439	-0.356808	0.578422
C21	C	0.527747	-0.299313	0.486147
C22	C	0.613365	-0.299467	0.485753
C23	C	0.644821	-0.356784	0.578372
C24	C	0.613716	-0.434799	0.543807
C25	C	0.528071	-0.434479	0.543166
C26	C	0.528055	-0.336965	0.705480
C27	C	0.613706	-0.335228	0.704786
C28	C	0.728681	-0.356775	0.578346
C29	C	0.412579	-0.356821	0.578445
C30	C	1.070191	-0.549197	0.578324
C31	C	1.070232	-0.631511	0.578339
C32	C	1.070326	-0.930602	0.578449
C33	C	1.127383	-0.899279	0.485466
C34	C	1.127580	-0.813661	0.485707
C35	C	1.070279	-0.782219	0.578394
C36	C	1.091441	-0.813216	0.704904
C37	C	1.091882	-0.898861	0.704397
C38	C	0.991956	-0.899108	0.546016
C39	C	0.992343	-0.813459	0.543193
C40	C	1.070252	-0.698360	0.578370
C41	C	1.070356	-1.014461	0.578481
C42	C	1.263416	-0.356817	0.578446
C43	C	1.345730	-0.356830	0.578473
C44	C	1.070311	-0.356704	0.891425
C45	C	1.070335	-0.356669	1.024825
C46	C	1.070338	-0.163624	0.578467
C47	C	1.070374	-0.081310	0.578503
C48	C	1.070240	-0.356815	0.266558
C49	C	1.070360	-0.356641	0.133158
H50	H	0.634040	-0.277818	0.730849
H51	H	0.634396	-0.241616	0.507419
C52	C	0.642631	-0.387682	0.802647
N53	N	0.664414	-0.427197	0.876352
C54	C	0.970779	-0.786092	0.417424
N55	N	0.954538	-0.765472	0.322697
C56	C	1.206008	-0.785908	0.514690
N57	N	1.265083	-0.765005	0.536520
H58	H	0.507167	-0.241285	0.507575
H59	H	0.633817	-0.312585	0.391605
H60	H	0.972705	-0.920776	0.455364
C61	C	0.500701	-0.393536	0.798365
N62	N	0.480092	-0.436146	0.868317
C63	C	1.109667	-0.785352	0.358990
N64	N	1.096167	-0.764033	0.263544
H65	H	1.114303	-0.919931	0.391380
H66	H	1.051155	-0.792846	0.776046
C67	C	0.641252	-0.494227	0.631748
N68	N	0.661996	-0.538987	0.697983
H69	H	0.635130	-0.451916	0.451925
H70	H	0.506475	-0.281067	0.736904
H71	H	0.506196	-0.312283	0.392546
C72	C	0.500089	-0.494315	0.629994
N73	N	0.479017	-0.539385	0.695387
H74	H	1.185118	-0.920750	0.506679
H75	H	1.149168	-0.918782	0.731869
C76	C	0.501033	-0.457201	0.417678
N77	N	0.480671	-0.474313	0.323155
C78	C	1.038187	-0.926850	0.801195
N79	N	0.997750	-0.947928	0.874110
H80	H	1.148085	-0.791710	0.732839
C81	C	0.931820	-0.784554	0.627982
N82	N	0.886235	-0.762783	0.691855
C83	C	0.934524	-0.926475	0.637502
N84	N	0.891272	-0.947093	0.706412
