data_functionalizedCrystal
_audit_creation_method	'MofGen! by Chris Wilmer'
_symmetry_space_group_name_H-M	'P1'
_symmetry_Int_Tables_number	1
_symmetry_cell_setting	triclinic
loop_
_symmetry_equiv_pos_as_xyz
  x,y,z
_cell_length_a	12.759395
_cell_length_b	13.897441
_cell_length_c	12.759394
_cell_angle_alpha	90.028575
_cell_angle_beta	89.983626
_cell_angle_gamma	89.982636
loop_
_atom_site_label
_atom_site_type_symbol
_atom_site_fract_x
_atom_site_fract_y
_atom_site_fract_z
Zn1	Zn	1.606235	-0.545357	0.418200
Zn2	Zn	2.106235	-0.045357	0.918200
Zn3	Zn	1.606135	-0.384061	0.593908
Zn4	Zn	2.106135	0.115939	1.093908
Zn5	Zn	1.430543	-0.384078	0.418248
Zn6	Zn	1.930543	0.115922	0.918248
Zn7	Zn	1.430525	-0.545317	0.593842
Zn8	Zn	1.930525	-0.045317	1.093842
O9	O	1.518360	-0.464703	0.506049
O10	O	2.018360	0.035297	1.006049
O11	O	1.753243	-0.523970	0.441515
O12	O	2.253243	-0.023970	0.941515
O13	O	1.582808	-0.249081	0.570653
O14	O	2.082808	0.250919	1.070653
O15	O	1.453898	-0.405496	0.271220
O16	O	1.953898	0.094504	0.771220
O17	O	1.753169	-0.405466	0.570607
O18	O	2.253169	0.094534	1.070607
O19	O	1.582978	-0.523987	0.271185
O20	O	2.082978	-0.023987	0.771185
O21	O	1.453801	-0.249094	0.441597
O22	O	1.953801	0.250906	0.941597
O23	O	1.283519	-0.405458	0.441534
O24	O	1.783519	0.094542	0.941534
O25	O	1.453868	-0.680304	0.570496
O26	O	1.953868	-0.180304	1.070496
O27	O	1.283506	-0.523919	0.570542
O28	O	1.783506	-0.023919	1.070542
O29	O	1.582961	-0.680333	0.441452
O30	O	2.082961	-0.180333	0.941452
O31	O	1.582791	-0.405428	0.740920
O32	O	2.082791	0.094572	1.240920
O33	O	1.453771	-0.523902	0.740872
O34	O	1.953771	-0.023902	1.240872
C35	C	1.245392	-0.464687	0.506037
C36	C	1.745392	0.035313	1.006037
C37	C	1.128615	-0.464702	0.506056
C38	C	1.628615	0.035298	1.006056
C39	C	1.128640	-0.587857	0.640610
C40	C	1.628640	-0.087857	1.140610
C41	C	1.073792	-0.649436	0.707895
C42	C	1.573792	-0.149436	1.207895
C43	C	0.964071	-0.649448	0.707908
C44	C	1.464071	-0.149448	1.207908
C45	C	0.909195	-0.587876	0.640626
C46	C	1.409195	-0.087876	1.140626
C47	C	0.964043	-0.526296	0.573341
C48	C	1.464043	-0.026296	1.073341
C49	C	1.073767	-0.526289	0.573338
C50	C	1.573767	-0.026289	1.073338
C51	C	0.964018	-0.403148	0.438784
C52	C	1.464018	0.096852	0.938784
C53	C	1.073739	-0.403130	0.438775
C54	C	1.573739	0.096870	0.938775
C55	C	0.909142	-0.341575	0.371502
C56	C	1.409142	0.158425	0.871502
C57	C	0.963990	-0.279989	0.304220
C58	C	1.463990	0.220011	0.804220
C59	C	1.073719	-0.279979	0.304211
C60	C	1.573719	0.220021	0.804211
C61	C	1.128588	-0.341550	0.371489
C62	C	1.628588	0.158450	0.871489
C63	C	1.518424	-0.716296	0.505961
C64	C	2.018424	-0.216296	1.005961
C65	C	1.518451	-0.823510	0.505924
C66	C	2.018451	-0.323510	1.005924
C67	C	1.518473	-0.910580	0.505894
C68	C	2.018473	-0.410580	1.005894
C69	C	1.518503	-1.019813	0.505847
C70	C	2.018503	-0.519813	1.005847
C71	C	1.792393	-0.464720	0.506063
C72	C	2.292393	0.035280	1.006063
C73	C	1.909170	-0.464728	0.506069
C74	C	2.409170	0.035272	1.006069
C75	C	1.518296	-0.464680	0.779017
C76	C	2.018296	0.035320	1.279017
C77	C	1.518366	-0.464702	0.895794
C78	C	2.018366	0.035298	1.395794
C79	C	1.518356	-0.214089	0.506061
C80	C	2.018356	0.285911	1.006061
C81	C	1.518532	-0.106875	0.505803
C82	C	2.018532	0.393125	1.005803
C83	C	1.518451	-0.464748	0.232016
C84	C	2.018451	0.035252	0.732016
C85	C	1.518491	-0.464767	0.115239
C86	C	2.018491	0.035233	0.615239
C87	C	1.652815	-0.341427	0.895790
C88	C	2.152815	0.158573	1.395790
C89	C	1.720067	-0.279801	0.950649
C90	C	2.220067	0.220199	1.450649
C91	C	1.720128	-0.279828	1.060371
C92	C	2.220128	0.220172	1.560371
C93	C	1.652933	-0.341489	1.115236
C94	C	2.152933	0.158511	1.615236
C95	C	1.585681	-0.403115	1.060377
C96	C	2.085681	0.096885	1.560377
C97	C	1.585624	-0.403080	0.950653
C98	C	2.085624	0.096920	1.450653
C99	C	1.451239	-0.526393	1.060380
C100	C	1.951239	-0.026393	1.560380
C101	C	1.451170	-0.526363	0.950659
C102	C	1.951170	-0.026363	1.450659
C103	C	1.384043	-0.588054	1.115245
C104	C	1.884043	-0.088054	1.615245
C105	C	1.316785	-0.649676	1.060386
C106	C	1.816785	-0.149676	1.560386
C107	C	1.316725	-0.649647	0.950658
C108	C	1.816725	-0.149647	1.450658
C109	C	1.383918	-0.587989	0.895800
C110	C	1.883918	-0.087989	1.395800
H111	H	0.819854	-0.587899	0.640634
H112	H	1.319854	-0.087899	1.140634
F113	F	1.384099	-0.588172	0.779024
F114	F	1.884099	-0.088172	1.279024
F115	F	1.245285	-0.715298	1.118783
F116	F	1.745285	-0.215298	1.618783
H117	H	1.217981	-0.587846	0.640614
H118	H	1.717981	-0.087846	1.140614
F119	F	0.905695	-0.714993	0.779515
F120	F	1.405695	-0.214993	1.279515
H121	H	0.819801	-0.341593	0.371513
H122	H	1.319801	0.158407	0.871513
F123	F	1.383763	-0.587760	1.232020
F124	F	1.883763	-0.087760	1.732020
F125	F	1.245150	-0.715244	0.892281
F126	F	1.745150	-0.215244	1.392281
H127	H	0.919302	-0.229866	0.249440
H128	H	1.419302	0.270134	0.749440
H129	H	1.652758	-0.341387	0.806449
H130	H	2.152758	0.158613	1.306449
F131	F	1.132202	-0.714958	0.779503
F132	F	1.632202	-0.214958	1.279503
F133	F	1.132084	-0.214441	0.232590
F134	F	1.632084	0.285559	0.732590
H135	H	1.217929	-0.341545	0.371491
H136	H	1.717929	0.158455	0.871491
H137	H	1.774779	-0.229599	0.905969
H138	H	2.274779	0.270401	1.405969
F139	F	1.791709	-0.214243	1.118757
F140	F	2.291709	0.285757	1.618757
H141	H	1.652998	-0.341513	1.204577
H142	H	2.152998	0.158487	1.704577
