data_functionalizedCrystal
_audit_creation_method	'MofGen! by Chris Wilmer'
_symmetry_space_group_name_H-M	'P1'
_symmetry_Int_Tables_number	1
_symmetry_cell_setting	triclinic
loop_
_symmetry_equiv_pos_as_xyz
  x,y,z
_cell_length_a	16.120530
_cell_length_b	12.594516
_cell_length_c	16.120297
_cell_angle_alpha	87.122232
_cell_angle_beta	89.871860
_cell_angle_gamma	87.111852
loop_
_atom_site_label
_atom_site_type_symbol
_atom_site_fract_x
_atom_site_fract_y
_atom_site_fract_z
Zn1	Zn	1.247493	-0.539249	0.534603
Zn2	Zn	1.254461	-0.708692	0.395557
Zn3	Zn	1.115482	-0.521263	0.388519
Zn4	Zn	1.108417	-0.707712	0.527526
O5	O	1.181463	-0.619229	0.461551
O6	O	1.364785	-0.569664	0.522065
O7	O	1.241897	-0.676712	0.278258
O8	O	1.133034	-0.374707	0.407914
O9	O	1.369904	-0.694153	0.419909
O10	O	1.230022	-0.387921	0.515241
O11	O	1.139790	-0.539009	0.273087
O12	O	0.998178	-0.538058	0.401052
O13	O	1.120993	-0.692482	0.644831
O14	O	0.992987	-0.675042	0.503180
O15	O	1.223172	-0.568713	0.650030
O16	O	1.235047	-0.857504	0.413047
O17	O	1.127749	-0.856784	0.510004
C18	C	0.965410	-0.604493	0.450585
C19	C	0.872980	-0.598215	0.445913
C20	C	0.703749	-0.586730	0.437391
C21	C	0.660015	-0.651810	0.485772
C22	C	0.565849	-0.645420	0.481031
C23	C	0.797924	-0.593119	0.442132
C24	C	1.181409	-0.895766	0.461540
C25	C	1.181461	-1.014076	0.461567
C26	C	1.123098	-1.082974	0.514263
C27	C	1.106686	-1.147787	0.437359
C28	C	1.197948	-1.160068	0.538488
C29	C	1.165010	-1.077326	0.384621
C30	C	1.256305	-1.089606	0.485803
C31	C	1.239924	-1.154387	0.408848
C32	C	1.398360	-0.634024	0.472561
C33	C	1.490789	-0.640328	0.477253
C34	C	1.170517	-0.632495	0.678446
C35	C	1.165853	-0.638148	0.770874
C36	C	1.181539	-0.341615	0.461582
C37	C	1.181572	-0.223313	0.461595
C38	C	1.192414	-0.605942	0.245502
C39	C	1.197240	-0.600000	0.153083
C40	C	1.157306	-0.648443	0.940100
C41	C	1.205784	-0.589708	0.983863
C42	C	1.201029	-0.595436	1.078026
C43	C	1.162061	-0.642716	0.845928
H44	H	1.073662	-1.051620	0.558754
H45	H	1.112236	-0.703026	0.973349
O46	O	1.298763	-1.191674	0.355581
C47	C	1.260716	-1.248291	0.294002
H48	H	1.198854	-1.277130	0.318237
H49	H	1.302982	-1.319646	0.277958
H50	H	1.249546	-1.193883	0.236018
O51	O	0.664023	-0.514685	0.383637
C52	C	0.616451	-0.568555	0.327388
H53	H	0.642946	-0.653796	0.323441
H54	H	0.618569	-0.525954	0.263386
H55	H	0.549371	-0.569474	0.349852
H56	H	0.693293	-0.712326	0.530755
O57	O	1.031178	-1.178486	0.413045
C58	C	0.969763	-1.142093	0.468738
H59	H	0.999716	-1.128123	0.530989
H60	H	0.921198	-1.204362	0.477928
H61	H	0.938714	-1.064368	0.442334
H62	H	1.151036	-1.041305	0.319560
O63	O	1.259585	-0.524500	0.944332
C64	C	1.303745	-0.471038	1.003569
H65	H	1.266618	-0.468714	1.063777
H66	H	1.313895	-0.386286	0.978843
H67	H	1.366430	-0.514883	1.015987
O68	O	1.331701	-1.058889	0.510417
C69	C	1.348792	-1.101201	0.591565
H70	H	1.288038	-1.119321	0.624403
H71	H	1.382715	-1.040868	0.627504
H72	H	1.389441	-1.177626	0.588407
O73	O	1.214437	-1.203060	0.616136
C74	C	1.152679	-1.166655	0.671463
H75	H	1.122228	-1.088507	0.645182
H76	H	1.182144	-1.153464	0.734097
H77	H	1.103728	-1.228555	0.679850
