data_functionalizedCrystal
_audit_creation_method	'MofGen! by Chris Wilmer'
_symmetry_space_group_name_H-M	'P1'
_symmetry_Int_Tables_number	1
_symmetry_cell_setting	triclinic
loop_
_symmetry_equiv_pos_as_xyz
  x,y,z
_cell_length_a	18.050589
_cell_length_b	18.050591
_cell_length_c	21.395355
_cell_angle_alpha	89.979262
_cell_angle_beta	90.012902
_cell_angle_gamma	89.971884
loop_
_atom_site_label
_atom_site_type_symbol
_atom_site_fract_x
_atom_site_fract_y
_atom_site_fract_z
Zn1	Zn	-0.295748	-1.135363	0.354222
Zn2	Zn	0.204252	-0.635363	0.854222
Zn3	Zn	-0.419919	-1.135253	0.249455
Zn4	Zn	0.080081	-0.635253	0.749455
Zn5	Zn	-0.295747	-1.011161	0.249466
Zn6	Zn	0.204253	-0.511161	0.749466
Zn7	Zn	-0.419900	-1.011130	0.354202
Zn8	Zn	0.080100	-0.511130	0.854202
O9	O	-0.357829	-1.073227	0.301836
O10	O	0.142171	-0.573227	0.801836
O11	O	-0.312227	-1.239273	0.340328
O12	O	0.187773	-0.739273	0.840328
O13	O	-0.403456	-1.118759	0.161778
O14	O	0.096544	-0.618759	0.661778
O15	O	-0.191823	-1.027696	0.263375
O16	O	0.308177	-0.527696	0.763375
O17	O	-0.403456	-1.239192	0.263356
O18	O	0.096544	-0.739192	0.763356
O19	O	-0.191823	-1.118947	0.340339
O20	O	0.308177	-0.618947	0.840339
O21	O	-0.312227	-1.027589	0.161786
O22	O	0.187773	-0.527589	0.661786
O23	O	-0.312208	-0.907233	0.263355
O24	O	0.187792	-0.407233	0.763355
O25	O	-0.403423	-1.027643	0.441883
O26	O	0.096577	-0.527643	0.941883
O27	O	-0.403423	-0.907210	0.340305
O28	O	0.096577	-0.407210	0.840305
O29	O	-0.312209	-1.118916	0.441897
O30	O	0.187791	-0.618916	0.941897
O31	O	-0.523841	-1.118729	0.263337
O32	O	-0.023841	-0.618729	0.763337
O33	O	-0.523827	-1.027536	0.340294
O34	O	-0.023827	-0.527536	0.840294
C35	C	-0.357814	-0.880275	0.301829
C36	C	0.142186	-0.380275	0.801829
C37	C	-0.357826	-0.797729	0.301841
C38	C	0.142174	-0.297729	0.801841
C39	C	-0.407535	-0.548912	0.343627
C40	C	0.092465	-0.048912	0.843627
C41	C	-0.425599	-0.598271	0.286440
C42	C	0.074401	-0.098271	0.786440
C43	C	-0.357854	-0.500609	0.301838
C44	C	0.142146	-0.000609	0.801838
C45	C	-0.339811	-0.598332	0.359024
C46	C	0.160189	-0.098332	0.859024
C47	C	-0.357842	-0.646594	0.301843
C48	C	0.142158	-0.146594	0.801843
C49	C	-0.375953	-0.548880	0.244620
C50	C	0.124047	-0.048880	0.744620
C51	C	-0.290134	-0.548936	0.317242
C52	C	0.209866	-0.048936	0.817242
C53	C	-0.308172	-0.598273	0.260016
C54	C	0.191828	-0.098273	0.760016
C55	C	-0.357863	-0.416510	0.301836
C56	C	0.142137	0.083490	0.801836
C57	C	-0.357833	-0.730690	0.301838
C58	C	0.142167	-0.230690	0.801838
C59	C	-0.550781	-1.073137	0.301826
C60	C	-0.050781	-0.573137	0.801826
C61	C	-0.633327	-1.073167	0.301842
C62	C	-0.133327	-0.573167	0.801842
C63	C	-0.832796	-1.023625	0.343677
C64	C	-0.332796	-0.523625	0.843677
C65	C	-0.882224	-1.005516	0.286505
C66	C	-0.382224	-0.505516	0.786505
C67	C	-0.784457	-1.073240	0.301850
C68	C	-0.284457	-0.573240	0.801850
C69	C	-0.882111	-1.091386	0.359029
C70	C	-0.382111	-0.591386	0.859029
C71	C	-0.930442	-1.073309	0.301863
C72	C	-0.430442	-0.573309	0.801863
C73	C	-0.832797	-1.055095	0.244648
C74	C	-0.332797	-0.555095	0.744648
C75	C	-0.832680	-1.140996	0.317211
C76	C	-0.332680	-0.640996	0.817211
C77	C	-0.882085	-1.122913	0.259999
C78	C	-0.382085	-0.622913	0.759999
C79	C	-0.700359	-1.073198	0.301844
C80	C	-0.200359	-0.573198	0.801844
C81	C	-1.014538	-1.073351	0.301864
C82	C	-0.514538	-0.573351	0.801864
C83	C	-0.164123	-1.073337	0.301860
C84	C	0.335877	-0.573337	0.801860
C85	C	-0.081577	-1.073384	0.301871
C86	C	0.418423	-0.573384	0.801871
C87	C	-0.357814	-1.073289	0.465260
C88	C	0.142186	-0.573289	0.965260
C89	C	-0.357807	-1.073315	0.534901
C90	C	0.142193	-0.573315	1.034901
C91	C	-0.357848	-0.266932	0.301841
C92	C	0.142152	0.233068	0.801841
C93	C	-0.357869	-0.349478	0.301838
C94	C	0.142131	0.150522	0.801838
C95	C	-0.357790	-1.073208	0.139049
C96	C	0.142210	-0.573208	0.639049
C97	C	-0.357587	-1.073326	0.069408
C98	C	0.142413	-0.573326	0.569408
C99	C	-0.310310	-1.120839	0.567623
C100	C	0.189690	-0.620839	1.067623
C101	C	-0.310278	-1.120838	0.633058
C102	C	0.189722	-0.620838	1.133058
C103	C	-0.357757	-1.073321	0.665769
C104	C	0.142243	-0.573321	1.165769
C105	C	-0.405257	-1.025787	0.633039
C106	C	0.094743	-0.525787	1.133039
C107	C	-0.405282	-1.025785	0.567605
C108	C	0.094718	-0.525785	1.067605
C109	C	-0.424626	-1.067426	0.769441
C110	C	0.075374	-0.567426	1.269441
C111	C	-0.424602	-1.067434	0.834874
C112	C	0.075398	-0.567434	1.334874
C113	C	-0.357678	-1.073325	0.867590
C114	C	0.142322	-0.573325	1.367590
C115	C	-0.290777	-1.079224	0.834865
C116	C	0.209223	-0.579224	1.334865
C117	C	-0.290802	-1.079221	0.769431
C118	C	0.209198	-0.579221	1.269431
C119	C	-0.357734	-1.073318	0.736722
C120	C	0.142266	-0.573318	1.236722
C121	C	-0.310142	-1.120851	0.971264
C122	C	0.189858	-0.620851	1.471264
C123	C	-0.310109	-1.120844	1.036701
C124	C	0.189891	-0.620844	1.536701
C125	C	-0.405095	-1.025798	1.036681
C126	C	0.094905	-0.525798	1.536681
C127	C	-0.405121	-1.025800	0.971246
C128	C	0.094879	-0.525800	1.471246
C129	C	-0.357646	-1.073331	0.938541
C130	C	0.142354	-0.573331	1.438541
H131	H	-0.266154	-0.619809	0.224637
H132	H	0.233846	-0.119809	0.724637
H133	H	-0.271651	-1.159541	0.540999
H134	H	0.228349	-0.659541	1.040999
H135	H	-0.479077	-1.062635	0.861513
H136	H	0.020923	-0.562635	1.361513
H137	H	-0.271596	-1.159536	0.659705
H138	H	0.228404	-0.659536	1.159705
N139	N	-0.804124	-0.967974	0.390467
N140	N	-0.304124	-0.467974	0.890467
H141	H	-0.822149	-0.916830	0.378784
H142	H	-0.322149	-0.416830	0.878784
H143	H	-0.748177	-0.968738	0.390395
H144	H	-0.248177	-0.468738	0.890395
H145	H	-0.391278	-0.527250	0.196248
H146	H	0.108722	-0.027250	0.696248
N147	N	-0.214291	-0.520228	0.334511
N148	N	0.285709	-0.020228	0.834511
H149	H	-0.200705	-0.538193	0.377734
H150	H	0.299295	-0.038193	0.877734
H151	H	-0.214771	-0.464282	0.333941
H152	H	0.285229	0.035718	0.833941
H153	H	-0.811226	-1.039708	0.196285
H154	H	-0.311226	-0.539708	0.696285
N155	N	-0.463228	-0.520188	0.390376
N156	N	0.036772	-0.020188	0.890376
H157	H	-0.450129	-0.538948	0.433466
H158	H	0.049871	-0.038948	0.933466
H159	H	-0.514344	-0.538138	0.378603
H160	H	-0.014344	-0.038138	0.878603
H161	H	-0.324556	-0.620053	0.407383
H162	H	0.175444	-0.120053	0.907383
H163	H	-0.236328	-1.084023	0.742790
H164	H	0.263672	-0.584023	1.242790
H165	H	-0.904003	-0.948249	0.273525
H166	H	-0.404003	-0.448249	0.773525
H167	H	-0.443959	-0.987081	0.540964
H168	H	0.056041	-0.487081	1.040964
N169	N	-0.803831	-1.216836	0.334435
N170	N	-0.303831	-0.716836	0.834435
H171	H	-0.821736	-1.230474	0.377653
H172	H	-0.321736	-0.730474	0.877653
H173	H	-0.747887	-1.216308	0.333861
H174	H	-0.247887	-0.716308	0.833861
N175	N	-0.501452	-0.626972	0.269178
N176	N	-0.001452	-0.126972	0.769178
H177	H	-0.521324	-0.658557	0.304352
H178	H	-0.021324	-0.158557	0.804352
H179	H	-0.497782	-0.657710	0.229865
H180	H	0.002218	-0.157710	0.729865
N181	N	-0.910576	-1.178533	0.213106
N182	N	-0.410576	-0.678533	0.713106
H183	H	-0.892540	-1.164759	0.169958
H184	H	-0.392540	-0.664759	0.669958
H185	H	-0.966523	-1.178541	0.213676
H186	H	-0.466523	-0.678541	0.713676
H187	H	-0.903772	-1.106706	0.407379
H188	H	-0.403772	-0.606706	0.907379
N189	N	-0.218588	-1.085586	0.870142
N190	N	0.281412	-0.585586	1.370142
H191	H	-0.228720	-1.084691	0.916559
H192	H	0.271280	-0.584691	1.416559
H193	H	-0.185385	-1.042661	0.858687
H194	H	0.314615	-0.542661	1.358687
H195	H	-0.271481	-1.159548	0.944635
H196	H	0.228519	-0.659548	1.444635
H197	H	-0.443745	-0.987101	1.063314
H198	H	0.056255	-0.487101	1.563314
N199	N	-0.258864	-1.172091	1.071997
N200	N	0.241136	-0.672091	1.571997
H201	H	-0.228793	-1.202197	1.041348
H202	H	0.271207	-0.702197	1.541348
H203	H	-0.289079	-1.206443	1.099165
H204	H	0.210921	-0.706443	1.599165
H205	H	-0.443803	-0.987105	0.944603
H206	H	0.056197	-0.487105	1.444603
N207	N	-0.496813	-1.061081	0.734156
N208	N	0.003187	-0.561081	1.234156
H209	H	-0.539189	-1.057355	0.764814
H210	H	-0.039189	-0.557355	1.264814
H211	H	-0.503712	-1.106330	0.707025
H212	H	-0.003712	-0.606330	1.207025
N213	N	-0.456455	-0.974524	0.668316
N214	N	0.043545	-0.474524	1.168316
H215	H	-0.449231	-0.981735	0.714734
H216	H	0.050769	-0.481735	1.214734
H217	H	-0.509503	-0.986041	0.656889
H218	H	-0.009503	-0.486041	1.156889
