data_functionalizedCrystal
_audit_creation_method	'MofGen! by Chris Wilmer'
_symmetry_space_group_name_H-M	'P1'
_symmetry_Int_Tables_number	1
_symmetry_cell_setting	triclinic
loop_
_symmetry_equiv_pos_as_xyz
  x,y,z
_cell_length_a	13.897448
_cell_length_b	13.897449
_cell_length_c	13.897449
_cell_angle_alpha	90.008641
_cell_angle_beta	90.010270
_cell_angle_gamma	90.018519
loop_
_atom_site_label
_atom_site_type_symbol
_atom_site_fract_x
_atom_site_fract_y
_atom_site_fract_z
Zn1	Zn	-0.384156	1.474562	0.545449
Zn2	Zn	0.115844	1.974562	1.045449
Zn3	Zn	-0.545421	1.474498	0.384151
Zn4	Zn	-0.045421	1.974498	0.884151
Zn5	Zn	-0.384144	1.313293	0.384160
Zn6	Zn	0.115856	1.813293	0.884160
Zn7	Zn	-0.545413	1.313233	0.545396
Zn8	Zn	-0.045413	1.813233	1.045396
O9	O	-0.464784	1.393896	0.464789
O10	O	0.035216	1.893896	0.964789
O11	O	-0.405557	1.609535	0.524071
O12	O	0.094443	2.109535	1.024071
O13	O	-0.524025	1.453112	0.249170
O14	O	-0.024025	1.953112	0.749170
O15	O	-0.249164	1.334738	0.405582
O16	O	0.250836	1.834738	0.905582
O17	O	-0.524037	1.609488	0.405566
O18	O	-0.024037	2.109488	0.905566
O19	O	-0.249173	1.453221	0.524080
O20	O	0.250827	1.953221	1.024080
O21	O	-0.405535	1.334675	0.249177
O22	O	0.094465	1.834675	0.749177
O23	O	-0.405528	1.178303	0.405530
O24	O	0.094472	1.678303	0.905530
O25	O	-0.524025	1.334636	0.680384
O26	O	-0.024025	1.834636	1.180384
O27	O	-0.524012	1.178259	0.523989
O28	O	-0.024012	1.678259	1.023989
O29	O	-0.405550	1.453163	0.680424
O30	O	0.094450	1.953163	1.180424
O31	O	-0.680401	1.453054	0.405514
O32	O	-0.180401	1.953054	0.905514
O33	O	-0.680396	1.334573	0.523980
O34	O	-0.180396	1.834573	1.023980
C35	C	-0.464769	1.143282	0.464755
C36	C	0.035231	1.643282	0.964755
C37	C	-0.464786	1.036068	0.464764
C38	C	0.035214	1.536068	0.964764
C39	C	-0.464789	0.948998	0.464780
C40	C	0.035211	1.448998	0.964780
C41	C	-0.464796	0.839766	0.464809
C42	C	0.035204	1.339766	0.964809
C43	C	-0.715398	1.393826	0.464761
C44	C	-0.215398	1.893826	0.964761
C45	C	-0.822612	1.393884	0.464781
C46	C	-0.322612	1.893884	0.964781
C47	C	-1.018907	1.393985	0.464842
C48	C	-0.518907	1.893985	0.964842
C49	C	-0.909674	1.393926	0.464811
C50	C	-0.409674	1.893926	0.964811
C51	C	-0.213191	1.393993	0.464838
C52	C	0.286809	1.893993	0.964838
C53	C	-0.105977	1.394035	0.464859
C54	C	0.394023	1.894035	0.964859
C55	C	-0.464788	1.393900	0.716382
C56	C	0.035212	1.893900	1.216382
C57	C	-0.464789	1.393902	0.823596
C58	C	0.035211	1.893902	1.323596
C59	C	-0.464799	1.645489	0.464823
C60	C	0.035201	2.145489	0.964823
C61	C	-0.464806	1.752703	0.464838
C62	C	0.035194	2.252703	0.964838
C63	C	-0.464794	1.393877	1.019891
C64	C	0.035206	1.893877	1.519891
C65	C	-0.464794	1.393888	0.910658
C66	C	0.035206	1.893888	1.410658
C67	C	-0.464799	1.393884	1.214175
C68	C	0.035201	1.893884	1.714175
C69	C	-0.464791	1.393876	1.106961
C70	C	0.035209	1.893876	1.606961
