data_functionalizedCrystal
_audit_creation_method	'MofGen! by Chris Wilmer'
_symmetry_space_group_name_H-M	'P1'
_symmetry_Int_Tables_number	1
_symmetry_cell_setting	triclinic
loop_
_symmetry_equiv_pos_as_xyz
  x,y,z
_cell_length_a	31.640172
_cell_length_b	14.395555
_cell_length_c	14.395555
_cell_angle_alpha	60.002011
_cell_angle_beta	90.005983
_cell_angle_gamma	59.999894
loop_
_atom_site_label
_atom_site_type_symbol
_atom_site_fract_x
_atom_site_fract_y
_atom_site_fract_z
Zr1	Zr	0.407196	1.016671	-0.121798
O2	O	0.339709	1.210476	-0.270143
O3	O	0.427882	0.822873	-0.076320
O4	O	0.427885	1.016656	-0.270114
O5	O	0.339706	1.016703	0.076517
O6	O	0.497442	1.016637	-0.270094
O7	O	0.339706	1.016693	-0.076349
O8	O	0.497437	0.669994	0.076568
O9	O	0.339711	1.363346	-0.270145
O10	O	0.488617	0.902568	-0.056912
O11	O	0.436707	0.902590	0.057155
O12	O	0.436710	1.130745	-0.171012
O13	O	0.384801	1.130766	-0.056945
Zr14	Zr	0.518131	1.016656	0.122038
Zr15	Zr	0.518131	1.016641	-0.121765
Zr16	Zr	0.407196	1.016687	0.122005
Zr17	Zr	0.407199	1.260481	-0.121801
Zr18	Zr	0.518128	0.772847	0.122042
O19	O	0.497445	1.210455	0.076560
O20	O	0.497444	1.210433	-0.270097
O21	O	0.339709	1.210499	0.076514
O22	O	0.585619	0.822851	0.270383
O23	O	0.585618	0.822829	-0.076274
O24	O	0.427883	0.822895	0.270337
O25	O	0.585621	1.016625	-0.076277
O26	O	0.497442	1.016672	0.270354
O27	O	0.427885	1.016691	0.270334
O28	O	0.585621	1.016635	0.076589
O29	O	0.427890	1.363321	-0.270119
O30	O	0.497438	0.670006	0.270359
O31	O	0.585616	0.669982	0.270385
O32	O	0.585616	0.669969	0.076594
O33	O	0.339711	1.363358	-0.076354
O34	O	0.427890	1.363334	-0.076328
O35	O	0.488617	0.902583	0.171252
O36	O	0.540527	0.902561	0.057186
O37	O	0.488620	1.130738	-0.056915
O38	O	0.436710	1.130759	0.057152
C39	C	0.462659	0.711696	0.000125
C40	C	0.462658	0.608192	0.000126
C41	C	0.434356	0.547612	0.062324
C42	C	0.413844	0.561867	-0.044956
C43	C	0.483158	0.409541	0.107374
C44	C	0.442117	0.623874	-0.107217
C45	C	0.511458	0.471485	0.045190
C46	C	0.490958	0.485787	-0.062154
C47	C	0.323900	1.016702	0.000079
C48	C	0.276805	1.016715	0.000066
C49	C	0.011894	0.897546	0.059702
C50	C	-0.165091	0.897523	0.059725
O51	O	-0.164934	0.796227	0.110420
N52	N	-0.214316	1.016628	0.000164
C53	C	-0.219293	1.135747	-0.059401
O54	O	-0.265222	1.237052	-0.110051
C55	C	-0.042308	1.135768	-0.059416
C56	C	0.006916	1.016655	0.000140
C57	C	0.061116	0.778442	0.119254
C58	C	0.105359	0.778449	0.119243
C59	C	0.100381	0.897559	0.059680
C60	C	0.051159	1.016662	0.000128
C61	C	-0.047286	1.254886	-0.118973
C62	C	-0.003035	1.254881	-0.118969
C63	C	0.046189	1.135768	-0.059414
C64	C	0.090424	1.135779	-0.059446
N65	N	0.139648	1.016674	0.000115
C66	C	0.144627	0.897564	0.059678
C67	C	-0.312210	1.135727	-0.059390
C68	C	-0.356456	1.135722	-0.059388
C69	C	-0.302251	0.897498	0.059739
C70	C	-0.258005	0.897504	0.059730
C71	C	-0.262986	1.016622	0.000171
C72	C	0.237539	0.897588	0.059649
C73	C	0.281784	0.897605	0.059629
C74	C	0.227575	1.135829	-0.059494
C75	C	0.183334	1.135812	-0.059479
C76	C	0.188319	1.016681	0.000101
O77	O	0.090306	1.237022	-0.110103
O78	O	0.190560	0.796274	0.110341
C79	C	-0.032349	0.897539	0.059714
C80	C	-0.081571	1.016642	0.000162
C81	C	-0.086550	1.135752	-0.059401
C82	C	-0.125817	1.016637	0.000164
C83	C	-0.120839	0.897527	0.059727
C84	C	-0.071614	0.778422	0.119288
C85	C	-0.027371	0.778429	0.119277
C86	C	-0.135774	1.254857	-0.118961
C87	C	-0.180015	1.254840	-0.118946
C88	C	-0.175037	1.135730	-0.059384
C89	C	0.601427	1.016625	0.000161
C90	C	0.648522	1.016612	0.000175
C91	C	0.462663	1.016644	-0.304841
C92	C	0.462663	1.016638	-0.408341
C93	C	0.462668	1.321632	0.000116
C94	C	0.462669	1.425135	0.000114
C95	C	0.490967	0.892248	-0.468639
C96	C	0.511485	0.954402	-0.437761
C97	C	0.442169	0.954452	-0.437828
C98	C	0.483210	1.078844	-0.561904
C99	C	0.413867	1.078877	-0.561968
C100	C	0.434373	1.141121	-0.531163
C101	C	0.462664	1.016683	0.305081
C102	C	0.462664	1.016690	0.408582
C103	C	0.601423	0.711657	0.000165
C104	C	0.648516	0.608141	0.000181
C105	C	0.462660	0.711715	0.305085
C106	C	0.462658	0.608218	0.408588
C107	C	0.601423	0.711677	0.305126
C108	C	0.648517	0.608167	0.408642
C109	C	0.323904	1.321651	-0.304886
C110	C	0.276810	1.425161	-0.408402
C111	C	0.323904	1.321670	0.000075
C112	C	0.276811	1.425187	0.000060
C113	C	0.462667	1.321612	-0.304845
C114	C	0.462669	1.425109	-0.408348
C115	C	0.643536	0.559532	-0.059380
C116	C	0.687781	0.462281	-0.059388
C117	C	0.737006	0.413633	0.000171
C118	C	0.741986	0.462252	0.059734
C119	C	0.697741	0.559508	0.059735
C120	C	0.697733	0.559546	0.397713
C121	C	0.741987	0.462301	0.494968
C122	C	0.737023	0.413672	0.603151
C123	C	0.687801	0.462303	0.614079
C124	C	0.643549	0.559552	0.516825
C125	C	0.227594	1.473793	-0.397473
C126	C	0.183340	1.571068	-0.494728
C127	C	0.188304	1.619702	-0.602911
C128	C	0.237526	1.571066	-0.613838
C129	C	0.281778	1.473799	-0.516584
C130	C	0.281792	1.473806	0.059610
C131	C	0.237546	1.571084	0.059591
C132	C	0.188321	1.619735	0.000028
C133	C	0.183341	1.571112	-0.059529
C134	C	0.227586	1.473842	-0.059517
C135	C	0.434353	0.547641	0.406966
C136	C	0.483163	0.409533	0.499999
C137	C	0.413863	0.561884	0.499984
C138	C	0.511497	0.471410	0.500258
C139	C	0.442161	0.623836	0.500228
C140	C	0.491001	0.485736	0.593279
H141	H	0.552714	0.434309	0.083342
H142	H	0.241561	1.610677	-0.701933
H143	H	0.552753	0.901798	-0.384240
H144	H	0.773029	0.334440	0.000162
C145	C	0.335936	1.420315	0.125132
N146	N	0.376716	1.380037	0.174481
C147	C	0.506696	1.149825	-0.633959
N148	N	0.524387	1.203280	-0.688229
C149	C	0.335916	1.420299	-0.528626
N150	N	0.376692	1.380004	-0.537704
C151	C	-0.234161	1.385883	-0.184469
N152	N	-0.274941	1.484582	-0.233811
C153	C	-0.008520	1.385924	-0.184496
N154	N	-0.012652	1.484626	-0.233854
C155	C	0.402068	0.584239	0.299204
N156	N	0.377754	0.611802	0.218037
C157	C	0.418632	0.747576	-0.229810
N158	N	0.400941	0.840751	-0.322145
H159	H	0.223542	1.434200	-0.309393
C160	C	0.358130	1.149874	-0.634276
N161	N	0.316148	1.203337	-0.688736
H162	H	0.143253	1.232804	-0.107988
H163	H	0.143256	1.610738	-0.108024
H164	H	0.241611	1.610656	0.108095
H165	H	0.410443	1.246395	-0.556788
H166	H	0.514891	0.458834	-0.114831
C167	C	0.243031	0.766537	0.125181
N168	N	0.247167	0.667830	0.174531
H169	H	0.500490	0.317934	0.198076
C170	C	0.026772	0.647394	0.184799
N171	N	0.067551	0.548691	0.234157
C172	C	0.139655	1.726729	0.000032
N173	N	0.103002	1.807313	0.000043
C174	C	0.222098	1.420357	-0.125016
N175	N	0.217961	1.380074	-0.174352
H176	H	0.603458	0.599140	-0.107894
H177	H	0.701804	0.599073	0.108243
C178	C	0.506588	0.285746	0.501270
N179	N	0.524228	0.192515	0.502221
C180	C	0.129201	1.624548	-0.482682
N181	N	0.088425	1.664826	-0.473606
H182	H	0.410390	0.574848	0.114844
C183	C	0.358110	0.612147	0.501192
N184	N	0.316117	0.650005	0.502094
H185	H	0.552785	0.434024	0.499446
C186	C	-0.317699	1.266776	-0.124930
N187	N	-0.321836	1.365483	-0.174303
H188	H	0.603476	0.599127	0.525739
C189	C	0.159502	0.647415	0.184770
N190	N	0.200281	0.548712	0.234133
H191	H	0.372578	0.599061	-0.083082
C192	C	0.523386	0.449207	0.700869
N193	N	0.547781	0.421685	0.781908
H194	H	-0.087360	1.351881	-0.167468
H195	H	0.424806	0.715494	0.499236
C196	C	0.703206	0.613027	0.278720
N197	N	0.707333	0.653310	0.189096
H198	H	0.782071	0.422629	0.108225
C199	C	-0.066146	0.647400	0.184809
N200	N	-0.062032	0.548721	0.234163
C201	C	-0.203861	0.766472	0.125253
N202	N	-0.163081	0.667773	0.174612
H203	H	0.321864	0.800605	0.108129
C204	C	0.796126	0.408814	0.482923
N205	N	0.836902	0.368527	0.473847
C206	C	0.139619	1.726689	-0.709883
N207	N	0.102948	1.807265	-0.790451
H208	H	0.683767	0.422694	0.702175
C209	C	-0.141260	1.385895	-0.184501
N210	N	-0.145396	1.484601	-0.233879
C211	C	0.523343	0.750158	-0.434345
N212	N	0.547731	0.643142	-0.408526
H213	H	0.065178	0.681443	0.167763
H214	H	-0.298205	0.800514	0.108231
C215	C	0.785708	0.306685	0.710124
N216	N	0.822379	0.226096	0.790691
H217	H	-0.396534	1.232716	-0.107899
H218	H	0.223530	1.232805	-0.107992
H219	H	0.683716	0.422707	-0.107891
H220	H	0.424835	0.901843	-0.384342
