data_functionalizedCrystal
_audit_creation_method	'MofGen! by Chris Wilmer'
_symmetry_space_group_name_H-M	'P1'
_symmetry_Int_Tables_number	1
_symmetry_cell_setting	triclinic
loop_
_symmetry_equiv_pos_as_xyz
  x,y,z
_cell_length_a	10.654550
_cell_length_b	16.109301
_cell_length_c	14.586319
_cell_angle_alpha	89.999213
_cell_angle_beta	89.999536
_cell_angle_gamma	96.026795
loop_
_atom_site_label
_atom_site_type_symbol
_atom_site_fract_x
_atom_site_fract_y
_atom_site_fract_z
O1	O	-0.161419	1.104091	-0.076174
O2	O	0.171914	1.437424	0.257160
O3	O	0.505248	1.770757	0.590493
O4	O	-0.181507	0.862148	-0.076187
O5	O	0.151826	1.195481	0.257146
O6	O	0.485159	1.528815	0.590480
O7	O	0.011352	0.988682	-0.076184
O8	O	0.344685	1.322015	0.257149
O9	O	0.678018	1.655349	0.590483
O10	O	-0.354278	0.977557	-0.076177
O11	O	-0.020944	1.310890	0.257156
O12	O	0.312389	1.644223	0.590490
O13	O	0.011354	0.988673	0.076297
O14	O	0.344688	1.322006	0.409630
O15	O	0.678021	1.655340	0.742964
O16	O	-0.181504	0.862139	0.076294
O17	O	0.151829	1.195472	0.409627
O18	O	0.485162	1.528806	0.742960
O19	O	-0.161416	1.104082	0.076307
O20	O	0.171917	1.437415	0.409641
O21	O	0.505251	1.770748	0.742974
Cu22	Cu	-0.171460	0.983110	0.090223
Cu23	Cu	0.161873	1.316443	0.423556
Cu24	Cu	0.495207	1.649776	0.756890
Cu25	Cu	-0.171463	0.983120	-0.090103
Cu26	Cu	0.161870	1.316453	0.243230
Cu27	Cu	0.495203	1.649787	0.576564
O28	O	-0.354275	0.977548	0.076304
O29	O	-0.020942	1.310881	0.409637
O30	O	0.312392	1.644214	0.742971
C31	C	-0.180692	0.831164	0.000051
C32	C	0.152641	1.164497	0.333385
C33	C	0.485974	1.497831	0.666718
C34	C	-0.178253	0.738854	0.000046
C35	C	0.155081	1.072187	0.333379
C36	C	0.488414	1.405521	0.666713
C37	C	-0.287019	0.517228	0.000059
C38	C	0.046315	0.850562	0.333392
C39	C	0.379648	1.183895	0.666725
C40	C	-0.284717	0.430494	0.000064
C41	C	0.048617	0.763828	0.333398
C42	C	0.381950	1.097161	0.666731
C43	C	-0.055896	0.449008	0.000056
C44	C	0.277437	0.782341	0.333390
C45	C	0.610771	1.115675	0.666723
C46	C	-0.058199	0.535741	0.000057
C47	C	0.275134	0.869074	0.333390
C48	C	0.608467	1.202407	0.666724
C49	C	-0.173764	0.569848	0.000053
C50	C	0.159569	0.903181	0.333387
C51	C	0.492902	1.236515	0.666720
C52	C	-0.169159	0.396382	0.000059
C53	C	0.164174	0.729715	0.333392
C54	C	0.497508	1.063048	0.666725
C55	C	-0.166662	0.302341	0.000065
C56	C	0.166671	0.635674	0.333398
C57	C	0.500005	0.969007	0.666732
C58	C	-0.176262	0.663895	0.000049
C59	C	0.157071	0.997228	0.333382
C60	C	0.490405	1.330562	0.666716
C61	C	-0.401063	0.978369	0.000064
C62	C	-0.067730	1.311702	0.333398
C63	C	0.265603	1.645036	0.666731
C64	C	-0.540473	0.980813	0.000067
C65	C	-0.207140	1.314146	0.333401
C66	C	0.126193	1.647480	0.666734
C67	C	-0.620970	0.906312	0.000061
C68	C	-0.287636	1.239645	0.333394
C69	C	0.045697	1.572978	0.666728
C70	C	-0.751959	0.908613	0.000046
C71	C	-0.418626	1.241947	0.333380
C72	C	-0.085293	1.575280	0.666713
C73	C	-0.721943	1.059924	0.000048
C74	C	-0.388610	1.393257	0.333382
C75	C	-0.055277	1.726590	0.666715
C76	C	-0.590956	1.057621	0.000056
C77	C	-0.257623	1.390955	0.333390
C78	C	0.075710	1.724288	0.666723
C79	C	-0.948994	0.820872	-0.053389
C80	C	-0.615661	1.154205	0.279944
C81	C	-0.282327	1.487538	0.613277
C82	C	-1.029495	0.746367	-0.053380
C83	C	-0.696162	1.079700	0.279953
C84	C	-0.362829	1.413033	0.613287
C85	C	-1.000240	0.678822	0.000053
C86	C	-0.666907	1.012156	0.333386
C87	C	-0.333574	1.345489	0.666719
C88	C	-0.890486	0.685780	0.053498
C89	C	-0.557153	1.019114	0.386831
C90	C	-0.223820	1.352447	0.720165
C91	C	-0.809991	0.760287	0.053497
C92	C	-0.476658	1.093620	0.386830
C93	C	-0.143325	1.426954	0.720164
C94	C	-0.839245	0.827828	0.000043
C95	C	-0.505912	1.161161	0.333376
C96	C	-0.172578	1.494495	0.666710
C97	C	-0.393920	1.145357	0.053500
C98	C	-0.060587	1.478691	0.386833
C99	C	0.272746	1.812024	0.720166
C100	C	-0.313423	1.219865	0.053505
C101	C	0.019911	1.553198	0.386838
C102	C	0.353244	1.886532	0.720172
C103	C	-0.342674	1.287416	0.000078
C104	C	-0.009341	1.620749	0.333411
C105	C	0.323993	1.954083	0.666745
C106	C	-0.452430	1.280466	-0.053354
C107	C	-0.119097	1.613800	0.279980
C108	C	0.214236	1.947133	0.613313
C109	C	-0.532928	1.205959	-0.053359
C110	C	-0.199595	1.539292	0.279974
C111	C	0.133739	1.872626	0.613308
C112	C	-0.503668	1.138407	0.000066
C113	C	-0.170335	1.471741	0.333400
C114	C	0.162999	1.805074	0.666733
C115	C	0.058140	0.987861	0.000054
C116	C	0.391473	1.321194	0.333387
C117	C	0.724807	1.654527	0.666720
C118	C	0.197550	0.985417	0.000045
C119	C	0.530883	1.318750	0.333378
C120	C	0.864217	1.652083	0.666711
C121	C	-0.162231	1.135066	0.000067
C122	C	0.171102	1.468399	0.333400
C123	C	0.504435	1.801732	0.666733
C124	C	-0.164671	1.227376	0.000066
C125	C	0.168663	1.560709	0.333399
C126	C	0.501996	1.894042	0.666733
N127	N	-0.171457	0.983108	0.217055
N128	N	0.161876	1.316442	0.550388
N129	N	0.495210	1.649775	0.883722
N130	N	-0.171457	0.983128	-0.216935
N131	N	0.161877	1.316461	0.116399
N132	N	0.495210	1.649795	0.449732
C133	C	-0.086088	1.039156	0.452063
C134	C	0.247246	1.372490	0.785396
C135	C	0.580579	1.705823	1.118729
C136	C	-0.086084	1.039159	0.548044
C137	C	0.247249	1.372492	0.881377
C138	C	0.580582	1.705825	1.214711
C139	C	-0.256830	0.927074	0.548051
C140	C	0.076503	1.260407	0.881384
C141	C	0.409837	1.593740	1.214717
C142	C	-0.256826	0.927068	0.452071
C143	C	0.076507	1.260401	0.785404
C144	C	0.409841	1.593735	1.118738
C145	C	-0.171456	0.983114	0.404080
C146	C	0.161877	1.316447	0.737413
C147	C	0.495210	1.649781	1.070746
C148	C	-0.171457	0.983122	0.596040
C149	C	0.161876	1.316455	0.929374
C150	C	0.495210	1.649789	1.262707
C151	C	-0.171455	0.983124	0.700108
C152	C	0.161879	1.316458	1.033441
C153	C	0.495212	1.649791	1.366774
C154	C	-0.171457	0.983111	0.300006
C155	C	0.161876	1.316444	0.633339
C156	C	0.495210	1.649778	0.966673
H157	H	0.034032	0.578586	0.000055
H158	H	0.367365	0.911919	0.333389
H159	H	0.700698	1.245253	0.666722
Cl160	Cl	-0.427100	0.364347	0.000072
Cl161	Cl	-0.093767	0.697680	0.333405
Cl162	Cl	0.239566	1.031013	0.666739
H163	H	0.038193	0.421227	0.000065
H164	H	0.371526	0.754560	0.333398
H165	H	0.704860	1.087894	0.666731
Cl166	Cl	-0.557510	0.809753	0.000070
Cl167	Cl	-0.224176	1.143087	0.333403
Cl168	Cl	0.109157	1.476420	0.666737
H169	H	-0.381119	0.544996	0.000063
H170	H	-0.047786	0.878329	0.333396
H171	H	0.285548	1.211662	0.666729
H172	H	-0.720631	0.765951	0.097010
H173	H	-0.387297	1.099285	0.430343
H174	H	-0.053964	1.432618	0.763677
H175	H	-0.866685	0.630780	0.097015
H176	H	-0.533352	0.964113	0.430348
H177	H	-0.200019	1.297447	0.763682
H178	H	-1.065795	0.618159	0.000060
H179	H	-0.732461	0.951492	0.333393
H180	H	-0.399128	1.284826	0.666726
H181	H	-0.224050	1.225518	0.097013
H182	H	0.109283	1.558851	0.430346
H183	H	0.442616	1.892185	0.763679
H184	H	-0.277125	1.348085	0.000094
H185	H	0.056208	1.681419	0.333427
H186	H	0.389542	2.014752	0.666760
Cl187	Cl	-0.489217	1.365392	-0.120515
Cl188	Cl	-0.155883	1.698726	0.212819
Cl189	Cl	0.177450	2.032059	0.546152
Cl190	Cl	-1.167465	0.737620	-0.120569
Cl191	Cl	-0.834131	1.070953	0.212765
Cl192	Cl	-0.500798	1.404287	0.546098
H193	H	-0.972803	0.875858	-0.096926
H194	H	-0.639470	1.209191	0.236408
H195	H	-0.306137	1.542524	0.569741
Cl196	Cl	-0.364152	0.856622	0.608387
Cl197	Cl	-0.030819	1.189956	0.941720
Cl198	Cl	0.302515	1.523289	1.275053
H199	H	-0.016568	1.084792	0.587109
H200	H	0.316765	1.418126	0.920443
H201	H	0.650098	1.751459	1.253776
H202	H	-0.763063	1.122458	0.000049
H203	H	-0.429730	1.455792	0.333382
H204	H	-0.096396	1.789125	0.666715
Cl205	Cl	-0.670911	1.197223	-0.120531
Cl206	Cl	-0.337578	1.530556	0.212802
Cl207	Cl	-0.004245	1.863889	0.546136
H208	H	-0.370090	1.090353	0.097005
H209	H	-0.036757	1.423686	0.430338
H210	H	0.296577	1.757020	0.763672
Cl211	Cl	0.021239	1.109611	0.391735
Cl212	Cl	0.354573	1.442944	0.725068
Cl213	Cl	0.687906	1.776278	1.058401
H214	H	-0.326344	0.881428	0.413001
H215	H	0.006989	1.214761	0.746334
H216	H	0.340323	1.548094	1.079667
