data_functionalizedCrystal
_audit_creation_method	'MofGen! by Chris Wilmer'
_symmetry_space_group_name_H-M	'P1'
_symmetry_Int_Tables_number	1
_symmetry_cell_setting	triclinic
loop_
_symmetry_equiv_pos_as_xyz
  x,y,z
_cell_length_a	13.635800
_cell_length_b	23.752963
_cell_length_c	19.453114
_cell_angle_alpha	83.258122
_cell_angle_beta	101.709288
_cell_angle_gamma	79.933268
loop_
_atom_site_label
_atom_site_type_symbol
_atom_site_fract_x
_atom_site_fract_y
_atom_site_fract_z
V1	V	1.994961	-0.079759	0.219414
O2	O	1.997712	0.003220	0.214813
O3	O	1.962532	-0.157559	0.218322
O4	O	1.966519	-0.078801	0.314922
O5	O	1.993696	-0.076084	0.117544
V6	V	2.238390	-0.069802	0.207180
O7	O	2.121930	-0.101601	0.246251
O8	O	2.336519	-0.047961	0.180344
O9	O	2.159216	0.007998	0.208273
O10	O	2.294338	-0.152781	0.211781
O11	O	2.298353	-0.073478	0.309051
O12	O	2.155228	-0.070760	0.111672
V13	V	2.494961	-0.079759	0.219414
O14	O	2.497712	0.003220	0.214813
O15	O	2.462532	-0.157559	0.218322
O16	O	2.466519	-0.078801	0.314922
O17	O	2.493696	-0.076084	0.117544
V18	V	2.738390	-0.069802	0.207180
O19	O	2.621930	-0.101601	0.246251
O20	O	2.836519	-0.047961	0.180344
O21	O	2.659216	0.007998	0.208273
O22	O	2.794338	-0.152781	0.211781
O23	O	2.798353	-0.073478	0.309051
O24	O	2.655228	-0.070760	0.111672
C25	C	1.883167	-0.176517	0.214965
C26	C	1.897268	-0.240121	0.214709
C27	C	1.968477	-0.626183	0.148674
C28	C	1.981738	-0.685945	0.148423
O29	O	1.974757	-0.709758	0.093555
N30	N	2.004678	-0.724180	0.212665
C31	C	2.014368	-0.702651	0.277162
O32	O	2.035099	-0.740660	0.331782
C33	C	2.001114	-0.642890	0.277413
C34	C	1.978163	-0.604657	0.213166
C35	C	1.945528	-0.587951	0.084433
C36	C	1.932266	-0.528193	0.084684
C37	C	1.941953	-0.506667	0.149176
C38	C	1.964901	-0.544899	0.213418
C39	C	2.010811	-0.621361	0.341910
C40	C	1.997555	-0.561596	0.342155
C41	C	1.974604	-0.523363	0.277908
C42	C	1.961325	-0.463615	0.278161
N43	N	1.938385	-0.425380	0.213919
C44	C	1.928699	-0.446906	0.149427
C45	C	2.042203	-0.828152	0.276631
C46	C	2.055449	-0.887912	0.276381
C47	C	2.022820	-0.871203	0.147642
C48	C	2.009566	-0.811442	0.147892
C49	C	2.019262	-0.789917	0.212389
C50	C	1.900848	-0.321410	0.149959
C51	C	1.887582	-0.261647	0.150216
C52	C	1.920217	-0.278362	0.278955
C53	C	1.933477	-0.338120	0.278699
C54	C	1.923794	-0.359642	0.214195
O55	O	1.968295	-0.439760	0.333001
O56	O	1.907981	-0.408891	0.094817
C57	C	1.888254	-0.076052	0.338188
C58	C	1.905587	-0.075784	0.416269
C59	C	2.070251	0.026953	0.211627
C60	C	2.045769	0.090557	0.211888
C61	C	2.065165	-0.073511	0.088402
C62	C	2.037451	-0.073776	0.010321
C63	C	2.383167	-0.176517	0.214965
C64	C	2.397268	-0.240121	0.214709
C65	C	2.388254	-0.076052	0.338188
C66	C	2.405587	-0.075784	0.416269
C67	C	2.004318	-0.078530	0.456541
C68	C	2.020605	-0.078278	0.529906
C69	C	1.938159	-0.075291	0.563000
C70	C	1.839413	-0.072542	0.522718
C71	C	1.823128	-0.072788	0.449353
N72	N	1.905091	-0.105508	0.681946
N73	N	1.920568	-0.105275	0.751640
C74	C	1.987220	-0.074547	0.784044
N75	N	2.037828	-0.044069	0.744123
N76	N	2.022353	-0.044305	0.674422
C77	C	1.955807	-0.075023	0.642551
C78	C	2.103617	-0.077019	0.903867
C79	C	2.119900	-0.076764	0.977233
C80	C	1.938707	-0.071033	0.970044
C81	C	1.922425	-0.071283	0.896679
C82	C	2.004885	-0.074279	0.863595
C83	C	2.570251	0.026953	0.211627
C84	C	2.545769	0.090557	0.211888
C85	C	2.565165	-0.073511	0.088402
C86	C	2.537451	-0.073776	0.010321
C87	C	2.494486	-0.272918	0.218113
C88	C	2.507752	-0.332682	0.217882
C89	C	2.423797	-0.359649	0.214243
C90	C	2.326572	-0.326849	0.210840
C91	C	2.313308	-0.267086	0.211076
C92	C	2.504325	-0.078520	0.456532
C93	C	2.520624	-0.078261	0.529896
C94	C	2.438185	-0.075269	0.562998
C95	C	2.339439	-0.072530	0.522729
C96	C	2.323140	-0.072786	0.449365
C97	C	2.621045	0.123352	0.208486
C98	C	2.598051	0.183117	0.208720
C99	C	2.499783	0.210084	0.212361
C100	C	2.424501	0.177284	0.215762
C101	C	2.447494	0.117521	0.215523
C102	C	2.437659	-0.076762	-0.022762
C103	C	2.411602	-0.077004	-0.096129
C104	C	2.485340	-0.074265	-0.136411
C105	C	2.585139	-0.071278	-0.103323
C106	C	2.611193	-0.071031	-0.029959
H107	H	1.868889	-0.230520	0.097897
H108	H	2.451470	-0.075061	0.622736
H109	H	2.377605	-0.078992	0.010026
H110	H	2.272322	-0.070095	0.549691
H111	H	2.701066	0.101404	0.205522
H112	H	1.742727	-0.070548	0.416563
H113	H	1.937641	-0.605470	0.031913
H114	H	2.692456	-0.068603	-0.003028
O115	O	2.216643	-0.069845	0.405942
H116	H	2.162067	-0.067729	0.441292
H117	H	2.571463	-0.080958	0.429592
H118	H	2.029499	-0.652481	0.394226
O119	O	2.192543	-0.080239	0.868172
H120	H	2.263934	-0.082095	0.908503
O121	O	2.627129	-0.081214	0.573322
H122	H	2.681711	-0.083347	0.537976
H123	H	2.074121	-0.919036	0.328696
O124	O	2.226390	-0.079715	1.020672
H125	H	2.280988	-0.081841	0.985339
O126	O	2.679263	0.218485	0.205078
H127	H	2.751461	0.189687	0.202526
H128	H	2.330337	-0.079437	-0.123058
O129	O	2.474994	0.274541	0.212634
H130	H	2.543859	0.292810	0.209667
H131	H	2.344490	0.199249	0.218726
H132	H	1.871575	-0.068597	0.996987
H133	H	1.842031	-0.069053	0.863890
O134	O	2.457237	-0.074538	-0.215540
H135	H	2.375457	-0.077081	-0.231770
H136	H	2.101007	-0.080517	0.562702
H137	H	2.386192	0.090822	0.218299
O138	O	2.664668	-0.068326	-0.146773
H139	H	2.674743	-0.107505	-0.172661
O140	O	1.890385	-0.344618	0.080389
H141	H	1.947736	-0.331317	0.052195
O142	O	1.907504	-0.486959	0.015390
H143	H	1.903002	-0.511976	-0.029492
O144	O	2.585056	-0.243847	0.222047
H145	H	2.571179	-0.210524	0.174195
O146	O	1.984810	-0.770207	0.078598
H147	H	2.047263	-0.779854	0.050317
O148	O	2.012382	-0.894425	0.078078
H149	H	2.025466	-0.942403	0.088703
O150	O	2.612614	-0.368052	0.221539
H151	H	2.668754	-0.339254	0.224093
H152	H	1.772285	-0.070108	0.549667
H153	H	2.050096	-0.810632	0.329156
O154	O	2.008035	-0.538344	0.411699
H155	H	1.950683	-0.551610	0.439916
O156	O	1.958228	-0.379362	0.347990
H157	H	1.962739	-0.354350	0.392877
H158	H	1.928097	-0.260824	0.331463
H159	H	2.434611	-0.408313	0.214051
O160	O	2.236024	-0.355937	0.206916
H161	H	2.261590	-0.403002	0.207318
O162	O	2.208446	-0.231713	0.207399
H163	H	2.155367	-0.235548	0.157533
H164	H	2.071464	-0.080967	0.429608
