data_functionalizedCrystal
_audit_creation_method	'MofGen! by Chris Wilmer'
_symmetry_space_group_name_H-M	'P1'
_symmetry_Int_Tables_number	1
_symmetry_cell_setting	triclinic
loop_
_symmetry_equiv_pos_as_xyz
  x,y,z
_cell_length_a	18.050591
_cell_length_b	13.897448
_cell_length_c	13.897441
_cell_angle_alpha	90.030599
_cell_angle_beta	90.026738
_cell_angle_gamma	90.014140
loop_
_atom_site_label
_atom_site_type_symbol
_atom_site_fract_x
_atom_site_fract_y
_atom_site_fract_z
Zn1	Zn	1.135398	-0.384075	0.545536
Zn2	Zn	1.385398	-0.134075	0.795536
Zn3	Zn	1.635398	0.115925	1.045536
Zn4	Zn	1.885398	0.365925	1.295536
Zn5	Zn	1.135316	-0.545397	0.384237
Zn6	Zn	1.385316	-0.295397	0.634237
Zn7	Zn	1.635316	-0.045397	0.884237
Zn8	Zn	1.885316	0.204603	1.134237
Zn9	Zn	1.011202	-0.384108	0.384237
Zn10	Zn	1.261202	-0.134108	0.634237
Zn11	Zn	1.511202	0.115892	0.884237
Zn12	Zn	1.761202	0.365892	1.134237
Zn13	Zn	1.011188	-0.545320	0.545473
Zn14	Zn	1.261188	-0.295320	0.795473
Zn15	Zn	1.511188	-0.045320	1.045473
Zn16	Zn	1.761188	0.204680	1.295473
O17	O	1.073276	-0.464725	0.464871
O18	O	1.323276	-0.214725	0.714871
O19	O	1.573276	0.035275	0.964871
O20	O	1.823276	0.285275	1.214871
O21	O	1.239312	-0.405494	0.524165
O22	O	1.489312	-0.155494	0.774165
O23	O	1.739312	0.094506	1.024165
O24	O	1.989312	0.344506	1.274165
O25	O	1.118824	-0.524048	0.249255
O26	O	1.368824	-0.274048	0.499255
O27	O	1.618824	-0.024048	0.749255
O28	O	1.868824	0.225952	0.999255
O29	O	1.027717	-0.249122	0.405660
O30	O	1.277717	0.000878	0.655660
O31	O	1.527717	0.250878	0.905660
O32	O	1.777717	0.500878	1.155660
O33	O	1.239252	-0.524016	0.405660
O34	O	1.489252	-0.274016	0.655660
O35	O	1.739252	-0.024016	0.905660
O36	O	1.989252	0.225984	1.155660
O37	O	1.118963	-0.249098	0.524165
O38	O	1.368963	0.000902	0.774165
O39	O	1.618963	0.250902	1.024165
O40	O	1.868963	0.500902	1.274165
O41	O	1.027638	-0.405549	0.249255
O42	O	1.277638	-0.155549	0.499255
O43	O	1.527638	0.094451	0.749255
O44	O	1.777638	0.344451	0.999255
O45	O	0.907276	-0.405474	0.405599
O46	O	1.157276	-0.155474	0.655599
O47	O	1.407276	0.094526	0.905599
O48	O	1.657276	0.344526	1.155599
O49	O	1.027693	-0.523885	0.680463
O50	O	1.277693	-0.273885	0.930463
O51	O	1.527693	-0.023885	1.180463
O52	O	1.777693	0.226115	1.430463
O53	O	0.907265	-0.523916	0.524058
O54	O	1.157265	-0.273916	0.774058
O55	O	1.407265	-0.023916	1.024058
O56	O	1.657265	0.226084	1.274058
O57	O	1.118950	-0.405419	0.680509
O58	O	1.368950	-0.155419	0.930509
O59	O	1.618950	0.094581	1.180509
O60	O	1.868950	0.344581	1.430509
O61	O	1.118810	-0.680369	0.405599
O62	O	1.368810	-0.430369	0.655599
O63	O	1.618810	-0.180369	0.905599
O64	O	1.868810	0.069631	1.155599
O65	O	1.027614	-0.680312	0.524058
O66	O	1.277614	-0.430312	0.774058
O67	O	1.527614	-0.180312	1.024058
O68	O	1.777614	0.069688	1.274058
C69	C	0.880324	-0.464691	0.464822
C70	C	1.130324	-0.214691	0.714822
C71	C	1.380324	0.035309	0.964822
C72	C	1.630324	0.285309	1.214822
C73	C	0.797778	-0.464700	0.464825
C74	C	1.047778	-0.214700	0.714825
C75	C	1.297778	0.035300	0.964825
C76	C	1.547778	0.285300	1.214825
C77	C	1.073222	-0.715340	0.464843
C78	C	1.323222	-0.465340	0.714843
C79	C	1.573222	-0.215340	0.964843
C80	C	1.823222	0.034660	1.214843
C81	C	1.073267	-0.822553	0.464863
C82	C	1.323267	-0.572553	0.714863
C83	C	1.573267	-0.322553	0.964863
C84	C	1.823267	-0.072553	1.214863
C85	C	1.073345	-1.018848	0.464924
C86	C	1.323345	-0.768848	0.714924
C87	C	1.573345	-0.518848	0.964924
C88	C	1.823345	-0.268848	1.214924
C89	C	1.073299	-0.909616	0.464893
C90	C	1.323299	-0.659616	0.714893
C91	C	1.573299	-0.409616	0.964893
C92	C	1.823299	-0.159616	1.214893
C93	C	0.548937	-0.400224	0.400559
C94	C	0.798937	-0.150224	0.650559
C95	C	1.048937	0.099776	0.900559
C96	C	1.298937	0.349776	1.150559
C97	C	0.598374	-0.376725	0.488589
C98	C	0.848374	-0.126725	0.738589
C99	C	1.098374	0.123275	0.988589
C100	C	1.348374	0.373275	1.238589
C101	C	0.500658	-0.464749	0.464904
C102	C	0.750658	-0.214749	0.714904
C103	C	1.000658	0.035251	0.964904
C104	C	1.250658	0.285251	1.214904
C105	C	0.598303	-0.488179	0.376840
C106	C	0.848303	-0.238179	0.626840
C107	C	1.098303	0.011821	0.876840
C108	C	1.348303	0.261821	1.126840
C109	C	0.646643	-0.464723	0.464860
C110	C	0.896643	-0.214723	0.714860
C111	C	1.146643	0.035277	0.964860
C112	C	1.396643	0.285277	1.214860
C113	C	0.549008	-0.441204	0.552980
C114	C	0.799008	-0.191204	0.802980
C115	C	1.049008	0.058796	1.052980
C116	C	1.299008	0.308796	1.302980
C117	C	0.548932	-0.552699	0.441172
C118	C	0.798932	-0.302699	0.691172
C119	C	1.048932	-0.052699	0.941172
C120	C	1.298932	0.197301	1.191172
C121	C	0.598347	-0.529233	0.529263
C122	C	0.848347	-0.279233	0.779263
C123	C	1.098347	-0.029233	1.029263
C124	C	1.348347	0.220767	1.279263
C125	C	0.416560	-0.464762	0.464927
C126	C	0.666560	-0.214762	0.714927
C127	C	0.916560	0.035238	0.964927
C128	C	1.166560	0.285238	1.214927
C129	C	0.730739	-0.464710	0.464846
C130	C	0.980739	-0.214710	0.714846
C131	C	1.230739	0.035290	0.964846
C132	C	1.480739	0.285290	1.214846
C133	C	1.266982	-0.464760	0.464920
C134	C	1.516982	-0.214760	0.714920
C135	C	1.766982	0.035240	0.964920
C136	C	2.016982	0.285240	1.214920
C137	C	1.349528	-0.464775	0.464941
C138	C	1.599528	-0.214775	0.714941
C139	C	1.849528	0.035225	0.964941
C140	C	2.099528	0.285225	1.214941
C141	C	1.073329	-0.464640	0.716464
C142	C	1.323329	-0.214640	0.966464
C143	C	1.573329	0.035360	1.216464
C144	C	1.823329	0.285360	1.466464
C145	C	1.073351	-0.464604	0.823678
C146	C	1.323351	-0.214604	1.073678
C147	C	1.573351	0.035396	1.323678
C148	C	1.823351	0.285396	1.573678
C149	C	1.073351	-0.213132	0.464920
C150	C	1.323351	0.036868	0.714920
C151	C	1.573351	0.286868	0.964920
C152	C	1.823351	0.536868	1.214920
C153	C	1.073383	-0.105918	0.464941
C154	C	1.323383	0.144082	0.714941
C155	C	1.573383	0.394082	0.964941
C156	C	1.823383	0.644082	1.214941
C157	C	1.073266	-0.464740	0.214256
C158	C	1.323266	-0.214740	0.464256
C159	C	1.573266	0.035260	0.714256
C160	C	1.823266	0.285260	0.964256
C161	C	1.073388	-0.464505	0.107043
C162	C	1.323388	-0.214505	0.357043
C163	C	1.573388	0.035495	0.607043
C164	C	1.823388	0.285495	0.857043
C165	C	1.073371	-0.464538	1.019973
C166	C	1.323371	-0.214538	1.269973
C167	C	1.573371	0.035462	1.519973
C168	C	1.823371	0.285462	1.769973
C169	C	1.073358	-0.464577	0.910740
C170	C	1.323358	-0.214577	1.160740
C171	C	1.573358	0.035423	1.410740
C172	C	1.823358	0.285423	1.660740
H173	H	0.527244	-0.345628	0.346230
H174	H	0.777244	-0.095628	0.596230
H175	H	1.027244	0.154372	0.846230
H176	H	1.277244	0.404372	1.096230
H177	H	0.619904	-0.583789	0.583721
H178	H	0.869904	-0.333789	0.833721
H179	H	1.119904	-0.083789	1.083721
H180	H	1.369904	0.166211	1.333721
Br181	Br	0.513072	-0.408012	0.677116
Br182	Br	0.763072	-0.158012	0.927116
Br183	Br	1.013072	0.091988	1.177116
Br184	Br	1.263072	0.341988	1.427116
Br185	Br	0.634400	-0.521227	0.252744
Br186	Br	0.884400	-0.271227	0.502744
Br187	Br	1.134400	-0.021227	0.752744
Br188	Br	1.384400	0.228773	1.002744
H189	H	0.620077	-0.302333	0.508660
H190	H	0.870077	-0.052333	0.758660
H191	H	1.120077	0.197667	1.008660
H192	H	1.370077	0.447667	1.258660
Br193	Br	0.512704	-0.676650	0.407694
Br194	Br	0.762704	-0.426650	0.657694
Br195	Br	1.012704	-0.176650	0.907694
Br196	Br	1.262704	0.073350	1.157694
