data_functionalizedCrystal
_audit_creation_method	'MofGen! by Chris Wilmer'
_symmetry_space_group_name_H-M	'P1'
_symmetry_Int_Tables_number	1
_symmetry_cell_setting	triclinic
loop_
_symmetry_equiv_pos_as_xyz
  x,y,z
_cell_length_a	12.759401
_cell_length_b	12.827892
_cell_length_c	12.759393
_cell_angle_alpha	90.029972
_cell_angle_beta	90.020938
_cell_angle_gamma	90.016917
loop_
_atom_site_label
_atom_site_type_symbol
_atom_site_fract_x
_atom_site_fract_y
_atom_site_fract_z
Zn1	Zn	1.606261	-0.415940	0.594024
Zn2	Zn	1.939595	-0.082607	0.927357
Zn3	Zn	2.272928	0.250727	1.260691
Zn4	Zn	1.606150	-0.590717	0.418346
Zn5	Zn	1.939484	-0.257384	0.751679
Zn6	Zn	2.272817	0.075949	1.085012
Zn7	Zn	1.430560	-0.415996	0.418359
Zn8	Zn	1.763893	-0.082662	0.751692
Zn9	Zn	2.097227	0.250671	1.085026
Zn10	Zn	1.430550	-0.590644	0.593983
Zn11	Zn	1.763883	-0.257311	0.927316
Zn12	Zn	2.097216	0.076022	1.260650
O13	O	1.518380	-0.503324	0.506178
O14	O	1.851714	-0.169991	0.839511
O15	O	2.185047	0.163342	1.172845
O16	O	1.753268	-0.439132	0.570731
O17	O	2.086601	-0.105798	0.904065
O18	O	2.419934	0.227535	1.237398
O19	O	1.582816	-0.567594	0.271326
O20	O	1.916149	-0.234261	0.604660
O21	O	2.249482	0.099073	0.937993
O22	O	1.453918	-0.269752	0.441684
O23	O	1.787251	0.063581	0.775018
O24	O	2.120585	0.396915	1.108351
O25	O	1.753186	-0.567540	0.441661
O26	O	2.086519	-0.234207	0.774995
O27	O	2.419853	0.099127	1.108328
O28	O	1.583005	-0.269711	0.570744
O29	O	1.916338	0.063622	0.904078
O30	O	2.249672	0.396955	1.237411
O31	O	1.453810	-0.439227	0.271336
O32	O	1.787144	-0.105893	0.604670
O33	O	2.120477	0.227440	0.938003
O34	O	1.283538	-0.439156	0.441644
O35	O	1.616871	-0.105822	0.774978
O36	O	1.950204	0.227511	1.108311
O37	O	1.453900	-0.567416	0.741009
O38	O	1.787234	-0.234082	1.074343
O39	O	2.120567	0.099251	1.407676
O40	O	1.283530	-0.567469	0.570674
O41	O	1.616863	-0.234136	0.904008
O42	O	1.950197	0.099197	1.237341
O43	O	1.582995	-0.439061	0.741040
O44	O	1.916328	-0.105728	1.074373
O45	O	2.249662	0.227606	1.407706
O46	O	1.582806	-0.736944	0.441622
O47	O	1.916139	-0.403610	0.774955
O48	O	2.249472	-0.070277	1.108288
O49	O	1.453793	-0.736890	0.570661
O50	O	1.787126	-0.403557	0.903995
O51	O	2.120460	-0.070223	1.237328
C52	C	1.245413	-0.503312	0.506157
C53	C	1.578746	-0.169978	0.839490
C54	C	1.912080	0.163355	1.172824
C55	C	1.128636	-0.503331	0.506173
C56	C	1.461970	-0.169998	0.839506
C57	C	1.795303	0.163335	1.172840
C58	C	1.073798	-0.570246	0.573253
C59	C	1.407131	-0.236912	0.906587
C60	C	1.740465	0.096421	1.239920
C61	C	0.964074	-0.570250	0.573274
C62	C	1.297407	-0.236916	0.906607
C63	C	1.630741	0.096417	1.239941
C64	C	0.964036	-0.436422	0.439125
C65	C	1.297370	-0.103088	0.772459
C66	C	1.630703	0.230245	1.105792
C67	C	1.073758	-0.436413	0.439111
C68	C	1.407092	-0.103080	0.772444
C69	C	1.740425	0.230253	1.105777
C70	C	1.518315	-0.774834	0.506158
C71	C	1.851648	-0.441501	0.839492
C72	C	2.184981	-0.108168	1.172825
C73	C	1.518383	-0.890987	0.506185
C74	C	1.851716	-0.557654	0.839519
C75	C	2.185049	-0.224321	1.172852
C76	C	1.582231	-0.942668	0.570106
C77	C	1.915564	-0.609335	0.903439
C78	C	2.248897	-0.276002	1.236772
C79	C	1.582302	-1.062719	0.570135
C80	C	1.915636	-0.729385	0.903468
C81	C	2.248969	-0.396052	1.236802
C82	C	1.792414	-0.503338	0.506199
C83	C	2.125747	-0.170005	0.839533
C84	C	2.459080	0.163329	1.172866
C85	C	1.909190	-0.503344	0.506209
C86	C	2.242524	-0.170010	0.839542
C87	C	2.575857	0.163323	1.172875
C88	C	1.518459	-0.503224	0.780211
C89	C	1.851792	-0.169891	1.113545
C90	C	2.185126	0.163443	1.446878
C91	C	1.518492	-0.503181	0.896988
C92	C	1.851826	-0.169848	1.230321
C93	C	2.185159	0.163485	1.563655
C94	C	1.518475	-0.230754	0.506220
C95	C	1.851808	0.102579	0.839554
C96	C	2.185142	0.435913	1.172887
C97	C	1.518515	-0.114601	0.506239
C98	C	1.851849	0.218732	0.839572
C99	C	2.185182	0.552066	1.172905
C100	C	1.518363	-0.503349	0.233211
C101	C	1.851696	-0.170015	0.566544
C102	C	2.185029	0.163318	0.899877
C103	C	1.518533	-0.503097	0.116434
C104	C	1.851866	-0.169764	0.449768
C105	C	2.185199	0.163569	0.783101
C106	C	1.585717	-0.436336	0.951867
C107	C	1.919050	-0.103003	1.285201
C108	C	2.252384	0.230330	1.618534
C109	C	1.585735	-0.436291	1.061592
C110	C	1.919068	-0.102958	1.394925
C111	C	2.252401	0.230375	1.728258
C112	C	1.451301	-0.569945	1.061547
C113	C	1.784634	-0.236612	1.394881
C114	C	2.117967	0.096722	1.728214
C115	C	1.451278	-0.569984	0.951825
C116	C	1.784612	-0.236651	1.285159
C117	C	2.117945	0.096683	1.618492
H118	H	1.118476	-0.624732	0.627862
H119	H	1.451810	-0.291399	0.961196
H120	H	1.785143	0.041934	1.294529
H121	H	1.463853	-1.070164	0.451507
H122	H	1.797187	-0.736830	0.784840
H123	H	2.130520	-0.403497	1.118173
H124	H	0.919341	-0.381941	0.384524
H125	H	1.252675	-0.048608	0.717858
H126	H	1.586008	0.284726	1.051191
H127	H	1.636969	-1.107164	0.624856
H128	H	1.970302	-0.773830	0.958189
H129	H	2.303635	-0.440497	1.291522
H130	H	1.640444	-0.381938	0.907222
H131	H	1.973778	-0.048605	1.240556
H132	H	2.307111	0.284728	1.573889
Cl133	Cl	1.434060	-0.959885	0.421729
Cl134	Cl	1.767393	-0.626551	0.755063
Cl135	Cl	2.100726	-0.293218	1.088396
Cl136	Cl	1.142703	-0.352278	0.354781
Cl137	Cl	1.476037	-0.018945	0.688114
Cl138	Cl	1.809370	0.314389	1.021448
H139	H	1.636837	-0.898040	0.624814
H140	H	1.970170	-0.564707	0.958147
H141	H	2.303504	-0.231374	1.291480
H142	H	1.640474	-0.381858	1.106270
H143	H	1.973807	-0.048524	1.439603
H144	H	2.307141	0.284809	1.772936
Cl145	Cl	1.366813	-0.653927	1.130493
Cl146	Cl	1.700147	-0.320593	1.463826
Cl147	Cl	2.033480	0.012740	1.797160
H148	H	0.919429	-0.624737	0.627899
H149	H	1.252763	-0.291404	0.961232
H150	H	1.586096	0.041930	1.294566
Cl151	Cl	1.366754	-0.654019	0.882829
Cl152	Cl	1.700088	-0.320685	1.216162
Cl153	Cl	2.033421	0.012648	1.549495
