data_functionalizedCrystal
_audit_creation_method	'MofGen! by Chris Wilmer'
_symmetry_space_group_name_H-M	'P1'
_symmetry_Int_Tables_number	1
_symmetry_cell_setting	triclinic
loop_
_symmetry_equiv_pos_as_xyz
  x,y,z
_cell_length_a	21.395364
_cell_length_b	18.050588
_cell_length_c	21.395355
_cell_angle_alpha	90.015849
_cell_angle_beta	90.024552
_cell_angle_gamma	90.044512
loop_
_atom_site_label
_atom_site_type_symbol
_atom_site_fract_x
_atom_site_fract_y
_atom_site_fract_z
Zn1	Zn	0.957864	-0.295449	0.354273
Zn2	Zn	0.957769	-0.419621	0.249500
Zn3	Zn	0.853079	-0.295482	0.249510
Zn4	Zn	0.853050	-0.419634	0.354241
O5	O	0.905441	-0.357547	0.301881
O6	O	1.045529	-0.311902	0.340384
O7	O	0.943854	-0.403162	0.161824
O8	O	0.867031	-0.191553	0.263424
O9	O	1.045459	-0.403130	0.263408
O10	O	0.944016	-0.191529	0.340393
O11	O	0.866939	-0.311957	0.161831
O12	O	0.765397	-0.311970	0.263393
O13	O	0.866982	-0.403153	0.441923
O14	O	0.765376	-0.403184	0.340338
O15	O	0.943988	-0.311915	0.441947
O16	O	0.943826	-0.523547	0.263377
O17	O	0.866890	-0.523557	0.340329
C18	C	0.742653	-0.357583	0.301863
C19	C	0.673012	-0.357616	0.301871
C20	C	0.640358	-0.310191	0.342014
C21	C	0.574922	-0.310171	0.342017
C22	C	0.542143	-0.357590	0.301882
C23	C	0.574806	-0.405018	0.261731
C24	C	0.640240	-0.405031	0.261725
C25	C	0.438420	-0.424470	0.296847
C26	C	0.372987	-0.424458	0.296857
C27	C	0.340323	-0.357549	0.301896
C28	C	0.373099	-0.290650	0.306938
C29	C	0.438533	-0.290663	0.306932
C30	C	0.471191	-0.357581	0.301884
C31	C	0.236716	-0.310099	0.342044
C32	C	0.171279	-0.310078	0.342042
C33	C	0.171164	-0.404931	0.261760
C34	C	0.236599	-0.404945	0.261759
C35	C	0.269371	-0.357530	0.301904
C36	C	0.905361	-0.550499	0.301862
C37	C	0.905385	-0.633045	0.301875
C38	C	0.863613	-0.881902	0.343722
C39	C	0.920745	-0.832418	0.359097
C40	C	0.905515	-0.930165	0.301910
C41	C	0.848321	-0.832568	0.286547
C42	C	0.905448	-0.784180	0.301894
C43	C	0.962678	-0.881767	0.317315
C44	C	0.890215	-0.881922	0.244738
C45	C	0.947387	-0.832459	0.260092
C46	C	0.905552	-1.014263	0.301921
C47	C	0.905416	-0.700083	0.301884
C48	C	1.068864	-0.357511	0.301899
C49	C	1.138505	-0.357496	0.301907
C50	C	0.905493	-0.357532	0.465304
C51	C	0.905515	-0.357525	0.534946
C52	C	0.905537	-0.163841	0.301914
C53	C	0.905579	-0.081295	0.301927
C54	C	0.905425	-0.357508	0.139093
C55	C	0.905524	-0.357305	0.069453
C56	C	0.945610	-0.310015	0.567672
C57	C	0.945609	-0.309983	0.633108
C58	C	0.905520	-0.357475	0.665814
C59	C	0.865417	-0.404988	0.633080
C60	C	0.865414	-0.405013	0.567645
C61	C	0.900545	-0.424345	0.769482
C62	C	0.900552	-0.424321	0.834915
C63	C	0.905524	-0.357396	0.867635
C64	C	0.910502	-0.290493	0.834914
C65	C	0.910499	-0.290518	0.769479
C66	C	0.905518	-0.357452	0.736766
C67	C	0.945620	-0.309848	0.971314
C68	C	0.945615	-0.309814	1.036751
C69	C	0.865425	-0.404825	1.036721
C70	C	0.865427	-0.404852	0.971286
C71	C	0.905528	-0.357364	0.938586
H72	H	0.346505	-0.236166	0.311041
H73	H	0.263187	-0.443567	0.229072
O74	O	0.543123	-0.264208	0.381047
C75	C	0.505274	-0.306565	0.421459
H76	H	0.495421	-0.362803	0.399272
H77	H	0.459286	-0.276328	0.429906
H78	H	0.530509	-0.314816	0.467876
H79	H	0.828249	-0.903609	0.379115
O80	O	0.470276	-0.225613	0.311800
C81	C	0.427421	-0.166552	0.316265
H82	H	0.380750	-0.184085	0.295193
H83	H	0.446355	-0.116596	0.289723
H84	H	0.420504	-0.151214	0.367489
O85	O	0.268458	-0.263970	0.381057
C86	C	0.225601	-0.222114	0.416498
H87	H	0.178949	-0.219483	0.390840
H88	H	0.244561	-0.163619	0.423271
H89	H	0.218640	-0.249394	0.464043
H90	H	0.832761	-0.443700	0.541000
O91	O	0.936243	-0.806564	0.416772
C92	C	0.996099	-0.832696	0.433280
H93	H	1.006972	-0.885065	0.405560
H94	H	0.997239	-0.845725	0.485401
H95	H	1.032485	-0.788431	0.422227
O96	O	0.139489	-0.264110	0.381071
C97	C	0.101636	-0.306459	0.421485
H98	H	0.091775	-0.362695	0.399299
H99	H	0.055652	-0.276213	0.429934
H100	H	0.126870	-0.314714	0.467902
H101	H	0.877282	-0.903682	0.196410
O102	O	0.826505	-0.451226	0.664778
C103	C	0.840170	-0.525247	0.648806
H104	H	0.864252	-0.526798	0.601306
H105	H	0.794934	-0.558557	0.646551
H106	H	0.872372	-0.550241	0.685646
H107	H	0.666827	-0.443652	0.229035
O108	O	0.139304	-0.451075	0.222863
C109	C	0.101422	-0.499083	0.258465
H110	H	0.121161	-0.503759	0.307805
H111	H	0.100624	-0.556197	0.235721
H112	H	0.051849	-0.476116	0.260659
O113	O	0.915362	-0.225413	0.866592
C114	C	0.919738	-0.166371	0.823681
H115	H	0.937886	-0.188036	0.777047
H116	H	0.953280	-0.122676	0.842599
H117	H	0.871588	-0.140657	0.816697
H118	H	0.896502	-0.478798	0.861552
O119	O	1.020408	-0.907313	0.332863
C120	C	1.060750	-0.846865	0.343741
H121	H	1.042232	-0.795887	0.318348
H122	H	1.109461	-0.860725	0.325629
H123	H	1.063180	-0.835105	0.396042
H124	H	0.799981	-0.810952	0.273560
H125	H	0.346306	-0.478932	0.292755
O126	O	0.470050	-0.489540	0.291980
C127	C	0.427092	-0.548580	0.287524
H128	H	0.380472	-0.531022	0.308604
H129	H	0.445971	-0.598543	0.314066
H130	H	0.420098	-0.563918	0.236302
O131	O	0.989758	-0.806752	0.217972
C132	C	1.049918	-0.831970	0.234385
H133	H	1.051089	-0.845733	0.286370
H134	H	1.085721	-0.786853	0.223898
H135	H	1.061594	-0.883715	0.206158
H136	H	0.978263	-0.271346	0.541052
H137	H	0.548113	-0.443626	0.229053
H138	H	0.667036	-0.271581	0.374703
O139	O	0.984621	-0.263809	0.664810
C140	C	1.020001	-0.221887	0.621917
H141	H	1.022151	-0.252319	0.575273
H142	H	1.069371	-0.213955	0.640844
H143	H	0.997090	-0.165487	0.614950
O144	O	0.915240	-0.225572	0.737626
C145	C	0.861895	-0.216030	0.699769
H146	H	0.839700	-0.272282	0.689964
H147	H	0.876055	-0.188978	0.653758
H148	H	0.826795	-0.179114	0.724972
H149	H	0.978269	-0.271176	0.944688
O150	O	0.984625	-0.263636	1.068446
C151	C	1.020005	-0.221719	1.025550
H152	H	1.022156	-0.252158	0.978909
H153	H	1.069375	-0.213784	1.044477
H154	H	0.997093	-0.165321	1.018577
O155	O	0.826546	-0.450941	1.068581
C156	C	0.835134	-0.440720	1.133354
H157	H	0.883497	-0.416375	1.142308
H158	H	0.830865	-0.496341	1.158221
H159	H	0.797986	-0.401180	1.151909
H160	H	0.832781	-0.443544	0.944640
H161	H	0.896329	-0.478830	0.742847
