data_functionalizedCrystal
_audit_creation_method	'MofGen! by Chris Wilmer'
_symmetry_space_group_name_H-M	'P1'
_symmetry_Int_Tables_number	1
_symmetry_cell_setting	triclinic
loop_
_symmetry_equiv_pos_as_xyz
  x,y,z
_cell_length_a	10.654556
_cell_length_b	10.654559
_cell_length_c	9.730223
_cell_angle_alpha	89.998196
_cell_angle_beta	89.998368
_cell_angle_gamma	84.488111
loop_
_atom_site_label
_atom_site_type_symbol
_atom_site_fract_x
_atom_site_fract_y
_atom_site_fract_z
O1	O	1.667840	0.176436	-0.114229
O2	O	1.302363	0.193234	-0.114243
O3	O	1.493499	0.002097	-0.114236
O4	O	1.476705	0.367573	-0.114236
O5	O	1.493486	0.002091	0.114344
O6	O	1.302351	0.193228	0.114337
O7	O	1.667828	0.176431	0.114351
Zn8	Zn	1.485087	0.184829	0.150636
Zn9	Zn	1.485104	0.184836	-0.150528
O10	O	1.476692	0.367568	0.114344
C11	C	1.255559	0.191996	0.000046
C12	C	1.116116	0.188301	0.000040
C13	C	0.919577	0.183101	-0.124548
C14	C	1.050600	0.186565	-0.124557
C15	C	1.050605	0.186559	0.124654
C16	C	0.919586	0.183086	0.124661
C17	C	1.492257	-0.044704	0.000051
C18	C	1.488560	-0.184147	0.000043
C19	C	1.372549	-0.235689	0.000035
C20	C	1.369083	-0.366711	0.000045
C21	C	1.597652	-0.394638	0.000065
C22	C	1.601116	-0.263618	0.000065
C23	C	1.240586	-0.219567	0.000017
C24	C	1.237120	-0.350589	0.000028
C25	C	1.714632	0.177668	0.000059
C26	C	1.854075	0.181364	0.000056
C27	C	1.477934	0.414368	0.000054
C28	C	1.481631	0.553811	0.000053
N29	N	1.485085	0.184823	0.356172
N30	N	1.485116	0.184831	-0.356064
C31	C	1.569749	0.100224	0.428101
C32	C	1.569762	0.100224	0.571984
C33	C	1.400443	0.269435	0.571997
C34	C	1.400425	0.269427	0.428116
H35	H	1.103960	0.187965	0.226103
H36	H	0.866242	0.181697	-0.226010
H37	H	1.200725	-0.173924	-0.098681
C38	C	1.180324	-0.398733	0.133353
N39	N	1.137546	-0.434996	0.233771
C40	C	1.173402	-0.163166	0.129240
N41	N	1.122802	-0.120686	0.226569
C42	C	1.307319	0.362492	0.651148
N43	N	1.237175	0.432584	0.710764
H44	H	1.331475	0.338319	0.369548
C45	C	1.122647	0.188473	-0.261631
N46	N	1.176913	0.189907	-0.364882
H47	H	1.185515	-0.379956	-0.095629
C48	C	0.847528	0.181185	0.261742
N49	N	0.793253	0.179754	0.364987
H50	H	1.695584	-0.221659	0.000089
H51	H	1.638683	0.031332	0.369528
H52	H	1.689290	-0.459360	0.000084
C53	C	1.662889	0.007148	0.651100
N54	N	1.733032	-0.062966	0.710689
