data_functionalizedCrystal
_audit_creation_method	'MofGen! by Chris Wilmer'
_symmetry_space_group_name_H-M	'P1'
_symmetry_Int_Tables_number	1
_symmetry_cell_setting	triclinic
loop_
_symmetry_equiv_pos_as_xyz
  x,y,z
_cell_length_a	16.959455
_cell_length_b	18.101395
_cell_length_c	16.959447
_cell_angle_alpha	89.974098
_cell_angle_beta	89.982507
_cell_angle_gamma	90.028051
loop_
_atom_site_label
_atom_site_type_symbol
_atom_site_fract_x
_atom_site_fract_y
_atom_site_fract_z
Zn1	Zn	1.208348	-0.294901	-0.446913
Zn2	Zn	1.208238	-0.418747	-0.314737
Zn3	Zn	1.076169	-0.294917	-0.314751
Zn4	Zn	1.076116	-0.418699	-0.446875
O5	O	1.142218	-0.356816	-0.380819
O6	O	1.318944	-0.311343	-0.429390
O7	O	1.190695	-0.402347	-0.204128
O8	O	1.093771	-0.191282	-0.332304
O9	O	1.318863	-0.402332	-0.332280
O10	O	1.190883	-0.191271	-0.429404
O11	O	1.093664	-0.311370	-0.204138
O12	O	0.965551	-0.311323	-0.332267
O13	O	1.093680	-0.402251	-0.557491
O14	O	0.965512	-0.402266	-0.429339
O15	O	1.190831	-0.311297	-0.557519
O16	O	1.190643	-0.522373	-0.332243
O17	O	1.093573	-0.522338	-0.429325
C18	C	0.936851	-0.356792	-0.380801
C19	C	0.848995	-0.356799	-0.380812
C20	C	0.477515	-0.309424	-0.330380
C21	C	0.477523	-0.404269	-0.431304
C22	C	0.560069	-0.404259	-0.431299
C23	C	0.601342	-0.356831	-0.380833
C24	C	0.560069	-0.309413	-0.330372
C25	C	0.601348	-0.451681	-0.481754
C26	C	0.683899	-0.451672	-0.481750
C27	C	0.725173	-0.404240	-0.431287
C28	C	0.683895	-0.356820	-0.380825
C29	C	0.725168	-0.309392	-0.330359
C30	C	0.683891	-0.261968	-0.279899
C31	C	0.601343	-0.261981	-0.279909
C32	C	0.807722	-0.404227	-0.431278
C33	C	0.807722	-0.309381	-0.330351
C34	C	1.142112	-0.549227	-0.380796
C35	C	1.142139	-0.631541	-0.380812
C36	C	1.142312	-0.930632	-0.380855
C37	C	1.081380	-0.899315	-0.442088
C38	C	1.081091	-0.813697	-0.441896
C39	C	1.142226	-0.782249	-0.380834
C40	C	1.119675	-0.813397	-0.297530
C41	C	1.119282	-0.899043	-0.297896
C42	C	1.225929	-0.898980	-0.402193
C43	C	1.225437	-0.813329	-0.404020
C44	C	1.142179	-0.698390	-0.380818
C45	C	1.142358	-1.014491	-0.380866
C46	C	1.348386	-0.356841	-0.380838
C47	C	1.436242	-0.356852	-0.380846
C48	C	1.142262	-0.356767	-0.586987
C49	C	1.142281	-0.356746	-0.674844
C50	C	1.142345	-0.163654	-0.380860
C51	C	1.142400	-0.081340	-0.380877
C52	C	1.091709	-0.404092	-0.716105
C53	C	1.192866	-0.309375	-0.716137
C54	C	1.192882	-0.309351	-0.798683
C55	C	1.142310	-0.356697	-0.839944
C56	C	1.091722	-0.404068	-0.798659
C57	C	1.243464	-0.261976	-0.839974
C58	C	1.243482	-0.261949	-0.922525
C59	C	1.192913	-0.309300	-0.963787
C60	C	1.142324	-0.356673	-0.922497
C61	C	1.091752	-0.404019	-0.963758
C62	C	1.041165	-0.451396	-0.922470
C63	C	1.041153	-0.451418	-0.839921
C64	C	1.192925	-0.309278	-1.046336
C65	C	1.091765	-0.403995	-1.046312
C66	C	1.142219	-0.356812	-0.175453
C67	C	1.142353	-0.356624	-0.087597
H68	H	0.717507	-0.223355	-0.238806
C69	C	1.036130	-0.456080	-1.091692
N70	N	0.994224	-0.495310	-1.125872
C71	C	1.253703	-0.928088	-0.482862
N72	N	1.274613	-0.950013	-0.543626
H73	H	1.242443	-0.792968	-0.465328
H74	H	0.567728	-0.223371	-0.238827
C75	C	0.853122	-0.456390	-0.486780
N76	N	0.887317	-0.495681	-0.528589
H77	H	1.271325	-0.919231	-0.357595
C78	C	1.176627	-0.927034	-0.234153
N79	N	1.219814	-0.948114	-0.186138
C80	C	1.177738	-0.785875	-0.234211
N81	N	1.221472	-0.765142	-0.186520
H82	H	1.284634	-0.223427	-0.806373
C83	C	0.985506	-0.503521	-0.794498
N84	N	0.943589	-0.542762	-0.760282
C85	C	1.037970	-0.784511	-0.272675
N86	N	0.976428	-0.762756	-0.253958
H87	H	0.841320	-0.270755	-0.289259
H88	H	0.443904	-0.270810	-0.289299
C89	C	1.100149	-0.785242	-0.525345
N90	N	1.114500	-0.763812	-0.588203
C91	C	1.290013	-0.784407	-0.348159
N92	N	1.338650	-0.762624	-0.306076
H93	H	1.234106	-0.270698	-1.079949
H94	H	1.058159	-0.919082	-0.279821
H95	H	0.443914	-0.442887	-0.472386
C96	C	0.985532	-0.503470	-0.967867
N97	N	0.943629	-0.542689	-1.002064
C98	C	0.555943	-0.503850	-0.537260
N99	N	0.521741	-0.543145	-0.579071
C100	C	1.036064	-0.456202	-0.670688
N101	N	0.994151	-0.495451	-0.636478
C102	C	1.100245	-0.927083	-0.525807
N103	N	1.114454	-0.948004	-0.588866
C104	C	0.729296	-0.503837	-0.537259
N105	N	0.763489	-0.543126	-0.579070
H106	H	1.019779	-0.920898	-0.428131
C107	C	0.997347	-0.786098	-0.422859
N108	N	0.934262	-0.765312	-0.408539
H109	H	1.234036	-0.270825	-0.682537
C110	C	1.299133	-0.209838	-0.967934
N111	N	1.341052	-0.170590	-1.002138
