data_functionalizedCrystal
_audit_creation_method	'MofGen! by Chris Wilmer'
_symmetry_space_group_name_H-M	'P1'
_symmetry_Int_Tables_number	1
_symmetry_cell_setting	triclinic
loop_
_symmetry_equiv_pos_as_xyz
  x,y,z
_cell_length_a	11.169417
_cell_length_b	12.759394
_cell_length_c	11.169409
_cell_angle_alpha	89.965476
_cell_angle_beta	89.980487
_cell_angle_gamma	90.016086
loop_
_atom_site_label
_atom_site_type_symbol
_atom_site_fract_x
_atom_site_fract_y
_atom_site_fract_z
Zn1	Zn	1.834925	-0.418146	-0.678515
Zn2	Zn	1.834798	-0.593872	-0.477824
Zn3	Zn	1.634211	-0.418212	-0.477850
Zn4	Zn	1.634202	-0.593788	-0.678470
O5	O	1.734534	-0.506005	-0.578165
O6	O	2.002858	-0.441465	-0.651900
O7	O	1.808141	-0.570633	-0.309877
O8	O	1.660892	-0.271182	-0.504498
O9	O	2.002765	-0.570570	-0.504454
O10	O	1.808356	-0.271134	-0.651926
O11	O	1.660770	-0.441576	-0.309897
O12	O	1.466260	-0.441494	-0.504455
O13	O	1.660878	-0.570426	-0.846426
O14	O	1.466254	-0.570489	-0.651849
O15	O	1.808348	-0.441383	-0.846458
O16	O	1.808133	-0.740882	-0.504410
O17	O	1.660756	-0.740820	-0.651824
C18	C	1.422709	-0.505990	-0.578151
C19	C	1.289309	-0.506010	-0.578173
C20	C	1.734462	-0.778972	-0.578136
C21	C	1.734541	-0.895749	-0.578163
C22	C	1.888120	-0.895760	-0.424776
C23	C	1.964941	-0.950626	-0.348097
C24	C	1.965011	-1.060348	-0.348130
C25	C	1.888255	-1.115206	-0.424852
C26	C	1.811434	-1.060339	-0.501532
C27	C	1.811370	-0.950615	-0.501488
C28	C	1.657863	-1.060328	-0.654923
C29	C	1.657785	-0.950606	-0.654886
C30	C	1.581107	-1.115186	-0.731646
C31	C	1.504279	-1.060319	-0.808321
C32	C	1.504210	-0.950591	-0.808284
C33	C	1.580964	-0.895740	-0.731565
C34	C	2.047576	-0.506019	-0.578179
C35	C	2.180976	-0.506026	-0.578185
C36	C	1.734626	-0.505888	-0.891207
C37	C	1.734666	-0.505838	-1.024607
C38	C	1.734639	-0.231971	-0.578220
C39	C	1.734684	-0.115194	-0.578244
C40	C	1.734511	-0.506045	-0.266340
C41	C	1.734705	-0.505799	-0.132940
H42	H	1.888055	-0.806419	-0.424727
Br43	Br	1.400133	-1.134772	-0.912445
H44	H	1.441658	-0.905925	-0.870730
H45	H	1.580908	-0.806399	-0.731520
Br46	Br	2.069277	-1.134814	-0.244074
Br47	Br	2.069114	-0.876174	-0.243987
H48	H	1.581175	-1.204527	-0.731672
Br49	Br	1.887790	-1.264113	-0.424333
