data_functionalizedCrystal
_audit_creation_method	'MofGen! by Chris Wilmer'
_symmetry_space_group_name_H-M	'P1'
_symmetry_Int_Tables_number	1
_symmetry_cell_setting	triclinic
loop_
_symmetry_equiv_pos_as_xyz
  x,y,z
_cell_length_a	19.188930
_cell_length_b	19.188930
_cell_length_c	8.140239
_cell_angle_alpha	89.991748
_cell_angle_beta	89.984657
_cell_angle_gamma	83.144779
loop_
_atom_site_label
_atom_site_type_symbol
_atom_site_fract_x
_atom_site_fract_y
_atom_site_fract_z
O1	O	-0.926142	-0.087166	0.137160
O2	O	-0.722831	-0.098901	0.137050
O3	O	-0.830353	0.008622	0.137076
O4	O	-0.818619	-0.194689	0.137134
O5	O	-0.830350	0.008623	-0.136151
O6	O	-0.722827	-0.098900	-0.136177
O7	O	-0.926138	-0.087166	-0.136067
Zn8	Zn	-0.824482	-0.093033	-0.179503
Zn9	Zn	-0.824487	-0.093034	0.180485
O10	O	-0.818616	-0.194688	-0.136093
C11	C	-0.696818	-0.098520	0.000422
C12	C	-0.619313	-0.097380	0.000378
C13	C	-0.829972	0.034634	0.000457
C14	C	-0.828831	0.112138	0.000443
C15	C	-0.952151	-0.087546	0.000565
C16	C	-1.029656	-0.088687	0.000619
C17	C	-0.574389	-0.160470	0.000422
C18	C	-0.501566	-0.159399	0.000440
C19	C	-0.473669	-0.095233	0.000447
C20	C	-0.518603	-0.032133	0.000394
C21	C	-0.591425	-0.033207	0.000359
N22	N	-0.365690	-0.046186	0.093490
N23	N	-0.296511	-0.045170	0.093526
C24	C	-0.254260	-0.091994	0.000546
N25	N	-0.283800	-0.139883	-0.092450
N26	N	-0.352985	-0.140900	-0.092479
C27	C	-0.394707	-0.094062	0.000483
C28	C	-0.130372	-0.153928	0.000607
C29	C	-0.057547	-0.152853	0.000614
C30	C	-0.074586	-0.025586	0.000585
C31	C	-0.147409	-0.026662	0.000561
C32	C	-0.175298	-0.090835	0.000580
C33	C	-0.818997	-0.220700	0.000529
C34	C	-0.820138	-0.298204	0.000554
N35	N	-0.824484	-0.093032	-0.425186
C36	C	-0.891922	0.157062	0.000469
C37	C	-0.890850	0.229886	0.000495
C38	C	-0.826684	0.257782	0.000461
C39	C	-0.763585	0.212849	0.000444
C40	C	-0.764658	0.140026	0.000435
N41	N	-0.777636	0.365788	-0.092550
N42	N	-0.776620	0.434966	-0.092545
C43	C	-0.823446	0.477191	0.000493
N44	N	-0.871336	0.447625	0.093504
N45	N	-0.872354	0.378441	0.093491
C46	C	-0.825513	0.336745	0.000472
C47	C	-0.885379	0.601079	0.000549
C48	C	-0.884305	0.673904	0.000585
C49	C	-0.757038	0.656865	0.000518
C50	C	-0.758114	0.584042	0.000499
C51	C	-0.822286	0.556154	0.000506
N52	N	-0.824490	-0.093029	0.426168
H53	H	-0.597091	-0.212725	0.000440
H54	H	-0.942228	0.266470	0.000523
Br55	Br	0.003424	-0.238485	0.000659
H56	H	-0.153080	-0.206181	0.000598
Br57	Br	-0.679028	0.079054	0.000404
Br58	Br	-0.480745	0.054950	0.000386
Br59	Br	-0.972468	0.563226	0.000543
Br60	Br	-0.440585	-0.245028	0.000489
H61	H	-0.935683	0.710481	0.000616
Br62	Br	-0.676502	0.250706	0.000419
H63	H	-0.628003	0.018171	0.000325
H64	H	-0.051874	0.026659	0.000693
Br65	Br	-0.208382	0.058966	0.000506
Br66	Br	-0.669953	0.694717	0.000489
Br67	Br	-0.979013	0.119216	0.000525
H68	H	-0.706738	0.547464	0.000468
