data_functionalizedCrystal
_audit_creation_method	'MofGen! by Chris Wilmer'
_symmetry_space_group_name_H-M	'P1'
_symmetry_Int_Tables_number	1
_symmetry_cell_setting	triclinic
loop_
_symmetry_equiv_pos_as_xyz
  x,y,z
_cell_length_a	6.817900
_cell_length_b	12.840946
_cell_length_c	14.125469
_cell_angle_alpha	81.488236
_cell_angle_beta	100.398878
_cell_angle_gamma	88.344365
loop_
_atom_site_label
_atom_site_type_symbol
_atom_site_fract_x
_atom_site_fract_y
_atom_site_fract_z
V1	V	-3.882604	0.324806	-0.135392
O2	O	-3.888801	0.319038	0.004159
O3	O	-3.819776	0.322186	-0.266202
O4	O	-3.778325	0.466647	-0.134339
O5	O	-3.930539	0.173577	-0.128617
V6	V	-4.375342	0.306766	-0.118578
O7	O	-4.123648	0.364378	-0.172274
O8	O	-4.584495	0.267195	-0.081696
O9	O	-4.214963	0.309387	0.012232
O10	O	-4.486541	0.312535	-0.258129
O11	O	-4.444803	0.457996	-0.125353
O12	O	-4.256414	0.164925	-0.119631
C13	C	-3.663075	0.316959	-0.298059
C14	C	-3.692621	0.315762	-0.405004
C15	C	-3.610213	0.501233	-0.129849
C16	C	-3.606065	0.619365	-0.129853
C17	C	-4.070892	0.012212	-0.124158
C18	C	-4.087895	0.130340	-0.124136
C19	C	-3.746776	0.313587	-0.600814
C20	C	-3.930535	0.317990	-0.653167
C21	C	-3.960670	0.316779	-0.762123
C22	C	-3.716633	0.314797	-0.491849
V23	V	-3.865571	0.810974	-0.135419
O24	O	-3.902901	0.962201	-0.128656
O25	O	-3.771428	0.663792	-0.134355
O26	O	-3.801207	0.851982	-0.266230
O27	O	-3.872916	0.772708	0.004132
V28	V	-4.356365	0.848470	-0.118614
O29	O	-4.108551	0.795335	-0.172302
O30	O	-4.562789	0.886795	-0.081737
O31	O	-4.227695	0.984404	-0.119676
O32	O	-4.436226	0.703158	-0.125379
O33	O	-4.466211	0.892651	-0.258167
O34	O	-4.197916	0.796214	0.012200
C35	C	-4.035007	0.314611	0.044084
C36	C	-3.984697	0.315814	0.151028
C37	C	-3.644058	0.859420	-0.298080
C38	C	-3.672270	0.896089	-0.405026
C39	C	-4.019000	0.771807	0.044060
C40	C	-3.970064	0.734102	0.151007
C41	C	-3.865010	0.918747	-0.460191
C42	C	-3.891545	0.953217	-0.560676
C43	C	-3.725338	0.965019	-0.605996
C44	C	-3.532582	0.942360	-0.550822
C45	C	-3.506049	0.907899	-0.450338
C46	C	-3.772453	0.703957	0.196307
C47	C	-3.726441	0.668542	0.296797
C48	C	-3.878045	0.663265	0.351985
C49	C	-4.075672	0.693416	0.306678
C50	C	-4.121679	0.728838	0.206191
H51	H	-3.612098	0.308907	-0.637820
H52	H	-3.648981	0.708253	0.151387
H53	H	-4.000368	0.909138	-0.423307
H54	H	-4.048510	0.971658	-0.605585
O55	O	-4.091165	0.323375	-0.608953
C56	C	-4.084802	0.233622	-0.537412
H57	H	-3.990849	0.166945	-0.555411
H58	H	-4.242919	0.207766	-0.535924
H59	H	-4.015497	0.253575	-0.463052
H60	H	-3.397266	0.951976	-0.587737
O61	O	-3.534375	0.639243	0.340633
C62	C	-3.410447	0.651510	0.270369
H63	H	-3.503764	0.649252	0.195192
H64	H	-3.289315	0.584790	0.288273
H65	H	-3.338051	0.730405	0.270827
H66	H	-3.840556	0.634418	0.433807
H67	H	-3.746971	0.993080	-0.687817
H68	H	-3.349096	0.889447	-0.405430
H69	H	-4.199095	0.689115	0.351627
O70	O	-4.313618	0.758000	0.162061
C71	C	-4.376147	0.693971	0.090578
H72	H	-4.239920	0.660077	0.066665
H73	H	-4.476709	0.743300	0.025086
H74	H	-4.462373	0.626760	0.122179
