data_functionalizedCrystal
_audit_creation_method	'MofGen! by Chris Wilmer'
_symmetry_space_group_name_H-M	'P1'
_symmetry_Int_Tables_number	1
_symmetry_cell_setting	triclinic
loop_
_symmetry_equiv_pos_as_xyz
  x,y,z
_cell_length_a	23.532407
_cell_length_b	26.809956
_cell_length_c	23.532407
_cell_angle_alpha	89.999665
_cell_angle_beta	97.151322
_cell_angle_gamma	90.003435
loop_
_atom_site_label
_atom_site_type_symbol
_atom_site_fract_x
_atom_site_fract_y
_atom_site_fract_z
O1	O	0.755264	0.041422	-0.069127
O2	O	0.589401	0.041438	-0.079130
O3	O	0.677334	0.041420	0.008803
O4	O	0.667331	0.041440	-0.157060
O5	O	0.677317	-0.041539	0.008790
O6	O	0.589384	-0.041522	-0.079143
O7	O	0.755247	-0.041537	-0.069140
Zn8	Zn	0.672313	-0.054701	-0.074144
Zn9	Zn	0.672335	0.054602	-0.074126
O10	O	0.667314	-0.041520	-0.157073
C11	C	0.568176	-0.000040	-0.078882
C12	C	0.504959	-0.000035	-0.078116
N13	N	0.672302	-0.129297	-0.074156
C14	C	0.105856	-0.000052	-0.125350
C15	C	0.046456	-0.000055	-0.124638
O16	O	0.009711	-0.000068	-0.168424
N17	N	0.023830	-0.000060	-0.072362
C18	C	0.060607	-0.000067	-0.020794
O19	O	0.035908	-0.000072	0.023737
C20	C	0.120006	-0.000068	-0.021506
C21	C	0.142629	-0.000057	-0.073785
C22	C	0.128479	-0.000042	-0.177625
C23	C	0.187876	-0.000038	-0.178336
C24	C	0.224649	-0.000044	-0.126772
C25	C	0.202025	-0.000053	-0.074497
C26	C	0.156783	-0.000078	0.030062
C27	C	0.216185	-0.000079	0.029345
C28	C	0.238808	-0.000069	-0.022934
C29	C	0.298194	-0.000055	-0.023643
N30	N	0.320820	-0.000050	-0.075920
C31	C	0.284048	-0.000044	-0.127484
C32	C	-0.064135	-0.000067	-0.019302
C33	C	-0.123533	-0.000063	-0.018589
C34	C	-0.137680	-0.000052	-0.122434
C35	C	-0.078281	-0.000052	-0.123146
C36	C	-0.041509	-0.000062	-0.071578
C37	C	0.408784	-0.000035	-0.128974
C38	C	0.468186	-0.000029	-0.129680
C39	C	0.482329	-0.000043	-0.025836
C40	C	0.422932	-0.000047	-0.025129
C41	C	0.386160	-0.000044	-0.076702
O42	O	0.334974	-0.000044	0.020119
O43	O	0.308755	-0.000045	-0.172007
C44	C	0.711267	-0.473930	-0.035199
C45	C	0.711280	-0.682808	-0.035190
O46	O	0.744386	-0.709818	-0.002071
N47	N	0.672338	-0.708924	-0.074114
C48	C	0.633387	-0.682817	-0.113040
O49	O	0.600261	-0.709823	-0.146142
C50	C	0.633371	-0.473940	-0.113045
C51	C	0.672320	-0.447827	-0.074123
C52	C	0.750212	-0.447817	0.003720
C53	C	0.750210	-0.395601	0.003716
C54	C	0.711263	-0.369498	-0.035208
C55	C	0.672318	-0.395611	-0.074128
C56	C	0.594418	-0.447834	-0.151968
C57	C	0.594417	-0.395612	-0.151965
C58	C	0.633365	-0.369499	-0.113043
C59	C	0.633370	-0.317291	-0.113056
N60	N	0.672312	-0.291176	-0.074133
C61	C	0.711259	-0.317279	-0.035209
C62	C	0.633399	-0.792480	-0.113035
C63	C	0.633404	-0.844699	-0.113034
C64	C	0.711296	-0.844687	-0.035184
C65	C	0.711294	-0.792467	-0.035188
C66	C	0.672341	-0.766365	-0.074111
C67	C	0.711253	-0.207621	-0.035222
C68	C	0.711249	-0.155400	-0.035232
C69	C	0.633355	-0.155417	-0.113080
C70	C	0.633360	-0.207633	-0.113072
C71	C	0.672311	-0.233734	-0.074139
O72	O	0.600277	-0.290249	-0.146154
O73	O	0.744372	-0.290264	-0.002103
C74	C	0.711269	-0.526147	-0.035194
C75	C	0.672324	-0.552260	-0.074114
C76	C	0.633377	-0.526157	-0.113038
C77	C	0.672328	-0.604479	-0.074113
C78	C	0.711275	-0.630582	-0.035189
C79	C	0.750217	-0.604466	0.003734
C80	C	0.750215	-0.552250	0.003730
C81	C	0.594435	-0.552272	-0.151961
C82	C	0.594440	-0.604489	-0.151954
C83	C	0.633387	-0.630592	-0.113030
C84	C	0.776472	-0.000058	-0.069388
C85	C	0.839689	-0.000060	-0.070154
C86	C	0.677071	-0.000060	0.030013
C87	C	0.676305	-0.000064	0.093230
N88	N	0.672350	0.129198	-0.074110
C89	C	0.667577	-0.000038	-0.178283
C90	C	0.668343	-0.000031	-0.241500
C91	C	0.723539	-0.000041	0.492333
C92	C	0.722827	-0.000037	0.551733
O93	O	0.766613	-0.000023	0.588478
N94	N	0.670551	-0.000033	0.574359
C95	C	0.618983	-0.000027	0.537582
O96	O	0.574452	-0.000023	0.562281
C97	C	0.619695	-0.000027	0.478182
C98	C	0.671974	-0.000037	0.455560
C99	C	0.775814	-0.000050	0.469710
C100	C	0.776525	-0.000055	0.410313
C101	C	0.724961	-0.000051	0.373540
C102	C	0.672685	-0.000042	0.396164
C103	C	0.568127	-0.000018	0.441406
C104	C	0.568844	-0.000018	0.382004
C105	C	0.621123	-0.000028	0.359381
C106	C	0.621832	-0.000042	0.299995
N107	N	0.674109	-0.000047	0.277368
C108	C	0.725673	-0.000051	0.314141
C109	C	0.617491	-0.000026	0.662324
C110	C	0.616778	-0.000029	0.721722
C111	C	0.720623	-0.000038	0.735869
C112	C	0.721335	-0.000039	0.676470
C113	C	0.669767	-0.000030	0.639698
C114	C	0.727163	-0.000062	0.189405
C115	C	0.727869	-0.000068	0.130003
C116	C	0.624025	-0.000057	0.115860
C117	C	0.623318	-0.000052	0.175257
C118	C	0.674891	-0.000053	0.212029
O119	O	0.578070	-0.000055	0.263215
O120	O	0.770196	-0.000049	0.289433
H121	H	0.378851	-0.000035	-0.170970
H122	H	0.582043	-0.000055	0.085909
N123	N	0.773302	-0.000032	0.773431
N124	N	0.819977	-0.000034	0.753230
H125	H	0.857180	-0.000029	0.779757
N126	N	0.133697	-0.000098	0.083472
N127	N	0.145079	-0.035077	0.118142
H128	H	0.128777	-0.035093	0.155867
N129	N	0.253746	-0.000077	0.082023
N130	N	0.288468	0.034894	0.093222
H131	H	0.314994	0.034897	0.130426
N132	N	0.399828	-0.000058	0.028276
N133	N	0.411205	-0.035033	0.062954
H134	H	0.394891	-0.035046	0.100673
N135	N	0.519899	-0.000063	0.026832
N136	N	0.518004	-0.035043	0.061664
H137	H	0.544540	-0.035062	0.098861
H138	H	0.743009	-0.865949	-0.003491
H139	H	0.486602	-0.000020	-0.172255
H140	H	0.819097	-0.000061	0.391900
H141	H	0.574207	-0.000030	0.740136
N142	N	0.751034	-0.128735	0.004538
N143	N	0.785799	-0.152051	0.039294
H144	H	0.813893	-0.133221	0.067384
H145	H	0.742970	-0.228866	-0.003518
N146	N	0.514724	0.000006	0.464506
N147	N	0.502751	0.034983	0.496065
H148	H	0.465032	0.035002	0.512379
N149	N	0.593573	-0.128755	-0.152845
N150	N	0.594048	-0.134584	-0.205484
H151	H	0.565949	-0.115753	-0.233567
N152	N	0.779848	-0.000061	0.226952
N153	N	0.826515	-0.000069	0.206735
H154	H	0.863725	-0.000071	0.233252
N155	N	-0.055166	-0.000042	-0.176543
N156	N	-0.023595	0.034928	-0.188523
H157	H	-0.007271	0.034934	-0.226236
N158	N	0.828496	-0.000051	0.507259
N159	N	0.875162	-0.000057	0.487040
H160	H	0.912372	-0.000061	0.513555
N161	N	0.210970	-0.000027	-0.231744
N162	N	0.178121	-0.000022	-0.277775
H163	H	0.194427	-0.000015	-0.315498
H164	H	0.763906	-0.000046	0.658056
H165	H	0.098544	-0.000039	-0.219617
H166	H	0.562724	-0.625746	-0.183654
H167	H	0.743009	-0.771209	-0.003494
N168	N	0.554660	-0.525614	-0.191736
N169	N	0.572528	-0.496482	-0.227003
H170	H	0.544438	-0.477657	-0.255100
H171	H	-0.141947	-0.000064	0.023982
N172	N	0.781274	-0.000087	0.106895
N173	N	0.815951	-0.035061	0.118271
H174	H	0.853667	-0.035075	0.101953
N175	N	0.790040	-0.368939	0.043438
N176	N	0.824834	-0.392260	0.078158
H177	H	0.852981	-0.373434	0.106200
N178	N	0.789992	-0.631134	0.043505
N179	N	0.789505	-0.625302	0.096143
H180	H	0.817591	-0.644138	0.124233
H181	H	0.601694	-0.865957	-0.144734
H182	H	0.601678	-0.771231	-0.144732
N183	N	-0.175248	-0.000063	-0.175109
N184	N	-0.173353	-0.035033	-0.209953
H185	H	-0.199885	-0.035042	-0.247153
N186	N	-0.026567	-0.000075	0.033372
N187	N	0.008155	-0.035045	0.044559
H188	H	0.034686	-0.035051	0.081760
N189	N	0.554632	-0.474492	-0.191734
N190	N	0.519864	-0.451169	-0.226480
H191	H	0.491763	-0.469994	-0.254569
H192	H	0.781927	-0.469066	0.035420
N193	N	0.554620	-0.368958	-0.191728
N194	N	0.519851	-0.392283	-0.226472
H195	H	0.491745	-0.373460	-0.254556
N196	N	0.593575	-0.234302	-0.152835
N197	N	0.558803	-0.210987	-0.187585
H198	H	0.530699	-0.229818	-0.215664
N199	N	0.790005	-0.525588	0.043492
N200	N	0.824772	-0.548909	0.078240
H201	H	0.852875	-0.530083	0.106326
N202	N	0.564807	-0.000019	0.624772
N203	N	0.518139	-0.000014	0.644987
H204	H	0.480930	-0.000008	0.618469
H205	H	0.526850	-0.000011	0.352066
N206	N	0.569912	-0.000058	0.198360
N207	N	0.523877	-0.000062	0.165517
H208	H	0.486157	-0.000065	0.181829
