data_functionalizedCrystal
_audit_creation_method	'MofGen! by Chris Wilmer'
_symmetry_space_group_name_H-M	'P1'
_symmetry_Int_Tables_number	1
_symmetry_cell_setting	triclinic
loop_
_symmetry_equiv_pos_as_xyz
  x,y,z
_cell_length_a	17.699083
_cell_length_b	11.792241
_cell_length_c	16.776229
_cell_angle_alpha	89.993219
_cell_angle_beta	89.998886
_cell_angle_gamma	83.738215
loop_
_atom_site_label
_atom_site_type_symbol
_atom_site_fract_x
_atom_site_fract_y
_atom_site_fract_z
O1	O	1.004843	0.143527	-0.066177
O2	O	0.784565	0.162200	-0.066203
O3	O	0.900050	-0.012371	-0.066184
O4	O	0.889358	0.318098	-0.066196
O5	O	0.900034	-0.012382	0.066393
O6	O	0.784549	0.162189	0.066374
O7	O	1.004828	0.143516	0.066400
Zn8	Zn	0.894686	0.152851	0.087436
Zn9	Zn	0.894706	0.152865	-0.087239
O10	O	0.889343	0.318087	0.066381
C11	C	0.756356	0.161525	0.000082
C12	C	0.672328	0.159518	0.000072
C13	C	0.899370	-0.054660	0.000104
C14	C	0.897360	-0.180649	0.000103
C15	C	0.624253	0.261988	0.000069
C16	C	0.545299	0.260095	0.000079
C17	C	0.514422	0.155731	0.000087
C18	C	0.562503	0.053254	0.000093
C19	C	0.641455	0.055148	0.000089
C20	C	0.244099	0.045613	0.000113
C21	C	0.165141	0.043727	0.000116
C22	C	0.147944	0.250560	0.000104
C23	C	0.226896	0.252454	0.000099
C24	C	0.274970	0.149977	0.000109
C25	C	0.360580	0.152031	0.000099
C26	C	0.428814	0.153676	0.000091
C27	C	0.893664	-0.411317	0.000090
C28	C	0.895718	-0.282956	0.000097
C29	C	1.033036	0.144190	0.000113
C30	C	1.117065	0.146198	0.000118
C31	C	0.890022	0.360375	0.000091
C32	C	0.892032	0.486365	0.000087
N33	N	0.894678	0.152841	0.206647
N34	N	0.894721	0.152866	-0.206450
C35	C	0.945830	0.075572	0.248373
C36	C	0.945834	0.075571	0.331825
C37	C	0.894689	0.152845	0.373550
C38	C	0.843531	0.230117	0.331819
C39	C	0.843524	0.230112	0.248368
C40	C	0.843559	0.230139	0.668366
C41	C	0.843571	0.230141	0.751822
C42	C	0.945869	0.075599	0.751823
C43	C	0.945862	0.075593	0.668372
C44	C	0.894702	0.152861	0.626648
C45	C	0.894697	0.152860	0.536160
C46	C	0.894697	0.152853	0.464037
H47	H	0.649386	0.346973	0.000061
H48	H	0.987486	0.012653	0.365798
H49	H	0.987482	0.012652	0.214406
H50	H	0.506159	0.343536	0.000075
C51	C	1.002121	-0.009410	0.622474
C52	C	0.972187	-0.096153	0.565117
C53	C	1.028444	-0.181161	0.519220
C54	C	1.114636	-0.179426	0.530680
C55	C	1.144574	-0.092680	0.588040
C56	C	1.088317	-0.007672	0.633937
H57	H	0.908379	-0.097440	0.556632
H58	H	1.006281	-0.245377	0.476758
H59	H	1.156281	-0.242355	0.496704
H60	H	1.208382	-0.091392	0.596525
H61	H	1.110480	0.056544	0.676398
C62	C	0.787269	0.315122	0.377712
C63	C	0.787309	0.315191	0.469504
C64	C	0.731047	0.400202	0.515395
C65	C	0.674746	0.485142	0.469493
C66	C	0.674704	0.485076	0.377695
C67	C	0.730965	0.400066	0.331805
H68	H	0.828989	0.252310	0.503489
H69	H	0.731079	0.400250	0.583350
H70	H	0.633097	0.548072	0.503463
H71	H	0.633024	0.547957	0.343711
H72	H	0.730934	0.400017	0.263850
C73	C	0.095061	0.363290	0.000102
C74	C	0.098829	0.448871	0.068936
C75	C	0.045949	0.561598	0.068930
C76	C	-0.010699	0.588744	0.000090
C77	C	-0.014470	0.503161	-0.068749
C78	C	0.038410	0.390434	-0.068743
H79	H	0.140765	0.428778	0.119900
H80	H	0.048740	0.624952	0.119890
H81	H	-0.049844	0.672191	0.000086
H82	H	-0.056406	0.523254	-0.119713
H83	H	0.035619	0.327080	-0.119703
C84	C	1.002142	-0.009409	0.797721
C85	C	1.002154	-0.009419	0.889513
C86	C	1.058427	-0.094421	0.935408
C87	C	1.114689	-0.179413	0.889510
C88	C	1.114679	-0.179406	0.797713
C89	C	1.058405	-0.094404	0.751818
H90	H	0.960504	0.053500	0.923494
H91	H	1.058434	-0.094426	1.003363
H92	H	1.156345	-0.242337	0.923484
H93	H	1.156328	-0.242326	0.763732
H94	H	1.058398	-0.094400	0.683863
C95	C	0.296974	-0.067109	0.000111
C96	C	0.263008	-0.181903	0.000109
C97	C	0.315887	-0.294630	0.000102
C98	C	0.402732	-0.292564	0.000097
C99	C	0.436703	-0.177765	0.000099
C100	C	0.383824	-0.065038	0.000106
H101	H	0.198716	-0.183437	0.000113
H102	H	0.290739	-0.379612	0.000101
H103	H	0.441876	-0.376012	0.000092
H104	H	0.500995	-0.176231	0.000095
H105	H	0.408972	0.019944	0.000107
C106	C	0.787303	0.315141	0.797722
C107	C	0.731026	0.400130	0.751830
C108	C	0.674762	0.485125	0.797731
C109	C	0.674776	0.485131	0.889523
C110	C	0.731056	0.400139	0.935420
C111	C	0.787320	0.315144	0.889520
H112	H	0.731013	0.400128	0.683875
H113	H	0.633100	0.548042	0.763754
H114	H	0.633127	0.548050	0.923501
H115	H	0.731068	0.400141	1.003375
H116	H	0.828982	0.252227	0.923497
H117	H	0.801869	0.293030	0.214396
H118	H	0.252031	0.337438	0.000089
C119	C	0.694341	-0.057570	0.000091
C120	C	0.690583	-0.143153	0.068939
C121	C	0.743469	-0.255874	0.068946
C122	C	0.800113	-0.283012	0.000104
C123	C	0.803874	-0.197426	-0.068750
C124	C	0.750988	-0.084705	-0.068756
H125	H	0.648649	-0.123067	0.119905
H126	H	0.740685	-0.319230	0.119917
H127	H	0.839262	-0.366455	0.000109
H128	H	0.845808	-0.217513	-0.119715
H129	H	0.753772	-0.021349	-0.119727
H130	H	0.537357	-0.031721	0.000112
H131	H	0.140005	-0.041263	0.000123
H132	H	0.801903	0.293055	0.634401
