data_functionalizedCrystal
_audit_creation_method	'MofGen! by Chris Wilmer'
_symmetry_space_group_name_H-M	'P1'
_symmetry_Int_Tables_number	1
_symmetry_cell_setting	triclinic
loop_
_symmetry_equiv_pos_as_xyz
  x,y,z
_cell_length_a	12.759401
_cell_length_b	29.839131
_cell_length_c	12.759393
_cell_angle_alpha	90.036816
_cell_angle_beta	90.019676
_cell_angle_gamma	90.041847
loop_
_atom_site_label
_atom_site_type_symbol
_atom_site_fract_x
_atom_site_fract_y
_atom_site_fract_z
Zn1	Zn	1.606071	-0.178827	0.593939
Zn2	Zn	1.605880	-0.253964	0.418239
Zn3	Zn	1.430370	-0.178849	0.418278
Zn4	Zn	1.430280	-0.253931	0.593880
O5	O	1.518150	-0.216392	0.506084
O6	O	1.753067	-0.188798	0.570640
O7	O	1.582556	-0.244023	0.271223
O8	O	1.453795	-0.115979	0.441620
O9	O	1.752927	-0.244001	0.441554
O10	O	1.582882	-0.115962	0.570677
O11	O	1.453610	-0.188836	0.271251
O12	O	1.283337	-0.188804	0.441563
O13	O	1.453641	-0.243945	0.740909
O14	O	1.283271	-0.243967	0.570578
O15	O	1.582794	-0.188766	0.740952
O16	O	1.582469	-0.316826	0.441498
O17	O	1.453456	-0.316802	0.570541
C18	C	1.245183	-0.216385	0.506069
C19	C	1.128406	-0.216392	0.506088
C20	C	1.073618	-0.187700	0.573406
C21	C	0.963894	-0.187705	0.573413
C22	C	0.963756	-0.245097	0.438780
C23	C	1.073478	-0.245090	0.438769
C24	C	0.814032	-0.134751	0.611195
C25	C	0.759240	-0.106063	0.678530
C26	C	0.794906	-0.099216	0.781070
C27	C	0.885362	-0.121063	0.816297
C28	C	0.940149	-0.149755	0.748967
C29	C	0.904485	-0.156593	0.646412
C30	C	1.223342	-0.298045	0.400997
C31	C	1.278131	-0.326739	0.333673
C32	C	1.242467	-0.333590	0.231131
C33	C	1.152007	-0.311751	0.195908
C34	C	1.097218	-0.283056	0.263233
C35	C	1.132890	-0.276204	0.365774
C36	C	1.517961	-0.333115	0.506032
C37	C	1.517976	-0.383049	0.506045
C38	C	1.585450	-0.692693	0.438990
C39	C	1.585579	-0.880366	0.439030
O40	O	1.642798	-0.904630	0.381978
N41	N	1.518368	-0.903834	0.506163
C42	C	1.451125	-0.880382	0.573295
O43	O	1.393968	-0.904650	0.630405
C44	C	1.451001	-0.692710	0.573259
C45	C	1.518209	-0.669244	0.506114
C46	C	1.652653	-0.669226	0.371851
C47	C	1.652616	-0.622311	0.371838
C48	C	1.585375	-0.598862	0.438962
C49	C	1.518172	-0.622328	0.506101
C50	C	1.383764	-0.669258	0.640396
C51	C	1.383741	-0.622337	0.640383
C52	C	1.450949	-0.598871	0.573238
C53	C	1.450895	-0.551964	0.573212
N54	N	1.518106	-0.528495	0.506079
C55	C	1.585346	-0.551944	0.438954
C56	C	1.451193	-0.978913	0.573308
C57	C	1.451223	-1.025830	0.573316
C58	C	1.585679	-1.025811	0.439052
C59	C	1.585643	-0.978892	0.439040
C60	C	1.518404	-0.955444	0.506175
C61	C	1.585262	-0.453418	0.438930
C62	C	1.585216	-0.406499	0.438920
C63	C	1.450764	-0.406522	0.573187
C64	C	1.450806	-0.453438	0.573194
C65	C	1.518064	-0.476885	0.506063
O66	O	1.393715	-0.527670	0.630243
O67	O	1.642510	-0.527668	0.381870
C68	C	1.585487	-0.739608	0.439003
C69	C	1.518283	-0.763075	0.506142
C70	C	1.451043	-0.739625	0.573266
C71	C	1.518313	-0.809992	0.506149
C72	C	1.585553	-0.833441	0.439025
C73	C	1.652764	-0.809973	0.371892
C74	C	1.652727	-0.763057	0.371878
C75	C	1.383832	-0.763094	0.640399
C76	C	1.383874	-0.810010	0.640407
C77	C	1.451114	-0.833459	0.573282
C78	C	1.792184	-0.216401	0.506099
C79	C	1.908960	-0.216404	0.506106
C80	C	1.518229	-0.216349	0.780117
C81	C	1.518263	-0.216331	0.896894
C82	C	1.518370	-0.099214	0.506159
C83	C	1.518463	-0.049280	0.506191
C84	C	1.518133	-0.216403	0.233117
C85	C	1.518303	-0.216295	0.116340
C86	C	1.585518	-0.187595	0.951780
C87	C	1.585535	-0.187575	1.061504
C88	C	1.451040	-0.245032	1.061447
C89	C	1.451018	-0.245049	0.951725
C90	C	1.623205	-0.134571	1.211495
C91	C	1.690477	-0.105839	1.266385
C92	C	1.792997	-0.098951	1.230793
C93	C	1.828267	-0.120801	1.140313
C94	C	1.761001	-0.149537	1.085429
C95	C	1.658466	-0.156417	1.121019
C96	C	1.413359	-0.298054	0.801732
C97	C	1.346098	-0.326792	0.746846
C98	C	1.243575	-0.333685	0.782435
C99	C	1.208310	-0.311842	0.872919
C100	C	1.275571	-0.283104	0.927805
C101	C	1.378092	-0.276210	0.892207
H102	H	0.784992	-0.140318	0.527695
Br103	Br	0.889205	-0.284044	0.347425
H104	H	1.661750	-0.088048	1.340054
H105	H	1.539723	-0.140173	1.240478
Br106	Br	1.103589	-0.321055	0.056746
H107	H	1.396294	-0.268415	1.106103
H108	H	1.396485	-1.044933	0.627982
H109	H	1.246849	-0.265319	1.001481
Br110	Br	1.292558	-0.701093	0.731538
Br111	Br	1.359930	-0.947097	0.664430
Br112	Br	1.069171	-0.321198	0.921230
H113	H	1.847770	-0.075556	1.275492
Br114	Br	1.292651	-0.841851	0.731538
Br115	Br	1.152302	-0.372698	0.707963
H116	H	1.023561	-0.265274	0.234546
H117	H	1.640429	-1.044911	0.384397
H118	H	1.374824	-0.344582	0.673176
Br119	Br	1.676541	-0.485232	0.347822
Br120	Br	1.808856	-0.179192	0.962645
H121	H	1.328988	-0.603248	0.695056
Br122	Br	1.743946	-0.731217	0.280751
Br123	Br	1.148160	-0.148752	0.664764
Br124	Br	0.933748	-0.111778	0.955475
Br125	Br	1.062902	-0.179405	0.796763
Br126	Br	0.720538	-0.060285	0.872454
Br127	Br	1.552487	-0.288684	0.753397
H128	H	1.287066	-0.356969	0.176327
Br129	Br	0.636466	-0.076423	0.630735
Br130	Br	1.359570	-0.485286	0.664294
H131	H	1.396015	-0.387423	0.627837
H132	H	1.639945	-0.387394	0.384239
H133	H	1.351798	-0.344516	0.362354
H134	H	1.640370	-0.959789	0.384365
Br135	Br	1.271759	-0.288741	0.540163
Br136	Br	1.676775	-0.148620	0.877370
H137	H	1.707345	-0.603207	0.317166
H138	H	1.707414	-0.688314	0.317190
H139	H	1.707511	-0.829073	0.317233
Br140	Br	1.967418	-0.111460	1.092027
H141	H	1.329078	-0.744005	0.695062
