data_functionalizedCrystal
_audit_creation_method	'MofGen! by Chris Wilmer'
_symmetry_space_group_name_H-M	'P1'
_symmetry_Int_Tables_number	1
_symmetry_cell_setting	triclinic
loop_
_symmetry_equiv_pos_as_xyz
  x,y,z
_cell_length_a	14.044220
_cell_length_b	14.044191
_cell_length_c	11.804917
_cell_angle_alpha	102.941295
_cell_angle_beta	102.929865
_cell_angle_gamma	86.809673
loop_
_atom_site_label
_atom_site_type_symbol
_atom_site_fract_x
_atom_site_fract_y
_atom_site_fract_z
O1	O	0.247824	-1.259520	0.098969
O2	O	0.239514	-0.982845	0.098984
O3	O	0.105331	-1.117032	0.098965
O4	O	0.382007	-1.125333	0.098988
O5	O	0.070059	-1.152342	-0.099078
O6	O	0.204242	-1.018155	-0.099059
O7	O	0.212552	-1.294830	-0.099074
Cu8	Cu	0.205176	-1.159717	-0.117149
Cu9	Cu	0.246889	-1.117958	0.117059
O10	O	0.346735	-1.160644	-0.099055
C11	C	0.052073	-1.131051	-0.000057
C12	C	-0.054070	-1.120207	-0.000058
C13	C	0.218241	-0.964878	-0.000036
C14	C	0.207395	-0.858734	-0.000030
C15	C	0.233824	-1.312797	-0.000051
C16	C	0.244672	-1.418940	-0.000049
C17	C	-0.248405	-1.100377	-0.000039
C18	C	-0.299533	-1.177292	-0.000040
C19	C	-0.407668	-1.166259	-0.000030
C20	C	-0.140261	-1.111409	-0.000050
C21	C	0.399993	-1.146624	-0.000030
C22	C	0.506138	-1.157467	-0.000022
C23	C	0.264494	-0.613277	-0.000037
C24	C	0.187577	-0.664403	-0.000042
C25	C	0.198607	-0.772539	-0.000035
C26	C	0.253466	-0.505131	-0.000044
N27	N	0.175837	-1.189095	-0.281879
C28	C	0.105337	-1.259643	-0.344198
C29	C	0.083111	-1.281867	-0.468852
C30	C	0.131387	-1.233549	-0.531198
C31	C	0.201893	-1.163004	-0.468878
C32	C	0.224116	-1.140773	-0.344212
C33	C	0.250166	-1.114679	-0.531212
C34	C	0.320672	-1.044133	-0.468892
C35	C	0.342892	-1.021906	-0.344239
C36	C	0.294616	-1.070224	-0.281893
C37	C	0.227942	-1.136910	-0.655877
C38	C	0.346721	-1.018039	-0.655891
C39	C	0.368948	-0.995816	-0.531238
N40	N	0.276221	-1.088588	0.281789
H41	H	-0.262079	-1.251412	0.000036
O42	O	-0.297990	-1.002183	-0.000053
H43	H	-0.376376	-1.008822	-0.000063
H44	H	0.113459	-0.626946	0.000036
O45	O	0.362693	-0.662859	-0.000021
H46	H	0.385751	-0.693707	0.080708
H47	H	0.025705	-1.339303	-0.519588
H48	H	0.312715	-1.052133	-0.180390
O49	O	0.107431	-1.257525	-0.665646
H50	H	0.050303	-1.314705	-0.698507
H51	H	0.400294	-0.964457	-0.293498
H52	H	0.426355	-0.938376	-0.480482
H53	H	0.170536	-1.194347	-0.706607
H54	H	0.066032	-1.298972	-0.293428
H55	H	0.386030	-0.978692	-0.706652
