data_functionalizedCrystal
_audit_creation_method	'MofGen! by Chris Wilmer'
_symmetry_space_group_name_H-M	'P1'
_symmetry_Int_Tables_number	1
_symmetry_cell_setting	triclinic
loop_
_symmetry_equiv_pos_as_xyz
  x,y,z
_cell_length_a	17.699104
_cell_length_b	15.944499
_cell_length_c	16.776229
_cell_angle_alpha	89.996595
_cell_angle_beta	89.991971
_cell_angle_gamma	83.384563
loop_
_atom_site_label
_atom_site_type_symbol
_atom_site_fract_x
_atom_site_fract_y
_atom_site_fract_z
O1	O	1.004232	0.106308	-0.066299
O2	O	0.783877	0.120109	-0.066296
O3	O	0.900093	-0.009081	-0.066299
O4	O	0.888017	0.235499	-0.066296
O5	O	0.900077	-0.009089	0.066278
O6	O	0.783862	0.120102	0.066281
O7	O	1.004217	0.106300	0.066278
Zn8	Zn	0.894037	0.113199	0.087329
Zn9	Zn	0.894057	0.113210	-0.087347
O10	O	0.888002	0.235491	0.066281
C11	C	0.755672	0.119608	-0.000007
C12	C	0.671653	0.118115	-0.000007
C13	C	0.899591	-0.040379	-0.000012
C14	C	0.898108	-0.133624	-0.000018
C15	C	0.146886	0.185530	-0.000014
C16	C	0.225831	0.186928	-0.000017
C17	C	0.274332	0.111088	-0.000017
C18	C	0.243883	0.033845	-0.000024
C19	C	0.164939	0.032449	-0.000027
C20	C	0.562258	0.039476	-0.000011
C21	C	0.641207	0.040878	-0.000005
C22	C	0.623151	0.193954	-0.000000
C23	C	0.544206	0.192558	-0.000004
C24	C	0.513764	0.115316	-0.000014
C25	C	0.428162	0.113802	-0.000013
C26	C	0.359933	0.112601	-0.000012
C27	C	0.965626	-0.425297	-0.000015
C28	C	0.930521	-0.364205	0.065356
C29	C	0.892723	-0.469250	-0.000009
C30	C	0.930517	-0.364203	-0.065354
C31	C	0.895373	-0.304347	-0.000015
C32	C	0.857598	-0.409386	0.065415
C33	C	0.857604	-0.409391	-0.065353
C34	C	0.822446	-0.348316	0.000033
C35	C	0.891199	-0.564247	-0.000005
C36	C	0.896892	-0.209351	-0.000013
C37	C	1.032422	0.106801	-0.000012
C38	C	1.116442	0.108294	-0.000018
C39	C	0.888504	0.266788	-0.000007
C40	C	0.889986	0.360034	-0.000007
N41	N	0.894029	0.113192	0.206540
N42	N	0.894072	0.113211	-0.206558
C43	C	0.945504	0.056010	0.248256
C44	C	0.945509	0.056009	0.331708
C45	C	0.894040	0.113195	0.373443
C46	C	0.842559	0.170380	0.331721
C47	C	0.842552	0.170376	0.248270
C48	C	0.842586	0.170397	0.668268
C49	C	0.842599	0.170398	0.751725
C50	C	0.945543	0.056029	0.751706
C51	C	0.945536	0.056025	0.668255
C52	C	0.894052	0.113207	0.626541
C53	C	0.894047	0.113206	0.536052
C54	C	0.894048	0.113201	0.463930
H55	H	0.107401	0.247288	-0.000008
N56	N	0.789972	0.228800	0.205668
N57	N	0.790997	0.306441	0.214981
H58	H	0.753859	0.347705	0.184895
H59	H	0.826800	-0.429438	-0.120620
H60	H	0.961351	-0.344179	0.120619
N61	N	0.969232	-0.339082	-0.134670
N62	N	1.037258	-0.367015	-0.146298
H63	H	1.064608	-0.349274	-0.195247
N64	N	0.789990	0.228804	0.374347
N65	N	0.791011	0.306444	0.365017
H66	H	0.753884	0.347710	0.395119
N67	N	0.998044	-0.002456	0.205641
N68	N	1.043969	-0.053542	0.242901
H69	H	1.081060	-0.094856	0.212807
H70	H	0.987462	0.009466	0.785679
N71	N	0.998092	-0.002411	0.374307
N72	N	1.044044	-0.053463	0.337035
H73	H	1.081183	-0.094726	0.367119
N74	N	0.790008	0.228799	0.625649
N75	N	0.743031	0.202210	0.579096
H76	H	0.705897	0.243459	0.548990
H77	H	0.987449	0.009462	0.634277
H78	H	0.826781	-0.429309	0.120739
N79	N	0.746479	-0.306541	0.000086
N80	N	0.702461	-0.318154	0.056262
H81	H	0.648810	-0.288650	0.056304
N82	N	0.293410	-0.043633	-0.000030
N83	N	0.290645	-0.095036	-0.055915
H84	H	0.325621	-0.149759	-0.055917
N85	N	0.256916	0.265830	-0.000021
N86	N	0.213604	0.333538	-0.000021
H87	H	0.235556	0.389268	-0.000027
N88	N	0.790017	0.228821	0.794345
N89	N	0.744053	0.279871	0.757092
H90	H	0.706920	0.321132	0.787192
H91	H	0.647945	0.256849	0.000005
N92	N	0.494667	0.270028	0.000015
N93	N	0.497433	0.321427	0.055903
H94	H	0.462448	0.376143	0.055916
N95	N	0.690741	-0.036603	-0.000002
N96	N	0.663552	-0.105562	-0.000010
H97	H	0.698534	-0.160281	-0.000006
H98	H	1.026129	-0.458749	0.000047
N99	N	0.531181	-0.039429	-0.000025
N100	N	0.574496	-0.107135	-0.000025
H101	H	0.552547	-0.162866	-0.000036
H102	H	0.140153	-0.030445	-0.000032
