data_functionalizedCrystal
_audit_creation_method	'MofGen! by Chris Wilmer'
_symmetry_space_group_name_H-M	'P1'
_symmetry_Int_Tables_number	1
_symmetry_cell_setting	triclinic
loop_
_symmetry_equiv_pos_as_xyz
  x,y,z
_cell_length_a	16.098538
_cell_length_b	11.026607
_cell_length_c	11.026607
_cell_angle_alpha	71.413983
_cell_angle_beta	86.668643
_cell_angle_gamma	86.664064
loop_
_atom_site_label
_atom_site_type_symbol
_atom_site_fract_x
_atom_site_fract_y
_atom_site_fract_z
O1	O	-0.069254	-1.722260	0.538069
O2	O	-0.069256	-1.355680	0.477305
O3	O	-0.069252	-1.508588	0.324397
O4	O	-0.069258	-1.569352	0.690977
O5	O	0.069261	-1.517517	0.315496
O6	O	0.069257	-1.364609	0.468405
O7	O	0.069259	-1.731189	0.529168
Zn8	Zn	0.091250	-1.549316	0.497373
Zn9	Zn	-0.091247	-1.537552	0.509100
O10	O	0.069255	-1.578280	0.682077
C11	C	0.000001	-1.312485	0.461645
C12	C	0.000000	-1.170471	0.428228
N13	N	-0.215796	-1.529522	0.517094
C14	C	0.000003	-1.501843	0.272287
C15	C	0.000000	-1.468426	0.130273
C16	C	-0.259380	-1.594617	0.452387
C17	C	-0.346569	-1.588996	0.457976
C18	C	-0.390173	-1.518273	0.528266
C19	C	-0.346583	-1.453177	0.592981
C20	C	-0.259396	-1.458806	0.587398
C21	C	-0.653424	-1.497887	0.548504
C22	C	-0.740617	-1.492260	0.554078
C23	C	-0.740597	-1.628082	0.419075
C24	C	-0.653408	-1.633698	0.413493
C25	C	-0.609826	-1.568607	0.478214
C26	C	-0.479294	-1.512523	0.533977
C27	C	-0.520706	-1.574366	0.472509
N28	N	0.215799	-1.557354	0.489371
C29	C	0.000000	-1.774384	0.544828
C30	C	-0.000004	-1.916398	0.578246
C31	C	-0.000002	-1.116821	0.520498
C32	C	-0.000003	-0.970043	0.485962
C33	C	-0.000001	-1.560695	0.076624
C34	C	-0.000004	-1.526159	-0.070154
C35	C	-0.000002	-1.585026	0.734187
C36	C	-0.000005	-1.618442	0.876201
H37	H	-0.223883	-1.652201	0.395144
H38	H	-0.000010	-1.421589	-0.132883
H39	H	0.000005	-1.665259	0.139357
H40	H	0.000001	-1.179555	0.625061
H41	H	-0.000067	-1.723009	-0.061068
H42	H	-0.382054	-1.642002	0.405288
H43	H	-0.000006	-1.363863	0.067541
H44	H	-0.617907	-1.691287	0.356258
H45	H	-0.776089	-1.681077	0.366385
H46	H	-0.000022	-0.907312	0.381394
H47	H	-0.000001	-0.979125	0.682816
H48	H	-0.776116	-1.434664	0.611319
H49	H	-0.000020	-1.107736	0.323667
H50	H	-0.617946	-1.444884	0.601199
H51	H	-0.223911	-1.405801	0.640091
H52	H	-0.485201	-1.631954	0.415285
H53	H	-0.382091	-1.395598	0.650219
H54	H	-0.514804	-1.454936	0.591205
