data_functionalizedCrystal
_audit_creation_method	'MofGen! by Chris Wilmer'
_symmetry_space_group_name_H-M	'P1'
_symmetry_Int_Tables_number	1
_symmetry_cell_setting	triclinic
loop_
_symmetry_equiv_pos_as_xyz
  x,y,z
_cell_length_a	12.759401
_cell_length_b	25.639239
_cell_length_c	12.759393
_cell_angle_alpha	90.037052
_cell_angle_beta	90.018496
_cell_angle_gamma	90.038847
loop_
_atom_site_label
_atom_site_type_symbol
_atom_site_fract_x
_atom_site_fract_y
_atom_site_fract_z
Zn1	Zn	1.606080	-0.208118	0.593941
Zn2	Zn	2.106080	0.291882	1.093941
Zn3	Zn	1.605901	-0.295564	0.418245
Zn4	Zn	2.105901	0.204436	0.918245
Zn5	Zn	1.430382	-0.208145	0.418281
Zn6	Zn	1.930382	0.291855	0.918281
Zn7	Zn	1.430297	-0.295524	0.593886
Zn8	Zn	1.930297	0.204476	1.093886
O9	O	1.518165	-0.251838	0.506088
O10	O	2.018165	0.248162	1.006088
O11	O	1.753078	-0.219723	0.570643
O12	O	2.253078	0.280277	1.070643
O13	O	1.582579	-0.283996	0.271228
O14	O	2.082579	0.216004	0.771228
O15	O	1.453799	-0.134976	0.441621
O16	O	1.953799	0.365024	0.941621
O17	O	1.752946	-0.283970	0.441559
O18	O	2.252946	0.216030	0.941559
O19	O	1.582884	-0.134956	0.570678
O20	O	2.082884	0.365044	1.070678
O21	O	1.453626	-0.219770	0.271255
O22	O	1.953626	0.280230	0.771255
O23	O	1.283350	-0.219731	0.441567
O24	O	1.783350	0.280269	0.941567
O25	O	1.453655	-0.283901	0.740914
O26	O	1.953655	0.216099	1.240914
O27	O	1.283288	-0.283928	0.570584
O28	O	1.783288	0.216072	1.070584
O29	O	1.582802	-0.219684	0.740955
O30	O	2.082802	0.280316	1.240955
O31	O	1.582496	-0.368724	0.441505
O32	O	2.082496	0.131276	0.941505
O33	O	1.453481	-0.368695	0.570549
O34	O	1.953481	0.131305	1.070549
C35	C	1.245198	-0.251828	0.506074
C36	C	1.745198	0.248172	1.006074
C37	C	1.128421	-0.251837	0.506093
C38	C	1.628421	0.248163	1.006093
C39	C	1.073554	-0.285318	0.573160
C40	C	1.573554	0.214682	1.073160
C41	C	0.963830	-0.285324	0.573172
C42	C	1.463830	0.214676	1.073172
C43	C	0.963850	-0.218368	0.439039
C44	C	1.463850	0.281632	0.939039
C45	C	1.073572	-0.218359	0.439033
C46	C	1.573572	0.281641	0.939033
C47	C	1.073542	-0.323976	0.650598
C48	C	1.573542	0.176024	1.150598
C49	C	0.963818	-0.323983	0.650609
C50	C	1.463818	0.176017	1.150609
C51	C	1.517989	-0.387680	0.506040
C52	C	2.017989	0.112320	1.006040
C53	C	1.518009	-0.445795	0.506055
C54	C	2.018009	0.054205	1.006055
C55	C	1.585519	-0.806160	0.439010
C56	C	2.085519	-0.306160	0.939010
C57	C	1.585560	-0.860765	0.439024
C58	C	2.085560	-0.360765	0.939024
O59	O	1.642775	-0.889004	0.381967
O60	O	2.142775	-0.389004	0.881967
N61	N	1.518350	-0.888077	0.506158
N62	N	2.018350	-0.388077	1.006158
C63	C	1.451103	-0.860782	0.573289
C64	C	1.951103	-0.360782	1.073289
O65	O	1.393940	-0.889027	0.630394
O66	O	1.893940	-0.389027	1.130394
C67	C	1.451068	-0.806179	0.573280
C68	C	1.951068	-0.306179	1.073280
C69	C	1.518275	-0.778869	0.506134
C70	C	2.018275	-0.278869	1.006134
C71	C	1.652721	-0.778851	0.371870
C72	C	2.152721	-0.278851	0.871870
C73	C	1.652678	-0.724250	0.371855
C74	C	2.152678	-0.224250	0.871855
C75	C	1.585434	-0.696959	0.438980
C76	C	2.085434	-0.196959	0.938980
C77	C	1.518232	-0.724269	0.506119
C78	C	2.018232	-0.224269	1.006119
C79	C	1.383827	-0.778885	0.640416
C80	C	1.883827	-0.278885	1.140416
C81	C	1.383799	-0.724278	0.640401
C82	C	1.883799	-0.224278	1.140401
C83	C	1.451005	-0.696968	0.573256
C84	C	1.951005	-0.196968	1.073256
C85	C	1.450946	-0.642377	0.573228
C86	C	1.950946	-0.142377	1.073228
N87	N	1.518155	-0.615065	0.506094
N88	N	2.018155	-0.115065	1.006094
C89	C	1.585399	-0.642356	0.438970
C90	C	2.085399	-0.142356	0.938970
C91	C	1.451182	-0.975453	0.573306
C92	C	1.951182	-0.475453	1.073306
C93	C	1.451210	-1.030055	0.573311
C94	C	1.951210	-0.530055	1.073311
C95	C	1.585669	-1.030034	0.439046
C96	C	2.085669	-0.530034	0.939046
C97	C	1.585634	-0.975430	0.439037
C98	C	2.085634	-0.475430	0.939037
C99	C	1.518391	-0.948140	0.506172
C100	C	2.018391	-0.448140	1.006172
C101	C	1.585305	-0.527691	0.438943
C102	C	2.085305	-0.027691	0.938943
C103	C	1.585253	-0.473086	0.438930
C104	C	2.085253	0.026914	0.938930
C105	C	1.450799	-0.473111	0.573198
C106	C	1.950799	0.026889	1.073198
C107	C	1.450846	-0.527712	0.573207
C108	C	1.950846	-0.027712	1.073207
C109	C	1.518108	-0.555000	0.506076
C110	C	2.018108	-0.055000	1.006076
O111	O	1.393762	-0.614103	0.630258
O112	O	1.893762	-0.114103	1.130258
O113	O	1.642562	-0.614104	0.381885
O114	O	2.142562	-0.114104	0.881885
C115	C	1.792198	-0.251848	0.506103
C116	C	2.292198	0.248152	1.006103
C117	C	1.908975	-0.251852	0.506109
C118	C	2.408975	0.248148	1.006109
C119	C	1.518239	-0.251785	0.780122
C120	C	2.018239	0.248215	1.280122
C121	C	1.518270	-0.251763	0.896898
C122	C	2.018270	0.248237	1.396898
C123	C	1.518371	-0.115465	0.506159
C124	C	2.018371	0.384535	1.006159
C125	C	1.518459	-0.057351	0.506190
C126	C	2.018459	0.442649	1.006190
C127	C	1.518152	-0.251853	0.233121
C128	C	2.018152	0.248147	0.733121
C129	C	1.518325	-0.251728	0.116345
C130	C	2.018325	0.248272	0.616345
C131	C	1.585526	-0.218322	0.951783
C132	C	2.085526	0.281678	1.451783
C133	C	1.585551	-0.218303	1.061507
C134	C	2.085551	0.281697	1.561507
C135	C	1.451061	-0.285170	1.061452
C136	C	1.951061	0.214830	1.561452
C137	C	1.451032	-0.285186	0.951730
C138	C	1.951032	0.214814	1.451730
C139	C	1.663176	-0.179718	0.951816
C140	C	2.163176	0.320282	1.451816
C141	C	1.663201	-0.179699	1.061540
C142	C	2.163201	0.320301	1.561540
H143	H	1.107524	-0.362421	0.621306
H144	H	1.607524	0.137579	1.121306
O145	O	1.765519	-0.198935	0.906718
O146	O	2.265519	0.301065	1.406718
H147	H	1.780057	-0.239454	0.933597
H148	H	2.280057	0.260546	1.433597
O149	O	1.725173	-0.694799	0.299440
O150	O	2.225173	-0.194799	0.799440
H151	H	1.778580	-0.669875	0.346506
H152	H	2.278580	-0.169875	0.846506
H153	H	1.396125	-0.549949	0.627886
H154	H	1.896125	-0.049949	1.127886
O155	O	1.624688	-0.128737	1.106657
O156	O	2.124688	0.371263	1.606657
H157	H	1.626286	-0.130826	1.193529
H158	H	2.126286	0.369174	1.693529
H159	H	0.919178	-0.191111	0.384442
H160	H	1.419178	0.308889	0.884442
H161	H	0.929832	-0.309529	0.727964
H162	H	1.429832	0.190471	1.227964
H163	H	1.707485	-0.801065	0.317210
H164	H	2.207485	-0.301065	0.817210
O165	O	1.770963	-0.194069	1.100998
O166	O	2.270963	0.305931	1.600998
H167	H	1.823698	-0.201126	1.033298
H168	H	2.323698	0.298874	1.533298
H169	H	1.641442	-0.139227	0.922068
H170	H	2.141442	0.360773	1.422068
H171	H	1.640078	-0.549903	0.384280
H172	H	2.140078	-0.049903	0.884280
O173	O	1.113049	-0.309664	0.758424
O174	O	1.613049	0.190336	1.258424
H175	H	1.084005	-0.338575	0.816265
H176	H	1.584005	0.161425	1.316265
O177	O	1.132755	-0.182254	0.366685
O178	O	1.632755	0.317746	0.866685
H179	H	1.076179	-0.158984	0.320045
H180	H	1.576179	0.341016	0.820045
O181	O	0.924289	-0.377602	0.621531
O182	O	1.424289	0.122398	1.121531
H183	H	0.991954	-0.403846	0.607276
H184	H	1.491954	0.096154	1.107276
O185	O	1.657750	-0.443629	0.366515
O186	O	2.157750	0.056371	0.866515
H187	H	1.704524	-0.471783	0.319853
H188	H	2.204524	0.028217	0.819853
H189	H	1.640360	-0.953198	0.384362
H190	H	2.140360	-0.453198	0.884362
O191	O	1.658220	-1.059473	0.366663
O192	O	2.158220	-0.559473	0.866663
H193	H	1.646960	-1.102030	0.377969
H194	H	2.146960	-0.602030	0.877969
H195	H	1.396474	-1.052286	0.627977
H196	H	1.896474	-0.552286	1.127977
O197	O	1.378626	-0.946018	0.645693
O198	O	1.878626	-0.446018	1.145693
H199	H	1.331890	-0.974188	0.692360
H200	H	1.831890	-0.474188	1.192360
H201	H	1.329095	-0.801111	0.695088
H202	H	1.829095	-0.301111	1.195088
O203	O	1.378540	-0.321217	1.120596
O204	O	1.878540	0.178783	1.620596
H205	H	1.396478	-0.362257	1.099509
H206	H	1.896478	0.137743	1.599509
H207	H	1.396262	-0.312415	0.907047
H208	H	1.896262	0.187585	1.407047
H209	H	1.329043	-0.702061	0.695074
H210	H	1.829043	-0.202061	1.195074
O211	O	1.378277	-0.443672	0.645600
O212	O	1.878277	0.056328	1.145600
H213	H	1.389556	-0.401116	0.634313
H214	H	1.889556	0.098884	1.134313
