data_functionalizedCrystal
_audit_creation_method	'MofGen! by Chris Wilmer'
_symmetry_space_group_name_H-M	'P1'
_symmetry_Int_Tables_number	1
_symmetry_cell_setting	triclinic
loop_
_symmetry_equiv_pos_as_xyz
  x,y,z
_cell_length_a	19.805407
_cell_length_b	12.759400
_cell_length_c	19.805399
_cell_angle_alpha	90.020600
_cell_angle_beta	90.019573
_cell_angle_gamma	90.014284
loop_
_atom_site_label
_atom_site_type_symbol
_atom_site_fract_x
_atom_site_fract_y
_atom_site_fract_z
Zn1	Zn	1.034793	-0.418291	0.382752
Zn2	Zn	1.534793	0.081709	0.882752
Zn3	Zn	1.034732	-0.593984	0.269578
Zn4	Zn	1.534732	-0.093984	0.769578
Zn5	Zn	0.921607	-0.418320	0.269577
Zn6	Zn	1.421607	0.081680	0.769577
Zn7	Zn	0.921595	-0.593928	0.382725
Zn8	Zn	1.421595	-0.093928	0.882725
O9	O	0.978182	-0.506131	0.326158
O10	O	1.478182	-0.006131	0.826158
O11	O	1.129501	-0.441608	0.367752
O12	O	1.629501	0.058392	0.867752
O13	O	1.019705	-0.570717	0.174861
O14	O	1.519705	-0.070717	0.674861
O15	O	0.936653	-0.271295	0.284601
O16	O	1.436653	0.228705	0.784601
O17	O	1.129456	-0.570689	0.284603
O18	O	1.629456	-0.070689	0.784603
O19	O	1.019809	-0.271273	0.367751
O20	O	1.519809	0.228727	0.867751
O21	O	0.936593	-0.441657	0.174861
O22	O	1.436593	0.058343	0.674861
O23	O	0.826889	-0.441603	0.284574
O24	O	1.326889	0.058397	0.784574
O25	O	0.936631	-0.570594	0.477445
O26	O	1.436631	-0.070594	0.977445
O27	O	0.826880	-0.570622	0.367704
O28	O	1.326880	-0.070622	0.867704
O29	O	1.019797	-0.441554	0.477465
O30	O	1.519797	0.058446	0.977465
O31	O	1.019693	-0.740998	0.284576
O32	O	1.519693	-0.240998	0.784576
O33	O	0.936572	-0.740957	0.367704
O34	O	1.436572	-0.240957	0.867704
C35	C	0.802326	-0.506110	0.326136
C36	C	1.302326	-0.006110	0.826136
C37	C	0.727094	-0.506127	0.326143
C38	C	1.227094	-0.006127	0.826143
C39	C	0.691762	-0.573408	0.369358
C40	C	1.191762	-0.073408	0.869358
C41	C	0.621074	-0.573410	0.369368
C42	C	1.121074	-0.073410	0.869368
C43	C	0.585718	-0.506135	0.326158
C44	C	1.085718	-0.006135	0.826158
C45	C	0.621054	-0.438847	0.282941
C46	C	1.121054	0.061153	0.782941
C47	C	0.691741	-0.438840	0.282935
C48	C	1.191741	0.061160	0.782935
C49	C	0.335981	-0.438870	0.282963
C50	C	0.835981	0.061130	0.782963
C51	C	0.265289	-0.438884	0.282971
C52	C	0.765289	0.061116	0.782971
C53	C	0.265313	-0.573440	0.369396
C54	C	0.765313	-0.073440	0.869396
C55	C	0.336001	-0.573433	0.369390
C56	C	0.836001	-0.073433	0.869390
C57	C	0.371331	-0.506141	0.326176
C58	C	0.871331	-0.006141	0.826176
C59	C	0.447979	-0.506139	0.326167
C60	C	0.947979	-0.006139	0.826167
C61	C	0.509071	-0.506142	0.326163
C62	C	1.009071	-0.006142	0.826163
C63	C	0.978143	-0.779098	0.326152
C64	C	1.478143	-0.279098	0.826152
C65	C	0.978188	-0.895875	0.326172
C66	C	1.478188	-0.395875	0.826172
C67	C	0.934898	-0.950753	0.369423
C68	C	1.434898	-0.450753	0.869423
C69	C	0.934933	-1.060477	0.369429
C70	C	1.434933	-0.560477	0.869429
C71	C	1.021556	-1.060434	0.282932
C72	C	1.521556	-0.560434	0.782932
C73	C	1.021516	-0.950712	0.282923
C74	C	1.521516	-0.450712	0.782923
C75	C	0.891569	-0.895916	0.412672
C76	C	1.391569	-0.395916	0.912672
C77	C	0.848276	-0.950795	0.455927
C78	C	1.348276	-0.450795	0.955927
C79	C	0.848312	-1.060519	0.455933
C80	C	1.348312	-0.560519	0.955933
C81	C	0.891641	-1.115364	0.412685
C82	C	1.391641	-0.615364	0.912685
C83	C	1.154724	-0.506152	0.326180
C84	C	1.654724	-0.006152	0.826180
C85	C	1.229956	-0.506160	0.326190
C86	C	1.729956	-0.006160	0.826190
C87	C	0.978220	-0.506064	0.502701
C88	C	1.478220	-0.006064	1.002701
C89	C	0.978236	-0.506036	0.577933
C90	C	1.478236	-0.006036	1.077933
C91	C	0.978239	-0.232097	0.326179
C92	C	1.478239	0.267903	0.826179
C93	C	0.978264	-0.115321	0.326188
C94	C	1.478264	0.384679	0.826188
C95	C	0.978183	-0.506121	0.150302
C96	C	1.478183	-0.006121	0.650302
C97	C	0.978298	-0.505853	0.075070
C98	C	1.478298	-0.005853	0.575070
C99	C	1.021541	-0.438842	0.613289
C100	C	1.521541	0.061158	1.113289
C101	C	1.021548	-0.438811	0.683977
C102	C	1.521548	0.061189	1.183977
C103	C	0.978253	-0.505981	0.719309
C104	C	1.478253	-0.005981	1.219309
C105	C	0.934942	-0.573179	0.683948
C106	C	1.434942	-0.073179	1.183948
C107	C	0.934932	-0.573203	0.613261
C108	C	1.434932	-0.073203	1.113261
C109	C	0.934980	-0.573081	0.969021
C110	C	1.434980	-0.073081	1.469021
C111	C	0.934995	-0.573054	1.039713
C112	C	1.434995	-0.073054	1.539713
C113	C	1.021596	-0.438689	1.039738
C114	C	1.521596	0.061311	1.539738
C115	C	1.021586	-0.438713	0.969051
C116	C	1.521586	0.061287	1.469051
C117	C	0.978274	-0.505906	0.933696
C118	C	1.478274	-0.005906	1.433696
C119	C	0.978266	-0.505937	0.857048
C120	C	1.478266	-0.005937	1.357048
C121	C	0.978263	-0.505957	0.795956
C122	C	1.478263	-0.005957	1.295956
H123	H	0.720507	-0.384048	0.247748
H124	H	1.220507	0.115952	0.747748
C125	C	0.891527	-0.775224	0.412666
C126	C	1.391527	-0.275224	0.912666
H127	H	0.859521	-0.750422	0.444614
H128	H	1.359521	-0.250422	0.944614
H129	H	0.935192	-0.750343	0.424405
H130	H	1.435192	-0.250343	0.924405
H131	H	0.879832	-0.750448	0.368974
H132	H	1.379832	-0.250448	0.868974
C133	C	1.069167	-0.364956	0.574427
C134	C	1.569167	0.135044	1.074427
H135	H	1.062964	-0.374599	0.527264
H136	H	1.562964	0.125401	1.027264
H137	H	1.059278	-0.294361	0.586016
H138	H	1.559278	0.205639	1.086016
H139	H	1.114644	-0.380341	0.586021
H140	H	1.614644	0.119659	1.086021
C141	C	0.800617	-0.890471	0.503495
C142	C	1.300617	-0.390471	1.003495
H143	H	0.806799	-0.817264	0.497302
H144	H	1.306799	-0.317264	0.997302
H145	H	0.755151	-0.908512	0.493551
H146	H	1.255151	-0.408512	0.993551
H147	H	0.810509	-0.908411	0.548984
H148	H	1.310509	-0.408411	1.048984
H149	H	1.056834	-1.105098	0.247723
H150	H	1.556834	-0.605098	0.747723
C151	C	0.891681	-1.236058	0.412694
C152	C	1.391681	-0.736058	0.912694
H153	H	0.859695	-1.260890	0.444649
H154	H	1.359695	-0.760890	0.944649
H155	H	0.880013	-1.260931	0.369007
H156	H	1.380013	-0.760931	0.869007
H157	H	0.935365	-1.260812	0.424447
H158	H	1.435365	-0.760812	0.924447
C159	C	0.887298	-0.647115	0.574366
C160	C	1.387298	-0.147115	1.074366
H161	H	0.893488	-0.637503	0.527208
H162	H	1.393488	-0.137503	1.027208
H163	H	0.897187	-0.717705	0.585944
H164	H	1.397187	-0.217705	1.085944
H165	H	0.841824	-0.631719	0.585944
H166	H	1.341824	-0.131719	1.085944
H167	H	0.899723	-0.627809	0.940244
H168	H	1.399723	-0.127809	1.440244
H169	H	1.056844	-0.384020	0.940287
H170	H	1.556844	0.115980	1.440287
C171	C	1.069137	-0.890341	0.235351
C172	C	1.569137	-0.390341	0.735351
H173	H	1.094954	-0.938713	0.209602
H174	H	1.594954	-0.438713	0.709602
H175	H	1.043246	-0.847592	0.205834
H176	H	1.543246	-0.347592	0.705834
H177	H	1.098599	-0.847483	0.261272
H178	H	1.598599	-0.347483	0.761272
C179	C	1.069188	-0.364902	0.722866
C180	C	1.569188	0.135098	1.222866
H181	H	1.094978	-0.324912	0.691700
H182	H	1.594978	0.175088	1.191700
H183	H	1.043313	-0.319108	0.750440
H184	H	1.543313	0.180892	1.250440
H185	H	1.098674	-0.405096	0.750443
H186	H	1.598674	0.094904	1.250443
C187	C	0.582209	-0.647420	0.416902
C188	C	1.082209	-0.147420	0.916902
H189	H	0.535047	-0.637782	0.410724
H190	H	1.035047	-0.137782	0.910724
H191	H	0.593779	-0.717989	0.406918
H192	H	1.093779	-0.217989	0.906918
H193	H	0.593818	-0.632132	0.462397
H194	H	1.093818	-0.132132	0.962397
C195	C	0.800692	-1.120883	0.503509
C196	C	1.300692	-0.620883	1.003509
H197	H	0.774887	-1.072506	0.529267
H198	H	1.274887	-0.572506	1.029267
H199	H	0.771228	-1.163743	0.477598
H200	H	1.271228	-0.663743	0.977598
H201	H	0.826588	-1.163630	0.533029
H202	H	1.326588	-0.663630	1.033029
C203	C	0.887319	-0.647066	0.722810
C204	C	1.387319	-0.147066	1.222810
H205	H	0.893531	-0.637436	0.769973
H206	H	1.393531	-0.137436	1.269973
H207	H	0.841843	-0.631691	0.711220
H208	H	1.341843	-0.131691	1.211220
H209	H	0.897213	-0.717664	0.711220
H210	H	1.397213	-0.217664	1.211220
H211	H	0.899736	-0.627754	1.068478
H212	H	1.399736	-0.127754	1.568478
C213	C	0.582165	-0.364849	0.235409
C214	C	1.082165	0.135151	0.735409
H215	H	0.535005	-0.374496	0.241595
H216	H	1.035005	0.125504	0.741595
H217	H	0.593760	-0.294276	0.245387
H218	H	1.093760	0.205724	0.745387
H219	H	0.593731	-0.380142	0.189913
H220	H	1.093731	0.119858	0.689913
C221	C	1.069237	-0.364768	1.078627
C222	C	1.569237	0.135232	1.578627
H223	H	1.095026	-0.324778	1.047459
H224	H	1.595026	0.175222	1.547459
H225	H	1.043363	-0.318973	1.106200
H226	H	1.543363	0.181027	1.606200
H227	H	1.098725	-0.404960	1.106203
H228	H	1.598725	0.095040	1.606203
C229	C	0.730648	-0.647410	0.416891
C230	C	1.230648	-0.147410	0.916891
H231	H	0.699479	-0.687473	0.442634
H232	H	1.199479	-0.187473	0.942634
H233	H	0.758207	-0.693134	0.390950
H234	H	1.258207	-0.193134	0.890950
H235	H	0.758238	-0.607270	0.446425
H236	H	1.258238	-0.107270	0.946425
H237	H	0.236539	-0.628228	0.404586
H238	H	0.736539	-0.128228	0.904586
C239	C	0.374889	-0.647432	0.416923
C240	C	0.874889	-0.147432	0.916923
H241	H	0.343722	-0.687496	0.442667
H242	H	0.843722	-0.187496	0.942667
H243	H	0.402449	-0.693154	0.390982
H244	H	0.902449	-0.193154	0.890982
H245	H	0.402478	-0.607288	0.446456
H246	H	0.902478	-0.107288	0.946456
H247	H	0.236504	-0.384094	0.247784
H248	H	0.736504	0.115906	0.747784
H249	H	0.364738	-0.384085	0.247770
H250	H	0.864738	0.115915	0.747770
