data_functionalizedCrystal
_audit_creation_method	'MofGen! by Chris Wilmer'
_symmetry_space_group_name_H-M	'P1'
_symmetry_Int_Tables_number	1
_symmetry_cell_setting	triclinic
loop_
_symmetry_equiv_pos_as_xyz
  x,y,z
_cell_length_a	25.639239
_cell_length_b	18.050590
_cell_length_c	18.050582
_cell_angle_alpha	90.000767
_cell_angle_beta	89.975362
_cell_angle_gamma	90.027853
loop_
_atom_site_label
_atom_site_type_symbol
_atom_site_fract_x
_atom_site_fract_y
_atom_site_fract_z
Zn1	Zn	-0.208335	1.135238	-0.419591
Zn2	Zn	-0.295763	1.135126	-0.295396
Zn3	Zn	-0.208327	1.011058	-0.295449
Zn4	Zn	-0.295725	1.010983	-0.419579
O5	O	-0.252037	1.073101	-0.357504
O6	O	-0.219952	1.239148	-0.403099
O7	O	-0.284177	1.118653	-0.191479
O8	O	-0.135163	1.027609	-0.311944
O9	O	-0.284185	1.239066	-0.311854
O10	O	-0.135169	1.118844	-0.403150
O11	O	-0.219938	1.027500	-0.191517
O12	O	-0.219901	0.907123	-0.311932
O13	O	-0.284120	1.027481	-0.523505
O14	O	-0.284112	0.907068	-0.403130
O15	O	-0.219915	1.118771	-0.523514
O16	O	-0.368923	1.118580	-0.311843
O17	O	-0.368895	1.027373	-0.403079
C18	C	-0.252002	0.880149	-0.357536
C19	C	-0.251999	0.797603	-0.357567
C20	C	-0.287017	0.598144	-0.407043
C21	C	-0.239344	0.548764	-0.425320
C22	C	-0.252028	0.646473	-0.357531
C23	C	-0.299728	0.548772	-0.339253
C24	C	-0.252061	0.500488	-0.357497
C25	C	-0.204330	0.598180	-0.375844
C26	C	-0.264747	0.598192	-0.289745
C27	C	-0.217041	0.548834	-0.307997
C28	C	-0.252010	0.730571	-0.357552
C29	C	-0.252073	0.416391	-0.357476
C30	C	-0.387880	1.072976	-0.357470
C31	C	-0.445994	1.072991	-0.357480
C32	C	-0.806359	1.120717	-0.310078
C33	C	-0.860963	1.120746	-0.310088
O34	O	-0.889202	1.161195	-0.269748
N35	N	-0.888277	1.073232	-0.357553
C36	C	-0.860982	1.025691	-0.405017
O37	O	-0.889228	0.985280	-0.445391
C38	C	-0.806379	1.025667	-0.405010
C39	C	-0.779069	1.073179	-0.357536
C40	C	-0.779049	1.168226	-0.262609
C41	C	-0.724448	1.168196	-0.262598
C42	C	-0.697158	1.120657	-0.310057
C43	C	-0.724468	1.073149	-0.357526
C44	C	-0.779086	0.978131	-0.452477
C45	C	-0.724479	0.978111	-0.452466
C46	C	-0.697169	1.025622	-0.404993
C47	C	-0.642578	1.025580	-0.404973
N48	N	-0.615265	1.073094	-0.357508
C49	C	-0.642555	1.120633	-0.310050
C50	C	-0.975653	1.025747	-0.405028
C51	C	-1.030255	1.025767	-0.405032
C52	C	-1.030233	1.120823	-0.310104
C53	C	-0.975629	1.120799	-0.310097
C54	C	-0.948340	1.073261	-0.357563
C55	C	-0.527890	1.120566	-0.310030
C56	C	-0.473284	1.120529	-0.310022
C57	C	-0.473312	1.025477	-0.404952
C58	C	-0.527913	1.025510	-0.404958
C59	C	-0.555200	1.073061	-0.357495
O60	O	-0.614305	0.985154	-0.445295
O61	O	-0.614302	1.161044	-0.269689
C62	C	-0.115664	1.073247	-0.357554
C63	C	-0.057550	1.073309	-0.357576
C64	C	-0.252014	1.073130	-0.551210
C65	C	-0.252004	1.073143	-0.633755
C66	C	-0.252074	1.266807	-0.357472
C67	C	-0.252089	1.349353	-0.357459
C68	C	-0.286871	1.023537	-0.833201
C69	C	-0.299661	1.091289	-0.882573
C70	C	-0.251965	1.073179	-0.784886
C71	C	-0.239161	1.005465	-0.882595
C72	C	-0.251927	1.073209	-0.930871
C73	C	-0.264779	1.140967	-0.833171
C74	C	-0.204257	1.055097	-0.833188
C75	C	-0.217028	1.122895	-0.882538
C76	C	-0.251988	1.073162	-0.700787
C77	C	-0.251904	1.073234	-1.014968
C78	C	-0.252023	1.073115	-0.164552
C79	C	-0.251885	1.073247	-0.082006
H80	H	-0.275508	0.619920	-0.232450
H81	H	-0.228597	0.527052	-0.482631
H82	H	-0.702263	0.939401	-0.491121
F83	F	-0.151606	0.626424	-0.396118
H84	H	-0.187432	0.527319	-0.266112
H85	H	-0.340054	0.527066	-0.323809
F86	F	-0.444222	1.171100	-0.259491
F87	F	-0.556923	1.171174	-0.259514
F88	F	-1.059286	1.171417	-0.259593
H89	H	-0.702215	1.206886	-0.223943
F90	F	-0.808085	1.218828	-0.212094
H91	H	-0.228347	0.948187	-0.904306
F92	F	-0.946569	1.171367	-0.259570
F93	F	-1.059315	0.975191	-0.455551
F94	F	-0.352374	1.111305	-0.910929
F95	F	-0.946614	0.975143	-0.455546
F96	F	-0.808140	0.927567	-0.503012
H97	H	-0.316554	0.619799	-0.448960
F98	F	-0.444258	0.974887	-0.455460
H99	H	-0.550150	0.986824	-0.443618
F100	F	-0.325504	0.968717	-0.804884
H101	H	-0.275639	1.198261	-0.811552
H102	H	-0.187492	1.164937	-0.904064
F103	F	-0.151558	1.035057	-0.804811
