data_functionalizedCrystal
_audit_creation_method	'MofGen! by Chris Wilmer'
_symmetry_space_group_name_H-M	'P1'
_symmetry_Int_Tables_number	1
_symmetry_cell_setting	triclinic
loop_
_symmetry_equiv_pos_as_xyz
  x,y,z
_cell_length_a	17.699083
_cell_length_b	15.538191
_cell_length_c	16.176319
_cell_angle_alpha	89.995479
_cell_angle_beta	89.998611
_cell_angle_gamma	65.277554
loop_
_atom_site_label
_atom_site_type_symbol
_atom_site_fract_x
_atom_site_fract_y
_atom_site_fract_z
O1	O	0.971508	0.119201	-0.068626
O2	O	0.746892	0.134709	-0.068653
O3	O	0.902923	-0.010274	-0.068638
O4	O	0.815476	0.264185	-0.068641
O5	O	0.902910	-0.010284	0.068855
O6	O	0.746878	0.134700	0.068840
O7	O	0.971494	0.119192	0.068867
Cu8	Cu	0.859185	0.126945	0.081408
Cu9	Cu	0.859201	0.126956	-0.081194
O10	O	0.815463	0.264175	0.068852
C11	C	0.718840	0.134149	0.000090
C12	C	0.635277	0.132482	0.000080
C13	C	0.563403	0.217584	0.000079
C14	C	0.484889	0.216012	0.000090
C15	C	0.478252	0.129337	0.000095
C16	C	0.550134	0.044228	0.000098
C17	C	0.628646	0.045801	0.000094
C18	C	0.233505	0.037882	0.000119
C19	C	0.154985	0.036316	0.000121
C20	C	0.089748	0.208094	0.000115
C21	C	0.168260	0.209667	0.000111
C22	C	0.240135	0.124558	0.000118
C23	C	0.325269	0.126264	0.000108
C24	C	0.393120	0.127630	0.000100
C25	C	0.912066	-0.045395	0.000107
C26	C	0.939318	-0.150032	0.000102
C27	C	0.668571	-0.437202	0.000087
C28	C	0.694198	-0.535527	0.000092
C29	C	0.838344	-0.558300	0.000109
C30	C	0.812729	-0.459975	0.000100
C31	C	0.727842	-0.399434	0.000090
C32	C	0.872000	-0.422207	0.000103
C33	C	0.846387	-0.323891	0.000098
C34	C	0.761503	-0.263343	0.000091
C35	C	0.702229	-0.301118	0.000085
C36	C	0.956887	-0.482750	0.000118
C37	C	1.016158	-0.444981	0.000121
C38	C	0.990545	-0.346663	0.000111
C39	C	0.905661	-0.286116	0.000103
C40	C	1.049819	-0.308889	0.000116
C41	C	1.024206	-0.210573	0.000111
C42	C	0.880048	-0.187800	0.000099
C43	C	0.999546	0.119752	0.000122
C44	C	1.083109	0.121419	0.000127
C45	C	0.806321	0.299297	0.000106
C46	C	0.779068	0.403933	0.000105
N47	N	0.859180	0.126937	0.195773
N48	N	0.859215	0.126957	-0.195559
C49	C	0.928279	0.062764	0.239044
C50	C	0.928283	0.062763	0.325591
C51	C	0.859189	0.126940	0.368866
C52	C	0.790084	0.191116	0.325589
C53	C	0.790078	0.191111	0.239043
C54	C	0.790105	0.191133	0.674617
C55	C	0.790117	0.191135	0.761169
C56	C	0.928310	0.062785	0.761164
C57	C	0.928304	0.062781	0.674619
C58	C	0.859197	0.126953	0.631350
C59	C	0.859193	0.126952	0.537506
C60	C	0.859195	0.126946	0.462708
H61	H	0.810924	-0.138503	0.000085
O62	O	0.736719	-0.167854	0.000196
C63	C	0.739452	-0.033002	0.071448
C64	C	0.767594	-0.141153	0.071423
H65	H	0.764389	-0.011378	0.129038
H66	H	0.764473	-0.011308	0.013949
H67	H	0.668601	0.003756	0.071400
H68	H	0.838439	-0.177987	0.071500
H69	H	0.742511	-0.162776	0.128918
H70	H	0.031216	0.277393	0.000114
O71	O	0.995417	0.000304	0.367528
C72	C	1.084817	-0.163662	0.394047
C73	C	1.008780	-0.093029	0.346491
H74	H	1.095635	-0.239136	0.377069
H75	H	1.142112	-0.151536	0.376999
H76	H	1.072959	-0.152596	0.463333
H77	H	1.020557	-0.104053	0.277193
H78	H	0.951510	-0.105173	0.363608
O79	O	0.415154	0.298768	0.000052
C80	C	0.358731	0.469320	0.000092
C81	C	0.437773	0.375666	0.000113
H82	H	0.376990	0.531516	0.000159
H83	H	0.320333	0.472946	-0.057458
H84	H	0.320346	0.472826	0.057624
H85	H	0.476222	0.372097	-0.057380
H86	H	0.476109	0.372079	0.057701
H87	H	0.977738	-0.562804	0.000115
H88	H	0.633105	-0.251821	0.000071
H89	H	0.599448	-0.387905	0.000073
H90	H	0.645927	-0.566272	0.000102
H91	H	0.733824	0.243367	0.360828
O92	O	0.920824	-0.617018	0.000005
C93	C	1.051862	-0.666605	-0.071250
C94	C	0.958472	-0.600040	-0.071221
H95	H	1.082325	-0.652916	-0.128839
H96	H	1.082421	-0.652882	-0.013750
H97	H	1.059967	-0.743354	-0.071206
H98	H	0.950292	-0.523267	-0.071294
H99	H	0.927958	-0.613846	-0.128717
H100	H	0.568797	0.288165	0.000074
O101	O	0.722948	0.253347	0.632551
C102	C	0.614053	0.273593	0.534806
C103	C	0.690082	0.203025	0.582416
H104	H	0.587470	0.232935	0.494248
H105	H	0.564622	0.319458	0.580562
H106	H	0.633823	0.320640	0.494318
H107	H	0.670391	0.155916	0.622905
H108	H	0.739495	0.157226	0.536615
O109	O	1.098604	-0.503834	-0.000018
C110	C	1.211176	-0.628093	-0.071214
C111	C	1.117796	-0.561484	-0.071166
H112	H	1.226719	-0.674734	-0.128723
H113	H	1.249182	-0.584256	-0.071269
H114	H	1.226747	-0.674648	-0.013644
H115	H	1.102148	-0.514915	-0.128726
H116	H	1.079841	-0.605377	-0.071068
H117	H	1.118934	-0.358196	0.000132
H118	H	0.149589	-0.034270	0.000127
O119	O	1.081887	-0.174035	0.000069
C120	C	1.227573	-0.206989	0.000118
C121	C	1.162336	-0.248494	0.000146
H122	H	1.292631	-0.267169	0.000198
H123	H	1.219245	-0.161564	-0.057439
H124	H	1.219132	-0.161495	0.057642
H125	H	1.170737	-0.294031	-0.057339
H126	H	1.170682	-0.293865	0.057741
H127	H	0.687169	-0.023498	0.000094
O128	O	0.995474	0.000348	0.632711
C129	C	1.132565	-0.126930	0.641843
C130	C	1.056543	-0.056286	0.689405
H131	H	1.181966	-0.172723	0.687659
H132	H	1.112866	-0.174034	0.601358
H133	H	1.159165	-0.086276	0.601291
H134	H	1.029907	-0.096862	0.730001
H135	H	1.076289	-0.009183	0.729838
O136	O	0.722910	0.253509	0.803079
C137	C	0.585848	0.380844	0.793956
C138	C	0.661891	0.310247	0.746389
H139	H	0.536502	0.426748	0.748143
H140	H	0.559154	0.340247	0.834462
H141	H	0.605624	0.427846	0.834486
H142	H	0.642182	0.263227	0.705814
H143	H	0.688569	0.350902	0.705935
H144	H	0.984544	0.010508	0.203815
O145	O	0.722996	0.253581	0.197044
C146	C	0.633560	0.417550	0.170586
C147	C	0.709559	0.346909	0.218185
H148	H	0.622662	0.493020	0.187674
H149	H	0.645399	0.406604	0.101287
H150	H	0.576314	0.405311	0.187603
H151	H	0.766839	0.359105	0.201237
H152	H	0.697649	0.357872	0.287472
O153	O	0.174817	0.293801	0.000208
C154	C	0.225569	0.395289	0.071441
C155	C	0.218218	0.299965	0.071426
H156	H	0.260642	0.400312	0.129023
H157	H	0.260740	0.400326	0.013934
H158	H	0.160705	0.455835	0.071400
H159	H	0.283049	0.239364	0.071496
H160	H	0.183005	0.295011	0.128928
H161	H	0.292019	-0.031418	0.000126
H162	H	0.544725	-0.026345	0.000115
H163	H	0.984579	0.010530	0.796403
