data_functionalizedCrystal
_audit_creation_method	'MofGen! by Chris Wilmer'
_symmetry_space_group_name_H-M	'P1'
_symmetry_Int_Tables_number	1
_symmetry_cell_setting	triclinic
loop_
_symmetry_equiv_pos_as_xyz
  x,y,z
_cell_length_a	15.297327
_cell_length_b	15.298073
_cell_length_c	15.296720
_cell_angle_alpha	88.353317
_cell_angle_beta	72.680778
_cell_angle_gamma	69.205280
loop_
_atom_site_label
_atom_site_type_symbol
_atom_site_fract_x
_atom_site_fract_y
_atom_site_fract_z
Zn1	Zn	-0.284981	-1.197179	0.766943
Zn2	Zn	-0.413618	-1.197077	0.638322
Zn3	Zn	-0.275669	-1.077896	0.593814
Zn4	Zn	-0.467306	-1.014721	0.766789
O5	O	-0.360393	-1.121718	0.691467
O6	O	-0.283473	-1.323403	0.768573
O7	O	-0.368953	-1.207663	0.506199
O8	O	-0.142869	-1.120201	0.598218
O9	O	-0.377982	-1.323327	0.674075
O10	O	-0.149710	-1.207838	0.725415
O11	O	-0.267603	-1.120102	0.473499
O12	O	-0.319662	-0.943279	0.598068
O13	O	-0.469485	-1.012528	0.893028
O14	O	-0.460456	-0.896864	0.725152
O15	O	-0.335532	-1.146580	0.893142
O16	O	-0.554775	-1.146405	0.673926
O17	O	-0.594219	-1.012429	0.768310
C18	C	-0.394875	-0.887339	0.656764
C19	C	-0.409654	-0.787062	0.641943
C20	C	-0.254952	-0.504404	0.797383
C21	C	-0.241070	-0.598618	0.811314
C22	C	-0.283214	-0.645733	0.768972
C23	C	-0.339244	-0.598626	0.712697
C24	C	-0.353134	-0.504400	0.698771
C25	C	-0.381396	-0.645730	0.670360
C26	C	-0.437426	-0.598622	0.614085
C27	C	-0.451312	-0.504407	0.600161
C28	C	-0.409168	-0.457291	0.642502
C29	C	-0.367507	-0.739955	0.684287
C30	C	-0.465689	-0.739952	0.585674
C31	C	-0.479571	-0.645738	0.571744
C32	C	-0.609251	-1.072571	0.725954
C33	C	-0.715708	-1.051621	0.740750
C34	C	-0.933523	-1.271753	0.586080
C35	C	-0.833501	-1.291437	0.572174
C36	C	-0.804048	-1.231485	0.614317
C37	C	-0.874627	-1.151846	0.670368
C38	C	-0.974659	-1.132156	0.684270
C39	C	-0.845183	-1.091888	0.712507
C40	C	-0.915762	-1.012249	0.768558
C41	C	-1.015783	-0.992564	0.782458
C42	C	-1.045237	-1.052515	0.740315
C43	C	-0.745151	-1.111577	0.698605
C44	C	-0.786286	-0.971980	0.796795
C45	C	-0.886309	-0.952297	0.810701
C46	C	-0.110564	-1.171078	0.656869
C47	C	-0.004102	-1.192112	0.642125
C48	C	-0.409536	-1.072518	0.926727
C49	C	-0.430478	-1.051552	1.026981
C50	C	-0.325767	-0.357016	0.726296
C51	C	-0.310986	-0.457294	0.741114
C52	C	-0.311365	-1.170792	0.457120
C53	C	-0.290128	-1.191986	0.356855
C54	C	-0.210546	-1.271632	1.309818
C55	C	-0.190871	-1.291336	1.215626
C56	C	-0.250771	-1.231392	1.168460
C57	C	-0.330350	-1.151740	1.215496
C58	C	-0.350031	-1.132038	1.309699
C59	C	-0.390256	-1.091798	1.168341
C60	C	-0.469835	-1.012146	1.215376
C61	C	-0.489512	-0.992448	1.309570
C62	C	-0.429613	-1.052392	1.356736
C63	C	-0.370574	-1.111500	1.074137
C64	C	-0.510059	-0.971906	1.074018
C65	C	-0.529734	-0.952202	1.168210
H66	H	-0.500012	-0.778312	0.551201
H67	H	-0.525191	-0.607369	0.525925
H68	H	-0.776039	-1.356277	0.526537
Br69	Br	-0.262579	-1.219596	1.010315
Br70	Br	-0.428000	-0.329425	0.623592
Br71	Br	-0.129274	-1.352985	1.373835
H72	H	-0.321885	-0.778302	0.730105
H73	H	-1.073247	-0.927708	0.828087
Br74	Br	-0.649378	-1.219654	0.622536
Br75	Br	-0.973501	-1.353103	0.528888
H76	H	-0.445628	-1.036353	1.433435
H77	H	-1.126682	-1.036495	0.751637
H78	H	-0.943788	-0.887454	0.856338
H79	H	-0.234747	-1.247440	1.091764
H80	H	-0.722604	-1.247515	0.602990
Br81	Br	-0.165041	-0.662541	0.887690
Br82	Br	-0.264373	-0.773598	0.787878
Br83	Br	-0.082879	-1.399432	1.151798
H84	H	-0.554317	-0.927596	1.347866
H85	H	-0.496944	-0.466051	0.554346
Br86	Br	-0.637730	-0.844106	1.232055
H87	H	-0.762308	-0.923161	0.831109
Br88	Br	-0.197781	-0.440452	0.854856
H89	H	-0.558836	-0.923095	1.035616
