data_functionalizedCrystal
_audit_creation_method	'MofGen! by Chris Wilmer'
_symmetry_space_group_name_H-M	'P1'
_symmetry_Int_Tables_number	1
_symmetry_cell_setting	triclinic
loop_
_symmetry_equiv_pos_as_xyz
  x,y,z
_cell_length_a	10.723023
_cell_length_b	10.723023
_cell_length_c	13.448316
_cell_angle_alpha	89.994428
_cell_angle_beta	89.993401
_cell_angle_gamma	84.467548
loop_
_atom_site_label
_atom_site_type_symbol
_atom_site_fract_x
_atom_site_fract_y
_atom_site_fract_z
O1	O	1.657192	0.175026	-0.082687
O2	O	2.157192	0.675026	0.417313
O3	O	1.294040	0.191780	-0.082689
O4	O	1.794040	0.691780	0.417311
O5	O	1.483993	0.001826	-0.082684
O6	O	1.983993	0.501826	0.417316
O7	O	1.467239	0.364979	-0.082692
O8	O	1.967239	0.864979	0.417308
O9	O	1.483969	0.001815	0.082700
O10	O	1.983969	0.501815	0.582700
O11	O	1.294016	0.191768	0.082695
O12	O	1.794016	0.691768	0.582695
O13	O	1.657168	0.175014	0.082697
O14	O	2.157168	0.675014	0.582697
Cu15	Cu	1.475590	0.183390	0.097797
Cu16	Cu	1.975590	0.683390	0.597797
Cu17	Cu	1.475618	0.183404	-0.097789
Cu18	Cu	1.975618	0.683404	0.402211
O19	O	1.467215	0.364967	0.082692
O20	O	1.967215	0.864967	0.582692
C21	C	1.247528	0.190555	0.000002
C22	C	1.747528	0.690555	0.500002
C23	C	1.108974	0.186908	0.000002
C24	C	1.608974	0.686908	0.500002
C25	C	1.047215	0.185288	-0.085673
C26	C	1.547215	0.685288	0.414327
C27	C	0.904012	0.181518	-0.085675
C28	C	1.404012	0.681518	0.414325
C29	C	1.482762	-0.044679	0.000007
C30	C	1.982762	0.455321	0.500007
C31	C	1.479115	-0.183233	0.000004
C32	C	1.979115	0.316767	0.500004
C33	C	1.477501	-0.244993	-0.085671
C34	C	1.977501	0.255007	0.414329
C35	C	1.473732	-0.388196	-0.085677
C36	C	1.973732	0.111804	0.414323
C37	C	1.703680	0.176239	0.000003
C38	C	2.203680	0.676239	0.500003
C39	C	1.842234	0.179886	-0.000002
C40	C	2.342234	0.679886	0.499998
C41	C	1.468446	0.411473	-0.000001
C42	C	1.968446	0.911473	0.499999
C43	C	1.472093	0.550027	-0.000005
C44	C	1.972093	1.050027	0.499995
N45	N	1.475579	0.183379	0.235361
N46	N	1.975579	0.683379	0.735361
N47	N	1.475639	0.183405	-0.235353
N48	N	1.975639	0.683405	0.264647
C49	C	1.559717	0.099303	0.287404
C50	C	2.059717	0.599303	0.787404
C51	C	1.559725	0.099302	0.391507
C52	C	2.059725	0.599302	0.891507
C53	C	1.475599	0.183384	0.443566
C54	C	1.975599	0.683384	0.943566
C55	C	1.391452	0.267464	0.391516
C56	C	1.891452	0.767464	0.891516
C57	C	1.391440	0.267458	0.287414
C58	C	1.891440	0.767458	0.787414
C59	C	1.391487	0.267473	0.608496
C60	C	1.891487	0.767473	1.108496
C61	C	1.391501	0.267481	0.712604
C62	C	1.891501	0.767481	1.212604
C63	C	1.559772	0.099316	0.712588
C64	C	2.059772	0.599316	1.212588
C65	C	1.559759	0.099310	0.608487
C66	C	2.059759	0.599310	1.108487
C67	C	1.475613	0.183393	0.556444
C68	C	1.975613	0.683393	1.056444
H69	H	1.055830	0.185511	0.073348
H70	H	1.555830	0.685511	0.573348
F71	F	1.649326	0.009832	0.767980
F72	F	2.149326	0.509832	1.267980
H73	H	1.478905	-0.191849	-0.159017
H74	H	1.978905	0.308151	0.340983
H75	H	1.322950	0.335922	0.433908
H76	H	1.822950	0.835922	0.933908
F77	F	1.649262	0.009815	0.232009
F78	F	2.149262	0.509815	0.732009
H79	H	1.628235	0.030840	0.433880
H80	H	2.128235	0.530840	0.933880
H81	H	1.628266	0.030851	0.566101
H82	H	2.128266	0.530851	1.066101
H83	H	1.472350	-0.441309	-0.159026
H84	H	1.972350	0.058691	0.340974
H85	H	1.322962	0.335938	0.566126
H86	H	1.822962	0.835938	1.066126
F87	F	1.473915	-0.380566	0.095876
F88	F	1.973915	0.119434	0.595876
F89	F	0.834597	0.179688	-0.181551
F90	F	1.334597	0.679688	0.318449
H91	H	0.895338	0.181273	0.073350
H92	H	1.395338	0.681273	0.573350
F93	F	1.116670	0.187125	-0.181545
F94	F	1.616670	0.687125	0.318455
H95	H	1.477698	-0.236375	0.073349
H96	H	1.977698	0.263625	0.573349
H97	H	1.322924	0.335920	0.245042
H98	H	1.822924	0.835920	0.745042
F99	F	1.301961	0.356972	0.768002
F100	F	1.801961	0.856972	1.268002
