data_functionalizedCrystal
_audit_creation_method	'MofGen! by Chris Wilmer'
_symmetry_space_group_name_H-M	'P1'
_symmetry_Int_Tables_number	1
_symmetry_cell_setting	triclinic
loop_
_symmetry_equiv_pos_as_xyz
  x,y,z
_cell_length_a	16.120484
_cell_length_b	14.908780
_cell_length_c	14.908803
_cell_angle_alpha	89.799140
_cell_angle_beta	83.995202
_cell_angle_gamma	83.626566
loop_
_atom_site_label
_atom_site_type_symbol
_atom_site_fract_x
_atom_site_fract_y
_atom_site_fract_z
Zn1	Zn	-0.293544	-1.328168	0.602961
Zn2	Zn	-0.425217	-1.329153	0.459379
Zn3	Zn	-0.292579	-1.186574	0.443881
Zn4	Zn	-0.441317	-1.169213	0.601823
O5	O	-0.363164	-1.253277	0.527011
O6	O	-0.304676	-1.454492	0.590877
O7	O	-0.400481	-1.317917	0.331134
O8	O	-0.175355	-1.212210	0.458974
O9	O	-0.401416	-1.455215	0.485387
O10	O	-0.176063	-1.316239	0.575850
O11	O	-0.303033	-1.213165	0.319748
O12	O	-0.318644	-1.058078	0.457870
O13	O	-0.428856	-1.182622	0.728162
O14	O	-0.427921	-1.045323	0.573909
O15	O	-0.320287	-1.299405	0.728999
O16	O	-0.544705	-1.301083	0.484283
O17	O	-0.556534	-1.183576	0.588936
C18	C	-0.374926	-1.018980	0.514085
C19	C	-0.379979	-0.918744	0.508578
C20	C	-0.288896	-0.729616	0.608259
C21	C	-0.293641	-0.635436	0.603087
C22	C	-0.394209	-0.636202	0.493058
C23	C	-0.389464	-0.730382	0.498230
C24	C	-0.336806	-0.777086	0.555833
C25	C	-0.332066	-0.871268	0.561009
C26	C	-0.432629	-0.872032	0.450976
C27	C	-0.437374	-0.777852	0.445804
C28	C	-0.581048	-1.240575	0.538189
C29	C	-0.674257	-1.235222	0.543006
C30	C	-0.844911	-1.225453	0.551819
C31	C	-0.880570	-1.281261	0.502227
C32	C	-0.975527	-1.275826	0.507131
C33	C	-0.749945	-1.230888	0.546916
C34	C	-0.144430	-1.266051	0.515810
C35	C	-0.051218	-1.271495	0.511037
C36	C	-0.376475	-1.238967	0.762215
C37	C	-0.382147	-1.232869	0.862445
C38	C	-0.351350	-0.488490	0.539981
C39	C	-0.346296	-0.588725	0.545490
C40	C	-0.279735	-1.343016	1.051659
C41	C	-0.285061	-1.337289	1.145834
C42	C	-0.398123	-1.215686	1.144971
C43	C	-0.392796	-1.221412	1.050796
C44	C	-0.333601	-1.285080	1.004143
C45	C	-0.328279	-1.290811	0.909967
C46	C	-0.441336	-1.169203	0.909105
C47	C	-0.446662	-1.163477	1.003280
C48	C	-0.349925	-1.267525	1.292723
C49	C	-0.344254	-1.273627	1.192493
H50	H	-0.480244	-0.739813	0.398903
C51	C	-0.825475	-1.351298	0.439869
H52	H	-0.767956	-1.345796	0.444695
H53	H	-0.837411	-1.410283	0.457151
H54	H	-0.837059	-1.340998	0.379275
H55	H	-0.485200	-1.122030	0.870408
H56	H	-0.254625	-0.596790	0.645775
H57	H	-0.246024	-0.767643	0.655166
C58	C	-0.463222	-1.145651	1.196298
H59	H	-0.458676	-1.150541	1.259190
H60	H	-0.453117	-1.086717	1.176890
H61	H	-0.518039	-1.156498	1.184489
H62	H	-0.437070	-0.598160	0.446150
H63	H	-0.471649	-0.910691	0.408295
H64	H	-0.885695	-1.173596	0.597954
C65	C	-0.214631	-1.413049	1.000335
H66	H	-0.219178	-1.408166	0.937443
H67	H	-0.159819	-1.402209	1.012152
H68	H	-0.224744	-1.471986	1.019739
C69	C	-0.263168	-1.360839	0.858646
H70	H	-0.267714	-1.355959	0.795753
H71	H	-0.208360	-1.349988	0.870465
H72	H	-0.273273	-1.419778	0.878052
H73	H	-0.241196	-1.384464	1.184517
C74	C	-0.511774	-1.093451	1.054603
H75	H	-0.507236	-1.098341	1.117496
H76	H	-0.501679	-1.034514	1.035199
H77	H	-0.566585	-1.104312	1.042785
H78	H	-0.289191	-0.909293	0.607914
