data_functionalizedCrystal
_audit_creation_method	'MofGen! by Chris Wilmer'
_symmetry_space_group_name_H-M	'P1'
_symmetry_Int_Tables_number	1
_symmetry_cell_setting	triclinic
loop_
_symmetry_equiv_pos_as_xyz
  x,y,z
_cell_length_a	13.032831
_cell_length_b	21.295416
_cell_length_c	13.032328
_cell_angle_alpha	82.857959
_cell_angle_beta	90.887223
_cell_angle_gamma	97.165484
loop_
_atom_site_label
_atom_site_type_symbol
_atom_site_fract_x
_atom_site_fract_y
_atom_site_fract_z
Zn1	Zn	1.498329	0.425095	-0.780753
Zn2	Zn	1.998329	0.925095	-0.280753
Zn3	Zn	1.520041	0.518882	-0.608757
Zn4	Zn	2.020041	1.018882	-0.108757
Zn5	Zn	1.348198	0.398801	-0.587000
Zn6	Zn	1.848198	0.898801	-0.087000
Zn7	Zn	1.326289	0.515477	-0.758882
Zn8	Zn	1.826289	1.015477	-0.258882
O9	O	1.423214	0.464564	-0.683848
O10	O	1.923214	0.964564	-0.183848
O11	O	1.645126	0.449965	-0.776196
O12	O	2.145126	0.949965	-0.276196
O13	O	1.515501	0.493374	-0.461957
O14	O	2.015501	0.993374	0.038043
O15	O	1.368196	0.314210	-0.612749
O16	O	1.868196	0.814210	-0.112749
O17	O	1.661077	0.518870	-0.649831
O18	O	2.161077	1.018870	-0.149831
O19	O	1.478497	0.333527	-0.755099
O20	O	1.978497	0.833527	-0.255099
O21	O	1.389249	0.405151	-0.445972
O22	O	1.889249	0.905151	0.054028
O23	O	1.201376	0.401850	-0.591542
O24	O	1.701376	0.901850	-0.091542
O25	O	1.330855	0.513066	-0.905697
O26	O	1.830855	1.013066	-0.405697
O27	O	1.185279	0.487571	-0.717823
O28	O	1.685279	0.987571	-0.217823
O29	O	1.457253	0.446663	-0.921766
O30	O	1.957253	0.946663	-0.421766
O31	O	1.494257	0.606510	-0.628624
O32	O	1.994257	1.106510	-0.128624
O33	O	1.351908	0.604008	-0.738920
O34	O	1.851908	1.104008	-0.238920
C35	C	1.156011	0.441488	-0.649949
C36	C	1.656011	0.941488	-0.149949
C37	C	1.041698	0.431633	-0.635471
C38	C	1.541698	0.931633	-0.135471
C39	C	0.982808	0.469707	-0.691404
C40	C	1.482808	0.969707	-0.191404
C41	C	0.864659	0.459522	-0.676442
C42	C	1.364659	0.959522	-0.176442
C43	C	1.423086	0.628101	-0.683786
C44	C	1.923086	1.128101	-0.183786
C45	C	1.423121	0.698073	-0.683805
C46	C	1.923121	1.198073	-0.183805
C47	C	1.497292	0.732231	-0.626451
C48	C	1.997292	1.232231	-0.126451
C49	C	1.497337	0.797980	-0.626485
C50	C	1.997337	1.297980	-0.126485
C51	C	1.423194	0.829565	-0.683860
C52	C	1.923194	1.329565	-0.183860
C53	C	1.349017	0.795400	-0.741226
C54	C	1.849017	1.295400	-0.241226
C55	C	1.348981	0.729653	-0.741199
C56	C	1.848981	1.229653	-0.241199
N57	N	1.332231	0.925589	-0.680293
N58	N	1.832231	1.425589	-0.180293
N59	N	1.332269	0.988045	-0.680314
N60	N	1.832269	1.488045	-0.180314
C61	C	1.423301	1.027655	-0.683947
C62	C	1.923301	1.527655	-0.183947
N63	N	1.514298	1.002448	-0.687540
N64	N	2.014298	1.502448	-0.187540
N65	N	1.514259	0.939986	-0.687515
N66	N	2.014259	1.439986	-0.187515
C67	C	1.423226	0.900856	-0.683896
C68	C	1.923226	1.400856	-0.183896
C69	C	1.497526	1.133105	-0.626627
C70	C	1.997526	1.633105	-0.126627
C71	C	1.497572	1.198856	-0.626669
C72	C	1.997572	1.698856	-0.126669
C73	C	1.349244	1.196273	-0.741403
C74	C	1.849244	1.696273	-0.241403
C75	C	1.349207	1.130525	-0.741368
C76	C	1.849207	1.630525	-0.241368
C77	C	1.423347	1.098945	-0.683975
C78	C	1.923347	1.598945	-0.183975
C79	C	1.691461	0.487730	-0.717880
C80	C	2.191461	0.987730	-0.217880
C81	C	1.805771	0.497602	-0.732383
C82	C	2.305771	0.997602	-0.232383
C83	C	1.389188	0.482418	-0.952090
C84	C	1.889188	0.982418	-0.452090
C85	C	1.374688	0.490026	-1.066399
C86	C	1.874688	0.990026	-0.566399
C87	C	1.423367	1.300393	-0.683955
C88	C	1.923367	1.800393	-0.183955
C89	C	1.423430	1.230437	-0.684046
C90	C	1.923430	1.730437	-0.184046
C91	C	1.415791	0.468431	-1.243458
C92	C	1.915791	0.968431	-0.743458
C93	C	1.430772	0.460562	-1.125313
C94	C	1.930772	0.960562	-0.625313
C95	C	1.457167	0.446739	-0.416657
C96	C	1.957167	0.946739	0.083343
C97	C	1.471867	0.438971	-0.302374
C98	C	1.971867	0.938971	0.197626
H99	H	0.842817	0.537739	-0.791356
H100	H	1.342817	1.037739	-0.291356
H101	H	1.557977	1.226667	-0.579967
H102	H	2.057977	1.726667	-0.079967
H103	H	1.004645	0.391493	-0.576512
H104	H	1.504645	0.891493	-0.076512
H105	H	1.557739	0.825797	-0.579781
H106	H	2.057739	1.325797	-0.079781
H107	H	1.557663	0.706521	-0.579721
H108	H	2.057663	1.206521	-0.079721
Br109	Br	1.276166	0.541772	-1.128090
Br110	Br	1.776166	1.041772	-0.628090
H111	H	1.019860	0.509842	-0.750371
H112	H	1.519860	1.009842	-0.250371
H113	H	1.288651	0.821121	-0.787943
H114	H	1.788651	1.321121	-0.287943
H115	H	1.288806	1.102711	-0.788067
H116	H	1.788806	1.602711	-0.288067
H117	H	1.356689	0.499476	-1.280483
H118	H	1.856689	0.999476	-0.780483
Br119	Br	1.248629	1.239134	-0.819283
Br120	Br	1.748629	1.739134	-0.319283
H121	H	1.288581	0.701841	-0.787904
H122	H	1.788581	1.201841	-0.287904
H123	H	1.489871	0.429509	-1.088291
H124	H	1.989871	0.929509	-0.588291
H125	H	0.827611	0.419380	-0.617479
H126	H	1.327611	0.919380	-0.117479
Br127	Br	1.598140	1.090242	-0.548735
Br128	Br	2.098140	1.590242	-0.048735
Br129	Br	1.570365	0.387214	-1.240672
Br130	Br	2.070365	0.887214	-0.740672
