data_functionalizedCrystal
_audit_creation_method	'MofGen! by Chris Wilmer'
_symmetry_space_group_name_H-M	'P1'
_symmetry_Int_Tables_number	1
_symmetry_cell_setting	triclinic
loop_
_symmetry_equiv_pos_as_xyz
  x,y,z
_cell_length_a	10.654550
_cell_length_b	9.730223
_cell_length_c	10.654550
_cell_angle_alpha	89.995747
_cell_angle_beta	95.515069
_cell_angle_gamma	90.000043
loop_
_atom_site_label
_atom_site_type_symbol
_atom_site_fract_x
_atom_site_fract_y
_atom_site_fract_z
O1	O	-1.667839	-0.114187	0.176399
O2	O	-1.167839	0.385813	0.676399
O3	O	-1.302361	-0.114212	0.193205
O4	O	-0.802361	0.385788	0.693205
O5	O	-1.493503	-0.114190	0.002062
O6	O	-0.993503	0.385810	0.502062
O7	O	-1.476697	-0.114209	0.367541
O8	O	-0.976697	0.385791	0.867541
O9	O	-1.493490	0.114390	0.002057
O10	O	-0.993490	0.614390	0.502057
O11	O	-1.302348	0.114368	0.193199
O12	O	-0.802348	0.614368	0.693199
O13	O	-1.667827	0.114393	0.176393
O14	O	-1.167827	0.614393	0.676393
Zn15	Zn	-1.485085	0.150672	0.184796
Zn16	Zn	-0.985085	0.650672	0.684796
Zn17	Zn	-1.485102	-0.150492	0.184802
Zn18	Zn	-0.985102	0.349508	0.684802
O19	O	-1.476684	0.114371	0.367536
O20	O	-0.976684	0.614371	0.867536
C21	C	-1.255556	0.000075	0.191968
C22	C	-0.755556	0.500075	0.691968
C23	C	-1.116113	0.000065	0.188276
C24	C	-0.616113	0.500065	0.688276
C25	C	-1.492263	0.000099	-0.044738
C26	C	-0.992263	0.500099	0.455262
C27	C	-1.488571	0.000096	-0.184181
C28	C	-0.988571	0.500096	0.315819
C29	C	-1.714631	0.000103	0.177630
C30	C	-1.214631	0.500103	0.677630
C31	C	-1.854074	0.000104	0.181322
C32	C	-1.354074	0.500104	0.681322
C33	C	-1.036628	0.000064	0.300818
C34	C	-0.536628	0.500064	0.800818
C35	C	-0.905607	0.000088	0.297341
C36	C	-0.405607	0.500088	0.797341
C37	C	-0.933570	0.000109	0.068772
C38	C	-0.433570	0.500109	0.568772
C39	C	-1.064588	0.000095	0.072250
C40	C	-0.564588	0.500095	0.572250
N41	N	-1.485083	0.356209	0.184790
N42	N	-0.985083	0.856209	0.684790
N43	N	-1.485114	-0.356028	0.184798
N44	N	-0.985114	0.143972	0.684798
C45	C	-1.569750	0.428144	0.100188
C46	C	-1.069750	0.928144	0.600188
C47	C	-1.569763	0.572027	0.100189
C48	C	-1.069763	1.072027	0.600189
C49	C	-1.400438	0.572026	0.269404
C50	C	-0.900438	1.072026	0.769404
C51	C	-1.400420	0.428146	0.269396
C52	C	-0.900420	0.928146	0.769396
C53	C	-1.601112	0.000104	-0.263667
C54	C	-1.101112	0.500104	0.236333
C55	C	-1.597636	0.000087	-0.394688
C56	C	-1.097636	0.500087	0.105312
C57	C	-1.369066	0.000061	-0.366725
C58	C	-0.869066	0.500061	0.133275
C59	C	-1.372544	0.000068	-0.235706
C60	C	-0.872544	0.500068	0.264294
C61	C	-1.477925	0.000079	0.414336
C62	C	-0.977925	0.500079	0.914336
C63	C	-1.481617	0.000072	0.553779
C64	C	-0.981617	0.500072	1.053779
H65	H	-1.078574	0.000049	0.395294
H66	H	-0.578574	0.500049	0.895294
Br67	Br	-1.285544	0.669660	0.384225
Br68	Br	-0.785544	1.169660	0.884225
H69	H	-1.274601	0.000041	-0.408693
H70	H	-0.774601	0.500041	0.091307
H71	H	-1.638687	0.369576	0.031295
H72	H	-1.138687	0.869576	0.531295
H73	H	-1.280893	0.000058	-0.170985
H74	H	-0.780893	0.500058	0.329015
H75	H	-1.695588	0.000124	-0.221720
H76	H	-1.195588	0.500124	0.278280
H77	H	-1.689279	0.000090	-0.459401
H78	H	-1.189279	0.500090	0.040599
H79	H	-0.891602	0.000142	-0.025693
H80	H	-0.391602	0.500142	0.474307
Br81	Br	-0.797737	0.000092	0.450083
Br82	Br	-0.297737	0.500092	0.950083
Br83	Br	-1.684666	0.669652	-0.014638
Br84	Br	-1.184666	1.169652	0.485362
Br85	Br	-1.172472	0.000115	-0.080497
Br86	Br	-0.672472	0.500115	0.419503
H87	H	-1.331468	0.369572	0.338290
H88	H	-0.831468	0.869572	0.838290
