data_functionalizedCrystal
_audit_creation_method	'MofGen! by Chris Wilmer'
_symmetry_space_group_name_H-M	'P1'
_symmetry_Int_Tables_number	1
_symmetry_cell_setting	triclinic
loop_
_symmetry_equiv_pos_as_xyz
  x,y,z
_cell_length_a	14.519731
_cell_length_b	9.065218
_cell_length_c	8.140239
_cell_angle_alpha	90.001686
_cell_angle_beta	89.997185
_cell_angle_gamma	95.647631
loop_
_atom_site_label
_atom_site_type_symbol
_atom_site_fract_x
_atom_site_fract_y
_atom_site_fract_z
O1	O	1.225270	-0.193542	-0.136610
O2	O	1.725270	0.306458	0.363390
O3	O	0.956963	-0.216284	-0.136612
O4	O	1.456963	0.283716	0.363388
O5	O	1.096662	0.009833	-0.136608
O6	O	1.596662	0.509833	0.363392
O7	O	1.085571	-0.419659	-0.136614
O8	O	1.585571	0.080341	0.363386
O9	O	1.096654	0.009835	0.136619
O10	O	1.596654	0.509835	0.636619
O11	O	0.956955	-0.216281	0.136615
O12	O	1.456955	0.283719	0.636615
O13	O	1.225262	-0.193539	0.136617
O14	O	1.725262	0.306461	0.636617
Zn15	Zn	1.091107	-0.204910	0.179997
Zn16	Zn	1.591107	0.295090	0.679997
Zn17	Zn	1.091118	-0.204913	-0.179992
Zn18	Zn	1.591118	0.295087	0.320008
O19	O	1.085563	-0.419656	0.136613
O20	O	1.585563	0.080344	0.636613
C21	C	0.922591	-0.215217	0.000001
C22	C	1.422591	0.284783	0.500001
C23	C	0.820188	-0.212024	0.000000
C24	C	1.320188	0.287976	0.500000
C25	C	0.737025	-0.209429	-0.000006
C26	C	1.237025	0.290571	0.499994
C27	C	0.632692	-0.206187	-0.000007
C28	C	1.132692	0.293813	0.499993
C29	C	0.549534	-0.203614	-0.000007
C30	C	1.049534	0.296386	0.499993
C31	C	0.445195	-0.200372	-0.000010
C32	C	0.945195	0.299628	0.499990
C33	C	1.095592	0.064801	0.000003
C34	C	1.595592	0.564801	0.500003
C35	C	1.092405	0.228584	-0.000005
C36	C	1.592405	0.728584	0.499995
C37	C	1.259634	-0.194606	-0.000000
C38	C	1.759634	0.305394	0.500000
C39	C	1.362037	-0.197799	-0.000010
C40	C	1.862037	0.302201	0.499990
C41	C	1.086633	-0.474624	-0.000002
C42	C	1.586633	0.025376	0.499998
C43	C	1.089820	-0.638408	-0.000005
C44	C	1.589820	-0.138408	0.499995
N45	N	1.091107	-0.204907	0.425679
N46	N	1.591107	0.295093	0.925679
N47	N	1.091125	-0.204905	-0.425674
N48	N	1.591125	0.295095	0.074326
