data_functionalizedCrystal
_audit_creation_method	'MofGen! by Chris Wilmer'
_symmetry_space_group_name_H-M	'P1'
_symmetry_Int_Tables_number	1
_symmetry_cell_setting	triclinic
loop_
_symmetry_equiv_pos_as_xyz
  x,y,z
_cell_length_a	10.654549
_cell_length_b	17.699092
_cell_length_c	9.730223
_cell_angle_alpha	89.997288
_cell_angle_beta	89.997731
_cell_angle_gamma	83.885573
loop_
_atom_site_label
_atom_site_type_symbol
_atom_site_fract_x
_atom_site_fract_y
_atom_site_fract_z
O1	O	1.665984	0.106301	-0.114253
O2	O	1.300328	0.116429	-0.114262
O3	O	1.493481	0.001242	-0.114254
O4	O	1.472831	0.221488	-0.114261
O5	O	1.493469	0.001238	0.114326
O6	O	1.300316	0.116426	0.114318
O7	O	1.665971	0.106298	0.114327
Zn8	Zn	1.483142	0.111361	0.150615
Zn9	Zn	1.483158	0.111365	-0.150549
O10	O	1.472819	0.221485	0.114319
C11	C	1.253537	0.115684	0.000027
C12	C	1.114133	0.113459	0.000023
C13	C	0.902471	0.179183	0.000027
C14	C	1.033455	0.181279	0.000019
C15	C	1.063821	0.043538	0.000022
C16	C	0.932839	0.041442	0.000021
C17	C	1.492734	-0.026962	0.000034
C18	C	1.490508	-0.110993	0.000028
C19	C	1.489473	-0.150466	-0.124573
C20	C	1.487374	-0.229422	-0.124575
C21	C	1.486320	-0.268905	0.000026
C22	C	1.487352	-0.229427	0.124636
C23	C	1.489442	-0.150472	0.124636
C24	C	1.478922	-0.547846	0.124638
C25	C	1.476836	-0.626807	0.124628
C26	C	1.476855	-0.626796	-0.124573
C27	C	1.478944	-0.547841	-0.124573
C28	C	1.479970	-0.508369	0.000036
C29	C	1.482243	-0.422755	0.000037
C30	C	1.484055	-0.354518	0.000027
C31	C	1.712763	0.107043	0.000036
C32	C	1.852167	0.109268	0.000030
C33	C	1.473566	0.249688	0.000029
C34	C	1.475792	0.333720	0.000026
N35	N	1.483140	0.111358	0.356151
N36	N	1.483170	0.111363	-0.356086
C37	C	1.568697	0.060375	0.428081
C38	C	1.568709	0.060375	0.571964
C39	C	1.397604	0.162348	0.571975
C40	C	1.397586	0.162344	0.428095
H41	H	0.891883	-0.015495	0.000019
H42	H	1.638358	0.018858	0.369508
H43	H	1.638376	0.018859	0.630525
H44	H	1.486536	-0.261557	-0.226037
H45	H	1.327910	0.203861	0.369526
C46	C	1.480019	-0.505105	-0.259998
C47	C	1.478627	-0.556571	-0.369122
C48	C	1.479594	-0.517231	-0.493897
H49	H	1.554016	-0.479686	-0.265373
H50	H	1.407600	-0.468933	-0.265249
H51	H	1.551039	-0.592730	-0.363873
H52	H	1.404635	-0.581993	-0.363792
H53	H	1.407175	-0.481058	-0.499149
H54	H	1.553592	-0.491813	-0.499258
H55	H	1.478638	-0.552143	-0.567953
C56	C	1.304670	0.217585	0.650269
C57	C	1.227962	0.176839	0.732925
C58	C	1.142349	0.227699	0.805080
H59	H	1.253587	0.247969	0.586981
H60	H	1.349721	0.249335	0.706458
H61	H	1.182915	0.145102	0.676740
H62	H	1.279010	0.146457	0.796238
H63	H	1.187400	0.259449	0.861270
H64	H	1.091275	0.258081	0.741782
H65	H	1.090300	0.200060	0.861180
H66	H	1.490267	-0.118333	0.226099
H67	H	0.836790	0.234411	0.000033
H68	H	1.129520	-0.011683	0.000018
C69	C	1.490550	-0.107734	-0.260001
C70	C	1.489158	-0.159203	-0.369120
C71	C	1.490128	-0.119867	-0.493899
H72	H	1.564548	-0.082315	-0.265378
H73	H	1.418132	-0.071560	-0.265257
H74	H	1.561568	-0.195362	-0.363866
H75	H	1.415165	-0.184623	-0.363788
H76	H	1.417710	-0.083693	-0.499155
H77	H	1.564127	-0.094450	-0.499262
H78	H	1.489172	-0.154781	-0.567951
H79	H	1.074405	0.238211	0.000015
H80	H	1.476013	-0.658943	-0.226036
H81	H	1.475975	-0.658952	0.226099
H82	H	1.479782	-0.515719	0.226102
C83	C	1.486275	-0.272434	0.259776
C84	C	1.484263	-0.350032	0.233111
C85	C	1.483295	-0.389672	0.357571
H86	H	1.413430	-0.254204	0.311079
H87	H	1.559847	-0.264924	0.310981
H88	H	1.410698	-0.357536	0.181928
H89	H	1.557102	-0.368283	0.181828
H90	H	1.556868	-0.382163	0.408776
H91	H	1.410450	-0.371437	0.408864
H92	H	1.481942	-0.442327	0.339496
