data_functionalizedCrystal
_audit_creation_method	'MofGen! by Chris Wilmer'
_symmetry_space_group_name_H-M	'P1'
_symmetry_Int_Tables_number	1
_symmetry_cell_setting	triclinic
loop_
_symmetry_equiv_pos_as_xyz
  x,y,z
_cell_length_a	16.974829
_cell_length_b	16.992695
_cell_length_c	16.053802
_cell_angle_alpha	92.741074
_cell_angle_beta	83.771117
_cell_angle_gamma	87.025716
loop_
_atom_site_label
_atom_site_type_symbol
_atom_site_fract_x
_atom_site_fract_y
_atom_site_fract_z
O1	O	1.061820	0.093240	-0.141172
O2	O	0.831718	0.106701	-0.125627
O3	O	0.945846	-0.014168	-0.133331
O4	O	0.947691	0.214109	-0.133469
O5	O	0.939562	-0.007542	0.005952
O6	O	0.825434	0.113327	0.013656
O7	O	1.055536	0.099865	-0.001889
Zn8	Zn	0.939487	0.107648	0.027998
Zn9	Zn	0.947766	0.098919	-0.155514
O10	O	0.941408	0.220735	0.005814
C11	C	0.798997	0.109624	-0.053987
C12	C	0.710860	0.108453	-0.048033
C13	C	0.214374	0.102275	-0.006365
C14	C	0.297188	0.103375	-0.011962
C15	C	0.342021	0.100308	-0.090685
C16	C	0.304035	0.096148	-0.163816
C17	C	0.221222	0.095053	-0.158218
C18	C	0.590062	0.103199	-0.115566
C19	C	0.672880	0.104291	-0.121158
C20	C	0.666027	0.111520	0.030696
C21	C	0.583213	0.110421	0.036287
C22	C	0.545235	0.106265	-0.036844
N23	N	0.426670	0.101430	-0.096407
N24	N	0.460586	0.105149	-0.031121
C25	C	0.940331	-0.040057	-0.063529
C26	C	0.933250	-0.127071	-0.063051
C27	C	1.001573	-0.177603	-0.067666
C28	C	0.994915	-0.259362	-0.067224
C29	C	0.919933	-0.290587	-0.062161
C30	C	0.851605	-0.240049	-0.057548
C31	C	0.858263	-0.158292	-0.057996
C32	C	0.892335	-0.534067	-0.060308
C33	C	0.885681	-0.615830	-0.059858
C34	C	1.028992	-0.635138	-0.069535
C35	C	1.035645	-0.553378	-0.069978
C36	C	0.967316	-0.502848	-0.065369
N37	N	0.913126	-0.374157	-0.061707
N38	N	0.974125	-0.419280	-0.065830
C39	C	1.088257	0.096942	-0.073531
C40	C	1.176394	0.098113	-0.079491
C41	C	0.946923	0.246624	-0.063989
C42	C	0.954004	0.333638	-0.064473
N43	N	0.933843	0.113605	0.153239
N44	N	0.953417	0.092955	-0.280756
C45	C	0.982425	0.062194	0.193654
C46	C	0.978484	0.066368	0.281326
C47	C	0.925965	0.121959	0.328583
C48	C	0.877378	0.173373	0.288162
C49	C	0.881315	0.169194	0.200491
C50	C	0.908767	0.140191	0.591153
C51	C	0.904835	0.144367	0.678830
C52	C	1.005940	0.037361	0.671988
C53	C	1.009876	0.033190	0.584315
C54	C	0.961286	0.084601	0.543903
N55	N	0.921938	0.126229	0.418198
N56	N	0.965310	0.080327	0.454289
H57	H	0.177877	0.104777	0.057739
H58	H	0.790553	-0.265479	-0.053431
H59	H	0.834612	0.218634	0.326644
N60	N	0.180249	0.090563	-0.237085
H61	H	0.192812	0.137762	-0.271033
H62	H	0.199517	0.040553	-0.271409
H63	H	0.824618	-0.641249	-0.055722
N64	N	0.818641	-0.479573	-0.055334
H65	H	0.770132	-0.511762	-0.052055
H66	H	0.815952	-0.442777	-0.003676
H67	H	0.841754	0.211058	0.167587
N68	N	1.039076	0.002239	0.142687
H69	H	1.069252	-0.029697	0.181596
H70	H	1.008154	-0.034038	0.108524
N71	N	1.068608	-0.313862	-0.072191
H72	H	1.053015	-0.370393	-0.071144
H73	H	1.103396	-0.306238	-0.126014
N74	N	0.721238	0.100988	-0.206070
H75	H	0.759092	0.052689	-0.211997
H76	H	0.684559	0.098222	-0.251498
H77	H	1.062631	-0.152186	-0.071783
N78	N	0.352392	0.092836	-0.248722
H79	H	0.342820	0.042476	-0.281161
H80	H	0.336112	0.139690	-0.280655
N81	N	1.116514	-0.519692	-0.075460
H82	H	1.120145	-0.483745	-0.024233
H83	H	1.158748	-0.564149	-0.078351
N84	N	0.338153	0.107872	0.066909
H85	H	0.297185	0.109647	0.117628
H86	H	0.375714	0.059896	0.067676
H87	H	1.084621	-0.676288	-0.073288
H88	H	0.802627	-0.117149	-0.054238
N89	N	1.058337	-0.018093	0.715579
H90	H	1.092205	-0.053942	0.672338
H91	H	1.093666	0.013523	0.749442
N92	N	1.030912	0.010944	0.324916
H93	H	1.064793	-0.024894	0.281675
H94	H	1.066226	0.042591	0.358764
N95	N	1.066522	-0.026768	0.533348
H96	H	1.096701	-0.058705	0.572254
H97	H	1.035599	-0.063044	0.499185
N98	N	0.549105	0.098703	-0.194439
H99	H	0.561672	0.145898	-0.228392
H100	H	0.568381	0.048691	-0.228754
H101	H	0.869204	0.182053	0.558256
N102	N	0.848195	0.204336	0.729802
H103	H	0.818012	0.236272	0.690898
H104	H	0.809604	0.176193	0.768696
H105	H	0.696958	0.114905	0.090235
N106	N	0.534856	0.113726	0.121193
H107	H	0.571516	0.115976	0.166669
H108	H	0.497388	0.162313	0.127270
