data_functionalizedCrystal
_audit_creation_method	'MofGen! by Chris Wilmer'
_symmetry_space_group_name_H-M	'P1'
_symmetry_Int_Tables_number	1
_symmetry_cell_setting	triclinic
loop_
_symmetry_equiv_pos_as_xyz
  x,y,z
_cell_length_a	6.817900
_cell_length_b	9.108949
_cell_length_c	12.200737
_cell_angle_alpha	98.161194
_cell_angle_beta	107.141108
_cell_angle_gamma	111.764586
loop_
_atom_site_label
_atom_site_type_symbol
_atom_site_fract_x
_atom_site_fract_y
_atom_site_fract_z
V1	V	-4.126505	-0.225771	-0.379893
O2	O	-4.052318	0.010458	-0.349823
O3	O	-4.134856	-0.447290	-0.399261
O4	O	-4.095366	-0.222470	-0.535557
O5	O	-4.092081	-0.215918	-0.212583
V6	V	-4.600543	-0.197495	-0.357213
O7	O	-4.408570	-0.287797	-0.429644
O8	O	-4.768675	-0.135469	-0.307463
O9	O	-4.368986	0.024024	-0.337846
O10	O	-4.792128	-0.433725	-0.387284
O11	O	-4.752365	-0.207348	-0.524523
O12	O	-4.408476	-0.200796	-0.201550
C13	C	-3.993104	-0.501286	-0.398935
C14	C	-4.081333	-0.682382	-0.415808
C15	C	-3.942729	-0.214504	-0.572793
C16	C	-3.998929	-0.213271	-0.700193
C17	C	-4.044566	-0.212267	-0.803656
C18	C	-4.101833	-0.211002	-0.933453
C19	C	-4.174082	0.078011	-0.338169
C20	C	-4.065092	0.259105	-0.321304
C21	C	-4.224455	-0.208768	-0.164308
C22	C	-4.147492	-0.209993	-0.036906
H23	H	-3.983696	-0.652438	-0.227485
C24	C	-4.189898	-0.800045	-0.541004
C25	C	-4.187254	-0.709781	-0.624808
C26	C	-4.287279	-0.818128	-0.740152
H27	H	-4.106470	-0.862125	-0.547575
H28	H	-4.343003	-0.872677	-0.555835
H29	H	-4.034176	-0.637178	-0.609981
H30	H	-4.270693	-0.647705	-0.618275
H31	H	-4.440384	-0.890760	-0.754984
H32	H	-4.203841	-0.880203	-0.746711
H33	H	-4.285517	-0.756901	-0.797027
