data_functionalizedCrystal
_audit_creation_method	'MofGen! by Chris Wilmer'
_symmetry_space_group_name_H-M	'P1'
_symmetry_Int_Tables_number	1
_symmetry_cell_setting	triclinic
loop_
_symmetry_equiv_pos_as_xyz
  x,y,z
_cell_length_a	11.169417
_cell_length_b	11.169416
_cell_length_c	13.897449
_cell_angle_alpha	89.994434
_cell_angle_beta	89.994353
_cell_angle_gamma	90.009278
loop_
_atom_site_label
_atom_site_type_symbol
_atom_site_fract_x
_atom_site_fract_y
_atom_site_fract_z
Zn1	Zn	-1.834772	0.478044	0.545404
Zn2	Zn	-1.501439	0.811377	0.878737
Zn3	Zn	-1.168106	1.144710	1.212070
Zn4	Zn	-1.834718	0.678696	0.384118
Zn5	Zn	-1.501385	1.012029	0.717452
Zn6	Zn	-1.168051	1.345362	1.050785
Zn7	Zn	-1.634114	0.478021	0.384123
Zn8	Zn	-1.300781	0.811355	0.717456
Zn9	Zn	-0.967448	1.144688	1.050790
Zn10	Zn	-1.634066	0.678680	0.545372
Zn11	Zn	-1.300732	1.012013	0.878705
Zn12	Zn	-0.967399	1.345346	1.212039
O13	O	-1.734418	0.578360	0.464754
O14	O	-1.401084	0.911693	0.798088
O15	O	-1.067751	1.245027	1.131421
O16	O	-2.002715	0.504677	0.524020
O17	O	-1.669381	0.838010	0.857354
O18	O	-1.336048	1.171343	1.190687
O19	O	-1.808105	0.652073	0.249137
O20	O	-1.474772	0.985406	0.582471
O21	O	-1.141438	1.318740	0.915804
O22	O	-1.660775	0.310075	0.405533
O23	O	-1.327442	0.643408	0.738866
O24	O	-0.994109	0.976741	1.072199
O25	O	-2.002675	0.652095	0.405525
O26	O	-1.669341	0.985428	0.738858
O27	O	-1.336008	1.318761	1.072191
O28	O	-1.808198	0.310091	0.524025
O29	O	-1.474864	0.643424	0.857358
O30	O	-1.141531	0.976758	1.190691
O31	O	-1.660722	0.504639	0.249141
O32	O	-1.327389	0.837972	0.582474
O33	O	-0.994056	1.171305	0.915808
O34	O	-1.466158	0.504623	0.405502
O35	O	-1.132825	0.837957	0.738835
O36	O	-0.799492	1.171290	1.072168
O37	O	-1.660692	0.652068	0.680358
O38	O	-1.327359	0.985401	1.013691
O39	O	-0.994026	1.318734	1.347024
O40	O	-1.466123	0.652046	0.523971
O41	O	-1.132789	0.985379	0.857304
O42	O	-0.799456	1.318713	1.190637
O43	O	-1.808151	0.504661	0.680381
O44	O	-1.474817	0.837995	1.013714
O45	O	-1.141484	1.171328	1.347048
O46	O	-1.808058	0.846643	0.405494
O47	O	-1.474724	1.179976	0.738827
O48	O	-1.141391	1.513310	1.072160
O49	O	-1.660640	0.846632	0.523966
O50	O	-1.327306	1.179965	0.857299
O51	O	-0.993973	1.513298	1.190633
C52	C	-1.422593	0.578331	0.464734
C53	C	-1.089260	0.911665	0.798067
C54	C	-0.755926	1.244998	1.131400
C55	C	-1.289193	0.578348	0.464748
C56	C	-0.955860	0.911681	0.798081
C57	C	-0.622526	1.245015	1.131415
C58	C	-1.734370	0.890185	0.464747
C59	C	-1.401037	1.223518	0.798080
C60	C	-1.067703	1.556851	1.131414
C61	C	-1.734459	1.023585	0.464776
C62	C	-1.401126	1.356918	0.798109
C63	C	-1.067793	1.690251	1.131443
C64	C	-1.734422	0.578365	0.716347
C65	C	-1.401089	0.911698	1.049681
C66	C	-1.067755	1.245032	1.383014
C67	C	-1.734424	0.578367	0.823561
C68	C	-1.401091	0.911701	1.156894
C69	C	-1.067757	1.245034	1.490228
C70	C	-1.047460	0.578380	0.464768
C71	C	-0.714127	0.911713	0.798101
C72	C	-0.380793	1.245046	1.131435
C73	C	-1.180860	0.578362	0.464754
C74	C	-0.847527	0.911696	0.798087
C75	C	-0.514193	1.245029	1.131421
C76	C	-1.734498	0.265318	0.464783
C77	C	-1.401165	0.598651	0.798116
C78	C	-1.067831	0.931984	1.131449
C79	C	-1.734532	0.131918	0.464795
C80	C	-1.401199	0.465251	0.798128
C81	C	-1.067866	0.798584	1.131462
C82	C	-1.734394	0.578373	1.019856
C83	C	-1.401060	0.911706	1.353190
C84	C	-1.067727	1.245039	1.686523
C85	C	-1.734407	0.578373	0.910624
C86	C	-1.401074	0.911706	1.243957
C87	C	-1.067740	1.245040	1.577290
C88	C	-1.734402	0.578379	1.214140
C89	C	-1.401068	0.911713	1.547473
C90	C	-1.067735	1.245046	1.880807
C91	C	-1.734392	0.578370	1.106926
C92	C	-1.401059	0.911703	1.440259
C93	C	-1.067726	1.245037	1.773593
