data_functionalizedCrystal
_audit_creation_method	'MofGen! by Chris Wilmer'
_symmetry_space_group_name_H-M	'P1'
_symmetry_Int_Tables_number	1
_symmetry_cell_setting	triclinic
loop_
_symmetry_equiv_pos_as_xyz
  x,y,z
_cell_length_a	8.497374
_cell_length_b	8.497374
_cell_length_c	12.759401
_cell_angle_alpha	89.998481
_cell_angle_beta	90.000899
_cell_angle_gamma	90.004389
loop_
_atom_site_label
_atom_site_type_symbol
_atom_site_fract_x
_atom_site_fract_y
_atom_site_fract_z
Zn1	Zn	0.892054	0.628298	1.606171
Zn2	Zn	0.628320	0.892048	1.606161
Zn3	Zn	0.628287	0.628278	1.430527
Zn4	Zn	0.892057	0.892032	1.430503
O5	O	0.760180	0.760164	1.518341
O6	O	0.857082	0.663301	1.753191
O7	O	0.407553	0.857056	1.582869
O8	O	0.663262	0.407518	1.453841
O9	O	0.663317	0.857076	1.753184
O10	O	0.857050	0.407533	1.582886
O11	O	0.407529	0.663265	1.453832
O12	O	0.663264	0.663250	1.283503
O13	O	1.112819	0.857049	1.453800
O14	O	0.857055	0.857029	1.283486
O15	O	1.112817	0.663285	1.582862
O16	O	0.663320	1.112808	1.582846
O17	O	0.857087	1.112797	1.453791
C18	C	0.760157	0.760137	1.245373
C19	C	0.760185	0.760163	1.128597
C20	C	0.861234	0.659447	1.073739
C21	C	0.861245	0.659463	0.964015
C22	C	0.659153	0.860926	0.964016
C23	C	0.659136	0.860900	1.073738
C24	C	1.350300	0.760190	1.518347
C25	C	1.171656	0.760182	1.518336
C26	C	0.760202	1.170044	1.518328
C27	C	0.760177	1.348688	1.518355
C28	C	0.760203	0.760192	1.792374
C29	C	0.760213	0.760205	1.909151
H30	H	0.576841	0.942917	1.118404
Cl31	Cl	0.532132	0.987565	0.895043
Cl32	Cl	0.988260	0.532799	1.142701
Cl33	Cl	0.988282	0.532840	0.895056
