data_functionalizedCrystal
_audit_creation_method	'MofGen! by Chris Wilmer'
_symmetry_space_group_name_H-M	'P1'
_symmetry_Int_Tables_number	1
_symmetry_cell_setting	triclinic
loop_
_symmetry_equiv_pos_as_xyz
  x,y,z
_cell_length_a	21.395364
_cell_length_b	19.076808
_cell_length_c	21.395355
_cell_angle_alpha	92.317436
_cell_angle_beta	90.024552
_cell_angle_gamma	92.338361
loop_
_atom_site_label
_atom_site_type_symbol
_atom_site_fract_x
_atom_site_fract_y
_atom_site_fract_z
Zn1	Zn	0.947867	-0.280018	0.344242
Zn2	Zn	1.447867	0.219982	0.844242
Zn3	Zn	0.943570	-0.397705	0.235254
Zn4	Zn	1.443570	0.102295	0.735254
Zn5	Zn	0.843081	-0.280049	0.239478
Zn6	Zn	1.343081	0.219951	0.739478
Zn7	Zn	0.838851	-0.397717	0.339993
Zn8	Zn	1.338851	0.102283	0.839993
O9	O	0.893342	-0.338872	0.289742
O10	O	1.393342	0.161128	0.789742
O11	O	1.034975	-0.295611	0.329795
O12	O	1.534975	0.204389	0.829795
O13	O	0.930211	-0.382105	0.148136
O14	O	1.430211	0.117895	0.648136
O15	O	0.860549	-0.181548	0.256921
O16	O	1.360549	0.318452	0.756921
O17	O	1.031818	-0.382075	0.249721
O18	O	1.531818	0.117925	0.749721
O19	O	0.937535	-0.181526	0.333891
O20	O	1.437535	0.318474	0.833891
O21	O	0.856382	-0.295664	0.151239
O22	O	1.356382	0.204336	0.651239
O23	O	0.754841	-0.295676	0.252801
O24	O	1.254841	0.204324	0.752801
O25	O	0.853340	-0.382097	0.428235
O26	O	1.353340	0.117903	0.928235
O27	O	0.751733	-0.382127	0.326649
O28	O	1.251733	0.117873	0.826649
O29	O	0.933434	-0.295624	0.431357
O30	O	1.433434	0.204376	0.931357
O31	O	0.926110	-0.496203	0.245602
O32	O	1.426110	0.003797	0.745602
O33	O	0.849173	-0.496212	0.322553
O34	O	1.349173	0.003788	0.822553
C35	C	0.730553	-0.338907	0.289723
C36	C	1.230553	0.161093	0.789723
C37	C	0.660911	-0.338938	0.289729
C38	C	1.160911	0.161062	0.789729
C39	C	0.629861	-0.293990	0.331482
C40	C	1.129861	0.206010	0.831482
C41	C	0.564426	-0.293972	0.331486
C42	C	1.064426	0.206028	0.831486
C43	C	0.530043	-0.338913	0.289741
C44	C	1.030043	0.161087	0.789741
C45	C	0.561100	-0.383864	0.247980
C46	C	1.061100	0.116136	0.747980
C47	C	0.626534	-0.383877	0.247974
C48	C	1.126534	0.116123	0.747974
C49	C	0.424057	-0.402300	0.282436
C50	C	0.924057	0.097700	0.782436
C51	C	0.358624	-0.402289	0.282446
C52	C	0.858624	0.097711	0.782446
C53	C	0.328224	-0.338875	0.289757
C54	C	0.828224	0.161125	0.789757
C55	C	0.363264	-0.275469	0.297070
C56	C	0.863264	0.224531	0.797070
C57	C	0.428698	-0.275482	0.297064
C58	C	0.928698	0.224518	0.797064
C59	C	0.459091	-0.338905	0.289743
C60	C	0.959091	0.161095	0.789743
C61	C	0.226223	-0.293903	0.331516
C62	C	0.726223	0.206097	0.831516
C63	C	0.160787	-0.293883	0.331514
C64	C	0.660787	0.206117	0.831514
C65	C	0.157462	-0.383782	0.248012
C66	C	0.657462	0.116218	0.748012
C67	C	0.222897	-0.383796	0.248010
C68	C	0.722897	0.116204	0.748010
C69	C	0.257273	-0.338857	0.289765
C70	C	0.757273	0.161143	0.789765
C71	C	0.886733	-0.521747	0.283172
C72	C	1.386733	-0.021747	0.783172
C73	C	0.883963	-0.599981	0.280382
C74	C	1.383963	-0.099981	0.780382
C75	C	0.922714	-0.636664	0.319178
C76	C	1.422714	-0.136664	0.819178
C77	C	0.920109	-0.710173	0.316558
C78	C	1.420109	-0.210173	0.816558
C79	C	0.878756	-0.746999	0.275138
C80	C	1.378756	-0.246999	0.775138
C81	C	0.840000	-0.710312	0.236341
C82	C	1.340000	-0.210312	0.736341
C83	C	0.842603	-0.636804	0.238964
C84	C	1.342603	-0.136804	0.738964
C85	C	0.866675	-0.966853	0.262993
C86	C	1.366675	-0.466853	0.762993
C87	C	0.864077	-1.040367	0.260371
C88	C	1.364077	-0.540367	0.760371
C89	C	0.944185	-1.040223	0.340590
C90	C	1.444185	-0.540223	0.840590
C91	C	0.946787	-0.966714	0.343207
C92	C	1.446787	-0.466714	0.843207
C93	C	0.908029	-0.930033	0.304412
C94	C	1.408029	-0.430033	0.804412
N95	N	0.876093	-0.822138	0.272458
N96	N	1.376093	-0.322138	0.772458
N97	N	0.910689	-0.854895	0.307096
N98	N	1.410689	-0.354895	0.807096
C99	C	1.056766	-0.338839	0.289761
C100	C	1.556766	0.161161	0.789761
C101	C	1.126408	-0.338824	0.289769
C102	C	1.626408	0.161176	0.789769
C103	C	0.893394	-0.338858	0.453165
C104	C	1.393394	0.161142	0.953165
C105	C	0.893417	-0.338852	0.522807
C106	C	1.393417	0.161148	1.022807
C107	C	0.899993	-0.155284	0.296351
C108	C	1.399993	0.344716	0.796351
C109	C	0.902828	-0.077049	0.299167
C110	C	1.402828	0.422951	0.799167
C111	C	0.893327	-0.338836	0.126955
C112	C	1.393327	0.161164	0.626955
C113	C	0.893434	-0.338644	0.057321
C114	C	1.393434	0.161356	0.557321
C115	C	0.935120	-0.293824	0.557147
C116	C	1.435120	0.206176	1.057147
C117	C	0.935120	-0.293793	0.622583
C118	C	1.435120	0.206207	1.122583
C119	C	0.893423	-0.338804	0.653677
C120	C	1.393423	0.161196	1.153677
C121	C	0.851712	-0.383836	0.619329
C122	C	1.351712	0.116164	1.119329
C123	C	0.851709	-0.383860	0.553894
C124	C	1.351709	0.116140	1.053894
C125	C	0.886186	-0.402182	0.755075
C126	C	1.386186	0.097818	1.255075
C127	C	0.886193	-0.402159	0.820509
C128	C	1.386193	0.097841	1.320509
C129	C	0.893430	-0.338730	0.855501
C130	C	1.393430	0.161270	1.355501
C131	C	0.900672	-0.275321	0.825051
C132	C	1.400672	0.224679	1.325051
C133	C	0.900669	-0.275345	0.759616
C134	C	1.400669	0.224655	1.259616
C135	C	0.893422	-0.338783	0.724630
C136	C	1.393422	0.161217	1.224630
C137	C	0.935135	-0.293665	0.960794
C138	C	1.435135	0.206335	1.460794
C139	C	0.935131	-0.293633	1.026232
C140	C	1.435131	0.206367	1.526232
C141	C	0.851727	-0.383682	1.022977
C142	C	1.351727	0.116318	1.522977
C143	C	0.851728	-0.383707	0.957540
C144	C	1.351728	0.116293	1.457540
C145	C	0.893435	-0.338699	0.926453
C146	C	1.393435	0.161301	1.426453
H147	H	0.651814	-0.420480	0.213972
H148	H	1.151814	0.079520	0.713972
C149	C	0.992290	-0.926211	0.388761
C150	C	1.492290	-0.426211	0.888761
N151	N	1.026570	-0.895704	0.423066
N152	N	1.526570	-0.395704	0.923066
H153	H	0.975739	-1.070097	0.372175
H154	H	1.475739	-0.570097	0.872175
H155	H	0.254214	-0.257306	0.365512
H156	H	0.754214	0.242694	0.865512
C157	C	0.818580	-1.080874	0.214807
C158	C	1.318580	-0.580874	0.714807
N159	N	0.784314	-1.111384	0.180490
N160	N	1.284314	-0.611384	0.680490
H161	H	0.811047	-0.606937	0.207373
H162	H	1.311047	-0.106937	0.707373
C163	C	0.981009	-0.244094	1.064006
C164	C	1.481009	0.255906	1.564006
N165	N	1.015566	-0.206781	1.092457
N166	N	1.515566	0.293219	1.592457
C167	C	0.824026	-0.926514	0.220331
C168	C	1.324026	-0.426514	0.720331
N169	N	0.791895	-0.896127	0.188202
N170	N	1.291895	-0.396127	0.688202
H171	H	0.969081	-0.257174	0.531839
H172	H	1.469081	0.242826	1.031839
C173	C	0.794549	-0.750823	0.190740
C174	C	1.294549	-0.250823	0.690740
N175	N	0.760330	-0.781335	0.156378
N176	N	1.260330	-0.281335	0.656378
C177	C	0.530265	-0.244527	0.377423
C178	C	1.030265	0.255473	0.877423
N179	N	0.504536	-0.207288	0.412025
N180	N	1.004536	0.292712	0.912025
C181	C	0.257052	-0.433248	0.202082
C182	C	0.757052	0.066752	0.702082
N183	N	0.282778	-0.470498	0.167486
N184	N	0.782778	0.029502	0.667486
C185	C	0.981002	-0.244261	0.660364
C186	C	1.481002	0.255739	1.160364
N187	N	1.015562	-0.206955	0.688819
N188	N	1.515562	0.293045	1.188819
C189	C	0.805832	-0.433398	0.516119
C190	C	1.305832	0.066602	1.016119
N191	N	0.771277	-0.470713	0.487666
N192	N	1.271277	0.029287	0.987666
C193	C	0.908626	-0.205596	0.726123
C194	C	1.408626	0.294404	1.226123
N195	N	0.914616	-0.153060	0.700897
N196	N	1.414616	0.346940	1.200897
C197	C	0.908631	-0.205542	0.863537
C198	C	1.408631	0.294458	1.363537
N199	N	0.914627	-0.152987	0.892528
N200	N	1.414627	0.347013	1.392528
H201	H	0.657847	-0.257397	0.365482
H202	H	1.157847	0.242603	0.865482
C203	C	0.467239	-0.205737	0.305100
C204	C	0.967239	0.294263	0.805100
N205	N	0.496269	-0.153203	0.311149
N206	N	0.996269	0.346797	0.811149
C207	C	0.805860	-0.433195	1.057176
C208	C	1.305860	0.066805	1.557176
N209	N	0.771312	-0.470489	1.082939
N210	N	1.271312	0.029511	1.582939
C211	C	0.981009	-0.244150	0.926596
C212	C	1.481009	0.255850	1.426596
N213	N	1.015560	-0.206853	0.900840
N214	N	1.515560	0.293147	1.400840
C215	C	0.878237	-0.471966	0.716590
C216	C	1.378237	0.028034	1.216590
N217	N	0.872254	-0.524525	0.687604
N218	N	1.372254	-0.024525	1.187604
H219	H	0.817772	-0.420378	0.929580
H220	H	1.317772	0.079622	1.429580
H221	H	0.880300	-0.453791	0.845296
H222	H	1.380300	0.046209	1.345296
C223	C	0.805843	-0.433344	0.653534
C224	C	1.305843	0.066656	1.153534
N225	N	0.771291	-0.470633	0.679297
N226	N	1.271291	0.029367	1.179297
H227	H	0.338514	-0.223831	0.303023
H228	H	0.838514	0.276169	0.803023
H229	H	0.956392	-0.606685	0.352903
H230	H	1.456392	-0.106685	0.852903
C231	C	0.126633	-0.244433	0.377448
C232	C	0.626633	0.255567	0.877448
N233	N	0.100907	-0.207187	0.412048
N234	N	0.600907	0.292813	0.912048
H235	H	0.129468	-0.420374	0.214023
H236	H	0.629468	0.079626	0.714023
H237	H	0.330099	-0.453918	0.276494
H238	H	0.830099	0.046082	0.776494
H239	H	0.448803	-0.453944	0.276482
H240	H	0.948803	0.046056	0.776482
C241	C	0.962747	-0.750521	0.359228
C242	C	1.462747	-0.250521	0.859228
N243	N	0.994867	-0.780910	0.391367
N244	N	1.494867	-0.280910	0.891367
C245	C	0.523278	-0.433301	0.202061
C246	C	1.023278	0.066699	0.702061
N247	N	0.494790	-0.470537	0.167473
N248	N	0.994790	0.029463	0.667473
