data_functionalizedCrystal
_audit_creation_method	'MofGen! by Chris Wilmer'
_symmetry_space_group_name_H-M	'P1'
_symmetry_Int_Tables_number	1
_symmetry_cell_setting	triclinic
loop_
_symmetry_equiv_pos_as_xyz
  x,y,z
_cell_length_a	13.897449
_cell_length_b	13.897448
_cell_length_c	10.686551
_cell_angle_alpha	85.592616
_cell_angle_beta	85.604174
_cell_angle_gamma	90.018972
loop_
_atom_site_label
_atom_site_type_symbol
_atom_site_fract_x
_atom_site_fract_y
_atom_site_fract_z
Zn1	Zn	1.516569	-0.342068	-0.713463
Zn2	Zn	1.766569	-0.092068	-0.463463
Zn3	Zn	2.016569	0.157932	-0.213463
Zn4	Zn	2.266569	0.407932	0.036537
Zn5	Zn	1.504081	-0.515777	-0.502453
Zn6	Zn	1.754081	-0.265777	-0.252453
Zn7	Zn	2.004081	-0.015777	-0.002453
Zn8	Zn	2.254081	0.234223	0.247547
Zn9	Zn	1.342877	-0.354500	-0.502476
Zn10	Zn	1.592877	-0.104500	-0.252476
Zn11	Zn	1.842877	0.145500	-0.002476
Zn12	Zn	2.092877	0.395500	0.247524
Zn13	Zn	1.355236	-0.503330	-0.713403
Zn14	Zn	1.605236	-0.253330	-0.463403
Zn15	Zn	1.855236	-0.003330	-0.213403
Zn16	Zn	2.105236	0.246670	0.036597
O17	O	1.429691	-0.428919	-0.607949
O18	O	1.679691	-0.178919	-0.357949
O19	O	1.929691	0.071081	-0.107949
O20	O	2.179691	0.321081	0.142051
O21	O	1.649895	-0.365117	-0.685488
O22	O	1.899895	-0.115117	-0.435488
O23	O	2.149895	0.134883	-0.185488
O24	O	2.399895	0.384883	0.064512
O25	O	1.472298	-0.504795	-0.325875
O26	O	1.722298	-0.254795	-0.075875
O27	O	1.972298	-0.004795	0.174125
O28	O	2.222298	0.245205	0.424125
O29	O	1.365972	-0.217867	-0.530498
O30	O	1.615972	0.032133	-0.280498
O31	O	1.865972	0.282133	-0.030498
O32	O	2.115972	0.532133	0.219502
O33	O	1.640720	-0.492741	-0.530460
O34	O	1.890720	-0.242741	-0.280460
O35	O	2.140720	0.007259	-0.030460
O36	O	2.390720	0.257259	0.219540
O37	O	1.493583	-0.208734	-0.685510
O38	O	1.743583	0.041266	-0.435510
O39	O	1.993583	0.291266	-0.185510
O40	O	2.243583	0.541266	0.064490
O41	O	1.353863	-0.386305	-0.325891
O42	O	1.603863	-0.136305	-0.075891
O43	O	1.853863	0.113695	0.174109
O44	O	2.103863	0.363695	0.424109
O45	O	1.209534	-0.374236	-0.530440
O46	O	1.459534	-0.124236	-0.280440
O47	O	1.709534	0.125764	-0.030440
O48	O	1.959534	0.375764	0.219560
O49	O	1.387036	-0.471527	-0.889993
O50	O	1.637036	-0.221527	-0.639993
O51	O	1.887036	0.028473	-0.389993
O52	O	2.137036	0.278473	-0.139993
O53	O	1.218614	-0.483581	-0.685407
O54	O	1.468614	-0.233581	-0.435407
O55	O	1.718614	0.016419	-0.185407
O56	O	1.968614	0.266419	0.064593
O57	O	1.505567	-0.353048	-0.890037
O58	O	1.755567	-0.103048	-0.640037
O59	O	2.005567	0.146952	-0.390037
O60	O	2.255567	0.396952	-0.140037
O61	O	1.484282	-0.649110	-0.530402
O62	O	1.734282	-0.399110	-0.280402
O63	O	1.984282	-0.149110	-0.030402
O64	O	2.234282	0.100890	0.219598
O65	O	1.374927	-0.639965	-0.685385
O66	O	1.624927	-0.389965	-0.435385
O67	O	1.874927	-0.139965	-0.185385
O68	O	2.124927	0.110035	0.064615
C69	C	1.179075	-0.428908	-0.607920
C70	C	1.429075	-0.178908	-0.357920
C71	C	1.679075	0.071092	-0.107920
C72	C	1.929075	0.321092	0.142080
C73	C	1.071862	-0.428924	-0.607938
C74	C	1.321862	-0.178924	-0.357938
C75	C	1.571862	0.071076	-0.107938
C76	C	1.821862	0.321076	0.142062
C77	C	1.429618	-0.679535	-0.607912
C78	C	1.679618	-0.429535	-0.357912
C79	C	1.929618	-0.179535	-0.107912
C80	C	2.179618	0.070465	0.142088
C81	C	1.429678	-0.786748	-0.607939
C82	C	1.679678	-0.536748	-0.357939
C83	C	1.929678	-0.286748	-0.107939
C84	C	2.179678	-0.036748	0.142061
C85	C	0.875569	-0.428926	-0.607971
C86	C	1.125569	-0.178926	-0.357971
C87	C	1.375569	0.071074	-0.107971
C88	C	1.625569	0.321074	0.142029
C89	C	0.984800	-0.428922	-0.607949
C90	C	1.234800	-0.178922	-0.357949
C91	C	1.484800	0.071078	-0.107949
C92	C	1.734800	0.321078	0.142051
C93	C	1.429784	-0.983038	-0.608018
C94	C	1.679784	-0.733038	-0.358018
C95	C	1.929784	-0.483038	-0.108018
C96	C	2.179784	-0.233038	0.141982
C97	C	1.429723	-0.873808	-0.607978
C98	C	1.679723	-0.623808	-0.357978
C99	C	1.929723	-0.373808	-0.107978
C100	C	2.179723	-0.123808	0.142022
C101	C	1.681286	-0.428931	-0.607978
C102	C	1.931286	-0.178931	-0.357978
C103	C	2.181286	0.071069	-0.107978
C104	C	2.431286	0.321069	0.142022
C105	C	1.788500	-0.428936	-0.607991
C106	C	2.038500	-0.178936	-0.357991
C107	C	2.288500	0.071064	-0.107991
C108	C	2.538500	0.321064	0.142009
C109	C	1.449073	-0.409512	-0.937081
C110	C	1.699073	-0.159512	-0.687081
C111	C	1.949073	0.090488	-0.437081
C112	C	2.199073	0.340488	-0.187081
C113	C	1.457333	-0.401242	-1.077337
C114	C	1.707333	-0.151242	-0.827337
C115	C	1.957333	0.098758	-0.577337
C116	C	2.207333	0.348758	-0.327337
C117	C	1.429792	-0.177322	-0.608013
C118	C	1.679792	0.072678	-0.358013
C119	C	1.929792	0.322678	-0.108013
C120	C	2.179792	0.572678	0.141987
C121	C	1.429835	-0.070107	-0.608040
C122	C	1.679835	0.179893	-0.358040
C123	C	1.929835	0.429893	-0.108040
C124	C	2.179835	0.679893	0.141960
C125	C	1.410440	-0.448180	-0.280097
C126	C	1.660440	-0.198180	-0.030097
C127	C	1.910440	0.051820	0.219903
C128	C	2.160440	0.301820	0.469903
C129	C	1.402367	-0.456178	-0.139842
C130	C	1.652367	-0.206178	0.110158
C131	C	1.902367	0.043822	0.360158
C132	C	2.152367	0.293822	0.610158
H133	H	1.348993	-0.509541	-1.086054
H134	H	1.598993	-0.259541	-0.836054
H135	H	1.848993	-0.009541	-0.586054
H136	H	2.098993	0.240459	-0.336054
C137	C	1.529451	-0.329157	-1.149997
C138	C	1.779451	-0.079157	-0.899997
C139	C	2.029451	0.170843	-0.649997
C140	C	2.279451	0.420843	-0.399997
H141	H	1.525728	-0.332864	-1.237896
H142	H	1.775728	-0.082864	-0.987896
H143	H	2.025728	0.167136	-0.737896
H144	H	2.275728	0.417136	-0.487896
H145	H	1.593000	-0.344534	-1.128457
H146	H	1.843000	-0.094534	-0.878457
H147	H	2.093000	0.155466	-0.628457
H148	H	2.343000	0.405466	-0.378457
H149	H	1.514102	-0.265596	-1.128478
H150	H	1.764102	-0.015596	-0.878478
H151	H	2.014102	0.234404	-0.628478
H152	H	2.264102	0.484404	-0.378478
