data_functionalizedCrystal
_audit_creation_method	'MofGen! by Chris Wilmer'
_symmetry_space_group_name_H-M	'P1'
_symmetry_Int_Tables_number	1
_symmetry_cell_setting	triclinic
loop_
_symmetry_equiv_pos_as_xyz
  x,y,z
_cell_length_a	16.109301
_cell_length_b	27.732048
_cell_length_c	15.186229
_cell_angle_alpha	89.991324
_cell_angle_beta	89.999362
_cell_angle_gamma	83.052068
loop_
_atom_site_label
_atom_site_type_symbol
_atom_site_fract_x
_atom_site_fract_y
_atom_site_fract_z
O1	O	1.102361	0.062130	-0.073183
O2	O	0.860204	0.069862	-0.073198
O3	O	0.988803	-0.004369	-0.073173
O4	O	0.973762	0.136361	-0.073208
O5	O	0.988795	-0.004370	0.073284
O6	O	0.860195	0.069861	0.073259
O7	O	1.102353	0.062129	0.073275
Zn8	Zn	0.981273	0.065995	0.096520
Zn9	Zn	0.981284	0.065996	-0.096444
O10	O	0.973753	0.136360	0.073250
C11	C	0.829228	0.069548	0.000029
C12	C	0.736945	0.068609	0.000024
C13	C	0.514154	0.110473	0.000024
C14	C	0.427445	0.109587	0.000030
C15	C	0.448409	0.021514	0.000048
C16	C	0.535117	0.022401	0.000048
C17	C	0.567987	0.066882	0.000032
C18	C	0.394570	0.065109	0.000037
C19	C	0.300556	0.064148	0.000044
C20	C	0.662007	0.067843	0.000027
C21	C	0.988483	-0.022378	0.000058
C22	C	0.987533	-0.076037	0.000065
C23	C	1.057541	-0.414559	0.000024
C24	C	1.054013	-0.616233	0.000012
O25	O	1.118031	-0.647221	-0.000023
N26	N	0.977759	-0.635676	0.000008
C27	C	0.902381	-0.604697	0.000001
O28	O	0.837441	-0.625862	-0.000011
C29	C	0.905910	-0.403024	0.000008
C30	C	0.982169	-0.383584	0.000020
C31	C	1.133794	-0.395119	0.000036
C32	C	1.134675	-0.344703	0.000044
C33	C	1.059303	-0.313728	0.000040
C34	C	0.983050	-0.333168	0.000028
C35	C	0.830533	-0.372045	-0.000005
C36	C	0.831422	-0.321624	-0.000006
C37	C	0.907681	-0.302184	0.000007
C38	C	0.908559	-0.251777	0.000032
N39	N	0.984814	-0.232334	0.000036
C40	C	1.060186	-0.263310	0.000040
C41	C	0.900534	-0.710579	-0.000000
C42	C	0.899652	-0.760997	-0.000000
C43	C	1.051284	-0.772530	0.000009
C44	C	1.052166	-0.722111	0.000015
C45	C	0.976789	-0.691136	0.000004
C46	C	1.062030	-0.157433	0.000058
C47	C	1.062905	-0.107012	0.000069
C48	C	0.911273	-0.095484	0.000056
C49	C	0.910398	-0.145900	0.000049
C50	C	0.985783	-0.176874	0.000047
O51	O	0.844576	-0.220761	0.000057
O52	O	1.125116	-0.242135	0.000033
C53	C	1.056660	-0.464975	0.000016
C54	C	0.980407	-0.484415	0.000005
C55	C	0.905035	-0.453440	0.000001
C56	C	0.979525	-0.534833	0.000005
C57	C	1.054897	-0.565808	0.000009
C58	C	1.131151	-0.546365	0.000013
C59	C	1.132032	-0.495950	0.000020
C60	C	0.828781	-0.472883	-0.000003
C61	C	0.827906	-0.523299	-0.000010
C62	C	0.903278	-0.554274	-0.000006
C63	C	1.133328	0.062443	0.000046
C64	C	1.225612	0.063382	0.000045
C65	C	0.974073	0.154369	0.000017
C66	C	0.975024	0.208028	0.000004
N67	N	0.981271	0.065994	0.228213
N68	N	0.981292	0.065994	-0.228136
C69	C	1.038234	0.033135	0.453947
C70	C	1.038237	0.033134	0.546136
C71	C	0.924323	0.098854	0.546124
C72	C	0.924317	0.098852	0.453936
C73	C	0.981277	0.065993	0.407850
C74	C	0.981286	0.065994	0.592227
C75	C	0.981288	0.065993	0.692183
C76	C	0.981274	0.065994	0.307887
H77	H	0.383617	0.145084	0.000025
H78	H	0.877932	0.125610	0.416401
C79	C	0.862354	0.134473	0.596118
C80	C	0.780759	0.126611	0.573723
C81	C	0.723652	0.159410	0.619768
H82	H	0.870851	0.166756	0.581037
H83	H	0.870461	0.129766	0.657633
H84	H	0.772656	0.131322	0.512222
H85	H	0.772236	0.094334	0.588806
H86	H	0.731758	0.154703	0.681283
H87	H	0.732156	0.191691	0.604684
H88	H	0.668283	0.154077	0.604586
C89	C	1.100118	-0.002463	0.596298
C90	C	1.150665	0.023294	0.649230
C91	C	1.207673	-0.009484	0.695459
H92	H	1.134119	-0.022046	0.555746
H93	H	1.070495	-0.022584	0.632318
H94	H	1.180285	0.043406	0.613213
H95	H	1.116688	0.042874	0.689798
H96	H	1.178051	-0.029604	0.731480
H97	H	1.241668	-0.029064	0.654901
H98	H	1.241971	0.007987	0.731385
H99	H	0.421636	-0.014700	0.000066
C100	C	0.549681	0.158814	0.000060
C101	C	0.483973	0.196800	0.000079
C102	C	0.516665	0.241339	0.000127
H103	H	0.583056	0.161063	-0.050999
H104	H	0.583045	0.161015	0.051153
H105	H	0.450622	0.194600	-0.051009
H106	H	0.450591	0.194567	0.051134
H107	H	0.550029	0.243540	0.051220
H108	H	0.550040	0.243583	-0.050933
H109	H	0.472087	0.267118	0.000148
H110	H	1.114263	-0.706287	0.000025
H111	H	0.578951	-0.013099	0.000057
C112	C	1.133182	-0.806108	-0.000132
C113	C	1.179141	-0.797310	-0.075472
C114	C	1.254590	-0.828230	-0.075633
H115	H	1.121848	-0.838935	-0.000180
H116	H	1.164530	-0.800217	0.050913
H117	H	1.147800	-0.803205	-0.126504
H118	H	1.190498	-0.764489	-0.075440
H119	H	1.285938	-0.822339	-0.024589
H120	H	1.243247	-0.861055	-0.075679
H121	H	1.285786	-0.822261	-0.126747
C122	C	1.145791	-0.086001	0.000034
C123	C	1.211607	-0.123923	0.000009
C124	C	1.287970	-0.104587	-0.000037
H125	H	1.149407	-0.066586	0.051095
H126	H	1.149335	-0.066580	-0.051057
H127	H	1.208064	-0.143335	0.051095
H128	H	1.208019	-0.143341	-0.051049
H129	H	1.291514	-0.085167	-0.051128
H130	H	1.291577	-0.085173	0.051025
H131	H	1.332635	-0.130314	-0.000063
C132	C	1.100106	-0.002597	0.404069
C133	C	1.149971	-0.031382	0.464175
C134	C	1.206969	-0.064309	0.418263
H135	H	1.134570	0.014738	0.368094
H136	H	1.070477	-0.022750	0.368135
H137	H	1.179599	-0.011231	0.500094
H138	H	1.115531	-0.048727	0.500152
H139	H	1.177339	-0.084462	0.382330
H140	H	1.241426	-0.046970	0.382290
H141	H	1.240804	-0.083847	0.459038
C142	C	1.143851	-0.191080	-0.000120
C143	C	1.147803	-0.220346	-0.075483
C144	C	1.223167	-0.251343	-0.075676
H145	H	1.146739	-0.211039	0.050891
H146	H	1.189409	-0.172292	-0.000158
H147	H	1.102258	-0.239132	-0.075437
H148	H	1.144930	-0.200400	-0.126506
H149	H	1.268726	-0.232555	-0.075714
H150	H	1.226049	-0.271298	-0.024661
H151	H	1.225862	-0.271200	-0.126812
C152	C	1.212896	-0.580082	-0.000031
C153	C	1.195790	-0.628395	-0.000063
C154	C	1.271067	-0.659470	-0.000121
H155	H	1.244256	-0.574263	0.051029
H156	H	1.244199	-0.574214	-0.051124
H157	H	1.164500	-0.634261	0.051025
H158	H	1.164442	-0.634230	-0.051119
H159	H	1.302371	-0.653602	-0.051214
H160	H	1.302422	-0.653646	0.050940
H161	H	1.259472	-0.692254	-0.000151
H162	H	1.196773	-0.328880	0.000051
C163	C	1.215572	-0.428802	0.000180
C164	C	1.219487	-0.458097	0.075519
C165	C	1.294807	-0.489133	0.075682
H166	H	1.261174	-0.410057	0.000231
H167	H	1.218399	-0.448735	-0.050865
H168	H	1.216668	-0.438166	0.126551
H169	H	1.173901	-0.476852	0.075484
H170	H	1.297635	-0.509066	0.024637
H171	H	1.340404	-0.470384	0.075731
H172	H	1.297470	-0.509016	0.126795
C173	C	0.816769	-0.782006	-0.000049
C174	C	0.750957	-0.744082	-0.000078
C175	C	0.674591	-0.763415	-0.000140
H176	H	0.813145	-0.801431	0.051008
H177	H	0.813229	-0.801415	-0.051144
H178	H	0.754495	-0.724681	0.051012
H179	H	0.754553	-0.724654	-0.051131
H180	H	0.671051	-0.782824	-0.051235
H181	H	0.670976	-0.782840	0.050918
H182	H	0.629928	-0.737687	-0.000168
C183	C	0.818714	-0.676930	-0.000187
C184	C	0.814771	-0.647650	-0.075547
C185	C	0.739405	-0.616655	-0.075752
H186	H	0.815817	-0.656981	0.050826
H187	H	0.773157	-0.695719	-0.000235
H188	H	0.860315	-0.628863	-0.075491
H189	H	0.817653	-0.667586	-0.126573
H190	H	0.693848	-0.635443	-0.075800
H191	H	0.736516	-0.596708	-0.024736
H192	H	0.736717	-0.596788	-0.126886
H193	H	0.768435	-0.387864	-0.000021
H194	H	0.770039	-0.296407	-0.000017
H195	H	0.848301	-0.161728	0.000063
C196	C	0.746853	-0.439337	0.000044
C197	C	0.679893	-0.467162	0.000062
C198	C	0.604404	-0.436278	0.000123
H199	H	0.743919	-0.419410	-0.051010
H200	H	0.743997	-0.419444	0.051142
H201	H	0.682748	-0.487046	-0.051032
H202	H	0.682800	-0.487088	0.051112
H203	H	0.601547	-0.416385	0.051222
H204	H	0.601478	-0.416352	-0.050931
H205	H	0.558963	-0.455152	0.000144
C206	C	0.829470	-0.061823	-0.000134
C207	C	0.825559	-0.032544	-0.075495
C208	C	0.750211	-0.001534	-0.075713
H209	H	0.826578	-0.041873	0.050878
H210	H	0.783898	-0.080601	-0.000191
H211	H	0.871118	-0.013768	-0.075430
H212	H	0.828436	-0.052481	-0.126520
H213	H	0.704639	-0.020311	-0.075770
H214	H	0.747325	0.018413	-0.024697
H215	H	0.747543	0.018333	-0.126848
H216	H	1.194130	-0.480127	0.000031
H217	H	0.765802	-0.539121	-0.000013
