data_functionalizedCrystal
_audit_creation_method	'MofGen! by Chris Wilmer'
_symmetry_space_group_name_H-M	'P1'
_symmetry_Int_Tables_number	1
_symmetry_cell_setting	triclinic
loop_
_symmetry_equiv_pos_as_xyz
  x,y,z
_cell_length_a	19.077105
_cell_length_b	13.031981
_cell_length_c	19.076919
_cell_angle_alpha	95.212724
_cell_angle_beta	89.923776
_cell_angle_gamma	94.612336
loop_
_atom_site_label
_atom_site_type_symbol
_atom_site_fract_x
_atom_site_fract_y
_atom_site_fract_z
Zn1	Zn	1.017314	-0.500549	0.395930
Zn2	Zn	1.517314	-0.000549	0.895930
Zn3	Zn	1.008342	-0.666908	0.263638
Zn4	Zn	1.508342	-0.166908	0.763638
Zn5	Zn	0.905666	-0.486689	0.274955
Zn6	Zn	1.405666	0.013311	0.774955
Zn7	Zn	0.886215	-0.666284	0.376446
Zn8	Zn	1.386215	-0.166284	0.876446
O9	O	0.954384	-0.580108	0.327742
O10	O	1.454384	-0.080108	0.827742
O11	O	1.113960	-0.528679	0.381799
O12	O	1.613960	-0.028679	0.881799
O13	O	0.999107	-0.637462	0.167300
O14	O	1.499107	-0.137462	0.667300
O15	O	0.932371	-0.343744	0.303894
O16	O	1.432371	0.156256	0.803894
O17	O	1.107368	-0.650902	0.284605
O18	O	1.607368	-0.150902	0.784605
O19	O	1.014399	-0.353927	0.392773
O20	O	1.514399	0.146073	0.892773
O21	O	0.923672	-0.505056	0.175615
O22	O	1.423672	-0.005056	0.675615
O23	O	0.805250	-0.504451	0.285001
O24	O	1.305250	-0.004451	0.785001
O25	O	0.899220	-0.649839	0.476870
O26	O	1.399220	-0.149839	0.976870
O27	O	0.790959	-0.636399	0.359565
O28	O	1.290959	-0.136399	0.859565
O29	O	0.995538	-0.528074	0.491185
O30	O	1.495538	-0.028074	0.991185
O31	O	0.980246	-0.811608	0.265711
O32	O	1.480246	-0.311608	0.765711
O33	O	0.890520	-0.811150	0.348591
O34	O	1.390520	-0.311150	0.848591
C35	C	0.772737	-0.568854	0.321397
C36	C	1.272737	-0.068854	0.821397
C37	C	0.695024	-0.564065	0.318697
C38	C	1.195024	-0.064065	0.818697
C39	C	0.932317	-0.848922	0.303825
C40	C	1.432317	-0.348922	0.803825
C41	C	0.922940	-0.963927	0.293618
C42	C	1.422940	-0.463927	0.793618
C43	C	0.651088	-0.630609	0.356171
C44	C	1.151088	-0.130609	0.856171
C45	C	0.578070	-0.626097	0.353638
C46	C	1.078070	-0.126097	0.853638
C47	C	0.548989	-0.555044	0.313627
C48	C	1.048989	-0.055044	0.813627
C49	C	0.592932	-0.488492	0.276152
C50	C	1.092932	0.011508	0.776152
C51	C	0.665948	-0.493001	0.278689
C52	C	1.165948	0.006999	0.778689
C53	C	0.331409	-0.534178	0.301889
C54	C	0.831409	-0.034178	0.801889
C55	C	0.258387	-0.529677	0.299353
C56	C	0.758387	-0.029677	0.799353
C57	C	0.243530	-0.667280	0.376841
C58	C	0.743530	-0.167280	0.876841
C59	C	0.316549	-0.671787	0.379371
C60	C	0.816549	-0.171787	0.879371
C61	C	0.360485	-0.605232	0.341899
C62	C	0.860485	-0.105232	0.841899
N63	N	0.474353	-0.550432	0.311036
N64	N	0.974353	-0.050432	0.811036
N65	N	0.435120	-0.609840	0.344495
N66	N	0.935120	-0.109840	0.844495
C67	C	0.959315	-1.020156	0.333085
C68	C	1.459315	-0.520156	0.833085
C69	C	0.949624	-1.139020	0.322537
C70	C	1.449624	-0.639020	0.822537
C71	C	1.136741	-0.591406	0.334113
C72	C	1.636741	-0.091406	0.834113
C73	C	1.214450	-0.596221	0.336828
C74	C	1.714450	-0.096221	0.836828
C75	C	0.946210	-0.590433	0.510105
C76	C	1.446210	-0.090433	1.010105
C77	C	0.942726	-0.594833	0.587817
C78	C	1.442726	-0.094833	1.087817
C79	C	0.976556	-0.310246	0.351769
C80	C	1.476556	0.189754	0.851769
C81	C	0.986004	-0.195246	0.362008
C82	C	1.486004	0.304754	0.862008
C83	C	0.962573	-0.569750	0.146097
C84	C	1.462573	-0.069750	0.646097
C85	C	0.966216	-0.565067	0.068416
C86	C	1.466216	-0.065067	0.568416
C87	C	0.991235	-0.533506	0.631780
C88	C	1.491235	-0.033506	1.131780
C89	C	0.987954	-0.537636	0.704799
C90	C	1.487954	-0.037636	1.204799
C91	C	0.936167	-0.603098	0.733853
C92	C	1.436167	-0.103098	1.233853
C93	C	0.887653	-0.664427	0.689884
C94	C	1.387653	-0.164427	1.189884
C95	C	0.890932	-0.660291	0.616867
C96	C	1.390932	-0.160291	1.116867
C97	C	0.920981	-0.622260	0.951431
C98	C	1.420981	-0.122260	1.451431
C99	C	0.917707	-0.626394	1.024453
C100	C	1.417707	-0.126394	1.524453
C101	C	1.018007	-0.499601	1.039363
C102	C	1.518007	0.000399	1.539363
C103	C	1.021284	-0.495475	0.966344
C104	C	1.521284	0.004525	1.466344
C105	C	0.972768	-0.556800	0.922382
C106	C	1.472768	-0.056800	1.422382
N107	N	0.932813	-0.607323	0.808489
N108	N	1.432813	-0.107323	1.308489
N109	N	0.976120	-0.552569	0.847747
N110	N	1.476120	-0.052569	1.347747
H111	H	0.674759	-0.688472	0.388750
H112	H	1.174759	-0.188472	0.888750
N113	N	1.010070	-0.967360	0.388184
N114	N	1.510070	-0.467360	0.888184
H115	H	1.059006	-0.988531	0.377466
H116	H	1.559006	-0.488531	0.877466
H117	H	0.995356	-0.988268	0.436076
H118	H	1.495356	-0.488268	0.936076
N119	N	0.872186	-1.016709	0.238511
N120	N	1.372186	-0.516709	0.738511
H121	H	0.823252	-0.995536	0.249228
H122	H	1.323252	-0.495536	0.749228
H123	H	0.872518	-1.094125	0.238811
H124	H	1.372518	-0.594125	0.738811
N125	N	0.898868	-1.191808	0.267430
N126	N	1.398868	-0.691808	0.767430
H127	H	0.913524	-1.170914	0.219516
H128	H	1.413524	-0.670914	0.719516
H129	H	0.849951	-1.170616	0.278209
H130	H	1.349951	-0.670616	0.778209
N131	N	1.047099	-0.462908	0.600449
N132	N	1.547099	0.037092	1.100449
H133	H	1.077404	-0.505254	0.567550
H134	H	1.577404	-0.005254	1.067550
H135	H	1.077279	-0.424704	0.639427
H136	H	1.577279	0.075296	1.139427
H137	H	1.024321	-1.155393	0.403611
H138	H	1.524321	-0.655393	0.903611
H139	H	1.027456	-0.487700	0.740591
H140	H	1.527456	0.012300	1.240591
N141	N	1.077142	-0.424873	0.935008
N142	N	1.577142	0.075127	1.435008
H143	H	1.107375	-0.386648	0.973939
H144	H	1.607375	0.113352	1.473939
H145	H	1.053979	-0.373514	0.907979
H146	H	1.553979	0.126486	1.407979
H147	H	1.057505	-0.449672	1.075165
H148	H	1.557505	0.050328	1.575165
H149	H	0.875533	-0.679704	1.048106
H150	H	1.375533	-0.179704	1.548106
N151	N	0.868635	-0.688365	0.904022
N152	N	1.368635	-0.188365	1.404022
H153	H	0.835328	-0.730452	0.933510
H154	H	1.335328	-0.230452	1.433510
H155	H	0.894493	-0.736304	0.870442
H156	H	1.394493	-0.236304	1.370442
H157	H	0.845484	-0.717724	0.713546
H158	H	1.345484	-0.217724	1.213546
N159	N	0.227009	-0.453067	0.256180
N160	N	0.727009	0.046933	0.756180
H161	H	0.199357	-0.404932	0.287841
H162	H	0.699357	0.095068	0.787841
H163	H	0.194761	-0.491451	0.218958
H164	H	0.694761	0.008549	0.718958
H165	H	0.542299	-0.680285	0.384153
H166	H	1.042299	-0.180285	0.884153
N167	N	0.561563	-0.411870	0.232990
N168	N	1.061563	0.088130	0.732990
H169	H	0.579838	-0.339368	0.250941
H170	H	1.079838	0.160632	0.750941
H171	H	0.508645	-0.419214	0.237084
H172	H	1.008645	0.080786	0.737084
H173	H	0.851424	-0.710219	0.581073
H174	H	1.351424	-0.210219	1.081073
N175	N	0.378793	-0.462382	0.261487
N176	N	0.878793	0.037618	0.761487
H177	H	0.349288	-0.416686	0.235759
H178	H	0.849288	0.083314	0.735759
H179	H	0.407094	-0.504437	0.226394
H180	H	0.907094	-0.004437	0.726394
H181	H	0.207750	-0.721464	0.407350
H182	H	0.707750	-0.221464	0.907350
H183	H	0.340220	-0.729648	0.411951
H184	H	0.840220	-0.229648	0.911951
H185	H	0.701722	-0.438808	0.248178
H186	H	1.201722	0.061192	0.748178
