data_functionalizedCrystal
_audit_creation_method	'MofGen! by Chris Wilmer'
_symmetry_space_group_name_H-M	'P1'
_symmetry_Int_Tables_number	1
_symmetry_cell_setting	triclinic
loop_
_symmetry_equiv_pos_as_xyz
  x,y,z
_cell_length_a	9.065218
_cell_length_b	19.288865
_cell_length_c	17.766277
_cell_angle_alpha	90.011603
_cell_angle_beta	90.009412
_cell_angle_gamma	84.076066
loop_
_atom_site_label
_atom_site_type_symbol
_atom_site_fract_x
_atom_site_fract_y
_atom_site_fract_z
O1	O	-1.956844	-0.101842	-0.062606
O2	O	-1.527266	-0.110195	-0.062608
O3	O	-1.754468	-0.004985	-0.062592
O4	O	-1.729642	-0.207053	-0.062622
O5	O	-1.754428	-0.004979	0.062596
O6	O	-1.527227	-0.110190	0.062580
O7	O	-1.956804	-0.101836	0.062582
Cu8	Cu	-1.742012	-0.106013	0.074012
Cu9	Cu	-1.742059	-0.106019	-0.074038
O10	O	-1.729603	-0.207047	0.062566
C11	C	-1.472288	-0.109390	-0.000014
C12	C	-1.308529	-0.106989	-0.000014
C13	C	-2.011782	-0.102642	-0.000014
C14	C	-2.175541	-0.105043	-0.000019
C15	C	-1.753649	0.020901	0.000004
C16	C	-1.751251	0.098023	0.000011
C17	C	-1.730421	-0.232933	-0.000032
C18	C	-1.732819	-0.310055	-0.000043
N19	N	-1.741989	-0.106007	0.178142
C20	C	-1.884563	0.141684	0.000015
C21	C	-1.882310	0.214149	0.000003
C22	C	-1.746738	0.242949	0.000002
C23	C	-1.613409	0.199278	-0.000006
C24	C	-1.615666	0.126815	-0.000002
C25	C	-1.640149	0.352066	0.043852
C26	C	-1.637898	0.424528	0.043853
C27	C	-1.739773	0.466448	-0.000015
C28	C	-1.843923	0.435900	-0.043873
C29	C	-1.846180	0.363437	-0.043868
C30	C	-1.744276	0.321522	-0.000003
C31	C	-1.870651	0.588685	-0.000025
C32	C	-1.868392	0.661150	-0.000041
C33	C	-1.599488	0.646278	-0.000043
C34	C	-1.601750	0.573814	-0.000034
C35	C	-1.737335	0.545022	-0.000021
N36	N	-1.742093	-0.106019	-0.178168
C37	C	-1.842627	-0.059444	0.217536
C38	C	-1.842635	-0.059440	0.296338
C39	C	-1.742020	-0.106013	0.335743
C40	C	-1.641364	-0.152581	0.296339
C41	C	-1.641349	-0.152578	0.217539
C42	C	-1.722271	-0.169148	0.460571
C43	C	-1.722297	-0.169151	0.539370
C44	C	-1.742060	-0.106022	0.578789
C45	C	-1.761829	-0.042886	0.539400
C46	C	-1.761813	-0.042883	0.460599
C47	C	-1.742026	-0.106021	0.421189
C48	C	-1.842712	-0.059451	0.703629
C49	C	-1.842710	-0.059447	0.782432
C50	C	-1.641446	-0.152593	0.782432
C51	C	-1.641441	-0.152591	0.703630
C52	C	-1.742082	-0.106021	0.664234
H53	H	-1.994967	0.118247	0.000023
C54	C	-1.523331	0.458124	0.092097
N55	N	-1.437034	0.483427	0.128435
C56	C	-1.953320	-0.008208	0.174204
N57	N	-2.036691	0.030385	0.141565
C58	C	-1.700537	-0.238601	0.582691
N59	N	-1.684138	-0.290913	0.615319
C60	C	-2.019796	0.557011	-0.000022
N61	N	-2.132134	0.533156	-0.000022
H62	H	-1.706152	-0.220558	0.428483
C63	C	-1.530770	-0.203824	0.825773
N64	N	-1.447404	-0.242413	0.858421
C65	C	-2.015054	0.709178	-0.000032
N66	N	-2.125522	0.745354	-0.000022
H67	H	-1.777905	0.008524	0.428531
H68	H	-1.493193	0.538264	-0.000033
H69	H	-1.489102	0.669726	-0.000048
H70	H	-1.559440	-0.190500	0.328427
C71	C	-1.530699	-0.203835	0.174204
N72	N	-1.447380	-0.242454	0.141564
C73	C	-1.955990	0.482007	-0.092134
N74	N	-2.040396	0.516739	-0.128483
C75	C	-1.464280	0.230959	-0.000002
N76	N	-1.351951	0.254822	0.000001
C77	C	-1.960733	0.329835	-0.092117
N78	N	-2.047011	0.304527	-0.128462
C79	C	-1.953404	-0.008217	0.660290
N80	N	-2.036775	0.030375	0.627649
C81	C	-2.028969	0.262185	0.000013
N82	N	-2.139433	0.298364	0.000022
C83	C	-1.469006	0.078785	-0.000005
N84	N	-1.358539	0.042608	-0.000005
C85	C	-1.783565	0.026563	0.582754
N86	N	-1.799939	0.078869	0.615413
C87	C	-1.953400	-0.008208	0.825766
N88	N	-2.036768	0.030389	0.858405
H89	H	-1.557186	0.317939	0.079579
H90	H	-1.559499	-0.190510	0.671554
C91	C	-1.953363	-0.008221	0.339680
N92	N	-2.036769	0.030354	0.372323
