data_functionalizedCrystal
_audit_creation_method	'MofGen! by Chris Wilmer'
_symmetry_space_group_name_H-M	'P1'
_symmetry_Int_Tables_number	1
_symmetry_cell_setting	triclinic
loop_
_symmetry_equiv_pos_as_xyz
  x,y,z
_cell_length_a	16.625548
_cell_length_b	13.032721
_cell_length_c	13.033327
_cell_angle_alpha	105.164023
_cell_angle_beta	97.187858
_cell_angle_gamma	82.794397
loop_
_atom_site_label
_atom_site_type_symbol
_atom_site_fract_x
_atom_site_fract_y
_atom_site_fract_z
Zn1	Zn	1.247728	0.499335	0.654268
Zn2	Zn	1.747728	0.999335	1.154268
Zn3	Zn	1.217283	0.654353	0.499203
Zn4	Zn	1.717283	1.154353	0.999203
Zn5	Zn	1.097738	0.476757	0.476672
Zn6	Zn	1.597738	0.976757	0.976672
Zn7	Zn	1.097662	0.676906	0.676758
Zn8	Zn	1.597662	1.176906	1.176758
O9	O	1.165103	0.576837	0.576725
O10	O	1.665103	1.076837	1.076725
O11	O	1.356522	0.519909	0.633716
O12	O	1.856522	1.019909	1.133716
O13	O	1.188715	0.611908	0.347583
O14	O	1.688715	1.111908	0.847583
O15	O	1.130408	0.331113	0.481389
O16	O	1.630408	0.831113	0.981389
O17	O	1.334154	0.633800	0.519791
O18	O	1.834154	1.133800	1.019791
O19	O	1.240605	0.347701	0.611868
O20	O	1.740605	0.847701	1.111868
O21	O	1.100886	0.481428	0.331029
O22	O	1.600886	0.981428	0.831029
O23	O	0.984895	0.503296	0.503197
O24	O	1.484895	1.003296	1.003197
O25	O	1.130278	0.672237	0.822406
O26	O	1.630278	1.172237	1.322406
O27	O	0.984839	0.650345	0.650199
O28	O	1.484839	1.150345	1.150199
O29	O	1.240531	0.541777	0.805883
O30	O	1.740531	1.041777	1.305883
O31	O	1.188641	0.805984	0.541598
O32	O	1.688641	1.305984	1.041598
O33	O	1.100757	0.822553	0.672046
O34	O	1.600757	1.322553	1.172046
C35	C	0.955610	0.576819	0.576694
C36	C	1.455610	1.076819	1.076694
C37	C	0.865989	0.576839	0.576709
C38	C	1.365989	1.076839	1.076709
C39	C	1.141411	0.852812	0.611731
C40	C	1.641411	1.352812	1.111731
C41	C	1.131352	0.970879	0.626742
C42	C	1.631352	1.470879	1.126742
C43	C	1.188792	0.612041	0.853761
C44	C	1.688792	1.112041	1.353761
C45	C	1.198887	0.627043	0.971817
C46	C	1.698887	1.127043	1.471817
C47	C	0.537816	0.576852	0.576755
C48	C	1.037816	1.076852	1.076755
C49	C	0.629124	0.576845	0.576738
C50	C	1.129124	1.076845	1.076738
C51	C	0.701900	0.576846	0.576731
C52	C	1.201900	1.076846	1.076731
C53	C	0.793213	0.576838	0.576716
C54	C	1.293213	1.076838	1.076716
C55	C	1.375413	0.576857	0.576758
C56	C	1.875413	1.076857	1.076758
C57	C	1.465034	0.576866	0.576772
C58	C	1.965034	1.076866	1.076772
C59	C	1.188911	0.299789	0.541607
C60	C	1.688911	0.799789	1.041607
C61	C	1.199056	0.181727	0.526641
C62	C	1.699056	0.681727	1.026641
C63	C	1.170399	1.015291	0.568939
C64	C	1.670399	1.515291	1.068939
C65	C	1.160004	1.137319	0.584452
C66	C	1.660004	1.637319	1.084452
C67	C	1.159932	0.569173	1.016259
C68	C	1.659932	1.069173	1.516259
C69	C	1.170364	0.584676	1.138276
C70	C	1.670364	1.084676	1.638276
C71	C	1.141498	0.541796	1.300771
C72	C	1.641498	1.041796	1.800771
C73	C	1.131403	0.526798	1.182715
C74	C	1.631403	1.026798	1.682715
H75	H	1.211528	0.962975	0.507970
H76	H	1.711528	1.462975	1.007970
O77	O	1.219479	0.657415	1.200512
O78	O	1.719479	1.157415	1.700512
C79	C	1.299545	0.630781	1.170572
C80	C	1.799545	1.130781	1.670572
H81	H	1.297884	0.579782	1.084833
H82	H	1.797884	1.079782	1.584833
H83	H	1.328802	0.706976	1.176611
H84	H	1.828802	1.206976	1.676611
H85	H	1.336693	0.584048	1.226060
H86	H	1.836693	1.084048	1.726060
H87	H	1.118880	1.189635	0.645432
H88	H	1.618880	1.689635	1.145432
H89	H	1.239961	0.688067	1.024101
H90	H	1.739961	1.188067	1.524101
O91	O	1.248002	1.119266	0.453774
O92	O	1.748002	1.619266	0.953774
C93	C	1.201694	1.046433	0.377042
C94	C	1.701694	1.546433	0.877042
H95	H	1.134785	1.079159	0.374644
H96	H	1.634785	1.579159	0.874644
H97	H	1.224034	1.034683	0.295164
H98	H	1.724034	1.534683	0.795164
H99	H	1.208816	0.966562	0.399267
H100	H	1.708816	1.466562	0.899267
O101	O	1.082396	1.033408	0.699551
O102	O	1.582396	1.533408	1.199551
C103	C	1.128715	1.106203	0.776314
C104	C	1.628715	1.606203	1.276314
H105	H	1.185254	1.117904	0.741005
H106	H	1.685254	1.617904	1.241005
H107	H	1.090473	1.186093	0.800367
H108	H	1.590473	1.686093	1.300367
H109	H	1.147870	1.073477	0.849641
H110	H	1.647870	1.573477	1.349641
H111	H	1.118853	0.508154	0.963976
H112	H	1.618853	1.008154	1.463976
O113	O	1.082333	0.454124	1.120260
O114	O	1.582333	0.954124	1.620260
C115	C	1.019597	0.506501	1.063777
C116	C	1.519597	1.006501	1.563777
H117	H	1.039715	0.584916	1.057475
H118	H	1.539715	1.084916	1.557475
H119	H	1.005880	0.453386	0.980247
H120	H	1.505880	0.953386	1.480247
H121	H	0.962467	0.523552	1.107935
H122	H	1.462467	1.023552	1.607935
