data_functionalizedCrystal
_audit_creation_method	'MofGen! by Chris Wilmer'
_symmetry_space_group_name_H-M	'P1'
_symmetry_Int_Tables_number	1
_symmetry_cell_setting	triclinic
loop_
_symmetry_equiv_pos_as_xyz
  x,y,z
_cell_length_a	12.827893
_cell_length_b	17.638516
_cell_length_c	12.827885
_cell_angle_alpha	78.829599
_cell_angle_beta	90.019272
_cell_angle_gamma	101.243158
loop_
_atom_site_label
_atom_site_type_symbol
_atom_site_fract_x
_atom_site_fract_y
_atom_site_fract_z
Zn1	Zn	1.513459	-0.314640	0.674850
Zn2	Zn	2.013459	0.185360	1.174850
Zn3	Zn	1.477971	-0.446840	0.535404
Zn4	Zn	1.977971	0.053160	1.035404
Zn5	Zn	1.338690	-0.314679	0.500134
Zn6	Zn	1.838690	0.185321	1.000134
Zn7	Zn	1.303319	-0.446782	0.710089
Zn8	Zn	1.803319	0.053218	1.210089
O9	O	1.408359	-0.380735	0.605119
O10	O	1.908359	0.119265	1.105119
O11	O	1.654985	-0.332185	0.656365
O12	O	2.154985	0.167815	1.156365
O13	O	1.459446	-0.429349	0.384500
O14	O	1.959446	0.070651	0.884500
O15	O	1.391528	-0.204063	0.493802
O16	O	1.891528	0.295937	0.993802
O17	O	1.628912	-0.429312	0.553915
O18	O	2.128912	0.070688	1.053915
O19	O	1.519930	-0.204035	0.622165
O20	O	2.019930	0.295965	1.122165
O21	O	1.357116	-0.332251	0.358587
O22	O	1.857116	0.167749	0.858587
O23	O	1.187764	-0.332195	0.527972
O24	O	1.687764	0.167805	1.027972
O25	O	1.331243	-0.429212	0.851639
O26	O	1.831243	0.070788	1.351639
O27	O	1.161777	-0.429250	0.682224
O28	O	1.661777	0.070750	1.182224
O29	O	1.485632	-0.332129	0.825750
O30	O	1.985632	0.167871	1.325750
O31	O	1.425148	-0.557443	0.588085
O32	O	1.925148	-0.057443	1.088085
O33	O	1.296832	-0.557400	0.716425
O34	O	1.796832	-0.057400	1.216425
C35	C	1.136853	-0.380721	0.605095
C36	C	1.636853	0.119279	1.105095
C37	C	1.020697	-0.380734	0.605115
C38	C	1.520697	0.119266	1.105115
C39	C	0.981791	-0.332758	0.655932
C40	C	1.481791	0.167242	1.155932
C41	C	0.861737	-0.332770	0.655954
C42	C	1.361737	0.167230	1.155954
C43	C	1.353329	-0.586102	0.659929
C44	C	1.853329	-0.086102	1.159929
C45	C	1.329883	-0.673959	0.683411
C46	C	1.829883	-0.173959	1.183411
C47	C	1.587108	-0.962883	0.426803
C48	C	2.087108	-0.462883	0.926803
C49	C	1.565058	-1.045437	0.448886
C50	C	2.065058	-0.545437	0.948886
C51	C	1.431331	-1.045437	0.582420
C52	C	1.931331	-0.545437	1.082420
C53	C	1.453365	-0.962881	0.560345
C54	C	1.953365	-0.462881	1.060345
C55	C	1.531256	-0.921610	0.482536
C56	C	2.031256	-0.421610	0.982536
C57	C	1.397513	-0.921608	0.616078
C58	C	1.897513	-0.421608	1.116078
C59	C	1.419551	-0.839059	0.594009
C60	C	1.919551	-0.339059	1.094009
C61	C	1.497440	-0.797782	0.516206
C62	C	1.997440	-0.297782	1.016206
C63	C	1.553293	-0.839061	0.460467
C64	C	2.053293	-0.339061	0.960467
C65	C	1.319628	-0.962881	0.693892
C66	C	1.819628	-0.462881	1.193892
C67	C	1.263777	-0.921608	0.749625
C68	C	1.763777	-0.421608	1.249625
C69	C	1.285808	-0.839057	0.727551
C70	C	1.785808	-0.339057	1.227551
C71	C	1.363697	-0.797781	0.649748
C72	C	1.863697	-0.297781	1.149748
C73	C	1.229955	-0.797779	0.783290
C74	C	1.729955	-0.297779	1.283290
C75	C	1.251992	-0.715230	0.761220
C76	C	1.751992	-0.215230	1.261220
C77	C	1.385735	-0.715231	0.627678
C78	C	1.885735	-0.215231	1.127678
C79	C	1.680925	-0.380751	0.605144
C80	C	2.180925	0.119249	1.105144
C81	C	1.797077	-0.380757	0.605154
C82	C	2.297077	0.119243	1.105154
C83	C	1.408451	-0.380659	0.877669
C84	C	1.908451	0.119341	1.377669
C85	C	1.408490	-0.380627	0.993814
C86	C	1.908490	0.119373	1.493814
C87	C	1.463633	-0.174567	0.550119
C88	C	1.963633	0.325433	1.050119
C89	C	1.487187	-0.086710	0.526681
C90	C	1.987187	0.413290	1.026681
C91	C	1.408344	-0.380754	0.333614
C92	C	1.908344	0.119246	0.833614
C93	C	1.408567	-0.380564	0.217411
C94	C	1.908567	0.119436	0.717411
C95	C	1.484896	-0.332578	1.032785
C96	C	1.984896	0.167422	1.532785
C97	C	1.484938	-0.332543	1.152826
C98	C	1.984938	0.167457	1.652826
H99	H	1.449154	-0.681627	0.564310
H100	H	1.949154	-0.181627	1.064310
H101	H	0.828229	-0.291698	0.699465
H102	H	1.328229	0.208302	1.199465
H103	H	0.965127	-0.421815	0.561622
H104	H	1.465127	0.078185	1.061622
Cl105	Cl	1.132052	-0.849672	0.881114
Cl106	Cl	1.632052	-0.349672	1.381114
H107	H	1.037362	-0.291672	0.699418
H108	H	1.537362	0.208328	1.199418
Cl109	Cl	0.848795	-0.444182	0.537984
Cl110	Cl	1.348795	0.055818	1.037984
H111	H	1.550275	-0.291464	0.977279
H112	H	2.050275	0.208536	1.477279
H113	H	1.515384	-0.730565	0.498241
H114	H	2.015384	-0.230565	0.998241
Cl115	Cl	1.333418	-1.097328	0.680236
Cl116	Cl	1.833418	-0.597328	1.180236
H117	H	1.616712	-0.805456	0.397099
H118	H	2.116712	-0.305456	0.897099
Cl119	Cl	1.685010	-0.910993	0.328965
Cl120	Cl	2.185010	-0.410993	0.828965
H121	H	1.550354	-0.291409	1.186390
H122	H	2.050354	0.208591	1.686390
Cl123	Cl	1.635283	-1.097321	0.378813
Cl124	Cl	2.135283	-0.597321	0.878813
Cl125	Cl	1.291489	-1.066657	0.721200
Cl126	Cl	1.791489	-0.566657	1.221200
H127	H	1.343153	-0.421705	1.183855
H128	H	1.843153	0.078295	1.683855
Cl129	Cl	1.165864	-0.973499	0.847442
Cl130	Cl	1.665864	-0.473499	1.347442
Cl131	Cl	1.181780	-0.663340	0.831287
Cl132	Cl	1.681780	-0.163340	1.331287
Cl133	Cl	1.307534	-0.444099	1.079501
Cl134	Cl	1.807534	0.055901	1.579501
