data_functionalizedCrystal
_audit_creation_method	'MofGen! by Chris Wilmer'
_symmetry_space_group_name_H-M	'P1'
_symmetry_Int_Tables_number	1
_symmetry_cell_setting	triclinic
loop_
_symmetry_equiv_pos_as_xyz
  x,y,z
_cell_length_a	10.654550
_cell_length_b	16.109302
_cell_length_c	14.586319
_cell_angle_alpha	90.002485
_cell_angle_beta	90.004822
_cell_angle_gamma	83.973342
loop_
_atom_site_label
_atom_site_type_symbol
_atom_site_fract_x
_atom_site_fract_y
_atom_site_fract_z
O1	O	0.161428	1.104086	0.076279
O2	O	0.181515	0.862144	0.076272
O3	O	-0.011343	0.988678	0.076272
O4	O	0.354286	0.977552	0.076279
O5	O	-0.011355	0.988677	-0.076209
O6	O	0.181503	0.862143	-0.076209
O7	O	0.161416	1.104085	-0.076202
Cu8	Cu	0.171458	0.983114	-0.090128
Cu9	Cu	0.171473	0.983115	0.090198
O10	O	0.354274	0.977551	-0.076202
C11	C	0.180695	0.831164	0.000030
C12	C	0.178255	0.738854	0.000028
C13	C	0.172607	0.526479	-0.083081
C14	C	0.170301	0.439745	-0.083078
C15	C	0.170321	0.439757	0.083165
C16	C	0.172618	0.526490	0.083161
C17	C	0.173767	0.569848	0.000035
C18	C	0.169164	0.396381	0.000043
C19	C	0.166664	0.302341	0.000047
C20	C	0.176265	0.663895	0.000031
C21	C	-0.058136	0.987860	0.000033
C22	C	-0.197546	0.985416	0.000036
C23	C	-0.278042	1.059917	0.000036
C24	C	-0.409032	1.057616	0.000042
C25	C	-0.379016	0.906306	0.000045
C26	C	-0.248029	0.908608	0.000046
C27	C	-0.227559	1.136726	0.000026
C28	C	-0.308057	1.211233	0.000025
C29	C	-0.439046	1.208932	0.000031
C30	C	-0.489538	1.132123	0.000039
C31	C	0.401067	0.978369	0.000039
C32	C	0.540477	0.980813	0.000042
C33	C	0.162236	1.135065	0.000042
C34	C	0.164676	1.227375	0.000051
N35	N	0.171474	0.983117	0.217030
N36	N	0.171448	0.983119	-0.216960
C37	C	0.086242	1.039256	0.452037
C38	C	0.086239	1.039258	0.548018
C39	C	0.256689	0.926977	0.548027
C40	C	0.256697	0.926979	0.452047
C41	C	0.171466	0.983118	0.404055
C42	C	0.171455	0.983118	0.596015
C43	C	0.171453	0.983120	0.700083
C44	C	0.171470	0.983117	0.299981
H45	H	0.173543	0.561778	-0.150767
O46	O	0.348658	0.866441	0.400298
H47	H	0.332455	0.801566	0.418697
O48	O	0.348604	0.866428	0.599796
H49	H	0.407877	0.827398	0.550304
O50	O	-0.433471	0.823466	0.000047
H51	H	-0.401129	0.787630	-0.062100
O52	O	-0.161194	0.828256	0.000037
H53	H	-0.218302	0.774460	0.000027
O54	O	0.169308	0.393032	-0.172779
H55	H	0.253892	0.346664	-0.176672
H56	H	-0.596200	1.130255	0.000054
O57	O	0.169099	0.392992	0.172821
H58	H	0.167322	0.325393	0.158862
H59	H	0.173559	0.561802	0.150849
H60	H	-0.120902	1.138608	0.000018
H61	H	0.016843	1.084972	0.587082
O62	O	-0.253611	1.294076	0.000025
H63	H	-0.194672	1.298749	-0.062129
O64	O	-0.525874	1.289286	0.000025
H65	H	-0.468759	1.343079	0.000010
H66	H	0.016843	1.084968	0.412963
