data_functionalizedCrystal
_audit_creation_method	'MofGen! by Chris Wilmer'
_symmetry_space_group_name_H-M	'P1'
_symmetry_Int_Tables_number	1
_symmetry_cell_setting	triclinic
loop_
_symmetry_equiv_pos_as_xyz
  x,y,z
_cell_length_a	19.288840
_cell_length_b	15.995362
_cell_length_c	15.072220
_cell_angle_alpha	90.004809
_cell_angle_beta	89.997378
_cell_angle_gamma	96.688301
loop_
_atom_site_label
_atom_site_type_symbol
_atom_site_fract_x
_atom_site_fract_y
_atom_site_fract_z
O1	O	0.921624	-0.104358	-0.073920
O2	O	0.719398	-0.118470	-0.073888
O3	O	0.826035	0.010495	-0.073911
O4	O	0.814988	-0.233322	-0.073897
O5	O	0.826045	0.010515	0.073654
O6	O	0.719409	-0.118450	0.073677
O7	O	0.921635	-0.104338	0.073645
Zn8	Zn	0.820523	-0.111391	0.097090
Zn9	Zn	0.820509	-0.111417	-0.097333
O10	O	0.814998	-0.233302	0.073668
C11	C	0.693526	-0.118009	-0.000102
C12	C	0.616417	-0.116657	-0.000090
C13	C	0.580206	-0.116018	-0.080530
C14	C	0.507756	-0.114738	-0.080541
C15	C	0.471522	-0.114079	-0.000107
C16	C	0.507741	-0.114723	0.080343
C17	C	0.580189	-0.116012	0.080352
C18	C	0.362064	-0.062987	0.061501
C19	C	0.289618	-0.061693	0.061489
C20	C	0.248067	-0.110109	-0.000131
C21	C	0.278973	-0.159807	-0.061753
C22	C	0.351421	-0.161096	-0.061744
C23	C	0.392964	-0.112683	-0.000108
C24	C	0.133297	-0.108083	-0.080588
C25	C	0.060845	-0.106808	-0.080596
C26	C	0.060832	-0.106785	0.080291
C27	C	0.133282	-0.108068	0.080296
C28	C	0.169511	-0.108713	-0.000146
C29	C	0.825582	0.041697	-0.000132
C30	C	0.824208	0.134642	-0.000143
C31	C	0.819275	0.472368	-0.000159
C32	C	0.743328	0.424640	-0.000475
C33	C	0.744703	0.327955	-0.000137
C34	C	0.821722	0.304818	-0.000151
C35	C	0.859187	0.346052	0.084106
C36	C	0.857275	0.442680	0.084171
C37	C	0.858832	0.443021	-0.083638
C38	C	0.858817	0.346076	-0.084746
C39	C	0.823109	0.210127	-0.000144
C40	C	0.817890	0.567060	-0.000160
C41	C	0.947507	-0.104798	-0.000144
C42	C	1.024615	-0.106151	-0.000161
C43	C	0.815442	0.735494	-0.000128
C44	C	0.816788	0.642545	-0.000167
N45	N	0.820500	-0.111429	-0.230022
C46	C	0.820513	-0.111410	-0.411020
C47	C	0.763346	-0.180272	-0.448676
C48	C	0.763500	-0.180505	-0.551502
C49	C	0.820525	-0.111391	-0.589224
C50	C	0.893028	-0.130063	-0.551897
C51	C	0.892686	-0.130568	-0.449040
C52	C	0.805832	-0.023663	-0.448905
C53	C	0.804191	-0.024242	-0.551769
C54	C	0.820536	-0.111379	-0.689937
C55	C	0.820507	-0.111424	-0.310306
N56	N	0.820538	-0.111372	0.229779
H57	H	0.609699	-0.116543	-0.146032
H58	H	0.831426	0.318713	-0.147078
C59	C	0.825277	0.470623	-0.169918
N60	N	0.799995	0.491411	-0.234900
C61	C	0.704912	0.289390	-0.081728
N62	N	0.674936	0.260347	-0.143184
C63	C	0.407763	-0.009719	0.129290
N64	N	0.442183	0.030401	0.180346
C65	C	0.021014	-0.106101	-0.169091
N66	N	-0.008988	-0.105566	-0.235747
H67	H	0.914983	0.330932	-0.089844
H68	H	0.478234	-0.114189	0.145833
H69	H	0.914827	0.474999	-0.084218
H70	H	0.709610	-0.169441	-0.576740
H71	H	0.713111	0.444125	0.059620
C72	C	0.690294	-0.165605	-0.415241
N73	N	0.635270	-0.154561	-0.390045
H74	H	0.609671	-0.116533	0.145858
H75	H	0.754093	-0.005616	-0.422938
C76	C	0.775851	-0.267758	-0.413787
N77	N	0.785273	-0.333651	-0.387508
H78	H	0.750856	-0.010063	-0.576167
H79	H	0.772897	-0.245621	-0.576127
H80	H	0.031330	-0.106254	0.145782
C81	C	0.173150	-0.108807	-0.169075
N82	N	0.203164	-0.109356	-0.235724
H83	H	0.905609	-0.194548	-0.425068
C84	C	0.702306	0.449514	-0.082100
N85	N	0.671407	0.468257	-0.143580
C86	C	0.704664	0.290164	0.081617
N87	N	0.674507	0.261700	0.143199
C88	C	0.820370	0.467273	0.169270
N89	N	0.792569	0.485792	0.233366
H90	H	0.915771	0.332147	0.087229
C91	C	0.824042	0.307593	0.168834
N92	N	0.797566	0.278627	0.232649
C93	C	0.910910	-0.215504	-0.586710
N94	N	0.924374	-0.279862	-0.612926
C95	C	0.173117	-0.108759	0.168788
N96	N	0.203120	-0.109280	0.235444
C97	C	0.856802	0.048198	-0.586433
N98	N	0.896438	0.102758	-0.612534
C99	C	0.932601	0.486540	0.089332
N100	N	0.989336	0.519572	0.093226
C101	C	0.862147	0.045562	-0.415996
N102	N	0.904565	0.097696	-0.391204
H103	H	0.936563	-0.082370	-0.424128
H104	H	0.376581	-0.201564	-0.111918
C105	C	0.467917	-0.114029	-0.169035
N106	N	0.437912	-0.113493	-0.235689
C107	C	0.233272	-0.213075	-0.129536
N108	N	0.198847	-0.253195	-0.180587
H109	H	0.936600	-0.081217	-0.576330
H110	H	0.264461	-0.021221	0.111661
