data_functionalizedCrystal
_audit_creation_method	'MofGen! by Chris Wilmer'
_symmetry_space_group_name_H-M	'P1'
_symmetry_Int_Tables_number	1
_symmetry_cell_setting	triclinic
loop_
_symmetry_equiv_pos_as_xyz
  x,y,z
_cell_length_a	11.792241
_cell_length_b	10.654541
_cell_length_c	9.130307
_cell_angle_alpha	90.003083
_cell_angle_beta	89.997319
_cell_angle_gamma	84.338672
loop_
_atom_site_label
_atom_site_type_symbol
_atom_site_fract_x
_atom_site_fract_y
_atom_site_fract_z
O1	O	-1.507300	-0.172134	-0.121656
O2	O	-1.177000	-0.189874	-0.121691
O3	O	-1.349746	0.001757	-0.121664
O4	O	-1.334555	-0.363765	-0.121683
O5	O	-1.349740	0.001759	0.121935
O6	O	-1.176994	-0.189872	0.121908
O7	O	-1.507295	-0.172132	0.121943
Cu8	Cu	-1.342144	-0.181002	0.144168
Cu9	Cu	-1.342151	-0.181004	-0.143916
O10	O	-1.334549	-0.363763	0.121916
C11	C	-1.134704	-0.188759	0.000105
C12	C	-1.008682	-0.185423	0.000092
C13	C	-1.348628	0.048553	0.000135
C14	C	-1.345293	0.187987	0.000132
C15	C	-1.549591	-0.173247	0.000144
C16	C	-1.675612	-0.176582	0.000147
C17	C	-0.777956	-0.179290	0.000134
C18	C	-0.906349	-0.182698	0.000111
C19	C	-1.335667	-0.410559	0.000114
C20	C	-1.339002	-0.549993	0.000107
N21	N	-1.342148	-0.180999	0.346791
C22	C	-1.551857	0.216542	0.000172
C23	C	-1.653568	0.296324	0.000195
C24	C	-1.650427	0.427333	0.000190
C25	C	-1.545564	0.478562	0.000158
C26	C	-1.443854	0.398780	0.000135
C27	C	-1.447006	0.267770	0.000144
C28	C	-1.237292	0.370225	0.000085
C29	C	-1.240430	0.239216	0.000100
C30	C	-1.132429	0.421454	0.000053
C31	C	-1.030716	0.341672	0.000040
C32	C	-1.033861	0.210655	0.000047
C33	C	-1.138720	0.159434	0.000077
N34	N	-1.342156	-0.180996	-0.346539
C35	C	-1.495177	-0.011360	0.346805
C36	C	-1.571699	0.073457	0.423478
C37	C	-1.571711	0.073458	0.576812
C38	C	-1.495189	-0.011365	0.653475
C39	C	-1.418667	-0.096181	0.576801
C40	C	-1.418666	-0.096175	0.423464
C41	C	-1.265634	-0.265813	0.576788
C42	C	-1.265626	-0.265822	0.423454
C43	C	-1.189113	-0.350635	0.653451
C44	C	-1.112594	-0.435459	0.576777
C45	C	-1.112587	-0.435457	0.423435
C46	C	-1.189104	-0.350638	0.346781
H47	H	-1.738945	0.254599	0.000233
H48	H	-1.634017	0.142527	0.639239
O49	O	-0.928961	0.391642	0.000071
C50	C	-0.832577	0.580821	-0.000070
C51	C	-0.947893	0.524392	-0.000073
H52	H	-0.847844	0.688157	-0.000218
H53	H	-0.782234	0.548133	0.101893
H54	H	-0.782273	0.547935	-0.101999
H55	H	-0.998290	0.557253	0.101786
H56	H	-0.998149	0.557075	-0.102104
O57	O	-0.934950	0.133338	0.000086
C58	C	-0.729731	0.118858	-0.000070
C59	C	-0.841662	0.206557	-0.000078
H60	H	-0.654279	0.178020	-0.000234
H61	H	-0.725941	0.056840	0.101902
H62	H	-0.726116	0.056775	-0.101990
H63	H	-0.845352	0.268718	0.101772
H64	H	-0.845407	0.268489	-0.102118
O65	O	-1.645918	0.155994	0.349037
C66	C	-1.710821	0.373843	0.302092
C67	C	-1.626689	0.280526	0.386476
H68	H	-1.695320	0.474546	0.332354
H69	H	-1.697651	0.359346	0.179322
H70	H	-1.801843	0.356708	0.332207
H71	H	-1.535635	0.297605	0.356485
H72	H	-1.639959	0.295045	0.509226
H73	H	-1.495194	-0.011348	0.778327
O74	O	-1.038109	-0.517716	0.651182
C75	C	-0.841331	-0.589857	0.698035
C76	C	-0.925559	-0.496611	0.613699
H77	H	-0.750317	-0.572844	0.667737
H78	H	-0.854380	-0.575277	0.820813
H79	H	-0.856954	-0.690555	0.667913
H80	H	-0.909988	-0.395876	0.643698
H81	H	-0.912491	-0.511301	0.490942
O82	O	-1.038365	-0.518025	0.349025
C83	C	-0.973491	-0.735903	0.302179
C84	C	-1.057630	-0.642534	0.386505
H85	H	-0.989021	-0.836588	0.332473
H86	H	-0.986624	-0.721451	0.179400
H87	H	-0.882473	-0.718779	0.332313
H88	H	-1.148681	-0.659602	0.356493
H89	H	-1.044397	-0.657008	0.509263
H90	H	-1.554425	0.109869	0.000196
H91	H	-1.189109	-0.350633	0.221928
H92	H	-1.189120	-0.350625	0.778303
H93	H	-1.543016	0.585238	0.000136
H94	H	-1.129879	0.528129	0.000040
H95	H	-1.733248	0.492293	0.000197
H96	H	-1.495185	-0.011362	0.221952
H97	H	-1.141291	0.052761	0.000091
