data_functionalizedCrystal
_audit_creation_method	'MofGen! by Chris Wilmer'
_symmetry_space_group_name_H-M	'P1'
_symmetry_Int_Tables_number	1
_symmetry_cell_setting	triclinic
loop_
_symmetry_equiv_pos_as_xyz
  x,y,z
_cell_length_a	16.109318
_cell_length_b	11.026607
_cell_length_c	15.186229
_cell_angle_alpha	89.998222
_cell_angle_beta	90.000224
_cell_angle_gamma	96.027290
loop_
_atom_site_label
_atom_site_type_symbol
_atom_site_fract_x
_atom_site_fract_y
_atom_site_fract_z
O1	O	1.126509	0.156074	-0.073151
O2	O	0.887355	0.175462	-0.073169
O3	O	0.987111	-0.010879	-0.073158
O4	O	1.026753	0.342415	-0.073162
O5	O	0.987102	-0.010882	0.073299
O6	O	0.887346	0.175460	0.073289
O7	O	1.126500	0.156071	0.073306
Zn8	Zn	1.006922	0.165765	0.096551
Zn9	Zn	1.006933	0.165768	-0.096413
O10	O	1.026744	0.342412	0.073296
C11	C	0.856257	0.174672	0.000058
C12	C	0.763608	0.172306	0.000051
C13	C	0.463394	0.164667	-0.079767
C14	C	0.550448	0.166882	-0.079773
C15	C	0.550454	0.166862	0.079903
C16	C	0.463402	0.164639	0.079908
C17	C	0.419875	0.163548	0.000070
C18	C	0.593980	0.167986	0.000060
C19	C	0.688367	0.170387	0.000055
C20	C	0.325482	0.161144	0.000075
C21	C	0.979793	-0.056089	0.000069
C22	C	0.957992	-0.190796	0.000064
C23	C	1.018188	-0.264620	0.000067
C24	C	0.995658	-0.403848	0.000062
C25	C	1.157598	0.156861	0.000078
C26	C	1.250247	0.159227	0.000079
C27	C	1.034062	0.387622	0.000067
C28	C	1.055863	0.522330	0.000065
N29	N	1.006920	0.165762	0.228243
N30	N	1.006941	0.165762	-0.228106
C31	C	1.051115	0.083278	0.453971
C32	C	1.051117	0.083275	0.546160
C33	C	0.962740	0.248250	0.546160
C34	C	0.962733	0.248246	0.453972
C35	C	1.006926	0.165761	0.407880
C36	C	1.006934	0.165762	0.592257
C37	C	1.006936	0.165760	0.692214
C38	C	1.006923	0.165762	0.307917
H39	H	0.427957	0.163777	-0.144776
H40	H	0.427967	0.163726	0.144924
H41	H	1.086405	-0.224750	0.000078
H42	H	1.087098	0.016112	0.416444
O43	O	0.914227	-0.451193	0.000015
C44	C	0.770383	-0.409375	0.000058
C45	C	0.862565	-0.355594	0.000091
H46	H	0.728589	-0.332109	0.000138
H47	H	0.757120	-0.467872	-0.061252
H48	H	0.757200	-0.467975	0.061332
H49	H	0.875814	-0.296939	-0.061141
H50	H	0.875783	-0.297166	0.061442
O51	O	0.919893	0.328334	0.591073
C52	C	0.880699	0.401414	0.733092
C53	C	0.929271	0.310668	0.682342
H54	H	0.888250	0.387146	0.806893
H55	H	0.906082	0.498637	0.715025
H56	H	0.811749	0.385582	0.714921
H57	H	0.998229	0.326389	0.700486
H58	H	0.903820	0.213476	0.700415
H59	H	1.124084	-0.437807	0.000004
H60	H	0.585905	0.167754	0.144904
H61	H	0.889776	-0.230667	0.000053
O62	O	0.919792	0.328494	0.409330
C63	C	0.832092	0.492078	0.419051
C64	C	0.880703	0.401293	0.469717
H65	H	0.800462	0.550942	0.467851
H66	H	0.877026	0.552796	0.375907
H67	H	0.782749	0.439636	0.375873
H68	H	0.930046	0.453636	0.512942
H69	H	0.835717	0.340575	0.512805
H70	H	1.087099	0.016108	0.583685
H71	H	0.585877	0.167792	-0.144784
