data_functionalizedCrystal
_audit_creation_method	'MofGen! by Chris Wilmer'
_symmetry_space_group_name_H-M	'P1'
_symmetry_Int_Tables_number	1
_symmetry_cell_setting	triclinic
loop_
_symmetry_equiv_pos_as_xyz
  x,y,z
_cell_length_a	12.759401
_cell_length_b	12.759400
_cell_length_c	12.759393
_cell_angle_alpha	90.025504
_cell_angle_beta	89.979888
_cell_angle_gamma	89.999145
loop_
_atom_site_label
_atom_site_type_symbol
_atom_site_fract_x
_atom_site_fract_y
_atom_site_fract_z
Zn1	Zn	-1.606357	-0.418257	0.594033
Zn2	Zn	-1.606286	-0.593972	0.418369
Zn3	Zn	-1.430655	-0.418303	0.418371
Zn4	Zn	-1.430685	-0.593889	0.594009
O5	O	-1.518496	-0.506105	0.506195
O6	O	-1.753368	-0.441581	0.570741
O7	O	-1.582946	-0.570723	0.271348
O8	O	-1.453980	-0.271276	0.441684
O9	O	-1.753316	-0.570678	0.441681
O10	O	-1.583067	-0.271242	0.570743
O11	O	-1.453911	-0.441660	0.271350
O12	O	-1.283638	-0.441580	0.441660
O13	O	-1.454031	-0.570537	0.741033
O14	O	-1.283660	-0.570583	0.570700
O15	O	-1.583096	-0.441500	0.741051
O16	O	-1.582975	-0.740982	0.441656
O17	O	-1.453962	-0.740921	0.570698
C18	C	-1.245528	-0.506078	0.506179
C19	C	-1.128752	-0.506092	0.506196
C20	C	-1.518492	-0.779073	0.506197
C21	C	-1.518587	-0.895849	0.506233
C22	C	-1.518574	-0.506004	0.780229
C23	C	-1.518608	-0.505961	0.897006
C24	C	-0.964198	-0.573377	0.573287
C25	C	-1.073922	-0.573368	0.573277
C26	C	-1.073852	-0.438827	0.439113
C27	C	-0.964130	-0.438842	0.439118
C28	C	-0.792529	-0.506126	0.506211
C29	C	-0.909306	-0.506115	0.506212
C30	C	-1.518528	-0.232072	0.506217
C31	C	-1.518542	-0.115295	0.506226
C32	C	-1.451407	0.049333	0.573416
C33	C	-1.451381	-0.060391	0.573410
C34	C	-1.585725	-0.060470	0.439035
C35	C	-1.585744	0.049252	0.439037
C36	C	-1.518478	-0.506130	0.233228
C37	C	-1.518648	-0.505877	0.116452
C38	C	-1.585817	-0.438761	0.951879
C39	C	-1.585835	-0.438716	1.061603
C40	C	-1.451431	-0.573080	1.061571
C41	C	-1.451409	-0.573119	0.951849
H42	H	-0.919563	-0.628155	0.627919
Br43	Br	-1.360180	-0.664317	0.877371
Br44	Br	-1.148414	-0.664662	0.664308
H45	H	-1.396722	0.094030	0.628130
Br46	Br	-1.676919	0.123654	0.347848
Br47	Br	-1.148263	-0.347528	0.348067
Br48	Br	-1.677059	-0.347519	1.136070
Br49	Br	-0.889627	-0.347558	0.348073
H50	H	-1.396676	-0.105018	0.628117
H51	H	-1.640532	-0.384074	0.907229
Br52	Br	-1.360241	-0.664222	1.136008
H53	H	-1.640403	-0.105183	0.384328
