data_functionalizedCrystal
_audit_creation_method	'MofGen! by Chris Wilmer'
_symmetry_space_group_name_H-M	'P1'
_symmetry_Int_Tables_number	1
_symmetry_cell_setting	triclinic
loop_
_symmetry_equiv_pos_as_xyz
  x,y,z
_cell_length_a	15.944551
_cell_length_b	19.188930
_cell_length_c	14.421503
_cell_angle_alpha	89.999163
_cell_angle_beta	89.996859
_cell_angle_gamma	83.321760
loop_
_atom_site_label
_atom_site_type_symbol
_atom_site_fract_x
_atom_site_fract_y
_atom_site_fract_z
O1	O	1.114192	0.090038	-0.077026
O2	O	1.614192	0.590038	0.422974
O3	O	0.869601	0.101140	-0.077050
O4	O	1.369601	0.601140	0.422950
O5	O	0.998955	-0.006048	-0.077019
O6	O	1.498955	0.493952	0.422981
O7	O	0.984838	0.197227	-0.077057
O8	O	1.484838	0.697227	0.422943
O9	O	0.998934	-0.006032	0.077204
O10	O	1.498934	0.493968	0.577204
O11	O	0.869580	0.101156	0.077173
O12	O	1.369580	0.601156	0.577173
O13	O	1.114171	0.090054	0.077198
O14	O	1.614171	0.590054	0.577198
Cu15	Cu	0.991873	0.095607	0.091267
Cu16	Cu	1.491873	0.595607	0.591267
Cu17	Cu	0.991899	0.095588	-0.091120
Cu18	Cu	1.491899	0.595588	0.408880
O19	O	0.984817	0.197243	0.077167
O20	O	1.484817	0.697243	0.577167
C21	C	0.838298	0.100687	0.000059
C22	C	1.338298	0.600687	0.500059
C23	C	0.745057	0.099306	0.000050
C24	C	1.245057	0.599306	0.500050
C25	C	0.998487	-0.032052	0.000095
C26	C	1.498487	0.467948	0.500095
C27	C	0.997115	-0.109560	0.000103
C28	C	1.497115	0.390440	0.500103
C29	C	0.530462	0.029563	0.000081
C30	C	1.030462	0.529563	0.500081
C31	C	0.469331	0.061941	-0.075965
C32	C	0.969331	0.561941	0.424035
C33	C	0.574341	0.096806	0.000062
C34	C	1.074341	0.596806	0.500062
C35	C	0.469332	0.061973	0.076087
C36	C	0.969332	0.561973	0.576087
C37	C	0.409437	0.094386	0.000077
C38	C	0.909437	0.594386	0.500077
C39	C	0.514438	0.129203	-0.076047
C40	C	1.014438	0.629203	0.423953
C41	C	0.514446	0.129225	0.076073
C42	C	1.014446	0.629225	0.576073
C43	C	0.453332	0.161652	0.000008
C44	C	0.953332	0.661652	0.500008
C45	C	0.669338	0.098198	0.000052
C46	C	1.169338	0.598198	0.500052
C47	C	0.314441	0.093000	0.000080
C48	C	0.814441	0.593000	0.500080
C49	C	1.073016	-0.154288	0.000115
C50	C	1.573016	0.345712	0.500115
C51	C	1.071726	-0.227115	0.000100
C52	C	1.571726	0.272885	0.500100
C53	C	0.994532	-0.255211	0.000092
C54	C	1.494532	0.244789	0.500092
C55	C	0.918622	-0.210474	0.000075
C56	C	1.418622	0.289526	0.500075
C57	C	0.919913	-0.137648	0.000080
C58	C	1.419913	0.362352	0.500080
N59	N	0.935519	-0.363364	0.052571
N60	N	1.435519	0.136636	0.552571
N61	N	0.934298	-0.432545	0.052568
N62	N	1.434298	0.067455	0.552568
C63	C	0.990637	-0.474630	0.000073
C64	C	1.490637	0.025370	0.500073
N65	N	1.048256	-0.444921	-0.052407
N66	N	1.548256	0.055079	0.447593
N67	N	1.049480	-0.375733	-0.052400
N68	N	1.549480	0.124267	0.447600
C69	C	0.993123	-0.334178	0.000085
C70	C	1.493123	0.165822	0.500085
C71	C	1.065145	-0.598326	0.000067
C72	C	1.565145	-0.098326	0.500067
C73	C	1.063852	-0.671154	0.000046
C74	C	1.563852	-0.171154	0.500046
C75	C	0.910745	-0.654511	0.000030
C76	C	1.410745	-0.154511	0.500030
C77	C	0.912040	-0.581685	0.000041
C78	C	1.412040	-0.081685	0.500041
C79	C	0.989242	-0.553597	0.000064
C80	C	1.489242	-0.053597	0.500064
C81	C	1.145474	0.090507	0.000087
C82	C	1.645474	0.590507	0.500087
C83	C	1.238715	0.091889	0.000089
C84	C	1.738715	0.591889	0.500089
C85	C	0.985285	0.223247	0.000050
C86	C	1.485285	0.723247	0.500050
C87	C	0.986657	0.300755	0.000036
C88	C	1.486657	0.800755	0.500036
N89	N	0.991862	0.095619	0.219549
N90	N	1.491862	0.595619	0.719549
N91	N	0.991917	0.095569	-0.219401
N92	N	1.491917	0.595569	0.280599
C93	C	0.932038	0.145161	0.469188
C94	C	1.432038	0.645161	0.969188
C95	C	1.007887	0.158716	0.530995
C96	C	1.507887	0.658716	1.030995
C97	C	0.991882	0.095603	0.408710
C98	C	1.491882	0.595603	0.908710
C99	C	0.916052	0.082064	0.530997
C100	C	1.416052	0.582064	1.030997
C101	C	0.991895	0.095588	0.591431
C102	C	1.491895	0.595588	1.091431
C103	C	1.067770	0.109189	0.469157
C104	C	1.567770	0.609189	0.969157
C105	C	0.975885	0.032510	0.469153
C106	C	1.475885	0.532510	0.969153
C107	C	1.051789	0.046038	0.530932
C108	C	1.551789	0.546038	1.030932
C109	C	0.991874	0.095613	0.303449
C110	C	1.491874	0.595613	0.803449
C111	C	0.991913	0.095578	0.696690
C112	C	1.491913	0.595578	1.196690
H113	H	0.449336	0.033493	-0.140247
H114	H	0.949336	0.533493	0.359753
H115	H	1.102458	0.004119	0.557872
H116	H	1.602458	0.504119	1.057872
N117	N	0.835358	-0.240767	0.000067
N118	N	1.335358	0.259233	0.500067
H119	H	0.831417	-0.270612	-0.057104
H120	H	1.331417	0.229388	0.442896
H121	H	0.831449	-0.270576	0.057275
H122	H	1.331449	0.229424	0.557275
H123	H	0.534329	0.157616	-0.140409
H124	H	1.034329	0.657616	0.359591
H125	H	1.125662	-0.707571	0.000051
H126	H	1.625662	-0.207571	0.500051
N127	N	0.865077	0.200721	0.433271
N128	N	1.365077	0.700721	0.933271
H129	H	0.865186	0.200040	0.363243
H130	H	1.365186	0.700040	0.863243
H131	H	0.807933	0.190961	0.456799
H132	H	1.307933	0.690961	0.956799
H133	H	0.962318	-0.020823	0.441967
H134	H	1.462318	0.479177	0.941967
H135	H	0.847892	-0.677386	0.000019
H136	H	1.347892	-0.177386	0.500019
H137	H	0.851919	0.070620	0.558163
H138	H	1.351919	0.570620	1.058163
H139	H	1.021430	0.212066	0.558159
H140	H	1.521430	0.712066	1.058159
N141	N	0.574852	-0.044372	0.000011
N142	N	1.074852	0.455628	0.500011
H143	H	0.558572	-0.069688	-0.057477
H144	H	1.058572	0.430312	0.442523
H145	H	0.637955	-0.042869	0.000635
H146	H	1.137955	0.457131	0.500635
H147	H	0.858103	-0.101230	0.000071
H148	H	1.358103	0.398770	0.500071
H149	H	0.850233	-0.545266	0.000037
H150	H	1.350233	-0.045266	0.500037
N151	N	1.152738	0.124441	0.433334
N152	N	1.652738	0.624441	0.933334
H153	H	1.191227	0.131320	0.487365
H154	H	1.691227	0.631320	0.987365
H155	H	1.178395	0.083751	0.394273
H156	H	1.678395	0.583751	0.894273
N157	N	0.409125	0.235647	-0.000055
N158	N	0.909125	0.735647	0.499945
H159	H	0.425508	0.260941	-0.057521
H160	H	0.925508	0.760941	0.442479
H161	H	0.346002	0.234254	0.000527
H162	H	0.846002	0.734254	0.500527
H163	H	0.534462	0.157649	0.140358
H164	H	1.034462	0.657649	0.640358
N165	N	1.156276	-0.123987	0.000117
N166	N	1.656276	0.376013	0.500117
H167	H	1.160219	-0.094142	0.057287
H168	H	1.660219	0.405858	0.557287
H169	H	1.204119	-0.163412	0.000083
H170	H	1.704119	0.336588	0.500083
N171	N	0.442849	0.024298	0.161246
N172	N	0.942849	0.524298	0.661246
H173	H	0.471202	-0.025589	0.161183
H174	H	0.971202	0.474411	0.661183
H175	H	0.460064	0.049251	0.218627
H176	H	0.960064	0.549251	0.718627
N177	N	1.153589	-0.275375	0.000118
N178	N	1.653589	0.224625	0.500118
H179	H	1.187299	-0.266342	-0.057043
H180	H	1.687299	0.233658	0.442957
H181	H	1.187200	-0.266320	0.057336
H182	H	1.687200	0.233680	0.557336
N183	N	1.148407	-0.568024	0.000088
N184	N	1.648407	-0.068024	0.500088
H185	H	1.196296	-0.607413	0.000085
H186	H	1.696296	-0.107413	0.500085
H187	H	1.152285	-0.538165	-0.057079
H188	H	1.652285	-0.038165	0.442921
