data_functionalizedCrystal
_audit_creation_method	'MofGen! by Chris Wilmer'
_symmetry_space_group_name_H-M	'P1'
_symmetry_Int_Tables_number	1
_symmetry_cell_setting	triclinic
loop_
_symmetry_equiv_pos_as_xyz
  x,y,z
_cell_length_a	19.805407
_cell_length_b	25.639239
_cell_length_c	19.805407
_cell_angle_alpha	90.014465
_cell_angle_beta	90.009221
_cell_angle_gamma	90.038686
loop_
_atom_site_label
_atom_site_type_symbol
_atom_site_fract_x
_atom_site_fract_y
_atom_site_fract_z
Zn1	Zn	1.034609	-0.208237	0.382714
Zn2	Zn	1.534609	0.291763	0.882714
Zn3	Zn	1.034520	-0.295649	0.269524
Zn4	Zn	1.534520	0.204351	0.769524
Zn5	Zn	0.921444	-0.208229	0.269539
Zn6	Zn	1.421444	0.291771	0.769539
Zn7	Zn	0.921363	-0.295643	0.382670
Zn8	Zn	1.421363	0.204357	0.882670
O9	O	0.977984	-0.251939	0.326112
O10	O	1.477984	0.248061	0.826112
O11	O	1.129313	-0.219838	0.367711
O12	O	1.629313	0.280162	0.867711
O13	O	1.019517	-0.284052	0.174809
O14	O	1.519517	0.215948	0.674809
O15	O	0.936527	-0.135065	0.284576
O16	O	1.436527	0.364935	0.784576
O17	O	1.129248	-0.284059	0.284551
O18	O	1.629248	0.215941	0.784551
O19	O	1.019668	-0.135070	0.367726
O20	O	1.519668	0.364930	0.867726
O21	O	0.936440	-0.219825	0.174820
O22	O	1.436440	0.280175	0.674820
O23	O	0.826717	-0.219819	0.284534
O24	O	1.326717	0.280181	0.784534
O25	O	0.936388	-0.284049	0.477393
O26	O	1.436388	0.215951	0.977393
O27	O	0.826657	-0.284042	0.367651
O28	O	1.326657	0.215958	0.867651
O29	O	1.019590	-0.219832	0.477425
O30	O	1.519590	0.280168	0.977425
O31	O	1.019438	-0.368813	0.284508
O32	O	1.519438	0.131187	0.784508
O33	O	0.936302	-0.368809	0.367636
O34	O	1.436302	0.131191	0.867636
C35	C	0.802128	-0.251929	0.326090
C36	C	1.302128	0.248071	0.826090
C37	C	0.726896	-0.251938	0.326096
C38	C	1.226896	0.248062	0.826096
C39	C	0.691538	-0.285429	0.369306
C40	C	1.191538	0.214571	0.869306
C41	C	0.620850	-0.285429	0.369315
C42	C	1.120850	0.214571	0.869315
C43	C	0.585520	-0.251942	0.326112
C44	C	1.085520	0.248058	0.826112
C45	C	0.620883	-0.218447	0.282901
C46	C	1.120883	0.281553	0.782901
C47	C	0.691570	-0.218444	0.282895
C48	C	1.191570	0.281556	0.782895
C49	C	0.335809	-0.218459	0.282923
C50	C	0.835809	0.281541	0.782923
C51	C	0.265117	-0.218466	0.282930
C52	C	0.765117	0.281534	0.782930
C53	C	0.265089	-0.285444	0.369343
C54	C	0.765089	0.214556	0.869343
C55	C	0.335776	-0.285441	0.369337
C56	C	0.835776	0.214559	0.869337
C57	C	0.371133	-0.251945	0.326129
C58	C	0.871133	0.248055	0.826129
C59	C	0.447781	-0.251943	0.326120
C60	C	0.947781	0.248057	0.826120
C61	C	0.508873	-0.251945	0.326117
C62	C	1.008873	0.248055	0.826117
C63	C	0.977870	-0.387782	0.326081
C64	C	1.477870	0.112218	0.826081
C65	C	0.977883	-0.445896	0.326090
C66	C	1.477883	0.054104	0.826090
C67	C	1.021386	-0.806249	0.282900
C68	C	1.521386	-0.306249	0.782900
C69	C	1.021412	-0.860853	0.282910
C70	C	1.521412	-0.360853	0.782910
O71	O	1.058281	-0.889081	0.246154
O72	O	1.558281	-0.389081	0.746154
N73	N	0.978103	-0.888178	0.326156
N74	N	1.478103	-0.388178	0.826156
C75	C	0.934769	-0.860897	0.369402
C76	C	1.434769	-0.360897	0.869402
O77	O	0.897934	-0.889153	0.406188
O78	O	1.397934	-0.389153	0.906188
C79	C	0.934747	-0.806293	0.369396
C80	C	1.434747	-0.306293	0.869396
C81	C	0.978054	-0.778971	0.326141
C82	C	1.478054	-0.278971	0.826141
C83	C	1.064690	-0.778926	0.239650
C84	C	1.564690	-0.278926	0.739650
C85	C	1.064662	-0.724326	0.239640
C86	C	1.564662	-0.224326	0.739640
C87	C	1.021331	-0.697048	0.282881
C88	C	1.521331	-0.197048	0.782881
C89	C	0.978027	-0.724370	0.326132
C90	C	1.478027	-0.224370	0.826132
C91	C	0.891418	-0.779012	0.412644
C92	C	1.391418	-0.279012	0.912644
C93	C	0.891399	-0.724405	0.412635
C94	C	1.391399	-0.224405	0.912635
C95	C	0.934707	-0.697083	0.369380
C96	C	1.434707	-0.197083	0.869380
C97	C	0.934668	-0.642492	0.369363
C98	C	1.434668	-0.142492	0.869363
N99	N	0.977977	-0.615166	0.326116
N100	N	1.477977	-0.115166	0.826116
C101	C	1.021309	-0.642444	0.282875
C102	C	1.521309	-0.142444	0.782875
C103	C	0.934820	-0.975567	0.369413
C104	C	1.434820	-0.475567	0.869413
C105	C	0.934839	-1.030169	0.369416
C106	C	1.434839	-0.530169	0.869416
C107	C	1.021482	-1.030122	0.282924
C108	C	1.521482	-0.530122	0.782924
C109	C	1.021460	-0.975519	0.282918
C110	C	1.521460	-0.475519	0.782918
C111	C	0.978129	-0.948242	0.326166
C112	C	1.478129	-0.448242	0.826166
C113	C	1.021248	-0.527779	0.282857
C114	C	1.521248	-0.027779	0.782857
C115	C	1.021215	-0.473174	0.282849
C116	C	1.521215	0.026826	0.782849
C117	C	0.934574	-0.473226	0.369343
C118	C	1.434574	0.026774	0.869343
C119	C	0.934604	-0.527827	0.369349
C120	C	1.434604	-0.027827	0.869349
C121	C	0.977947	-0.555102	0.326104
C122	C	1.477947	-0.055102	0.826104
O123	O	0.897820	-0.614229	0.406101
O124	O	1.397820	-0.114229	0.906101
O125	O	1.058144	-0.614181	0.246101
O126	O	1.558144	-0.114181	0.746101
C127	C	1.154526	-0.251950	0.326134
C128	C	1.654526	0.248050	0.826134
C129	C	1.229758	-0.251954	0.326144
C130	C	1.729758	0.248046	0.826144
C131	C	0.977990	-0.251940	0.502654
C132	C	1.477990	0.248060	1.002654
C133	C	0.977992	-0.251941	0.577886
C134	C	1.477992	0.248059	1.077886
C135	C	0.978116	-0.115566	0.326158
C136	C	1.478116	0.384434	0.826158
C137	C	0.978173	-0.057452	0.326177
C138	C	1.478173	0.442548	0.826177
C139	C	1.021310	-0.218508	0.613248
C140	C	1.521310	0.281492	1.113248
C141	C	1.021304	-0.218507	0.683937
C142	C	1.521304	0.281493	1.183937
C143	C	0.977984	-0.251941	0.719262
C144	C	1.477984	0.248059	1.219262
C145	C	0.934661	-0.285375	0.683895
C146	C	1.434661	0.214625	1.183895
C147	C	0.934664	-0.285373	0.613208
C148	C	1.434664	0.214627	1.113208
C149	C	0.934648	-0.285381	0.968968
C150	C	1.434648	0.214619	1.468968
C151	C	0.934650	-0.285381	1.039660
C152	C	1.434650	0.214619	1.539660
C153	C	1.021288	-0.218514	1.039697
C154	C	1.521288	0.281486	1.539697
C155	C	1.021291	-0.218513	0.969010
C156	C	1.521291	0.281487	1.469010
C157	C	0.977966	-0.251945	0.933649
C158	C	1.477966	0.248055	1.433649
C159	C	0.977972	-0.251945	0.857001
C160	C	1.477972	0.248055	1.357001
C161	C	0.977981	-0.251943	0.795909
C162	C	1.477981	0.248057	1.295909
C163	C	0.977971	-0.251949	1.150256
C164	C	1.477971	0.248051	1.650256
C165	C	0.977964	-0.251945	1.075024
C166	C	1.477964	0.248055	1.575024
H167	H	0.720299	-0.312700	0.404485
H168	H	1.220299	0.187300	0.904485
H169	H	0.592112	-0.191179	0.247726
H170	H	1.092112	0.308821	0.747726
Cl171	Cl	0.736019	-0.176338	0.228574
Cl172	Cl	1.236019	0.323662	0.728574
Cl173	Cl	1.119171	-0.813209	0.185282
Cl174	Cl	1.619171	-0.313209	0.685282
Cl175	Cl	1.075793	-0.176498	0.728389
Cl176	Cl	1.575793	0.323502	1.228389
H177	H	1.099929	-0.702083	0.204420
H178	H	1.599929	-0.202083	0.704420
H179	H	0.856149	-0.801249	0.447864
H180	H	1.356149	-0.301249	0.947864
H181	H	0.592065	-0.312702	0.404500
H182	H	1.092065	0.187298	0.904500
H183	H	0.236354	-0.191193	0.247749
H184	H	0.736354	0.308807	0.747749
Cl185	Cl	0.880203	-0.327403	0.568753
Cl186	Cl	1.380203	0.172597	1.068753
Cl187	Cl	0.380248	-0.176347	0.228606
Cl188	Cl	0.880248	0.323653	0.728606
Cl189	Cl	0.380187	-0.327543	0.423650
Cl190	Cl	0.880187	0.172457	0.923650
H191	H	1.056480	-0.450930	0.247624
H192	H	1.556480	0.049070	0.747624
H193	H	1.056543	-0.549980	0.247644
H194	H	1.556543	-0.049980	0.747644
Cl195	Cl	0.880336	-0.941282	0.423781
Cl196	Cl	1.380336	-0.441282	0.923781
Cl197	Cl	1.075755	-0.176481	0.924605
Cl198	Cl	1.575755	0.323519	1.424605
H199	H	1.056725	-0.953276	0.247697
H200	H	1.556725	-0.453276	0.747697
Cl201	Cl	0.880385	-1.064511	0.423787
Cl202	Cl	1.380385	-0.564511	0.923787
H203	H	0.856115	-0.702199	0.447855
H204	H	1.356115	-0.202199	0.947855
Cl205	Cl	1.075956	-1.064425	0.228562
Cl206	Cl	1.575956	-0.564425	0.728562
H207	H	0.899342	-0.550074	0.404573
H208	H	1.399342	-0.050074	0.904573
H209	H	0.236294	-0.312717	0.404528
H210	H	0.736294	0.187283	0.904528
Cl211	Cl	0.880198	-0.327405	0.728304
Cl212	Cl	1.380198	0.172595	1.228304
Cl213	Cl	0.880107	-0.438924	0.423704
Cl214	Cl	1.380107	0.061076	0.923704
Cl215	Cl	1.075777	-0.176477	0.568846
Cl216	Cl	1.575777	0.323523	1.068846
Cl217	Cl	1.075751	-0.176483	1.084155
Cl218	Cl	1.575751	0.323517	1.584155
Cl219	Cl	0.880185	-0.327415	1.084068
Cl220	Cl	1.380185	0.172585	1.584068
H221	H	0.899380	-0.312611	0.940186
H222	H	1.399380	0.187389	1.440186
