data_functionalizedCrystal
_audit_creation_method	'MofGen! by Chris Wilmer'
_symmetry_space_group_name_H-M	'P1'
_symmetry_Int_Tables_number	1
_symmetry_cell_setting	triclinic
loop_
_symmetry_equiv_pos_as_xyz
  x,y,z
_cell_length_a	12.759401
_cell_length_b	13.031981
_cell_length_c	12.759393
_cell_angle_alpha	82.783445
_cell_angle_beta	89.980324
_cell_angle_gamma	97.192388
loop_
_atom_site_label
_atom_site_type_symbol
_atom_site_fract_x
_atom_site_fract_y
_atom_site_fract_z
Zn1	Zn	1.553155	-0.416054	-0.540808
Zn2	Zn	1.530731	-0.590867	-0.342785
Zn3	Zn	1.377447	-0.416107	-0.365140
Zn4	Zn	1.355140	-0.590791	-0.518436
O5	O	1.454118	-0.503455	-0.441792
O6	O	1.697200	-0.439254	-0.514547
O7	O	1.510348	-0.567738	-0.198722
O8	O	1.419476	-0.269834	-0.407162
O9	O	1.680725	-0.567688	-0.369060
O10	O	1.548567	-0.269796	-0.536224
O11	O	1.397731	-0.439343	-0.215147
O12	O	1.227468	-0.439269	-0.385468
O13	O	1.381456	-0.567558	-0.668431
O14	O	1.211079	-0.567608	-0.498094
O15	O	1.526937	-0.439180	-0.684868
O16	O	1.488718	-0.737122	-0.347366
O17	O	1.359712	-0.737066	-0.476416
C18	C	1.181153	-0.503437	-0.441780
C19	C	1.064374	-0.503454	-0.441796
C20	C	1.018076	-0.436699	-0.517639
C21	C	0.908351	-0.436710	-0.517645
C22	C	0.891230	-0.570239	-0.365960
C23	C	1.000954	-0.570222	-0.365951
C24	C	1.419389	-0.775019	-0.407061
C25	C	1.404628	-0.891196	-0.392238
C26	C	1.461878	-0.942888	-0.449549
C27	C	1.446623	-1.062963	-0.434230
C28	C	1.728149	-0.503473	-0.441805
C29	C	1.844925	-0.503481	-0.441811
C30	C	1.454210	-0.503354	-0.715838
C31	C	1.454249	-0.503312	-0.832621
C32	C	1.489011	-0.230830	-0.476682
C33	C	1.503881	-0.114653	-0.491550
C34	C	1.530007	-0.436454	-0.896044
C35	C	1.530030	-0.436409	-1.005774
C36	C	1.378533	-0.570087	-0.988646
C37	C	1.378506	-0.570126	-0.878919
C38	C	1.454097	-0.503479	-0.168822
C39	C	1.454299	-0.503227	-0.052078
H40	H	0.839580	-0.624601	-0.304210
F41	F	1.367786	-1.121299	-0.355272
F42	F	1.582712	-1.056319	-0.570515
H43	H	1.522182	-0.898252	-0.509962
H44	H	1.344316	-0.935834	-0.331835
F45	F	1.297865	-0.641284	-0.811415
H46	H	1.069710	-0.382329	-0.579394
H47	H	1.591679	-0.382047	-0.858352
H48	H	1.316868	-0.624488	-1.026355
F49	F	0.859082	-0.365659	-0.598366
F50	F	1.050232	-0.641267	-0.285216
H51	H	1.591719	-0.381966	-1.057410
