data_functionalizedCrystal
_audit_creation_method	'MofGen! by Chris Wilmer'
_symmetry_space_group_name_H-M	'P1'
_symmetry_Int_Tables_number	1
_symmetry_cell_setting	triclinic
loop_
_symmetry_equiv_pos_as_xyz
  x,y,z
_cell_length_a	8.597213
_cell_length_b	12.503552
_cell_length_c	8.559649
_cell_angle_alpha	86.975164
_cell_angle_beta	77.624681
_cell_angle_gamma	101.266738
loop_
_atom_site_label
_atom_site_type_symbol
_atom_site_fract_x
_atom_site_fract_y
_atom_site_fract_z
O1	O	2.085880	0.282346	0.209349
O2	O	2.585880	0.782346	0.709349
O3	O	1.621856	0.239406	0.231974
O4	O	2.121856	0.739406	0.731974
O5	O	1.894749	0.264658	-0.011693
O6	O	2.394749	0.764658	0.488307
O7	O	1.812987	0.257094	0.453016
O8	O	2.312987	0.757094	0.953016
O9	O	1.874203	0.084114	0.006648
O10	O	2.374203	0.584114	0.506648
O11	O	1.601310	0.058862	0.250315
O12	O	2.101310	0.558862	0.750315
O13	O	2.065334	0.101802	0.227691
O14	O	2.565334	0.601802	0.727691
Cu15	Cu	1.831446	0.063847	0.240677
Cu16	Cu	2.331446	0.563847	0.740677
Cu17	Cu	1.855744	0.277361	0.218987
Cu18	Cu	2.355744	0.777361	0.718987
O19	O	1.792441	0.076550	0.471357
O20	O	2.292441	0.576550	0.971357
C21	C	1.552728	0.143688	0.239737
C22	C	2.052728	0.643688	0.739737
C23	C	1.377360	0.127460	0.235523
C24	C	1.877360	0.627460	0.735523
N25	N	1.814368	-0.086326	0.255933
N26	N	2.314368	0.413674	0.755933
C27	C	1.897952	-0.351025	0.181273
C28	C	2.397952	0.148975	0.681273
C29	C	1.789258	-0.307759	0.278373
C30	C	2.289258	0.192241	0.778373
C31	C	1.803232	-0.184542	0.265884
C32	C	2.303232	0.315458	0.765884
C33	C	1.883980	-0.474252	0.193760
C34	C	2.383980	0.025748	0.693760
C35	C	2.134463	0.197522	0.219927
C36	C	2.634463	0.697522	0.719927
C37	C	2.309832	0.213758	0.224141
C38	C	2.809832	0.713758	0.724141
C39	C	1.890672	0.174961	-0.062015
C40	C	2.390672	0.674961	0.437985
C41	C	1.909116	0.176674	-0.239284
C42	C	2.409116	0.676674	0.260716
N43	N	1.872837	0.427535	0.203719
N44	N	2.372837	0.927535	0.703719
C45	C	1.796518	0.166249	0.521679
C46	C	2.296518	0.666249	1.021679
C47	C	1.778075	0.164543	0.698947
C48	C	2.278075	0.664543	1.198947
H49	H	1.386176	0.300051	0.217633
H50	H	1.886176	0.800051	0.717633
N51	N	1.281559	0.019201	0.243722
N52	N	1.781559	0.519201	0.743722
N53	N	1.134455	0.005729	0.240180
N54	N	1.634455	0.505729	0.740180
H55	H	1.066792	-0.070728	0.245974
H56	H	1.566792	0.429272	0.745974
H57	H	2.035424	0.188354	-0.322024
H58	H	2.535424	0.688354	0.177976
N59	N	1.659357	-0.377387	0.394416
N60	N	2.159357	0.122613	0.894416
N61	N	1.648040	-0.478832	0.404531
N62	N	2.148040	0.021168	0.904531
H63	H	1.556303	-0.528012	0.486485
H64	H	2.056303	-0.028012	0.986485
H65	H	1.651774	0.152852	-0.218320
H66	H	2.151774	0.652852	0.281680
H67	H	2.001497	-0.295533	0.088771
H68	H	2.501497	0.204467	0.588771
