data_functionalizedCrystal
_audit_creation_method	'MofGen! by Chris Wilmer'
_symmetry_space_group_name_H-M	'P1'
_symmetry_Int_Tables_number	1
_symmetry_cell_setting	triclinic
loop_
_symmetry_equiv_pos_as_xyz
  x,y,z
_cell_length_a	19.188933
_cell_length_b	19.188930
_cell_length_c	17.666332
_cell_angle_alpha	89.988397
_cell_angle_beta	89.992061
_cell_angle_gamma	83.145175
loop_
_atom_site_label
_atom_site_type_symbol
_atom_site_fract_x
_atom_site_fract_y
_atom_site_fract_z
O1	O	0.926149	0.087175	-0.062932
O2	O	1.426149	0.587175	0.437068
O3	O	0.722838	0.098908	-0.062940
O4	O	1.222838	0.598908	0.437060
O5	O	0.830360	-0.008614	-0.062921
O6	O	1.330360	0.491386	0.437079
O7	O	0.818626	0.194697	-0.062951
O8	O	1.318626	0.694697	0.437049
O9	O	0.830341	-0.008620	0.062976
O10	O	1.330341	0.491380	0.562976
O11	O	0.722819	0.098902	0.062957
O12	O	1.222819	0.598902	0.562957
O13	O	0.926130	0.087170	0.062965
O14	O	1.426130	0.587170	0.562965
Cu15	Cu	0.824473	0.093035	0.074456
Cu16	Cu	1.324473	0.593035	0.574456
Cu17	Cu	0.824495	0.093042	-0.074431
Cu18	Cu	1.324495	0.593042	0.425569
O19	O	0.818607	0.194692	0.062946
O20	O	1.318607	0.694692	0.562946
C21	C	0.696817	0.098525	0.000008
C22	C	1.196817	0.598525	0.500008
C23	C	0.619313	0.097384	0.000005
C24	C	1.119313	0.597384	0.500005
C25	C	0.066068	0.089242	-0.068612
C26	C	0.566068	0.589242	0.431388
C27	C	0.138892	0.090310	-0.068615
C28	C	0.638892	0.590310	0.431385
C29	C	0.175299	0.090844	0.000011
C30	C	0.675299	0.590844	0.500011
C31	C	0.138877	0.090292	0.068645
C32	C	0.638877	0.590292	0.568645
C33	C	0.066056	0.089217	0.068647
C34	C	0.566056	0.589217	0.568647
N35	N	0.284311	0.132260	0.051087
N36	N	0.784311	0.632260	0.551087
N37	N	0.353489	0.133283	0.051081
N38	N	0.853489	0.633283	0.551081
C39	C	0.394707	0.094082	0.000012
C40	C	0.894707	0.594082	0.500012
N41	N	0.364134	0.053828	-0.051062
N42	N	0.864134	0.553828	0.448938
N43	N	0.294949	0.052808	-0.051059
N44	N	0.794949	0.552808	0.448941
C45	C	0.254262	0.092009	0.000018
C46	C	0.754262	0.592009	0.500018
C47	C	0.510085	0.095787	-0.068621
C48	C	1.010085	0.595787	0.431379
C49	C	0.582911	0.096851	-0.068621
C50	C	1.082911	0.596851	0.431379
C51	C	0.582894	0.096840	0.068641
C52	C	1.082894	0.596840	0.568641
C53	C	0.510070	0.095769	0.068639
C54	C	1.010070	0.595769	0.568639
C55	C	0.473669	0.095246	0.000006
C56	C	0.973669	0.595246	0.500006
C57	C	0.829971	-0.034628	0.000030
C58	C	1.329971	0.465372	0.500030
C59	C	0.828830	-0.112132	0.000036
C60	C	1.328830	0.387868	0.500036
C61	C	0.891921	-0.157056	0.000043
C62	C	1.391921	0.342944	0.500043
C63	C	0.890849	-0.229880	0.000030
C64	C	1.390849	0.270120	0.500030
C65	C	0.826683	-0.257777	0.000027
C66	C	1.326683	0.242223	0.500027
C67	C	0.763584	-0.212843	0.000017
C68	C	1.263584	0.287157	0.500017
C69	C	0.764658	-0.140021	0.000021
C70	C	1.264658	0.359979	0.500021
N71	N	0.777630	-0.365784	0.042870
N72	N	1.277630	0.134216	0.542870
N73	N	0.776614	-0.434963	0.042868
N74	N	1.276614	0.065037	0.542868
C75	C	0.823445	-0.477185	0.000012
C76	C	1.323445	0.022815	0.500012
N77	N	0.871341	-0.447618	-0.042832
N78	N	1.371341	0.052382	0.457168
N79	N	0.872358	-0.378433	-0.042826
N80	N	1.372358	0.121567	0.457174
C81	C	0.825512	-0.336739	0.000022
C82	C	1.325512	0.163261	0.500022
C83	C	0.885378	-0.601073	0.000004
C84	C	1.385378	-0.101073	0.500004
C85	C	0.884304	-0.673898	-0.000013
C86	C	1.384304	-0.173898	0.499987
C87	C	0.757037	-0.656860	-0.000019
C88	C	1.257037	-0.156860	0.499981
C89	C	0.758113	-0.584037	-0.000010
C90	C	1.258113	-0.084037	0.499990
C91	C	0.822286	-0.556148	0.000005
C92	C	1.322286	-0.056148	0.500005
C93	C	0.952150	0.087553	0.000016
C94	C	1.452150	0.587553	0.500016
C95	C	1.029655	0.088694	0.000013
C96	C	1.529655	0.588694	0.500013
C97	C	0.818997	0.220705	-0.000006
C98	C	1.318997	0.720705	0.499994
C99	C	0.820137	0.298210	-0.000018
C100	C	1.320137	0.798210	0.499982
N101	N	0.824462	0.093030	0.179176
N102	N	1.324462	0.593030	0.679176
N103	N	0.824511	0.093042	-0.179150
N104	N	1.324511	0.593042	0.320850
C105	C	0.872088	0.045443	0.218794
C106	C	1.372088	0.545443	0.718794
C107	C	0.872093	0.045439	0.298042
C108	C	1.372093	0.545439	0.798042
C109	C	0.824477	0.093036	0.337668
C110	C	1.324477	0.593036	0.837668
C111	C	0.776842	0.140627	0.298040
C112	C	1.276842	0.640627	0.798040
C113	C	0.776834	0.140624	0.218794
C114	C	1.276834	0.640624	0.718794
N115	N	0.815401	0.154843	0.462077
N116	N	1.315401	0.654843	0.962077
N117	N	0.815412	0.154843	0.537358
N118	N	1.315412	0.654843	1.037358
C119	C	0.824495	0.093045	0.576432
C120	C	1.324495	0.593045	1.076432
N121	N	0.833581	0.031245	0.537382
N122	N	1.333581	0.531245	1.037382
N123	N	0.833573	0.031245	0.462095
N124	N	1.333573	0.531245	0.962095
C125	C	0.824479	0.093043	0.423597
C126	C	1.324479	0.593043	0.923597
C127	C	0.872129	0.045450	0.701980
C128	C	1.372129	0.545450	1.201980
C129	C	0.872128	0.045446	0.781229
C130	C	1.372128	0.545446	1.281229
C131	C	0.776880	0.140639	0.781226
C132	C	1.276880	0.640639	1.281226
C133	C	0.776878	0.140638	0.701978
C134	C	1.276878	0.640638	1.201978
C135	C	0.824506	0.093044	0.662360
C136	C	1.324506	0.593044	1.162360
H137	H	0.036435	0.088813	-0.124498
H138	H	0.536435	0.588813	0.375502
H139	H	0.480422	0.095326	0.124521
H140	H	0.980422	0.595326	0.624521
H141	H	0.713280	-0.103444	0.000017
H142	H	1.213280	0.396556	0.500017
H143	H	0.612536	0.097272	0.124517
H144	H	1.112536	0.597272	0.624517
Cl145	Cl	0.972595	-0.121999	0.000040
Cl146	Cl	1.472595	0.378001	0.500040
Cl147	Cl	0.682918	-0.247913	0.000007
Cl148	Cl	1.182918	0.252087	0.500007
H149	H	0.937631	-0.578365	0.000012
H150	H	1.437631	-0.078365	0.500012
Cl151	Cl	0.963626	-0.730375	-0.000011
Cl152	Cl	1.463626	-0.230375	0.499989
Cl153	Cl	0.932000	-0.014385	0.652172
Cl154	Cl	1.432000	0.485615	1.152172
Cl155	Cl	0.970169	-0.286365	0.000037
Cl156	Cl	1.470169	0.213635	0.500037
Cl157	Cl	0.678794	-0.527558	-0.000014
Cl158	Cl	1.178794	-0.027558	0.499986
H159	H	0.910868	0.006687	0.186539
H160	H	1.410868	0.506687	0.686539
Cl161	Cl	0.931972	-0.014390	0.347856
Cl162	Cl	1.431972	0.485610	0.847856
H163	H	0.036408	0.088773	0.124531
H164	H	0.536408	0.588773	0.624531
H165	H	0.612558	0.097292	-0.124507
H166	H	1.112558	0.597292	0.375493
Cl167	Cl	0.716979	0.200459	0.347854
Cl168	Cl	1.216979	0.700459	0.847854
Cl169	Cl	0.676370	-0.691924	-0.000027
Cl170	Cl	1.176370	-0.191924	0.499973
Cl171	Cl	0.716957	0.200454	0.168985
Cl172	Cl	1.216957	0.700454	0.668985
Cl173	Cl	0.932002	-0.014388	0.831038
Cl174	Cl	1.432002	0.485612	1.331038
Cl175	Cl	0.184645	0.090961	0.154918
Cl176	Cl	0.684645	0.590961	0.654918
Cl177	Cl	0.464321	0.095124	-0.154901
Cl178	Cl	0.964321	0.595124	0.345099
Cl179	Cl	0.717015	0.200470	0.831036
Cl180	Cl	1.217015	0.700470	1.331036
Cl181	Cl	0.717005	0.200468	0.652168
Cl182	Cl	1.217005	0.700468	1.152168
H183	H	0.168545	0.090760	-0.124499
H184	H	0.668545	0.590760	0.375501
