data_functionalizedCrystal
_audit_creation_method	'MofGen! by Chris Wilmer'
_symmetry_space_group_name_H-M	'P1'
_symmetry_Int_Tables_number	1
_symmetry_cell_setting	triclinic
loop_
_symmetry_equiv_pos_as_xyz
  x,y,z
_cell_length_a	14.044220
_cell_length_b	11.792241
_cell_length_c	10.268362
_cell_angle_alpha	90.005428
_cell_angle_beta	90.000433
_cell_angle_gamma	91.308853
loop_
_atom_site_label
_atom_site_type_symbol
_atom_site_fract_x
_atom_site_fract_y
_atom_site_fract_z
O1	O	1.259114	-0.273771	-0.108163
O2	O	0.983094	-0.263892	-0.108196
O3	O	1.127802	-0.104289	-0.108169
O4	O	1.114405	-0.433373	-0.108189
O5	O	1.127789	-0.104281	0.108431
O6	O	0.983081	-0.263883	0.108405
O7	O	1.259101	-0.273762	0.108438
Cu8	Cu	1.121090	-0.268822	0.128199
Cu9	Cu	1.121105	-0.268832	-0.127957
O10	O	1.114393	-0.433365	0.108411
C11	C	0.947751	-0.259563	0.000100
C12	C	0.842459	-0.246664	0.000088
C13	C	0.649676	-0.223082	0.000115
C14	C	0.592513	-0.314567	0.000115
C15	C	0.485242	-0.301445	0.000130
C16	C	0.756957	-0.236202	0.000100
C17	C	1.126954	-0.061915	0.000130
C18	C	1.124435	0.064335	0.000129
C19	C	1.294444	-0.278091	0.000139
C20	C	1.399736	-0.290990	0.000143
C21	C	1.115241	-0.475739	0.000109
C22	C	1.117759	-0.601989	0.000102
N23	N	1.121086	-0.268815	0.308365
C24	C	1.119804	0.295482	0.000107
C25	C	1.122377	0.166855	0.000119
N26	N	1.121116	-0.268831	-0.308123
C27	C	1.121100	-0.268829	0.574035
C28	C	1.121089	-0.268824	0.426197
H29	H	0.618054	-0.134912	0.000128
C30	C	0.635227	-0.433692	0.000099
C31	C	0.744068	-0.446826	0.000083
C32	C	0.786787	-0.565946	0.000066
C33	C	0.720664	-0.671932	0.000065
C34	C	0.611816	-0.658802	0.000081
C35	C	0.569098	-0.539682	0.000098
H36	H	0.793022	-0.368365	0.000083
H37	H	0.867363	-0.575665	0.000054
H38	H	0.752287	-0.760112	0.000052
H39	H	0.562863	-0.737262	0.000081
H40	H	0.488521	-0.529963	0.000110
