data_functionalizedCrystal
_audit_creation_method	'MofGen! by Chris Wilmer'
_symmetry_space_group_name_H-M	'P1'
_symmetry_Int_Tables_number	1
_symmetry_cell_setting	triclinic
loop_
_symmetry_equiv_pos_as_xyz
  x,y,z
_cell_length_a	16.109302
_cell_length_b	10.654551
_cell_length_c	15.186229
_cell_angle_alpha	90.009117
_cell_angle_beta	90.009858
_cell_angle_gamma	83.973571
loop_
_atom_site_label
_atom_site_type_symbol
_atom_site_fract_x
_atom_site_fract_y
_atom_site_fract_z
O1	O	1.104095	0.161437	0.073263
O2	O	1.604095	0.661437	0.573263
O3	O	0.862153	0.181525	0.073255
O4	O	1.362153	0.681525	0.573255
O5	O	0.988686	-0.011333	0.073259
O6	O	1.488686	0.488667	0.573259
O7	O	0.977561	0.354296	0.073258
O8	O	1.477561	0.854296	0.573258
O9	O	0.988668	-0.011365	-0.073198
O10	O	1.488668	0.488635	0.426802
O11	O	0.862135	0.181494	-0.073202
O12	O	1.362135	0.681494	0.426798
O13	O	1.104077	0.161406	-0.073195
O14	O	1.604077	0.661406	0.426805
Zn15	Zn	0.983103	0.171445	-0.096452
Zn16	Zn	1.483103	0.671445	0.403548
Zn17	Zn	0.983126	0.171486	0.096512
Zn18	Zn	1.483126	0.671486	0.596512
O19	O	0.977544	0.354265	-0.073199
O20	O	1.477544	0.854265	0.426801
C21	C	0.831164	0.180695	0.000025
C22	C	1.331164	0.680695	0.500025
C23	C	0.738854	0.178255	0.000023
C24	C	1.238854	0.678255	0.500023
C25	C	0.526470	0.172597	-0.079802
C26	C	1.026470	0.672597	0.420198
C27	C	0.439736	0.170290	-0.079799
C28	C	0.939736	0.670290	0.420201
C29	C	0.439766	0.170331	0.079877
C30	C	0.939766	0.670331	0.579877
C31	C	0.526499	0.172628	0.079873
C32	C	1.026499	0.672628	0.579873
C33	C	0.569848	0.173767	0.000031
C34	C	1.069848	0.673767	0.500031
C35	C	0.396382	0.169164	0.000038
C36	C	0.896382	0.669164	0.500038
C37	C	0.302341	0.166664	0.000042
C38	C	0.802341	0.666664	0.500042
C39	C	0.663895	0.176265	0.000026
C40	C	1.163895	0.676265	0.500026
C41	C	0.987860	-0.058136	0.000033
C42	C	1.487860	0.441864	0.500033
C43	C	0.985416	-0.197546	0.000039
C44	C	1.485416	0.302454	0.500039
C45	C	0.984279	-0.263025	0.079871
C46	C	1.484279	0.236975	0.579871
C47	C	0.981975	-0.394015	0.079867
C48	C	1.481975	0.105985	0.579867
C49	C	0.981949	-0.394034	-0.079809
C50	C	1.481949	0.105966	0.420191
C51	C	0.984247	-0.263046	-0.079804
C52	C	1.484247	0.236954	0.420196
C53	C	0.985448	-0.197525	0.159713
C54	C	1.485448	0.302475	0.659713
C55	C	0.984312	-0.263005	0.239552
C56	C	1.484312	0.236995	0.739552
C57	C	0.982008	-0.393994	0.239548
C58	C	1.482008	0.106006	0.739548
C59	C	0.980840	-0.459504	0.159705
C60	C	1.480840	0.040496	0.659705
C61	C	1.135066	0.162236	0.000037
C62	C	1.635066	0.662236	0.500037
C63	C	1.227376	0.164676	0.000045
C64	C	1.727376	0.664676	0.500045
C65	C	0.978370	0.401067	0.000030
C66	C	1.478370	0.901067	0.500030
C67	C	0.980814	0.540477	0.000029
C68	C	1.480814	1.040477	0.500029
N69	N	0.983094	0.171416	-0.228144
N70	N	1.483094	0.671416	0.271856
C71	C	0.932260	0.095284	-0.546098
C72	C	1.432260	0.595284	-0.046098
C73	C	0.932253	0.095265	-0.453908
C74	C	1.432253	0.595265	0.046092
C75	C	1.033982	0.247641	-0.453848
C76	C	1.533982	0.747641	0.046152
C77	C	1.033993	0.247651	-0.546036
C78	C	1.533993	0.747651	-0.046036
C79	C	0.983127	0.171475	-0.592159
C80	C	1.483127	0.671475	-0.092159
C81	C	0.983109	0.171446	-0.407781
C82	C	1.483109	0.671446	0.092219
C83	C	0.983102	0.171427	-0.307825
C84	C	1.483102	0.671427	0.192175
C85	C	0.983136	0.171492	-0.692121
C86	C	1.483136	0.671492	-0.192121
N87	N	0.983143	0.171505	0.228205
N88	N	1.483143	0.671505	0.728205
H89	H	0.561819	0.173578	0.144886
H90	H	1.061819	0.673578	0.644886
H91	H	0.987326	-0.090868	0.159726
H92	H	1.487326	0.409132	0.659726
F93	F	0.878126	0.014206	-0.595182
F94	F	1.378126	0.514206	-0.095182
F95	F	1.088112	0.328712	-0.404754
F96	F	1.588112	0.828712	0.095246
F97	F	0.393574	0.169046	-0.164768
F98	F	0.893574	0.669046	0.335232
H99	H	0.404460	0.169405	0.144881
H100	H	0.904460	0.669405	0.644881
F101	F	1.088139	0.328744	-0.595060
F102	F	1.588139	0.828744	-0.095060
H103	H	0.561763	0.173524	-0.144815
H104	H	1.061763	0.673524	0.355185
F105	F	0.878109	0.014177	-0.404891
F106	F	1.378109	0.514177	0.095109
H107	H	0.981074	-0.447303	0.304557
H108	H	1.481074	0.052697	0.804557
F109	F	0.985552	-0.193284	0.324522
F110	F	1.485552	0.306716	0.824522
F111	F	0.978380	-0.598914	0.159705
F112	F	1.478380	-0.098914	0.659705
H113	H	0.980999	-0.447382	-0.144813
H114	H	1.480999	0.052618	0.355187
H115	H	0.985155	-0.209728	-0.144810
H116	H	1.485155	0.290272	0.355190
