data_functionalizedCrystal
_audit_creation_method	'MofGen! by Chris Wilmer'
_symmetry_space_group_name_H-M	'P1'
_symmetry_Int_Tables_number	1
_symmetry_cell_setting	triclinic
loop_
_symmetry_equiv_pos_as_xyz
  x,y,z
_cell_length_a	6.817900
_cell_length_b	17.982783
_cell_length_c	13.212919
_cell_angle_alpha	89.771088
_cell_angle_beta	106.298290
_cell_angle_gamma	102.448572
loop_
_atom_site_label
_atom_site_type_symbol
_atom_site_fract_x
_atom_site_fract_y
_atom_site_fract_z
V1	V	-4.038697	-0.082963	-0.325868
V2	V	-3.538697	0.417037	0.174132
O3	O	-4.031226	0.027056	-0.319218
O4	O	-3.531226	0.527056	0.180782
O5	O	-3.985090	-0.186689	-0.324068
O6	O	-3.485090	0.313311	0.175932
O7	O	-3.997802	-0.071564	-0.467794
O8	O	-3.497802	0.428436	0.032206
O9	O	-4.018426	-0.088866	-0.174497
O10	O	-3.518426	0.411134	0.325503
V11	V	-4.522027	-0.071000	-0.307710
V12	V	-4.022027	0.429000	0.192290
O13	O	-4.300379	-0.109206	-0.365697
O14	O	-3.800379	0.390794	0.134303
O15	O	-4.710543	-0.044757	-0.267881
O16	O	-4.210543	0.455243	0.232119
O17	O	-4.352428	0.032727	-0.309510
O18	O	-3.852428	0.532727	0.190490
O19	O	-4.646895	-0.181019	-0.314359
O20	O	-4.146895	0.318981	0.185641
O21	O	-4.659695	-0.065097	-0.459081
O22	O	-4.159695	0.434903	0.040919
O23	O	-4.339715	-0.082398	-0.165784
O24	O	-3.839715	0.417602	0.334216
C25	C	-3.828581	-0.212292	-0.319038
C26	C	-3.328581	0.287708	0.180962
C27	C	-3.866088	-0.297024	-0.318512
C28	C	-3.366088	0.202976	0.181488
C29	C	-3.838985	-0.332539	-0.222637
C30	C	-3.338985	0.167461	0.277363
C31	C	-3.874247	-0.412154	-0.222147
C32	C	-3.374247	0.087846	0.277853
C33	C	-3.936597	-0.456254	-0.317532
C34	C	-3.436597	0.043746	0.182468
C35	C	-3.963707	-0.420734	-0.413415
C36	C	-3.463707	0.079266	0.086585
C37	C	-3.928460	-0.341120	-0.413904
C38	C	-3.428460	0.158880	0.086096
C39	C	-4.105858	-0.741808	-0.411443
C40	C	-3.605858	-0.241808	0.088557
C41	C	-4.141098	-0.821427	-0.410946
C42	C	-3.641098	-0.321427	0.089054
C43	C	-4.051645	-0.812842	-0.219685
C44	C	-3.551645	-0.312842	0.280315
C45	C	-4.016398	-0.733228	-0.220174
C46	C	-3.516398	-0.233228	0.279826
C47	C	-4.043521	-0.697716	-0.316057
C48	C	-3.543521	-0.197716	0.183943
C49	C	-4.005290	-0.611387	-0.316587
C50	C	-3.505290	-0.111387	0.183413
C51	C	-3.974814	-0.542580	-0.317002
C52	C	-3.474814	-0.042580	0.182998
C53	C	-3.844796	-0.065438	-0.502373
C54	C	-3.344796	0.434562	-0.002373
C55	C	-3.892609	-0.056804	-0.618402
C56	C	-3.392609	0.443196	-0.118402
C57	C	-4.057720	-0.178045	-0.866827
C58	C	-3.557720	0.321955	-0.366827
C59	C	-4.102647	-0.169937	-0.975846
C60	C	-3.602647	0.330063	-0.475846
C61	C	-4.027405	-0.032481	-0.945464
C62	C	-3.527405	0.467519	-0.445464
C63	C	-3.982478	-0.040589	-0.836444
C64	C	-3.482478	0.459411	-0.336444
C65	C	-3.997636	-0.113374	-0.797130
C66	C	-3.497636	0.386626	-0.297130
C67	C	-3.952693	-0.121481	-0.688107
C68	C	-3.452693	0.378519	-0.188107
C69	C	-3.877467	0.015975	-0.657728
C70	C	-3.377467	0.515975	-0.157728
C71	C	-3.922394	0.024083	-0.766747
C72	C	-3.422394	0.524083	-0.266747
C73	C	-4.172278	0.058325	-0.314537
C74	C	-3.672278	0.558325	0.185463
C75	C	-4.114010	0.143057	-0.315070
C76	C	-3.614010	0.643057	0.184930
C77	C	-4.156063	-0.088528	-0.131199
C78	C	-3.656063	0.411472	0.368801
C79	C	-4.087489	-0.097157	-0.015169
C80	C	-3.587489	0.402843	0.484831
H81	H	-3.950552	-0.312206	-0.491976
H82	H	-3.450552	0.187794	0.008024
H83	H	-4.014490	-0.456646	-0.491080
H84	H	-3.514490	0.043354	0.008920
H85	H	-3.965027	-0.180745	-0.656100
H86	H	-3.465027	0.319255	-0.156100
H87	H	-4.151569	-0.222600	-1.032591
H88	H	-3.651569	0.277400	-0.532591
H89	H	-4.015092	0.026777	-0.977494
H90	H	-3.515092	0.526777	-0.477494
H91	H	-4.029571	-0.841766	-0.141613
H92	H	-3.529571	-0.341766	0.358387
F93	F	-3.906271	0.101541	-0.808601
F94	F	-3.406271	0.601541	-0.308601
H95	H	-3.828517	0.068636	-0.600967
H96	H	-3.328517	0.568636	-0.100967
F97	F	-3.772613	-0.285612	-0.121112
F98	F	-3.272613	0.214388	0.378888
F99	F	-3.950030	-0.686299	-0.118652
F100	F	-3.450030	-0.186299	0.381348
F101	F	-3.845416	-0.449949	-0.120103
F102	F	-3.345416	0.050051	0.379897
F103	F	-4.207456	-0.868359	-0.512473
F104	F	-3.707456	-0.368359	-0.012473
F105	F	-4.134714	-0.704022	-0.513489
F106	F	-3.634714	-0.204022	-0.013489
F107	F	-4.073817	-0.255506	-0.824982
F108	F	-3.573817	0.244494	-0.324982
