data_functionalizedCrystal
_audit_creation_method	'MofGen! by Chris Wilmer'
_symmetry_space_group_name_H-M	'P1'
_symmetry_Int_Tables_number	1
_symmetry_cell_setting	triclinic
loop_
_symmetry_equiv_pos_as_xyz
  x,y,z
_cell_length_a	19.288840
_cell_length_b	10.489746
_cell_length_c	18.366186
_cell_angle_alpha	89.993500
_cell_angle_beta	89.983729
_cell_angle_gamma	83.833658
loop_
_atom_site_label
_atom_site_type_symbol
_atom_site_fract_x
_atom_site_fract_y
_atom_site_fract_z
O1	O	0.922431	0.158957	-0.060672
O2	O	0.720313	0.180454	-0.060647
O3	O	0.825969	-0.015997	-0.060655
O4	O	0.816775	0.355408	-0.060664
O5	O	0.825951	-0.016006	0.060445
O6	O	0.720295	0.180444	0.060453
O7	O	0.922413	0.158947	0.060427
Zn8	Zn	0.821351	0.169694	0.079667
Zn9	Zn	0.821375	0.169707	-0.079887
O10	O	0.816757	0.355398	0.060435
C11	C	0.694422	0.179763	-0.000094
C12	C	0.617304	0.177702	-0.000084
C13	C	0.581104	0.176718	-0.066097
C14	C	0.508644	0.174768	-0.066106
C15	C	0.472388	0.173776	-0.000098
C16	C	0.508597	0.174768	0.065924
C17	C	0.581055	0.176731	0.065931
C18	C	0.362530	0.095956	0.050465
C19	C	0.290075	0.093985	0.050455
C20	C	0.248904	0.167728	-0.000117
C21	C	0.280200	0.243425	-0.050692
C22	C	0.352657	0.245388	-0.050685
C23	C	0.393820	0.171649	-0.000098
C24	C	0.134134	0.164630	-0.066144
C25	C	0.061672	0.162688	-0.066150
C26	C	0.061628	0.162676	0.065881
C27	C	0.134088	0.164631	0.065886
C28	C	0.170337	0.165602	-0.000129
C29	C	0.825265	-0.063517	-0.000105
C30	C	0.823185	-0.205099	-0.000105
C31	C	0.754728	-0.356397	-0.000106
C32	C	0.788963	-0.279780	-0.059817
C33	C	0.788961	-0.279831	0.059578
C34	C	0.853749	-0.380748	-0.059881
C35	C	0.853738	-0.380804	0.059567
C36	C	0.888020	-0.304237	-0.000159
C37	C	0.948304	0.159639	-0.000127
C38	C	1.025422	0.161699	-0.000142
C39	C	0.817461	0.402919	-0.000116
C40	C	0.819541	0.544500	-0.000121
N41	N	0.821340	0.169685	0.188558
N42	N	0.821392	0.169706	-0.188778
C43	C	0.868140	0.082739	0.226655
C44	C	0.868145	0.082733	0.302883
C45	C	0.821355	0.169695	0.341011
C46	C	0.774546	0.256648	0.302905
C47	C	0.774538	0.256643	0.226678
C48	C	0.812837	0.285910	0.461769
C49	C	0.812850	0.285917	0.537994
C50	C	0.821375	0.169711	0.576119
C51	C	0.829902	0.053494	0.538009
C52	C	0.829894	0.053489	0.461782
C53	C	0.821358	0.169710	0.423666
C54	C	0.868183	0.082752	0.696870
C55	C	0.868182	0.082745	0.773100
C56	C	0.774587	0.256670	0.773120
C57	C	0.774584	0.256667	0.696892
C58	C	0.821386	0.169709	0.658772
H59	H	0.610613	0.177509	-0.119852
H60	H	0.246679	0.303478	-0.091870
H61	H	0.396046	0.035902	0.091651
Br62	Br	0.660797	-0.395465	-0.000189
Br63	Br	0.012541	0.161368	-0.155748
H64	H	0.836844	-0.041131	0.569048
H65	H	0.906289	0.011942	0.665832
H66	H	0.761609	-0.235678	-0.110292
H67	H	0.032109	0.161877	0.119626
H68	H	0.163563	0.165424	0.119641
Br69	Br	0.711079	0.374678	0.824859
Br70	Br	0.711018	0.374648	0.174971
Br71	Br	0.931696	-0.035273	0.824807
H72	H	0.264600	0.032342	0.091633
H73	H	0.761580	-0.235767	0.110059
H74	H	0.479163	0.173968	-0.119864
H75	H	0.881099	-0.424647	-0.110420
Br76	Br	0.931652	-0.035275	0.174920
Br77	Br	0.711069	0.374674	0.645183
H78	H	0.163649	0.165434	-0.119897
H79	H	0.805911	0.380547	0.569017
H80	H	0.944420	-0.281046	-0.000198
Br81	Br	0.459395	0.173437	0.155507
Br82	Br	0.630187	0.178070	0.155527
H83	H	0.906256	0.011929	0.333907
H84	H	0.881066	-0.424929	0.110045
Br85	Br	0.841460	-0.104225	0.410064
Br86	Br	0.395128	0.348117	-0.119316
H87	H	0.805883	0.380544	0.430734
H88	H	0.736448	0.327452	0.333952
