data_functionalizedCrystal
_audit_creation_method	'MofGen! by Chris Wilmer'
_symmetry_space_group_name_H-M	'P1'
_symmetry_Int_Tables_number	1
_symmetry_cell_setting	triclinic
loop_
_symmetry_equiv_pos_as_xyz
  x,y,z
_cell_length_a	14.044220
_cell_length_b	14.971486
_cell_length_c	14.048226
_cell_angle_alpha	90.006640
_cell_angle_beta	90.001356
_cell_angle_gamma	88.401503
loop_
_atom_site_label
_atom_site_type_symbol
_atom_site_fract_x
_atom_site_fract_y
_atom_site_fract_z
O1	O	-1.257954	-0.215664	-0.079060
O2	O	-0.981976	-0.207881	-0.079084
O3	O	-1.127361	-0.082155	-0.079065
O4	O	-1.112568	-0.341390	-0.079080
O5	O	-1.127344	-0.082146	0.079256
O6	O	-0.981958	-0.207872	0.079237
O7	O	-1.257936	-0.215654	0.079261
Zn8	Zn	-1.119944	-0.211762	0.104386
Zn9	Zn	-1.119967	-0.211774	-0.104209
O10	O	-1.112550	-0.341380	0.079241
C11	C	-1.126691	-0.048774	0.000095
C12	C	-1.124708	0.050680	0.000094
C13	C	-0.946648	-0.204470	0.000073
C14	C	-0.841411	-0.194309	0.000064
C15	C	-1.293263	-0.219065	0.000101
C16	C	-1.398500	-0.229227	0.000104
C17	C	-0.648729	-0.175732	0.000084
C18	C	-0.591177	-0.247799	0.000084
C19	C	-0.483962	-0.237463	0.000095
C20	C	-0.755954	-0.186067	0.000073
C21	C	-1.113220	-0.374762	0.000079
C22	C	-1.115203	-0.474215	0.000074
N23	N	-1.119935	-0.211753	0.246746
C24	C	-1.210119	0.101176	0.000102
C25	C	-1.208250	0.194623	0.000093
C26	C	-1.120970	0.237571	0.000082
C27	C	-1.035554	0.187067	0.000071
C28	C	-1.037423	0.093623	0.000074
C29	C	-1.031663	0.381836	0.000067
C30	C	-1.029793	0.475288	0.000066
C31	C	-1.202490	0.482837	0.000086
C32	C	-1.204360	0.389392	0.000089
C33	C	-1.118942	0.338895	0.000080
N34	N	-1.119984	-0.211776	-0.246570
C35	C	-1.184333	-0.156108	0.296573
C36	C	-1.184339	-0.156108	0.396231
C37	C	-1.119952	-0.211758	0.446060
C38	C	-1.055548	-0.267406	0.396226
C39	C	-1.055538	-0.267400	0.296570
C40	C	-1.055575	-0.267414	0.603941
C41	C	-1.055587	-0.267421	0.703603
C42	C	-1.184377	-0.156122	0.703601
C43	C	-1.184366	-0.156117	0.603945
C44	C	-1.119963	-0.211766	0.554118
H45	H	-0.617481	-0.106277	0.000093
N46	N	-0.632551	-0.339815	0.000064
H47	H	-0.673098	-0.347317	0.058746
H48	H	-0.673036	-0.347250	-0.058672
H49	H	-1.003128	-0.312726	0.563375
N50	N	-0.986087	-0.327420	0.242820
H51	H	-0.944077	-0.289858	0.201488
H52	H	-0.945364	-0.362667	0.289565
H53	H	-1.236775	-0.110797	0.436799
N54	N	-1.304257	0.054857	0.000123
H55	H	-1.358080	0.101030	0.000125
H56	H	-1.308803	0.016242	-0.058566
N57	N	-1.294621	0.537295	0.000098
H58	H	-1.280196	0.603009	0.000090
H59	H	-1.332665	0.522600	-0.058586
H60	H	-0.964489	0.222043	0.000056
N61	N	-1.300371	0.249089	0.000107
H62	H	-1.355945	0.207702	0.000123
H63	H	-1.303342	0.288031	0.058799
H64	H	-1.275430	0.354427	0.000105
H65	H	-0.958722	0.510253	0.000072
N66	N	-0.986106	-0.327428	0.449975
H67	H	-0.997088	-0.391793	0.432616
H68	H	-0.918846	-0.311644	0.432627
N69	N	-0.939536	0.327369	0.000051
H70	H	-0.883961	0.368754	0.000046
H71	H	-0.936545	0.288441	0.058743
H72	H	-1.003155	-0.312736	0.744169
H73	H	-0.967873	0.052509	0.000067
H74	H	-1.236768	-0.110795	0.256009
N75	N	-1.253816	-0.096102	0.550197
H76	H	-1.294616	-0.060849	0.596882
H77	H	-1.217478	-0.053639	0.508861
H78	H	-1.236815	-0.110811	0.744176
