data_functionalizedCrystal
_audit_creation_method	'MofGen! by Chris Wilmer'
_symmetry_space_group_name_H-M	'P1'
_symmetry_Int_Tables_number	1
_symmetry_cell_setting	triclinic
loop_
_symmetry_equiv_pos_as_xyz
  x,y,z
_cell_length_a	25.639239
_cell_length_b	18.215407
_cell_length_c	18.215399
_cell_angle_alpha	90.019833
_cell_angle_beta	89.969965
_cell_angle_gamma	89.960866
loop_
_atom_site_label
_atom_site_type_symbol
_atom_site_fract_x
_atom_site_fract_y
_atom_site_fract_z
Zn1	Zn	-0.208150	-1.125001	-0.416105
Zn2	Zn	-0.295586	-1.124880	-0.293034
Zn3	Zn	-0.208167	-1.001934	-0.293053
Zn4	Zn	-0.295557	-1.001870	-0.416059
O5	O	-0.251865	-1.063421	-0.354563
O6	O	-0.219754	-1.227970	-0.399791
O7	O	-0.284009	-1.108547	-0.190052
O8	O	-0.135000	-1.018337	-0.309403
O9	O	-0.283992	-1.227880	-0.309372
O10	O	-0.134987	-1.108754	-0.399809
O11	O	-0.219783	-1.018219	-0.190066
O12	O	-0.219754	-0.898941	-0.309358
O13	O	-0.283943	-1.018228	-0.519050
O14	O	-0.283959	-0.898894	-0.399731
O15	O	-0.219725	-1.108692	-0.519083
O16	O	-0.368747	-1.108485	-0.309327
O17	O	-0.368726	-1.018110	-0.399713
C18	C	-0.251856	-0.872215	-0.354542
C19	C	-0.251865	-0.790416	-0.354550
C20	C	-0.387708	-1.063298	-0.354529
C21	C	-0.445822	-1.063312	-0.354539
C22	C	-0.251829	-1.063466	-0.546516
C23	C	-0.251814	-1.063485	-0.628315
C24	C	-0.806183	-1.110602	-0.307579
C25	C	-0.860787	-1.110631	-0.307589
O26	O	-0.889023	-1.150711	-0.267625
N27	N	-0.888104	-1.063551	-0.354612
C28	C	-0.860813	-1.016444	-0.401633
O29	O	-0.889062	-0.976402	-0.441631
C30	C	-0.806210	-1.016420	-0.401626
C31	C	-0.778896	-1.063498	-0.354595
C32	C	-0.778869	-1.157677	-0.260553
C33	C	-0.724269	-1.157647	-0.260542
C34	C	-0.696982	-1.110543	-0.307558
C35	C	-0.724296	-1.063468	-0.354584
C36	C	-0.778920	-0.969318	-0.448650
C37	C	-0.724313	-0.969298	-0.448640
C38	C	-0.697000	-1.016376	-0.401609
C39	C	-0.642408	-1.016334	-0.401590
N40	N	-0.615092	-1.063414	-0.354567
C41	C	-0.642379	-1.110519	-0.307551
C42	C	-0.975484	-1.016500	-0.401644
C43	C	-1.030086	-1.016520	-0.401648
C44	C	-1.030057	-1.110708	-0.307605
C45	C	-0.975453	-1.110683	-0.307598
C46	C	-0.948167	-1.063580	-0.354621
C47	C	-0.527714	-1.110452	-0.307532
C48	C	-0.473108	-1.110416	-0.307523
C49	C	-0.473143	-1.016232	-0.401569
C50	C	-0.527743	-1.016265	-0.401575
C51	C	-0.555027	-1.063381	-0.354554
O52	O	-0.614138	-0.976277	-0.441536
O53	O	-0.614123	-1.150561	-0.267567
C54	C	-0.115492	-1.063566	-0.354613
C55	C	-0.057378	-1.063627	-0.354634
C56	C	-0.251874	-1.255374	-0.354584
C57	C	-0.251878	-1.337173	-0.354594
C58	C	-0.285349	-0.602217	-0.401548
C59	C	-0.285350	-0.525358	-0.401557
C60	C	-0.218391	-0.525378	-0.307594
C61	C	-0.218387	-0.602235	-0.307589
C62	C	-0.251869	-0.640653	-0.354565
C63	C	-0.251874	-0.486937	-0.354579
C64	C	-0.251876	-0.403603	-0.354589
C65	C	-0.251867	-0.723992	-0.354556
C66	C	-0.218344	-1.110607	-0.816528
C67	C	-0.218329	-1.110616	-0.893386
C68	C	-0.285202	-1.016416	-0.893340
C69	C	-0.285214	-1.016404	-0.816483
C70	C	-0.251786	-1.063504	-0.778078
C71	C	-0.251759	-1.063524	-0.931795
C72	C	-0.251742	-1.063534	-1.015128
C73	C	-0.251801	-1.063494	-0.694739
C74	C	-0.251863	-1.063419	-0.163357
C75	C	-0.251731	-1.063543	-0.081558
H76	H	-0.450871	-1.148753	-0.269223
H77	H	-0.953270	-0.978136	-0.439934
H78	H	-0.312446	-0.978042	-0.785176
C79	C	-0.914087	-1.120943	-0.208600
C80	C	-0.945433	-1.162435	-0.255904
H81	H	-0.895559	-1.152896	-0.176683
H82	H	-0.890020	-1.092899	-0.236599
H83	H	-0.935428	-1.088904	-0.180427
H84	H	-0.924091	-1.194471	-0.284080
H85	H	-0.969503	-1.190493	-0.227901
H86	H	-0.191120	-0.633530	-0.269329
H87	H	-0.191131	-0.494089	-0.269346
H88	H	-0.312613	-0.494068	-0.439817
C89	C	-0.152237	-1.203713	-0.824296
C90	C	-0.181595	-1.162370	-0.774313
H91	H	-0.129547	-1.235665	-0.798234
H92	H	-0.175012	-1.231845	-0.854266
H93	H	-0.132236	-1.171663	-0.854278
H94	H	-0.201600	-1.194420	-0.744335
H95	H	-0.158818	-1.134236	-0.744330
H96	H	-0.191096	-1.148971	-0.924688
C97	C	-0.355519	-1.006135	-0.979737
C98	C	-0.321949	-0.964651	-0.935556
H99	H	-0.378208	-0.974177	-1.005795
H100	H	-0.335600	-1.034183	-1.013634
H101	H	-0.375521	-1.038172	-0.949743
H102	H	-0.301944	-0.932619	-0.965551
H103	H	-0.341870	-0.936591	-0.901656
C104	C	-0.522185	-1.203542	-0.214564
C105	C	-0.557699	-1.162238	-0.255841
H106	H	-0.540697	-1.235505	-0.182648
H107	H	-0.500854	-1.231662	-0.246652
H108	H	-0.500923	-1.171469	-0.186390
H109	H	-0.578959	-1.194310	-0.284020
H110	H	-0.579038	-1.134116	-0.223749
H111	H	-0.801080	-1.196039	-0.222266
C112	C	-0.707500	-1.193579	-0.135957
C113	C	-0.694253	-1.209408	-0.208851
H114	H	-0.688974	-1.225541	-0.104047
H115	H	-0.698583	-1.144144	-0.125137
H116	H	-0.743928	-1.200327	-0.129250
H117	H	-0.657825	-1.202654	-0.215560
H118	H	-0.703166	-1.258854	-0.219675
C119	C	-1.113751	-1.152658	-0.265962
C120	C	-1.060057	-1.162553	-0.255988
H121	H	-1.132272	-1.184684	-0.234119
H122	H	-1.122759	-1.103248	-0.255086
H123	H	-1.122638	-1.163343	-0.315445
H124	H	-1.051170	-1.151862	-0.206506
H125	H	-1.051047	-1.211974	-0.266859
H126	H	-0.549983	-0.977932	-0.439874
C127	C	-0.315078	-0.720026	-0.443262
C128	C	-0.322148	-0.644448	-0.453188
H129	H	-0.337798	-0.746094	-0.475142
H130	H	-0.279961	-0.732652	-0.454119
H131	H	-0.322688	-0.732587	-0.393794
H132	H	-0.314534	-0.631885	-0.502655
H133	H	-0.357272	-0.631816	-0.442336
H134	H	-1.052320	-0.978177	-0.439938
H135	H	-0.801150	-0.930978	-0.486945
H136	H	-0.702100	-0.930941	-0.486935
H137	H	-0.450917	-0.977877	-0.439847
