data_functionalizedCrystal
_audit_creation_method	'MofGen! by Chris Wilmer'
_symmetry_space_group_name_H-M	'P1'
_symmetry_Int_Tables_number	1
_symmetry_cell_setting	triclinic
loop_
_symmetry_equiv_pos_as_xyz
  x,y,z
_cell_length_a	25.639240
_cell_length_b	12.594517
_cell_length_c	12.594509
_cell_angle_alpha	89.988228
_cell_angle_beta	89.972438
_cell_angle_gamma	90.027945
loop_
_atom_site_label
_atom_site_type_symbol
_atom_site_fract_x
_atom_site_fract_y
_atom_site_fract_z
Zn1	Zn	-0.208200	1.627152	-0.601574
Zn2	Zn	-0.295640	1.626992	-0.423592
Zn3	Zn	-0.208214	1.449155	-0.423633
Zn4	Zn	-0.295600	1.449088	-0.601553
O5	O	-0.251914	1.538096	-0.512588
O6	O	-0.219810	1.776076	-0.577956
O7	O	-0.284066	1.603362	-0.274652
O8	O	-0.135047	1.472861	-0.447263
O9	O	-0.284052	1.775959	-0.447194
O10	O	-0.135037	1.603635	-0.577995
O11	O	-0.219834	1.472706	-0.274682
O12	O	-0.219796	1.300200	-0.447243
O13	O	-0.283984	1.472747	-0.750502
O14	O	-0.283998	1.300151	-0.577960
O15	O	-0.219772	1.603570	-0.750517
O16	O	-0.368800	1.603298	-0.447174
O17	O	-0.368771	1.472593	-0.577921
C18	C	-0.251894	1.261556	-0.512604
C19	C	-0.251898	1.143250	-0.512637
C20	C	-0.286886	1.074001	-0.583596
C21	C	-0.239216	1.003220	-0.609776
C22	C	-0.299608	1.003232	-0.486433
C23	C	-0.204202	1.074027	-0.538867
C24	C	-0.264627	1.074046	-0.415479
C25	C	-0.216924	1.003296	-0.441622
C26	C	-0.387756	1.537949	-0.512564
C27	C	-0.445870	1.537984	-0.512589
C28	C	-0.697007	1.606184	-0.580730
C29	C	-0.642403	1.606152	-0.580722
O30	O	-0.614118	1.664016	-0.638622
N31	N	-0.615144	1.538100	-0.512602
C32	C	-0.642493	1.470084	-0.444478
O33	O	-0.614293	1.412198	-0.386535
C34	C	-0.697096	1.470122	-0.444482
C35	C	-0.724352	1.538171	-0.512614
C36	C	-0.724263	1.674228	-0.648856
C37	C	-0.778864	1.674258	-0.648865
C38	C	-0.806208	1.606245	-0.580748
C39	C	-0.778953	1.538201	-0.512623
C40	C	-0.724444	1.402111	-0.376353
C41	C	-0.779051	1.402156	-0.376362
C42	C	-0.806307	1.470205	-0.444494
C43	C	-0.860898	1.470217	-0.444516
N44	N	-0.888156	1.538269	-0.512635
C45	C	-0.860812	1.606283	-0.580752
C46	C	-0.527822	1.470010	-0.444475
C47	C	-0.473220	1.469966	-0.444476
C48	C	-0.473134	1.606036	-0.580718
C49	C	-0.527737	1.606074	-0.580722
C50	C	-0.555081	1.538062	-0.512595
C51	C	-0.975477	1.606341	-0.580767
C52	C	-1.030082	1.606362	-0.580773
C53	C	-1.030163	1.470296	-0.444527
C54	C	-0.975563	1.470271	-0.444524
C55	C	-0.948221	1.538302	-0.512647
O56	O	-0.889217	1.412386	-0.386641
O57	O	-0.889018	1.664169	-0.638675
C58	C	-0.115541	1.538273	-0.512636
C59	C	-0.057427	1.538348	-0.512656
C60	C	-0.251872	1.538169	-0.790209
C61	C	-0.251854	1.538200	-0.908515
C62	C	-0.251934	1.815717	-0.512572
C63	C	-0.251943	1.934023	-0.512566
C64	C	-0.286735	1.467091	-1.048523
C65	C	-0.239054	1.441095	-0.977727
C66	C	-0.299530	1.564148	-0.977739
C67	C	-0.204082	1.512215	-1.048505
C68	C	-0.264590	1.635313	-1.048522
C69	C	-0.216876	1.609355	-0.977758
C70	C	-0.251918	1.538085	-0.236047
C71	C	-0.251789	1.538261	-0.117742
H72	H	-0.316417	1.105050	-0.643681
N73	N	-0.177729	1.689045	-0.936840
H74	H	-0.187052	1.762164	-0.963736
H75	H	-0.141737	1.669244	-0.962728
H76	H	-0.228465	0.972109	-0.691909
N77	N	-0.325794	1.387344	-1.089687
H78	H	-0.325730	1.388407	-1.169874
H79	H	-0.361723	1.406216	-1.062762
H80	H	-0.953221	1.661739	-0.636238
N81	N	-0.278887	1.115304	-0.306723
H82	H	-0.249211	1.159437	-0.277847
H83	H	-0.285730	1.053493	-0.257543
H84	H	-0.702260	1.346701	-0.320874
H85	H	-0.339937	0.972130	-0.464303
H86	H	-0.228251	1.358993	-0.946630
H87	H	-0.275408	1.717391	-1.079643
H88	H	-1.052271	1.661774	-0.636261
H89	H	-0.163861	1.104994	-0.561093
N90	N	-0.808257	1.747618	-0.722386
H91	H	-0.782642	1.790683	-0.765541
H92	H	-0.830914	1.796932	-0.679142
N93	N	-0.694775	1.747592	-0.722330
H94	H	-0.720335	1.790696	-0.765481
H95	H	-0.672128	1.704223	-0.771557
N96	N	-0.557124	1.679480	-0.654207
H97	H	-0.579769	1.728854	-0.610999
H98	H	-0.579754	1.636146	-0.703494
N99	N	-0.443635	1.679396	-0.654190
H100	H	-0.404909	1.669043	-0.643841
H101	H	-0.453152	1.755429	-0.637681
H102	H	-0.801311	1.346772	-0.320882
N103	N	-0.443823	1.396565	-0.371001
H104	H	-0.453352	1.320513	-0.387475
H105	H	-0.453354	1.413237	-0.294997
H106	H	-0.187320	0.972447	-0.381584
H107	H	-0.339878	1.586070	-0.946655
H108	H	-0.550082	1.414617	-0.389000
N109	N	-0.946162	1.396863	-0.371057
H110	H	-0.971772	1.353778	-0.327912
H111	H	-0.923505	1.440202	-0.321824
N112	N	-1.059662	1.396948	-0.371054
H113	H	-1.098388	1.407306	-0.381398
H114	H	-1.050130	1.413565	-0.295053
H115	H	-0.163723	1.490200	-1.079459
