data_functionalizedCrystal
_audit_creation_method	'MofGen! by Chris Wilmer'
_symmetry_space_group_name_H-M	'P1'
_symmetry_Int_Tables_number	1
_symmetry_cell_setting	triclinic
loop_
_symmetry_equiv_pos_as_xyz
  x,y,z
_cell_length_a	14.853567
_cell_length_b	18.366186
_cell_length_c	19.288865
_cell_angle_alpha	90.011479
_cell_angle_beta	96.614411
_cell_angle_gamma	89.993927
loop_
_atom_site_label
_atom_site_type_symbol
_atom_site_fract_x
_atom_site_fract_y
_atom_site_fract_z
O1	O	1.195855	-0.060508	-0.090685
O2	O	1.695855	0.439492	0.409315
O3	O	0.933334	-0.060522	-0.101488
O4	O	1.433334	0.439478	0.398512
O5	O	1.072180	-0.060500	0.005018
O6	O	1.572180	0.439500	0.505018
O7	O	1.057009	-0.060530	-0.197191
O8	O	1.557009	0.439470	0.302809
O9	O	1.072157	0.060599	0.005024
O10	O	1.572157	0.560599	0.505024
O11	O	0.933310	0.060578	-0.101482
O12	O	1.433310	0.560578	0.398518
O13	O	1.195831	0.060591	-0.090680
O14	O	1.695831	0.560591	0.409320
Zn15	Zn	1.064567	0.079812	-0.096080
Zn16	Zn	1.564567	0.579812	0.403920
Zn17	Zn	1.064598	-0.079742	-0.096087
Zn18	Zn	1.564598	0.420258	0.403913
O19	O	1.056985	0.060570	-0.197186
O20	O	1.556985	0.560570	0.302814
C21	C	0.899736	0.000027	-0.100996
C22	C	1.399736	0.500027	0.399004
C23	C	0.799661	0.000022	-0.099529
C24	C	1.299661	0.500022	0.400471
N25	N	1.064553	0.188703	-0.096075
N26	N	1.564553	0.688703	0.403925
N27	N	1.064620	-0.188633	-0.096087
N28	N	1.564620	0.311367	0.403913
C29	C	0.387522	0.000048	-0.030061
C30	C	0.887522	0.500048	0.469939
C31	C	0.365522	0.000029	-0.156593
C32	C	0.865522	0.500029	0.343407
C33	C	0.459547	0.000027	-0.157972
C34	C	0.959547	0.500027	0.342028
C35	C	0.517565	0.000034	-0.095395
C36	C	1.017565	0.500034	0.404605
C37	C	0.481557	0.000044	-0.031439
C38	C	0.981557	0.500044	0.468561
C39	C	0.495563	0.000009	-0.221927
C40	C	0.995563	0.500009	0.278073
C41	C	0.589594	0.000006	-0.223309
C42	C	1.089594	0.500006	0.276691
C43	C	0.647614	0.000019	-0.160731
C44	C	1.147614	0.500019	0.339269
C45	C	0.611600	0.000029	-0.096772
C46	C	1.111600	0.500029	0.403228
C47	C	0.669618	0.000037	-0.034195
C48	C	1.169618	0.500037	0.465805
C49	C	0.633606	0.000052	0.029764
C50	C	1.133606	0.500052	0.529764
C51	C	0.539577	0.000056	0.031139
C52	C	1.039577	0.500056	0.531139
C53	C	0.741643	0.000015	-0.162106
C54	C	1.241643	0.500015	0.337894
C55	C	0.763653	0.000032	-0.035572
C56	C	1.263653	0.500032	0.464428
C57	C	1.229429	0.000041	-0.091172
C58	C	1.729429	0.500041	0.408828
C59	C	1.329504	0.000041	-0.092639
C60	C	1.829504	0.500041	0.407361
C61	C	1.071680	0.000052	0.030899
C62	C	1.571680	0.500052	0.530899
C63	C	1.070215	0.000058	0.108008
C64	C	1.570215	0.500058	0.608008
C65	C	1.126054	0.226813	-0.048937
C66	C	1.626054	0.726813	0.451063
C67	C	1.126059	0.303041	-0.048934
C68	C	1.626059	0.803041	0.451066
C69	C	1.064573	0.341155	-0.096081
C70	C	1.564573	0.841155	0.403919
C71	C	1.003060	0.303036	-0.143222
C72	C	1.503060	0.803036	0.356778
C73	C	1.003050	0.226810	-0.143219
C74	C	1.503050	0.726810	0.356781
C75	C	1.052504	0.461906	-0.159328
C76	C	1.552504	0.961906	0.340672
C77	C	1.052520	0.538131	-0.159332
C78	C	1.552520	1.038131	0.340668
C79	C	1.064598	0.576263	-0.096090
C80	C	1.564598	1.076263	0.403910
C81	C	1.076679	0.538161	-0.032841
C82	C	1.576679	1.038161	0.467159
C83	C	1.076669	0.461934	-0.032838
C84	C	1.576669	0.961934	0.467162
C85	C	1.064576	0.423810	-0.096089
C86	C	1.564576	0.923810	0.403911
C87	C	1.126109	0.697028	-0.048945
C88	C	1.626109	1.197028	0.451055
C89	C	1.126108	0.773257	-0.048941
C90	C	1.626108	1.273257	0.451059
C91	C	1.003113	0.773251	-0.143234
C92	C	1.503113	1.273251	0.356766
C93	C	1.003109	0.697024	-0.143232
C94	C	1.503109	1.197024	0.356768
C95	C	1.064612	0.658916	-0.096088
C96	C	1.564612	1.158916	0.403912
C97	C	1.057485	0.000016	-0.223067
C98	C	1.557485	0.500016	0.276933
C99	C	1.058951	0.000005	-0.300175
C100	C	1.558951	0.500005	0.199825
C101	C	1.151683	0.000066	0.152429
C102	C	1.651683	0.500066	0.652429
C103	C	1.150307	0.000054	0.224881
C104	C	1.650307	0.500054	0.724881
C105	C	1.067457	0.000050	0.252908
C106	C	1.567457	0.500050	0.752908
C107	C	0.985977	0.000038	0.208477
C108	C	1.485977	0.500038	0.708477
C109	C	0.987356	0.000042	0.136027
C110	C	1.487356	0.500042	0.636027
C111	C	1.002319	0.042465	0.361417
C112	C	1.502319	0.542465	0.861417
C113	C	1.000943	0.042465	0.433866
C114	C	1.500943	0.542465	0.933866
C115	C	1.063200	0.000033	0.476368
C116	C	1.563200	0.500033	0.976368
C117	C	1.126848	-0.042390	0.446413
C118	C	1.626848	0.457610	0.946413
C119	C	1.128227	-0.042385	0.373963
C120	C	1.628227	0.457615	0.873963
C121	C	1.065952	0.000044	0.331467
C122	C	1.565952	0.500044	0.831467
C123	C	1.143181	0.000027	0.599350
C124	C	1.643181	0.500027	1.099350
C125	C	1.141801	0.000011	0.671803
C126	C	1.641801	0.500011	1.171803
C127	C	0.977470	0.000002	0.655397
C128	C	1.477470	0.500002	1.155397
C129	C	0.978852	0.000011	0.582946
C130	C	1.478852	0.500011	1.082946
C131	C	1.061710	0.000027	0.554927
C132	C	1.561710	0.500027	1.054927
H133	H	0.680856	0.000053	0.080715
H134	H	1.180856	0.500053	0.580715
H135	H	0.510247	0.000086	0.083212
H136	H	1.010247	0.500086	0.583212
C137	C	1.039224	0.419968	-0.228899
C138	C	1.539224	0.919968	0.271101
H139	H	1.032047	0.453576	-0.266566
H140	H	1.532047	0.953576	0.233434
H141	H	0.986725	0.390238	-0.230234
H142	H	1.486725	0.890238	0.269766
H143	H	1.090725	0.390226	-0.232820
H144	H	1.590725	0.890226	0.267180
H145	H	1.216650	0.000058	0.261055
H146	H	1.716650	0.500058	0.761055
C147	C	0.347914	0.000063	0.040289
C148	C	0.847914	0.500063	0.540289
H149	H	0.283604	0.000061	0.032150
H150	H	0.783604	0.500061	0.532150
H151	H	0.367847	0.042294	0.066061
H152	H	0.867847	0.542294	0.566061
H153	H	0.367846	-0.042171	0.066053
H154	H	0.867846	0.457829	0.566053
C155	C	0.933831	0.089142	0.314671
C156	C	1.433831	0.589142	0.814671
H157	H	0.895738	0.114413	0.342887
H158	H	1.395738	0.614413	0.842887
H159	H	0.897973	0.058556	0.282767
H160	H	1.397973	0.558556	0.782767
H161	H	0.965536	0.123264	0.289529
H162	H	1.465536	0.623264	0.789529
H163	H	0.810886	0.000041	0.015386
H164	H	1.310886	0.500041	0.515386
H165	H	0.770960	0.000003	-0.214181
H166	H	1.270960	0.500003	0.285819
H167	H	0.912511	0.000008	0.546777
H168	H	1.412511	0.500008	1.046777
C169	C	0.301706	0.000023	-0.225422
C170	C	0.801706	0.500023	0.274578
H171	H	0.240548	0.000031	-0.215442
H172	H	0.740548	0.500031	0.284558
H173	H	0.312597	-0.042209	-0.251648
H174	H	0.812597	0.457791	0.248352
H175	H	0.312592	0.042256	-0.251636
H176	H	0.812592	0.542256	0.248364
H177	H	1.219153	0.000076	0.129621
H178	H	1.719153	0.500076	0.629621
C179	C	0.431746	0.000005	-0.290755
C180	C	0.931746	0.500005	0.209245
H181	H	0.370588	0.000020	-0.280773
H182	H	0.870588	0.500020	0.219227
H183	H	0.442629	-0.042230	-0.316981
H184	H	0.942629	0.457770	0.183019
H185	H	0.442636	0.042236	-0.316972
H186	H	0.942636	0.542236	0.183028
C187	C	0.629200	-0.000001	-0.293660
C188	C	1.129200	0.499999	0.206340
H189	H	0.581178	0.000001	-0.330730
H190	H	1.081178	0.500001	0.169270
H191	H	0.665431	-0.042230	-0.296834
H192	H	1.165431	0.457770	0.203166
H193	H	0.665414	0.042236	-0.296822
H194	H	1.165414	0.542236	0.203178
H195	H	1.176131	0.195788	-0.010548
H196	H	1.676131	0.695788	0.489452
C197	C	1.198224	-0.089054	0.341013
C198	C	1.698224	0.410946	0.841013
H199	H	1.235103	-0.114331	0.376697
H200	H	1.735103	0.385669	0.876697
H201	H	1.235157	-0.058466	0.316388
H202	H	1.735157	0.441534	0.816388
H203	H	1.167588	-0.123170	0.309634
H204	H	1.667588	0.376830	0.809634
H205	H	1.176143	0.334075	-0.010548
H206	H	1.676143	0.834075	0.489452
C207	C	1.234320	0.000037	0.568526
C208	C	1.734320	0.500037	1.068526
H209	H	1.282644	0.000029	0.605361
H210	H	1.782644	0.500029	1.105361
H211	H	1.238267	0.042270	0.540615
H212	H	1.738267	0.542270	1.040615
H213	H	1.238280	-0.042196	0.540593
H214	H	1.738280	0.457804	1.040593
C215	C	1.195329	-0.089072	0.493155
C216	C	1.695329	0.410928	0.993155
H217	H	1.185387	-0.083008	0.540593
H218	H	1.685387	0.416992	1.040593
H219	H	1.255201	-0.074154	0.487242
H220	H	1.755201	0.425846	0.987242
H221	H	1.187632	-0.138859	0.480473
H222	H	1.687632	0.361141	0.980473
H223	H	1.086503	0.430914	0.018661
H224	H	1.586503	0.930914	0.518661
C225	C	0.935429	0.344959	-0.195084
C226	C	1.435429	0.844959	0.304916
H227	H	0.944249	0.395816	-0.188340
H228	H	1.444249	0.895816	0.311660
H229	H	0.875293	0.332482	-0.187456
H230	H	1.375293	0.832482	0.312544
H231	H	0.945032	0.332451	-0.241456
H232	H	1.445032	0.832451	0.258544
H233	H	0.952967	0.195780	-0.181605
H234	H	1.452967	0.695780	0.318395
H235	H	0.953033	0.665993	-0.181619
H236	H	1.453033	1.165993	0.318381
C237	C	1.089958	0.580095	0.036729
C238	C	1.589958	1.080095	0.536729
H239	H	1.088222	0.630949	0.027672
H240	H	1.588222	1.130949	0.527672
H241	H	1.146914	0.567603	0.061421
H242	H	1.646914	1.067603	0.561421
H243	H	1.042914	0.567613	0.064009
H244	H	1.542914	1.067613	0.564009
H245	H	1.176185	0.666000	-0.010555
H246	H	1.676185	1.166000	0.489445
C247	C	1.039239	0.580037	-0.228901
C248	C	1.539239	1.080037	0.271099
H249	H	1.032029	0.546411	-0.266565
H250	H	1.532029	1.046411	0.233435
H251	H	1.090738	0.609760	-0.232832
H252	H	1.590738	1.109760	0.267168
H253	H	0.986741	0.609783	-0.230231
H254	H	1.486741	1.109783	0.269769
C255	C	1.193765	0.815178	0.002912
C256	C	1.693765	1.315178	0.502912
H257	H	1.230395	0.781563	0.030983
H258	H	1.730395	1.281563	0.530983
H259	H	1.161466	0.844927	0.031876
H260	H	1.661466	1.344927	0.531876
H261	H	1.231189	0.844901	-0.022137
H262	H	1.731189	1.344901	0.477863
H263	H	0.953046	0.804284	-0.181619
H264	H	1.453046	1.304284	0.318381
H265	H	1.208146	0.000013	0.707971
H266	H	1.708146	0.500013	1.207971
C267	C	0.886336	-0.000006	0.686218
C268	C	1.386336	0.499994	1.186218
H269	H	0.897182	-0.000004	0.735730
H270	H	1.397182	0.499996	1.235730
H271	H	0.852812	-0.042237	0.670964
H272	H	1.352812	0.457763	1.170964
H273	H	0.852796	0.042229	0.670986
H274	H	1.352796	0.542229	1.170986
H275	H	0.949114	0.077004	0.458249
H276	H	1.449114	0.577004	0.958249
C277	C	0.894845	0.000035	0.239304
C278	C	1.394845	0.500035	0.739304
H279	H	0.905691	0.000041	0.288815
H280	H	1.405691	0.500041	0.788815
H281	H	0.861319	-0.042196	0.224053
H282	H	1.361319	0.457804	0.724053
H283	H	0.861306	0.042269	0.224068
H284	H	1.361306	0.542269	0.724068
H285	H	0.921013	0.000036	0.099858
H286	H	1.421013	0.500036	0.599858
