data_functionalizedCrystal
_audit_creation_method	'MofGen! by Chris Wilmer'
_symmetry_space_group_name_H-M	'P1'
_symmetry_Int_Tables_number	1
_symmetry_cell_setting	triclinic
loop_
_symmetry_equiv_pos_as_xyz
  x,y,z
_cell_length_a	19.805407
_cell_length_b	12.594516
_cell_length_c	19.805399
_cell_angle_alpha	89.977527
_cell_angle_beta	89.979591
_cell_angle_gamma	90.013756
loop_
_atom_site_label
_atom_site_type_symbol
_atom_site_fract_x
_atom_site_fract_y
_atom_site_fract_z
Zn1	Zn	1.034804	-0.423712	-0.382759
Zn2	Zn	1.034748	-0.601705	-0.269581
Zn3	Zn	0.921619	-0.423747	-0.269582
Zn4	Zn	0.921611	-0.601655	-0.382726
O5	O	0.978196	-0.512705	-0.326162
O6	O	1.129513	-0.447329	-0.367759
O7	O	1.019721	-0.578135	-0.174864
O8	O	0.936660	-0.274797	-0.284609
O9	O	1.129472	-0.578100	-0.284607
O10	O	1.019817	-0.274771	-0.367760
O11	O	0.936605	-0.447390	-0.174865
O12	O	0.826901	-0.447340	-0.284577
O13	O	0.936647	-0.578014	-0.477447
O14	O	0.826896	-0.578048	-0.367704
O15	O	1.019809	-0.447280	-0.477471
O16	O	1.019713	-0.750644	-0.284575
O17	O	0.936592	-0.750607	-0.367703
C18	C	0.802340	-0.512694	-0.326137
C19	C	0.727108	-0.512714	-0.326143
C20	C	0.978164	-0.789246	-0.326150
C21	C	0.978213	-0.907551	-0.326168
C22	C	0.265342	-0.444739	-0.369551
C23	C	0.336030	-0.444741	-0.369546
C24	C	0.371346	-0.512721	-0.326184
C25	C	0.335970	-0.580710	-0.282828
C26	C	0.265283	-0.580713	-0.282837
C27	C	0.621043	-0.580702	-0.282792
C28	C	0.691735	-0.580692	-0.282785
C29	C	0.691791	-0.444731	-0.369502
C30	C	0.621103	-0.444733	-0.369511
C31	C	0.585733	-0.512726	-0.326158
C32	C	0.509085	-0.512725	-0.326164
C33	C	0.447993	-0.512718	-0.326173
C34	C	1.023475	-0.976786	-0.281003
C35	C	1.040013	-1.047490	-0.342782
C36	C	0.961760	-1.047645	-0.264428
C37	C	0.994782	-0.976697	-0.387979
C38	C	0.916500	-0.976846	-0.309583
C39	C	0.933015	-1.047519	-0.371405
C40	C	1.154738	-0.512716	-0.326187
C41	C	1.229970	-0.512721	-0.326197
C42	C	0.978234	-0.512638	-0.502705
C43	C	0.978250	-0.512609	-0.577937
C44	C	0.978246	-0.235084	-0.326188
C45	C	0.978267	-0.116778	-0.326200
C46	C	1.021553	-0.444532	-0.613294
C47	C	1.021560	-0.444502	-0.683983
C48	C	0.978267	-0.512553	-0.719312
C49	C	0.934958	-0.580633	-0.683949
C50	C	0.934948	-0.580658	-0.613262
C51	C	0.934996	-0.580534	-0.969023
C52	C	0.935011	-0.580506	-1.039715
C53	C	1.021608	-0.444378	-1.039744
C54	C	1.021599	-0.444402	-0.969056
C55	C	0.978288	-0.512477	-0.933700
C56	C	0.978280	-0.512509	-0.857051
C57	C	0.978277	-0.512528	-0.795959
C58	C	0.978197	-0.512695	-0.150306
C59	C	0.978312	-0.512423	-0.075074
H60	H	0.236593	-0.389376	-0.404858
H61	H	1.061758	-0.945727	-0.242843
H62	H	1.008669	-0.945666	-0.440250
H63	H	0.947821	-1.078808	-0.212202
Br64	Br	0.829497	-0.925088	-0.286147
H65	H	0.899705	-0.636038	-0.712720
H66	H	1.092225	-1.078524	-0.356827
Br67	Br	0.573178	-0.352468	-0.428359
H68	H	0.899753	-0.635924	-1.068478
H69	H	1.056810	-0.389120	-0.584534
H70	H	0.720597	-0.389370	-0.404804
Br71	Br	0.383897	-0.672977	-0.223982
Br72	Br	1.080364	-0.352157	-0.731966
Br73	Br	0.217277	-0.672991	-0.224005
Br74	Br	1.080360	-0.352049	-0.921113
H75	H	1.056872	-0.388944	-1.068539
Br76	Br	0.869255	-1.098963	-0.435157
H77	H	0.899740	-0.635980	-0.940244
H78	H	0.899679	-0.636082	-0.584475
H79	H	0.720487	-0.636054	-0.247473
Br80	Br	0.384032	-0.352485	-0.428392
Br81	Br	0.573049	-0.672946	-0.223935
