data_functionalizedCrystal
_audit_creation_method	'MofGen! by Chris Wilmer'
_symmetry_space_group_name_H-M	'P1'
_symmetry_Int_Tables_number	1
_symmetry_cell_setting	triclinic
loop_
_symmetry_equiv_pos_as_xyz
  x,y,z
_cell_length_a	17.699097
_cell_length_b	16.776229
_cell_length_c	17.699083
_cell_angle_alpha	89.992455
_cell_angle_beta	83.285722
_cell_angle_gamma	89.989262
loop_
_atom_site_label
_atom_site_type_symbol
_atom_site_fract_x
_atom_site_fract_y
_atom_site_fract_z
O1	O	1.004072	-0.066356	0.095761
O2	O	0.783695	-0.066343	0.108203
O3	O	0.900110	-0.066343	-0.008207
O4	O	0.887657	-0.066356	0.212171
O5	O	0.900094	0.066234	-0.008214
O6	O	0.783680	0.066233	0.108196
O7	O	1.004057	0.066221	0.095754
Zn8	Zn	0.893866	0.087276	0.101974
Zn9	Zn	0.893886	-0.087399	0.101983
O10	O	0.887642	0.066220	0.212164
C11	C	0.755491	-0.000053	0.107752
C12	C	0.671473	-0.000048	0.106409
C13	C	0.155763	-0.072347	0.098184
C14	C	0.234707	-0.072343	0.099440
C15	C	0.274165	-0.000073	0.100065
C16	C	0.234675	0.072199	0.099427
C17	C	0.155733	0.072194	0.098165
C18	C	0.553039	0.072219	0.104514
C19	C	0.631987	0.072219	0.105778
C20	C	0.632013	-0.072318	0.105789
C21	C	0.553071	-0.072323	0.104527
C22	C	0.513589	-0.000052	0.103885
C23	C	0.427989	-0.000057	0.102521
C24	C	0.359763	-0.000067	0.101434
C25	C	0.899656	-0.000055	-0.036408
C26	C	0.898317	-0.000054	-0.120426
C27	C	1.032261	-0.000071	0.096205
C28	C	1.116279	-0.000081	0.097547
N29	N	0.893857	0.206488	0.101967
N30	N	0.893900	-0.206610	0.101984
C31	C	0.945422	0.248205	0.050441
C32	C	0.945426	0.331657	0.050441
C33	C	0.893869	0.373390	0.101970
C34	C	0.842299	0.331667	0.153497
C35	C	0.842292	0.248217	0.153494
C36	C	0.842327	0.668215	0.153512
C37	C	0.842339	0.751671	0.153513
C38	C	0.945460	0.751655	0.050459
C39	C	0.945453	0.668204	0.050456
C40	C	0.893881	0.626488	0.101980
C41	C	0.893876	0.536000	0.101979
C42	C	0.893877	0.463877	0.101975
C43	C	0.966650	-0.000057	-0.169044
C44	C	0.965388	-0.000064	-0.247987
C45	C	0.895792	-0.000062	-0.278311
C46	C	0.827454	-0.000062	-0.229687
C47	C	0.828717	-0.000061	-0.150745
C48	C	0.822359	-0.000068	-0.548050
C49	C	0.821101	-0.000067	-0.626998
C50	C	0.959030	-0.000071	-0.645292
C51	C	0.960293	-0.000070	-0.566350
C52	C	0.891955	-0.000074	-0.517733
C53	C	0.893325	-0.000068	-0.432134
C54	C	0.894422	-0.000063	-0.363909
C55	C	0.888096	-0.000070	0.240364
C56	C	0.889435	-0.000076	0.324382
H57	H	0.123585	0.131040	0.097655
H58	H	1.021032	-0.000065	-0.287569
F59	F	1.000305	0.376056	-0.004399
F60	F	1.000346	0.796058	-0.004381
H61	H	1.016965	-0.000067	-0.541665
F62	F	1.031762	-0.000070	-0.697040
H63	H	0.773073	-0.000059	-0.111161
F64	F	1.000300	0.203797	-0.004400
F65	F	0.113776	-0.149269	0.097523
F66	F	0.787408	0.203819	0.208332
F67	F	1.000329	0.623792	-0.004385
H68	H	0.764424	-0.000064	-0.651685
H69	H	0.766714	-0.000071	-0.508475
H70	H	0.520904	0.131067	0.103980
F71	F	0.276727	-0.149259	0.100114
F72	F	0.276671	0.149115	0.100090
F73	F	0.787462	0.796085	0.208359
F74	F	0.753384	-0.000069	-0.261962
H75	H	0.520948	-0.131173	0.104022
F76	F	1.040725	-0.000051	-0.136778
H77	H	0.800336	0.634256	0.195466
F78	F	0.787424	0.376084	0.208335
F79	F	0.674040	-0.149236	0.106468
H80	H	0.664111	0.131074	0.106287
