data_functionalizedCrystal
_audit_creation_method	'MofGen! by Chris Wilmer'
_symmetry_space_group_name_H-M	'P1'
_symmetry_Int_Tables_number	1
_symmetry_cell_setting	triclinic
loop_
_symmetry_equiv_pos_as_xyz
  x,y,z
_cell_length_a	10.967926
_cell_length_b	17.019294
_cell_length_c	10.065875
_cell_angle_alpha	94.957055
_cell_angle_beta	93.120479
_cell_angle_gamma	84.884424
loop_
_atom_site_label
_atom_site_type_symbol
_atom_site_fract_x
_atom_site_fract_y
_atom_site_fract_z
O1	O	1.615134	0.135993	0.250397
O2	O	1.265126	0.138220	0.167813
O3	O	1.447829	0.023860	0.224231
O4	O	1.432431	0.250352	0.193978
O5	O	1.412992	0.045759	0.440451
O6	O	1.230289	0.160118	0.384033
O7	O	1.580296	0.157891	0.466617
Zn8	Zn	1.399761	0.162481	0.459654
Zn9	Zn	1.445661	0.133629	0.174775
O10	O	1.397594	0.272250	0.410198
C11	C	1.202884	0.147352	0.265594
C12	C	1.069325	0.141930	0.234818
C13	C	0.991732	0.150856	0.333105
C14	C	0.853691	0.145252	0.301299
C15	C	1.429139	0.005732	0.335458
C16	C	1.425338	-0.080910	0.344743
C17	C	1.442545	-0.133547	0.231245
C18	C	1.438965	-0.214956	0.239971
C19	C	1.418187	-0.243727	0.362199
C20	C	1.400976	-0.191083	0.475705
C21	C	1.404547	-0.109676	0.466975
C22	C	1.406446	-0.488929	0.394451
C23	C	1.402879	-0.570343	0.403173
C24	C	1.440867	-0.594210	0.167438
C25	C	1.444444	-0.512800	0.158721
C26	C	1.427226	-0.460163	0.272225
C27	C	1.414531	-0.326940	0.371122
C28	C	1.430873	-0.376952	0.263298
C29	C	1.642539	0.148758	0.368833
C30	C	1.776100	0.154180	0.399600
C31	C	1.416284	0.290378	0.298968
C32	C	1.420086	0.377020	0.289675
N33	N	1.368445	0.182172	0.654079
N34	N	1.476987	0.113933	-0.019647
C35	C	1.434758	0.140475	0.742357
C36	C	1.410665	0.155636	0.892075
H37	H	1.033558	0.130136	0.127124
H38	H	1.454883	-0.637075	0.075029
H39	H	1.509363	0.093550	0.707098
H40	H	1.336046	0.202558	0.927329
C41	C	1.267634	0.245550	0.701692
H42	H	1.229144	0.269737	0.626890
H43	H	1.303071	0.284555	0.761188
H44	H	1.208470	0.221448	0.746350
H45	H	1.027500	0.162643	0.440800
C46	C	1.465401	-0.101907	0.096793
H47	H	1.475124	-0.144917	0.030446
H48	H	1.537587	-0.074553	0.105407
H49	H	1.397570	-0.066739	0.071563
C50	C	1.577814	0.050560	0.932745
H51	H	1.580800	0.048694	0.838367
H52	H	1.560142	0.000394	0.957825
H53	H	1.654721	0.063514	0.972661
H54	H	0.817931	0.133458	0.193598
H55	H	0.811859	0.165969	0.507303
H56	H	1.461365	-0.489382	0.059191
H57	H	1.452982	-0.257811	0.147550
C58	C	1.380009	-0.601989	0.537626
H59	H	1.370253	-0.558980	0.603973
H60	H	1.447828	-0.637156	0.562863
H61	H	1.307816	-0.629343	0.528988
C62	C	1.387528	-0.431040	0.519306
H63	H	1.374659	-0.459838	0.593351
H64	H	1.318128	-0.394876	0.503890
H65	H	1.458147	-0.402698	0.537723
H66	H	1.384050	-0.214514	0.575223
H67	H	1.390518	-0.066817	0.559393
H68	H	1.447783	-0.353522	0.163779
H69	H	1.397618	-0.350375	0.470642
