data_functionalizedCrystal
_audit_creation_method	'MofGen! by Chris Wilmer'
_symmetry_space_group_name_H-M	'P1'
_symmetry_Int_Tables_number	1
_symmetry_cell_setting	triclinic
loop_
_symmetry_equiv_pos_as_xyz
  x,y,z
_cell_length_a	12.759400
_cell_length_b	19.121385
_cell_length_c	12.759393
_cell_angle_alpha	87.590494
_cell_angle_beta	89.970184
_cell_angle_gamma	87.542645
loop_
_atom_site_label
_atom_site_type_symbol
_atom_site_fract_x
_atom_site_fract_y
_atom_site_fract_z
Zn1	Zn	-0.349672	-1.073770	-0.525831
Zn2	Zn	0.150328	-0.573770	-0.025831
Zn3	Zn	-0.525390	-1.073699	-0.350156
Zn4	Zn	-0.025390	-0.573699	0.149844
Zn5	Zn	-0.357219	-0.956317	-0.357625
Zn6	Zn	0.142781	-0.456317	0.142375
Zn7	Zn	-0.532808	-0.956311	-0.533248
Zn8	Zn	-0.032808	-0.456311	-0.033248
O9	O	-0.441272	-1.015024	-0.441715
O10	O	0.058728	-0.515024	0.058285
O11	O	-0.366718	-1.172043	-0.496297
O12	O	0.133282	-0.672043	0.003703
O13	O	-0.503136	-1.058100	-0.204127
O14	O	-0.003136	-0.558100	0.295873
O15	O	-0.209195	-0.971930	-0.379960
O16	O	0.290805	-0.471930	0.120040
O17	O	-0.495817	-1.171990	-0.367230
O18	O	0.004183	-0.671990	0.132770
O19	O	-0.203650	-1.058222	-0.503540
O20	O	0.296350	-0.558222	-0.003540
O21	O	-0.379582	-0.971860	-0.209615
O22	O	0.120418	-0.471860	0.290385
O23	O	-0.386775	-0.858034	-0.387152
O24	O	0.113225	-0.358034	0.112848
O25	O	-0.508460	-0.971919	-0.679283
O26	O	-0.008460	-0.471919	-0.179283
O27	O	-0.515779	-0.858029	-0.516181
O28	O	-0.015779	-0.358029	-0.016181
O29	O	-0.373911	-1.058216	-0.673834
O30	O	0.126089	-0.558216	-0.173834
O31	O	-0.673397	-1.058094	-0.374421
O32	O	-0.173397	-0.558094	0.125579
O33	O	-0.678847	-0.971850	-0.508938
O34	O	-0.178847	-0.471850	-0.008938
C35	C	-0.452902	-0.832548	-0.453282
C36	C	0.047098	-0.332548	0.046718
C37	C	-0.457902	-0.754484	-0.458256
C38	C	0.042098	-0.254484	0.041744
C39	C	-0.489523	-0.312970	-0.489832
C40	C	0.010477	0.187030	0.010168
C41	C	-0.484832	-0.386320	-0.485139
C42	C	0.015168	0.113680	0.014861
C43	C	-0.415214	-0.422974	-0.415726
C44	C	0.084786	0.077026	0.084274
C45	C	-0.350289	-0.386275	-0.350993
C46	C	0.149711	0.113725	0.149007
C47	C	-0.354985	-0.312927	-0.355681
C48	C	0.145015	0.187073	0.144319
C49	C	-0.397673	-0.644437	-0.398211
C50	C	0.102327	-0.144437	0.101789
C51	C	-0.392980	-0.717790	-0.393530
C52	C	0.107020	-0.217790	0.106470
C53	C	-0.527525	-0.717830	-0.527675
C54	C	-0.027525	-0.217830	-0.027675
C55	C	-0.532211	-0.644481	-0.532362
C56	C	-0.032211	-0.144481	-0.032362
C57	C	-0.467290	-0.607788	-0.467625
C58	C	0.032710	-0.107788	0.032375
C59	C	-0.410415	-0.497949	-0.410930
C60	C	0.089585	0.002051	0.089070
C61	C	-0.472094	-0.532814	-0.472417
C62	C	0.027906	-0.032814	0.027583
C63	C	-0.714242	-1.014983	-0.441696
C64	C	-0.214242	-0.514983	0.058304
C65	C	-0.831016	-1.015029	-0.441719
C66	C	-0.331016	-0.515029	0.058281
C67	C	-0.992730	-1.060030	-0.371778
C68	C	-0.492730	-0.560030	0.128222
C69	C	-0.883009	-1.059987	-0.371747
C70	C	-0.383009	-0.559987	0.128253
C71	C	-0.888750	-0.970105	-0.511717
C72	C	-0.388750	-0.470105	-0.011717
C73	C	-0.998470	-0.970144	-0.511742
C74	C	-0.498470	-0.470144	-0.011742
C75	C	-0.167235	-1.015085	-0.441756
C76	C	0.332765	-0.515085	0.058244
C77	C	-0.050457	-1.015110	-0.441773
C78	C	0.449543	-0.515110	0.058227
C79	C	-0.441171	-1.015075	-0.715745
C80	C	0.058829	-0.515075	-0.215745
C81	C	-0.441128	-1.015097	-0.832520
C82	C	0.058872	-0.515097	-0.332520
C83	C	-0.429593	-0.198212	-0.430091
C84	C	0.070407	0.301788	0.069909
C85	C	-0.424600	-0.276276	-0.425107
C86	C	0.075400	0.223724	0.074893
C87	C	-0.505384	-1.060020	-0.994259
C88	C	-0.005384	-0.560020	-0.494259
C89	C	-0.505434	-1.060003	-0.884536
C90	C	-0.005434	-0.560003	-0.384536
C91	C	-0.376775	-0.970199	-0.890234
C92	C	0.123225	-0.470199	-0.390234
C93	C	-0.376730	-0.970213	-0.999955
C94	C	0.123270	-0.470213	-0.499955
C95	C	-0.441295	-1.015014	-0.168748
C96	C	0.058705	-0.515014	0.331252
C97	C	-0.441033	-1.015128	-0.051965
C98	C	0.058967	-0.515128	0.448035
H99	H	-0.336274	-0.747632	-0.337013
H100	H	0.163726	-0.247632	0.162987
N101	N	-1.060733	-0.921687	-0.587239
N102	N	-0.560733	-0.421687	-0.087239
H103	H	-1.040879	-0.932559	-0.661627
H104	H	-0.540879	-0.432559	-0.161627
H105	H	-1.138108	-0.928553	-0.576544
H106	H	-0.638108	-0.428553	-0.076544
N107	N	-0.574831	-1.108430	-0.822296
N108	N	-0.074831	-0.608430	-0.322296
H109	H	-0.565104	-1.101605	-0.744896
H110	H	-0.065104	-0.601605	-0.244896
H111	H	-0.650556	-1.097488	-0.842158
H112	H	-0.150556	-0.597488	-0.342158
H113	H	-0.324421	-0.933632	-0.847874
H114	H	0.175579	-0.433632	-0.347874
H115	H	-0.528781	-0.502967	-0.528929
H116	H	-0.028781	-0.002967	-0.028929
N117	N	-0.820745	-1.108442	-0.296262
N118	N	-0.320745	-0.608442	0.203738
H119	H	-0.777116	-1.079905	-0.249331
H120	H	-0.277116	-0.579905	0.250669
H121	H	-0.870397	-1.136923	-0.252017
H122	H	-0.370397	-0.636923	0.247983
H123	H	-0.324327	-0.933653	-1.046941
H124	H	0.175673	-0.433653	-0.546941
H125	H	-0.546208	-0.283132	-0.546362
H126	H	-0.046208	0.216868	-0.046362
N127	N	-0.284971	-0.273349	-0.285859
N128	N	0.215029	0.226651	0.214141
H129	H	-0.298517	-0.221321	-0.299352
H130	H	0.201483	0.278679	0.200648
H131	H	-0.300430	-0.286144	-0.209985
H132	H	0.199570	0.213856	0.290015
H133	H	-0.580381	-0.747713	-0.580379
H134	H	-0.080381	-0.247713	-0.080379
H135	H	-0.557744	-1.096592	-1.036602
H136	H	-0.057744	-0.596592	-0.536602
N137	N	-0.554853	-0.425888	-0.554966
N138	N	-0.054853	0.074112	-0.054966
H139	H	-0.510264	-0.456345	-0.601779
H140	H	-0.010264	0.043655	-0.101779
H141	H	-0.601540	-0.456257	-0.510180
H142	H	-0.101540	0.043743	-0.010180
N143	N	-0.607318	-0.604948	-0.607210
N144	N	-0.107318	-0.104948	-0.107210
H145	H	-0.647743	-0.639324	-0.647496
H146	H	-0.147743	-0.139324	-0.147496
H147	H	-0.657826	-0.574500	-0.566283
H148	H	-0.157826	-0.074500	-0.066283
N149	N	-0.832669	-0.921612	-0.587177
N150	N	-0.332669	-0.421612	-0.087177
H151	H	-0.785255	-0.950121	-0.634082
H152	H	-0.285255	-0.450121	-0.134082
H153	H	-0.885952	-0.893167	-0.631452
H154	H	-0.385952	-0.393167	-0.131452
N155	N	-0.327654	-0.604866	-0.328392
N156	N	0.172346	-0.104866	0.171608
H157	H	-0.282837	-0.639219	-0.283713
H158	H	0.217163	-0.139219	0.216287
H159	H	-0.281033	-0.574454	-0.373184
H160	H	0.218967	-0.074454	0.126816
H161	H	-0.293608	-0.416124	-0.294471
H162	H	0.206392	0.083876	0.205529
N163	N	-0.335323	-0.537489	-0.336074
N164	N	0.164677	-0.037489	0.163926
H165	H	-0.261092	-0.524741	-0.353342
H166	H	0.238908	-0.024741	0.146658
H167	H	-0.352449	-0.524678	-0.261823
H168	H	0.147551	-0.024678	0.238177
N169	N	-1.048805	-1.108525	-0.296314
N170	N	-0.548805	-0.608525	0.203686
H171	H	-0.995582	-1.136973	-0.251966
H172	H	-0.495582	-0.636973	0.248034
H173	H	-1.096224	-1.079969	-0.249481
H174	H	-0.596224	-0.579969	0.250519
