data_functionalizedCrystal
_audit_creation_method	'MofGen! by Chris Wilmer'
_symmetry_space_group_name_H-M	'P1'
_symmetry_Int_Tables_number	1
_symmetry_cell_setting	triclinic
loop_
_symmetry_equiv_pos_as_xyz
  x,y,z
_cell_length_a	13.033748
_cell_length_b	13.032721
_cell_length_c	13.034296
_cell_angle_alpha	90.866346
_cell_angle_beta	90.869047
_cell_angle_gamma	103.361838
loop_
_atom_site_label
_atom_site_type_symbol
_atom_site_fract_x
_atom_site_fract_y
_atom_site_fract_z
Zn1	Zn	1.628951	-0.157461	-0.404267
Zn2	Zn	1.585304	-0.356083	-0.260267
Zn3	Zn	1.430360	-0.201062	-0.260255
Zn4	Zn	1.435872	-0.350502	-0.453214
O5	O	1.520122	-0.266277	-0.344501
O6	O	1.768810	-0.167897	-0.364686
O7	O	1.544177	-0.356102	-0.119247
O8	O	1.472663	-0.049614	-0.258870
O9	O	1.736743	-0.313824	-0.258890
O10	O	1.618567	-0.017580	-0.364675
O11	O	1.430340	-0.242209	-0.119238
O12	O	1.285442	-0.236797	-0.306331
O13	O	1.482057	-0.304311	-0.587740
O14	O	1.289492	-0.346590	-0.448097
O15	O	1.623912	-0.162485	-0.551779
O16	O	1.549522	-0.501007	-0.306351
O17	O	1.439734	-0.496906	-0.448108
C18	C	1.249702	-0.295820	-0.382525
C19	C	1.134016	-0.308480	-0.398819
C20	C	1.080433	-0.259692	-0.336026
C21	C	0.960865	-0.272776	-0.352865
C22	C	1.490521	-0.536720	-0.382561
C23	C	1.477958	-0.652401	-0.398863
C24	C	1.526740	-0.705957	-0.336030
C25	C	1.513757	-0.825519	-0.352878
C26	C	1.791598	-0.236620	-0.306329
C27	C	1.907284	-0.223981	-0.290063
C28	C	1.558468	-0.227912	-0.607346
C29	C	1.574809	-0.211563	-0.719355
C30	C	1.549869	0.005228	-0.306311
C31	C	1.562546	0.120927	-0.290037
C32	C	1.511908	-0.274447	-0.787085
C33	C	1.528795	-0.257552	-0.902852
C34	C	1.481992	-0.304411	-0.082659
C35	C	1.465885	-0.320444	0.029418
H36	H	1.091370	-0.359938	-0.465043
H37	H	1.578122	-0.663294	-0.269767
O38	O	1.452598	-0.876323	-0.432063
C39	C	1.492761	-0.832618	-0.525615
H40	H	1.579895	-0.792750	-0.514876
H41	H	1.447561	-0.771904	-0.550950
C42	C	1.372970	-0.969715	-0.621280
C43	C	1.479992	-0.920756	-0.608092
H44	H	1.365090	-1.024080	-0.672157
H45	H	1.345908	-0.999158	-0.558252
H46	H	1.335316	-0.919109	-0.642388
H47	H	1.517642	-0.971358	-0.586972
H48	H	1.507060	-0.891323	-0.671118
O49	O	1.416803	-0.703209	-0.478044
C50	C	1.456966	-0.659504	-0.571596
H51	H	1.544100	-0.619636	-0.560856
H52	H	1.411766	-0.598789	-0.596931
C53	C	1.337175	-0.796601	-0.667260
C54	C	1.444196	-0.747642	-0.654072
H55	H	1.329295	-0.850966	-0.718137
H56	H	1.310113	-0.826044	-0.604233
H57	H	1.299521	-0.745995	-0.688368
H58	H	1.481846	-0.798244	-0.632952
H59	H	1.471265	-0.718209	-0.717098
H60	H	1.613930	-0.836412	-0.223769
H61	H	1.445557	-0.340796	-0.759365
H62	H	0.918223	-0.324238	-0.419093
H63	H	0.949923	-0.172526	-0.223829
O64	O	1.386838	-0.399653	-0.937408
C65	C	1.429908	-0.469253	-0.877657
H66	H	1.510538	-0.426198	-0.845730
H67	H	1.438758	-0.539273	-0.927416
C68	C	1.257052	-0.561739	-0.827514
C69	C	1.356079	-0.508854	-0.788294
H70	H	1.211510	-0.586171	-0.772393
H71	H	1.228034	-0.514851	-0.867773
H72	H	1.264442	-0.620082	-0.868979
H73	H	1.348690	-0.450506	-0.746841
H74	H	1.385095	-0.555734	-0.748026
O75	O	1.607832	-0.178291	-0.935955
C76	C	1.564759	-0.108727	-0.995751
H77	H	1.478884	-0.115863	-0.974584
H78	H	1.569198	-0.129748	-1.080533
C79	C	1.733186	0.014059	-1.001136
C80	C	1.627716	0.005302	-0.975131
H81	H	1.772023	0.084398	-0.988421
H82	H	1.762207	-0.032808	-0.960853
H83	H	1.736871	-0.003464	-1.071786
H84	H	1.624031	0.022812	-0.904479
H85	H	1.598696	0.052175	-1.015401
O86	O	1.131392	-0.198446	-0.256970
C87	C	1.178259	-0.260298	-0.191312
H88	H	1.190975	-0.332310	-0.235575
H89	H	1.124276	-0.287062	-0.124057
C90	C	1.269582	-0.105983	-0.096283
C91	C	1.285208	-0.194425	-0.150651
H92	H	1.335550	-0.065350	-0.071197
H93	H	1.238004	-0.064312	-0.140515
H94	H	1.224593	-0.128300	-0.040245
H95	H	1.330185	-0.172108	-0.206695
H96	H	1.316796	-0.236091	-0.106427
O97	O	1.653841	-0.132307	-0.752463
C98	C	1.610768	-0.062744	-0.812259
H99	H	1.524893	-0.069879	-0.791092
H100	H	1.615207	-0.083765	-0.897041
C101	C	1.779195	0.060043	-0.817643
C102	C	1.673725	0.051285	-0.791639
H103	H	1.818032	0.130381	-0.804928
H104	H	1.808216	0.013175	-0.777361
H105	H	1.782880	0.042519	-0.888294
H106	H	1.670041	0.068796	-0.720987
H107	H	1.644705	0.098159	-0.831909
