data_functionalizedCrystal
_audit_creation_method	'MofGen! by Chris Wilmer'
_symmetry_space_group_name_H-M	'P1'
_symmetry_Int_Tables_number	1
_symmetry_cell_setting	triclinic
loop_
_symmetry_equiv_pos_as_xyz
  x,y,z
_cell_length_a	18.050590
_cell_length_b	19.120786
_cell_length_c	18.050582
_cell_angle_alpha	87.534997
_cell_angle_beta	90.000767
_cell_angle_gamma	92.454965
loop_
_atom_site_label
_atom_site_type_symbol
_atom_site_fract_x
_atom_site_fract_y
_atom_site_fract_z
Zn1	Zn	1.122683	-0.279875	-0.406968
Zn2	Zn	1.622683	0.220125	0.093032
Zn3	Zn	1.117303	-0.397324	-0.277476
Zn4	Zn	1.617303	0.102676	0.222524
Zn5	Zn	0.998503	-0.279863	-0.282826
Zn6	Zn	1.498503	0.220137	0.217174
Zn7	Zn	0.993162	-0.397273	-0.401660
Zn8	Zn	1.493162	0.102727	0.098340
O9	O	1.057913	-0.338584	-0.342232
O10	O	1.557913	0.161416	0.157768
O11	O	1.225893	-0.295481	-0.389772
O12	O	1.725893	0.204519	0.110228
O13	O	1.101527	-0.381759	-0.174260
O14	O	1.601527	0.118241	0.325740
O15	O	1.019463	-0.181576	-0.303754
O16	O	1.519463	0.318424	0.196246
O17	O	1.221940	-0.381770	-0.294635
O18	O	1.721940	0.118230	0.205365
O19	O	1.110698	-0.181584	-0.394960
O20	O	1.610698	0.318416	0.105040
O21	O	1.014246	-0.295462	-0.178191
O22	O	1.514246	0.204538	0.321809
O23	O	0.893871	-0.295412	-0.298608
O24	O	1.393871	0.204588	0.201392
O25	O	1.010359	-0.381683	-0.506290
O26	O	1.510359	0.118317	-0.006290
O27	O	0.889947	-0.381672	-0.385915
O28	O	1.389947	0.118328	0.114085
O29	O	1.105518	-0.295431	-0.510189
O30	O	1.605518	0.204569	-0.010189
O31	O	1.096348	-0.495606	-0.289489
O32	O	1.596348	0.004394	0.210511
O33	O	1.005142	-0.495569	-0.380727
O34	O	1.505142	0.004431	0.119273
C35	C	0.864963	-0.338536	-0.342267
C36	C	1.364963	0.161464	0.157733
C37	C	0.782417	-0.338532	-0.342298
C38	C	1.282417	0.161468	0.157702
C39	C	0.580848	-0.385575	-0.389652
C40	C	1.080848	0.114425	0.110348
C41	C	0.534340	-0.321532	-0.410818
C42	C	1.034340	0.178468	0.089182
C43	C	0.631285	-0.338571	-0.342260
C44	C	1.131285	0.161429	0.157740
C45	C	0.530710	-0.402651	-0.321091
C46	C	1.030710	0.097349	0.178909
C47	C	0.485298	-0.338615	-0.342224
C48	C	0.985298	0.161385	0.157776
C49	C	0.585866	-0.274494	-0.363463
C50	C	1.085866	0.225506	0.136537
C51	C	0.582238	-0.355657	-0.273703
C52	C	1.082238	0.144343	0.226297
C53	C	0.535754	-0.291570	-0.294846
C54	C	1.035754	0.208430	0.205154
C55	C	0.715384	-0.338547	-0.342282
C56	C	1.215384	0.161453	0.157718
C57	C	0.401201	-0.338632	-0.342202
C58	C	0.901201	0.161368	0.157798
C59	C	1.049602	-0.521073	-0.333967
C60	C	1.549602	-0.021073	0.166033
C61	C	1.046114	-0.599142	-0.330457
C62	C	1.546114	-0.099142	0.169543
C63	C	1.091941	-0.635763	-0.376332
C64	C	1.591941	-0.135763	0.123668
C65	C	1.088661	-0.709118	-0.373034
C66	C	1.588661	-0.209118	0.126966
C67	C	1.039557	-0.745850	-0.323857
C68	C	1.539557	-0.245850	0.176143
C69	C	0.993725	-0.709224	-0.277980
C70	C	1.493725	-0.209224	0.222020
C71	C	0.997002	-0.635871	-0.281282
C72	C	1.497002	-0.135871	0.218718
C73	C	1.027285	-0.967333	-0.311513
C74	C	1.527285	-0.467333	0.188487
C75	C	1.024014	-1.040691	-0.308213
C76	C	1.524014	-0.540691	0.191787
C77	C	1.118949	-1.040580	-0.403269
C78	C	1.618949	-0.540580	0.096731
C79	C	1.122225	-0.967226	-0.406563
C80	C	1.622225	-0.467226	0.093437
C81	C	1.076390	-0.930606	-0.360689
C82	C	1.576390	-0.430606	0.139311
C83	C	1.036205	-0.820831	-0.320483
C84	C	1.536205	-0.320831	0.179517
C85	C	1.079739	-0.855627	-0.364067
C86	C	1.579739	-0.355627	0.135933
C87	C	1.251616	-0.338632	-0.342199
C88	C	1.751616	0.161368	0.157801
C89	C	1.334161	-0.338653	-0.342184
C90	C	1.834161	0.161347	0.157816
C91	C	1.057943	-0.338553	-0.535939
C92	C	1.557943	0.161447	-0.035939
C93	C	1.057956	-0.338539	-0.618486
C94	C	1.557956	0.161461	-0.118486
C95	C	1.066277	-0.155382	-0.350546
C96	C	1.566277	0.344618	0.149454
C97	C	1.069841	-0.077312	-0.354089
C98	C	1.569841	0.422688	0.145911
C99	C	1.006250	-0.385379	-0.815819
C100	C	1.506250	0.114621	-0.315819
C101	C	1.073231	-0.402560	-0.864416
C102	C	1.573231	0.097440	-0.364416
C103	C	1.057995	-0.338486	-0.769619
C104	C	1.557995	0.161514	-0.269619
C105	C	0.991052	-0.321285	-0.868104
C106	C	1.491052	0.178715	-0.368104
C107	C	1.058027	-0.338435	-0.915606
C108	C	1.558027	0.161565	-0.415606
C109	C	1.125011	-0.355700	-0.817127
C110	C	1.625011	0.144300	-0.317127
C111	C	1.042788	-0.274395	-0.820812
C112	C	1.542788	0.225605	-0.320812
C113	C	1.109817	-0.291552	-0.869388
C114	C	1.609817	0.208448	-0.369388
C115	C	1.057976	-0.338517	-0.685519
C116	C	1.557976	0.161483	-0.185519
C117	C	1.058054	-0.338404	-0.999704
C118	C	1.558054	0.161596	-0.499704
C119	C	1.057927	-0.338564	-0.149281
C120	C	1.557927	0.161436	0.350719
C121	C	1.058067	-0.338379	-0.066744
C122	C	1.558067	0.161621	0.433256
H123	H	0.609908	-0.220305	-0.381418
H124	H	1.109908	0.279695	0.118582
O125	O	0.976243	-1.076266	-0.260424
O126	O	1.476243	-0.576266	0.239576
C127	C	0.882449	-1.068639	-0.166466
C128	C	1.382449	-0.568639	0.333534
C129	C	0.936498	-1.028264	-0.220561
C130	C	1.436498	-0.528264	0.279439
H131	H	0.850313	-1.029848	-0.134211
H132	H	1.350313	-0.529848	0.365789
H133	H	0.842018	-1.102972	-0.198960
H134	H	1.342018	-0.602972	0.301040
H135	H	0.915048	-1.102996	-0.126139
H136	H	1.415048	-0.602996	0.373861
H137	H	0.903961	-0.993869	-0.260900
H138	H	1.403961	-0.493869	0.239100
H139	H	0.976930	-0.993976	-0.188019
H140	H	1.476930	-0.493976	0.311981
H141	H	1.181650	-0.370289	-0.794850
H142	H	1.681650	0.129711	-0.294850
O143	O	0.982689	-0.931738	-0.267054
O144	O	1.482689	-0.431738	0.232946
C145	C	0.886146	-0.848969	-0.260709
C146	C	1.386146	-0.348969	0.239291
C147	C	0.936596	-0.889250	-0.311150
C148	C	1.436596	-0.389250	0.188850
H149	H	0.848878	-0.814596	-0.296339
H150	H	1.348878	-0.314596	0.203661
H151	H	0.850441	-0.887797	-0.225008
H152	H	1.350441	-0.387797	0.274992
H153	H	0.921813	-0.814655	-0.223426
H154	H	1.421813	-0.314655	0.276574
H155	H	0.900986	-0.923565	-0.348477
H156	H	1.400986	-0.423565	0.151523
H157	H	0.972305	-0.850384	-0.346800
H158	H	1.472305	-0.350384	0.153200
O159	O	1.162189	-0.244297	-0.897173
O160	O	1.662189	0.255703	-0.397173
C161	C	1.291911	-0.209008	-0.902512
C162	C	1.791911	0.290992	-0.402512
C163	C	1.232677	-0.262579	-0.871006
C164	C	1.732677	0.237421	-0.371006
H165	H	1.348912	-0.223762	-0.881356
H166	H	1.848912	0.276238	-0.381356
H167	H	1.291280	-0.209008	-0.965667
H168	H	1.791280	0.290992	-0.465667
H169	H	1.279380	-0.154559	-0.883795
H170	H	1.779380	0.345441	-0.383795
H171	H	1.245167	-0.317054	-0.889667
H172	H	1.745167	0.182946	-0.389667
H173	H	1.233321	-0.262518	-0.807855
H174	H	1.733321	0.237482	-0.307855
H175	H	1.086113	-0.456738	-0.883666
H176	H	1.586113	0.043262	-0.383666
O177	O	0.923535	-0.303987	-0.894909
O178	O	1.423535	0.196013	-0.394909
C179	C	0.848149	-0.283896	-1.003289
C180	C	1.348149	0.216104	-0.503289
C181	C	0.924642	-0.303502	-0.973035
C182	C	1.424642	0.196498	-0.473035
H183	H	0.849022	-0.283483	-1.066458
H184	H	1.349022	0.216517	-0.566458
H185	H	0.804062	-0.323959	-0.981269
H186	H	1.304062	0.176041	-0.481269
H187	H	0.834746	-0.229676	-0.984532
H188	H	1.334746	0.270324	-0.484532
H189	H	0.938115	-0.357705	-0.991781
H190	H	1.438115	0.142295	-0.491781
H191	H	0.968685	-0.263394	-0.995051
H192	H	1.468685	0.236606	-0.495051
O193	O	0.501835	-0.467223	-0.299657
O194	O	1.001835	0.032777	0.200343
C195	C	0.426523	-0.535562	-0.210605
C196	C	0.926523	-0.035562	0.289395
C197	C	0.459159	-0.462392	-0.234797
C198	C	0.959159	0.037608	0.265203
H199	H	0.392026	-0.531683	-0.158154
H200	H	0.892026	-0.031683	0.341846
H201	H	0.389872	-0.556768	-0.256677
H202	H	0.889872	-0.056768	0.243323
H203	H	0.473563	-0.572416	-0.199049
H204	H	0.973563	-0.072416	0.300951
H205	H	0.412168	-0.425485	-0.246343
H206	H	0.912168	0.074515	0.253657
H207	H	0.495829	-0.441243	-0.188712
H208	H	0.995829	0.058757	0.311288
H209	H	1.029885	-0.220233	-0.801546
H210	H	1.529885	0.279767	-0.301546
H211	H	0.962527	-0.425087	-0.792366
H212	H	1.462527	0.074913	-0.292366
H213	H	0.600722	-0.425254	-0.429779
H214	H	1.100722	0.074746	0.070221
H215	H	0.513276	-0.307095	-0.468780
H216	H	1.013276	0.192905	0.031220
H217	H	0.953741	-0.739137	-0.237942
H218	H	1.453741	-0.239137	0.262058
H219	H	0.959684	-0.606054	-0.243926
H220	H	1.459684	-0.106054	0.256074
H221	H	0.516023	-0.251793	-0.254755
H222	H	1.016023	0.248207	0.245245
O223	O	0.607519	-0.372860	-0.204613
O224	O	1.107519	0.127140	0.295387
C225	C	0.714131	-0.392834	-0.127446
C226	C	1.214131	0.107166	0.372554
C227	C	0.685601	-0.373318	-0.205723
C228	C	1.185601	0.126682	0.294277
H229	H	0.777262	-0.393225	-0.128321
H230	H	1.277262	0.106775	0.371679
H231	H	0.695765	-0.352735	-0.087038
H232	H	1.195765	0.147265	0.412962
H233	H	0.690475	-0.447045	-0.109039
H234	H	1.190475	0.052955	0.390961
H235	H	0.709244	-0.319124	-0.224199
H236	H	1.209244	0.180876	0.275801
H237	H	0.703959	-0.413462	-0.246084
H238	H	1.203959	0.086538	0.253916
O239	O	1.139658	-0.600193	-0.424170
O240	O	1.639658	-0.100193	0.075830
C241	C	1.233497	-0.607834	-0.518081
C242	C	1.733497	-0.107834	-0.018081
C243	C	1.179482	-0.648201	-0.463945
C244	C	1.679482	-0.148201	0.036055
H245	H	1.265720	-0.646631	-0.550242
H246	H	1.765720	-0.146631	-0.050242
H247	H	1.200941	-0.573515	-0.558484
H248	H	1.700941	-0.073515	-0.058484
H249	H	1.273858	-0.573464	-0.485549
H250	H	1.773858	-0.073464	0.014451
H251	H	1.139109	-0.682610	-0.496415
H252	H	1.639109	-0.182610	0.003585
H253	H	1.212086	-0.682476	-0.423542
H254	H	1.712086	-0.182476	0.076458
H255	H	1.125984	-0.738932	-0.410385
H256	H	1.625984	-0.238932	0.089615
H257	H	1.162209	-0.937320	-0.446607
H258	H	1.662209	-0.437320	0.053393
O259	O	1.163391	-1.076262	-0.447804
O260	O	1.663391	-0.576262	0.052196
C261	C	1.200449	-1.189217	-0.484821
C262	C	1.700449	-0.689217	0.015179
C263	C	1.150066	-1.148897	-0.434350
C264	C	1.650066	-0.648897	0.065650
H265	H	1.189705	-1.247949	-0.473950
H266	H	1.689705	-0.747949	0.026050
H267	H	1.188007	-1.174824	-0.545359
H268	H	1.688007	-0.674824	-0.045359
H269	H	1.260981	-1.174720	-0.472480
H270	H	1.760981	-0.674720	0.027520
H271	H	1.089518	-1.163372	-0.446625
H272	H	1.589518	-0.663372	0.053375
H273	H	1.162571	-1.163293	-0.373828
H274	H	1.662571	-0.663293	0.126172
H275	H	1.119717	-0.825717	-0.404110
H276	H	1.619717	-0.325717	0.095890
O277	O	0.988550	-0.856435	-0.272609
O278	O	1.488550	-0.356435	0.227391
C279	C	0.951615	-0.879006	-0.145241
C280	C	1.451615	-0.379006	0.354759
C281	C	1.005622	-0.838627	-0.199375
C282	C	1.505622	-0.338627	0.300625
H283	H	0.965408	-0.864634	-0.086019
H284	H	1.465408	-0.364634	0.413981
H285	H	0.892353	-0.864602	-0.158825
H286	H	1.392353	-0.364602	0.341175
H287	H	0.957134	-0.937720	-0.150803
H288	H	1.457134	-0.437720	0.349197
H289	H	1.000170	-0.779904	-0.193842
H290	H	1.500170	-0.279904	0.306158
H291	H	1.064862	-0.853089	-0.185775
H292	H	1.564862	-0.353089	0.314225
