data_functionalizedCrystal
_audit_creation_method	'MofGen! by Chris Wilmer'
_symmetry_space_group_name_H-M	'P1'
_symmetry_Int_Tables_number	1
_symmetry_cell_setting	triclinic
loop_
_symmetry_equiv_pos_as_xyz
  x,y,z
_cell_length_a	6.394989
_cell_length_b	10.654550
_cell_length_c	9.130313
_cell_angle_alpha	90.003780
_cell_angle_beta	89.998359
_cell_angle_gamma	85.491307
loop_
_atom_site_label
_atom_site_type_symbol
_atom_site_fract_x
_atom_site_fract_y
_atom_site_fract_z
O1	O	-0.293432	-1.670942	-0.121910
O2	O	-0.321389	-1.305759	-0.121885
O3	O	-0.003422	-1.493534	-0.121899
O4	O	-0.611400	-1.483167	-0.121896
O5	O	-0.003430	-1.493532	0.121700
O6	O	-0.321398	-1.305757	0.121713
O7	O	-0.293441	-1.670940	0.121689
Cu8	Cu	-0.307420	-1.488348	0.143944
Cu9	Cu	-0.307410	-1.488351	-0.144140
O10	O	-0.611408	-1.483165	0.121703
C11	C	-0.319341	-1.258939	-0.000083
C12	C	-0.313199	-1.119430	-0.000074
N13	N	-0.307426	-1.488355	0.346566
N14	N	-0.307388	-1.488353	-0.346763
C15	C	0.074425	-1.491483	-0.000105
C16	C	0.310751	-1.485219	-0.000106
C17	C	-0.295489	-1.717760	-0.000117
C18	C	-0.301631	-1.857269	-0.000135
C19	C	-0.500414	-1.041927	-0.000094
C20	C	-0.494630	-0.910845	-0.000120
C21	C	-0.114402	-0.934782	-0.000110
C22	C	-0.120188	-1.065861	-0.000074
C23	C	-0.719936	-1.028107	-0.000106
C24	C	-0.714152	-0.897025	-0.000132
C25	C	-0.166678	-1.571524	0.423212
C26	C	-0.166653	-1.571521	0.576549
C27	C	-0.448142	-1.405175	0.576581
C28	C	-0.448155	-1.405174	0.423247
C29	C	-0.004169	-1.667567	0.423195
C30	C	-0.004143	-1.667563	0.576532
H31	H	0.042742	-0.891149	-0.000133
H32	H	-0.796861	-0.856169	-0.102085
O33	O	-0.822380	-1.064405	0.121410
C34	C	-0.827972	-1.196431	0.121231
H35	H	-0.809126	-1.233167	0.004325
H36	H	-0.694771	-1.240488	0.191920
C37	C	-1.062619	-1.186391	0.327053
C38	C	-1.039489	-1.231510	0.183465
H39	H	-1.193088	-1.208031	0.365447
H40	H	-1.058846	-1.097443	0.327178
H41	H	-0.951605	-1.223109	0.385942
H42	H	-1.150486	-1.194780	0.124575
H43	H	-1.043286	-1.320453	0.183331
H44	H	0.147607	-1.635443	0.624081
H45	H	-0.039940	-1.764454	0.618143
H46	H	-0.780498	-0.852055	0.105037
O47	O	0.061535	-1.141275	-0.000239
C48	C	0.069621	-1.217825	-0.126398
H49	H	-0.096297	-1.227087	-0.168466
H50	H	0.165681	-1.173234	-0.214748
C51	C	0.376603	-1.337790	-0.036362
C52	C	0.172818	-1.349175	-0.088024
H53	H	0.440267	-1.418812	-0.012695
H54	H	0.371161	-1.286215	0.048632
H55	H	0.456626	-1.300627	-0.109995
H56	H	0.092791	-1.386323	-0.014385
H57	H	0.178248	-1.400760	-0.173005
H58	H	-0.562745	-1.337440	0.360843
O59	O	0.187460	-1.640159	0.373450
C60	C	0.275240	-1.740986	0.287648
H61	H	0.201167	-1.831015	0.319317
H62	H	0.243872	-1.719842	0.166884
C63	C	0.604538	-1.647496	0.275381
C64	C	0.513573	-1.758074	0.314286
H65	H	0.751554	-1.658035	0.291806
H66	H	0.545398	-1.579565	0.333182
H67	H	0.578377	-1.629888	0.174746
H68	H	0.539712	-1.775672	0.414923
H69	H	0.572723	-1.826010	0.256502
H70	H	-0.789831	-1.064504	-0.105278
H71	H	-0.055053	-1.759289	0.375631
H72	H	-0.562719	-1.337450	0.639030
