data_functionalizedCrystal
_audit_creation_method	'MofGen! by Chris Wilmer'
_symmetry_space_group_name_H-M	'P1'
_symmetry_Int_Tables_number	1
_symmetry_cell_setting	triclinic
loop_
_symmetry_equiv_pos_as_xyz
  x,y,z
_cell_length_a	23.532350
_cell_length_b	15.995300
_cell_length_c	14.472311
_cell_angle_alpha	90.006905
_cell_angle_beta	90.011737
_cell_angle_gamma	96.851476
loop_
_atom_site_label
_atom_site_type_symbol
_atom_site_fract_x
_atom_site_fract_y
_atom_site_fract_z
O1	O	-0.755649	0.101425	0.076712
O2	O	-0.505649	0.351425	0.326712
O3	O	-0.255649	0.601425	0.576712
O4	O	-0.005649	0.851425	0.826712
O5	O	-0.589836	0.116182	0.076739
O6	O	-0.339836	0.366182	0.326739
O7	O	-0.089836	0.616182	0.576739
O8	O	0.160164	0.866182	0.826739
O9	O	-0.677290	-0.013127	0.076729
O10	O	-0.427290	0.236873	0.326729
O11	O	-0.177290	0.486873	0.576729
O12	O	0.072710	0.736873	0.826729
O13	O	-0.668195	0.230733	0.076721
O14	O	-0.418195	0.480733	0.326721
O15	O	-0.168195	0.730733	0.576721
O16	O	0.081805	0.980733	0.826721
O17	O	-0.677302	-0.013150	-0.076953
O18	O	-0.427302	0.236850	0.173047
O19	O	-0.177302	0.486850	0.423047
O20	O	0.072698	0.736850	0.673047
O21	O	-0.589848	0.116158	-0.076943
O22	O	-0.339848	0.366158	0.173057
O23	O	-0.089848	0.616158	0.423057
O24	O	0.160152	0.866158	0.673057
O25	O	-0.755661	0.101401	-0.076970
O26	O	-0.505661	0.351401	0.173030
O27	O	-0.255661	0.601401	0.423030
O28	O	-0.005661	0.851401	0.673030
Cu29	Cu	-0.672755	0.108778	-0.090989
Cu30	Cu	-0.422755	0.358778	0.159011
Cu31	Cu	-0.172755	0.608778	0.409011
Cu32	Cu	0.077245	0.858778	0.659011
Cu33	Cu	-0.672741	0.108805	0.090758
Cu34	Cu	-0.422741	0.358805	0.340758
Cu35	Cu	-0.172741	0.608805	0.590758
Cu36	Cu	0.077259	0.858805	0.840758
O37	O	-0.668207	0.230709	-0.076961
O38	O	-0.418207	0.480709	0.173039
O39	O	-0.168207	0.730709	0.423039
O40	O	0.081793	0.980709	0.673039
C41	C	-0.568624	0.115802	-0.000099
C42	C	-0.318624	0.365802	0.249901
C43	C	-0.068624	0.615802	0.499901
C44	C	0.181376	0.865802	0.749901
C45	C	-0.505401	0.114695	-0.000088
C46	C	-0.255401	0.364695	0.249912
C47	C	-0.005401	0.614695	0.499912
C48	C	0.244599	0.864695	0.749912
C49	C	-0.676925	-0.044331	-0.000109
C50	C	-0.426925	0.205669	0.249891
C51	C	-0.176925	0.455669	0.499891
C52	C	0.073075	0.705669	0.749891
C53	C	-0.675813	-0.137274	-0.000099
C54	C	-0.425813	0.112726	0.249901
C55	C	-0.175813	0.362726	0.499901
C56	C	0.074187	0.612726	0.749901
C57	C	-0.113366	0.107728	-0.083901
C58	C	0.136634	0.357728	0.166099
C59	C	0.386634	0.607728	0.416099
C60	C	0.636634	0.857728	0.666099
C61	C	-0.053963	0.106675	-0.083905
C62	C	0.196037	0.356675	0.166095
C63	C	0.446037	0.606675	0.416095
C64	C	0.696037	0.856675	0.666095
O65	O	-0.023247	0.106091	-0.155149
O66	O	0.226753	0.356091	0.094851
O67	O	0.476753	0.606091	0.344851
O68	O	0.726753	0.856091	0.594851
N69	N	-0.024246	0.106165	-0.000134
N70	N	0.225754	0.356165	0.249866
N71	N	0.475754	0.606165	0.499866
N72	N	0.725754	0.856165	0.749866
C73	C	-0.053936	0.106700	0.083647
C74	C	0.196064	0.356700	0.333647
C75	C	0.446064	0.606700	0.583647
C76	C	0.696064	0.856700	0.833647
O77	O	-0.023205	0.106170	0.154901
O78	O	0.226795	0.356170	0.404901
O79	O	0.476795	0.606170	0.654901
O80	O	0.726795	0.856170	0.904901
C81	C	-0.113339	0.107748	0.083650
C82	C	0.136661	0.357748	0.333650
C83	C	0.386661	0.607748	0.583650
C84	C	0.636661	0.857748	0.833650
C85	C	-0.143052	0.108265	-0.000127
C86	C	0.106948	0.358265	0.249873
C87	C	0.356948	0.608265	0.499873
C88	C	0.606948	0.858265	0.749873
C89	C	-0.143079	0.108244	-0.167671
C90	C	0.106921	0.358244	0.082329
C91	C	0.356921	0.608244	0.332329
C92	C	0.606921	0.858244	0.582329
C93	C	-0.202479	0.109299	-0.167667
C94	C	0.047521	0.359299	0.082333
C95	C	0.297521	0.609299	0.332333
C96	C	0.547521	0.859299	0.582333
C97	C	-0.232165	0.109837	-0.083893
C98	C	0.017835	0.359837	0.166107
C99	C	0.267835	0.609837	0.416107
C100	C	0.517835	0.859837	0.666107
C101	C	-0.202452	0.109320	-0.000122
C102	C	0.047548	0.359320	0.249878
C103	C	0.297548	0.609320	0.499878
C104	C	0.547548	0.859320	0.749878
C105	C	-0.143029	0.108277	0.167430
C106	C	0.106971	0.358277	0.417430
C107	C	0.356971	0.608277	0.667430
C108	C	0.606971	0.858277	0.917430
C109	C	-0.202436	0.109323	0.167426
C110	C	0.047564	0.359323	0.417426
C111	C	0.297564	0.609323	0.667426
C112	C	0.547564	0.859323	0.917426
C113	C	-0.232149	0.109841	0.083649
C114	C	0.017851	0.359841	0.333649
C115	C	0.267851	0.609841	0.583649
C116	C	0.517851	0.859841	0.833649
C117	C	-0.291537	0.110912	0.083657
C118	C	-0.041537	0.360912	0.333657
C119	C	0.208463	0.610912	0.583657
C120	C	0.458463	0.860912	0.833657
N121	N	-0.321254	0.111422	-0.000115
N122	N	-0.071254	0.361422	0.249885
N123	N	0.178746	0.611422	0.499885
N124	N	0.428746	0.861422	0.749885
C125	C	-0.291568	0.110884	-0.083890
C126	C	-0.041568	0.360884	0.166110
C127	C	0.208432	0.610884	0.416110
C128	C	0.458432	0.860884	0.666110
C129	C	0.070814	0.104500	0.083635
C130	C	0.320814	0.354500	0.333635
C131	C	0.570814	0.604500	0.583635
C132	C	0.820814	0.854500	0.833635
C133	C	0.130216	0.103459	0.083633
C134	C	0.380216	0.353459	0.333633
C135	C	0.630216	0.603459	0.583633
C136	C	0.880216	0.853459	0.833633
C137	C	0.130185	0.103432	-0.083920
C138	C	0.380185	0.353432	0.166080
C139	C	0.630185	0.603432	0.416080
C140	C	0.880185	0.853432	0.666080
C141	C	0.070782	0.104479	-0.083917
C142	C	0.320782	0.354479	0.166083
C143	C	0.570782	0.604479	0.416083
C144	C	0.820782	0.854479	0.666083
C145	C	0.041097	0.105009	-0.000137
C146	C	0.291097	0.355009	0.249863
C147	C	0.541097	0.605009	0.499863
C148	C	0.791097	0.855009	0.749863
C149	C	-0.416310	0.113099	-0.083874
C150	C	-0.166310	0.363099	0.166126
C151	C	0.083690	0.613099	0.416126
C152	C	0.333690	0.863099	0.666126
C153	C	-0.475715	0.114157	-0.083862
C154	C	-0.225715	0.364157	0.166138
C155	C	0.024285	0.614157	0.416138
C156	C	0.274285	0.864157	0.666138
C157	C	-0.475679	0.114180	0.083690
C158	C	-0.225679	0.364180	0.333690
C159	C	0.024321	0.614180	0.583690
C160	C	0.274321	0.864180	0.833690
C161	C	-0.416280	0.113127	0.083679
C162	C	-0.166280	0.363127	0.333679
C163	C	0.083720	0.613127	0.583679
C164	C	0.333720	0.863127	0.833679
C165	C	-0.386597	0.112583	-0.000111
C166	C	-0.136597	0.362583	0.249889
C167	C	0.113403	0.612583	0.499889
C168	C	0.363403	0.862583	0.749889
O169	O	-0.322291	0.111493	0.154864
O170	O	-0.072291	0.361493	0.404864
O171	O	0.177709	0.611493	0.654864
O172	O	0.427709	0.861493	0.904864
O173	O	-0.322307	0.111404	-0.155131
O174	O	-0.072307	0.361404	0.094869
O175	O	0.177693	0.611404	0.344869
O176	O	0.427693	0.861404	0.594869
C177	C	-0.673759	-0.307439	-0.000108
C178	C	-0.423759	-0.057439	0.249892
C179	C	-0.173759	0.192561	0.499892
C180	C	0.076241	0.442561	0.749892
C181	C	-0.736028	-0.355442	-0.000116
C182	C	-0.486028	-0.105442	0.249884
C183	C	-0.236028	0.144558	0.499884
C184	C	0.013972	0.394558	0.749884
C185	C	-0.734892	-0.452120	-0.000468
C186	C	-0.484892	-0.202120	0.249532
C187	C	-0.234892	0.047880	0.499532
C188	C	0.015108	0.297880	0.749532
C189	C	-0.671738	-0.474978	-0.000115
C190	C	-0.421738	-0.224978	0.249885
C191	C	-0.171738	0.025022	0.499885
C192	C	0.078262	0.275022	0.749885
C193	C	-0.640850	-0.433591	-0.087697
C194	C	-0.390850	-0.183591	0.162303
C195	C	-0.140850	0.066409	0.412303
C196	C	0.109150	0.316409	0.662303
C197	C	-0.642426	-0.336971	-0.087767
C198	C	-0.392426	-0.086971	0.162233
C199	C	-0.142426	0.163029	0.412233
C200	C	0.107574	0.413029	0.662233
C201	C	-0.641491	-0.336661	0.087004
C202	C	-0.391491	-0.086661	0.337004
C203	C	-0.141491	0.163339	0.587004
C204	C	0.108509	0.413339	0.837004
C205	C	-0.641496	-0.433605	0.088152
C206	C	-0.391496	-0.183605	0.338152
C207	C	-0.141496	0.066395	0.588152
C208	C	0.108504	0.316395	0.838152
C209	C	-0.670592	-0.569664	-0.000123
C210	C	-0.420592	-0.319664	0.249877
C211	C	-0.170592	-0.069664	0.499877
C212	C	0.079408	0.180336	0.749877
C213	C	-0.674903	-0.212753	-0.000107
C214	C	-0.424903	0.037247	0.249893
C215	C	-0.174903	0.287247	0.499893
C216	C	0.075097	0.537247	0.749893
C217	C	0.223128	0.101788	-0.000133
C218	C	0.473128	0.351788	0.249867
C219	C	0.723128	0.601788	0.499867
C220	C	0.973128	0.851788	0.749867
C221	C	0.159907	0.102917	-0.000142
C222	C	0.409907	0.352917	0.249858
C223	C	0.659907	0.602917	0.499858
C224	C	0.909907	0.852917	0.749858
C225	C	-0.668572	0.261913	-0.000121
C226	C	-0.418572	0.511913	0.249879
C227	C	-0.168572	0.761913	0.499879
C228	C	0.081428	1.011913	0.749879
C229	C	-0.669684	0.354856	-0.000124
C230	C	-0.419684	0.604856	0.249876
C231	C	-0.169684	0.854856	0.499876
C232	C	0.080316	1.104856	0.749876
N233	N	-0.672732	0.108819	0.218589
N234	N	-0.422732	0.358819	0.468589
N235	N	-0.172732	0.608819	0.718589
N236	N	0.077268	0.858819	0.968589
N237	N	-0.672769	0.108757	-0.218820
N238	N	-0.422769	0.358757	0.031180
N239	N	-0.172769	0.608757	0.281180
N240	N	0.077231	0.858757	0.531180
C241	C	-0.672757	0.108777	0.592680
C242	C	-0.422757	0.358777	0.842680
C243	C	-0.172757	0.608777	1.092680
C244	C	0.077243	0.858777	1.342680
C245	C	-0.626012	0.178042	0.553519
C246	C	-0.376012	0.428042	0.803519
C247	C	-0.126012	0.678042	1.053519
C248	C	0.123988	0.928042	1.303519
C249	C	-0.625838	0.177878	0.446431
C250	C	-0.375838	0.427878	0.696431
C251	C	-0.125838	0.677878	0.946431
C252	C	0.124162	0.927878	1.196431
C253	C	-0.672744	0.108799	0.407089
C254	C	-0.422744	0.358799	0.657089
C255	C	-0.172744	0.608799	0.907089
C256	C	0.077256	0.858799	1.157089
C257	C	-0.659932	0.021471	0.445947
C258	C	-0.409932	0.271471	0.695947
C259	C	-0.159932	0.521471	0.945947
C260	C	0.090068	0.771471	1.195947
C261	C	-0.659603	0.021866	0.553069
C262	C	-0.409603	0.271866	0.803069
C263	C	-0.159603	0.521866	1.053069
C264	C	0.090397	0.771866	1.303069
C265	C	-0.732452	0.126058	0.553183
C266	C	-0.482452	0.376058	0.803183
C267	C	-0.232452	0.626058	1.053183
C268	C	0.017548	0.876058	1.303183
C269	C	-0.732047	0.128060	0.446055
C270	C	-0.482047	0.378060	0.696055
C271	C	-0.232047	0.628060	0.946055
C272	C	0.017953	0.878060	1.196055
C273	C	-0.672739	0.108805	0.302201
C274	C	-0.422739	0.358805	0.552201
C275	C	-0.172739	0.608805	0.802201
C276	C	0.077261	0.858805	1.052201
C277	C	-0.672761	0.108765	0.697568
C278	C	-0.422761	0.358765	0.947568
C279	C	-0.172761	0.608765	1.197568
C280	C	0.077239	0.858765	1.447568
H281	H	-0.499904	0.114582	-0.152087
H282	H	-0.249904	0.364582	0.097913
H283	H	0.000096	0.614582	0.347913
H284	H	0.250096	0.864582	0.597913
H285	H	-0.581534	0.166873	0.420816
H286	H	-0.331534	0.416873	0.670816
H287	H	-0.081534	0.666873	0.920816
H288	H	0.168466	0.916873	1.170816
H289	H	-0.616899	0.005819	0.419122
H290	H	-0.366899	0.255819	0.669122
H291	H	-0.116899	0.505819	0.919122
H292	H	0.133101	0.755819	1.169122
H293	H	-0.581958	0.167191	0.580449
H294	H	-0.331958	0.417191	0.830449
H295	H	-0.081958	0.667191	1.080449
H296	H	0.168042	0.917191	1.330449
H297	H	0.046594	0.104901	-0.152136
H298	H	0.296594	0.354901	0.097864
H299	H	0.546594	0.604901	0.347864
H300	H	0.796594	0.854901	0.597864
H301	H	-0.596701	-0.304304	-0.091498
H302	H	-0.346701	-0.054304	0.158502
H303	H	-0.096701	0.195696	0.408502
H304	H	0.153299	0.445696	0.658502
H305	H	-0.633495	0.243177	0.579293
H306	H	-0.383495	0.493177	0.829293
H307	H	-0.133495	0.743177	1.079293
H308	H	0.116505	0.993177	1.329293
H309	H	-0.741768	0.192306	0.420674
H310	H	-0.491768	0.442306	0.670674
H311	H	-0.241768	0.692306	0.920674
H312	H	0.008232	0.942306	1.170674
H313	H	-0.767237	0.075547	0.578510
H314	H	-0.517237	0.325547	0.828510
H315	H	-0.267237	0.575547	1.078510
H316	H	-0.017237	0.825547	1.328510
H317	H	-0.616072	0.006593	0.578064
H318	H	-0.366072	0.256593	0.828064
H319	H	-0.116072	0.506593	1.078064
H320	H	0.133928	0.756593	1.328064
H321	H	-0.633445	0.242801	0.420160
H322	H	-0.383445	0.492801	0.670160
H323	H	-0.133445	0.742801	0.920160
H324	H	0.116555	0.992801	1.170160
H325	H	0.154366	0.102992	-0.152134
H326	H	0.404366	0.352992	0.097866
H327	H	0.654366	0.602992	0.347866
H328	H	0.904366	0.852992	0.597866
H329	H	-0.226603	0.109756	0.235652
H330	H	0.023397	0.359756	0.485652
H331	H	0.273397	0.609756	0.735652
H332	H	0.523397	0.859756	0.985652
H333	H	-0.759067	-0.480184	-0.063625
H334	H	-0.509067	-0.230184	0.186375
H335	H	-0.259067	0.019816	0.436375
H336	H	-0.009067	0.269816	0.686375
H337	H	0.046648	0.104940	0.151863
H338	H	0.296648	0.354940	0.401863
H339	H	0.546648	0.604940	0.651863
H340	H	0.796648	0.854940	0.901863
H341	H	-0.392149	0.112664	-0.152104
H342	H	-0.142149	0.362664	0.097896
H343	H	0.107851	0.612664	0.347896
H344	H	0.357851	0.862664	0.597896
H345	H	0.154405	0.103051	0.151853
H346	H	0.404405	0.353051	0.401853
H347	H	0.654405	0.603051	0.651853
H348	H	0.904405	0.853051	0.901853
H349	H	-0.761044	-0.337169	0.062688
H350	H	-0.511044	-0.087169	0.312688
H351	H	-0.261044	0.162831	0.562688
H352	H	-0.011044	0.412831	0.812688
H353	H	-0.594446	-0.447291	-0.090701
H354	H	-0.344446	-0.197291	0.159299
H355	H	-0.094446	0.052709	0.409299
H356	H	0.155554	0.302709	0.659299
H357	H	-0.226666	0.109716	-0.235887
H358	H	0.023334	0.359716	0.014113
H359	H	0.273334	0.609716	0.264113
H360	H	0.523334	0.859716	0.514113
H361	H	-0.662055	-0.462136	-0.153128
H362	H	-0.412055	-0.212136	0.096872
H363	H	-0.162055	0.037864	0.346872
H364	H	0.087945	0.287864	0.596872
H365	H	-0.595578	-0.304494	0.087847
H366	H	-0.345578	-0.054494	0.337847
H367	H	-0.095578	0.195506	0.587847
H368	H	0.154422	0.445506	0.837847
H369	H	-0.664052	-0.461131	0.152946
H370	H	-0.414052	-0.211131	0.402946
H371	H	-0.164052	0.038869	0.652946
H372	H	0.085948	0.288869	0.902946
H373	H	-0.661985	-0.316326	0.153408
H374	H	-0.411985	-0.066326	0.403408
H375	H	-0.161985	0.183674	0.653408
H376	H	0.088015	0.433674	0.903408
H377	H	-0.118847	0.107854	0.235651
H378	H	0.131153	0.357854	0.485651
H379	H	0.381153	0.607854	0.735651
H380	H	0.631153	0.857854	0.985651
H381	H	-0.744806	0.188354	0.580211
H382	H	-0.494806	0.438354	0.830211
H383	H	-0.244806	0.688354	1.080211
H384	H	0.005194	0.938354	1.330211
H385	H	-0.768448	0.080865	0.419272
H386	H	-0.518448	0.330865	0.669272
H387	H	-0.268448	0.580865	0.919272
H388	H	-0.018448	0.830865	1.169272
H389	H	-0.692364	-0.031209	0.578972
H390	H	-0.442364	0.218791	0.828972
H391	H	-0.192364	0.468791	1.078972
H392	H	0.057636	0.718791	1.328972
H393	H	-0.392085	0.112719	0.151897
H394	H	-0.142085	0.362719	0.401897
H395	H	0.107915	0.612719	0.651897
H396	H	0.357915	0.862719	0.901897
H397	H	-0.595453	-0.448552	0.093711
H398	H	-0.345453	-0.198552	0.343711
H399	H	-0.095453	0.051448	0.593711
H400	H	0.154547	0.301448	0.843711
H401	H	-0.499860	0.114622	0.151897
H402	H	-0.249860	0.364622	0.401897
H403	H	0.000140	0.614622	0.651897
H404	H	0.250140	0.864622	0.901897
H405	H	-0.759163	-0.480784	0.062298
H406	H	-0.509163	-0.230784	0.312298
H407	H	-0.259163	0.019216	0.562298
H408	H	-0.009163	0.269216	0.812298
H409	H	-0.118915	0.107805	-0.235894
H410	H	0.131085	0.357805	0.014106
H411	H	0.381085	0.607805	0.264106
H412	H	0.631085	0.857805	0.514106
H413	H	-0.760701	-0.335996	-0.062789
H414	H	-0.510701	-0.085996	0.187211
H415	H	-0.260701	0.164004	0.437211
H416	H	-0.010701	0.414004	0.687211
H417	H	-0.664695	-0.318853	-0.153492
H418	H	-0.414695	-0.068853	0.096508
H419	H	-0.164695	0.181147	0.346508
H420	H	0.085305	0.431147	0.596508
H421	H	-0.693078	-0.031293	0.420461
H422	H	-0.443078	0.218707	0.670461
H423	H	-0.193078	0.468707	0.920461
H424	H	0.056922	0.718707	1.170461
