data_functionalizedCrystal
_audit_creation_method	'MofGen! by Chris Wilmer'
_symmetry_space_group_name_H-M	'P1'
_symmetry_Int_Tables_number	1
_symmetry_cell_setting	triclinic
loop_
_symmetry_equiv_pos_as_xyz
  x,y,z
_cell_length_a	15.995350
_cell_length_b	19.188930
_cell_length_c	14.472310
_cell_angle_alpha	89.993787
_cell_angle_beta	89.990621
_cell_angle_gamma	83.318578
loop_
_atom_site_label
_atom_site_type_symbol
_atom_site_fract_x
_atom_site_fract_y
_atom_site_fract_z
O1	O	1.110667	0.089991	-0.076773
O2	O	1.610667	0.589991	0.423227
O3	O	0.866851	0.101105	-0.076794
O4	O	1.366851	0.601105	0.423206
O5	O	0.995795	-0.006090	-0.076765
O6	O	1.495795	0.493910	0.423235
O7	O	0.981723	0.197186	-0.076802
O8	O	1.481723	0.697186	0.423198
O9	O	0.995762	-0.006083	0.076917
O10	O	1.495762	0.493917	0.576917
O11	O	0.866818	0.101111	0.076888
O12	O	1.366818	0.601111	0.576888
O13	O	1.110634	0.089998	0.076909
O14	O	1.610634	0.589998	0.576909
Cu15	Cu	0.988723	0.095555	0.090931
Cu16	Cu	1.488723	0.595555	0.590931
Cu17	Cu	0.988762	0.095547	-0.090816
Cu18	Cu	1.488762	0.595547	0.409184
O19	O	0.981690	0.197192	0.076880
O20	O	1.481690	0.697192	0.576880
C21	C	0.835641	0.100648	0.000045
C22	C	1.335641	0.600648	0.500045
C23	C	0.742696	0.099271	0.000038
C24	C	1.242696	0.599271	0.500038
C25	C	0.404967	0.094324	0.000058
C26	C	0.904967	0.594324	0.500058
C27	C	0.452680	0.017982	0.000415
C28	C	0.952680	0.517982	0.500415
C29	C	0.549365	0.019360	0.000062
C30	C	1.049365	0.519360	0.500062
C31	C	0.572518	0.096778	0.000049
C32	C	1.072518	0.596778	0.500049
C33	C	0.531312	0.134429	-0.087714
C34	C	1.031312	0.634429	0.412286
C35	C	0.434683	0.132511	-0.087781
C36	C	0.934683	0.632511	0.412219
C37	C	0.434301	0.134095	0.086984
C38	C	0.934301	0.634095	0.586984
C39	C	0.531246	0.134077	0.088137
C40	C	1.031246	0.634077	0.588137
C41	C	0.667211	0.098169	0.000040
C42	C	1.167211	0.598169	0.500040
C43	C	0.310274	0.092936	0.000060
C44	C	0.810274	0.592936	0.500060
C45	C	0.995323	-0.032099	0.000079
C46	C	1.495323	0.467901	0.500079
C47	C	0.993955	-0.109607	0.000087
C48	C	1.493955	0.390393	0.500087
C49	C	1.069615	-0.154338	0.000097
C50	C	1.569615	0.345662	0.500097
C51	C	1.068330	-0.227165	0.000082
C52	C	1.568330	0.272835	0.500082
C53	C	0.991380	-0.255258	0.000075
C54	C	1.491380	0.244742	0.500075
C55	C	0.915710	-0.210517	0.000059
C56	C	1.415710	0.289483	0.500059
C57	C	0.916997	-0.137691	0.000065
C58	C	1.416997	0.362309	0.500065
N59	N	0.932550	-0.363410	0.052371
N60	N	1.432550	0.136590	0.552371
N61	N	0.931332	-0.432592	0.052368
N62	N	1.431332	0.067408	0.552368
C63	C	0.987497	-0.474676	0.000056
C64	C	1.487497	0.025324	0.500056
N65	N	1.044938	-0.444967	-0.052240
N66	N	1.544938	0.055033	0.447760
N67	N	1.046158	-0.375779	-0.052233
N68	N	1.546158	0.124221	0.447767
C69	C	0.989976	-0.334224	0.000069
C70	C	1.489976	0.165776	0.500069
C71	C	1.061769	-0.598375	0.000050
C72	C	1.561769	-0.098375	0.500050
C73	C	1.060480	-0.671204	0.000029
C74	C	1.560480	-0.171204	0.500029
C75	C	0.907859	-0.654553	0.000015
C76	C	1.407859	-0.154553	0.500015
C77	C	0.909149	-0.581727	0.000027
C78	C	1.409149	-0.081727	0.500027
C79	C	0.986106	-0.553643	0.000048
C80	C	1.486106	-0.053643	0.500048
C81	C	1.141843	0.090454	0.000068
C82	C	1.641843	0.590454	0.500068
C83	C	1.234789	0.091831	0.000069
C84	C	1.734789	0.591831	0.500069
C85	C	0.982162	0.223201	0.000034
C86	C	1.482162	0.723201	0.500034
C87	C	0.983530	0.300709	0.000020
C88	C	1.483530	0.800709	0.500020
N89	N	0.988701	0.095560	0.218762
N90	N	1.488701	0.595560	0.718762
N91	N	0.988790	0.095537	-0.218647
N92	N	1.488790	0.595537	0.281353
C93	C	0.988761	0.095545	0.592853
C94	C	1.488761	0.595545	1.092853
C95	C	0.919535	0.152710	0.553672
C96	C	1.419535	0.652710	1.053672
C97	C	0.919694	0.152918	0.446584
C98	C	1.419694	0.652918	0.946584
C99	C	0.988731	0.095552	0.407262
C100	C	1.488731	0.595552	0.907262
C101	C	1.076037	0.111464	0.446103
C102	C	1.576037	0.611464	0.946103
C103	C	1.075648	0.111870	0.553224
C104	C	1.575648	0.611870	1.053224
C105	C	0.971460	0.022298	0.553394
C106	C	1.471460	0.522298	1.053394
C107	C	0.969454	0.022787	0.446266
C108	C	1.469454	0.522787	0.946266
C109	C	0.988719	0.095555	0.302374
C110	C	1.488719	0.595555	0.802374
C111	C	0.988778	0.095543	0.697741
C112	C	1.488778	0.595543	1.197741
H113	H	0.546404	0.190533	0.093428
H114	H	1.046404	0.690533	0.593428
N115	N	0.565584	0.099576	0.169590
N116	N	1.065584	0.599576	0.669590
N117	N	0.518387	0.073006	0.225010
N118	N	1.018387	0.573006	0.725010
H119	H	0.542638	0.048629	0.282531
H120	H	1.042638	0.548629	0.782531
N121	N	0.394196	0.204705	0.087707
N122	N	0.894196	0.704705	0.587707
N123	N	0.344216	0.225727	0.024549
N124	N	0.844216	0.725727	0.524549
H125	H	0.315887	0.275592	0.025052
H126	H	0.815887	0.775592	0.525052
H127	H	0.559796	0.108273	-0.153020
H128	H	1.059796	0.608273	0.346980
H129	H	1.091696	0.164273	0.419257
H130	H	1.591696	0.664273	0.919257
N131	N	0.837115	-0.239220	0.000044
N132	N	1.337115	0.260780	0.500044
N133	N	0.835975	-0.304243	0.000040
N134	N	1.335975	0.195757	0.500040
H135	H	0.780465	-0.324516	0.000024
H136	H	1.280465	0.175484	0.500024
N137	N	1.142232	0.061657	0.585723
N138	N	1.642232	0.561657	1.085723
N139	N	1.199290	0.081063	0.635140
N140	N	1.699290	0.581063	1.135140
H141	H	1.246330	0.045610	0.658082
H142	H	1.746330	0.545610	1.158082
H143	H	0.845205	-0.677425	0.000005
H144	H	1.345205	-0.177425	0.500005
H145	H	0.413843	0.109140	0.153506
H146	H	0.913843	0.609140	0.653506
H147	H	1.021946	-0.020242	0.578732
H148	H	1.521946	0.479758	1.078732
N149	N	1.148229	-0.125663	0.000117
N150	N	1.648229	0.374337	0.500117
N151	N	1.215779	-0.165616	0.000124
N152	N	1.715779	0.334384	0.500124
H153	H	1.271302	-0.145364	0.000136
H154	H	1.771302	0.354636	0.500136
N155	N	1.145626	-0.272858	0.000092
N156	N	1.645626	0.227142	0.500092
N157	N	1.214329	-0.247773	0.000109
N158	N	1.714329	0.252227	0.500109
H159	H	1.268920	-0.280041	0.000118
H160	H	1.768920	0.219959	0.500118
N161	N	0.393952	0.202815	-0.092819
N162	N	0.893952	0.702815	0.407181
N163	N	0.315389	0.213923	-0.093776
N164	N	0.815389	0.713923	0.406224
H165	H	0.286624	0.263573	-0.097344
H166	H	0.786624	0.763573	0.402656
N167	N	1.142184	0.060617	0.414148
N168	N	1.642184	0.560617	0.914148
N169	N	1.125679	0.011969	0.362267
N170	N	1.625679	0.511969	0.862267
H171	H	1.172394	-0.023943	0.339698
H172	H	1.672394	0.476057	0.839698
H173	H	0.854420	0.143386	0.579456
H174	H	1.354420	0.643386	1.079456
N175	N	0.893326	0.003127	0.587315
N176	N	1.393326	0.503127	1.087315
N177	N	0.849439	0.043220	0.640993
N178	N	1.349439	0.543220	1.140993
H179	H	0.794250	0.029690	0.664948
H180	H	1.294250	0.529690	1.164948
H181	H	0.545229	0.191306	-0.090987
H182	H	1.045229	0.691306	0.409013
N183	N	0.839701	-0.092005	0.000049
N184	N	1.339701	0.407995	0.500049
N185	N	0.770999	-0.117092	0.000034
N186	N	1.270999	0.382908	0.500034
H187	H	0.716406	-0.084826	0.000023
H188	H	1.216406	0.415174	0.500023
N189	N	0.429615	-0.020268	0.079418
N190	N	0.929615	0.479732	0.579418
N191	N	0.377736	0.008284	0.136380
N192	N	0.877736	0.508284	0.636380
H193	H	0.361462	-0.018723	0.192195
H194	H	0.861462	0.481277	0.692195
H195	H	1.124432	-0.575508	0.000063
H196	H	1.624432	-0.075508	0.500063
H197	H	0.433211	-0.012395	-0.062166
H198	H	0.933211	0.487605	0.437834
N199	N	1.137779	-0.716887	0.000048
N200	N	1.637779	-0.216887	0.500048
N201	N	1.188995	-0.714331	0.064842
N202	N	1.688995	-0.214331	0.564842
H203	H	1.243590	-0.746594	0.064856
H204	H	1.743590	-0.246594	0.564856
N205	N	0.888886	0.007645	0.414421
N206	N	1.388886	0.507645	0.914421
N207	N	0.845778	0.050250	0.363187
N208	N	1.345778	0.550250	0.863187
H209	H	0.788876	0.039558	0.340691
H210	H	1.288876	0.539558	0.840691
N211	N	0.831855	-0.536041	0.000019
N212	N	1.331855	-0.036041	0.500019
N213	N	0.763154	-0.561129	0.000009
N214	N	1.263154	-0.061129	0.500009
H215	H	0.708561	-0.528863	0.000001
H216	H	1.208561	-0.028863	0.500001
N217	N	0.838153	0.141366	0.413651
N218	N	1.338153	0.641366	0.913651
N219	N	0.780732	0.133084	0.469782
N220	N	1.280732	0.633084	0.969782
H221	H	0.723096	0.125056	0.446529
H222	H	1.223096	0.625056	0.946529
N223	N	0.933171	0.220511	0.587425
N224	N	1.433171	0.720511	1.087425
N225	N	0.993650	0.226913	0.640210
N226	N	1.493650	0.726913	1.140210
H227	H	1.003283	0.274796	0.664050
H228	H	1.503283	0.774796	1.164050
H229	H	0.930714	0.207273	0.420941
H230	H	1.430714	0.707273	0.920941
H231	H	1.090934	0.165288	0.578192
H232	H	1.590934	0.665288	1.078192
H233	H	1.016620	-0.021746	0.419504
H234	H	1.516620	0.478254	0.919504
H235	H	0.577346	-0.010441	-0.062950
H236	H	1.077346	0.489559	0.437050
N237	N	0.585151	-0.017765	0.078986
N238	N	1.085151	0.482235	0.578986
N239	N	0.563196	0.002251	0.158463
N240	N	1.063196	0.502251	0.658463
H241	H	0.588466	-0.023975	0.214205
H242	H	1.088466	0.476025	0.714205
N243	N	0.411866	0.098062	-0.170074
N244	N	0.911866	0.598062	0.329926
N245	N	0.467280	0.075599	-0.227056
N246	N	0.967280	0.575599	0.272944
H247	H	0.451171	0.051267	-0.285177
H248	H	0.951171	0.551267	0.214823
