data_functionalizedCrystal
_audit_creation_method	'MofGen! by Chris Wilmer'
_symmetry_space_group_name_H-M	'P1'
_symmetry_Int_Tables_number	1
_symmetry_cell_setting	triclinic
loop_
_symmetry_equiv_pos_as_xyz
  x,y,z
_cell_length_a	12.759401
_cell_length_b	17.637651
_cell_length_c	12.759393
_cell_angle_alpha	78.749777
_cell_angle_beta	89.981298
_cell_angle_gamma	101.218439
loop_
_atom_site_label
_atom_site_type_symbol
_atom_site_fract_x
_atom_site_fract_y
_atom_site_fract_z
Zn1	Zn	1.521684	-0.314741	-0.509311
Zn2	Zn	1.486046	-0.446979	-0.298054
Zn3	Zn	1.345976	-0.314780	-0.333639
Zn4	Zn	1.310459	-0.446916	-0.473712
O5	O	1.416041	-0.380854	-0.403679
O6	O	1.663975	-0.332293	-0.481293
O7	O	1.467415	-0.429485	-0.155742
O8	O	1.399062	-0.204133	-0.386733
O9	O	1.637792	-0.429448	-0.326084
O10	O	1.528154	-0.204105	-0.515799
O11	O	1.364506	-0.332359	-0.181886
O12	O	1.194246	-0.332298	-0.352214
O13	O	1.338530	-0.429339	-0.625467
O14	O	1.168153	-0.429377	-0.455125
O15	O	1.493716	-0.332231	-0.651621
O16	O	1.432976	-0.557612	-0.291564
O17	O	1.303973	-0.557565	-0.420619
C18	C	1.143079	-0.380835	-0.403668
C19	C	1.026299	-0.380847	-0.403684
C20	C	1.360782	-0.586277	-0.348390
C21	C	1.337238	-0.674158	-0.324773
C22	C	0.875305	-0.330368	-0.484583
C23	C	0.985033	-0.330352	-0.484580
C24	C	0.957829	-0.431365	-0.322791
C25	C	0.848102	-0.431384	-0.322799
C26	C	1.595586	-0.962818	-0.583430
C27	C	1.573430	-1.045395	-0.561219
C28	C	1.439095	-1.045532	-0.426694
C29	C	1.461245	-0.962953	-0.448889
C30	C	1.539490	-0.921602	-0.527259
C31	C	1.405148	-0.921738	-0.392719
C32	C	1.427292	-0.839166	-0.414917
C33	C	1.505532	-0.797809	-0.493286
C34	C	1.561634	-0.839030	-0.549458
C35	C	1.326898	-0.963090	-0.314355
C36	C	1.270802	-0.921875	-0.258184
C37	C	1.292950	-0.839302	-0.280377
C38	C	1.371190	-0.797945	-0.358745
C39	C	1.236848	-0.798080	-0.224205
C40	C	1.258992	-0.715509	-0.246403
C41	C	1.393334	-0.715373	-0.380943
C42	C	1.690070	-0.380873	-0.403690
C43	C	1.806844	-0.380881	-0.403695
C44	C	1.416136	-0.380774	-0.677734
C45	C	1.416177	-0.380740	-0.794520
C46	C	1.471545	-0.174629	-0.459206
C47	C	1.495198	-0.086748	-0.482869
C48	C	1.362619	-0.330157	-0.862997
C49	C	1.362650	-0.330133	-0.972728
C50	C	1.469805	-0.431276	-0.945494
C51	C	1.469767	-0.431304	-0.835764
C52	C	1.416023	-0.380876	-0.130705
C53	C	1.416246	-0.380688	-0.013980
H54	H	1.040770	-0.289220	-0.550448
H55	H	0.991436	-0.472482	-0.256927
O56	O	1.529430	-0.708749	-0.517225
H57	H	1.456009	-0.686996	-0.544227
O58	O	0.774250	-0.485863	-0.235546
H59	H	0.821375	-0.520968	-0.179282
H60	H	1.457057	-0.681704	-0.444752
H61	H	1.625358	-0.805361	-0.613267
H62	H	1.659310	-0.929148	-0.647239
O63	O	1.152452	-0.842689	-0.139689
H64	H	1.117157	-0.800156	-0.104363
O65	O	1.633943	-1.089853	-0.621800
H66	H	1.692076	-1.047224	-0.680016
H67	H	1.319036	-0.288944	-1.028478
O68	O	1.527618	-0.485805	-0.989979
H69	H	1.518658	-0.477282	-1.077787
H70	H	1.513383	-0.472498	-0.780006
H71	H	1.207091	-0.955554	-0.194378
O72	O	0.830797	-0.275906	-0.571836
H73	H	0.896840	-0.240784	-0.628088
O74	O	1.354720	-1.090132	-0.342152
H75	H	1.348754	-1.154475	-0.336142
O76	O	1.198501	-0.671046	-0.185816
H77	H	1.140382	-0.713671	-0.127583
O78	O	1.304816	-0.275626	-0.818505
H79	H	1.267573	-0.240453	-0.884560
H80	H	1.308861	-1.030326	-0.296294
