data_functionalizedCrystal
_audit_creation_method	'MofGen! by Chris Wilmer'
_symmetry_space_group_name_H-M	'P1'
_symmetry_Int_Tables_number	1
_symmetry_cell_setting	triclinic
loop_
_symmetry_equiv_pos_as_xyz
  x,y,z
_cell_length_a	19.377625
_cell_length_b	16.704494
_cell_length_c	16.704494
_cell_angle_alpha	60.174809
_cell_angle_beta	75.549556
_cell_angle_gamma	55.196854
loop_
_atom_site_label
_atom_site_type_symbol
_atom_site_fract_x
_atom_site_fract_y
_atom_site_fract_z
Zr1	Zr	0.741041	0.842850	-0.346510
O2	O	0.639036	0.999874	-0.447855
O3	O	0.766708	0.679337	-0.308245
O4	O	0.781358	0.829220	-0.478890
O5	O	0.619203	0.863005	-0.150789
O6	O	0.899999	0.825850	-0.511559
O7	O	0.624386	0.849991	-0.277210
O8	O	0.873791	0.557736	-0.206306
O9	O	0.645411	1.131119	-0.456042
O10	O	0.872964	0.746480	-0.325001
O11	O	0.780557	0.758708	-0.206275
O12	O	0.797806	0.935176	-0.407188
O13	O	0.705398	0.947403	-0.288461
Zr14	Zr	0.921993	0.858231	-0.196987
Zr15	Zr	0.930259	0.837475	-0.398613
Zr16	Zr	0.732776	0.863606	-0.144884
Zr17	Zr	0.751207	1.052170	-0.359568
Zr18	Zr	0.911827	0.648911	-0.183929
O19	O	0.896327	1.021744	-0.235252
O20	O	0.908079	0.992232	-0.521938
O21	O	0.627284	1.029386	-0.161169
O22	O	1.023998	0.701207	-0.095642
O23	O	1.035751	0.671694	-0.382328
O24	O	0.754955	0.708849	-0.021559
O25	O	1.043831	0.838076	-0.392707
O26	O	0.881676	0.871861	-0.064607
O27	O	0.763036	0.875231	-0.031938
O28	O	1.038649	0.851090	-0.266287
O29	O	0.795813	1.126846	-0.497457
O30	O	0.867222	0.574234	-0.046040
O31	O	1.017624	0.569962	-0.087454
O32	O	1.024194	0.553464	-0.247720
O33	O	0.638841	1.147617	-0.295777
O34	O	0.789243	1.143345	-0.337191
O35	O	0.865229	0.765905	-0.136309
O36	O	0.957636	0.753677	-0.255035
O37	O	0.882478	0.942373	-0.337222
O38	O	0.790071	0.954600	-0.218495
C39	C	0.818801	0.588713	-0.255415
C40	C	0.814485	0.499851	-0.249871
C41	C	0.902869	0.320089	-0.363404
C42	C	0.898817	0.236595	-0.358199
C43	C	0.802333	0.249362	-0.234251
C44	C	0.806385	0.332856	-0.239457
C45	C	0.856654	0.368218	-0.304036
C46	C	0.860702	0.451718	-0.309246
C47	C	0.764223	0.464479	-0.185294
C48	C	0.760170	0.380985	-0.180089
C49	C	0.594835	0.857264	-0.206576
C50	C	0.514507	0.859546	-0.184457
C51	C	0.264583	0.831163	-0.459886
C52	C	0.189105	0.833302	-0.439073
C53	C	0.183416	0.847640	-0.299790
C54	C	0.258892	0.845508	-0.320594
C55	C	0.299471	0.837268	-0.400642
C56	C	0.293780	0.851613	-0.261350
C57	C	0.369253	0.849476	-0.282150
C58	C	0.409837	0.841233	-0.362193
C59	C	0.374943	0.835131	-0.421442
C60	C	0.253204	0.859845	-0.181298
C61	C	0.288092	0.865950	-0.122055
C62	C	0.363563	0.863820	-0.142857
C63	C	0.404147	0.855578	-0.222901
C64	C	0.398457	0.869923	-0.083609
C65	C	0.473929	0.867785	-0.104408
C66	C	0.479619	0.853440	-0.243701
C67	C	1.068200	0.843817	-0.336921
C68	C	1.148527	0.841535	-0.359040
C69	C	0.841856	0.824578	-0.523952
C70	C	0.845365	0.815766	-0.609547
C71	C	0.844234	1.112368	-0.288082
C72	C	0.848549	1.201230	-0.293626
C73	C	0.773500	0.996224	-0.856206
C74	C	0.776795	0.987950	-0.936633
C75	C	0.855255	0.790945	-0.850831
C76	C	0.851960	0.799219	-0.770404
C77	C	0.811080	0.901862	-0.773096
C78	C	0.807780	0.910136	-0.692666
C79	C	0.886245	0.713131	-0.606868
C80	C	0.889540	0.704857	-0.687294
C81	C	0.821179	0.876503	-0.019545
C82	C	0.817670	0.885314	0.066050
C83	C	1.055483	0.581990	-0.320587
C84	C	1.131495	0.490846	-0.337163
C85	C	0.808462	0.614675	-0.003211
C86	C	0.800638	0.534625	0.087928
C87	C	1.045145	0.607952	-0.068384
C88	C	1.117648	0.525620	0.000636
C89	C	0.617890	1.093129	-0.475113
C90	C	0.545387	1.175461	-0.544133
C91	C	0.607551	1.119091	-0.222910
C92	C	0.531539	1.210235	-0.206334
C93	C	0.854572	1.086405	-0.540285
C94	C	0.862397	1.166456	-0.631424
C95	C	1.122994	0.444286	-0.381476
C96	C	1.194409	0.358657	-0.397068
C97	C	1.274325	0.319584	-0.368340
C98	C	1.282825	0.366152	-0.324024
C99	C	1.211411	0.451785	-0.308439
C100	C	0.841161	0.500790	0.167257
C101	C	0.833806	0.425587	0.252900
C102	C	0.785932	0.384214	0.259210
C103	C	0.745404	0.418056	0.179872
C104	C	0.752755	0.493264	0.094232
C105	C	1.199940	0.480573	-0.028927
C106	C	1.268072	0.403224	0.035914
C107	C	1.253911	0.370917	0.130319
C108	C	1.171610	0.415972	0.159882
C109	C	1.103480	0.493326	0.095041
C110	C	0.463096	1.220518	-0.514570
C111	C	0.394964	1.297893	-0.579413
C112	C	0.409126	1.330204	-0.673818
C113	C	0.491426	1.285144	-0.703381
C114	C	0.559556	1.207776	-0.638539
C115	C	0.540042	1.256802	-0.162029
C116	C	0.468628	1.342452	-0.146461
C117	C	0.388713	1.381528	-0.175193
C118	C	0.380212	1.334956	-0.219504
C119	C	0.451625	1.249313	-0.235077
C120	C	0.910277	1.207805	-0.637705
C121	C	0.917646	1.283010	-0.723336
C122	C	0.877128	1.316870	-0.802684
C123	C	0.829246	1.275513	-0.796401
C124	C	0.821883	1.200303	-0.710772
H125	H	0.512655	0.846742	-0.308890
H126	H	0.297619	0.824465	-0.525075
H127	H	0.943273	1.180249	-0.573104
H128	H	0.475566	1.380358	-0.110377
H129	H	0.774489	0.993713	-0.694859
Br130	Br	0.697755	0.539168	-0.013425
H131	H	0.866813	0.398042	0.317490
H132	H	0.502947	1.311461	-0.780253
Br133	Br	1.371237	0.203365	-0.389499
Br134	Br	1.391289	0.313109	-0.285038
Br135	Br	0.343389	0.881083	0.025034
Br136	Br	0.512270	0.838321	-0.390419
H137	H	1.160092	0.389657	0.236755
Br138	Br	0.440071	1.186119	-0.295203
Br139	Br	0.718020	1.135520	-0.859852
H140	H	0.956634	1.316676	-0.728434
H141	H	0.502336	0.872755	-0.056165
H142	H	0.327958	1.334569	-0.555324
H143	H	0.746194	1.064790	-1.004302
H144	H	0.626560	1.171090	-0.662621
H145	H	1.335079	0.366547	0.011827
H146	H	1.211486	0.506865	-0.105793
Br147	Br	1.346384	0.265935	0.218307
Br148	Br	0.291802	1.497761	-0.154050
Br149	Br	0.271748	1.387998	-0.258488
Br150	Br	0.937240	0.585061	-0.494065
H151	H	0.451548	1.194215	-0.437704
Br152	Br	0.991799	0.554448	0.135181
Br153	Br	0.906143	0.556918	0.158718
Br154	Br	0.316654	1.435206	-0.761808
H155	H	0.883130	1.378112	-0.872403
Br156	Br	0.648490	1.203794	-0.123030
Br157	Br	0.910734	0.651656	-0.847199
H158	H	0.761417	0.220545	-0.181664
Br159	Br	0.774255	1.321487	-0.904096
H160	H	0.922826	0.621289	-0.685117
Br161	Br	0.150780	0.862733	-0.153068
Br162	Br	0.756890	1.144204	-0.702263
Br163	Br	0.691965	0.332972	-0.092437
H164	H	0.901631	0.480511	-0.361832
H165	H	0.779953	0.322976	0.328949
H166	H	0.726588	0.503679	-0.136955
Br167	Br	0.971077	0.368097	-0.451056
Br168	Br	0.430009	0.823970	-0.530092
H169	H	0.706425	0.384359	0.185023
H170	H	1.218345	0.489684	-0.272350
H171	H	0.936451	0.197409	-0.406541
Br172	Br	1.014546	0.497297	-0.420478
H173	H	0.150370	0.854344	-0.234612
Br174	Br	0.233020	0.877124	-0.013417
Br175	Br	0.141766	0.825006	-0.519484
H176	H	1.187471	0.320751	-0.433151
