data_functionalizedCrystal
_audit_creation_method	'MofGen! by Chris Wilmer'
_symmetry_space_group_name_H-M	'P1'
_symmetry_Int_Tables_number	1
_symmetry_cell_setting	triclinic
loop_
_symmetry_equiv_pos_as_xyz
  x,y,z
_cell_length_a	15.995343
_cell_length_b	15.072220
_cell_length_c	11.026607
_cell_angle_alpha	90.002838
_cell_angle_beta	83.962400
_cell_angle_gamma	90.008177
loop_
_atom_site_label
_atom_site_type_symbol
_atom_site_fract_x
_atom_site_fract_y
_atom_site_fract_z
O1	O	1.134568	0.073689	-0.156365
O2	O	0.893705	0.073710	-0.175691
O3	O	0.994174	0.073698	0.010624
O4	O	1.034099	0.073701	-0.342680
O5	O	0.994144	-0.073867	0.010614
O6	O	0.893675	-0.073855	-0.175701
O7	O	1.134538	-0.073876	-0.156375
Zn8	Zn	1.014102	-0.097295	-0.166040
Zn9	Zn	1.014142	0.097129	-0.166026
O10	O	1.034069	-0.073864	-0.342690
C11	C	0.862375	-0.000070	-0.174898
C12	C	0.769064	-0.000062	-0.172508
N13	N	1.014081	-0.229984	-0.166048
C14	C	0.598224	-0.000074	-0.168170
C15	C	0.554607	-0.000075	-0.033679
C16	C	0.457547	-0.000415	-0.031148
C17	C	0.430020	-0.000085	-0.163896
C18	C	0.469287	-0.084183	-0.231526
C19	C	0.566320	-0.084249	-0.233121
C20	C	0.566561	0.083566	-0.235079
C21	C	0.469318	0.084667	-0.230114
C22	C	0.334958	-0.000094	-0.161488
C23	C	0.693285	-0.000071	-0.170582
C24	C	1.014139	-0.589185	-0.166021
C25	C	0.960099	-0.551572	-0.265381
C26	C	0.960312	-0.448746	-0.265743
C27	C	1.014109	-0.410981	-0.166035
C28	C	1.105642	-0.448280	-0.193686
C29	C	1.105362	-0.551137	-0.194393
C30	C	0.977381	-0.551285	-0.038716
C31	C	0.975505	-0.448421	-0.039565
C32	C	1.014098	-0.310268	-0.166040
C33	C	1.014157	-0.689898	-0.166019
C34	C	1.165868	-0.000094	-0.157167
C35	C	1.259179	-0.000096	-0.159558
C36	C	0.986794	-0.000083	0.055830
C37	C	0.964837	-0.000078	0.190543
N38	N	1.014168	0.229817	-0.166008
C39	C	1.041450	-0.000081	-0.387896
C40	C	1.063406	-0.000081	-0.522609
C41	C	1.025463	-0.000082	0.264351
C42	C	1.002771	-0.000077	0.403584
H43	H	0.430561	0.059858	0.021792
H44	H	1.132115	-0.000020	0.437510
H45	H	0.896133	-0.000066	0.230432
C46	C	0.581840	0.081384	0.036762
C47	C	0.644019	0.148902	-0.026969
C48	C	0.671259	0.230364	0.043472
C49	C	0.636319	0.244307	0.177644
C50	C	0.574136	0.176787	0.241383
C51	C	0.546897	0.095325	0.170942
H52	H	0.669887	0.138582	-0.126298
H53	H	0.717291	0.280346	-0.003712
H54	H	0.656483	0.304610	0.229789
H55	H	0.548268	0.187107	0.340712
H56	H	0.500865	0.045342	0.218126
C57	C	0.583300	-0.081426	0.035598
C58	C	0.566671	-0.175620	-0.010367
C59	C	0.595368	-0.256972	0.058903
C60	C	0.640694	-0.244131	0.174139
C61	C	0.657325	-0.149933	0.220110
C62	C	0.628628	-0.068581	0.150839
H63	H	0.533116	-0.185129	-0.095677
H64	H	0.583057	-0.326704	0.024872
H65	H	0.661937	-0.304353	0.225417
H66	H	0.690880	-0.140424	0.305420
H67	H	0.640940	0.001151	0.184871
C68	C	0.421886	-0.082334	0.040019
C69	C	0.481742	-0.147651	0.094716
C70	C	0.446082	-0.229575	0.165886
C71	C	0.350566	-0.246182	0.182358
C72	C	0.290704	-0.180864	0.127659
C73	C	0.326364	-0.098940	0.056489
H74	H	0.552455	-0.135359	0.082524
H75	H	0.490396	-0.277928	0.206378
H76	H	0.324168	-0.306827	0.235042
H77	H	0.219992	-0.193156	0.139851
H78	H	0.282050	-0.050587	0.015997
C79	C	0.593069	-0.169494	-0.170591
C80	C	0.572285	-0.260891	-0.222181
C81	C	0.599029	-0.346137	-0.159645
C82	C	0.646557	-0.339985	-0.045520
C83	C	0.667345	-0.248584	0.006076
C84	C	0.640601	-0.163338	-0.056460
H85	H	0.537098	-0.265449	-0.306669
H86	H	0.583640	-0.413798	-0.197840
H87	H	0.666355	-0.403089	0.000773
H88	H	0.702531	-0.244027	0.090564
H89	H	0.655989	-0.095677	-0.018265
C90	C	0.446156	-0.088101	-0.363509
C91	C	0.391212	-0.014804	-0.411527
C92	C	0.368078	-0.018720	-0.543509
C93	C	0.399889	-0.095933	-0.627473
C94	C	0.454837	-0.169235	-0.579457
C95	C	0.477970	-0.165319	-0.447475
H96	H	0.367661	0.042358	-0.349370
H97	H	0.327403	0.035543	-0.579053
H98	H	0.382765	-0.098831	-0.725174
H99	H	0.478388	-0.226397	-0.641613
H100	H	0.518646	-0.219582	-0.411930
H101	H	1.016567	-0.575608	0.035224
C102	C	1.145752	-0.413478	-0.317684
C103	C	1.095621	-0.351265	-0.393941
C104	C	1.135725	-0.316466	-0.517942
C105	C	1.225960	-0.343880	-0.565686
C106	C	1.276096	-0.406096	-0.489428
C107	C	1.235992	-0.440895	-0.365427
H108	H	1.028820	-0.330969	-0.358599
H109	H	1.098611	-0.270410	-0.574393
H110	H	1.255648	-0.318119	-0.657479
H111	H	1.342898	-0.426392	-0.524769
H112	H	1.273106	-0.486951	-0.308975
H113	H	1.134838	-0.575120	-0.287235
C114	C	0.596121	0.169733	-0.177807
C115	C	0.652207	0.235610	-0.256010
C116	C	0.681767	0.321782	-0.198750
C117	C	0.655240	0.342076	-0.063287
C118	C	0.599151	0.276197	0.014924
C119	C	0.569591	0.190026	-0.042336
H120	H	0.671847	0.220589	-0.356295
H121	H	0.723288	0.370549	-0.256648
H122	H	0.677122	0.405865	-0.020901
H123	H	0.579511	0.291219	0.115209
H124	H	0.528070	0.141258	0.015562
H125	H	0.934063	-0.000065	0.443467
C126	C	1.023240	-0.413711	0.065012
C127	C	0.976578	-0.359170	0.169157
C128	C	1.024323	-0.324466	0.273734
C129	C	1.118730	-0.344304	0.274165
C130	C	1.165397	-0.398848	0.170016
C131	C	1.117652	-0.433552	0.065440
H132	H	0.906687	-0.344482	0.168841
H133	H	0.989776	-0.284089	0.350831
H134	H	1.154073	-0.318614	0.351579
H135	H	1.235288	-0.413536	0.170332
H136	H	1.152199	-0.473930	-0.011658
C137	C	1.118280	-0.000094	0.210476
C138	C	1.176589	-0.076728	0.239699
C139	C	1.269408	-0.076742	0.185826
C140	C	1.303918	-0.000122	0.102731
C141	C	1.245608	0.076517	0.073503
C142	C	1.152789	0.076531	0.127376
H143	H	1.151044	-0.133451	0.301215
H144	H	1.312573	-0.133475	0.207463
H145	H	1.372629	-0.000132	0.062851
H146	H	1.271154	0.133240	0.011987
H147	H	1.109624	0.133264	0.105739
C148	C	0.434228	0.168724	-0.163602
C149	C	0.370193	0.160486	-0.049697
C150	C	0.335093	0.244542	0.016813
C151	C	0.364029	0.336835	-0.030580
C152	C	0.428068	0.345076	-0.144491
C153	C	0.463168	0.261021	-0.211001
H154	H	0.348769	0.092162	-0.014609
H155	H	0.287687	0.238440	0.101137
H156	H	0.338046	0.399058	0.018655
H157	H	0.449492	0.413401	-0.179580
H158	H	0.510574	0.267122	-0.295326
H159	H	0.595758	-0.087844	-0.331747
C160	C	0.605659	0.084677	-0.368807
C161	C	0.666014	0.010097	-0.417114
C162	C	0.705118	0.011202	-0.550835
C163	C	0.683866	0.086886	-0.636248
C164	C	0.623508	0.161471	-0.587942
C165	C	0.584404	0.160367	-0.454221
H166	H	0.681749	-0.045933	-0.353885
H167	H	0.749800	-0.044012	-0.586594
H168	H	0.712813	0.087703	-0.735236
H169	H	0.607773	0.217502	-0.651171
H170	H	0.539722	0.215580	-0.418462
C171	C	0.444547	0.091847	-0.360985
C172	C	0.468890	0.017510	-0.453838
C173	C	0.444119	0.024670	-0.584717
C174	C	0.395006	0.106168	-0.622741
C175	C	0.370660	0.180510	-0.529886
C176	C	0.395430	0.173350	-0.399008
H177	H	0.505249	-0.042824	-0.425692
H178	H	0.462142	-0.030363	-0.653454
H179	H	0.376670	0.111468	-0.719625
H180	H	0.334301	0.240845	-0.558032
H181	H	0.377408	0.228384	-0.330270
C182	C	0.994218	-0.586446	-0.392285
C183	C	0.996843	-0.686953	-0.417498
C184	C	1.030987	-0.721816	-0.544397
C185	C	1.062507	-0.656172	-0.646084
C186	C	1.059884	-0.555658	-0.620875
C187	C	1.025739	-0.520795	-0.493975
H188	H	0.973509	-0.735552	-0.342220
H189	H	1.032929	-0.796223	-0.563058
H190	H	1.087783	-0.681979	-0.740023
H191	H	1.083217	-0.507059	-0.696152
H192	H	1.023797	-0.446388	-0.475314
C193	C	1.162720	-0.585027	-0.100611
C194	C	1.143637	-0.560470	0.035038
C195	C	1.201031	-0.594485	0.128688
C196	C	1.277510	-0.653058	0.086687
C197	C	1.296597	-0.677618	-0.048969
C198	C	1.239202	-0.643603	-0.142618
H199	H	1.087020	-0.517108	0.066135
H200	H	1.186901	-0.576304	0.229110
H201	H	1.319997	-0.678238	0.156012
H202	H	1.353214	-0.720979	-0.080066
H203	H	1.253332	-0.661784	-0.243040
C204	C	0.887758	-0.586352	-0.002811
C205	C	0.872127	-0.686829	0.011124
C206	C	0.782502	-0.721898	0.047013
C207	C	0.708508	-0.656489	0.068969
C208	C	0.724136	-0.556006	0.055035
C209	C	0.813761	-0.520937	0.019145
H210	H	0.926905	-0.735254	-0.005129
H211	H	0.770934	-0.796282	0.057328
H212	H	0.642162	-0.682448	0.095536
H213	H	0.669359	-0.507580	0.071287
H214	H	0.825330	-0.446553	0.008830
H215	H	0.892888	-0.423530	-0.249269
H216	H	0.442189	-0.147008	-0.185132
H217	H	0.892506	-0.576328	-0.249177
H218	H	1.147609	-0.423815	-0.123243
H219	H	0.985770	-0.424133	-0.360214
H220	H	0.908075	-0.424043	-0.018580
