data_functionalizedCrystal
_audit_creation_method	'MofGen! by Chris Wilmer'
_symmetry_space_group_name_H-M	'P1'
_symmetry_Int_Tables_number	1
_symmetry_cell_setting	triclinic
loop_
_symmetry_equiv_pos_as_xyz
  x,y,z
_cell_length_a	18.426585
_cell_length_b	21.606444
_cell_length_c	21.606444
_cell_angle_alpha	59.990220
_cell_angle_beta	90.001026
_cell_angle_gamma	60.002832
loop_
_atom_site_label
_atom_site_type_symbol
_atom_site_fract_x
_atom_site_fract_y
_atom_site_fract_z
Zr1	Zr	0.699145	0.677486	-0.081301
O2	O	0.583266	0.806623	-0.180154
O3	O	0.734668	0.548354	-0.050983
O4	O	0.734670	0.677488	-0.180125
O5	O	0.583263	0.677488	0.050842
O6	O	0.854101	0.677483	-0.180120
O7	O	0.583264	0.677490	-0.051012
O8	O	0.854098	0.446487	0.050893
O9	O	0.583266	0.908483	-0.180171
O10	O	0.838949	0.601463	-0.038066
O11	O	0.749818	0.601465	0.037942
O12	O	0.749820	0.753503	-0.114107
O13	O	0.660690	0.753504	-0.038100
Zr14	Zr	0.889623	0.677476	0.081152
Zr15	Zr	0.889624	0.677480	-0.081292
Zr16	Zr	0.699144	0.677483	0.081143
Zr17	Zr	0.699146	0.839942	-0.081328
Zr18	Zr	0.889622	0.515021	0.081179
O19	O	0.854100	0.806608	0.050833
O20	O	0.854102	0.806613	-0.180141
O21	O	0.583264	0.806618	0.050820
O22	O	1.005502	0.548339	0.180005
O23	O	1.005504	0.548344	-0.050969
O24	O	0.734666	0.548349	0.179992
O25	O	1.005505	0.677475	-0.050991
O26	O	0.854098	0.677475	0.179976
O27	O	0.734667	0.677479	0.179970
O28	O	1.005504	0.677472	0.050862
O29	O	0.734671	0.908478	-0.180164
O30	O	0.854097	0.446484	0.180015
O31	O	1.005502	0.446479	0.180022
O32	O	1.005503	0.446482	0.050901
O33	O	0.583265	0.908480	-0.051050
O34	O	0.734670	0.908475	-0.051043
O35	O	0.838948	0.601460	0.113958
O36	O	0.928078	0.601458	0.037951
O37	O	0.838950	0.753497	-0.038091
O38	O	0.749819	0.753499	0.037916
C39	C	0.794383	0.474274	-0.000041
C40	C	0.794382	0.405308	-0.000029
C41	C	0.728585	0.429046	-0.056160
C42	C	0.728587	0.364257	-0.056176
C43	C	0.794384	0.275730	-0.000057
C44	C	0.860188	0.251992	0.056077
C45	C	0.860189	0.316780	0.056089
C46	C	0.860188	-0.009295	0.056029
C47	C	0.860180	-0.074084	0.056014
C48	C	0.728586	0.038182	-0.056235
C49	C	0.728587	0.102971	-0.056223
C50	C	0.794393	0.079227	-0.000092
C51	C	0.794391	0.149480	-0.000077
C52	C	0.794383	0.205478	-0.000069
C53	C	0.556124	0.677490	-0.000086
C54	C	0.475261	0.677493	-0.000090
C55	C	0.409591	0.677496	-0.000090
C56	C	0.327209	0.677492	-0.000083
C57	C	0.261551	0.677483	-0.000074
C58	C	0.179165	0.677479	-0.000068
C59	C	1.032644	0.677472	-0.000063
C60	C	1.113507	0.677470	-0.000059
C61	C	0.794385	0.677486	-0.203267
C62	C	0.794386	0.677488	-0.272229
C63	C	0.794385	0.880688	-0.000109
C64	C	0.794386	0.949654	-0.000120
C65	C	0.860181	0.677487	-0.304624
C66	C	0.860184	0.677481	-0.369417
C67	C	0.794387	0.677482	-0.401817
C68	C	0.728588	0.677480	-0.369416
C69	C	0.728590	0.677480	-0.304621
C70	C	0.728581	0.677479	-0.630726
C71	C	0.728582	0.677482	-0.695527
C72	C	0.860175	0.677480	-0.695522
C73	C	0.860176	0.677480	-0.630727
C74	C	0.794381	0.677473	-0.598330
C75	C	0.794380	0.677478	-0.528073
C76	C	0.794384	0.677483	-0.472076
C77	C	0.794383	0.677476	0.203118
C78	C	0.794382	0.677475	0.272080
C79	C	1.032642	0.474266	-0.000029
C80	C	1.113505	0.405296	-0.000014
C81	C	0.794381	0.474270	0.203152
C82	C	0.794380	0.405301	0.272125
C83	C	1.032641	0.474261	0.203164
C84	C	1.113503	0.405290	0.272141
C85	C	0.556127	0.880701	-0.203313
C86	C	0.475265	0.949672	-0.272290
C87	C	0.556126	0.880696	-0.000120
C88	C	0.475263	0.949666	-0.000136
C89	C	0.794387	0.880693	-0.203301
C90	C	0.794388	0.949661	-0.272275
C91	C	1.104954	0.372910	-0.039693
C92	C	1.180926	0.308115	-0.039693
C93	C	1.265448	0.275703	-0.000010
C94	C	1.273997	0.308095	0.039670
C95	C	1.198026	0.372894	0.039666
C96	C	0.840904	0.372911	0.344202
C97	C	0.840900	0.308117	0.409016
C98	C	0.794376	0.275711	0.401751
C99	C	0.747847	0.308108	0.329667
C100	C	0.747846	0.372905	0.264855
C101	C	1.198010	0.372900	0.264858
C102	C	1.273996	0.308103	0.329663
C103	C	1.265473	0.275693	0.401751
C104	C	1.180957	0.308090	0.409032
C105	C	1.104973	0.372890	0.344227
C106	C	0.390758	0.982070	-0.265007
C107	C	0.314772	1.046887	-0.329813
C108	C	0.323295	1.079300	-0.401900
C109	C	0.407811	1.046899	-0.409181
C110	C	0.483795	0.982088	-0.344377
C111	C	0.483814	0.982059	0.039537
C112	C	0.407842	1.046872	0.039519
C113	C	0.323320	1.079286	-0.000166
C114	C	0.314771	1.046891	-0.039844
C115	C	0.390742	0.982083	-0.039830
C116	C	0.840921	0.982047	-0.264986
C117	C	0.840939	1.046841	-0.329787
C118	C	0.794419	1.079253	-0.401877
C119	C	0.747884	1.046860	-0.409164
C120	C	0.747872	0.982063	-0.344364
H121	H	0.913765	0.179907	0.101767
O122	O	0.241330	1.149208	-0.471788
H123	H	0.241361	1.124355	-0.506010
H124	H	1.205000	0.399254	0.071982
O125	O	0.381555	0.947122	-0.187260
H126	H	0.310020	0.980557	-0.193096
O127	O	1.013799	0.407870	-0.082510
H128	H	0.976949	0.395430	-0.042460
H129	H	0.245963	1.073257	-0.323869
O130	O	1.013831	0.407803	0.352097
H131	H	0.976972	0.479287	0.324474
O132	O	0.931150	0.677489	-0.404354
H133	H	0.969101	0.618143	-0.404187
H134	H	0.414740	1.073298	-0.467882
O135	O	0.574942	0.947134	-0.352235
H136	H	0.568094	0.980558	-0.413251
H137	H	1.204967	0.399278	0.206167
O138	O	0.794397	0.205813	0.471666
H139	H	0.725123	0.230677	0.471634
O140	O	0.241377	1.149181	-0.000177
H141	H	0.201260	1.124306	0.024652
H142	H	1.342805	0.281732	0.323721
H143	H	0.414820	1.073237	0.071832
O144	O	0.891103	0.947093	-0.187236
H145	H	0.942516	0.875607	-0.155804
H146	H	0.709968	0.281713	0.323763
O147	O	1.171697	0.273177	-0.082486
H148	H	1.100159	0.306594	-0.110066
O149	O	0.697807	0.407717	0.187114
H150	H	0.665517	0.374244	0.192959
O151	O	0.931146	0.677472	-0.595776
H152	H	0.976906	0.677460	-0.629183
H153	H	0.245944	1.073292	-0.072155
H154	H	0.913757	0.677492	-0.278251
H155	H	1.327351	0.222929	0.454512
H156	H	1.174031	0.281693	0.467734
O157	O	0.931156	-0.034910	0.116576
H158	H	0.969103	-0.008080	0.089605
O159	O	0.657615	0.389866	-0.116718
H160	H	0.668673	0.329944	-0.107307
H161	H	0.383768	0.955711	-0.072134
O162	O	0.891096	0.273180	0.486756
H163	H	0.883278	0.222686	0.530610
H164	H	0.552629	0.955672	0.071859
H165	H	0.878831	1.073208	-0.323838
O166	O	1.347386	0.205806	-0.000001
H167	H	1.327232	0.188729	-0.034255
O168	O	0.794422	1.149153	-0.471768
H169	H	0.834588	1.166231	-0.454580
H170	H	0.710009	1.073260	-0.467869
H171	H	0.675017	0.677475	-0.395797
O172	O	0.697667	0.947145	-0.352229
H173	H	0.665316	0.980582	-0.413246
H174	H	1.342824	0.281696	0.071979
H175	H	0.674996	0.501127	-0.101851
H176	H	0.675006	0.057509	-0.101943
O177	O	0.657628	0.198454	-0.116757
H178	H	0.611881	0.204077	-0.155798
H179	H	0.675000	0.677481	-0.721905
O180	O	0.931161	-0.169573	0.116535
H181	H	0.976929	-0.175200	0.155563
H182	H	0.913752	0.677481	-0.721905
O183	O	0.931152	0.291183	0.116632
H184	H	0.976900	0.218740	0.155658
H185	H	0.675006	0.677476	-0.604354
H186	H	0.675014	0.677479	-0.278245
H187	H	0.878790	0.399289	0.350132
