data_functionalizedCrystal
_audit_creation_method	'MofGen! by Chris Wilmer'
_symmetry_space_group_name_H-M	'P1'
_symmetry_Int_Tables_number	1
_symmetry_cell_setting	triclinic
loop_
_symmetry_equiv_pos_as_xyz
  x,y,z
_cell_length_a	6.817900
_cell_length_b	23.752963
_cell_length_c	13.212942
_cell_angle_alpha	90.520383
_cell_angle_beta	106.298313
_cell_angle_gamma	100.066732
loop_
_atom_site_label
_atom_site_type_symbol
_atom_site_fract_x
_atom_site_fract_y
_atom_site_fract_z
V1	V	-4.029542	-0.062298	-0.326008
O2	O	-4.034214	0.020314	-0.319172
O3	O	-3.964487	-0.140186	-0.324385
O4	O	-3.989906	-0.053740	-0.467915
O5	O	-4.008618	-0.066730	-0.174648
V6	V	-4.514192	-0.053315	-0.307831
O7	O	-4.288327	-0.082004	-0.365882
O8	O	-4.705605	-0.033609	-0.267957
O9	O	-4.356041	0.024572	-0.309454
O10	O	-4.626918	-0.135928	-0.314667
O11	O	-4.652513	-0.048884	-0.459191
O12	O	-4.330622	-0.061873	-0.165924
C13	C	-3.805152	-0.159410	-0.319398
C14	C	-3.833307	-0.223035	-0.319017
C15	C	-3.837576	-0.049140	-0.502484
C16	C	-3.886343	-0.042658	-0.618498
C17	C	-3.925067	0.018081	-0.766700
C18	C	-3.879237	0.011992	-0.657695
C19	C	-3.939290	-0.091222	-0.688316
C20	C	-3.985119	-0.085133	-0.797321
C21	C	-3.978002	-0.030479	-0.836509
C22	C	-4.023819	-0.024390	-0.945517
C23	C	-4.083884	-0.127605	-0.976136
C24	C	-4.038055	-0.133694	-0.867130
C25	C	-3.963800	-0.614352	-0.220902
C26	C	-3.990277	-0.674134	-0.220529
O27	O	-3.966408	-0.702313	-0.139006
N28	N	-4.047758	-0.707257	-0.315980
C29	C	-4.078784	-0.680594	-0.411811
O30	O	-4.130110	-0.714257	-0.492965
C31	C	-4.052322	-0.620814	-0.412183
C32	C	-3.994819	-0.587694	-0.316725
C33	C	-3.906303	-0.581232	-0.125451
C34	C	-3.879824	-0.521454	-0.125825
C35	C	-3.910843	-0.494796	-0.221648
C36	C	-3.968340	-0.527915	-0.317098
C37	C	-4.083362	-0.594153	-0.508014
C38	C	-4.056895	-0.534367	-0.508378
C39	C	-3.999392	-0.501247	-0.412920
C40	C	-3.972879	-0.441479	-0.413295
N41	N	-3.915398	-0.408356	-0.317844
C42	C	-3.884380	-0.435015	-0.222020
C43	C	-4.134358	-0.806138	-0.411022
C44	C	-4.160807	-0.865918	-0.410650
C45	C	-4.072301	-0.859454	-0.219368
C46	C	-4.045838	-0.799673	-0.219740
C47	C	-4.076877	-0.773016	-0.315571
C48	C	-3.828774	-0.309477	-0.222812
C49	C	-3.802289	-0.249693	-0.223193
C50	C	-3.890807	-0.256163	-0.414475
C51	C	-3.917280	-0.315941	-0.414094
C52	C	-3.886265	-0.342596	-0.318254
O53	O	-3.996721	-0.413261	-0.494777
O54	O	-3.833084	-0.401346	-0.140880
C55	C	-4.178717	0.043794	-0.314438
C56	C	-4.129801	0.107418	-0.314826
C57	C	-4.146293	-0.066476	-0.131349
C58	C	-4.076766	-0.072955	-0.015335
H59	H	-4.018030	0.020111	-0.977421
H60	H	-4.130185	-0.621109	-0.585746
F61	F	-4.140136	-0.179288	-1.050438
F62	F	-4.039294	-0.887836	-0.117383
H63	H	-3.916047	-0.234447	-0.492492
F64	F	-3.818640	-0.486213	-0.024225
H65	H	-4.207596	-0.892879	-0.488381
F66	F	-3.873287	-0.609595	-0.023454
H67	H	-3.919276	0.062583	-0.798608
F68	F	-3.822903	0.063677	-0.583402
H69	H	-3.755457	-0.222729	-0.145456
F70	F	-4.167379	-0.777773	-0.513024
H71	H	-3.803516	-0.331172	-0.144769
F72	F	-3.946889	-0.149384	-0.646591
F73	F	-4.045633	-0.191857	-0.825412
H74	H	-3.999014	-0.772710	-0.142009
H75	H	-4.082197	-0.512667	-0.586417
H76	H	-3.964069	-0.342908	-0.491823
