data_functionalizedCrystal
_audit_creation_method	'MofGen! by Chris Wilmer'
_symmetry_space_group_name_H-M	'P1'
_symmetry_Int_Tables_number	1
_symmetry_cell_setting	triclinic
loop_
_symmetry_equiv_pos_as_xyz
  x,y,z
_cell_length_a	6.817900
_cell_length_b	16.462622
_cell_length_c	11.168143
_cell_angle_alpha	86.305838
_cell_angle_beta	108.508824
_cell_angle_gamma	75.974386
loop_
_atom_site_label
_atom_site_type_symbol
_atom_site_fract_x
_atom_site_fract_y
_atom_site_fract_z
V1	V	-4.087074	0.115898	-0.394137
O2	O	-4.070562	-0.005556	-0.386184
O3	O	-4.040945	0.229794	-0.391875
O4	O	-4.063715	0.114122	-0.565836
O5	O	-4.047635	0.110917	-0.211018
V6	V	-4.567163	0.101370	-0.372182
O7	O	-4.355865	0.147767	-0.442298
O8	O	-4.748568	0.069502	-0.324022
O9	O	-4.390085	-0.012525	-0.374444
O10	O	-4.701071	0.222824	-0.380135
O11	O	-4.723999	0.106351	-0.555301
O12	O	-4.367315	0.103147	-0.200483
C13	C	-3.885688	0.257559	-0.385769
C14	C	-3.929426	0.350669	-0.385064
C15	C	-3.972679	0.552929	-0.267787
C16	C	-4.013799	0.640418	-0.267134
C17	C	-4.128645	0.664336	-0.498505
C18	C	-4.087539	0.576848	-0.499157
C19	C	-4.009545	0.521147	-0.383794
C20	C	-4.091771	0.696123	-0.382489
C21	C	-4.136357	0.790982	-0.381782
C22	C	-3.964960	0.426281	-0.384500
C23	C	-4.215644	0.959713	-0.380537
C24	C	-4.171890	0.866600	-0.381219
C25	C	-3.914732	0.110006	-0.607673
C26	C	-3.976932	0.109307	-0.748040
C27	C	-3.962195	0.036101	-0.793206
C28	C	-4.026481	0.035377	-0.938283
C29	C	-4.179639	0.107265	-0.158640
C30	C	-4.096677	0.107960	-0.018271
H31	H	-3.983778	0.666290	-0.172669
O32	O	-4.111661	0.182812	-0.972085
C33	C	-4.189264	0.250153	-1.074630
H34	H	-4.281668	0.228764	-1.165560
H35	H	-4.300940	0.306229	-1.052630
H36	H	-4.047944	0.269921	-1.088621
O37	O	-4.204661	0.718537	-0.610489
C38	C	-4.405899	0.773898	-0.623056
H39	H	-4.420215	0.777971	-0.524521
H40	H	-4.419965	0.839570	-0.670205
H41	H	-4.540239	0.748923	-0.684605
H42	H	-4.013982	-0.027298	-0.977192
H43	H	-3.901976	-0.026037	-0.724469
H44	H	-4.037130	0.171445	-0.816777
H45	H	-3.909172	0.507578	-0.173850
H46	H	-4.117575	0.550973	-0.593630
