data_functionalizedCrystal
_audit_creation_method	'MofGen! by Chris Wilmer'
_symmetry_space_group_name_H-M	'P1'
_symmetry_Int_Tables_number	1
_symmetry_cell_setting	triclinic
loop_
_symmetry_equiv_pos_as_xyz
  x,y,z
_cell_length_a	16.120530
_cell_length_b	19.120786
_cell_length_c	19.120904
_cell_angle_alpha	89.866497
_cell_angle_beta	89.648943
_cell_angle_gamma	89.436752
loop_
_atom_site_label
_atom_site_type_symbol
_atom_site_fract_x
_atom_site_fract_y
_atom_site_fract_z
Zn1	Zn	1.234714	-0.351016	-0.434804
Zn2	Zn	1.734714	0.148984	0.065196
Zn3	Zn	1.235121	-0.463278	-0.312580
Zn4	Zn	1.735121	0.036722	0.187420
Zn5	Zn	1.102066	-0.340129	-0.312176
Zn6	Zn	1.602066	0.159871	0.187824
Zn7	Zn	1.090202	-0.461789	-0.423869
Zn8	Zn	1.590202	0.038211	0.076131
O9	O	1.165526	-0.404053	-0.370857
O10	O	1.665526	0.095947	0.129143
O11	O	1.350931	-0.371087	-0.423337
O12	O	1.850931	0.128913	0.076663
O13	O	1.222606	-0.443009	-0.214631
O14	O	1.722606	0.056991	0.285369
O15	O	1.124456	-0.243676	-0.332850
O16	O	1.624456	0.256324	0.167150
O17	O	1.351230	-0.453566	-0.333539
O18	O	1.851230	0.046434	0.166461
O19	O	1.221912	-0.251675	-0.422944
O20	O	1.721912	0.248325	0.077056
O21	O	1.124851	-0.352532	-0.214334
O22	O	1.624851	0.147468	0.285666
O23	O	0.984329	-0.351088	-0.322246
O24	O	1.484329	0.148912	0.177754
O25	O	1.104237	-0.451027	-0.523215
O26	O	1.604237	0.048973	-0.023215
O27	O	0.975613	-0.440471	-0.404307
O28	O	1.475613	0.059529	0.095693
O29	O	1.210409	-0.369643	-0.531249
O30	O	1.710409	0.130357	-0.031249
O31	O	1.211103	-0.560978	-0.322936
O32	O	1.711103	-0.060978	0.177064
O33	O	1.104631	-0.559884	-0.404699
O34	O	1.604631	-0.059884	0.095301
C35	C	0.949852	-0.394437	-0.362047
C36	C	1.449852	0.105563	0.137953
C37	C	0.857584	-0.390341	-0.358293
C38	C	1.357584	0.109659	0.141707
C39	C	0.688649	-0.382847	-0.351447
C40	C	1.188649	0.117153	0.148553
C41	C	0.643238	-0.425313	-0.390316
C42	C	1.143238	0.074687	0.109684
C43	C	0.549237	-0.421143	-0.386507
C44	C	1.049237	0.078857	0.113493
C45	C	0.782658	-0.387016	-0.355255
C46	C	1.282658	0.112984	0.144745
C47	C	1.156646	-0.585816	-0.362691
C48	C	1.656646	-0.085816	0.137309
C49	C	1.152921	-0.663579	-0.359224
C50	C	1.652921	-0.163579	0.140776
C51	C	1.201870	-0.704216	-0.404538
C52	C	1.701870	-0.204216	0.095462
C53	C	1.198368	-0.777283	-0.401281
C54	C	1.698368	-0.277283	0.098719
C55	C	1.145920	-0.809711	-0.352707
C56	C	1.645920	-0.309711	0.147293
C57	C	1.096965	-0.769069	-0.307392
C58	C	1.596965	-0.269069	0.192608
C59	C	1.100464	-0.696003	-0.310652
C60	C	1.600464	-0.196003	0.189348
C61	C	1.132815	-1.030116	-0.340517
C62	C	1.632815	-0.530116	0.159483
C63	C	1.129321	-1.103187	-0.337259
C64	C	1.629321	-0.603187	0.162741
C65	C	1.230723	-1.111396	-0.431149
C66	C	1.730723	-0.611396	0.068851
C67	C	1.234221	-1.038329	-0.434403
C68	C	1.734221	-0.538329	0.065597
C69	C	1.185263	-0.997693	-0.389090
C70	C	1.685263	-0.497693	0.110910
C71	C	1.142340	-0.884397	-0.349376
C72	C	1.642340	-0.384397	0.150624
C73	C	1.188839	-0.923008	-0.392425
C74	C	1.688839	-0.423008	0.107575
C75	C	1.382042	-0.413707	-0.379703
C76	C	1.882042	0.086293	0.120297
C77	C	1.474308	-0.417821	-0.383472
C78	C	1.974308	0.082179	0.116528
C79	C	1.155954	-0.411384	-0.553325
C80	C	1.655954	0.088616	-0.053325
C81	C	1.151875	-0.414507	-0.631082
C82	C	1.651875	0.085493	-0.131082
C83	C	1.174462	-0.221582	-0.379072
C84	C	1.674462	0.278418	0.120928
C85	C	1.178270	-0.143824	-0.382572
C86	C	1.678270	0.356176	0.117428
C87	C	1.205234	-0.373604	-0.671796
C88	C	1.705234	0.126396	-0.171796
C89	C	1.201392	-0.376536	-0.744857
C90	C	1.701392	0.123464	-0.244857
C91	C	1.144194	-0.420376	-0.777202
C92	C	1.644194	0.079624	-0.277202
C93	C	1.090829	-0.461280	-0.736482
C94	C	1.590829	0.038720	-0.236482
C95	C	1.094668	-0.458344	-0.663423
C96	C	1.594668	0.041656	-0.163423
C97	C	1.129833	-0.431357	-0.997584
C98	C	1.629833	0.068643	-0.497584
C99	C	1.126000	-0.434292	-1.070648
C100	C	1.626000	0.065708	-0.570648
C101	C	1.236562	-0.349547	-1.079018
C102	C	1.736562	0.150453	-0.579018
C103	C	1.240400	-0.346618	-1.005957
C104	C	1.740400	0.153382	-0.505957
C105	C	1.187032	-0.387520	-0.965244
C106	C	1.687032	0.112480	-0.465244
C107	C	1.140267	-0.423375	-0.851881
C108	C	1.640267	0.076625	-0.351881
C109	C	1.190956	-0.384516	-0.890566
C110	C	1.690956	0.115484	-0.390566
C111	C	1.175110	-0.396703	-0.189104
C112	C	1.675110	0.103297	0.310896
C113	C	1.179359	-0.393389	-0.111363
C114	C	1.679359	0.106611	0.388637
H115	H	1.238234	-0.810367	-0.438175
H116	H	1.738234	-0.310367	0.061825
N117	N	1.072266	-0.475480	-0.953696
N118	N	1.572266	0.024520	-0.453696
H119	H	1.105990	-0.508193	-0.923300
H120	H	1.605990	-0.008193	-0.423300
H121	H	1.036783	-0.444073	-0.923138
H122	H	1.536783	0.055927	-0.423138
N123	N	0.685254	-0.477626	-0.438177
N124	N	1.185254	0.022374	0.061823
H125	H	0.668346	-0.526498	-0.424382
H126	H	1.168346	-0.026498	0.075618
H127	H	0.668129	-0.468141	-0.488052
H128	H	1.168129	0.031859	0.011948
H129	H	0.656931	-0.343361	-0.315311
H130	H	1.156931	0.156639	0.184689
H131	H	1.237523	-0.348819	-0.864227
H132	H	1.737523	0.151181	-0.364227
H133	H	1.280010	-0.316246	-1.112174
H134	H	1.780010	0.183754	-0.612174
H135	H	1.276928	-1.011927	-0.473955
H136	H	1.776928	-0.511927	0.026045
H137	H	1.086608	-1.129587	-0.297703
H138	H	1.586608	-0.629587	0.202297
H139	H	1.270581	-1.144489	-0.468041
H140	H	1.770581	-0.644489	0.031959
N141	N	1.258444	-0.669242	-0.456925
N142	N	1.758444	-0.169242	0.043075
H143	H	1.288920	-0.706076	-0.485137
H144	H	1.788920	-0.206076	0.014863
H145	H	1.224377	-0.638733	-0.489246
H146	H	1.724377	-0.138733	0.010754
H147	H	1.079420	-0.469993	-1.096981
H148	H	1.579420	0.030007	-0.596981
N149	N	1.080021	-0.986293	-0.291640
N150	N	1.580021	-0.486293	0.208360
H151	H	1.046272	-1.017925	-0.260371
H152	H	1.546272	-0.517925	0.239629
H153	H	1.116996	-0.956172	-0.262026
H154	H	1.616996	-0.456172	0.237974
H155	H	1.054257	-0.795478	-0.267844
H156	H	1.554257	-0.295478	0.232156
N157	N	1.245400	-0.888030	-0.444816
N158	N	1.745400	-0.388030	0.055184
H159	H	1.286832	-0.858268	-0.419334
H160	H	1.786832	-0.358268	0.080666
H161	H	1.275827	-0.924897	-0.473017
H162	H	1.775827	-0.424897	0.026983
N163	N	1.047667	-0.652170	-0.261781
N164	N	1.547667	-0.152170	0.238219
H165	H	1.013911	-0.683799	-0.230514
H166	H	1.513911	-0.183799	0.269486
H167	H	1.084635	-0.622046	-0.232165
H168	H	1.584635	-0.122046	0.267835
N169	N	1.085784	-0.919377	-0.296978
N170	N	1.585784	-0.419377	0.203022
H171	H	1.055306	-0.882549	-0.268761
H172	H	1.555306	-0.382549	0.231239
H173	H	1.044396	-0.949141	-0.322504
H174	H	1.544396	-0.449141	0.177496
H175	H	1.251814	-0.337908	-0.645467
H176	H	1.751814	0.162092	-0.145467
H177	H	1.244845	-0.343230	-0.778003
H178	H	1.744845	0.156770	-0.278003
H179	H	1.286979	-0.310921	-0.979627
H180	H	1.786979	0.189079	-0.479627
N181	N	1.029128	-0.508548	-0.771376
N182	N	1.529128	-0.008548	-0.271376
H183	H	1.059675	-0.543692	-0.801612
H184	H	1.559675	-0.043692	-0.301612
H185	H	0.995913	-0.533967	-0.734461
H186	H	1.495913	-0.033967	-0.234461
H187	H	1.051209	-0.491644	-0.630274
H188	H	1.551209	0.008356	-0.130274
N189	N	1.078585	-0.470656	-0.886783
N190	N	1.578585	0.029344	-0.386783
H191	H	1.089693	-0.520708	-0.872356
H192	H	1.589693	-0.020708	-0.372356
H193	H	1.020497	-0.456580	-0.872126
H194	H	1.520497	0.043420	-0.372126
