data_functionalizedCrystal
_audit_creation_method	'MofGen! by Chris Wilmer'
_symmetry_space_group_name_H-M	'P1'
_symmetry_Int_Tables_number	1
_symmetry_cell_setting	triclinic
loop_
_symmetry_equiv_pos_as_xyz
  x,y,z
_cell_length_a	10.654554
_cell_length_b	10.654550
_cell_length_c	9.730223
_cell_angle_alpha	89.998791
_cell_angle_beta	89.998863
_cell_angle_gamma	95.514163
loop_
_atom_site_label
_atom_site_type_symbol
_atom_site_fract_x
_atom_site_fract_y
_atom_site_fract_z
O1	O	1.667831	-0.176420	0.114247
O2	O	1.302353	-0.193220	0.114259
O3	O	1.493495	-0.002081	0.114244
O4	O	1.476689	-0.367559	0.114262
O5	O	1.493493	-0.002086	-0.114336
O6	O	1.302351	-0.193225	-0.114321
O7	O	1.667829	-0.176425	-0.114333
Zn8	Zn	1.485089	-0.184826	-0.150619
Zn9	Zn	1.485092	-0.184819	0.150545
O10	O	1.476687	-0.367564	-0.114318
C11	C	1.255554	-0.191988	-0.000030
C12	C	1.116111	-0.188294	-0.000025
C13	C	0.905603	-0.297367	-0.000032
C14	C	1.036624	-0.300839	-0.000021
C15	C	1.064571	-0.072269	-0.000026
C16	C	0.933552	-0.068799	-0.000027
C17	C	0.826121	-0.409919	-0.000043
C18	C	0.877652	-0.525944	-0.000039
C19	C	1.008674	-0.529416	-0.000029
C20	C	1.088164	-0.416863	-0.000021
C21	C	1.492260	0.044714	-0.000045
C22	C	1.488568	0.184158	-0.000043
C23	C	1.714627	-0.177657	-0.000042
C24	C	1.854070	-0.181351	-0.000037
C25	C	1.477922	-0.414360	-0.000026
C26	C	1.481614	-0.553803	-0.000019
N27	N	1.485096	-0.184829	-0.356155
C28	C	1.601109	0.263642	-0.000046
C29	C	1.597633	0.394662	-0.000029
C30	C	1.369064	0.366703	-0.000012
C31	C	1.372541	0.235685	-0.000019
C32	C	1.569756	-0.100222	-0.428088
C33	C	1.569753	-0.100207	-0.571971
C34	C	1.400426	-0.269417	-0.571976
C35	C	1.400424	-0.269426	-0.428096
C36	C	1.654428	-0.015626	-0.356148
C37	C	1.739095	0.068988	-0.428081
C38	C	1.739092	0.069003	-0.571964
C39	C	1.654421	-0.015595	-0.643914
N40	N	1.485095	-0.184806	0.356081
H41	H	1.129302	0.019365	-0.000021
H42	H	1.280891	0.170965	-0.000012
H43	H	1.274599	0.408672	0.000005
H44	H	1.654441	-0.015633	-0.238991
H45	H	0.719436	-0.407105	-0.000057
O46	O	1.821247	0.151088	-0.357982
C47	C	1.803055	0.132980	-0.215564
H48	H	1.757041	0.033543	-0.195901
H49	H	1.898025	0.146139	-0.160860
H50	H	1.739390	0.204613	-0.174767
H51	H	1.808023	0.137907	-0.630530
O52	O	1.318015	-0.351469	-0.641805
C53	C	1.193518	-0.329915	-0.606623
H54	H	1.192035	-0.229358	-0.567062
H55	H	1.130621	-0.343764	-0.701248
H56	H	1.157228	-0.399192	-0.523113
H57	H	0.812923	-0.617580	-0.000035
O58	O	1.058526	-0.642223	-0.000080
C59	C	0.960274	-0.740812	-0.000052
H60	H	0.870979	-0.704831	-0.043332
H61	H	0.988359	-0.821743	-0.066413
H62	H	0.942035	-0.775585	0.109609
H63	H	1.695585	0.221693	-0.000063
O64	O	0.883423	0.043864	0.000206
C65	C	0.808443	0.052692	0.118572
H66	H	0.840003	-0.013201	0.201318
H67	H	0.819305	0.153809	0.158305
H68	H	0.705394	0.024609	0.091808
H69	H	1.654417	-0.015567	-0.761073
O70	O	1.318363	-0.351667	-0.358058
C71	C	1.386288	-0.429800	-0.274858
H72	H	1.484130	-0.380699	-0.253311
H73	H	1.334044	-0.449175	-0.173677
H74	H	1.395615	-0.522705	-0.330305
O75	O	1.215420	-0.420393	0.000181
C76	C	1.251521	-0.484206	0.118591
H77	H	1.167856	-0.548937	0.158057
H78	H	1.332309	-0.542710	0.091979
H79	H	1.283591	-0.412575	0.201484
H80	H	1.689275	0.459374	-0.000029
