data_functionalizedCrystal
_audit_creation_method	'MofGen! by Chris Wilmer'
_symmetry_space_group_name_H-M	'P1'
_symmetry_Int_Tables_number	1
_symmetry_cell_setting	triclinic
loop_
_symmetry_equiv_pos_as_xyz
  x,y,z
_cell_length_a	16.109301
_cell_length_b	11.792254
_cell_length_c	15.186229
_cell_angle_alpha	89.996078
_cell_angle_beta	89.999006
_cell_angle_gamma	83.830091
loop_
_atom_site_label
_atom_site_type_symbol
_atom_site_fract_x
_atom_site_fract_y
_atom_site_fract_z
O1	O	1.103822	0.145886	-0.073181
O2	O	0.861846	0.164040	-0.073193
O3	O	0.988701	-0.010258	-0.073180
O4	O	0.976967	0.320184	-0.073193
O5	O	0.988692	-0.010260	0.073277
O6	O	0.861837	0.164038	0.073264
O7	O	1.103813	0.145883	0.073277
Zn8	Zn	0.982824	0.154960	0.096524
Zn9	Zn	0.982835	0.154963	-0.096440
O10	O	0.976959	0.320182	0.073264
C11	C	0.830863	0.163304	0.000034
C12	C	0.738558	0.161099	0.000030
C13	C	0.430015	0.257316	0.000041
C14	C	0.516746	0.259399	0.000036
C15	C	0.535639	0.052599	0.000032
C16	C	0.448910	0.050518	0.000031
C17	C	0.396100	0.152880	0.000040
C18	C	0.569559	0.157044	0.000036
C19	C	0.663596	0.159300	0.000030
C20	C	0.302058	0.150623	0.000044
C21	C	0.987957	-0.052543	0.000048
C22	C	0.985745	-0.178537	0.000047
C23	C	0.983947	-0.280858	0.000044
C24	C	0.981700	-0.409225	0.000036
C25	C	1.134796	0.146620	0.000048
C26	C	1.227102	0.148825	0.000047
C27	C	0.977702	0.362467	0.000034
C28	C	0.979915	0.488461	0.000029
N29	N	0.982822	0.154957	0.228216
N30	N	0.982843	0.154957	-0.228133
C31	C	1.039013	0.077804	0.453945
C32	C	1.039016	0.077801	0.546135
C33	C	0.926647	0.232114	0.546132
C34	C	0.926641	0.232111	0.453944
C35	C	0.982829	0.154957	0.407853
C36	C	0.982837	0.154958	0.592231
C37	C	0.982840	0.154955	0.692187
C38	C	0.982825	0.154957	0.307891
H39	H	0.544354	0.344441	0.000036
H40	H	1.084763	0.014979	0.416420
H41	H	0.421297	-0.034531	0.000027
N42	N	1.096408	-0.001022	0.593202
N43	N	1.146565	-0.069903	0.552035
H44	H	1.187100	-0.125579	0.585275
N45	N	0.589595	-0.051945	0.000022
N46	N	0.667030	-0.050075	0.000022
H47	H	0.705137	-0.123911	0.000016
N48	N	0.869235	0.310925	0.406870
N49	N	0.819076	0.379810	0.448031
H50	H	0.778532	0.435468	0.414785
H51	H	0.880901	0.294933	0.583669
H52	H	0.387020	0.340666	0.000048
