data_functionalizedCrystal
_audit_creation_method	'MofGen! by Chris Wilmer'
_symmetry_space_group_name_H-M	'P1'
_symmetry_Int_Tables_number	1
_symmetry_cell_setting	triclinic
loop_
_symmetry_equiv_pos_as_xyz
  x,y,z
_cell_length_a	10.723023
_cell_length_b	14.853559
_cell_length_c	9.198806
_cell_angle_alpha	89.999007
_cell_angle_beta	89.996513
_cell_angle_gamma	84.049501
loop_
_atom_site_label
_atom_site_type_symbol
_atom_site_fract_x
_atom_site_fract_y
_atom_site_fract_z
O1	O	1.655904	0.126442	-0.120870
O2	O	1.292629	0.138546	-0.120875
O3	O	1.483975	0.001315	-0.120871
O4	O	1.464557	0.263673	-0.120874
O5	O	1.483960	0.001315	0.120914
O6	O	1.292613	0.138546	0.120910
O7	O	1.655889	0.126442	0.120915
Cu8	Cu	1.474250	0.132494	0.142989
Cu9	Cu	1.474268	0.132494	-0.142949
O10	O	1.464542	0.263673	0.120911
C11	C	1.246130	0.137666	0.000016
C12	C	1.107603	0.135031	0.000014
C13	C	1.045835	0.133856	0.125265
C14	C	0.902659	0.131132	0.125265
C15	C	1.483090	-0.032278	0.000019
C16	C	1.480459	-0.132376	0.000011
C17	C	1.469306	-0.555610	-0.131787
C18	C	1.469289	-0.555605	0.131817
C19	C	1.471772	-0.461559	0.131818
C20	C	1.473019	-0.414533	0.000015
C21	C	1.471785	-0.461555	-0.131789
C22	C	1.472994	-0.414529	0.263620
C23	C	1.475475	-0.320477	0.263627
C24	C	1.476731	-0.273451	0.131822
C25	C	1.475498	-0.320478	0.000012
C26	C	1.476746	-0.273453	-0.131791
C27	C	1.475521	-0.320479	-0.263602
C28	C	1.473041	-0.414528	-0.263594
C29	C	1.479211	-0.179402	0.131814
C30	C	1.479224	-0.179397	-0.131794
C31	C	1.702387	0.127323	0.000020
C32	C	1.840915	0.129958	0.000013
C33	C	1.465427	0.297267	0.000018
C34	C	1.468058	0.397365	0.000016
N35	N	1.474246	0.132493	0.344103
N36	N	1.474281	0.132488	-0.344063
C37	C	1.554590	0.074620	0.416302
C38	C	1.554609	0.074617	0.583714
H39	H	1.098951	0.134861	0.232496
F40	F	1.476852	-0.270421	-0.403872
F41	F	1.471743	-0.464583	-0.403864
H42	H	1.054488	0.134018	-0.107217
F43	F	1.384373	0.197260	0.574796
H44	H	0.849539	0.130127	0.232497
F45	F	1.480561	-0.129358	-0.272080
H46	H	1.471971	-0.452824	0.370927
F47	F	1.384348	0.197250	0.425302
F48	F	0.910331	0.131285	-0.140158
H49	H	1.468314	-0.593903	-0.239104
F50	F	1.644526	0.009856	0.664864
H51	H	1.468265	-0.593898	0.239125
F52	F	1.480511	-0.129357	0.272086
F53	F	1.476773	-0.270437	0.403910
F54	F	1.644259	0.009698	0.335104
