data_functionalizedCrystal
_audit_creation_method	'MofGen! by Chris Wilmer'
_symmetry_space_group_name_H-M	'P1'
_symmetry_Int_Tables_number	1
_symmetry_cell_setting	triclinic
loop_
_symmetry_equiv_pos_as_xyz
  x,y,z
_cell_length_a	17.077404
_cell_length_b	12.759399
_cell_length_c	17.077396
_cell_angle_alpha	89.973164
_cell_angle_beta	89.983895
_cell_angle_gamma	90.013086
loop_
_atom_site_label
_atom_site_type_symbol
_atom_site_fract_x
_atom_site_fract_y
_atom_site_fract_z
Zn1	Zn	1.200080	-0.418315	-0.443832
Zn2	Zn	1.200010	-0.594018	-0.312572
Zn3	Zn	1.068816	-0.418347	-0.312583
Zn4	Zn	1.068797	-0.593946	-0.443798
O5	O	1.134426	-0.506156	-0.378196
O6	O	1.309917	-0.441638	-0.426430
O7	O	1.182585	-0.570758	-0.202727
O8	O	1.086266	-0.271322	-0.330012
O9	O	1.309866	-0.570727	-0.329994
O10	O	1.182705	-0.271298	-0.426441
O11	O	1.086198	-0.441694	-0.202735
O12	O	0.958967	-0.441624	-0.329979
O13	O	1.086233	-0.570604	-0.553650
O14	O	0.958953	-0.570636	-0.426383
O15	O	1.182686	-0.441569	-0.553675
O16	O	1.182567	-0.741029	-0.329961
O17	O	1.086165	-0.740976	-0.426372
C18	C	0.930478	-0.506127	-0.378179
C19	C	0.843228	-0.506139	-0.378190
C20	C	0.802265	-0.439042	-0.428481
C21	C	0.720285	-0.439049	-0.428485
C22	C	0.679269	-0.506159	-0.378201
C23	C	0.720237	-0.573258	-0.327904
C24	C	0.802216	-0.573246	-0.327897
C25	C	0.549367	-0.573282	-0.327923
C26	C	0.467382	-0.573297	-0.327931
C27	C	0.467436	-0.439086	-0.428511
C28	C	0.549415	-0.439073	-0.428504
C29	C	0.590378	-0.506174	-0.378208
C30	C	1.134378	-0.779124	-0.378179
C31	C	1.134429	-0.895900	-0.378197
C32	C	1.184682	-0.950755	-0.328053
C33	C	1.184733	-1.060479	-0.328079
C34	C	1.084269	-1.060484	-0.428396
C35	C	1.084224	-0.950762	-0.428373
C36	C	1.277388	-1.210359	-0.300146
C37	C	1.327635	-1.265218	-0.249989
C38	C	1.339718	-1.229671	-0.173399
C39	C	1.301543	-1.139267	-0.146949
C40	C	1.251291	-1.084415	-0.197102
C41	C	1.239223	-1.119960	-0.273703
C42	C	0.991567	-0.800880	-0.456298
C43	C	0.941310	-0.746025	-0.506447
C44	C	0.929219	-0.781570	-0.583039
C45	C	0.967380	-0.871977	-0.609486
C46	C	1.017636	-0.926831	-0.559337
C47	C	1.029729	-0.891279	-0.482746
C48	C	1.339170	-0.506187	-0.378215
C49	C	1.426420	-0.506200	-0.378222
C50	C	1.134465	-0.506075	-0.582941
C51	C	1.134482	-0.506040	-0.670191
C52	C	1.134495	-0.232123	-0.378232
C53	C	1.134525	-0.115346	-0.378246
C54	C	1.084308	-0.438828	-0.711184
C55	C	1.084321	-0.438804	-0.793165
C56	C	1.134512	-0.505988	-0.834150
C57	C	1.184688	-0.573207	-0.793151
C58	C	1.184670	-0.573236	-0.711172
C59	C	1.184722	-0.573142	-0.964021
C60	C	1.184740	-0.573112	-1.046005
C61	C	1.084373	-0.438710	-1.046014
C62	C	1.084355	-0.438739	-0.964035
C63	C	1.134532	-0.505957	-0.923041
C64	C	1.134432	-0.506162	-0.174249
C65	C	1.134567	-0.505900	-0.086999
H66	H	0.835567	-0.627882	-0.286944
C67	C	0.847376	-0.365214	-0.483798
N68	N	0.881351	-0.309601	-0.525461
H69	H	0.686835	-0.627895	-0.286958
H70	H	1.043489	-0.384027	-0.930667
H71	H	1.225550	-0.627915	-0.826527
H72	H	1.225533	-0.627959	-0.677796
C73	C	1.004865	-0.761772	-0.372042
N74	N	1.014876	-0.732316	-0.308579
H75	H	0.888293	-0.736898	-0.623869
H76	H	1.043462	-0.384078	-0.826538
C77	C	0.422375	-0.365277	-0.483840
N78	N	0.388432	-0.309691	-0.525515
H79	H	1.048712	-1.000442	-0.580878
H80	H	0.433989	-0.627944	-0.286986
C81	C	1.239914	-0.890411	-0.272862
N82	N	1.281518	-0.844962	-0.231292
H83	H	1.043442	-0.384114	-0.677820
H84	H	1.043518	-0.383978	-1.079395
H85	H	1.225610	-0.627819	-1.079374
C86	C	1.264105	-1.249466	-0.384402
N87	N	1.254098	-1.278928	-0.447863
H88	H	1.220211	-1.010809	-0.175568
C89	C	1.314847	-1.100163	-0.062696
N90	N	1.324876	-1.070701	0.000762
H91	H	1.225588	-0.627869	-0.930646
C92	C	0.899323	-0.646582	-0.477349
N93	N	0.867699	-0.571684	-0.455432
H94	H	0.582808	-0.384432	-0.469454
C95	C	0.675230	-0.365240	-0.483811
N96	N	0.641295	-0.309645	-0.525486
H97	H	1.358717	-1.338824	-0.271532
H98	H	1.380631	-1.274344	-0.132561
C99	C	0.594424	-0.647101	-0.272597
N100	N	0.628361	-0.702704	-0.230930
H101	H	0.957535	-0.900918	-0.671854
C102	C	1.029038	-1.120842	-0.483578
N103	N	0.987433	-1.166303	-0.525139
