data_functionalizedCrystal
_audit_creation_method	'MofGen! by Chris Wilmer'
_symmetry_space_group_name_H-M	'P1'
_symmetry_Int_Tables_number	1
_symmetry_cell_setting	triclinic
loop_
_symmetry_equiv_pos_as_xyz
  x,y,z
_cell_length_a	11.792241
_cell_length_b	12.503552
_cell_length_c	11.792241
_cell_angle_alpha	93.543652
_cell_angle_beta	95.806584
_cell_angle_gamma	93.543175
loop_
_atom_site_label
_atom_site_type_symbol
_atom_site_fract_x
_atom_site_fract_y
_atom_site_fract_z
O1	O	1.513413	0.089217	-0.149055
O2	O	1.183074	0.089242	-0.165086
O3	O	1.356260	0.089221	0.008100
O4	O	1.340228	0.089237	-0.322240
O5	O	1.343220	-0.089420	-0.004936
O6	O	1.170035	-0.089399	-0.178122
O7	O	1.500374	-0.089424	-0.162091
Cu8	Cu	1.334014	-0.105723	-0.171296
Cu9	Cu	1.349434	0.105540	-0.155880
O10	O	1.327188	-0.089404	-0.335276
C11	C	1.134264	-0.000076	-0.170596
C12	C	1.008251	-0.000066	-0.167581
N13	N	1.323176	-0.254315	-0.182139
C14	C	0.777536	-0.000097	-0.162041
C15	C	0.905923	-0.000080	-0.165119
C16	C	1.376218	-0.526754	-0.129075
C17	C	1.307242	-0.473422	-0.198089
C18	C	1.316110	-0.351499	-0.189212
C19	C	1.367352	-0.648688	-0.137950
C20	C	1.549185	-0.000105	-0.156580
C21	C	1.675198	-0.000107	-0.159594
C22	C	1.348733	-0.000099	0.043873
C23	C	1.345718	-0.000098	0.169887
N24	N	1.360281	0.254132	-0.145028
C25	C	1.334715	-0.000081	-0.371049
C26	C	1.337730	-0.000076	-0.497062
C27	C	1.340177	-0.000079	0.400600
C28	C	1.343256	-0.000089	0.272214
H29	H	1.441927	-0.480852	-0.063329
H30	H	1.241531	-0.519330	-0.263840
