data_functionalizedCrystal
_audit_creation_method	'MofGen! by Chris Wilmer'
_symmetry_space_group_name_H-M	'P1'
_symmetry_Int_Tables_number	1
_symmetry_cell_setting	triclinic
loop_
_symmetry_equiv_pos_as_xyz
  x,y,z
_cell_length_a	13.635800
_cell_length_b	10.943624
_cell_length_c	19.551823
_cell_angle_alpha	85.537113
_cell_angle_beta	78.336624
_cell_angle_gamma	108.838799
loop_
_atom_site_label
_atom_site_type_symbol
_atom_site_fract_x
_atom_site_fract_y
_atom_site_fract_z
V1	V	-2.039646	-0.403155	0.096657
O2	O	-2.037475	-0.394859	-0.004664
O3	O	-2.010827	-0.400995	0.191672
O4	O	-2.028907	-0.578712	0.095161
O5	O	-2.019270	-0.215912	0.092515
V6	V	-2.280314	-0.380686	0.084538
O7	O	-2.172673	-0.452441	0.123239
O8	O	-2.372385	-0.331400	0.057956
O9	O	-2.197530	-0.382846	-0.010477
O10	O	-2.341183	-0.388982	0.185859
O11	O	-2.359389	-0.567929	0.088680
O12	O	-2.179449	-0.205129	0.086034
V13	V	-1.539646	-0.403155	0.096657
O14	O	-1.537475	-0.394859	-0.004664
O15	O	-1.510827	-0.400995	0.191672
O16	O	-1.528907	-0.578712	0.095161
O17	O	-1.519270	-0.215912	0.092515
V18	V	-1.780314	-0.380686	0.084538
O19	O	-1.672673	-0.452441	0.123239
O20	O	-1.872385	-0.331400	0.057956
O21	O	-1.697530	-0.382846	-0.010477
O22	O	-1.841183	-0.388982	0.185859
O23	O	-1.859389	-0.567929	0.088680
O24	O	-1.679449	-0.205129	0.086034
C25	C	-1.931768	-0.394789	0.214835
C26	C	-1.948938	-0.394193	0.292511
C27	C	-1.954831	-0.621483	0.091725
C28	C	-1.986662	-0.765006	0.091132
C29	C	-1.909825	-0.842128	0.087134
C30	C	-1.993391	-0.948489	0.146473
C31	C	-1.959825	-0.914380	0.030741
C32	C	-2.069823	-0.869490	0.150527
C33	C	-2.036226	-0.835357	0.034742
C34	C	-2.119857	-0.941688	0.094098
C35	C	-2.108259	-0.389048	-0.033636
C36	C	-2.080709	-0.389653	-0.111311
C37	C	-2.085196	-0.162351	0.089472
C38	C	-2.042985	-0.018827	0.090062
C39	C	-1.431768	-0.394789	0.214835
C40	C	-1.448938	-0.394193	0.292511
C41	C	-1.454831	-0.621483	0.091725
C42	C	-1.486662	-0.765006	0.091132
C43	C	-2.048382	-0.400370	0.332556
C44	C	-2.064519	-0.399823	0.405542
C45	C	-1.981198	-0.393074	0.438478
C46	C	-1.881742	-0.386904	0.398424
C47	C	-1.865612	-0.387464	0.325440
C48	C	-1.918307	-0.311204	0.544970
C49	C	-1.934439	-0.310636	0.617951
C50	C	-2.030948	-0.391353	0.663584
C51	C	-2.111336	-0.472621	0.636225
C52	C	-2.095205	-0.473181	0.563242
C53	C	-1.998679	-0.392467	0.517616
C54	C	-2.147896	-0.396939	0.782770
C55	C	-2.164031	-0.396400	0.855758
C56	C	-1.981248	-0.383467	0.848637
C57	C	-1.965119	-0.384019	0.775651
C58	C	-2.048445	-0.390749	0.742722
C59	C	-1.608259	-0.389048	-0.033636
C60	C	-1.580709	-0.389653	-0.111311
C61	C	-1.585196	-0.162351	0.089472
C62	C	-1.542985	-0.018827	0.090062
C63	C	-1.548396	-0.400387	0.332551
C64	C	-1.564548	-0.399847	0.405538
C65	C	-1.481238	-0.393104	0.438483
C66	C	-1.381773	-0.386914	0.398438
C67	C	-1.365625	-0.387464	0.325453
C68	C	-1.653745	-0.383463	-0.151351
C69	C	-1.627866	-0.384009	-0.224338
C70	C	-1.528952	-0.390754	-0.257283
C71	C	-1.455910	-0.396941	-0.217238
C72	C	-1.481787	-0.396385	-0.144253
C73	C	-1.409825	-0.842128	0.087134
C74	C	-1.493391	-0.948489	0.146473
C75	C	-1.459825	-0.914380	0.030741
C76	C	-1.569823	-0.869490	0.150527
C77	C	-1.536226	-0.835357	0.034742
C78	C	-1.619857	-0.941688	0.094098
H79	H	-1.820762	-0.798662	0.084269
H80	H	-1.413629	-0.934826	-0.019872
H81	H	-1.913629	-0.934826	-0.019872
C82	C	-1.969375	-1.015030	0.210282
N83	N	-1.951278	-1.065145	0.258339
H84	H	-1.553961	-0.786078	-0.012496
H85	H	-2.116023	-0.849262	0.201207
H86	H	-1.645542	-0.404884	0.438133
H87	H	-2.208960	-0.984951	0.097057
C88	C	-1.499017	-0.392492	0.518769
N89	N	-1.512412	-0.392026	0.579241
H90	H	-2.116237	-0.405858	0.305751
H91	H	-1.313948	-0.381425	0.425273
H92	H	-2.053961	-0.786078	-0.012496
C93	C	-1.256204	-0.380629	0.281415
N94	N	-1.173783	-0.375478	0.248248
C95	C	-2.217505	-0.561413	0.686416
N96	N	-2.297471	-0.628285	0.724223
H97	H	-1.507895	-0.391205	-0.316712
H98	H	-2.145501	-0.404852	0.438154
C99	C	-1.469375	-1.015030	0.210282
N100	N	-1.451278	-1.065145	0.258339
C101	C	-2.183622	-0.562595	0.533151
N102	N	-2.250215	-0.629952	0.510487
C103	C	-1.762556	-0.376032	-0.115127
N104	N	-1.844512	-0.370425	-0.087848
C105	C	-1.756208	-0.380657	0.281388
N106	N	-1.673802	-0.375525	0.248206
C107	C	-2.239556	-0.404346	0.746545
N108	N	-2.308595	-0.409923	0.719263
C109	C	-2.273433	-0.403198	0.899808
N110	N	-2.355836	-0.408316	0.932988
H111	H	-1.616241	-0.405869	0.305737
C112	C	-1.708245	-0.377258	-0.268369
N113	N	-1.768794	-0.372191	-0.301530
H114	H	-1.913409	-0.377980	0.875453
H115	H	-1.884139	-0.378981	0.743045
C116	C	-1.846026	-0.221199	0.648036
N117	N	-1.779436	-0.153819	0.670693
H118	H	-1.375373	-0.402431	-0.244073
C119	C	-1.790088	-0.379471	0.434654
N120	N	-1.721051	-0.373873	0.461942
C121	C	-1.812136	-0.222399	0.494779
N122	N	-1.732172	-0.155513	0.456977
C123	C	-1.632235	-0.842168	0.218996
N124	N	-1.679238	-0.821586	0.270568
C125	C	-1.289506	-0.783393	0.083265
N126	N	-1.198885	-0.739151	0.080356
H127	H	-1.422310	-0.401437	-0.111657
C128	C	-1.740232	-1.000187	0.098108
N129	N	-1.830900	-1.044269	0.101137
