data_functionalizedCrystal
_audit_creation_method	'MofGen! by Chris Wilmer'
_symmetry_space_group_name_H-M	'P1'
_symmetry_Int_Tables_number	1
_symmetry_cell_setting	triclinic
loop_
_symmetry_equiv_pos_as_xyz
  x,y,z
_cell_length_a	21.395362
_cell_length_b	13.031981
_cell_length_c	21.395355
_cell_angle_alpha	82.800183
_cell_angle_beta	89.956060
_cell_angle_gamma	97.204883
loop_
_atom_site_label
_atom_site_type_symbol
_atom_site_fract_x
_atom_site_fract_y
_atom_site_fract_z
Zn1	Zn	0.926274	-0.415794	-0.322901
Zn2	Zn	0.912901	-0.590555	-0.204806
Zn3	Zn	0.821486	-0.415842	-0.218098
Zn4	Zn	0.808181	-0.590577	-0.309509
O5	O	0.867211	-0.503192	-0.263828
O6	O	1.012181	-0.438947	-0.307277
O7	O	0.900746	-0.567390	-0.118890
O8	O	0.846551	-0.269571	-0.243168
O9	O	1.002356	-0.567343	-0.220513
O10	O	0.923538	-0.269535	-0.320166
O11	O	0.833583	-0.439030	-0.128656
O12	O	0.732041	-0.439051	-0.230182
O13	O	0.823875	-0.567380	-0.398964
O14	O	0.722266	-0.567427	-0.297341
O15	O	0.910638	-0.438968	-0.408803
O16	O	0.887846	-0.736823	-0.207527
O17	O	0.810908	-0.736839	-0.284452
C18	C	0.704419	-0.503247	-0.263751
C19	C	0.634774	-0.503296	-0.263732
C20	C	0.846499	-0.774756	-0.243108
C21	C	0.837696	-0.890932	-0.234265
C22	C	0.596981	-0.570230	-0.298634
C23	C	0.531547	-0.570205	-0.298664
C24	C	0.503909	-0.503256	-0.263779
C25	C	0.541711	-0.436309	-0.228874
C26	C	0.607143	-0.436329	-0.228851
C27	C	0.400824	-0.494836	-0.208016
C28	C	0.335392	-0.494823	-0.208038
C29	C	0.302093	-0.503188	-0.263854
C30	C	0.334233	-0.511587	-0.319647
C31	C	0.399666	-0.511607	-0.319623
C32	C	0.432959	-0.503226	-0.263802
C33	C	0.193349	-0.570098	-0.298792
C34	C	0.127915	-0.570065	-0.298823
C35	C	0.138079	-0.436174	-0.229028
C36	C	0.203513	-0.436202	-0.229002
C37	C	0.231143	-0.503169	-0.263883
C38	C	0.871838	-0.942626	-0.268456
C39	C	0.862741	-1.062700	-0.259317
C40	C	1.030638	-0.503137	-0.263906
C41	C	1.100281	-0.503114	-0.263939
C42	C	0.867264	-0.503171	-0.427253
C43	C	0.867287	-0.503162	-0.496895
C44	C	0.888020	-0.230568	-0.284643
C45	C	0.896888	-0.114391	-0.293514
C46	C	0.912463	-0.436295	-0.534733
C47	C	0.912465	-0.436250	-0.600172
C48	C	0.867297	-0.503091	-0.627769
C49	C	0.822114	-0.569962	-0.589923
C50	C	0.822109	-0.569998	-0.524486
C51	C	0.855172	-0.597205	-0.724261
C52	C	0.855182	-0.597172	-0.789697
C53	C	0.867310	-0.502980	-0.829598
C54	C	0.879442	-0.408820	-0.804057
C55	C	0.879437	-0.408855	-0.738620
C56	C	0.867298	-0.503059	-0.698724
C57	C	0.912491	-0.436059	-0.938393
C58	C	0.912489	-0.436012	-1.003833
C59	C	0.822140	-0.569734	-0.993583
C60	C	0.822139	-0.569771	-0.928144
C61	C	0.867318	-0.502935	-0.900553
C62	C	0.867199	-0.503138	-0.101045
C63	C	0.867320	-0.502852	-0.031426
H64	H	0.619473	-0.624759	-0.327038
H65	H	0.949276	-0.381555	-1.034640
H66	H	0.115577	-0.381658	-0.200627
C67	C	0.814150	-1.122987	-0.210629
H68	H	0.814412	-1.195781	-0.210871
H69	H	0.773384	-1.105219	-0.221087
H70	H	0.824685	-1.105165	-0.169887
H71	H	0.949250	-0.381870	-0.512273
H72	H	0.801727	-0.935569	-0.198229
H73	H	0.785318	-0.624448	-0.493679
H74	H	0.500770	-0.624710	-0.327089
C75	C	0.772459	-0.643264	-1.023931
H76	H	0.778935	-0.633674	-1.068323
H77	H	0.731526	-0.627997	-1.014342
H78	H	0.776277	-0.713496	-1.007861
C79	C	0.648717	-0.362704	-0.190452
H80	H	0.622887	-0.322829	-0.169677
H81	H	0.677754	-0.317233	-0.217923
H82	H	0.671151	-0.402637	-0.160054
H83	H	0.785355	-0.624228	-0.897336
H84	H	0.425831	-0.518444	-0.365053
C85	C	0.297614	-0.520785	-0.381048
H86	H	0.254043	-0.519558	-0.373076
H87	H	0.303482	-0.584468	-0.396159
H88	H	0.312719	-0.463988	-0.411787
H89	H	0.932854	-1.069759	-0.329558
H90	H	0.907802	-0.897991	-0.304498
C91	C	0.841835	-0.700741	-0.817787
H92	H	0.834599	-0.756841	-0.784653
H93	H	0.877042	-0.709913	-0.842641
H94	H	0.805617	-0.699371	-0.843390
C95	C	0.437449	-0.485634	-0.146616
H96	H	0.481021	-0.486839	-0.154593
H97	H	0.422348	-0.542424	-0.115876
H98	H	0.431579	-0.421944	-0.131508
C99	C	0.962165	-0.362702	-0.641800
H100	H	0.989073	-0.322908	-0.615995
H101	H	0.941681	-0.317152	-0.670783
H102	H	0.986412	-0.402681	-0.664296
H103	H	0.309228	-0.487990	-0.162607
H104	H	0.845130	-0.673888	-0.691779
H105	H	0.785336	-0.624381	-0.612398
C106	C	0.892773	-0.305291	-0.710522
H107	H	0.891036	-0.318807	-0.665836
H108	H	0.862045	-0.261330	-0.724570
H109	H	0.933473	-0.271849	-0.723819
H110	H	0.889319	-0.332120	-0.836544
C111	C	0.245086	-0.362586	-0.190600
H112	H	0.219255	-0.322716	-0.169822
H113	H	0.274122	-0.317111	-0.218070
H114	H	0.267521	-0.402521	-0.160203
C115	C	0.223747	-0.643746	-0.337166
H116	H	0.191865	-0.683595	-0.357966
H117	H	0.245762	-0.689239	-0.309675
H118	H	0.252359	-0.603829	-0.367542
H119	H	0.949275	-0.381631	-0.915927
C120	C	0.086341	-0.643711	-0.337209
H121	H	0.112170	-0.683605	-0.357970
H122	H	0.063897	-0.603806	-0.367607
H123	H	0.057312	-0.689179	-0.309721
C124	C	0.511311	-0.362667	-0.190502
H125	H	0.466928	-0.372248	-0.195510
H126	H	0.527418	-0.292466	-0.205094
H127	H	0.520825	-0.377868	-0.147223
