data_functionalizedCrystal
_audit_creation_method	'MofGen! by Chris Wilmer'
_symmetry_space_group_name_H-M	'P1'
_symmetry_Int_Tables_number	1
_symmetry_cell_setting	triclinic
loop_
_symmetry_equiv_pos_as_xyz
  x,y,z
_cell_length_a	10.489741
_cell_length_b	16.992695
_cell_length_c	15.455322
_cell_angle_alpha	87.152313
_cell_angle_beta	92.706228
_cell_angle_gamma	87.603698
loop_
_atom_site_label
_atom_site_type_symbol
_atom_site_fract_x
_atom_site_fract_y
_atom_site_fract_z
O1	O	-1.708924	-0.107290	-0.072078
O2	O	-1.338633	-0.117680	-0.072091
O3	O	-1.522294	0.001666	-0.072078
O4	O	-1.525264	-0.226636	-0.072091
O5	O	-1.511787	-0.005131	0.072184
O6	O	-1.328127	-0.124477	0.072170
O7	O	-1.698417	-0.114087	0.072184
Cu8	Cu	-1.512313	-0.119903	0.085349
Cu9	Cu	-1.524738	-0.111864	-0.085257
O10	O	-1.514757	-0.233433	0.072170
C11	C	-1.285780	-0.120293	0.000038
C12	C	-1.143947	-0.117945	0.000033
C13	C	-1.513221	0.027501	0.000053
C14	C	-1.501826	0.114610	0.000052
C15	C	-1.751271	-0.111474	0.000053
C16	C	-1.893105	-0.113821	0.000052
C17	C	-1.069200	-0.042010	0.000045
C18	C	-0.985374	-0.074530	-0.071083
C19	C	-0.975051	-0.081249	0.071147
C20	C	-1.061994	-0.150494	-0.071155
C21	C	-1.051674	-0.157206	0.071139
C22	C	-0.967882	-0.189781	-0.000007
C23	C	-1.523830	-0.259268	0.000038
C24	C	-1.535225	-0.346377	0.000033
N25	N	-1.503582	-0.125556	0.205344
C26	C	-1.611775	0.164229	0.000057
C27	C	-1.601061	0.246077	0.000048
C28	C	-1.480396	0.278303	0.000041
C29	C	-1.370439	0.228677	0.000033
C30	C	-1.381155	0.146832	0.000036
C31	C	-1.435984	0.522152	0.000027
C32	C	-1.425276	0.604004	0.000028
C33	C	-1.655899	0.621398	0.000041
C34	C	-1.666604	0.539550	0.000049
C35	C	-1.556647	0.489931	0.000036
N36	N	-1.469442	0.361964	0.000035
N37	N	-1.567604	0.406272	0.000036
C38	C	-1.581638	-0.074873	0.250744
C39	C	-1.575048	-0.079156	0.341551
C40	C	-1.490408	-0.134125	0.386957
C41	C	-1.412344	-0.184810	0.341551
C42	C	-1.418928	-0.180524	0.250745
C43	C	-1.461988	-0.152608	0.658536
C44	C	-1.455412	-0.156892	0.749348
C45	C	-1.618116	-0.051236	0.749343
C46	C	-1.624698	-0.046957	0.658535
C47	C	-1.546629	-0.097639	0.613137
N48	N	-1.483673	-0.138506	0.479777
N49	N	-1.553358	-0.093255	0.520319
N50	N	-1.533468	-0.106210	0.794748
H51	H	-1.113465	0.020419	-0.000040
H52	H	-1.650567	-0.030114	0.213780
N53	N	-1.659283	-0.024518	0.390519
H54	H	-1.713923	0.010943	0.347976
H55	H	-1.716009	-0.056703	0.428166
N56	N	-1.719652	0.299592	0.000061
H57	H	-1.716441	0.331423	0.053537
H58	H	-1.724184	0.336403	-0.053454
H59	H	-1.693618	-0.002196	0.621568
N60	N	-1.774490	0.674913	0.000055
H61	H	-1.749397	0.731653	0.000053
H62	H	-1.830613	0.666922	-0.053421
H63	H	-1.681674	-0.009972	0.786314
N64	N	-1.317390	0.468644	0.000018
H65	H	-1.342479	0.411904	0.000014
H66	H	-1.269069	0.481676	-0.053466
N67	N	-0.924524	-0.042426	0.150805
H68	H	-0.949776	-0.073078	0.204524
H69	H	-0.828337	-0.041584	0.150441
N70	N	-1.377782	-0.207266	0.609578
H71	H	-1.323167	-0.242738	0.652123
H72	H	-1.432892	-0.240467	0.571884
N73	N	-1.295125	0.638765	0.000018
H74	H	-1.227093	0.594913	0.000009
H75	H	-1.289565	0.674864	-0.053461
N76	N	-0.909595	-0.272547	-0.000060
H77	H	-0.934834	-0.303975	0.053140
H78	H	-0.941449	-0.298517	-0.053847
H79	H	-1.710033	0.137997	0.000068
H80	H	-1.386485	-0.201659	0.786314
N81	N	-1.321043	-0.244095	0.390519
H82	H	-1.328716	-0.239122	0.454934
H83	H	-1.342601	-0.299092	0.374633
H84	H	-0.955944	-0.039567	-0.131215
N85	N	-1.090722	-0.203479	0.150791
H86	H	-1.139750	-0.250348	0.132666
H87	H	-1.011922	-0.222419	0.187244
N88	N	-1.796749	0.504792	0.000062
H89	H	-1.864778	0.548647	0.000064
H90	H	-1.810117	0.473727	-0.053415
N91	N	-1.112321	-0.189264	-0.150902
H92	H	-1.208457	-0.190589	-0.150430
H93	H	-1.087590	-0.158244	-0.204513
N94	N	-1.334733	-0.235184	0.201773
H95	H	-1.280115	-0.270658	0.244315
H96	H	-1.389850	-0.268384	0.164082
H97	H	-1.272192	0.254922	0.000022
H98	H	-1.291622	0.106432	0.000032
