data_functionalizedCrystal
_audit_creation_method	'MofGen! by Chris Wilmer'
_symmetry_space_group_name_H-M	'P1'
_symmetry_Int_Tables_number	1
_symmetry_cell_setting	triclinic
loop_
_symmetry_equiv_pos_as_xyz
  x,y,z
_cell_length_a	17.699077
_cell_length_b	27.731996
_cell_length_c	16.176319
_cell_angle_alpha	89.987220
_cell_angle_beta	89.993140
_cell_angle_gamma	82.950982
loop_
_atom_site_label
_atom_site_type_symbol
_atom_site_fract_x
_atom_site_fract_y
_atom_site_fract_z
O1	O	1.003525	0.061115	-0.068746
O2	O	1.503525	0.561115	0.431254
O3	O	0.783073	0.069071	-0.068752
O4	O	1.283073	0.569071	0.431248
O5	O	0.900166	-0.005281	-0.068731
O6	O	1.400166	0.494719	0.431269
O7	O	0.886432	0.135467	-0.068767
O8	O	1.386432	0.635467	0.431233
O9	O	0.900151	-0.005286	0.068762
O10	O	1.400151	0.494714	0.568762
O11	O	0.783057	0.069066	0.068741
O12	O	1.283057	0.569066	0.568741
O13	O	1.003509	0.061110	0.068747
O14	O	1.503509	0.561110	0.568747
Cu15	Cu	0.893282	0.065088	0.081298
Cu16	Cu	1.393282	0.565088	0.581298
Cu17	Cu	0.893301	0.065093	-0.081303
Cu18	Cu	1.393301	0.565093	0.418697
O19	O	0.886416	0.135462	0.068726
O20	O	1.386416	0.635462	0.568726
C21	C	0.754871	0.068784	-0.000006
C22	C	1.254871	0.568784	0.499994
C23	C	0.670860	0.067930	-0.000007
C24	C	1.170860	0.567930	0.499993
C25	C	0.631388	0.067525	0.074941
C26	C	1.131388	0.567525	0.574941
C27	C	0.552453	0.066715	0.074943
C28	C	1.052453	0.566715	0.574943
C29	C	0.512991	0.066314	-0.000006
C30	C	1.012991	0.566314	0.499994
C31	C	0.552469	0.066717	-0.074960
C32	C	1.052469	0.566717	0.425040
C33	C	0.631404	0.067524	-0.074960
C34	C	1.131404	0.567524	0.425040
C35	C	0.234135	0.063464	-0.074961
C36	C	0.734135	0.563464	0.425039
C37	C	0.155195	0.062659	-0.074955
C38	C	0.655195	0.562659	0.425045
C39	C	0.155185	0.062656	0.074942
C40	C	0.655185	0.562656	0.574942
C41	C	0.234119	0.063462	0.074942
C42	C	0.734119	0.563462	0.574942
C43	C	0.273591	0.063863	-0.000012
C44	C	0.773591	0.563863	0.499988
C45	C	0.359182	0.064740	-0.000012
C46	C	0.859182	0.564740	0.499988
C47	C	0.427401	0.065440	-0.000006
C48	C	0.927401	0.565440	0.499994
C49	C	0.899876	-0.023292	0.000018
C50	C	1.399876	0.476708	0.500018
C51	C	0.899027	-0.076951	0.000027
C52	C	1.399027	0.423049	0.500027
C53	C	0.893689	-0.409684	-0.074961
C54	C	1.393689	0.090316	0.425039
C55	C	0.890462	-0.611354	-0.074976
C56	C	1.390462	-0.111354	0.425024
O57	O	0.890019	-0.637424	-0.138716
O58	O	1.390019	-0.137424	0.361284
N59	N	0.890052	-0.636575	-0.000029
N60	N	1.390052	-0.136575	0.499971
C61	C	0.890444	-0.611375	0.074927
C62	C	1.390444	-0.111375	0.574927
O63	O	0.890014	-0.637454	0.138673
O64	O	1.390014	-0.137454	0.638673
C65	C	0.893666	-0.409706	0.074940
C66	C	1.393666	0.090294	0.574940
C67	C	0.894083	-0.384488	-0.000011
C68	C	1.394083	0.115512	0.499989
C69	C	0.894105	-0.384466	-0.149907
C70	C	1.394105	0.115534	0.350093
C71	C	0.894916	-0.334052	-0.149903
C72	C	1.394916	0.165948	0.350097
C73	C	0.895310	-0.308856	-0.074953
C74	C	1.395310	0.191144	0.425047
C75	C	0.894894	-0.334074	-0.000007
C76	C	1.394894	0.165926	0.499993
C77	C	0.894053	-0.384507	0.149895
C78	C	1.394053	0.115493	0.649895
C79	C	0.894856	-0.334086	0.149892
C80	C	1.394856	0.165914	0.649892
C81	C	0.895274	-0.308868	0.074940
C82	C	1.395274	0.191132	0.574940
C83	C	0.896099	-0.258464	0.074948
C84	C	1.396099	0.241536	0.574948
N85	N	0.896509	-0.233243	0.000001
N86	N	1.396509	0.266757	0.500001
C87	C	0.896114	-0.258439	-0.074949
C88	C	1.396114	0.241561	0.425051
C89	C	0.888754	-0.717255	0.074914
C90	C	1.388754	-0.217255	0.574914
C91	C	0.887950	-0.767672	0.074911
C92	C	1.387950	-0.267672	0.574911
C93	C	0.887966	-0.767647	-0.074992
C94	C	1.387966	-0.267647	0.425008
C95	C	0.888776	-0.717229	-0.074988
C96	C	1.388776	-0.217229	0.425012
C97	C	0.889164	-0.692034	-0.000033
C98	C	1.389164	-0.192034	0.499967
C99	C	0.897818	-0.152566	-0.074934
C100	C	1.397818	0.347434	0.425066
C101	C	0.898632	-0.102147	-0.074923
C102	C	1.398632	0.397853	0.425077
C103	C	0.898612	-0.102176	0.074979
C104	C	1.398612	0.397824	0.574979
C105	C	0.897802	-0.152591	0.074969
C106	C	1.397802	0.347409	0.574969
C107	C	0.897402	-0.177784	0.000005
C108	C	1.397402	0.322216	0.500005
O109	O	0.896534	-0.232362	0.138655
O110	O	1.396534	0.267638	0.638655
O111	O	0.896528	-0.232350	-0.138686
O112	O	1.396528	0.267650	0.361314
C113	C	0.892878	-0.460098	-0.074966
C114	C	1.392878	0.039902	0.425034
C115	C	0.892461	-0.485316	-0.000020
C116	C	1.392461	0.014684	0.499980
C117	C	0.892856	-0.460120	0.074930
C118	C	1.392856	0.039880	0.574930
C119	C	0.891657	-0.535733	-0.000023
C120	C	1.391657	-0.035733	0.499977
C121	C	0.891263	-0.560929	-0.074973
C122	C	1.391263	-0.060929	0.425027
C123	C	0.891672	-0.535708	-0.149920
C124	C	1.391672	-0.035708	0.350080
C125	C	0.892483	-0.485294	-0.149916
C126	C	1.392483	0.014706	0.350084
C127	C	0.892446	-0.485341	0.149877
C128	C	1.392446	0.014659	0.649877
C129	C	0.891636	-0.535755	0.149866
C130	C	1.391636	-0.035755	0.649866
C131	C	0.891242	-0.560952	0.074916
C132	C	1.391242	-0.060952	0.574916
C133	C	1.031711	0.061397	-0.000001
C134	C	1.531711	0.561397	0.499999
C135	C	1.115722	0.062251	-0.000005
C136	C	1.615722	0.562251	0.499995
C137	C	0.886706	0.153473	-0.000025
C138	C	1.386706	0.653473	0.499975
C139	C	0.887556	0.207132	-0.000039
C140	C	1.387556	0.707132	0.499961
N141	N	0.893274	0.065083	0.195663
N142	N	1.393274	0.565083	0.695663
N143	N	0.893314	0.065094	-0.195669
N144	N	1.393314	0.565094	0.304331
C145	C	0.945138	0.032174	0.238937
C146	C	1.445138	0.532174	0.738937
C147	C	0.945142	0.032173	0.325484
C148	C	1.445142	0.532173	0.825484
C149	C	0.893285	0.065085	0.368756
C150	C	1.393285	0.565085	0.868756
C151	C	0.841415	0.097996	0.325477
C152	C	1.341415	0.597996	0.825477
C153	C	0.841408	0.097994	0.238931
C154	C	1.341408	0.597994	0.738931
C155	C	0.841441	0.098005	0.674505
C156	C	1.341441	0.598005	1.174505
C157	C	0.841453	0.098006	0.761056
C158	C	1.341453	0.598006	1.261056
C159	C	0.945175	0.032184	0.761058
C160	C	1.445175	0.532184	1.261058
C161	C	0.945168	0.032182	0.674512
C162	C	1.445168	0.532182	1.174512
C163	C	0.893296	0.065092	0.631240
C164	C	1.393296	0.565092	1.131240
C165	C	0.893291	0.065091	0.537396
C166	C	1.393291	0.565091	1.037396
C167	C	0.893292	0.065088	0.462599
C168	C	1.393292	0.565088	0.962599
H169	H	0.663512	0.067856	0.135973
H170	H	1.163512	0.567856	0.635973
C171	C	0.674822	0.067970	-0.157410
C172	C	1.174822	0.567970	0.342590
N173	N	0.707525	0.068305	-0.219513
N174	N	1.207525	0.568305	0.280487
C175	C	1.002179	-0.004042	0.373081
C176	C	1.502179	0.495958	0.873081
N177	N	1.045135	-0.031325	0.408930
N178	N	1.545135	0.468675	0.908930
H179	H	0.799188	0.124792	0.360714
H180	H	1.299188	0.624792	0.860714
H181	H	0.897489	-0.173072	-0.135977
H182	H	1.397489	0.326928	0.364023
C183	C	0.784360	0.134201	0.191331
C184	C	1.284360	0.634201	0.691331
N185	N	0.741389	0.161474	0.155479
N186	N	1.241389	0.661474	0.655479
C187	C	0.895287	-0.306374	0.232351
C188	C	1.395287	0.193626	0.732351
N189	N	0.895614	-0.285503	0.294459
N190	N	1.395614	0.214497	0.794459
C191	C	1.002213	-0.004024	0.626918
C192	C	1.502213	0.495976	1.126918
N193	N	1.045178	-0.031298	0.591071
N194	N	1.545178	0.468702	1.091071
C195	C	1.002186	-0.004033	0.191346
C196	C	1.502186	0.495967	0.691346
N197	N	1.045154	-0.031306	0.155502
N198	N	1.545154	0.468694	0.655502
H199	H	0.987410	0.005386	0.796299
H200	H	1.487410	0.505386	1.296299
C201	C	0.509058	0.066274	-0.157404
C202	C	1.009058	0.566274	0.342596
N203	N	0.476362	0.065942	-0.219503
N204	N	0.976362	0.565942	0.280497
C205	C	0.784478	0.134269	0.626917
C206	C	1.284478	0.634269	1.126917
N207	N	0.741605	0.161607	0.591071
N208	N	1.241605	0.661607	1.091071
H209	H	0.799222	0.124808	0.796287
H210	H	1.299222	0.624808	1.296287
H211	H	0.887646	-0.788170	-0.136019
H212	H	1.387646	-0.288170	0.363981
C213	C	0.509034	0.066281	0.157392
C214	C	1.009034	0.566281	0.657392
N215	N	0.476331	0.065958	0.219497
N216	N	0.976331	0.565958	0.719497
H217	H	0.895253	-0.313524	-0.210936
H218	H	1.395253	0.186476	0.289064
C219	C	0.277523	0.063903	0.157391
C220	C	0.777523	0.563903	0.657391
N221	N	0.310215	0.064232	0.219493
N222	N	0.810215	0.564232	0.719493
H223	H	0.123038	0.062327	0.135973
H224	H	0.623038	0.562327	0.635973
H225	H	0.123067	0.062332	-0.135990
H226	H	0.623067	0.562332	0.364010
C227	C	0.893703	-0.412177	-0.232365
C228	C	1.393703	0.087823	0.267635
N229	N	0.893418	-0.433046	-0.294479
N230	N	1.393418	0.066954	0.205521
C231	C	0.277545	0.063901	-0.157412
C232	C	0.777545	0.563901	0.342588
N233	N	0.310244	0.064228	-0.219519
N234	N	0.810244	0.564228	0.280481
C235	C	0.899088	-0.074410	-0.157379
C236	C	1.399088	0.425590	0.342621
N237	N	0.899430	-0.053521	-0.219484
N238	N	1.399430	0.446479	0.280516
C239	C	0.889228	-0.689494	-0.157440
C240	C	1.389228	-0.189494	0.342560
N241	N	0.889565	-0.668606	-0.219546
N242	N	1.389565	-0.168606	0.280454
H243	H	0.887622	-0.788201	0.135944
H244	H	1.387622	-0.288201	0.635944
H245	H	0.893714	-0.405030	0.210929
H246	H	1.393714	0.094970	0.710929
C247	C	0.889187	-0.689546	0.157376
C248	C	1.389187	-0.189546	0.657376
N249	N	0.889516	-0.668679	0.219488
N250	N	1.389516	-0.168679	0.719488
C251	C	0.897350	-0.180332	0.157419
C252	C	1.397350	0.319668	0.657419
N253	N	0.897003	-0.201222	0.219522
N254	N	1.397003	0.298778	0.719522
H255	H	0.898937	-0.081653	0.136001
H256	H	1.398937	0.418347	0.636001
C257	C	0.891236	-0.563434	-0.232366
C258	C	1.391236	-0.063434	0.267634
N259	N	0.890902	-0.584318	-0.294460
N260	N	1.390902	-0.084318	0.205540
H261	H	0.892822	-0.464766	-0.210949
H262	H	1.392822	0.035234	0.289051
C263	C	0.892883	-0.457633	0.232332
C264	C	1.392883	0.042367	0.732332
N265	N	0.893217	-0.436765	0.294444
N266	N	1.393217	0.063235	0.794444
C267	C	0.891176	-0.563489	0.232325
C268	C	1.391176	-0.063489	0.732325
N269	N	0.890821	-0.584376	0.294431
N270	N	1.390821	-0.084376	0.794431
