data_functionalizedCrystal
_audit_creation_method	'MofGen! by Chris Wilmer'
_symmetry_space_group_name_H-M	'P1'
_symmetry_Int_Tables_number	1
_symmetry_cell_setting	triclinic
loop_
_symmetry_equiv_pos_as_xyz
  x,y,z
_cell_length_a	15.995350
_cell_length_b	15.995350
_cell_length_c	14.472310
_cell_angle_alpha	90.001162
_cell_angle_beta	90.009379
_cell_angle_gamma	96.507625
loop_
_atom_site_label
_atom_site_type_symbol
_atom_site_fract_x
_atom_site_fract_y
_atom_site_fract_z
O1	O	-1.110997	0.107921	-0.076758
O2	O	-0.867221	0.121248	-0.076776
O3	O	-0.995773	-0.007303	-0.076766
O4	O	-0.982445	0.236472	-0.076769
O5	O	-0.995740	-0.007296	0.076916
O6	O	-0.867188	0.121256	0.076906
O7	O	-1.110963	0.107928	0.076924
Cu8	Cu	-0.989073	0.114593	0.090947
Cu9	Cu	-0.989112	0.114584	-0.090800
O10	O	-0.982412	0.236480	0.076913
C11	C	-0.995205	-0.038494	0.000073
C12	C	-0.993553	-0.131444	0.000068
C13	C	-0.836010	0.120701	0.000062
C14	C	-0.743060	0.119049	0.000055
C15	C	-1.142175	0.108476	0.000083
C16	C	-1.235125	0.110127	0.000084
C17	C	-0.987621	-0.469192	0.000071
C18	C	-0.896069	-0.421758	-0.000281
C19	C	-0.897721	-0.325068	0.000066
C20	C	-0.990564	-0.301631	0.000069
C21	C	-1.035701	-0.342705	0.087831
C22	C	-1.033401	-0.439340	0.087904
C23	C	-1.035330	-0.439707	-0.086861
C24	C	-1.035309	-0.342762	-0.088021
C25	C	-0.992231	-0.206934	0.000071
C26	C	-0.985956	-0.563890	0.000075
C27	C	-0.405312	0.113117	0.000074
C28	C	-0.452746	0.021565	0.000418
C29	C	-0.549436	0.023217	0.000065
C30	C	-0.572873	0.116060	0.000065
C31	C	-0.531804	0.161212	-0.087692
C32	C	-0.435169	0.158912	-0.087759
C33	C	-0.434792	0.160812	0.087007
C34	C	-0.531737	0.160790	0.088160
C35	C	-0.667570	0.117727	0.000057
C36	C	-0.310614	0.111452	0.000076
C37	C	-0.982980	0.267671	0.000072
C38	C	-0.984631	0.360621	0.000071
N39	N	-0.989051	0.114598	0.218778
N40	N	-0.989140	0.114572	-0.218631
C41	C	-0.989111	0.114581	0.592869
C42	C	-0.920095	0.183135	0.553698
C43	C	-0.920254	0.183385	0.446610
C44	C	-0.989081	0.114590	0.407278
C45	C	-1.076445	0.133671	0.446122
C46	C	-1.076057	0.134159	0.553243
C47	C	-0.971542	0.026741	0.553398
C48	C	-0.969538	0.027327	0.446270
C49	C	-0.989069	0.114593	0.302390
C50	C	-0.989128	0.114579	0.697757
H51	H	-0.862239	-0.296649	-0.062846
N52	N	-1.120251	-0.323507	-0.094655
N53	N	-1.179572	-0.381543	-0.094877
H54	H	-1.239567	-0.367945	-0.099553
H55	H	-0.560193	0.129845	-0.153002
H56	H	-0.402921	0.226128	-0.091741
N57	N	-1.142418	0.073899	0.585740
N58	N	-1.188873	0.031622	0.529303
H59	H	-1.235742	-0.010933	0.552249
N60	N	-0.429538	-0.024374	0.079363
N61	N	-0.484351	-0.052488	0.136368
H62	H	-0.467969	-0.084942	0.192126
H63	H	-0.855314	0.172016	0.420349
N64	N	-0.893340	0.003726	0.587296
N65	N	-0.868735	-0.064446	0.563240
H66	H	-0.813501	-0.080694	0.587180
H67	H	-0.931159	0.247952	0.580608
N68	N	-0.997815	-0.465488	-0.170312
N69	N	-0.994337	-0.541896	-0.185799
H70	H	-0.967836	-0.560106	-0.244733
H71	H	-0.854945	0.171953	0.579481
N72	N	-0.850368	-0.446304	0.078250
N73	N	-0.821895	-0.392372	0.136063
H74	H	-0.789626	-0.409705	0.191534
H75	H	-1.021872	-0.024275	0.578728
N76	N	-0.852869	-0.290101	0.079108
N77	N	-0.776877	-0.299381	0.089376
H78	H	-0.745198	-0.274686	0.145204
H79	H	-0.547101	0.228494	0.093461
N80	N	-0.394946	0.245489	0.087742
N81	N	-0.345042	0.270700	0.024587
H82	H	-0.316897	0.330500	0.025099
N83	N	-0.409006	0.123265	0.170447
N84	N	-0.368582	0.060890	0.166853
H85	H	-0.350369	0.034365	0.225778
H86	H	-0.433166	-0.014865	-0.062168
N87	N	-1.142406	0.072694	0.414159
N88	N	-1.125723	0.014354	0.362269
H89	H	-1.172306	-0.028714	0.339693
H90	H	-1.004324	-0.314320	0.153137
N91	N	-1.096327	0.213117	0.412449
N92	N	-1.046301	0.255814	0.359855
H93	H	-1.060338	0.311925	0.336073
H94	H	-1.000459	-0.457639	0.153505
N95	N	-0.850190	-0.445007	-0.079242
N96	N	-0.884426	-0.496810	-0.136178
H97	H	-0.852024	-0.513233	-0.191950
H98	H	-0.905272	0.012845	0.420883
H99	H	-1.002307	-0.315516	-0.152945
N100	N	-1.117723	-0.479788	0.092915
N101	N	-1.178080	-0.436620	0.096353
H102	H	-1.237631	-0.465182	0.099898
H103	H	-1.103909	-0.328579	0.091097
N104	N	-0.565978	0.119424	0.169599
N105	N	-0.620475	0.057231	0.162857
H106	H	-0.644663	0.028014	0.220372
H107	H	-0.931473	0.248569	0.420976
H108	H	-1.102831	-0.471468	-0.087449
H109	H	-1.091540	0.198219	0.578220
H110	H	-0.577852	-0.012275	0.062973
N111	N	-1.028517	-0.039659	0.412690
N112	N	-1.105199	-0.039880	0.429457
H113	H	-1.146862	-0.087185	0.405742
H114	H	-0.577308	-0.012521	-0.062951
N115	N	-0.412225	0.117599	-0.170057
N116	N	-0.467557	0.090661	-0.227043
H117	H	-0.451358	0.061482	-0.285168
H118	H	-0.545930	0.229421	-0.090955
