data_functionalizedCrystal
_audit_creation_method	'MofGen! by Chris Wilmer'
_symmetry_space_group_name_H-M	'P1'
_symmetry_Int_Tables_number	1
_symmetry_cell_setting	triclinic
loop_
_symmetry_equiv_pos_as_xyz
  x,y,z
_cell_length_a	9.065218
_cell_length_b	13.596369
_cell_length_c	14.519709
_cell_angle_alpha	90.006934
_cell_angle_beta	95.651952
_cell_angle_gamma	89.992526
loop_
_atom_site_label
_atom_site_type_symbol
_atom_site_fract_x
_atom_site_fract_y
_atom_site_fract_z
O1	O	-1.957869	0.081844	0.135229
O2	O	-1.624535	0.415178	0.468562
O3	O	-1.291202	0.748511	0.801896
O4	O	-1.528376	0.081835	0.146321
O5	O	-1.195043	0.415169	0.479654
O6	O	-0.861709	0.748502	0.812987
O7	O	-1.754510	0.081831	0.006620
O8	O	-1.421176	0.415165	0.339953
O9	O	-1.087843	0.748498	0.673286
O10	O	-1.731735	0.081848	0.274930
O11	O	-1.398402	0.415182	0.608263
O12	O	-1.065068	0.748515	0.941596
O13	O	-1.754487	-0.081752	0.006612
O14	O	-1.421154	0.251582	0.339945
O15	O	-1.087820	0.584915	0.673279
O16	O	-1.528353	-0.081748	0.146313
O17	O	-1.195020	0.251586	0.479646
O18	O	-0.861687	0.584919	0.812980
O19	O	-1.957846	-0.081739	0.135221
O20	O	-1.624513	0.251595	0.468555
O21	O	-1.291179	0.584928	0.801888
Zn22	Zn	-1.743096	-0.107715	0.140766
Zn23	Zn	-1.409763	0.225618	0.474099
Zn24	Zn	-1.076430	0.558951	0.807433
Zn25	Zn	-1.743126	0.107812	0.140776
Zn26	Zn	-1.409793	0.441145	0.474109
Zn27	Zn	-1.076459	0.774479	0.807443
O28	O	-1.731712	-0.081734	0.274922
O29	O	-1.398379	0.251599	0.608255
O30	O	-1.065046	0.584932	0.941589
C31	C	-1.473398	0.000043	0.145251
C32	C	-1.140065	0.333376	0.478584
C33	C	-0.806731	0.666709	0.811917
C34	C	-1.309615	0.000039	0.142063
C35	C	-0.976282	0.333372	0.475397
C36	C	-0.642948	0.666706	0.808730
N37	N	-1.743087	-0.254807	0.140758
N38	N	-1.409753	0.078526	0.474092
N39	N	-1.076420	0.411859	0.807425
C40	C	-1.743124	-0.656098	0.140777
C41	C	-1.409791	-0.322765	0.474110
C42	C	-1.076457	0.010568	0.807444
C43	C	-1.743109	-0.544447	0.140775
C44	C	-1.409776	-0.211113	0.474108
C45	C	-1.076443	0.122220	0.807442
C46	C	-1.743106	-0.455456	0.140768
C47	C	-1.409773	-0.122123	0.474102
C48	C	-1.076439	0.211210	0.807435
C49	C	-1.743090	-0.343798	0.140765
C50	C	-1.409757	-0.010464	0.474098
C51	C	-1.076423	0.322869	0.807432
C52	C	-1.012824	0.000050	0.136291
C53	C	-0.679491	0.333383	0.469624
C54	C	-0.346157	0.666717	0.802958
C55	C	-1.176607	0.000042	0.139478
C56	C	-0.843274	0.333375	0.472811
C57	C	-0.509941	0.666709	0.806145
C58	C	-1.753437	0.000040	-0.027752
C59	C	-1.420104	0.333373	0.305582
C60	C	-1.086770	0.666706	0.638915
C61	C	-1.750256	0.000039	-0.130156
C62	C	-1.416923	0.333372	0.203177
C63	C	-1.083590	0.666706	0.536510
N64	N	-1.743147	0.254904	0.140776
N65	N	-1.409814	0.588237	0.474109
N66	N	-1.076480	0.921571	0.807443
C67	C	-1.738547	0.000064	-0.505138
C68	C	-1.405214	0.333398	-0.171804
C69	C	-1.071881	0.666731	0.161529
C70	C	-1.741799	0.000057	-0.400806
C71	C	-1.408465	0.333390	-0.067473
C72	C	-1.075132	0.666724	0.265861
C73	C	-1.744401	0.000051	-0.317650
C74	C	-1.411068	0.333384	0.015683
C75	C	-1.077735	0.666717	0.349016
C76	C	-1.747654	0.000045	-0.213312
C77	C	-1.414320	0.333378	0.120021
C78	C	-1.080987	0.666712	0.453355
C79	C	-1.732785	0.000059	0.309294
C80	C	-1.399452	0.333393	0.642627
C81	C	-1.066118	0.666726	0.975960
C82	C	-1.735966	0.000066	0.411698
C83	C	-1.402632	0.333400	0.745031
C84	C	-1.069299	0.666733	1.078365
