data_functionalizedCrystal
_audit_creation_method	'MofGen! by Chris Wilmer'
_symmetry_space_group_name_H-M	'P1'
_symmetry_Int_Tables_number	1
_symmetry_cell_setting	triclinic
loop_
_symmetry_equiv_pos_as_xyz
  x,y,z
_cell_length_a	11.792241
_cell_length_b	11.792241
_cell_length_c	13.330367
_cell_angle_alpha	90.004769
_cell_angle_beta	90.002703
_cell_angle_gamma	84.193416
loop_
_atom_site_label
_atom_site_type_symbol
_atom_site_fract_x
_atom_site_fract_y
_atom_site_fract_z
O1	O	-1.506914	-0.155567	-0.083311
O2	O	-1.006914	0.344433	0.416689
O3	O	-1.176573	-0.171600	-0.083338
O4	O	-0.676573	0.328400	0.416662
O5	O	-1.349760	0.001587	-0.083317
O6	O	-0.849760	0.501587	0.416683
O7	O	-1.333727	-0.328754	-0.083333
O8	O	-0.833727	0.171246	0.416667
O9	O	-1.349734	0.001591	0.083530
O10	O	-0.849734	0.501591	0.583530
O11	O	-1.176547	-0.171596	0.083509
O12	O	-0.676547	0.328404	0.583509
O13	O	-1.506889	-0.155563	0.083536
O14	O	-1.006889	0.344437	0.583536
Cu15	Cu	-1.341716	-0.163579	0.098757
Cu16	Cu	-0.841716	0.336421	0.598757
Cu17	Cu	-1.341746	-0.163584	-0.098559
Cu18	Cu	-0.841746	0.336416	0.401441
O19	O	-1.333702	-0.328750	0.083515
O20	O	-0.833702	0.171250	0.583515
C21	C	-1.134269	-0.170591	0.000082
C22	C	-0.634269	0.329409	0.500082
C23	C	-1.008255	-0.167576	0.000072
C24	C	-0.508255	0.332424	0.500072
C25	C	-1.348740	0.043880	0.000106
C26	C	-0.848740	0.543880	0.500106
C27	C	-1.345726	0.169894	0.000105
C28	C	-0.845726	0.669894	0.500105
C29	C	-0.777543	-0.162034	0.000099
C30	C	-0.277543	0.337966	0.500099
C31	C	-0.905928	-0.165113	0.000084
C32	C	-0.405928	0.334887	0.500084
C33	C	-0.549192	-0.156572	0.000111
C34	C	-0.049192	0.343428	0.500111
C35	C	-0.675206	-0.159587	0.000107
C36	C	-0.175206	0.340413	0.500107
C37	C	-1.334721	-0.371043	0.000089
C38	C	-0.834721	0.128957	0.500089
C39	C	-1.337736	-0.497057	0.000084
C40	C	-0.837736	0.002943	0.500084
N41	N	-1.341703	-0.163575	0.237538
N42	N	-0.841703	0.336425	0.737538
C43	C	-1.340183	0.400606	0.000088
C44	C	-0.840183	0.900606	0.500088
C45	C	-1.343262	0.272221	0.000097
C46	C	-0.843262	0.772221	0.500097
N47	N	-1.341767	-0.163579	-0.237341
N48	N	-0.841767	0.336421	0.262659
C49	C	-1.265055	-0.240241	0.710152
C50	C	-0.765055	0.259759	1.210152
C51	C	-1.418467	-0.086918	0.710138
C52	C	-0.918467	0.413082	1.210138
C53	C	-1.418454	-0.086915	0.605120
C54	C	-0.918454	0.413085	1.105120
C55	C	-1.341742	-0.163577	0.552613
C56	C	-0.841742	0.336423	1.052613
C57	C	-1.265042	-0.240242	0.605124
C58	C	-0.765042	0.259758	1.105124
C59	C	-1.495160	-0.010259	0.552601
C60	C	-0.995160	0.489741	1.052601
C61	C	-1.495151	-0.010253	0.447576
C62	C	-0.995151	0.489747	0.947576
C63	C	-1.418432	-0.086910	0.395067
C64	C	-0.918432	0.413090	0.895067
C65	C	-1.341729	-0.163578	0.447585
C66	C	-0.841729	0.336422	0.947585
C67	C	-1.265016	-0.240239	0.395077
C68	C	-0.765016	0.259761	0.895077
C69	C	-1.188306	-0.316902	0.447593
C70	C	-0.688306	0.183098	0.947593
C71	C	-1.188323	-0.316899	0.552615
C72	C	-0.688323	0.183101	1.052615
C73	C	-1.418415	-0.086913	0.290046
C74	C	-0.918415	0.413087	0.790046
C75	C	-1.265003	-0.240240	0.290049
C76	C	-0.765003	0.259760	0.790049
H77	H	-1.202530	-0.302664	0.247304
H78	H	-0.702530	0.197336	0.747304
H79	H	-1.480929	-0.024508	0.752893
H80	H	-0.980929	0.475492	1.252893
Br81	Br	-1.599277	0.093769	0.623857
Br82	Br	-1.099277	0.593769	1.123857
Br83	Br	-1.084226	-0.420936	0.623887
Br84	Br	-0.584226	0.079064	1.123887
Br85	Br	-1.160945	-0.344273	0.781415
Br86	Br	-0.660945	0.155727	1.281415
Br87	Br	-1.084211	-0.420951	0.376322
Br88	Br	-0.584211	0.079049	0.876322
H89	H	-1.557611	0.052171	0.404825
H90	H	-1.057611	0.552171	0.904825
H91	H	-1.480876	-0.024501	0.247292
H92	H	-0.980876	0.475499	0.747292
