data_functionalizedCrystal
_audit_creation_method	'MofGen! by Chris Wilmer'
_symmetry_space_group_name_H-M	'P1'
_symmetry_Int_Tables_number	1
_symmetry_cell_setting	triclinic
loop_
_symmetry_equiv_pos_as_xyz
  x,y,z
_cell_length_a	18.101398
_cell_length_b	18.101395
_cell_length_c	18.101389
_cell_angle_alpha	89.983159
_cell_angle_beta	89.985654
_cell_angle_gamma	90.029256
loop_
_atom_site_label
_atom_site_type_symbol
_atom_site_fract_x
_atom_site_fract_y
_atom_site_fract_z
Zn1	Zn	1.132121	-0.294944	-0.418650
Zn2	Zn	1.465454	0.038390	-0.085316
Zn3	Zn	1.798788	0.371723	0.248017
Zn4	Zn	1.132017	-0.418770	-0.294812
Zn5	Zn	1.465350	-0.085436	0.038522
Zn6	Zn	1.798683	0.247897	0.371855
Zn7	Zn	1.008280	-0.294942	-0.294832
Zn8	Zn	1.341613	0.038391	0.038501
Zn9	Zn	1.674947	0.371724	0.371834
Zn10	Zn	1.008231	-0.418744	-0.418622
Zn11	Zn	1.341564	-0.085411	-0.085288
Zn12	Zn	1.674897	0.247923	0.248045
O13	O	1.070162	-0.356850	-0.356729
O14	O	1.403495	-0.023517	-0.023395
O15	O	1.736829	0.309817	0.309938
O16	O	1.235740	-0.311381	-0.402225
O17	O	1.569073	0.021953	-0.068892
O18	O	1.902407	0.355286	0.264441
O19	O	1.115580	-0.402354	-0.191181
O20	O	1.448913	-0.069020	0.142152
O21	O	1.782247	0.264313	0.475485
O22	O	1.024772	-0.191310	-0.311277
O23	O	1.358105	0.142024	0.022056
O24	O	1.691439	0.475357	0.355389
O25	O	1.235663	-0.402355	-0.311242
O26	O	1.568997	-0.069022	0.022091
O27	O	1.902330	0.264312	0.355425
O28	O	1.115757	-0.191311	-0.402245
O29	O	1.449091	0.142023	-0.068912
O30	O	1.782424	0.475356	0.264421
O31	O	1.024671	-0.311378	-0.191197
O32	O	1.358004	0.021955	0.142137
O33	O	1.691338	0.355288	0.475470
O34	O	0.904640	-0.311354	-0.311250
O35	O	1.237974	0.021980	0.022083
O36	O	1.571307	0.355313	0.355416
O37	O	1.024688	-0.402312	-0.522258
O38	O	1.358021	-0.068978	-0.188925
O39	O	1.691355	0.264355	0.144408
O40	O	0.904604	-0.402310	-0.402198
O41	O	1.237938	-0.068977	-0.068864
O42	O	1.571271	0.264356	0.264469
O43	O	1.115710	-0.311356	-0.522279
O44	O	1.449043	0.021977	-0.188946
O45	O	1.782376	0.355311	0.144388
O46	O	1.115532	-0.522399	-0.311215
O47	O	1.448865	-0.189066	0.022119
O48	O	1.782199	0.144268	0.355452
O49	O	1.024587	-0.522380	-0.402178
O50	O	1.357920	-0.189047	-0.068844
O51	O	1.691254	0.144286	0.264489
C52	C	0.877752	-0.356830	-0.356724
C53	C	1.211085	-0.023496	-0.023390
C54	C	1.544418	0.309837	0.309943
C55	C	0.795437	-0.356839	-0.356739
C56	C	1.128771	-0.023505	-0.023406
C57	C	1.462104	0.309828	0.309928
C58	C	1.070063	-0.549261	-0.356707
C59	C	1.403396	-0.215927	-0.023374
C60	C	1.736730	0.117406	0.309960
C61	C	1.070088	-0.631575	-0.356722
C62	C	1.403422	-0.298241	-0.023389
C63	C	1.736755	0.035092	0.309944
C64	C	0.644729	-0.356852	-0.356738
C65	C	0.978062	-0.023519	-0.023405
C66	C	1.311396	0.309814	0.309929
C67	C	0.613377	-0.414168	-0.413871
C68	C	0.946711	-0.080835	-0.080538
C69	C	1.280044	0.252499	0.252796
C70	C	0.527759	-0.414400	-0.413702
C71	C	0.861092	-0.081067	-0.080368
C72	C	1.194426	0.252267	0.252965
C73	C	0.496346	-0.356866	-0.356738
C74	C	0.829680	-0.023533	-0.023405
C75	C	1.163013	0.309801	0.309929
C76	C	0.527399	-0.377679	-0.278597
C77	C	0.860733	-0.044346	0.054737
C78	C	1.194066	0.288987	0.388070
C79	C	0.613044	-0.378087	-0.278927
C80	C	0.946377	-0.044754	0.054406
C81	C	1.279711	0.288579	0.387740
C82	C	0.613208	-0.278582	-0.377064
C83	C	0.946541	0.054752	-0.043730
C84	C	1.279874	0.388085	0.289603
C85	C	0.527558	-0.279011	-0.378785
C86	C	0.860891	0.054322	-0.045451
C87	C	1.194224	0.387656	0.287882
C88	C	0.412487	-0.356873	-0.356733
C89	C	0.745820	-0.023539	-0.023400
C90	C	1.079154	0.309794	0.309933
C91	C	0.728588	-0.356848	-0.356737
C92	C	1.061922	-0.023514	-0.023404
C93	C	1.395255	0.309819	0.309929
C94	C	1.070251	-0.930665	-0.356762
C95	C	1.403584	-0.597332	-0.023429
C96	C	1.736918	-0.263999	0.309904
C97	C	1.013163	-0.899359	-0.414136
C98	C	1.346497	-0.566026	-0.080802
C99	C	1.679830	-0.232693	0.252531
C100	C	1.012892	-0.813741	-0.413956
C101	C	1.346225	-0.480408	-0.080623
C102	C	1.679559	-0.147075	0.252710
C103	C	1.070170	-0.782283	-0.356743
C104	C	1.403504	-0.448950	-0.023410
C105	C	1.736837	-0.115616	0.309923
C106	C	1.049041	-0.813419	-0.278695
C107	C	1.382374	-0.480086	0.054638
C108	C	1.715708	-0.146753	0.387971
C109	C	1.048673	-0.899065	-0.279039
C110	C	1.382006	-0.565731	0.054295
C111	C	1.715340	-0.232398	0.387628
C112	C	1.148593	-0.899015	-0.376750
C113	C	1.481926	-0.565682	-0.043416
C114	C	1.815259	-0.232349	0.289917
C115	C	1.148132	-0.813365	-0.378461
C116	C	1.481465	-0.480031	-0.045128
C117	C	1.814799	-0.146698	0.288205
C118	C	1.070126	-0.698424	-0.356728
C119	C	1.403459	-0.365090	-0.023394
C120	C	1.736793	-0.031757	0.309939
C121	C	1.070293	-1.014525	-0.356773
C122	C	1.403627	-0.681192	-0.023439
C123	C	1.736960	-0.347858	0.309894
C124	C	1.263324	-0.356871	-0.356734
C125	C	1.596657	-0.023538	-0.023401
C126	C	1.929991	0.309796	0.309932
C127	C	1.345638	-0.356880	-0.356737
C128	C	1.678971	-0.023547	-0.023403
C129	C	2.012305	0.309787	0.309930
C130	C	1.070205	-0.356831	-0.549891
C131	C	1.403538	-0.023498	-0.216557
C132	C	1.736872	0.309835	0.116776
C133	C	1.070223	-0.356823	-0.632205
C134	C	1.403556	-0.023490	-0.298872
C135	C	1.736890	0.309843	0.034462
C136	C	1.070282	-0.163688	-0.356767
C137	C	1.403615	0.169645	-0.023434
C138	C	1.736948	0.502979	0.309900
C139	C	1.070333	-0.081374	-0.356783
C140	C	1.403666	0.251959	-0.023450
C141	C	1.736999	0.585293	0.309884
C142	C	1.070266	-0.356684	-0.931296
C143	C	1.403600	-0.023351	-0.597963
C144	C	1.736933	0.309982	-0.264629
C145	C	1.012801	-0.413729	-0.899958
C146	C	1.346134	-0.080396	-0.566625
C147	C	1.679467	0.252938	-0.233291
C148	C	1.012956	-0.413994	-0.814340
C149	C	1.346289	-0.080660	-0.481006
C150	C	1.679623	0.252673	-0.147673
C151	C	1.070244	-0.356753	-0.782913
C152	C	1.403578	-0.023420	-0.449580
C153	C	1.736911	0.309913	-0.116247
C154	C	1.148270	-0.377940	-0.814006
C155	C	1.481603	-0.044607	-0.480673
C156	C	1.814936	0.288727	-0.147339
C157	C	1.147949	-0.378314	-0.899651
C158	C	1.481283	-0.044981	-0.566318
C159	C	1.814616	0.288352	-0.232985
C160	C	1.050385	-0.278326	-0.899722
C161	C	1.383718	0.055007	-0.566388
C162	C	1.717051	0.388340	-0.233055
C163	C	1.048649	-0.278779	-0.814071
C164	C	1.381982	0.054554	-0.480738
C165	C	1.715315	0.387888	-0.147404
C166	C	1.070237	-0.356791	-0.699054
C167	C	1.403570	-0.023458	-0.365721
C168	C	1.736903	0.309876	-0.032387
C169	C	1.070279	-0.356649	-1.015156
C170	C	1.403612	-0.023315	-0.681822
C171	C	1.736946	0.310018	-0.348489
C172	C	1.070162	-0.356815	-0.164318
C173	C	1.403495	-0.023482	0.169015
C174	C	1.736829	0.309852	0.502348
C175	C	1.070287	-0.356615	-0.082005
C176	C	1.403621	-0.023281	0.251329
C177	C	1.736954	0.310052	0.584662
H178	H	0.506764	-0.401418	-0.471633
H179	H	0.840097	-0.068085	-0.138299
H180	H	1.173431	0.265249	0.195034
H181	H	1.165415	-0.434612	-0.792562
H182	H	1.498749	-0.101279	-0.459229
H183	H	1.832082	0.232055	-0.125896
H184	H	1.167856	-0.920574	-0.432692
H185	H	1.501190	-0.587241	-0.099359
H186	H	1.834523	-0.253908	0.233975
H187	H	0.634834	-0.259564	-0.433084
H188	H	0.968167	0.073770	-0.099751
H189	H	1.301500	0.407103	0.233583
H190	H	0.994478	-0.259024	-0.921317
H191	H	1.327811	0.074309	-0.587983
H192	H	1.661144	0.407643	-0.254650
H193	H	0.633998	-0.401337	-0.471982
H194	H	0.967331	-0.068004	-0.138649
H195	H	1.300664	0.265330	0.194685
H196	H	0.992380	-0.792030	-0.261460
H197	H	1.325714	-0.458696	0.071874
H198	H	1.659047	-0.125363	0.405207
H199	H	1.092240	-0.235825	-0.919989
H200	H	1.425574	0.097508	-0.586656
H201	H	1.758907	0.430842	-0.253322
H202	H	0.955448	-0.920942	-0.401063
H203	H	1.288781	-0.587608	-0.067730
H204	H	1.622114	-0.254275	0.265603
H205	H	1.164065	-0.793013	-0.435900
H206	H	1.497399	-0.459679	-0.102567
H207	H	1.830732	-0.126346	0.230766
H208	H	0.507265	-0.263310	-0.436293
H209	H	0.840598	0.070024	-0.102959
H210	H	1.173932	0.403357	0.230374
H211	H	1.026082	-0.472075	-0.793856
H212	H	1.359415	-0.138742	-0.460523
H213	H	1.692748	0.194591	-0.127190
H214	H	0.991229	-0.262802	-0.793749
H215	H	1.324562	0.070532	-0.460415
H216	H	1.657896	0.403865	-0.127082
H217	H	0.506177	-0.234054	-0.340239
H218	H	0.839510	0.099279	-0.006905
H219	H	1.172844	0.432613	0.326428
H220	H	1.026251	-0.919918	-0.472195
H221	H	1.359585	-0.586585	-0.138862
H222	H	1.692918	-0.253251	0.194472
H223	H	1.088449	-0.919775	-0.234834
H224	H	1.421783	-0.586442	0.098499
H225	H	1.755116	-0.253108	0.431833
H226	H	1.026111	-0.792688	-0.471828
H227	H	1.359445	-0.459355	-0.138495
H228	H	1.692778	-0.126022	0.194839
H229	H	1.087450	-0.234021	-0.792679
H230	H	1.420783	0.099312	-0.459346
H231	H	1.754117	0.432646	-0.126012
H232	H	0.954823	-0.793314	-0.400717
H233	H	1.288157	-0.459981	-0.067384
H234	H	1.621490	-0.126647	0.265949
H235	H	0.505920	-0.434260	-0.261125
H236	H	0.839253	-0.100927	0.072208
H237	H	1.172586	0.232407	0.405542
H238	H	1.025796	-0.471456	-0.921483
H239	H	1.359129	-0.138123	-0.588149
H240	H	1.692463	0.195210	-0.254816
H241	H	0.633485	-0.235882	-0.335455
H242	H	0.966818	0.097451	-0.002122
H243	H	1.300152	0.430784	0.331212
H244	H	0.634865	-0.471838	-0.400549
H245	H	0.968199	-0.138504	-0.067216
H246	H	1.301532	0.194829	0.266118
H247	H	0.991406	-0.919103	-0.262107
H248	H	1.324739	-0.585769	0.071227
H249	H	1.658072	-0.252436	0.404560
H250	H	1.192236	-0.337697	-0.793651
H251	H	1.525569	-0.004363	-0.460318
H252	H	1.858902	0.328970	-0.126985
H253	H	0.507237	-0.472403	-0.400217
H254	H	0.840570	-0.139069	-0.066883
H255	H	1.173904	0.194264	0.266450
H256	H	0.632986	-0.435292	-0.261748
H257	H	0.966320	-0.101958	0.071586
H258	H	1.299653	0.231375	0.404919
H259	H	0.633784	-0.338125	-0.234898
H260	H	0.967117	-0.004791	0.098435
H261	H	1.300450	0.328542	0.431769
H262	H	1.164804	-0.435595	-0.919633
H263	H	1.498137	-0.102262	-0.586300
H264	H	1.831470	0.231072	-0.252966
H265	H	1.089313	-0.793042	-0.234783
H266	H	1.422646	-0.459709	0.098551
H267	H	1.755979	-0.126376	0.431884
H268	H	0.507053	-0.337213	-0.234859
H269	H	0.840386	-0.003879	0.098474
H270	H	1.173719	0.329454	0.431808
H271	H	1.191125	-0.919259	-0.334963
H272	H	1.524458	-0.585926	-0.001629
H273	H	1.857791	-0.252592	0.331704
H274	H	1.192915	-0.791947	-0.339719
H275	H	1.526248	-0.458613	-0.006386
H276	H	1.859582	-0.125280	0.326948
H277	H	0.955097	-0.400735	-0.793317
H278	H	1.288430	-0.067402	-0.459983
H279	H	1.621764	0.265931	-0.126650
H280	H	0.954768	-0.400607	-0.920554
H281	H	1.288101	-0.067273	-0.587220
H282	H	1.621434	0.266060	-0.253887
H283	H	1.192217	-0.338569	-0.920383
H284	H	1.525550	-0.005236	-0.587049
H285	H	1.858883	0.328098	-0.253716
