data_functionalizedCrystal
_audit_creation_method	'MofGen! by Chris Wilmer'
_symmetry_space_group_name_H-M	'P1'
_symmetry_Int_Tables_number	1
_symmetry_cell_setting	triclinic
loop_
_symmetry_equiv_pos_as_xyz
  x,y,z
_cell_length_a	12.645331
_cell_length_b	12.645329
_cell_length_c	12.645323
_cell_angle_alpha	90.026248
_cell_angle_beta	90.015738
_cell_angle_gamma	90.017213
loop_
_atom_site_label
_atom_site_type_symbol
_atom_site_fract_x
_atom_site_fract_y
_atom_site_fract_z
Zn1	Zn	1.620729	-0.422053	0.599240
Zn2	Zn	1.620610	-0.599341	0.421976
Zn3	Zn	1.443444	-0.422089	0.422006
Zn4	Zn	1.443425	-0.599272	0.599213
O5	O	1.532052	-0.510689	0.510608
O6	O	1.769060	-0.445584	0.575724
O7	O	1.597066	-0.575872	0.273632
O8	O	1.467019	-0.273737	0.445540
O9	O	1.768973	-0.575836	0.445489
O10	O	1.597270	-0.273710	0.575753
O11	O	1.466903	-0.445646	0.273654
O12	O	1.295094	-0.445580	0.445514
O13	O	1.466986	-0.575720	0.747564
O14	O	1.295080	-0.575755	0.575707
O15	O	1.597251	-0.445517	0.747584
O16	O	1.597048	-0.747679	0.445463
O17	O	1.466871	-0.747629	0.575678
C18	C	1.531973	-0.786118	0.510587
C19	C	1.532036	-0.903948	0.510613
C20	C	1.256622	-0.510665	0.510611
C21	C	1.138792	-0.510680	0.510637
C22	C	1.450103	-0.948843	0.592484
C23	C	1.450443	-1.071403	0.592839
C24	C	1.643960	-1.071717	0.540707
C25	C	1.643387	-0.949119	0.541267
C26	C	1.503229	-0.949238	0.398515
C27	C	1.500862	-1.071847	0.399146
C28	C	0.971255	-0.593022	0.592115
C29	C	1.093815	-0.592757	0.592456
C30	C	1.094315	-0.399025	0.541162
C31	C	0.971716	-0.399528	0.541735
C32	C	0.971546	-0.539093	0.398377
C33	C	1.094152	-0.541535	0.398983
C34	C	1.808557	-0.510714	0.510606
C35	C	1.926387	-0.510724	0.510605
C36	C	1.532130	-0.510607	0.787114
C37	C	1.532163	-0.510572	0.904944
C38	C	1.532160	-0.234183	0.510653
C39	C	1.532206	-0.116353	0.510672
C40	C	1.532035	-0.510694	0.235179
C41	C	1.532207	-0.510430	0.117349
C42	C	1.449961	-0.592096	1.072496
C43	C	1.450176	-0.592500	0.949936
C44	C	1.643863	-0.540892	0.949450
C45	C	1.643412	-0.541403	1.072048
C46	C	1.503722	-0.398272	1.072148
C47	C	1.501230	-0.398944	0.949542
H48	H	1.367584	-1.101589	0.574068
H49	H	1.706534	-0.919412	0.484215
H50	H	1.706769	-0.484504	1.101720
H51	H	1.706722	-1.100825	0.482926
H52	H	1.125040	-0.374524	0.622316
C53	C	1.677039	-0.650500	0.907992
N54	N	1.702020	-0.733060	0.876769
C55	C	1.676324	-0.910379	0.651960
N56	N	1.701129	-0.881205	0.735338
H57	H	0.940624	-0.619123	0.370634
H58	H	1.468964	-0.917965	0.675074
C59	C	1.677537	-1.113083	0.650208
N60	N	1.702822	-1.144237	0.732688
C61	C	1.390202	-0.368028	0.910201
N62	N	1.306583	-0.344736	0.880548
H63	H	1.562898	-0.920193	0.337518
C64	C	0.931616	-0.313875	0.465040
N65	N	0.901417	-0.249357	0.407279
C66	C	1.475561	-0.704834	0.910323
N67	N	1.494661	-0.789454	0.880488
H68	H	1.123164	-0.573982	0.675612
C69	C	1.394938	-0.907615	0.361492
N70	N	1.313368	-0.876265	0.333618
H71	H	1.667556	-0.623393	1.100654
H72	H	1.124769	-0.485941	0.334994
H73	H	1.123234	-0.623697	0.375961
C74	C	1.338278	-0.566864	0.909281
N75	N	1.253991	-0.547559	0.878665
C76	C	1.389745	-1.111264	0.368544
N77	N	1.306049	-1.140956	0.345499
H78	H	1.706785	-0.483292	0.920308
H79	H	1.423689	-0.370634	1.103062
C80	C	1.576231	-0.312392	0.908148
N81	N	1.632724	-0.247201	0.876963
C82	C	1.134443	-0.704616	0.566618
N83	N	1.165039	-0.788874	0.547160
C84	C	1.133631	-0.313940	0.463438
N85	N	1.163231	-0.249859	0.404883
H86	H	0.943142	-0.375465	0.623779
H87	H	1.556202	-1.102460	0.334920
C88	C	1.584652	-0.316074	1.111332
N89	N	1.645613	-0.254172	1.140850
H90	H	0.942530	-0.479147	0.337646
H91	H	0.941763	-0.676095	0.573196
H92	H	1.366886	-0.573305	1.101980
H93	H	1.468582	-0.674725	1.103310
C94	C	1.476351	-1.110929	0.705063
N95	N	1.495886	-1.140699	0.789590
H96	H	1.366935	-0.919468	0.573919
C97	C	0.929668	-0.567983	0.703806
N98	N	0.898345	-0.549119	0.787932
