data_functionalizedCrystal
_audit_creation_method	'MofGen! by Chris Wilmer'
_symmetry_space_group_name_H-M	'P1'
_symmetry_Int_Tables_number	1
_symmetry_cell_setting	triclinic
loop_
_symmetry_equiv_pos_as_xyz
  x,y,z
_cell_length_a	8.597340
_cell_length_b	8.559649
_cell_length_c	9.730223
_cell_angle_alpha	89.997407
_cell_angle_beta	97.698822
_cell_angle_gamma	77.625043
loop_
_atom_site_label
_atom_site_type_symbol
_atom_site_fract_x
_atom_site_fract_y
_atom_site_fract_z
O1	O	2.053713	0.238037	0.128914
O2	O	1.594585	0.256299	0.074543
O3	O	1.864598	0.015198	0.106520
O4	O	1.783699	0.479138	0.096937
O5	O	1.864584	0.015191	0.335098
O6	O	1.594570	0.256292	0.303121
O7	O	2.053698	0.238030	0.357492
Zn8	Zn	1.824132	0.247160	0.366598
Zn9	Zn	1.824151	0.247169	0.065437
O10	O	1.783685	0.479131	0.325515
C11	C	1.536343	0.254334	0.181935
C12	C	1.362826	0.248472	0.161387
C13	C	1.870722	-0.044240	0.221532
C14	C	1.888971	-0.221335	0.223686
C15	C	2.111940	0.239995	0.250096
C16	C	2.285457	0.245857	0.270636
C17	C	1.777561	0.538569	0.210499
C18	C	1.759312	0.715664	0.208337
N19	N	1.824130	0.247153	0.572134
N20	N	1.824167	0.247163	-0.140098
C21	C	1.943723	0.140439	0.658223
C22	C	1.943738	0.140440	0.802108
C23	C	1.704562	0.353882	0.773802
C24	C	1.704542	0.353872	0.629919
H25	H	1.634345	-0.202791	0.193542
C26	C	1.572997	0.471271	0.535210
H27	H	1.590108	0.455970	0.441243
H28	H	1.577176	0.577989	0.559271
H29	H	1.470548	0.452252	0.546671
H30	H	1.296310	0.246225	0.052121
H31	H	2.013947	-0.302889	0.238497
H32	H	1.351968	0.248092	0.379894
C33	C	2.075252	0.023040	0.594663
H34	H	2.146469	-0.040525	0.666546
H35	H	2.133529	0.081459	0.545417
H36	H	2.026895	-0.044274	0.532828
H37	H	2.041120	0.053543	0.872199
C38	C	1.573038	0.471278	0.837371
H39	H	1.590187	0.456014	0.935394
H40	H	1.470589	0.452265	0.801683
H41	H	1.577222	0.577998	0.814269
