data_functionalizedCrystal
_audit_creation_method	'MofGen! by Chris Wilmer'
_symmetry_space_group_name_H-M	'P1'
_symmetry_Int_Tables_number	1
_symmetry_cell_setting	triclinic
loop_
_symmetry_equiv_pos_as_xyz
  x,y,z
_cell_length_a	19.121368
_cell_length_b	19.121112
_cell_length_c	14.908308
_cell_angle_alpha	89.018539
_cell_angle_beta	90.698484
_cell_angle_gamma	90.107957
loop_
_atom_site_label
_atom_site_type_symbol
_atom_site_fract_x
_atom_site_fract_y
_atom_site_fract_z
Zn1	Zn	0.348403	1.034389	0.547672
Zn2	Zn	0.848403	1.534389	1.047672
Zn3	Zn	0.458919	1.036679	0.390910
Zn4	Zn	0.958919	1.536679	0.890910
Zn5	Zn	0.336716	0.924454	0.391453
Zn6	Zn	0.836716	1.424454	0.891453
Zn7	Zn	0.460047	0.912764	0.534877
Zn8	Zn	0.960047	1.412764	1.034877
O9	O	0.401021	0.977071	0.466228
O10	O	0.901021	1.477071	0.966228
O11	O	0.367483	1.132560	0.532004
O12	O	0.867483	1.632560	1.032004
O13	O	0.437346	1.027643	0.265354
O14	O	0.937346	1.527643	0.765354
O15	O	0.240400	0.942971	0.417758
O16	O	0.740400	1.442971	0.917758
O17	O	0.448679	1.134242	0.416832
O18	O	0.948679	1.634242	0.916832
O19	O	0.248987	1.023740	0.532531
O20	O	0.748987	1.523740	1.032531
O21	O	0.347563	0.945191	0.265753
O22	O	0.847563	1.445191	0.765753
O23	O	0.348656	0.825036	0.405352
O24	O	0.848656	1.325036	0.905352
O25	O	0.450601	0.923047	0.662203
O26	O	0.950601	1.423047	1.162203
O27	O	0.439267	0.816447	0.510724
O28	O	0.939267	1.316447	1.010724
O29	O	0.368576	1.012404	0.671603
O30	O	0.868576	1.512404	1.171603
O31	O	0.556935	1.016307	0.404426
O32	O	1.056935	1.516307	0.904426
O33	O	0.557763	0.925267	0.510198
O34	O	1.057763	1.425267	1.010198
C35	C	0.392817	0.795366	0.456709
C36	C	0.892817	1.295366	0.956709
C37	C	0.389324	0.717630	0.452657
C38	C	0.889324	1.217630	0.952657
C39	C	0.218609	0.984404	0.476632
C40	C	0.718609	1.484404	0.976632
C41	C	0.140875	0.987529	0.481066
C42	C	0.640875	1.487529	0.981066
C43	C	0.367170	0.278194	0.426995
C44	C	0.867170	0.778194	0.926995
C45	C	0.370455	0.351235	0.430807
C46	C	0.870455	0.851235	0.930807
C47	C	0.419344	0.383301	0.487477
C48	C	0.919344	0.883301	0.987477
C49	C	0.464945	0.342322	0.540346
C50	C	0.964945	0.842322	1.040346
C51	C	0.461656	0.269283	0.536538
C52	C	0.961656	0.769283	1.036538
C53	C	0.431636	0.603611	0.501718
C54	C	0.931636	1.103611	1.001718
C55	C	0.434924	0.676656	0.505520
C56	C	0.934924	1.176656	1.005520
C57	C	0.340432	0.685564	0.395981
C58	C	0.840432	1.185564	0.895981
C59	C	0.337150	0.612522	0.392175
C60	C	0.837150	1.112522	0.892175
C61	C	0.382749	0.571550	0.445047
C62	C	0.882749	1.071550	0.945047
C63	C	0.422705	0.457961	0.491373
C64	C	0.922705	0.957961	0.991373
C65	C	0.379384	0.496892	0.441155
C66	C	0.879384	0.996892	0.941155
C67	C	0.099884	0.946947	0.423395
C68	C	0.599884	1.446947	0.923395
C69	C	0.026846	0.949882	0.427570
C70	C	0.526846	1.449882	0.927570
C71	C	-0.005200	0.993402	0.489412
C72	C	0.494800	1.493402	0.989412
C73	C	0.035796	1.033984	0.547089
C74	C	0.535796	1.533984	1.047089
C75	C	0.108833	1.031046	0.542918
C76	C	0.608833	1.531046	1.042918
C77	C	-0.225502	1.004375	0.505000
C78	C	0.274498	1.504375	1.005000
C79	C	-0.298544	1.007312	0.509165
C80	C	0.201456	1.507312	1.009165
C81	C	-0.307490	0.923208	0.389646
C82	C	0.192510	1.423208	0.889646
C83	C	-0.234451	0.920276	0.385476
C84	C	0.265549	1.420276	0.885476
C85	C	-0.193461	0.960856	0.443157
C86	C	0.306539	1.460856	0.943157
C87	C	-0.079857	0.996404	0.493679
C88	C	0.420143	1.496404	0.993679
C89	C	-0.118805	0.957850	0.438894
C90	C	0.381195	1.457850	0.938894
C91	C	0.582726	0.969785	0.455885
C92	C	1.082726	1.469785	0.955885
C93	C	0.660465	0.966731	0.451493
C94	C	1.160465	1.466731	0.951493
C95	C	0.411018	0.966166	0.700388
C96	C	0.911018	1.466166	1.200388
C97	C	0.415278	0.961519	0.800173
C98	C	0.915278	1.461519	1.300173
C99	C	0.409259	1.159486	0.475785
C100	C	0.909259	1.659486	0.975785
C101	C	0.412769	1.237221	0.479858
C102	C	0.912769	1.737221	0.979858
C103	C	0.391015	0.987976	0.232984
C104	C	0.891015	1.487976	0.732984
C105	C	0.386564	0.992767	0.133218
C106	C	0.886564	1.492767	0.633218
C107	C	0.337855	1.045833	0.997470
C108	C	0.837855	1.545833	1.497470
C109	C	0.341855	1.041469	1.091227
C110	C	0.841855	1.541469	1.591227
C111	C	0.427275	0.948424	1.081446
C112	C	0.927275	1.448424	1.581446
C113	C	0.423274	0.952788	0.987689
C114	C	0.923274	1.452788	1.487689
C115	C	0.378564	1.001495	0.945704
C116	C	0.878564	1.501495	1.445704
C117	C	0.374568	1.005862	0.851945
C118	C	0.874568	1.505862	1.351945
C119	C	0.459983	0.912814	0.842166
C120	C	0.959983	1.412814	1.342166
C121	C	0.463983	0.908450	0.935923
C122	C	0.963983	1.408450	1.435923
H123	H	0.327360	0.252092	0.380846
H124	H	0.827360	0.752092	0.880846
O125	O	0.470619	0.901013	1.122191
O126	O	0.970619	1.401013	1.622191
C127	C	0.451221	0.832994	1.096475
C128	C	0.951221	1.332994	1.596475
H129	H	0.394093	0.832911	1.073697
H130	H	0.894093	1.332911	1.573697
H131	H	0.458313	0.795326	1.155977
H132	H	0.958313	1.295326	1.655977
H133	H	0.485571	0.815743	1.038960
H134	H	0.985571	1.315743	1.538960
H135	H	-0.105955	1.031840	0.544031
H136	H	0.394045	1.531840	1.044031
O137	O	0.499596	0.869703	0.792013
O138	O	0.999596	1.369703	1.292013
C139	C	0.539898	0.825766	0.849179
C140	C	1.039898	1.325766	1.349179
H141	H	0.546466	0.851204	0.917374
H142	H	1.046466	1.351204	1.417374
H143	H	0.593507	0.817348	0.818559
H144	H	1.093507	1.317348	1.318559
H145	H	0.512313	0.773217	0.857831
H146	H	1.012313	1.273217	1.357831
H147	H	-0.092710	0.922413	0.388546
H148	H	0.407290	1.422413	0.888546
H149	H	0.301453	1.085496	0.963286
H150	H	0.801453	1.585496	1.463286
H151	H	-0.340870	0.890169	0.342686
H152	H	0.159130	1.390169	0.842686
H153	H	0.333327	0.384593	0.387756
H154	H	0.833327	0.884593	0.887756
O155	O	0.004700	1.076175	0.607288
O156	O	0.504700	1.576175	1.107288
C157	C	0.025692	1.056012	0.694942
C158	C	0.525692	1.556012	1.194942
H159	H	0.043440	0.999123	0.695397
H160	H	0.543440	1.499123	1.195397
H161	H	-0.020174	1.061900	0.742352
H162	H	0.479826	1.561900	1.242352
H163	H	0.070783	1.090709	0.717957
H164	H	0.570783	1.590709	1.217957
O165	O	-0.329562	1.049595	0.569332
O166	O	0.170438	1.549595	1.069332
C167	C	-0.277723	1.084791	0.619338
C168	C	0.222277	1.584791	1.119338
H169	H	-0.226819	1.053910	0.617966
H170	H	0.273181	1.553910	1.117966
H171	H	-0.295469	1.089791	0.691667
H172	H	0.204531	1.589791	1.191667
H173	H	-0.268962	1.139131	0.588819
H174	H	0.231038	1.639131	1.088819
H175	H	0.339577	0.470780	0.395018
H176	H	0.839577	0.970780	0.895018
H177	H	0.462512	0.484077	0.537511
H178	H	0.962512	0.984077	1.037511
O179	O	0.289594	0.581487	0.337109
O180	O	0.789594	1.081487	0.837109
C181	C	0.250062	0.633315	0.291250
C182	C	0.750062	1.133315	0.791250
H183	H	0.251600	0.683770	0.330875
H184	H	0.751600	1.183770	0.830875
H185	H	0.193594	0.614859	0.283831
H186	H	0.693594	1.114859	0.783831
H187	H	0.273023	0.643226	0.221963
H188	H	0.773023	1.143226	0.721963
O189	O	0.302287	1.084614	1.141379
O190	O	0.802287	1.584614	1.641379
C191	C	0.261955	1.128524	1.084213
C192	C	0.761955	1.628524	1.584213
H193	H	0.287858	1.132906	1.015874
H194	H	0.787858	1.632906	1.515874
H195	H	0.258134	1.182665	1.114612
H196	H	0.758134	1.682665	1.614612
H197	H	0.207260	1.105508	1.075928
H198	H	0.707260	1.605508	1.575928
O199	O	0.507494	0.861234	0.976752
O200	O	1.007494	1.361234	1.476752
C201	C	0.556759	0.896714	1.030516
C202	C	1.056759	1.396714	1.530516
H203	H	0.562356	0.952939	1.004900
H204	H	1.062356	1.452939	1.504900
H205	H	0.609486	0.869212	1.027191
H206	H	1.109486	1.369212	1.527191
H207	H	0.538274	0.896682	1.102930
H208	H	1.038274	1.396682	1.602930
H209	H	0.338163	1.045523	0.817763
H210	H	0.838163	1.545523	1.317763
H211	H	0.303308	0.718931	0.352937
H212	H	0.803308	1.218931	0.852937
H213	H	0.125970	0.911511	0.373033
H214	H	0.625970	1.411511	0.873033
O215	O	-0.203360	0.877891	0.325497
O216	O	0.296640	1.377891	0.825497
C217	C	-0.223538	0.807996	0.342476
C218	C	0.276462	1.307996	0.842476
H219	H	-0.240707	0.801936	0.415158
H220	H	0.259293	1.301936	0.915158
H221	H	-0.177402	0.771868	0.330187
H222	H	0.322598	1.271868	0.830187
H223	H	-0.268820	0.793665	0.295812
H224	H	0.231180	1.293665	0.795812
H225	H	0.468768	0.570260	0.544767
H226	H	0.968768	1.070260	1.044767
O227	O	0.482434	0.707693	0.560657
O228	O	0.982434	1.207693	1.060657
C229	C	0.521986	0.655869	0.606493
C230	C	1.021986	1.155869	1.106493
H231	H	0.491137	0.604803	0.608580
H232	H	0.991137	1.104803	1.108580
H233	H	0.533497	0.673393	0.677880
H234	H	1.033497	1.173393	1.177880
H235	H	0.573305	0.647504	0.570085
H236	H	1.073305	1.147504	1.070085
H237	H	-0.192136	1.037426	0.551957
H238	H	0.307864	1.537426	1.051957
O239	O	0.512365	0.373436	0.595528
O240	O	1.012365	0.873436	1.095528
C241	C	0.500221	0.352031	0.684969
C242	C	1.000221	0.852031	1.184969
H243	H	0.443650	0.333976	0.691756
H244	H	0.943650	0.833976	1.191756
H245	H	0.510357	0.397764	0.731465
H246	H	1.010357	0.897764	1.231465
H247	H	0.536834	0.307045	0.704010
H248	H	1.036834	0.807045	1.204010
O249	O	0.505853	0.229445	0.587987
O250	O	1.005853	0.729445	1.087987
C251	C	0.466680	0.186085	0.646099
C252	C	0.966680	0.686085	1.146099
H253	H	0.412840	0.210045	0.656044
H254	H	0.912840	0.710045	1.156044
H255	H	0.494969	0.181032	0.713647
H256	H	0.994969	0.681032	1.213647
H257	H	0.460556	0.132116	0.615599
H258	H	0.960556	0.632116	1.115599
H259	H	-0.006529	0.916837	0.380610
H260	H	0.493471	1.416837	0.880610
O261	O	0.148688	1.070359	0.599026
O262	O	0.648688	1.570359	1.099026
C263	C	0.191623	1.026136	0.652490
C264	C	0.691623	1.526136	1.152490
H265	H	0.167355	0.971684	0.656404
H266	H	0.667355	1.471684	1.156404
H267	H	0.196552	1.048176	0.722859
H268	H	0.696552	1.548176	1.222859
H269	H	0.245681	1.022789	0.621443
H270	H	0.745681	1.522789	1.121443
