data_functionalizedCrystal
_audit_creation_method	'MofGen! by Chris Wilmer'
_symmetry_space_group_name_H-M	'P1'
_symmetry_Int_Tables_number	1
_symmetry_cell_setting	triclinic
loop_
_symmetry_equiv_pos_as_xyz
  x,y,z
_cell_length_a	12.759401
_cell_length_b	16.120444
_cell_length_c	12.759393
_cell_angle_alpha	92.863572
_cell_angle_beta	89.980163
_cell_angle_gamma	92.928028
loop_
_atom_site_label
_atom_site_type_symbol
_atom_site_fract_x
_atom_site_fract_y
_atom_site_fract_z
Zn1	Zn	1.584966	-0.331824	-0.615188
Zn2	Zn	2.084966	0.168176	-0.115188
Zn3	Zn	1.575914	-0.471263	-0.448403
Zn4	Zn	2.075914	0.028737	0.051597
Zn5	Zn	1.409265	-0.331871	-0.439526
Zn6	Zn	1.909265	0.168129	0.060474
Zn7	Zn	1.400314	-0.471202	-0.624036
Zn8	Zn	1.900314	0.028798	-0.124036
O9	O	1.492615	-0.401540	-0.531788
O10	O	1.992615	0.098460	-0.031788
O11	O	1.730786	-0.350327	-0.593075
O12	O	2.230786	0.149673	-0.093075
O13	O	1.553765	-0.452817	-0.300207
O14	O	2.053765	0.047183	0.199793
O15	O	1.440106	-0.215199	-0.455410
O16	O	1.940106	0.284801	0.044590
O17	O	1.724135	-0.452772	-0.470539
O18	O	2.224135	0.047228	0.029461
O19	O	1.569193	-0.215164	-0.584468
O20	O	2.069193	0.284836	-0.084468
O21	O	1.431329	-0.350407	-0.293685
O22	O	1.931329	0.149593	0.206315
O23	O	1.261057	-0.350348	-0.463989
O24	O	1.761057	0.149652	0.036011
O25	O	1.424851	-0.452668	-0.769880
O26	O	1.924851	0.047332	-0.269880
O27	O	1.254481	-0.452713	-0.599548
O28	O	1.754481	0.047287	-0.099548
O29	O	1.560514	-0.350267	-0.763380
O30	O	2.060514	0.149733	-0.263380
O31	O	1.545086	-0.587920	-0.479119
O32	O	2.045086	-0.087920	0.020881
O33	O	1.416074	-0.587875	-0.608156
O34	O	1.916074	-0.087875	-0.108156
C35	C	1.219648	-0.401530	-0.531766
C36	C	1.719648	0.098470	-0.031766
C37	C	1.102870	-0.401545	-0.531783
C38	C	1.602870	0.098455	-0.031783
C39	C	1.044607	-0.454928	-0.602268
C40	C	1.544607	0.045072	-0.102268
C41	C	0.934882	-0.454931	-0.602289
C42	C	1.434882	0.045069	-0.102289
C43	C	0.941695	-0.348167	-0.461331
C44	C	1.441695	0.151833	0.038669
C45	C	1.051418	-0.348160	-0.461316
C46	C	1.551418	0.151840	0.038684
C47	C	1.478655	-0.618148	-0.545584
C48	C	1.978655	-0.118148	-0.045584
C49	C	1.472779	-0.710814	-0.551521
C50	C	1.972779	-0.210814	-0.051521
C51	C	1.523353	-0.921758	-0.501215
C52	C	2.023353	-0.421758	-0.001215
C53	C	1.462071	-0.880470	-0.562371
C54	C	1.962071	-0.380470	-0.062371
C55	C	1.468031	-0.786065	-0.556332
C56	C	1.968031	-0.286065	-0.056332
C57	C	1.517395	-1.016172	-0.507253
C58	C	2.017395	-0.516172	-0.007253
C59	C	1.766647	-0.401551	-0.531810
C60	C	2.266647	0.098449	-0.031810
C61	C	1.883424	-0.401555	-0.531820
C62	C	2.383424	0.098445	-0.031820
C63	C	1.492693	-0.401455	-0.805816
C64	C	1.992693	0.098545	-0.305816
C65	C	1.492727	-0.401420	-0.922590
C66	C	1.992727	0.098580	-0.422590
C67	C	1.506657	-0.184086	-0.517961
C68	C	2.006657	0.315914	-0.017961
C69	C	1.512642	-0.091420	-0.512069
C70	C	2.012642	0.408580	-0.012069
C71	C	1.428999	-0.348085	-0.974055
C72	C	1.928999	0.151915	-0.474055
C73	C	1.429025	-0.348059	-1.083778
C74	C	1.929025	0.151941	-0.583778
C75	C	1.556516	-0.454705	-1.090561
C76	C	2.056516	0.045295	-0.590561
C77	C	1.556484	-0.454735	-0.980841
C78	C	2.056484	0.045265	-0.480841
C79	C	1.492601	-0.401564	-0.258822
C80	C	1.992601	0.098436	0.241178
C81	C	1.492786	-0.401365	-0.142033
C82	C	1.992786	0.098635	0.357967
H83	H	0.887448	-0.498400	-0.659687
H84	H	1.387448	0.001600	-0.159687
H85	H	1.405129	-0.916023	-0.619264
H86	H	1.905129	-0.416023	-0.119264
H87	H	1.377084	-0.304672	-0.926631
H88	H	1.877084	0.195328	-0.426631
O89	O	1.591184	-0.879223	-0.433365
O90	O	2.091184	-0.379223	0.066635
C91	C	1.582111	-0.793068	-0.442380
C92	C	2.082111	-0.293068	0.057620
H93	H	1.501742	-0.781327	-0.475990
H94	H	2.001742	-0.281327	0.024010
H95	H	1.645937	-0.768267	-0.496822
H96	H	2.145937	-0.268267	0.003178
C97	C	1.693259	-0.762742	-0.292000
C98	C	2.193259	-0.262742	0.208000
C99	C	1.594544	-0.748321	-0.333272
C100	C	2.094544	-0.248321	0.166728
H101	H	1.700933	-0.735139	-0.224699
H102	H	2.200933	-0.235139	0.275301
H103	H	1.699376	-0.820786	-0.285929
H104	H	2.199376	-0.320786	0.214071
H105	H	1.746436	-0.742075	-0.337379
H106	H	2.246436	-0.242075	0.162621
H107	H	1.541369	-0.768998	-0.287901
H108	H	2.041369	-0.268998	0.212099
H109	H	1.588419	-0.690279	-0.339334
H110	H	2.088419	-0.190279	0.160666
O111	O	1.618334	-0.506607	-1.147106
O112	O	2.118334	-0.006607	-0.647106
C113	C	1.590016	-0.589705	-1.125553
C114	C	2.090016	-0.089705	-0.625553
H115	H	1.505802	-0.593919	-1.095657
H116	H	2.005802	-0.093919	-0.595657
H117	H	1.644915	-0.611516	-1.063251
H118	H	2.144915	-0.111516	-0.563251
C119	C	1.702116	-0.640142	-1.263276
C120	C	2.202116	-0.140142	-0.763276
C121	C	1.598680	-0.645320	-1.226564
C122	C	2.098680	-0.145320	-0.726564
H123	H	1.707464	-0.674450	-1.325582
H124	H	2.207464	-0.174450	-0.825582
H125	H	1.721198	-0.584158	-1.277794
H126	H	2.221198	-0.084158	-0.777794
H127	H	1.747853	-0.658317	-1.211348
H128	H	2.247853	-0.158317	-0.711348
H129	H	1.552947	-0.627135	-1.278486
H130	H	2.052947	-0.127135	-0.778486
H131	H	1.579590	-0.701303	-1.212057
H132	H	2.079590	-0.201303	-0.712057
H133	H	0.899789	-0.304703	-0.403958
H134	H	1.399789	0.195297	0.096042
O135	O	1.107862	-0.296275	-0.392741
O136	O	1.607862	0.203725	0.107259
C137	C	1.038924	-0.249147	-0.330559
C138	C	1.538924	0.250853	0.169441
H139	H	0.958507	-0.283295	-0.329030
H140	H	1.458507	0.216705	0.170970
H141	H	1.031350	-0.185866	-0.365137
H142	H	1.531350	0.314134	0.134863
C143	C	1.181249	-0.195082	-0.219870
C144	C	1.681249	0.304918	0.280130
C145	C	1.082482	-0.237026	-0.217985
C146	C	1.582482	0.262974	0.282015
H147	H	1.208119	-0.187601	-0.150430
H148	H	1.708119	0.312399	0.349570
H149	H	1.227695	-0.226830	-0.261765
H150	H	1.727695	0.273170	0.238235
H151	H	1.174924	-0.142353	-0.248690
H152	H	1.674924	0.357647	0.251310
H153	H	1.088811	-0.289758	-0.189178
H154	H	1.588811	0.210242	0.310822
H155	H	1.036038	-0.205287	-0.176082
H156	H	1.536038	0.294713	0.323918
H157	H	1.377131	-0.304629	-1.125676
H158	H	1.877131	0.195371	-0.625676
H159	H	1.608381	-0.498169	-0.938937
H160	H	2.108381	0.001831	-0.438937
H161	H	1.086496	-0.498396	-0.659650
H162	H	1.586496	0.001604	-0.159650
