data_functionalizedCrystal
_audit_creation_method	'MofGen! by Chris Wilmer'
_symmetry_space_group_name_H-M	'P1'
_symmetry_Int_Tables_number	1
_symmetry_cell_setting	triclinic
loop_
_symmetry_equiv_pos_as_xyz
  x,y,z
_cell_length_a	12.759401
_cell_length_b	15.299816
_cell_length_c	12.759393
_cell_angle_alpha	99.650122
_cell_angle_beta	89.981433
_cell_angle_gamma	80.349384
loop_
_atom_site_label
_atom_site_type_symbol
_atom_site_fract_x
_atom_site_fract_y
_atom_site_fract_z
Zn1	Zn	1.678549	-0.359025	-0.666404
Zn2	Zn	2.178549	0.140975	-0.166404
Zn3	Zn	1.708818	-0.509869	-0.521151
Zn4	Zn	2.208818	-0.009869	-0.021151
Zn5	Zn	1.502860	-0.359070	-0.490752
Zn6	Zn	2.002860	0.140930	0.009248
Zn7	Zn	1.533200	-0.509797	-0.696778
Zn8	Zn	2.033200	-0.009797	-0.196778
O9	O	1.605857	-0.434440	-0.593771
O10	O	2.105857	0.065560	-0.093771
O11	O	1.829588	-0.379047	-0.647146
O12	O	2.329588	0.120953	-0.147146
O13	O	1.681468	-0.489914	-0.370107
O14	O	2.181468	0.010086	0.129893
O15	O	1.500801	-0.232855	-0.488619
O16	O	2.000801	0.267145	0.011381
O17	O	1.851826	-0.489871	-0.540430
O18	O	2.351826	0.010129	-0.040430
O19	O	1.629879	-0.232823	-0.617669
O20	O	2.129879	0.267177	-0.117669
O21	O	1.530151	-0.379122	-0.347773
O22	O	2.030151	0.120878	0.152227
O23	O	1.359861	-0.379052	-0.518071
O24	O	1.859861	0.120948	-0.018071
O25	O	1.552510	-0.489748	-0.839760
O26	O	2.052510	0.010252	-0.339760
O27	O	1.382152	-0.489791	-0.669437
O28	O	1.882152	0.010209	-0.169437
O29	O	1.659298	-0.378977	-0.817444
O30	O	2.159298	0.121023	-0.317444
O31	O	1.710886	-0.636068	-0.569882
O32	O	2.210886	-0.136068	-0.069882
O33	O	1.581860	-0.636015	-0.698914
O34	O	2.081860	-0.136015	-0.198914
C35	C	1.332885	-0.434419	-0.593752
C36	C	1.832885	0.065581	-0.093752
C37	C	1.216111	-0.434432	-0.593774
C38	C	1.716111	0.065568	-0.093774
C39	C	1.149685	-0.376835	-0.649467
C40	C	1.649685	0.123165	-0.149467
C41	C	1.039964	-0.376852	-0.649477
C42	C	1.539964	0.123148	-0.149477
C43	C	1.063108	-0.492071	-0.538099
C44	C	1.563108	0.007929	-0.038099
C45	C	1.172825	-0.492049	-0.538083
C46	C	1.672825	0.007951	-0.038083
C47	C	1.136323	-0.310316	-0.713774
C48	C	1.636323	0.189684	-0.213774
C49	C	1.026602	-0.310333	-0.713784
C50	C	1.526602	0.189667	-0.213784
C51	C	1.652979	-0.668766	-0.641016
C52	C	2.152979	-0.168766	-0.141016
C53	C	1.673234	-0.769011	-0.661263
C54	C	2.173234	-0.269011	-0.161263
C55	C	1.461780	-1.051953	-0.449422
C56	C	1.961780	-0.551953	0.050578
C57	C	1.442744	-0.957767	-0.430402
C58	C	1.942744	-0.457767	0.069598
C59	C	1.500365	-0.910574	-0.488115
C60	C	2.000365	-0.410574	0.011885
C61	C	1.577025	-0.957575	-0.564852
C62	C	2.077025	-0.457575	-0.064852
C63	C	1.596057	-1.051770	-0.583880
C64	C	2.096057	-0.551770	-0.083880
C65	C	1.634642	-0.910391	-0.622573
C66	C	2.134642	-0.410391	-0.122573
C67	C	1.711302	-0.957392	-0.699311
C68	C	2.211302	-0.457392	-0.199311
C69	C	1.730331	-1.051577	-0.718335
C70	C	2.230331	-0.551577	-0.218335
C71	C	1.672710	-1.098771	-0.660621
C72	C	2.172710	-0.598771	-0.160621
C73	C	1.615610	-0.816196	-0.603545
C74	C	2.115610	-0.316196	-0.103545
C75	C	1.749887	-0.816013	-0.738004
C76	C	2.249887	-0.316013	-0.238004
C77	C	1.768923	-0.910198	-0.757024
C78	C	2.268923	-0.410198	-0.257024
C79	C	1.879894	-0.434462	-0.593791
C80	C	2.379894	0.065538	-0.093791
C81	C	1.996673	-0.434472	-0.593799
C82	C	2.496673	0.065528	-0.093799
C83	C	1.605912	-0.434349	-0.867786
C84	C	2.105912	0.065651	-0.367786
C85	C	1.605936	-0.434311	-0.984555
C86	C	2.105936	0.065689	-0.484555
C87	C	1.558580	-0.199200	-0.546365
C88	C	2.058580	0.300800	-0.046365
C89	C	1.538433	-0.098954	-0.526163
C90	C	2.038433	0.401046	-0.026163
C91	C	1.661548	-0.376627	-1.027798
C92	C	2.161548	0.123373	-0.527798
C93	C	1.661567	-0.376594	-1.137516
C94	C	2.161567	0.123406	-0.637516
C95	C	1.550358	-0.491937	-1.160739
C96	C	2.050358	0.008063	-0.660739
C97	C	1.550334	-0.491965	-1.051023
C98	C	2.050334	0.008035	-0.551023
C99	C	1.725757	-0.310037	-1.014391
C100	C	2.225757	0.189963	-0.514391
C101	C	1.725776	-0.310004	-1.124109
C102	C	2.225776	0.189996	-0.624109
C103	C	1.605849	-0.434466	-0.320809
C104	C	2.105849	0.065534	0.179191
C105	C	1.605978	-0.434251	-0.203989
C106	C	2.105978	0.065749	0.296011
H107	H	0.979194	-0.243952	-0.671395
H108	H	1.479194	0.256048	-0.171395
Br109	Br	1.201534	-0.352145	-0.850941
Br110	Br	1.701534	0.147855	-0.350941
H111	H	1.027850	-0.538981	-0.492758
H112	H	1.527850	-0.038981	0.007242
H113	H	1.414868	-1.090387	-0.402445
H114	H	1.914868	-0.590387	0.097555
H115	H	1.000642	-0.329129	-0.798911
H116	H	1.500642	0.170871	-0.298911
Br117	Br	1.511574	-0.752420	-0.499406
Br118	Br	2.011574	-0.252420	0.000594
Br119	Br	1.262968	-0.570188	-0.462454
Br120	Br	1.762968	-0.070188	0.037546
H121	H	1.689924	-0.240190	-0.970546
H122	H	2.189924	0.259810	-0.470546
H123	H	1.380327	-0.919503	-0.367924
H124	H	1.880327	-0.419503	0.132076
H125	H	1.152018	-0.240437	-0.678025
H126	H	1.652018	0.259563	-0.178025
H127	H	1.808071	-0.335077	-0.985407
H128	H	2.308071	0.164923	-0.485407
Br129	Br	1.698788	-1.226600	-0.686186
Br130	Br	2.198788	-0.726600	-0.186186
H131	H	1.683298	-0.243639	-1.144770
H132	H	2.183298	0.256361	-0.644770
H133	H	1.484862	-0.833884	-0.472623
H134	H	1.984862	-0.333884	0.027377
H135	H	1.810913	-0.328713	-1.157661
H136	H	2.310913	0.171287	-0.657661
Br137	Br	1.834344	-1.115363	-0.822503
Br138	Br	2.334344	-0.615363	-0.322503
Br139	Br	1.474833	-0.570235	-0.992335
Br140	Br	1.974833	-0.070235	-0.492335
H141	H	1.831339	-0.948480	-0.819505
H142	H	2.331339	-0.448480	-0.319505
Br143	Br	1.828087	-0.751972	-0.816339
Br144	Br	2.328087	-0.251972	-0.316339
H145	H	1.505087	-0.538875	-1.214870
H146	H	2.005087	-0.038875	-0.714870
