data_functionalizedCrystal
_audit_creation_method	'MofGen! by Chris Wilmer'
_symmetry_space_group_name_H-M	'P1'
_symmetry_Int_Tables_number	1
_symmetry_cell_setting	triclinic
loop_
_symmetry_equiv_pos_as_xyz
  x,y,z
_cell_length_a	10.723023
_cell_length_b	13.262508
_cell_length_c	9.798715
_cell_angle_alpha	105.915177
_cell_angle_beta	89.996770
_cell_angle_gamma	84.450751
loop_
_atom_site_label
_atom_site_type_symbol
_atom_site_fract_x
_atom_site_fract_y
_atom_site_fract_z
O1	O	1.656452	0.147209	-0.058831
O2	O	1.293229	0.161301	-0.053605
O3	O	1.483981	0.001531	-0.112902
O4	O	1.465700	0.306978	0.000467
O5	O	1.483966	0.001531	0.114080
O6	O	1.293214	0.161300	0.173377
O7	O	1.656437	0.147208	0.168151
Zn8	Zn	1.474824	0.154254	0.206802
Zn9	Zn	1.474842	0.154255	-0.092256
O10	O	1.465685	0.306977	0.227449
C11	C	1.246727	0.160275	0.059505
C12	C	1.108188	0.157207	0.058364
C13	C	1.046416	0.155839	0.175438
C14	C	0.903228	0.152669	0.174262
C15	C	1.482950	-0.037579	-0.013931
C16	C	1.479885	-0.154117	-0.057193
C17	C	1.471208	-0.482631	0.315783
C18	C	1.474078	-0.373137	0.356433
C19	C	1.475531	-0.318377	0.253030
C20	C	1.474112	-0.373121	0.108970
C21	C	1.471232	-0.482624	0.068318
C22	C	1.475554	-0.318370	0.005564
C23	C	1.474135	-0.373114	-0.138495
C24	C	1.471257	-0.482607	-0.179141
C25	C	1.469804	-0.537368	-0.075738
C26	C	1.478434	-0.208867	0.046217
C27	C	1.478458	-0.208860	-0.201249
C28	C	1.475588	-0.318354	-0.241898
C29	C	1.702939	0.148234	0.055039
C30	C	1.841478	0.151301	0.056171
C31	C	1.466716	0.346088	0.128474
C32	C	1.469781	0.462626	0.171728
N33	N	1.474820	0.154253	0.410902
N34	N	1.474856	0.154247	-0.296359
C35	C	1.554913	0.086875	0.453672
C36	C	1.554933	0.086871	0.610833
H37	H	1.099536	0.157010	0.276539
H38	H	0.850104	0.151498	0.274494
H39	H	1.406286	0.211940	0.666777
H40	H	1.475246	-0.328574	0.473725
H41	H	1.406259	0.211932	0.490633
H42	H	1.467474	-0.626527	-0.108828
H43	H	1.623509	0.029190	0.647710
H44	H	0.894592	0.152484	-0.044062
C45	C	1.036432	0.155617	-0.078228
N46	N	0.982386	0.154421	-0.181111
C47	C	1.480003	-0.148662	0.204678
N48	N	1.481189	-0.103317	0.324040
H49	H	1.477865	-0.229222	0.286135
H50	H	1.470017	-0.527226	0.399959
C51	C	1.469762	-0.542829	-0.337613
N52	N	1.468666	-0.588190	-0.456976
C53	C	1.474017	-0.378586	-0.400361
N54	N	1.472831	-0.423953	-0.519714
H55	H	1.479631	-0.164274	-0.285449
C56	C	1.647511	0.008928	0.345953
N57	N	1.717252	-0.049790	0.264818
