data_functionalizedCrystal
_audit_creation_method	'MofGen! by Chris Wilmer'
_symmetry_space_group_name_H-M	'P1'
_symmetry_Int_Tables_number	1
_symmetry_cell_setting	triclinic
loop_
_symmetry_equiv_pos_as_xyz
  x,y,z
_cell_length_a	12.759401
_cell_length_b	12.759400
_cell_length_c	12.759393
_cell_angle_alpha	89.970072
_cell_angle_beta	89.980663
_cell_angle_gamma	90.012251
loop_
_atom_site_label
_atom_site_type_symbol
_atom_site_fract_x
_atom_site_fract_y
_atom_site_fract_z
Zn1	Zn	1.606273	-0.418235	-0.593996
Zn2	Zn	1.606170	-0.593953	-0.418320
Zn3	Zn	1.430573	-0.418285	-0.418335
Zn4	Zn	1.430568	-0.593870	-0.593961
O5	O	1.518396	-0.506086	-0.506153
O6	O	1.753280	-0.441558	-0.570701
O7	O	1.582836	-0.570706	-0.271301
O8	O	1.453925	-0.271258	-0.441658
O9	O	1.753205	-0.570657	-0.441633
O10	O	1.583011	-0.271221	-0.570716
O11	O	1.453825	-0.441644	-0.271312
O12	O	1.283551	-0.441564	-0.441624
O13	O	1.453917	-0.570516	-0.740987
O14	O	1.283548	-0.570565	-0.570655
O15	O	1.583006	-0.441478	-0.741013
O16	O	1.582831	-0.740963	-0.441598
O17	O	1.453817	-0.740902	-0.570640
C18	C	1.245429	-0.506061	-0.506138
C19	C	1.128652	-0.506076	-0.506156
C20	C	0.964093	-0.439000	-0.573473
C21	C	1.073817	-0.438980	-0.573466
C22	C	1.073757	-0.573205	-0.438856
C23	C	0.964035	-0.573230	-0.438869
C24	C	1.518341	-0.779053	-0.506136
C25	C	1.518413	-0.895830	-0.506165
C26	C	1.585595	-0.950593	-0.573420
C27	C	1.585644	-1.060317	-0.573445
C28	C	1.451327	-1.060505	-0.438951
C29	C	1.451273	-0.950783	-0.438932
C30	C	1.652735	-0.895640	-0.640653
C31	C	1.719922	-0.950403	-0.707913
C32	C	1.719971	-1.060127	-0.707938
C33	C	1.652832	-1.115088	-0.640704
C34	C	1.792429	-0.506111	-0.506169
C35	C	1.909206	-0.506122	-0.506176
C36	C	1.518472	-0.505982	-0.780187
C37	C	1.518505	-0.505938	-0.896963
C38	C	1.518480	-0.232053	-0.506193
C39	C	1.518516	-0.115276	-0.506210
C40	C	1.585748	-0.438698	-1.061572
C41	C	1.585728	-0.438738	-0.951848
C42	C	1.451305	-0.573109	-0.951809
C43	C	1.451331	-0.573073	-1.061531
C44	C	1.518380	-0.506113	-0.233186
C45	C	1.518551	-0.505861	-0.116410
H46	H	0.919345	-0.627895	-0.384067
C47	C	1.242036	-0.379349	-0.633226
C48	C	1.134150	-0.365198	-0.647441
H49	H	1.279281	-0.333802	-0.678904
H50	H	1.259984	-0.363884	-0.562670
H51	H	1.260012	-0.449957	-0.648484
H52	H	1.116173	-0.294591	-0.632176
H53	H	1.116195	-0.380655	-0.718014
C54	C	1.241928	-0.632757	-0.379056
C55	C	1.134030	-0.646958	-0.364864
H56	H	1.279134	-0.678284	-0.333368
H57	H	1.259939	-0.648218	-0.449608
H58	H	1.259888	-0.562140	-0.363799
H59	H	1.116069	-0.717573	-0.380128
H60	H	1.116011	-0.631504	-0.294295
C61	C	1.310078	-1.184016	-0.424256
C62	C	1.377539	-1.120918	-0.365045
H63	H	1.264532	-1.221315	-0.378624
H64	H	1.269846	-1.141209	-0.469977
H65	H	1.350110	-1.232330	-0.464311
H66	H	1.337508	-1.072598	-0.324995
H67	H	1.417776	-1.163729	-0.319305
H68	H	1.652705	-0.806297	-0.640637
C69	C	1.779493	-0.782122	-0.767589
C70	C	1.793717	-0.889994	-0.781815
H71	H	1.825057	-0.744833	-0.813212
H72	H	1.708896	-0.764181	-0.782905
H73	H	1.794898	-0.764195	-0.697004
H74	H	1.778304	-0.907923	-0.852399
H75	H	1.864331	-0.907943	-0.766507
C76	C	1.727018	-0.424172	-0.828467
C77	C	1.659577	-0.364899	-0.891563
H78	H	1.772611	-0.378581	-0.791254
H79	H	1.686982	-0.464198	-0.780089
H80	H	1.767212	-0.469923	-0.871275
H81	H	1.619377	-0.319153	-0.848754
H82	H	1.699617	-0.324855	-0.939947
H83	H	1.396610	-0.627771	-1.106181
C84	C	1.852736	-1.048915	-0.840872
C85	C	1.793819	-1.120324	-0.781869
H86	H	1.898334	-1.086079	-0.886507
H87	H	1.806922	-1.006124	-0.881012
H88	H	1.892921	-1.006123	-0.795107
H89	H	1.753628	-1.163111	-0.827634
H90	H	1.839639	-1.163134	-0.741726
H91	H	1.652865	-1.204433	-0.640742
C92	C	1.318511	-0.961981	-0.305992
C93	C	1.377424	-0.890579	-0.365007
H94	H	1.272920	-0.924811	-0.260354
H95	H	1.278328	-1.004775	-0.351741
H96	H	1.364335	-1.004771	-0.265845
H97	H	1.331601	-0.847794	-0.405161
H98	H	1.417611	-0.847768	-0.319253
H99	H	1.640483	-0.383969	-1.106251
H100	H	0.919454	-0.384356	-0.628278
H101	H	1.396575	-0.627829	-0.907113
