data_functionalizedCrystal
_audit_creation_method	'MofGen! by Chris Wilmer'
_symmetry_space_group_name_H-M	'P1'
_symmetry_Int_Tables_number	1
_symmetry_cell_setting	triclinic
loop_
_symmetry_equiv_pos_as_xyz
  x,y,z
_cell_length_a	23.532407
_cell_length_b	19.288865
_cell_length_c	22.010155
_cell_angle_alpha	89.990247
_cell_angle_beta	90.018154
_cell_angle_gamma	97.007538
loop_
_atom_site_label
_atom_site_type_symbol
_atom_site_fract_x
_atom_site_fract_y
_atom_site_fract_z
O1	O	0.755444	-0.084316	0.050566
O2	O	1.255444	0.415684	0.550566
O3	O	0.589606	-0.096517	0.050561
O4	O	1.089606	0.403483	0.550561
O5	O	0.677317	0.010729	0.050552
O6	O	1.177317	0.510729	0.550552
O7	O	0.667733	-0.191562	0.050575
O8	O	1.167733	0.308438	0.550575
O9	O	0.677290	0.010729	-0.050499
O10	O	1.177290	0.510729	0.449501
O11	O	0.589579	-0.096517	-0.050490
O12	O	1.089579	0.403483	0.449510
O13	O	0.755417	-0.084317	-0.050484
O14	O	1.255417	0.415683	0.449516
Cu15	Cu	0.672496	-0.090417	-0.059714
Cu16	Cu	1.172496	0.409583	0.440286
Cu17	Cu	0.672527	-0.090417	0.059790
Cu18	Cu	1.172527	0.409583	0.559790
O19	O	0.667706	-0.191562	-0.050475
O20	O	1.167706	0.308438	0.449525
C21	C	0.568376	-0.096206	0.000035
C22	C	1.068376	0.403794	0.500035
C23	C	0.505157	-0.095272	0.000032
C24	C	1.005157	0.404728	0.500032
C25	C	0.776647	-0.084627	0.000043
C26	C	1.276647	0.415373	0.500043
C27	C	0.839866	-0.085561	0.000050
C28	C	1.339866	0.414439	0.500050
C29	C	0.676995	0.036604	0.000025
C30	C	1.176995	0.536604	0.500025
C31	C	0.676069	0.113705	0.000019
C32	C	1.176069	0.613705	0.500019
C33	C	1.238850	-0.027954	0.000022
C34	C	1.738850	0.472046	0.500022
C35	C	1.298252	-0.028822	0.000019
C36	C	1.798252	0.471178	0.500019
O37	O	1.334886	0.024580	-0.000009
O38	O	1.834886	0.524580	0.499991
N39	N	1.321010	-0.092579	0.000028
N40	N	1.821010	0.407421	0.500028
C41	C	1.284363	-0.155473	0.000034
C42	C	1.784363	0.344527	0.500034
O43	O	1.309175	-0.209783	0.000041
O44	O	1.809175	0.290217	0.500041
C45	C	1.224962	-0.154604	0.000032
C46	C	1.724962	0.345396	0.500032
C47	C	1.202207	-0.090843	0.000029
C48	C	1.702207	0.409157	0.500029
C49	C	1.216094	0.035802	0.000018
C50	C	1.716094	0.535802	0.500018
C51	C	1.156696	0.036669	0.000022
C52	C	1.656696	0.536669	0.500022
C53	C	1.120054	-0.026220	0.000029
C54	C	1.620054	0.473780	0.500029
C55	C	1.142809	-0.089976	0.000033
C56	C	1.642809	0.410024	0.500033
C57	C	1.188316	-0.217497	0.000034
C58	C	1.688316	0.282503	0.500034
C59	C	1.128912	-0.216623	0.000032
C60	C	1.628912	0.283377	0.500032
C61	C	1.106157	-0.152862	0.000028
C62	C	1.606157	0.347138	0.500028
C63	C	1.046769	-0.151997	0.000044
C64	C	1.546769	0.348003	0.500044
N65	N	1.024011	-0.088240	0.000035
N66	N	1.524011	0.411760	0.500035
C67	C	1.060653	-0.025351	0.000028
C68	C	1.560653	0.474649	0.500028
C69	C	1.409109	-0.157292	0.000037
C70	C	1.909109	0.342708	0.500037
C71	C	1.468509	-0.158161	0.000043
C72	C	1.968509	0.341839	0.500043
C73	C	1.482394	-0.031510	0.000027
C74	C	1.982394	0.468490	0.500027
C75	C	1.422993	-0.030641	0.000025
C76	C	1.922993	0.469359	0.500025
C77	C	1.386351	-0.093535	0.000028
C78	C	1.886351	0.406465	0.500028
C79	C	0.935913	-0.023534	0.000036
C80	C	1.435913	0.476466	0.500036
C81	C	0.876509	-0.022672	0.000042
C82	C	1.376509	0.477328	0.500042
C83	C	0.862629	-0.149323	0.000055
C84	C	1.362629	0.350677	0.500055
C85	C	0.922028	-0.150185	0.000052
C86	C	1.422028	0.349815	0.500052
C87	C	0.958669	-0.087285	0.000040
C88	C	1.458669	0.412715	0.500040
O89	O	1.010100	-0.205371	0.000070
O90	O	1.510100	0.294629	0.500070
O91	O	1.035833	0.028950	0.000012
O92	O	1.535833	0.528950	0.500012
C93	C	0.668028	-0.217437	0.000053
C94	C	1.168028	0.282563	0.500053
C95	C	0.668954	-0.294538	0.000063
C96	C	1.168954	0.205462	0.500063
N97	N	0.672478	-0.090416	-0.143766
N98	N	1.172478	0.409584	0.356234
C99	C	0.727534	0.158560	0.000018
C100	C	1.227534	0.658560	0.500018
C101	C	0.726664	0.231004	0.000027
C102	C	1.226664	0.731004	0.500027
C103	C	0.674327	0.258590	0.000026
C104	C	1.174327	0.758590	0.500026
C105	C	0.622855	0.213725	0.000031
C106	C	1.122855	0.713725	0.500031
C107	C	0.623727	0.141283	0.000027
C108	C	1.123727	0.641283	0.500027
C109	C	0.633174	0.366751	-0.035371
C110	C	1.133174	0.866751	0.464629
C111	C	0.632306	0.439193	-0.035371
C112	C	1.132306	0.939193	0.464629
C113	C	0.671638	0.482028	0.000040
C114	C	1.171638	0.982028	0.500040
C115	C	0.711849	0.452413	0.035443
C116	C	1.211849	0.952413	0.535443
C117	C	0.712720	0.379971	0.035439
C118	C	1.212720	0.879971	0.535439
C119	C	0.673377	0.337141	0.000030
C120	C	1.173377	0.837141	0.500030
C121	C	0.722163	0.605436	0.000050
C122	C	1.222163	1.105436	0.500050
C123	C	0.721292	0.677881	0.000063
C124	C	1.221292	1.177881	0.500063
C125	C	0.617481	0.660601	0.000060
C126	C	1.117481	1.160601	0.500060
C127	C	0.618354	0.588157	0.000053
C128	C	1.118354	1.088157	0.500053
C129	C	0.670697	0.560579	0.000045
C130	C	1.170697	1.060579	0.500045
C131	C	0.706959	-0.132323	-0.563539
C132	C	1.206959	0.367677	-0.063539
C133	C	0.706966	-0.132321	-0.627147
C134	C	1.206966	0.367679	-0.127147
O135	O	0.736263	-0.167948	-0.660033
O136	O	1.236263	0.332052	-0.160033
N137	N	0.672538	-0.090409	-0.658973
N138	N	1.172538	0.409591	-0.158973
C139	C	0.638106	-0.048489	-0.627189
C140	C	1.138106	0.451511	-0.127189
O141	O	0.608823	-0.012838	-0.660100
O142	O	1.108823	0.487162	-0.160100
C143	C	0.638102	-0.048488	-0.563582
C144	C	1.138102	0.451512	-0.063582
C145	C	0.672528	-0.090409	-0.531759
C146	C	1.172528	0.409591	-0.031759
C147	C	0.741383	-0.174240	-0.531716
C148	C	1.241383	0.325760	-0.031716
C149	C	0.741375	-0.174243	-0.468113
C150	C	1.241375	0.325757	0.031887
C151	C	0.706944	-0.132328	-0.436333
C152	C	1.206944	0.367672	0.063667
C153	C	0.672521	-0.090411	-0.468156
C154	C	1.172521	0.409589	0.031844
C155	C	0.603673	-0.006565	-0.531799
C156	C	1.103673	0.493435	-0.031799
C157	C	0.603673	-0.006567	-0.468188
C158	C	1.103673	0.493433	0.031812
C159	C	0.638099	-0.048488	-0.436365
C160	C	1.138099	0.451512	0.063635
C161	C	0.638082	-0.048500	-0.372773
C162	C	1.138082	0.451500	0.127227
N163	N	0.672510	-0.090412	-0.340946
N164	N	1.172510	0.409588	0.159054
C165	C	0.706941	-0.132327	-0.372726
C166	C	1.206941	0.367673	0.127274
C167	C	0.638116	-0.048495	-0.760767
C168	C	1.138116	0.451505	-0.260767
C169	C	0.638116	-0.048500	-0.824372
C170	C	1.138116	0.451500	-0.324372
C171	C	0.706977	-0.132331	-0.824325
C172	C	1.206977	0.367669	-0.324325
C173	C	0.706974	-0.132329	-0.760719
C174	C	1.206974	0.367671	-0.260719
C175	C	0.672544	-0.090408	-0.728940
C176	C	1.172544	0.409592	-0.228940
C177	C	0.706922	-0.132330	-0.239155
C178	C	1.206922	0.367670	0.260845
C179	C	0.706909	-0.132331	-0.175546
C180	C	1.206909	0.367669	0.324454
C181	C	0.638050	-0.048497	-0.175598
C182	C	1.138050	0.451503	0.324402
C183	C	0.638060	-0.048498	-0.239201
C184	C	1.138060	0.451502	0.260799
C185	C	0.672501	-0.090417	-0.270978
C186	C	1.172501	0.409583	0.229022
O187	O	0.608802	-0.012889	-0.339846
O188	O	1.108802	0.487111	0.160154
O189	O	0.736224	-0.167965	-0.339807
O190	O	1.236224	0.332035	0.160193
N191	N	0.672549	-0.090411	0.143843
N192	N	1.172549	0.409589	0.643843
H193	H	0.857986	0.029252	0.000041
H194	H	1.357986	0.529252	0.500041
F195	F	0.567031	0.038058	-0.434371
F196	F	1.067031	0.538058	0.065629
H197	H	0.764784	0.582981	0.000046
H198	H	1.264784	1.082981	0.500046
F199	F	0.567154	0.243085	0.000033
F200	F	1.067154	0.743085	0.500033
F201	F	1.089917	-0.283565	0.000032
F202	F	1.589917	0.216435	0.500032
F203	F	0.743577	-0.176944	-0.272965
F204	F	1.243577	0.323056	0.227035
H205	H	0.610021	-0.014372	-0.265113
H206	H	1.110021	0.485628	0.234887
F207	F	0.783242	0.129214	0.000022
F208	F	1.283242	0.629214	0.500022
F209	F	0.743616	-0.176945	-0.726856
F210	F	1.243616	0.323055	-0.226856
H211	H	0.575641	0.027572	-0.557699
H212	H	1.075641	0.527572	-0.057699
F213	F	1.398781	0.037221	0.000020
F214	F	1.898781	0.537221	0.500020
H215	H	0.581816	0.104761	0.000028
H216	H	1.081816	0.604761	0.500028
F217	F	0.743625	-0.176938	-0.858159
F218	F	1.243625	0.323062	-0.358159
H219	H	0.610073	-0.014360	-0.734896
H220	H	1.110073	0.485640	-0.234896
F221	F	0.591309	0.321169	-0.073064
F222	F	1.091309	0.821169	0.426936
H223	H	0.610076	-0.014372	-0.850277
H224	H	1.110076	0.485628	-0.350277
F225	F	0.561779	0.689955	0.000062
F226	F	1.061779	1.189955	0.500062
F227	F	1.255084	0.102743	0.000008
F228	F	1.755084	0.602743	0.500008
H229	H	0.610016	-0.014373	-0.149711
H230	H	1.110016	0.485627	0.350289
H231	H	0.965739	0.027685	0.000027
H232	H	1.465739	0.527685	0.500027
F233	F	0.776071	0.725620	0.000065
F234	F	1.276071	1.225620	0.500065
H235	H	0.576446	0.551635	0.000051
H236	H	1.076446	1.051635	0.500051
H237	H	1.138175	0.088590	0.000017
H238	H	1.638175	0.588590	0.500017
H239	H	0.940555	-0.202105	0.000055
H240	H	1.440555	0.297895	0.500055
H241	H	1.512239	0.019698	0.000021
H242	H	2.012239	0.519698	0.500021
F243	F	0.778009	-0.218870	-0.434252
F244	F	1.278009	0.281130	0.065748
F245	F	1.492720	-0.226024	0.000058
F246	F	1.992720	0.273976	0.500058
F247	F	1.370116	-0.224236	0.000046
F248	F	1.870116	0.275764	0.500046
H249	H	0.832784	-0.200525	0.000064
H250	H	1.332784	0.299475	0.500064
F251	F	1.212520	-0.285362	0.000037
F252	F	1.712520	0.214638	0.500037
F253	F	0.781443	0.278751	0.000027
F254	F	1.281443	0.778751	0.500027
H255	H	0.745461	0.355862	0.064267
H256	H	1.245461	0.855862	0.564267
H257	H	0.743877	0.487289	0.064278
H258	H	1.243877	0.987289	0.564278
F259	F	0.743548	-0.176955	-0.141681
F260	F	1.243548	0.323045	0.358319
F261	F	0.589512	0.470704	-0.073052
F262	F	1.089512	0.970704	0.426948
H263	H	0.769424	-0.208372	-0.557585
H264	H	1.269424	0.291628	-0.057585
