data_functionalizedCrystal
_audit_creation_method	'MofGen! by Chris Wilmer'
_symmetry_space_group_name_H-M	'P1'
_symmetry_Int_Tables_number	1
_symmetry_cell_setting	triclinic
loop_
_symmetry_equiv_pos_as_xyz
  x,y,z
_cell_length_a	21.395364
_cell_length_b	11.169409
_cell_length_c	21.395362
_cell_angle_alpha	90.039795
_cell_angle_beta	89.957550
_cell_angle_gamma	89.976088
loop_
_atom_site_label
_atom_site_type_symbol
_atom_site_fract_x
_atom_site_fract_y
_atom_site_fract_z
Zn1	Zn	0.957869	-0.678588	0.249138
Zn2	Zn	0.957779	-0.477878	0.353934
Zn3	Zn	0.853085	-0.477910	0.249202
Zn4	Zn	0.853059	-0.678511	0.353909
O5	O	0.905448	-0.578222	0.301546
O6	O	1.045535	-0.651982	0.263023
O7	O	0.943864	-0.309933	0.340079
O8	O	0.867034	-0.504576	0.161516
O9	O	1.045469	-0.504521	0.340017
O10	O	0.944018	-0.652013	0.161469
O11	O	0.866946	-0.309956	0.263132
O12	O	0.765404	-0.504502	0.263108
O13	O	0.866990	-0.846471	0.339974
O14	O	0.765385	-0.651883	0.340036
O15	O	0.943993	-0.846527	0.262999
O16	O	0.943839	-0.504447	0.441609
O17	O	0.866902	-0.651851	0.441590
C18	C	0.742661	-0.578188	0.301576
C19	C	0.673019	-0.578202	0.301605
C20	C	0.640363	-0.655103	0.261580
C21	C	0.574928	-0.655108	0.261563
C22	C	0.542151	-0.578224	0.301582
C23	C	0.574815	-0.501308	0.341610
C24	C	0.640249	-0.501297	0.341621
C25	C	0.438430	-0.568572	0.358009
C26	C	0.372997	-0.568591	0.357999
C27	C	0.340330	-0.578251	0.301548
C28	C	0.373105	-0.587916	0.245105
C29	C	0.438539	-0.587905	0.245116
C30	C	0.471199	-0.578227	0.301575
C31	C	0.236722	-0.655161	0.261502
C32	C	0.171285	-0.655157	0.261484
C33	C	0.171174	-0.501363	0.341537
C34	C	0.236609	-0.501361	0.341549
C35	C	0.269379	-0.578266	0.301532
C36	C	0.905498	-0.891264	0.301477
C37	C	0.905520	-1.024665	0.301447
C38	C	1.068872	-0.578256	0.301516
C39	C	1.138513	-0.578271	0.301503
C40	C	0.905375	-0.578164	0.464334
C41	C	0.905400	-0.578179	0.533975
C42	C	0.905434	-0.266397	0.301570
C43	C	0.905534	-0.132998	0.301423
C44	C	0.905539	-0.578306	0.138123
C45	C	0.905578	-0.578342	0.068481
C46	C	0.945660	-0.501663	1.035760
C47	C	0.945636	-0.501635	0.970324
C48	C	0.905537	-0.578308	0.937613
C49	C	0.865447	-0.654992	0.970343
C50	C	0.865467	-0.655009	1.035777
C51	C	0.900529	-0.686402	0.833904
C52	C	0.900512	-0.686386	0.768471
C53	C	0.905470	-0.578253	0.735792
C54	C	0.910458	-0.470132	0.768555
C55	C	0.910478	-0.470150	0.833989
C56	C	0.905510	-0.578297	0.866661
C57	C	0.945529	-0.501537	0.632118
C58	C	0.945501	-0.501507	0.566682
C59	C	0.865315	-0.654875	0.566701
C60	C	0.865340	-0.654894	0.632136
C61	C	0.905450	-0.578227	0.664841
H62	H	0.346509	-0.595782	0.199138
O63	O	0.135832	-0.418434	0.384703
H64	H	0.084845	-0.431364	0.377974
O65	O	0.915810	-0.353490	0.733320
H66	H	0.875997	-0.294484	0.745955
O67	O	0.915857	-0.353540	0.869323
H68	H	0.915044	-0.371726	0.920312
O69	O	0.272074	-0.738086	0.218335
H70	H	0.238370	-0.791547	0.190491
O71	O	0.539464	-0.418384	0.384773
H72	H	0.552003	-0.324225	0.373967
O73	O	0.136063	-0.738102	0.218307
H74	H	0.085056	-0.725180	0.225014
H75	H	0.263198	-0.438744	0.374144
O76	O	0.539691	-0.738055	0.218394
H77	H	0.552259	-0.832209	0.229206
H78	H	0.832702	-0.717338	0.658779
H79	H	0.832828	-0.717455	1.062418
O80	O	0.988780	-0.418837	0.667400
H81	H	1.016641	-0.365495	0.633650
H82	H	0.896604	-0.774482	0.860505
H83	H	0.978139	-0.439059	0.540039
O84	O	0.988884	-0.418961	0.935017
H85	H	0.960863	-0.357827	0.905255
O86	O	0.473891	-0.598298	0.184244
H87	H	0.440188	-0.605004	0.144985
H88	H	0.346317	-0.560727	0.403958
O89	O	0.822064	-0.737578	0.531431
H90	H	0.828785	-0.724690	0.480432
H91	H	0.832796	-0.717418	0.943706
O92	O	0.988915	-0.418969	1.071036
H93	H	0.978189	-0.324751	1.058532
O94	O	0.895101	-0.802989	0.733135
H95	H	0.891632	-0.878179	0.766850
H96	H	0.667041	-0.717725	0.228995
H97	H	0.465022	-0.560705	0.403981
H98	H	0.666837	-0.438673	0.374215
