data_functionalizedCrystal
_audit_creation_method	'MofGen! by Chris Wilmer'
_symmetry_space_group_name_H-M	'P1'
_symmetry_Int_Tables_number	1
_symmetry_cell_setting	triclinic
loop_
_symmetry_equiv_pos_as_xyz
  x,y,z
_cell_length_a	15.698487
_cell_length_b	12.970454
_cell_length_c	12.970454
_cell_angle_alpha	89.998622
_cell_angle_beta	60.000833
_cell_angle_gamma	59.999083
loop_
_atom_site_label
_atom_site_type_symbol
_atom_site_fract_x
_atom_site_fract_y
_atom_site_fract_z
Zr1	Zr	0.932403	0.993215	-0.135297
O2	O	1.110114	0.828591	-0.299913
O3	O	0.754692	1.043681	-0.084836
O4	O	0.932404	1.043681	-0.299922
O5	O	0.932401	0.828591	0.084841
O6	O	0.932404	1.213348	-0.299926
O7	O	0.932402	0.828591	-0.084827
O8	O	0.614511	1.213347	0.084823
O9	O	1.250295	0.828591	-0.299909
O10	O	0.827788	1.191824	-0.063314
O11	O	0.827787	1.065204	0.063309
O12	O	1.037019	1.065204	-0.189927
O13	O	1.037018	0.938583	-0.063303
Zr14	Zr	0.932403	1.263813	0.135297
Zr15	Zr	0.932404	1.263813	-0.135303
Zr16	Zr	0.932402	0.993214	0.135303
Zr17	Zr	1.155976	0.993214	-0.135290
Zr18	Zr	0.708830	1.263813	0.135291
O19	O	1.110114	1.213347	0.084837
O20	O	1.110115	1.213347	-0.299921
O21	O	1.110112	0.828590	0.084846
O22	O	0.754692	1.428437	0.299913
O23	O	0.754694	1.428437	-0.084845
O24	O	0.754690	1.043680	0.299922
O25	O	0.932404	1.428437	-0.084840
O26	O	0.932402	1.213347	0.299923
O27	O	0.932401	1.043680	0.299927
O28	O	0.932404	1.428437	0.084827
O29	O	1.250296	1.043681	-0.299914
O30	O	0.614510	1.213347	0.299914
O31	O	0.614511	1.428437	0.299910
O32	O	0.614512	1.428437	0.084819
O33	O	1.250294	0.828590	-0.084818
O34	O	1.250295	1.043680	-0.084823
O35	O	0.827787	1.191824	0.189927
O36	O	0.827788	1.318444	0.063304
O37	O	1.037019	1.191824	-0.063309
O38	O	1.037018	1.065203	0.063315
C39	C	0.652747	1.128514	-0.000007
C40	C	0.557835	1.128514	-0.000010
C41	C	0.932401	1.128513	0.338480
C42	C	0.932401	1.128513	0.453356
C43	C	0.932404	1.466991	-0.000007
C44	C	0.932405	1.581867	-0.000010
C45	C	0.384052	1.128511	0.000012
C46	C	0.480757	1.128510	0.000003
C47	C	1.212059	1.128513	0.000008
C48	C	1.306971	1.128513	0.000011
C49	C	0.932401	0.790036	0.000008
C50	C	0.932401	0.675160	0.000011
C51	C	0.932404	1.128514	-0.338479
C52	C	0.932405	1.128515	-0.453356
C53	C	0.652749	1.466992	-0.000015
C54	C	0.557837	1.581868	-0.000020
C55	C	0.652746	1.128514	0.338472
C56	C	0.557833	1.128514	0.453346
C57	C	0.652747	1.466991	0.338464
C58	C	0.557835	1.581867	0.453336
C59	C	1.212059	0.790036	-0.338464
C60	C	1.306971	0.675160	-0.453335
C61	C	1.212057	0.790036	0.000016
C62	C	1.306969	0.675160	0.000021
C63	C	1.212060	1.128514	-0.338471
C64	C	1.306973	1.128514	-0.453345
C65	C	0.513265	1.569721	-0.066127
C66	C	0.424097	1.677649	-0.066157
C67	C	0.379497	1.797723	-0.000072
C68	C	0.424077	1.809868	0.066037
C69	C	0.513249	1.701941	0.066059
C70	C	0.513260	1.194608	0.573397
C71	C	0.424092	1.194603	0.681344
C72	C	0.379491	1.128511	0.669237
C73	C	0.424072	1.062408	0.549174
C74	C	0.513245	1.062406	0.441230
C75	C	0.513263	1.701920	0.441185
C76	C	0.424095	1.809869	0.549108
C77	C	0.379494	1.797762	0.669182
C78	C	0.424074	1.677696	0.681331
C79	C	0.513247	1.569750	0.573409
C80	C	1.351553	0.555107	-0.441184
C81	C	1.440749	0.447159	-0.549108
C82	C	1.485355	0.459266	-0.669181
C83	C	1.440769	0.579331	-0.681330
C84	C	1.351581	0.687277	-0.573408
C85	C	1.351550	0.687307	0.066117
C86	C	1.440742	0.579379	0.066117
C87	C	1.485346	0.459304	0.000028
C88	C	1.440761	0.447160	-0.066076
C89	C	1.351577	0.555087	-0.066083
C90	C	1.351546	1.194619	-0.441198
C91	C	1.440715	1.194644	-0.549124
C92	C	1.485316	1.128555	-0.669196
C93	C	1.440734	1.062448	-0.681341
C94	C	1.351561	1.062431	-0.573416
H95	H	0.549577	1.471960	-0.119957
H96	H	0.306884	1.885669	0.757049
H97	H	0.387751	1.907647	0.119841
C98	C	1.431821	0.931771	-0.801222
C99	C	1.489768	0.989805	-0.813331
H100	H	1.462093	0.886929	-0.882710
H101	H	1.446444	0.874719	-0.756382
H102	H	1.347625	0.994315	-0.756378
H103	H	1.573963	0.927259	-0.858167
H104	H	1.475155	1.046862	-0.858191
H105	H	0.549564	1.248429	0.583279
H106	H	1.477091	0.349381	-0.119883
H107	H	1.477028	0.589292	0.119952
C108	C	1.360556	0.807053	-0.714965
C109	C	1.302567	0.819239	-0.586778
H110	H	1.330293	0.888520	-0.723223
H111	H	1.444736	0.762217	-0.754295
H112	H	1.345946	0.762172	-0.754307
H113	H	1.317184	0.864112	-0.547439
H114	H	1.218367	0.864094	-0.547432
H115	H	0.387805	1.248436	0.779094
H116	H	1.477036	0.349407	-0.539191
C117	C	1.685905	1.004443	-0.859785
C118	C	1.583343	1.128573	-0.787824
H119	H	1.746420	1.004458	-0.933019
H120	H	1.715120	0.969069	-0.810947
H121	H	1.665733	0.955626	-0.884207
H122	H	1.603514	1.177389	-0.763393
H123	H	1.554125	1.163964	-0.836670
C124	C	0.649965	1.595160	0.217026
C125	C	0.562281	1.715249	0.309206
H126	H	0.680218	1.603400	0.135553
H127	H	0.713976	1.550315	0.226499
H128	H	0.615156	1.550329	0.226502
H129	H	0.597092	1.760077	0.299737
H130	H	0.498259	1.760113	0.299729
C131	C	1.178460	0.599732	-0.054606
C132	C	1.302562	0.541722	-0.138723
H133	H	1.148205	0.591478	-0.099457
H134	H	1.163867	0.560375	0.007933
H135	H	1.139141	0.686691	-0.015265
H136	H	1.341882	0.454760	-0.178058
H137	H	1.317165	0.581075	-0.201285
H138	H	1.315245	1.248437	-0.343439
H139	H	0.387747	1.667857	0.779110
H140	H	1.315280	1.008595	-0.583324
H141	H	1.557977	0.371359	-0.757049
C142	C	0.504225	1.449975	0.714966
C143	C	0.562219	1.437788	0.586779
H144	H	0.534452	1.368507	0.723224
H145	H	0.518861	1.494812	0.754300
H146	H	0.420030	1.494854	0.754303
H147	H	0.646414	1.392917	0.547444
H148	H	0.547592	1.392932	0.547428
H149	H	0.387811	1.667736	-0.119991
C150	C	1.685947	0.268723	-0.124082
C151	C	1.583384	0.340682	0.000044
H152	H	1.746473	0.195500	-0.124064
H153	H	1.665787	0.244286	-0.172895
H154	H	1.715150	0.317578	-0.159460
H155	H	1.554176	0.291830	0.035419
H156	H	1.603545	0.365116	0.048875
H157	H	0.549524	1.008589	0.343483
H158	H	1.315241	0.785067	0.119943
H159	H	0.306886	1.885594	-0.000099
H160	H	1.315240	0.545225	-0.343423
H161	H	0.549528	1.711849	0.119899
H162	H	1.477003	1.248475	-0.539211
H163	H	0.306881	1.128522	0.757142
H164	H	0.387807	1.907622	0.539194
H165	H	0.387745	1.008597	0.539335
H166	H	1.477099	0.589174	-0.779107
