data_functionalizedCrystal
_audit_creation_method	'MofGen! by Chris Wilmer'
_symmetry_space_group_name_H-M	'P1'
_symmetry_Int_Tables_number	1
_symmetry_cell_setting	triclinic
loop_
_symmetry_equiv_pos_as_xyz
  x,y,z
_cell_length_a	12.827892
_cell_length_b	10.686409
_cell_length_c	10.686220
_cell_angle_alpha	89.606950
_cell_angle_beta	85.603213
_cell_angle_gamma	85.701411
loop_
_atom_site_label
_atom_site_type_symbol
_atom_site_fract_x
_atom_site_fract_y
_atom_site_fract_z
Zn1	Zn	0.325846	-0.562317	1.972627
Zn2	Zn	0.825846	-0.062317	2.472627
Zn3	Zn	0.488481	-0.352588	1.956270
Zn4	Zn	0.988481	0.147412	2.456270
Zn5	Zn	0.328100	-0.368660	1.746628
Zn6	Zn	0.828100	0.131340	2.246628
Zn7	Zn	0.514897	-0.578337	1.762837
Zn8	Zn	1.014897	-0.078337	2.262837
O9	O	0.414331	-0.465476	1.859591
O10	O	0.914331	0.034524	2.359591
O11	O	0.335421	-0.521066	2.145991
O12	O	0.835421	-0.021066	2.645991
O13	O	0.457095	-0.179197	1.914832
O14	O	0.957095	0.320803	2.414832
O15	O	0.181563	-0.394371	1.776670
O16	O	0.681563	0.105629	2.276670
O17	O	0.454908	-0.366979	2.133974
O18	O	0.954908	0.133021	2.633974
O19	O	0.179906	-0.536650	1.942710
O20	O	0.679906	-0.036650	2.442710
O21	O	0.339264	-0.191005	1.760809
O22	O	0.839264	0.308995	2.260809
O23	O	0.364878	-0.409904	1.573245
O24	O	0.864878	0.090096	2.073245
O25	O	0.499931	-0.751735	1.804295
O26	O	0.999931	-0.251735	2.304295
O27	O	0.502117	-0.563953	1.585153
O28	O	1.002117	-0.063953	2.085153
O29	O	0.361036	-0.739965	1.958427
O30	O	0.861036	-0.239965	2.458427
O31	O	0.638224	-0.382512	1.930549
O32	O	1.138224	0.117488	2.430549
O33	O	0.657632	-0.548369	1.788434
O34	O	1.157632	-0.048369	2.288434
C35	C	0.436610	-0.490412	1.533685
C36	C	0.936610	0.009588	2.033685
C37	C	0.446168	-0.501109	1.394263
C38	C	0.946168	-0.001109	1.894263
C39	C	0.685845	-0.465459	1.859512
C40	C	1.185845	0.034541	2.359512
C41	C	0.801994	-0.465486	1.859596
C42	C	1.301994	0.034514	2.359596
C43	C	0.141756	-0.465517	1.859706
C44	C	0.641756	0.034483	2.359706
C45	C	0.025601	-0.465534	1.859756
C46	C	0.525601	0.034466	2.359756
C47	C	0.972923	-0.535986	1.941814
C48	C	1.472923	-0.035986	2.441814
C49	C	0.852876	-0.535961	1.941729
C50	C	1.352876	-0.035961	2.441729
C51	C	0.395477	-0.139585	1.834359
C52	C	0.895477	0.360415	2.334359
C53	C	0.387134	-0.000151	1.823776
C54	C	0.887134	0.499849	2.323776
C55	C	0.433178	-0.792634	1.884994
C56	C	0.933178	-0.292634	2.384994
C57	C	0.441210	-0.932049	1.895819
C58	C	0.941210	-0.432049	2.395819
C59	C	0.391966	-0.440443	2.186769
C60	C	0.891966	0.059557	2.686769
C61	C	0.382436	-0.429775	2.326193
C62	C	0.882436	0.070225	2.826193
H63	H	1.016697	-0.596317	2.012135
H64	H	1.516697	-0.096317	2.512135
C65	C	0.298836	-0.336219	1.391556
C66	C	0.798836	0.163781	1.891556
N67	N	0.235865	-0.265753	1.440796
N68	N	0.735865	0.234247	1.940796
C69	C	0.529769	-0.594675	1.328896
C70	C	1.029769	-0.094675	1.828896
N71	N	0.592735	-0.665148	1.279660
N72	N	1.092735	-0.165148	1.779660
H73	H	0.807580	-0.596283	2.011979
H74	H	1.307580	-0.096283	2.511979
C75	C	0.512483	0.002601	1.989979
C76	C	1.012483	0.502601	2.489979
N77	N	0.566197	-0.046625	2.060864
N78	N	1.066197	0.453375	2.560864
C79	C	0.966469	-0.384021	1.764757
C80	C	1.466469	0.115979	2.264757
N81	N	0.921933	-0.322625	1.693200
N82	N	1.421933	0.177375	2.193200
H83	H	0.847287	-0.405172	1.789333
H84	H	1.347287	0.094828	2.289333
H85	H	0.334453	0.048214	1.754004
H86	H	0.834453	0.548214	2.254004
