data_functionalizedCrystal
_audit_creation_method	'MofGen! by Chris Wilmer'
_symmetry_space_group_name_H-M	'P1'
_symmetry_Int_Tables_number	1
_symmetry_cell_setting	triclinic
loop_
_symmetry_equiv_pos_as_xyz
  x,y,z
_cell_length_a	27.732048
_cell_length_b	27.732048
_cell_length_c	13.596369
_cell_angle_alpha	89.989067
_cell_angle_beta	90.000164
_cell_angle_gamma	82.642655
loop_
_atom_site_label
_atom_site_type_symbol
_atom_site_fract_x
_atom_site_fract_y
_atom_site_fract_z
O1	O	0.640928	0.057518	-0.081675
O2	O	1.140928	0.557518	0.418325
O3	O	0.500134	0.066263	-0.081706
O4	O	1.000134	0.566263	0.418294
O5	O	0.574904	-0.008506	-0.081671
O6	O	1.074904	0.491494	0.418329
O7	O	0.566158	0.132287	-0.081710
O8	O	1.066158	0.632287	0.418290
O9	O	0.574896	-0.008510	0.081912
O10	O	1.074896	0.491490	0.581912
O11	O	0.500127	0.066259	0.081877
O12	O	1.000127	0.566259	0.581877
O13	O	0.640920	0.057514	0.081908
O14	O	1.140920	0.557514	0.581908
Zn15	Zn	0.570522	0.061886	0.107864
Zn16	Zn	1.070522	0.561886	0.607864
Zn17	Zn	0.570532	0.061891	-0.107663
Zn18	Zn	1.070532	0.561891	0.392337
O19	O	0.566151	0.132283	0.081872
O20	O	1.066151	0.632283	0.581872
C21	C	0.482124	0.066078	0.000081
C22	C	0.982124	0.566078	0.500081
C23	C	0.428469	0.065525	0.000070
C24	C	0.928469	0.565525	0.500070
C25	C	0.574716	-0.026515	0.000123
C26	C	1.074716	0.473485	0.500123
C27	C	0.574164	-0.080170	0.000131
C28	C	1.074164	0.419830	0.500131
C29	C	0.089654	0.106229	0.000101
C30	C	0.589654	0.606229	0.500101
C31	C	-0.112006	0.104178	0.000111
C32	C	0.387994	0.604178	0.500111
O33	O	-0.143262	0.141398	0.000143
O34	O	0.356738	0.641398	0.500143
N35	N	-0.131130	0.059843	0.000121
N36	N	0.368870	0.559843	0.500121
C37	C	-0.099835	0.016017	0.000136
C38	C	0.400165	0.516017	0.500136
O39	O	-0.120728	-0.021740	0.000156
O40	O	0.379272	0.478260	0.500156
C41	C	0.101824	0.018068	0.000134
C42	C	0.601824	0.518068	0.500134
C43	C	0.120944	0.062407	0.000113
C44	C	0.620944	0.562407	0.500113
C45	C	0.108775	0.150563	0.000082
C46	C	0.608775	0.650563	0.500082
C47	C	0.159187	0.151075	0.000074
C48	C	0.659187	0.651075	0.500074
C49	C	0.190477	0.107253	0.000086
C50	C	0.690477	0.607253	0.500086
C51	C	0.171356	0.062919	0.000106
C52	C	0.671356	0.562919	0.500106
C53	C	0.133117	-0.025757	0.000156
C54	C	0.633117	0.474243	0.500156
C55	C	0.183535	-0.025240	0.000158
C56	C	0.683535	0.474760	0.500158
C57	C	0.202655	0.019098	0.000137
C58	C	0.702655	0.519098	0.500137
C59	C	0.253059	0.019609	0.000110
C60	C	0.753059	0.519609	0.500110
N61	N	0.272183	0.063944	0.000099
N62	N	0.772183	0.563944	0.500099
C63	C	0.240892	0.107766	0.000087
C64	C	0.740892	0.607766	0.500087
C65	C	-0.205709	0.014943	0.000136
C66	C	0.294291	0.514943	0.500136
C67	C	-0.256124	0.014430	0.000134
C68	C	0.243876	0.514430	0.500134
C69	C	-0.268291	0.102591	0.000111
C70	C	0.231709	0.602591	0.500111
C71	C	-0.217876	0.103104	0.000105
C72	C	0.282124	0.603104	0.500105
C73	C	-0.186585	0.059278	0.000125
C74	C	0.313415	0.559278	0.500125
C75	C	0.346761	0.108839	0.000070
C76	C	0.846761	0.608839	0.500070
C77	C	0.397178	0.109347	0.000058
C78	C	0.897178	0.609347	0.500058
C79	C	0.409341	0.021186	0.000087
C80	C	0.909341	0.521186	0.500087
C81	C	0.358929	0.020678	0.000094
C82	C	0.858929	0.520678	0.500094
C83	C	0.327639	0.064508	0.000089
C84	C	0.827639	0.564508	0.500089
O85	O	0.284343	-0.017592	0.000089
O86	O	0.784343	0.482408	0.500089
O87	O	0.261794	0.145518	0.000090
O88	O	0.761794	0.645518	0.500090
C89	C	0.039242	0.105716	0.000109
C90	C	0.539242	0.605716	0.500109
C91	C	0.020120	0.061382	0.000129
C92	C	0.520120	0.561382	0.500129
C93	C	0.051411	0.017560	0.000141
C94	C	0.551411	0.517560	0.500141
C95	C	-0.030294	0.060869	0.000128
C96	C	0.469706	0.560869	0.500128
C97	C	-0.061585	0.104691	0.000116
C98	C	0.438415	0.604691	0.500116
C99	C	-0.042461	0.149026	0.000105
C100	C	0.457539	0.649026	0.500105
C101	C	0.007951	0.149539	0.000097
C102	C	0.507951	0.649539	0.500097
C103	C	0.032287	-0.026775	0.000151
C104	C	0.532287	0.473225	0.500151
C105	C	-0.018125	-0.027284	0.000158
C106	C	0.481875	0.472716	0.500158
C107	C	-0.049416	0.016538	0.000146
C108	C	0.450584	0.516538	0.500146
C109	C	0.614867	-0.418985	0.000090
C110	C	1.114867	0.081015	0.500090
C111	C	0.612816	-0.620645	0.000075
C112	C	1.112816	-0.120645	0.500075
O113	O	0.650037	-0.651900	0.000041
O114	O	1.150037	-0.151900	0.500041
N115	N	0.568481	-0.639768	0.000067
N116	N	1.068481	-0.139768	0.500067
C117	C	0.524656	-0.608474	0.000055
C118	C	1.024656	-0.108474	0.500055
O119	O	0.486899	-0.629367	0.000037
O120	O	0.986899	-0.129367	0.500037
C121	C	0.526707	-0.406815	0.000062
C122	C	1.026707	0.093185	0.500062
C123	C	0.571045	-0.387694	0.000081
C124	C	1.071045	0.112306	0.500081
C125	C	0.659202	-0.399864	0.000107
C126	C	1.159202	0.100136	0.500107
C127	C	0.659714	-0.349452	0.000116
C128	C	1.159714	0.150548	0.500116
C129	C	0.615892	-0.318161	0.000107
C130	C	1.115892	0.181839	0.500107
C131	C	0.571557	-0.337282	0.000090
C132	C	1.071557	0.162718	0.500090
C133	C	0.482882	-0.375521	0.000043
C134	C	0.982882	0.124479	0.500043
C135	C	0.483399	-0.325104	0.000042
C136	C	0.983399	0.174896	0.500042
C137	C	0.527737	-0.305983	0.000061
C138	C	1.027737	0.194017	0.500061
C139	C	0.528247	-0.255580	0.000090
C140	C	1.028247	0.244420	0.500090
N141	N	0.572583	-0.236456	0.000099
N142	N	1.072583	0.263544	0.500099
C143	C	0.616405	-0.267747	0.000107
C144	C	1.116405	0.232253	0.500107
C145	C	0.523582	-0.714348	0.000053
C146	C	1.023582	-0.214348	0.500053
C147	C	0.523069	-0.764762	0.000053
C148	C	1.023069	-0.264762	0.500053
C149	C	0.611230	-0.776930	0.000072
C150	C	1.111230	-0.276930	0.500072
C151	C	0.611742	-0.726514	0.000079
C152	C	1.111742	-0.226514	0.500079
C153	C	0.567917	-0.695224	0.000062
C154	C	1.067917	-0.195224	0.500062
C155	C	0.617477	-0.161878	0.000127
C156	C	1.117477	0.338122	0.500127
C157	C	0.617986	-0.111461	0.000140
C158	C	1.117986	0.388539	0.500140
C159	C	0.529825	-0.099298	0.000116
C160	C	1.029825	0.400702	0.500116
C161	C	0.529316	-0.149710	0.000108
C162	C	1.029316	0.350290	0.500108
C163	C	0.573147	-0.180999	0.000110
C164	C	1.073147	0.319001	0.500110
O165	O	0.491047	-0.224296	0.000113
O166	O	0.991047	0.275704	0.500113
O167	O	0.654156	-0.246844	0.000104
O168	O	1.154156	0.253156	0.500104
C169	C	0.614355	-0.469397	0.000081
C170	C	1.114355	0.030603	0.500081
C171	C	0.570021	-0.488518	0.000063
C172	C	1.070021	0.011482	0.500063
C173	C	0.526198	-0.457228	0.000054
C174	C	1.026198	0.042772	0.500054
C175	C	0.569508	-0.538933	0.000063
C176	C	1.069508	-0.038933	0.500063
C177	C	0.613330	-0.570223	0.000072
C178	C	1.113330	-0.070223	0.500072
C179	C	0.657665	-0.551100	0.000081
C180	C	1.157665	-0.051100	0.500081
C181	C	0.658177	-0.500688	0.000090
C182	C	1.158177	-0.000688	0.500090
C183	C	0.481863	-0.476351	0.000045
C184	C	0.981863	0.023649	0.500045
C185	C	0.481355	-0.526764	0.000037
C186	C	0.981355	-0.026764	0.500037
C187	C	0.525177	-0.558054	0.000046
C188	C	1.025177	-0.058054	0.500046
C189	C	0.658931	0.057699	0.000118
C190	C	1.158931	0.557699	0.500118
C191	C	0.712586	0.058252	0.000123
C192	C	1.212586	0.558252	0.500123
C193	C	0.566338	0.150292	0.000076
C194	C	1.066338	0.650292	0.500076
C195	C	0.566891	0.203947	0.000062
C196	C	1.066891	0.703947	0.500062
N197	N	0.570519	0.061882	0.254956
N198	N	1.070519	0.561882	0.754956
N199	N	0.570539	0.061891	-0.254755
N200	N	1.070539	0.561891	0.245245
C201	C	0.570531	0.061892	0.656247
C202	C	1.070531	0.561892	1.156247
C203	C	0.570527	0.061891	0.544596
C204	C	1.070527	0.561891	1.044596
C205	C	0.570526	0.061887	0.455605
C206	C	1.070526	0.561887	0.955605
C207	C	0.570520	0.061886	0.343947
C208	C	1.070520	0.561886	0.843947
H209	H	0.321291	0.144530	0.000069
H210	H	0.821291	0.644530	0.500069
O211	O	0.701290	-0.482198	0.000057
O212	O	1.201290	0.017802	0.500057
C213	C	0.739853	-0.520634	0.000088
C214	C	1.239853	-0.020634	0.500088
H215	H	0.726560	-0.554781	-0.030886
H216	H	1.226560	-0.054781	0.469114
H217	H	0.770835	-0.510325	-0.047398
H218	H	1.270835	-0.010325	0.452602
H219	H	0.753349	-0.527877	0.078569
H220	H	1.253349	-0.027877	0.578569
H221	H	-0.202311	0.139207	0.000094
H222	H	0.297689	0.639207	0.500094
H223	H	0.174750	0.187180	0.000057
H224	H	0.674750	0.687180	0.500057
O225	O	0.415670	0.152462	0.000085
O226	O	0.915670	0.652462	0.500085
C227	C	0.377238	0.191029	0.000055
C228	C	0.877238	0.691029	0.500055
H229	H	0.343087	0.177738	0.031033
H230	H	0.843087	0.677738	0.531033
H231	H	0.387548	0.222006	0.047537
H232	H	0.887548	0.722006	0.547537
H233	H	0.370001	0.204530	-0.078427
H234	H	0.870001	0.704530	0.421573
H235	H	0.446177	-0.450879	0.000036
H236	H	0.946177	0.049121	0.500036
H237	H	0.117558	-0.061861	0.000173
H238	H	0.617558	0.438139	0.500173
H239	H	0.434827	-0.014492	0.000093
H240	H	0.934827	0.485508	0.500093
O241	O	0.078452	0.193180	0.000023
O242	O	0.578452	0.693180	0.500023
C243	C	0.106150	0.232414	0.000033
C244	C	0.606150	0.732414	0.500033
H245	H	0.143871	0.219848	-0.030926
H246	H	0.643871	0.719848	0.469074
H247	H	0.087336	0.263097	-0.047477
H248	H	0.587336	0.763097	0.452523
H249	H	0.109641	0.246023	0.078506
H250	H	0.609641	0.746023	0.578506
O251	O	0.661070	-0.092911	-0.000020
O252	O	1.161070	0.407089	0.499980
C253	C	0.687768	-0.108933	-0.084726
C254	C	1.187768	0.391067	0.415274
H255	H	0.661837	-0.119222	-0.143948
H256	H	1.161837	0.380778	0.356052
H257	H	0.708103	-0.078537	-0.113155
H258	H	1.208103	0.421463	0.386845
H259	H	0.714953	-0.141995	-0.065571
H260	H	1.214953	0.358005	0.434429
O261	O	0.026441	0.192652	0.000127
O262	O	0.526441	0.692652	0.500127
C263	C	-0.011996	0.231215	0.000094
C264	C	0.488004	0.731215	0.500094
H265	H	-0.046146	0.217919	0.031068
H266	H	0.453854	0.717919	0.531068
H267	H	-0.001691	0.262193	0.047578
H268	H	0.498309	0.762193	0.547578
H269	H	-0.019232	0.244715	-0.078388
H270	H	0.480768	0.744715	0.421612
H271	H	-0.293777	0.138273	0.000101
H272	H	0.206223	0.638273	0.500101
H273	H	0.487892	-0.688875	0.000039
H274	H	0.987892	-0.188875	0.500039
H275	H	0.447710	-0.299629	0.000027
H276	H	0.947710	0.200371	0.500027
H277	H	0.486964	-0.780325	0.000055
H278	H	0.986964	-0.280325	0.500055
O279	O	-0.274614	-0.028683	0.000186
O280	O	0.225386	0.471317	0.500186
C281	C	-0.236179	-0.067248	0.000174
C282	C	0.263821	0.432752	0.500174
H283	H	-0.202028	-0.053956	0.031139
H284	H	0.297972	0.446044	0.531139
H285	H	-0.246486	-0.098227	0.047677
H286	H	0.253514	0.401773	0.547677
H287	H	-0.228946	-0.080745	-0.078301
H288	H	0.271054	0.419255	0.421699
O289	O	0.213861	-0.067857	0.000128
O290	O	0.713861	0.432143	0.500128
C291	C	0.186168	-0.107096	0.000171
C292	C	0.686168	0.392904	0.500171
H293	H	0.148446	-0.094536	-0.030797
H294	H	0.648446	0.405464	0.469203
H295	H	0.204986	-0.137778	-0.047315
H296	H	0.704986	0.362222	0.452685
H297	H	0.182680	-0.120705	0.078655
H298	H	0.682680	0.379295	0.578655
H299	H	0.343360	-0.015426	0.000096
H300	H	0.843360	0.484574	0.500096
O301	O	0.653831	-0.807281	-0.000057
O302	O	1.153831	-0.307281	0.499943
C303	C	0.680766	-0.798665	-0.084792
C304	C	1.180766	-0.298665	0.415208
H305	H	0.668608	-0.760326	-0.113032
H306	H	1.168608	-0.260326	0.386968
H307	H	0.721109	-0.802515	-0.065741
H308	H	1.221109	-0.302515	0.434259
H309	H	0.674360	-0.826187	-0.144119
H310	H	1.174360	-0.326187	0.355881
O311	O	0.486205	-0.168206	0.000050
O312	O	0.986205	0.331794	0.500050
C313	C	0.447637	-0.129775	0.000072
C314	C	0.947637	0.370225	0.500072
H315	H	0.460929	-0.095616	-0.030876
H316	H	0.960929	0.404384	0.469124
H317	H	0.416663	-0.140076	-0.047439
H318	H	0.916663	0.359924	0.452561
H319	H	0.434131	-0.122557	0.078548
H320	H	0.934131	0.377443	0.578548
O321	O	-0.072911	0.191564	-0.000037
O322	O	0.427089	0.691564	0.499963
C323	C	-0.102431	0.193910	-0.084767
C324	C	0.397569	0.693910	0.415233
H325	H	-0.104695	0.155562	-0.113004
H326	H	0.395305	0.655562	0.386996
H327	H	-0.140460	0.212199	-0.065711
H328	H	0.359540	0.712199	0.434289
H329	H	-0.086011	0.215867	-0.144099
H330	H	0.413989	0.715867	0.355901
O331	O	-0.036754	-0.070327	0.000305
O332	O	0.463246	0.429673	0.500305
C333	C	-0.065536	-0.073268	0.085047
C334	C	0.434464	0.426732	0.585047
H335	H	-0.078374	-0.035074	0.113277
H336	H	0.421626	0.464926	0.613277
H337	H	-0.098411	-0.092289	0.066010
H338	H	0.401589	0.407711	0.566010
H339	H	-0.043098	-0.094820	0.144377
H340	H	0.456902	0.405180	0.644377
H341	H	0.057760	-0.062462	0.000163
H342	H	0.557760	0.437538	0.500163
H343	H	-0.180236	-0.020747	0.000152
H344	H	0.319764	0.479253	0.500152
O345	O	0.700222	-0.581520	-0.000088
O346	O	1.200222	-0.081520	0.499912
C347	C	0.702554	-0.611042	-0.084801
C348	C	1.202554	-0.111042	0.415199
H349	H	0.677697	-0.592385	-0.144016
H350	H	1.177697	-0.092385	0.355984
H351	H	0.741534	-0.616999	-0.113236
H352	H	1.241534	-0.116999	0.386764
H353	H	0.690316	-0.647616	-0.065655
H354	H	1.190316	-0.147616	0.434345
O355	O	0.660022	-0.192316	0.000265
O356	O	1.160022	0.307684	0.500265
C357	C	0.662367	-0.221843	0.084996
C358	C	1.162367	0.278157	0.584996
H359	H	0.624018	-0.224123	0.113226
H360	H	1.124018	0.275877	0.613226
H361	H	0.680671	-0.259865	0.065945
H362	H	1.180671	0.240135	0.565945
H363	H	0.684309	-0.205418	0.144331
H364	H	1.184309	0.294582	0.644331
H365	H	0.695819	-0.333889	0.000128
H366	H	1.195819	0.166111	0.500128
O367	O	0.701819	-0.430187	0.000163
O368	O	1.201819	0.069813	0.500163
C369	C	0.741053	-0.402488	0.000152
C370	C	1.241053	0.097512	0.500152
H371	H	0.728485	-0.364771	0.031113
H372	H	1.228485	0.135229	0.531113
H373	H	0.771733	-0.421307	0.047660
H374	H	1.271733	0.078693	0.547660
H375	H	0.754667	-0.398990	-0.078321
H376	H	1.254667	0.101010	0.421679
O377	O	0.439769	-0.394007	-0.000024
O378	O	0.939769	0.105993	0.499976
C379	C	0.401207	-0.355569	-0.000013
C380	C	0.901207	0.144431	0.499987
H381	H	0.414506	-0.321416	-0.030971
H382	H	0.914506	0.178584	0.469029
H383	H	0.370232	-0.365867	-0.047523
H384	H	0.870232	0.134133	0.452477
H385	H	0.387701	-0.348343	0.078460
H386	H	0.887701	0.151657	0.578460
H387	H	0.647846	-0.710950	0.000093
H388	H	1.147846	-0.210950	0.500093
O389	O	0.487302	-0.068828	0.000062
O390	O	0.987302	0.431172	0.500062
C391	C	0.497268	-0.020233	0.000093
C392	C	0.997268	0.479767	0.500093
H393	H	0.535224	-0.018580	-0.030859
H394	H	1.035224	0.481420	0.469141
H395	H	0.469319	0.002821	-0.047411
H396	H	0.969319	0.502821	0.452589
H397	H	0.495318	-0.005645	0.078572
H398	H	0.995318	0.494355	0.578572
H399	H	0.445246	-0.542327	0.000030
H400	H	0.945246	-0.042327	0.500030
