data_functionalizedCrystal
_audit_creation_method	'MofGen! by Chris Wilmer'
_symmetry_space_group_name_H-M	'P1'
_symmetry_Int_Tables_number	1
_symmetry_cell_setting	triclinic
loop_
_symmetry_equiv_pos_as_xyz
  x,y,z
_cell_length_a	17.699083
_cell_length_b	17.699104
_cell_length_c	16.776229
_cell_angle_alpha	89.992410
_cell_angle_beta	90.000683
_cell_angle_gamma	96.712734
loop_
_atom_site_label
_atom_site_type_symbol
_atom_site_fract_x
_atom_site_fract_y
_atom_site_fract_z
O1	O	-1.004086	0.095712	-0.066170
O2	O	-0.783708	0.108164	-0.066198
O3	O	-0.900115	-0.008250	-0.066176
O4	O	-0.887679	0.212126	-0.066192
O5	O	-0.900099	-0.008257	0.066400
O6	O	-0.783693	0.108157	0.066378
O7	O	-1.004070	0.095705	0.066406
Zn8	Zn	-0.893879	0.101930	0.087442
Zn9	Zn	-0.893899	0.101939	-0.087234
O10	O	-0.887664	0.212119	0.066384
C11	C	-0.755503	0.107715	0.000086
C12	C	-0.671485	0.106376	0.000076
C13	C	-0.622869	0.174709	0.000071
C14	C	-0.543926	0.173446	0.000081
C15	C	-0.513600	0.103851	0.000090
C16	C	-0.562222	0.035513	0.000097
C17	C	-0.641164	0.036776	0.000093
C18	C	-0.243859	0.030418	0.000115
C19	C	-0.164911	0.029160	0.000117
C20	C	-0.146621	0.167088	0.000102
C21	C	-0.225563	0.168351	0.000098
C22	C	-0.274178	0.100014	0.000110
C23	C	-0.359777	0.101383	0.000101
C24	C	-0.428002	0.102480	0.000093
C25	C	-0.899659	-0.036450	0.000112
C26	C	-0.898314	-0.120467	0.000112
C27	C	-0.959058	-0.645338	0.000097
C28	C	-0.960317	-0.566395	0.000105
C29	C	-0.891982	-0.517777	0.000098
C30	C	-0.822383	-0.548107	0.000092
C31	C	-0.821125	-0.627049	0.000090
C32	C	-0.827456	-0.229741	0.000099
C33	C	-0.828720	-0.150794	0.000098
C34	C	-0.966648	-0.169086	0.000113
C35	C	-0.965390	-0.248029	0.000112
C36	C	-0.895792	-0.278352	0.000110
C37	C	-0.894427	-0.363951	0.000104
C38	C	-0.893345	-0.432179	0.000098
C39	C	-0.032275	0.096155	0.000118
C40	C	-0.116293	0.097493	0.000117
C41	C	-0.888120	0.240319	0.000094
C42	C	-0.889464	0.324337	0.000089
N43	N	-0.893871	0.101923	0.206653
N44	N	-0.893914	0.101940	-0.206445
C45	C	-0.945431	0.050396	0.248380
C46	C	-0.945435	0.050395	0.331832
C47	C	-0.893882	0.101926	0.373556
C48	C	-0.842316	0.153456	0.331823
C49	C	-0.842309	0.153452	0.248372
C50	C	-0.842343	0.153470	0.668370
C51	C	-0.842356	0.153472	0.751827
C52	C	-0.945470	0.050414	0.751830
C53	C	-0.945463	0.050410	0.668379
C54	C	-0.893894	0.101937	0.626654
C55	C	-0.893890	0.101936	0.536165
C56	C	-0.893890	0.101931	0.464043
H57	H	-0.140223	-0.027517	0.000125
H58	H	-0.773070	-0.111210	0.000094
H59	H	-0.537525	-0.021153	0.000116
H60	H	-0.283432	-0.025227	0.000125
C61	C	-0.693824	-0.037497	0.000053
C62	C	-0.650372	-0.098717	0.000039
C63	C	-0.698856	-0.167150	-0.000005
H64	H	-0.725019	-0.039982	0.046272
H65	H	-0.724987	-0.039909	-0.046199
H66	H	-0.619223	-0.096306	0.046287
H67	H	-0.619179	-0.096257	-0.046176
H68	H	-0.730018	-0.169563	-0.046258
H69	H	-0.730048	-0.169627	0.046214
H70	H	-0.669381	-0.208696	-0.000022
C71	C	-0.655686	0.250328	-0.000064
C72	C	-0.630943	0.291639	-0.068263
C73	C	-0.661146	0.361309	-0.068407
H74	H	-0.709661	0.241405	-0.000108
H75	H	-0.638969	0.278495	0.046143
H76	H	-0.647664	0.263478	-0.114458
H77	H	-0.576972	0.300582	-0.068233
H78	H	-0.644429	0.389476	-0.022199
H79	H	-0.715120	0.352379	-0.068449
H80	H	-0.644357	0.389351	-0.114675
C81	C	-1.033334	-0.697994	0.000144
C82	C	-1.094550	-0.654536	0.000174
C83	C	-1.162987	-0.703013	0.000230
H84	H	-1.035825	-0.729181	-0.046077
H85	H	-1.035747	-0.729165	0.046394
H86	H	-1.092139	-0.623378	-0.046071
H87	H	-1.092085	-0.623351	0.046391
H88	H	-1.165400	-0.734184	0.046480
H89	H	-1.165470	-0.734198	-0.045991
H90	H	-1.204530	-0.673534	0.000258
H91	H	-1.023319	-0.144388	0.000104
C92	C	-1.035824	-0.533370	-0.000016
C93	C	-1.040574	-0.488557	-0.068211
C94	C	-1.110119	-0.458117	-0.068343
H95	H	-1.076404	-0.573555	-0.000058
H96	H	-1.039191	-0.502920	0.046194
H97	H	-1.037214	-0.519005	-0.114409
H98	H	-1.000010	-0.448361	-0.068183
H99	H	-1.113486	-0.427667	-0.022133
H100	H	-1.150694	-0.498307	-0.068383
H101	H	-1.113348	-0.427703	-0.114608
C102	C	-0.751972	-0.262803	0.000122
C103	C	-0.765488	-0.342343	0.000143
C104	C	-0.695966	-0.372829	0.000172
H105	H	-0.723794	-0.246184	-0.046104
H106	H	-0.723825	-0.246156	0.046367
H107	H	-0.793622	-0.358984	-0.046096
H108	H	-0.793653	-0.358983	0.046366
H109	H	-0.667820	-0.356181	0.046416
H110	H	-0.667794	-0.356204	-0.046055
H111	H	-0.705127	-0.426799	0.000193
C112	C	-1.001468	-0.005624	0.623224
C113	C	-1.046611	-0.050765	0.677629
C114	C	-1.098204	-0.102402	0.636063
H115	H	-1.032993	0.021472	0.590656
H116	H	-0.974314	-0.037138	0.590697
H117	H	-1.073763	-0.019255	0.710142
H118	H	-1.015108	-0.077878	0.710198
H119	H	-1.071050	-0.133916	0.603536
H120	H	-1.129723	-0.075299	0.603497
H121	H	-1.128834	-0.133041	0.672970
H122	H	-0.766743	-0.508516	0.000091
H123	H	-0.107028	0.222732	0.000097
C124	C	-0.786296	0.209484	0.203210
C125	C	-0.741163	0.254628	0.257609
C126	C	-0.689559	0.306258	0.216036
H127	H	-0.754766	0.182383	0.170662
H128	H	-0.813441	0.240997	0.170663
H129	H	-0.714020	0.223118	0.290142
H130	H	-0.772672	0.281745	0.290158
H131	H	-0.716704	0.337771	0.183489
H132	H	-0.658035	0.279151	0.183489
H133	H	-0.658935	0.336899	0.252939
C134	C	-1.001439	-0.005638	0.203227
C135	C	-1.046580	-0.050777	0.257636
C136	C	-1.098175	-0.102414	0.216074
H137	H	-1.032965	0.021457	0.170661
H138	H	-0.974287	-0.037154	0.170700
H139	H	-1.073730	-0.019266	0.290150
H140	H	-1.015075	-0.077890	0.290204
H141	H	-1.071023	-0.133930	0.183547
H142	H	-1.129695	-0.075312	0.183509
H143	H	-1.128804	-0.133052	0.252984
H144	H	-0.987458	0.008455	0.785811
H145	H	-0.764455	-0.651738	0.000090
H146	H	-1.021036	-0.287610	0.000113
H147	H	-0.504346	0.229090	0.000076
C148	C	-1.001301	-0.005634	0.377172
C149	C	-0.961084	-0.051937	0.425078
C150	C	-1.012525	-0.103570	0.466846
H151	H	-1.032778	0.021465	0.409784
H152	H	-1.031993	-0.036362	0.340392
H153	H	-0.930405	-0.021213	0.461853
H154	H	-0.929610	-0.079054	0.392486
H155	H	-1.043217	-0.134298	0.430066
H156	H	-1.043999	-0.076464	0.499452
H157	H	-0.985245	-0.134997	0.499348
C158	C	-0.786428	0.209371	0.377265
C159	C	-0.797483	0.198362	0.459279
C160	C	-0.746020	0.249867	0.501162
H161	H	-0.735897	0.201264	0.363694
H162	H	-0.794561	0.259889	0.363622
H163	H	-0.789344	0.147856	0.472917
H164	H	-0.848003	0.206475	0.472873
H165	H	-0.754153	0.300385	0.487519
H166	H	-0.695493	0.241756	0.487585
H167	H	-0.753519	0.242409	0.556813
H168	H	-0.250249	0.225023	0.000087
C169	C	-0.786290	0.209451	0.796985
C170	C	-0.741111	0.254561	0.742584
C171	C	-0.689452	0.306126	0.784154
H172	H	-0.813369	0.241000	0.829533
H173	H	-0.754803	0.182277	0.829532
H174	H	-0.772594	0.281733	0.710051
H175	H	-0.714016	0.223032	0.710034
H176	H	-0.657964	0.278952	0.816701
H177	H	-0.716537	0.337670	0.816700
H178	H	-0.658787	0.336735	0.747249
H179	H	-0.800356	0.195426	0.634404
