data_functionalizedCrystal
_audit_creation_method	'MofGen! by Chris Wilmer'
_symmetry_space_group_name_H-M	'P1'
_symmetry_Int_Tables_number	1
_symmetry_cell_setting	triclinic
loop_
_symmetry_equiv_pos_as_xyz
  x,y,z
_cell_length_a	11.169417
_cell_length_b	19.077432
_cell_length_c	11.169409
_cell_angle_alpha	87.664449
_cell_angle_beta	89.980487
_cell_angle_gamma	87.728377
loop_
_atom_site_label
_atom_site_type_symbol
_atom_site_fract_x
_atom_site_fract_y
_atom_site_fract_z
Zn1	Zn	1.854016	-0.280118	-0.659311
Zn2	Zn	2.354016	0.219882	-0.159311
Zn3	Zn	1.861913	-0.397837	-0.450551
Zn4	Zn	2.361913	0.102163	0.049449
Zn5	Zn	1.653305	-0.280162	-0.458644
Zn6	Zn	2.153305	0.219838	0.041356
Zn7	Zn	1.661313	-0.397781	-0.651200
Zn8	Zn	2.161313	0.102219	-0.151200
O9	O	1.757637	-0.338975	-0.554927
O10	O	2.257637	0.161025	-0.054927
O11	O	2.023014	-0.295739	-0.631626
O12	O	2.523014	0.204261	-0.131626
O13	O	1.834194	-0.382269	-0.283671
O14	O	2.334194	0.117731	0.216329
O15	O	1.673274	-0.181666	-0.492044
O16	O	2.173274	0.318334	0.007956
O17	O	2.028816	-0.382227	-0.478251
O18	O	2.528816	0.117773	0.021749
O19	O	1.820735	-0.181634	-0.639474
O20	O	2.320735	0.318366	-0.139474
O21	O	1.680931	-0.295814	-0.289618
O22	O	2.180931	0.204186	0.210382
O23	O	1.486417	-0.295759	-0.484180
O24	O	1.986417	0.204241	0.015820
O25	O	1.686922	-0.382131	-0.820229
O26	O	2.186922	0.117869	-0.320229
O27	O	1.492301	-0.382173	-0.625650
O28	O	1.992301	0.117827	-0.125650
O29	O	1.828501	-0.295684	-0.826188
O30	O	2.328501	0.204316	-0.326188
O31	O	1.841960	-0.496320	-0.470386
O32	O	2.341960	0.003680	0.029614
O33	O	1.694580	-0.496279	-0.617802
O34	O	2.194580	0.003721	-0.117802
C35	C	1.445812	-0.338965	-0.554914
C36	C	1.945812	0.161035	-0.054914
C37	C	1.312413	-0.338978	-0.554935
C38	C	1.812413	0.161022	-0.054935
C39	C	1.770028	-0.521837	-0.542362
C40	C	2.270028	-0.021837	-0.042362
C41	C	1.775439	-0.600066	-0.537027
C42	C	2.275439	-0.100066	-0.037027
C43	C	1.701195	-0.636822	-0.611209
C44	C	2.201195	-0.136822	-0.111209
C45	C	1.706285	-0.710327	-0.606191
C46	C	2.206285	-0.210327	-0.106191
C47	C	1.785624	-0.747074	-0.526996
C48	C	2.285624	-0.247074	-0.026996
C49	C	1.859870	-0.710312	-0.452806
C50	C	2.359870	-0.210312	0.047194
C51	C	1.854774	-0.636809	-0.457819
C52	C	2.354774	-0.136809	0.042181
C53	C	1.809094	-0.966905	-0.503776
C54	C	2.309094	-0.466905	-0.003776
C55	C	1.814187	-1.040413	-0.498771
C56	C	2.314187	-0.540413	0.001229
C57	C	1.660599	-1.040422	-0.652155
C58	C	2.160599	-0.540422	-0.152155
C59	C	1.655515	-0.966918	-0.657166
C60	C	2.155515	-0.466918	-0.157166
C61	C	1.729757	-0.930163	-0.582971
C62	C	2.229757	-0.430163	-0.082971
N63	N	1.790830	-0.822207	-0.521868
N64	N	2.290830	-0.322207	-0.021868
N65	N	1.724543	-0.855030	-0.588094
N66	N	2.224543	-0.355030	-0.088094
C67	C	2.070680	-0.338985	-0.554940
C68	C	2.570680	0.161015	-0.054940
C69	C	2.204080	-0.338989	-0.554946
C70	C	2.704080	0.161011	-0.054946
C71	C	1.757724	-0.338896	-0.867975
C72	C	2.257724	0.161104	-0.367975
C73	C	1.757761	-0.338863	-1.001377
C74	C	2.257761	0.161137	-0.501377
C75	C	1.745230	-0.155398	-0.567567
C76	C	2.245230	0.344602	-0.067567
C77	C	1.739943	-0.077169	-0.572953
C78	C	2.239943	0.422831	-0.072953
C79	C	1.757616	-0.339002	-0.243100
C80	C	2.257616	0.160998	0.256900
C81	C	1.757798	-0.338837	-0.109712
C82	C	2.257798	0.161163	0.390288
H83	H	1.645817	-0.740250	-0.666587
H84	H	2.145817	-0.240250	-0.166587
O85	O	1.891141	-1.076219	-0.421852
O86	O	2.391141	-0.576219	0.078148
C87	C	1.879651	-1.148976	-0.433279
C88	C	2.379651	-0.648976	0.066721
H89	H	1.841114	-1.159005	-0.525232
H90	H	2.341114	-0.659005	-0.025232
H91	H	1.971450	-1.176892	-0.423161
H92	H	2.471450	-0.676892	0.076839
H93	H	1.817100	-1.169864	-0.360687
H94	H	2.317100	-0.669864	0.139313
O95	O	1.936973	-0.745897	-0.375770
O96	O	2.436973	-0.245897	0.124230
C97	C	2.001430	-0.697691	-0.311391
C98	C	2.501430	-0.197691	0.188609
H99	H	1.948640	-0.645326	-0.310761
H100	H	2.448640	-0.145326	0.189239
H101	H	2.015759	-0.718967	-0.215390
H102	H	2.515759	-0.218967	0.284610
H103	H	2.092010	-0.689798	-0.355958
H104	H	2.592010	-0.189798	0.144042
H105	H	1.600154	-1.070356	-0.712559
H106	H	2.100154	-0.570356	-0.212559
H107	H	1.915230	-0.606883	-0.397410
H108	H	2.415230	-0.106883	0.102590
H109	H	1.590910	-0.937000	-0.721652
H110	H	2.090910	-0.437000	-0.221652
O111	O	1.881343	-0.931316	-0.431674
O112	O	2.381343	-0.431316	0.068326
C113	C	1.952446	-0.979514	-0.360690
C114	C	2.452446	-0.479514	0.139310
H115	H	1.960194	-1.031883	-0.406285
H116	H	2.460194	-0.531883	0.093715
H117	H	2.045542	-0.958233	-0.349429
H118	H	2.545542	-0.458233	0.150571
H119	H	1.909098	-0.987400	-0.268958
H120	H	2.409098	-0.487400	0.231042
H121	H	1.636594	-0.606907	-0.675703
H122	H	2.136594	-0.106907	-0.175703
