data_functionalizedCrystal
_audit_creation_method	'MofGen! by Chris Wilmer'
_symmetry_space_group_name_H-M	'P1'
_symmetry_Int_Tables_number	1
_symmetry_cell_setting	triclinic
loop_
_symmetry_equiv_pos_as_xyz
  x,y,z
_cell_length_a	11.792254
_cell_length_b	23.532357
_cell_length_c	10.868271
_cell_angle_alpha	90.006944
_cell_angle_beta	90.004308
_cell_angle_gamma	83.513444
loop_
_atom_site_label
_atom_site_type_symbol
_atom_site_fract_x
_atom_site_fract_y
_atom_site_fract_z
O1	O	1.505035	0.078088	0.102337
O2	O	1.174503	0.086125	0.102342
O3	O	1.349766	-0.000768	0.102314
O4	O	1.329772	0.164981	0.102365
O5	O	1.349750	-0.000765	-0.102330
O6	O	1.174488	0.086128	-0.102303
O7	O	1.505019	0.078091	-0.102307
Zn8	Zn	1.339751	0.082110	-0.134797
Zn9	Zn	1.339771	0.082106	0.134831
O10	O	1.329756	0.164983	-0.102280
C11	C	1.132217	0.085620	0.000020
C12	C	1.006240	0.084105	0.000020
C13	C	0.903933	0.082873	0.000025
C14	C	0.775583	0.081334	0.000025
C15	C	1.349258	-0.021986	-0.000012
C16	C	1.347754	-0.085214	-0.000023
C17	C	1.338324	-0.477283	0.111595
C18	C	1.336894	-0.536690	0.111602
O19	O	1.336124	-0.567413	0.206472
N20	N	1.336177	-0.566404	0.000052
C21	C	1.336877	-0.536707	-0.111513
O22	O	1.336135	-0.567435	-0.206394
C23	C	1.338298	-0.477299	-0.111519
C24	C	1.339027	-0.447589	0.000039
C25	C	1.339051	-0.447572	0.223143
C26	C	1.340482	-0.388169	0.223136
C27	C	1.341186	-0.358475	0.111580
C28	C	1.340459	-0.388185	0.000031
C29	C	1.338991	-0.447602	-0.223082
C30	C	1.340411	-0.388190	-0.223078
C31	C	1.341140	-0.358480	-0.111521
C32	C	1.342594	-0.299088	-0.111532
N33	N	1.343311	-0.269374	0.000018
C34	C	1.342607	-0.299068	0.111574
C35	C	1.333891	-0.661466	-0.111492
C36	C	1.332478	-0.720873	-0.111488
C37	C	1.332493	-0.720852	0.111627
C38	C	1.333914	-0.661445	0.111622
C39	C	1.334608	-0.631752	0.000058
C40	C	1.345614	-0.174316	0.111550
C41	C	1.347050	-0.114907	0.111533
C42	C	1.347029	-0.114932	-0.111582
C43	C	1.345599	-0.174336	-0.111565
C44	C	1.344888	-0.204026	0.000011
O45	O	1.343360	-0.268328	-0.206354
O46	O	1.343335	-0.268331	0.206440
C47	C	1.547305	0.078596	0.000018
C48	C	1.673282	0.080111	0.000025
C49	C	1.330264	0.186202	0.000049
C50	C	1.331768	0.249429	0.000069
N51	N	1.339745	0.082112	-0.318811
C52	C	1.339754	0.082112	-0.430148
C53	C	1.339768	0.082107	-0.569826
N54	N	1.339786	0.082099	0.318845
H55	H	1.347647	-0.090720	0.202380
H56	H	1.340959	-0.364016	-0.313929
O57	O	1.334672	-0.629445	-0.231833
H58	H	1.257041	-0.636019	-0.285335
O59	O	1.338193	-0.479633	-0.343412
H60	H	1.414910	-0.511536	-0.348779
H61	H	1.345016	-0.198528	-0.202405
H62	H	1.347608	-0.090745	-0.202408
H63	H	1.338474	-0.471742	0.313991
O64	O	1.341238	-0.356130	0.343464
H65	H	1.418321	-0.372372	0.396970
H66	H	1.331902	-0.745059	-0.202329
O67	O	1.344837	-0.206334	0.231888
H68	H	1.345587	-0.175687	0.309444
H69	H	1.334506	-0.637259	0.202462
H70	H	1.331916	-0.745039	0.202463
