data_functionalizedCrystal
_audit_creation_method	'MofGen! by Chris Wilmer'
_symmetry_space_group_name_H-M	'P1'
_symmetry_Int_Tables_number	1
_symmetry_cell_setting	triclinic
loop_
_symmetry_equiv_pos_as_xyz
  x,y,z
_cell_length_a	17.038272
_cell_length_b	17.038272
_cell_length_c	16.176319
_cell_angle_alpha	89.993159
_cell_angle_beta	89.998402
_cell_angle_gamma	91.111556
loop_
_atom_site_label
_atom_site_type_symbol
_atom_site_fract_x
_atom_site_fract_y
_atom_site_fract_z
O1	O	1.048758	0.170539	-0.068644
O2	O	1.382091	0.503872	0.264689
O3	O	1.715424	0.837206	0.598023
O4	O	0.820946	0.167831	-0.068668
O5	O	1.154280	0.501164	0.264665
O6	O	1.487613	0.834498	0.597999
O7	O	0.933498	0.055279	-0.068650
O8	O	1.266831	0.388613	0.264684
O9	O	1.600165	0.721946	0.598017
O10	O	0.936206	0.283091	-0.068662
O11	O	1.269539	0.616424	0.264671
O12	O	1.602873	0.949757	0.598004
O13	O	0.933481	0.055270	0.068844
O14	O	1.266814	0.388604	0.402177
O15	O	1.600148	0.721937	0.735510
O16	O	0.820929	0.167822	0.068825
O17	O	1.154262	0.501156	0.402158
O18	O	1.487596	0.834489	0.735492
O19	O	1.048741	0.170530	0.068849
O20	O	1.382074	0.503863	0.402183
O21	O	1.715407	0.837197	0.735516
Cu22	Cu	0.934833	0.169175	0.081391
Cu23	Cu	1.268167	0.502509	0.414725
Cu24	Cu	1.601500	0.835842	0.748058
Cu25	Cu	0.934854	0.169186	-0.081210
Cu26	Cu	1.268187	0.502519	0.252123
Cu27	Cu	1.601520	0.835852	0.585456
O28	O	0.936189	0.283082	0.068831
O29	O	1.269522	0.616415	0.402164
O30	O	1.602856	0.949749	0.735497
C31	C	0.791645	0.165364	0.000075
C32	C	1.124978	0.498697	0.333409
C33	C	1.458312	0.832030	0.666742
C34	C	0.704361	0.158016	0.000066
C35	C	1.037695	0.491349	0.333400
C36	C	1.371028	0.824682	0.666733
C37	C	0.658752	0.225479	0.000063
C38	C	0.992086	0.558813	0.333396
C39	C	1.325419	0.892146	0.666730
C40	C	0.576740	0.218570	0.000075
C41	C	0.910074	0.551904	0.333408
C42	C	1.243407	0.885237	0.666742
C43	C	0.540339	0.144197	0.000084
C44	C	0.873672	0.477530	0.333417
C45	C	1.207006	0.810864	0.666751
C46	C	0.585954	0.076728	0.000090
C47	C	0.919288	0.410062	0.333423
C48	C	1.252621	0.743395	0.666756
C49	C	0.667965	0.083638	0.000084
C50	C	1.001298	0.416971	0.333417
C51	C	1.334631	0.750305	0.666750
C52	C	0.292951	0.119787	0.000107
C53	C	0.626285	0.453120	0.333441
C54	C	0.959618	0.786453	0.666774
C55	C	0.210935	0.112882	0.000111
C56	C	0.544268	0.446215	0.333444
C57	C	0.877601	0.779549	0.666777
C58	C	0.201726	0.254725	0.000098
C59	C	0.535060	0.588058	0.333431
C60	C	0.868393	0.921391	0.666764
C61	C	0.283739	0.261628	0.000087
C62	C	0.617072	0.594961	0.333420
C63	C	0.950405	0.928294	0.666754
C64	C	0.329347	0.194159	0.000097
C65	C	0.662680	0.527492	0.333430
C66	C	0.996013	0.860826	0.666764
C67	C	0.456510	0.137133	0.000093
C68	C	0.789843	0.470467	0.333427
C69	C	1.123177	0.803800	0.666760
C70	C	0.413174	0.201224	0.000093
C71	C	0.746508	0.534557	0.333427
C72	C	1.079841	0.867890	0.666760
C73	C	0.931027	0.025982	0.000097
C74	C	1.264360	0.359315	0.333430
C75	C	1.597693	0.692649	0.666763
C76	C	0.923679	-0.061301	0.000096
C77	C	1.257012	0.272032	0.333429
C78	C	1.590345	0.605365	0.666762
C79	C	0.991142	-0.106911	0.000104
C80	C	1.324476	0.226423	0.333437
C81	C	1.657809	0.559756	0.666770
C82	C	0.984233	-0.188923	0.000095
C83	C	1.317567	0.144411	0.333428
C84	C	1.650900	0.477744	0.666762
C85	C	0.909860	-0.225324	0.000084
C86	C	1.243193	0.108010	0.333418
C87	C	1.576527	0.441343	0.666751
C88	C	0.842391	-0.179708	0.000074
C89	C	1.175725	0.153625	0.333407
C90	C	1.509058	0.486958	0.666741
C91	C	0.849301	-0.097698	0.000077
C92	C	1.182634	0.235635	0.333410
C93	C	1.515968	0.568969	0.666743
C94	C	0.885449	-0.472712	0.000070
C95	C	1.218783	-0.139378	0.333404
C96	C	1.552116	0.193955	0.666737
C97	C	0.878545	-0.554728	0.000070
C98	C	1.211878	-0.221395	0.333404
C99	C	1.545211	0.111939	0.666737
C100	C	1.020387	-0.563937	0.000090
C101	C	1.353721	-0.230603	0.333423
C102	C	1.687054	0.102730	0.666757
C103	C	1.027291	-0.481924	0.000098
C104	C	1.360624	-0.148591	0.333431
C105	C	1.693957	0.184742	0.666764
C106	C	0.959822	-0.436316	0.000083
C107	C	1.293155	-0.102983	0.333416
C108	C	1.626489	0.230350	0.666749
C109	C	0.902796	-0.309153	0.000078
C110	C	1.236129	0.024180	0.333412
C111	C	1.569463	0.357514	0.666745
C112	C	0.966886	-0.352488	0.000083
C113	C	1.300220	-0.019155	0.333416
C114	C	1.633553	0.314178	0.666750
C115	C	1.078042	0.172997	0.000104
C116	C	1.411375	0.506331	0.333437
C117	C	1.744709	0.839664	0.666771
C118	C	1.165326	0.180346	0.000108
C119	C	1.498659	0.513679	0.333441
C120	C	1.831992	0.847012	0.666774
C121	C	0.938660	0.312379	0.000083
C122	C	1.271994	0.645712	0.333416
C123	C	1.605327	0.979046	0.666749
C124	C	0.946008	0.399663	0.000078
C125	C	1.279342	0.732996	0.333412
C126	C	1.612675	1.066329	0.666745
N127	N	0.934825	0.169168	0.195757
N128	N	1.268158	0.502501	0.529090
N129	N	1.601491	0.835835	0.862423
N130	N	0.934868	0.169187	-0.195575
N131	N	1.268201	0.502521	0.137758
N132	N	1.601535	0.835854	0.471091
C133	C	0.984680	0.119353	0.239029
C134	C	1.318014	0.452686	0.572362
C135	C	1.651347	0.786020	0.905696
C136	C	0.984684	0.119352	0.325576
C137	C	1.318018	0.452686	0.658909
C138	C	1.651351	0.786019	0.992243
C139	C	0.934836	0.169171	0.368849
C140	C	1.268169	0.502505	0.702183
C141	C	1.601503	0.835838	1.035516
C142	C	0.884975	0.218989	0.325571
C143	C	1.218308	0.552322	0.658904
C144	C	1.551642	0.885655	0.992237
C145	C	0.884968	0.218985	0.239025
C146	C	1.218301	0.552318	0.572359
C147	C	1.551634	0.885651	0.905692
C148	C	0.885003	0.219005	0.674599
C149	C	1.218336	0.552339	1.007932
C150	C	1.551670	0.885672	1.341266
C151	C	0.885016	0.219007	0.761151
C152	C	1.218349	0.552340	1.094484
C153	C	1.551683	0.885674	1.427817
C154	C	0.984719	0.119373	0.761150
C155	C	1.318053	0.452706	1.094483
C156	C	1.651386	0.786040	1.427817
C157	C	0.984712	0.119369	0.674604
C158	C	1.318045	0.452702	1.007938
C159	C	1.651379	0.786036	1.341271
C160	C	0.934849	0.169183	0.631333
C161	C	1.268182	0.502516	0.964667
C162	C	1.601515	0.835849	1.298000
C163	C	0.934844	0.169182	0.537489
C164	C	1.268177	0.502515	0.870823
C165	C	1.601510	0.835848	1.204156
C166	C	0.934844	0.169177	0.462692
C167	C	1.268178	0.502510	0.796025
C168	C	1.601511	0.835844	1.129358
H169	H	0.181300	0.052315	0.000117
H170	H	0.514633	0.385649	0.333451
H171	H	0.847967	0.718982	0.666784
H172	H	0.844384	0.259549	0.360809
H173	H	1.177717	0.592883	0.694142
H174	H	1.511050	0.926216	1.027475
H175	H	0.844421	0.259577	0.796382
H176	H	1.177754	0.592910	1.129715
H177	H	1.511087	0.926244	1.463049
F178	F	0.716505	0.011834	0.000090
F179	F	1.049839	0.345167	0.333423
F180	F	1.383172	0.678500	0.666757
F181	F	1.092187	-0.612481	0.000105
F182	F	1.425520	-0.279148	0.333438
F183	F	1.758854	0.054185	0.666771
H184	H	0.688384	0.286042	0.000055
H185	H	1.021717	0.619375	0.333389
H186	H	1.355050	0.952709	0.666722
F187	F	0.831902	0.272003	0.192973
F188	F	1.165235	0.605336	0.526306
F189	F	1.498569	0.938669	0.859639
H190	H	0.817978	-0.584363	0.000075
H191	H	1.151311	-0.251030	0.333408
H192	H	1.484645	0.082304	0.666742
H193	H	0.426863	0.076578	0.000124
H194	H	0.760196	0.409911	0.333457
H195	H	1.093530	0.743245	0.666791
H196	H	1.025306	0.078804	0.639374
H197	H	1.358639	0.412138	0.972707
H198	H	1.691972	0.745471	1.306041
F199	F	0.341480	0.047979	0.000118
F200	F	0.674814	0.381313	0.333451
F201	F	1.008147	0.714646	0.666785
F202	F	0.451917	0.280375	0.000087
F203	F	0.785250	0.613708	0.333420
F204	F	1.118583	0.947041	0.666754
H205	H	0.830511	-0.435587	0.000059
H206	H	1.163844	-0.102254	0.333392
H207	H	1.497178	0.231080	0.666725
F208	F	0.777497	-0.049157	0.000065
F209	F	1.110830	0.284176	0.333399
F210	F	1.444163	0.617509	0.666732
F211	F	0.528203	0.290375	0.000068
F212	F	0.861536	0.623708	0.333401
F213	F	1.194869	0.957042	0.666735
H214	H	1.027441	-0.322847	0.000073
H215	H	1.360774	0.010486	0.333407
H216	H	1.694107	0.343819	0.666740
H217	H	0.313370	0.322190	0.000070
H218	H	0.646704	0.655524	0.333403
H219	H	0.980037	0.988857	0.666737
H220	H	0.844404	0.259567	0.639375
H221	H	1.177737	0.592900	0.972708
H222	H	1.511070	0.926234	1.306041
F223	F	0.153181	0.326524	0.000089
F224	F	0.486515	0.659858	0.333422
F225	F	0.819848	0.993191	0.666756
H226	H	1.051705	-0.077279	0.000117
H227	H	1.385038	0.256054	0.333451
H228	H	1.718371	0.589387	0.666784
F229	F	0.547212	-0.002426	0.000105
F230	F	0.880545	0.330908	0.333438
F231	F	1.213878	0.664241	0.666771
F232	F	1.056038	-0.237460	0.000105
F233	F	1.389371	0.095873	0.333439
F234	F	1.722705	0.429207	0.666772
H235	H	1.087853	-0.452293	0.000106
H236	H	1.421186	-0.118959	0.333440
H237	H	1.754520	0.214374	0.666773
H238	H	1.025319	0.078809	0.796390
H239	H	1.358652	0.412142	1.129724
H240	H	1.691985	0.745476	1.463057
H241	H	1.025276	0.078788	0.203802
H242	H	1.358609	0.412121	0.537135
H243	H	1.691942	0.745455	0.870468
F244	F	0.763237	-0.218451	0.000053
F245	F	1.096570	0.114882	0.333386
F246	F	1.429904	0.448215	0.666720
F247	F	0.823644	-0.347901	0.000063
F248	F	1.156978	-0.014568	0.333397
F249	F	1.490311	0.318766	0.666730
H250	H	1.025280	0.078789	0.360808
H251	H	1.358613	0.412122	0.694141
H252	H	1.691946	0.745455	1.027475
