data_functionalizedCrystal
_audit_creation_method	'MofGen! by Chris Wilmer'
_symmetry_space_group_name_H-M	'P1'
_symmetry_Int_Tables_number	1
_symmetry_cell_setting	triclinic
loop_
_symmetry_equiv_pos_as_xyz
  x,y,z
_cell_length_a	16.120530
_cell_length_b	18.050589
_cell_length_c	18.050582
_cell_angle_alpha	89.981795
_cell_angle_beta	87.088397
_cell_angle_gamma	87.123928
loop_
_atom_site_label
_atom_site_type_symbol
_atom_site_fract_x
_atom_site_fract_y
_atom_site_fract_z
Zn1	Zn	1.274469	-0.353358	-0.477436
Zn2	Zn	1.524469	-0.103358	-0.227436
Zn3	Zn	1.774469	0.146642	0.022564
Zn4	Zn	2.024469	0.396642	0.272564
Zn5	Zn	1.274369	-0.477536	-0.353251
Zn6	Zn	1.524369	-0.227536	-0.103251
Zn7	Zn	1.774369	0.022464	0.146749
Zn8	Zn	2.024369	0.272464	0.396749
Zn9	Zn	1.135065	-0.347063	-0.346971
Zn10	Zn	1.385065	-0.097063	-0.096971
Zn11	Zn	1.635065	0.152937	0.153029
Zn12	Zn	1.885065	0.402937	0.403029
Zn13	Zn	1.135006	-0.471202	-0.471112
Zn14	Zn	1.385006	-0.221202	-0.221112
Zn15	Zn	1.635006	0.028798	0.028888
Zn16	Zn	1.885006	0.278798	0.278888
O17	O	1.204727	-0.412290	-0.412192
O18	O	1.454727	-0.162290	-0.162192
O19	O	1.704727	0.087710	0.087808
O20	O	1.954727	0.337710	0.337808
O21	O	1.391120	-0.375115	-0.466238
O22	O	1.641120	-0.125115	-0.216238
O23	O	1.891120	0.124885	0.033762
O24	O	2.141120	0.374885	0.283762
O25	O	1.255872	-0.460246	-0.248492
O26	O	1.505872	-0.210246	0.001508
O27	O	1.755872	0.039754	0.251508
O28	O	2.005872	0.289754	0.501508
O29	O	1.153623	-0.243977	-0.364295
O30	O	1.403623	0.006023	-0.114295
O31	O	1.653623	0.256023	0.135705
O32	O	1.903623	0.506023	0.385705
O33	O	1.391047	-0.466349	-0.374999
O34	O	1.641047	-0.216349	-0.124999
O35	O	1.891047	0.033651	0.125001
O36	O	2.141047	0.283651	0.375001
O37	O	1.256043	-0.248601	-0.460148
O38	O	1.506043	0.001399	-0.210148
O39	O	1.756043	0.251399	0.039852
O40	O	2.006043	0.501399	0.289852
O41	O	1.153526	-0.364388	-0.243878
O42	O	1.403526	-0.114388	0.006122
O43	O	1.653526	0.135612	0.256122
O44	O	1.903526	0.385612	0.506122
O45	O	1.018392	-0.358245	-0.358163
O46	O	1.268392	-0.108245	-0.108163
O47	O	1.518392	0.141755	0.141837
O48	O	1.768392	0.391755	0.391837
O49	O	1.153524	-0.455552	-0.575876
O50	O	1.403524	-0.205552	-0.325876
O51	O	1.653524	0.044448	-0.075876
O52	O	1.903524	0.294448	0.174124
O53	O	1.018349	-0.449449	-0.449369
O54	O	1.268349	-0.199449	-0.199369
O55	O	1.518349	0.050551	0.050631
O56	O	1.768349	0.300551	0.300631
O57	O	1.255986	-0.368973	-0.580523
O58	O	1.505986	-0.118973	-0.330523
O59	O	1.755986	0.131027	-0.080523
O60	O	2.005986	0.381027	0.169477
O61	O	1.255816	-0.580618	-0.368867
O62	O	1.505816	-0.330618	-0.118867
O63	O	1.755816	-0.080618	0.131133
O64	O	2.005816	0.169382	0.381133
O65	O	1.153427	-0.575964	-0.455459
O66	O	1.403427	-0.325964	-0.205459
O67	O	1.653427	-0.075964	0.044541
O68	O	1.903427	0.174036	0.294541
C69	C	0.988121	-0.402477	-0.402399
C70	C	1.238121	-0.152477	-0.152399
C71	C	1.488121	0.097523	0.097601
C72	C	1.738121	0.347523	0.347601
C73	C	0.895456	-0.398297	-0.398227
C74	C	1.145456	-0.148297	-0.148227
C75	C	1.395456	0.101703	0.101773
C76	C	1.645456	0.351703	0.351773
C77	C	1.204626	-0.605237	-0.412175
C78	C	1.454626	-0.355237	-0.162175
C79	C	1.704626	-0.105237	0.087825
C80	C	1.954626	0.144763	0.337825
C81	C	1.204660	-0.687785	-0.412197
C82	C	1.454660	-0.437785	-0.162197
C83	C	1.704660	-0.187785	0.087803
C84	C	1.954660	0.062215	0.337803
C85	C	0.725795	-0.390648	-0.390616
C86	C	0.975795	-0.140648	-0.140616
C87	C	1.225795	0.109352	0.109384
C88	C	1.475795	0.359352	0.359384
C89	C	0.684499	-0.433986	-0.433823
C90	C	0.934499	-0.183986	-0.183823
C91	C	1.184499	0.066014	0.066177
C92	C	1.434499	0.316014	0.316177
C93	C	0.590094	-0.429730	-0.429588
C94	C	0.840094	-0.179730	-0.179588
C95	C	1.090094	0.070270	0.070412
C96	C	1.340094	0.320270	0.320412
C97	C	0.820209	-0.394903	-0.394849
C98	C	1.070209	-0.144903	-0.144849
C99	C	1.320209	0.105097	0.105151
C100	C	1.570209	0.355097	0.355151
C101	C	1.149035	-0.884734	-0.459270
C102	C	1.399035	-0.634734	-0.209270
C103	C	1.649035	-0.384734	0.040730
C104	C	1.899035	-0.134734	0.290730
C105	C	1.128719	-0.933249	-0.390586
C106	C	1.378719	-0.683249	-0.140586
C107	C	1.628719	-0.433249	0.109414
C108	C	1.878719	-0.183249	0.359414
C109	C	1.204742	-0.838919	-0.412210
C110	C	1.454742	-0.588919	-0.162210
C111	C	1.704742	-0.338919	0.087790
C112	C	1.954742	-0.088919	0.337790
C113	C	1.225099	-0.937487	-0.480903
C114	C	1.475099	-0.687487	-0.230903
C115	C	1.725099	-0.437487	0.019097
C116	C	1.975099	-0.187487	0.269097
C117	C	1.204819	-0.984907	-0.412229
C118	C	1.454819	-0.734907	-0.162229
C119	C	1.704819	-0.484907	0.087771
C120	C	1.954819	-0.234907	0.337771
C121	C	1.184385	-0.886344	-0.343488
C122	C	1.434385	-0.636344	-0.093488
C123	C	1.684385	-0.386344	0.156512
C124	C	1.934385	-0.136344	0.406512
C125	C	1.280801	-0.890580	-0.433853
C126	C	1.530801	-0.640580	-0.183853
C127	C	1.780801	-0.390580	0.066147
C128	C	2.030801	-0.140580	0.316147
C129	C	1.260513	-0.939074	-0.365123
C130	C	1.510513	-0.689074	-0.115123
C131	C	1.760513	-0.439074	0.134877
C132	C	2.010513	-0.189074	0.384877
C133	C	1.204695	-0.754818	-0.412200
C134	C	1.454695	-0.504818	-0.162200
C135	C	1.704695	-0.254818	0.087800
C136	C	1.954695	-0.004818	0.337800
C137	C	1.204866	-1.069006	-0.412231
C138	C	1.454866	-0.819006	-0.162231
C139	C	1.704866	-0.569006	0.087769
C140	C	1.954866	-0.319006	0.337769
C141	C	1.422179	-0.422141	-0.422025
C142	C	1.672179	-0.172141	-0.172025
C143	C	1.922179	0.077859	0.077975
C144	C	2.172179	0.327859	0.327975
C145	C	1.514844	-0.426339	-0.426215
C146	C	1.764844	-0.176339	-0.176215
C147	C	2.014844	0.073661	0.073785
C148	C	2.264844	0.323661	0.323785
C149	C	1.204760	-0.412258	-0.605899
C150	C	1.454760	-0.162258	-0.355899
C151	C	1.704760	0.087742	-0.105899
C152	C	1.954760	0.337742	0.144101
C153	C	1.204774	-0.412245	-0.688446
C154	C	1.454774	-0.162245	-0.438446
C155	C	1.704774	0.087755	-0.188446
C156	C	1.954774	0.337755	0.061554
C157	C	1.204851	-0.218590	-0.412227
C158	C	1.454851	0.031410	-0.162227
C159	C	1.704851	0.281410	0.087773
C160	C	1.954851	0.531410	0.337773
C161	C	1.204904	-0.136046	-0.412241
C162	C	1.454904	0.113954	-0.162241
C163	C	1.704904	0.363954	0.087759
C164	C	1.954904	0.613954	0.337759
C165	C	1.149097	-0.459261	-0.885372
C166	C	1.399097	-0.209261	-0.635372
C167	C	1.649097	0.040739	-0.385372
C168	C	1.899097	0.290739	-0.135372
C169	C	1.225159	-0.480855	-0.938196
C170	C	1.475159	-0.230855	-0.688196
C171	C	1.725159	0.019145	-0.438196
C172	C	1.975159	0.269145	-0.188196
C173	C	1.204815	-0.412190	-0.839578
C174	C	1.454815	-0.162190	-0.589578
C175	C	1.704815	0.087810	-0.339578
C176	C	1.954815	0.337810	-0.089578
C177	C	1.128795	-0.390577	-0.933837
C178	C	1.378795	-0.140577	-0.683837
C179	C	1.628795	0.109423	-0.433837
C180	C	1.878795	0.359423	-0.183837
C181	C	1.204848	-0.412138	-0.985565
C182	C	1.454848	-0.162138	-0.735565
C183	C	1.704848	0.087862	-0.485565
C184	C	1.954848	0.337862	-0.235565
C185	C	1.280916	-0.433821	-0.891317
C186	C	1.530916	-0.183821	-0.641317
C187	C	1.780916	0.066179	-0.391317
C188	C	2.030916	0.316179	-0.141317
C189	C	1.184501	-0.343510	-0.886952
C190	C	1.434501	-0.093510	-0.636952
C191	C	1.684501	0.156490	-0.386952
C192	C	1.934501	0.406490	-0.136952
C193	C	1.260615	-0.365080	-0.939756
C194	C	1.510615	-0.115080	-0.689756
C195	C	1.760615	0.134920	-0.439756
C196	C	2.010615	0.384920	-0.189756
C197	C	1.204795	-0.412222	-0.755479
C198	C	1.454795	-0.162222	-0.505479
C199	C	1.704795	0.087778	-0.255479
C200	C	1.954795	0.337778	-0.005479
C201	C	1.204877	-0.412107	-1.069663
C202	C	1.454877	-0.162107	-0.819663
C203	C	1.704877	0.087893	-0.569663
C204	C	1.954877	0.337893	-0.319663
C205	C	1.204743	-0.412270	-0.219241
C206	C	1.454743	-0.162270	0.030759
C207	C	1.704743	0.087730	0.280759
C208	C	1.954743	0.337730	0.530759
C209	C	1.204890	-0.412081	-0.136702
C210	C	1.454890	-0.162081	0.113298
C211	C	1.704890	0.087919	0.363298
C212	C	1.954890	0.337919	0.613298
H213	H	0.720045	-0.474283	-0.473995
H214	H	0.970045	-0.224283	-0.223995
H215	H	1.220045	0.025717	0.026005
H216	H	1.470045	0.275717	0.276005
H217	H	0.690252	-0.350354	-0.350447
H218	H	0.940252	-0.100354	-0.100447
H219	H	1.190252	0.149646	0.149553
H220	H	1.440252	0.399646	0.399553
H221	H	1.101857	-0.860953	-0.499005
H222	H	1.351857	-0.610953	-0.249005
H223	H	1.601857	-0.360953	0.000995
H224	H	1.851857	-0.110953	0.250995
Br225	Br	1.021569	-0.964673	-0.360078
Br226	Br	1.271569	-0.714673	-0.110078
Br227	Br	1.521569	-0.464673	0.139922
Br228	Br	1.771569	-0.214673	0.389922
H229	H	1.167123	-0.863997	-0.285383
H230	H	1.417123	-0.613997	-0.035383
H231	H	1.667123	-0.363997	0.214617
H232	H	1.917123	-0.113997	0.464617
Br233	Br	1.339091	-0.978480	-0.298730
Br234	Br	1.589091	-0.728480	-0.048730
Br235	Br	1.839091	-0.478480	0.201270
Br236	Br	2.089091	-0.228480	0.451270
H237	H	1.167278	-0.285465	-0.864455
H238	H	1.417278	-0.035465	-0.614455
H239	H	1.667278	0.214535	-0.364455
H240	H	1.917278	0.464535	-0.114455
H241	H	1.345070	-0.871709	-0.452174
H242	H	1.595070	-0.621709	-0.202174
H243	H	1.845070	-0.371709	0.047826
H244	H	2.095070	-0.121709	0.297826
Br245	Br	1.339259	-0.298700	-0.979200
Br246	Br	1.589259	-0.048700	-0.729200
Br247	Br	1.839259	0.201300	-0.479200
Br248	Br	2.089259	0.451300	-0.229200
H249	H	1.102023	-0.499124	-0.861579
H250	H	1.352023	-0.249124	-0.611579
H251	H	1.602023	0.000876	-0.361579
H252	H	1.852023	0.250876	-0.111579
Br253	Br	1.253832	-0.577624	-0.975664
Br254	Br	1.503832	-0.327624	-0.725664
Br255	Br	1.753832	-0.077624	-0.475664
Br256	Br	2.003832	0.172376	-0.225664
H257	H	1.345238	-0.452145	-0.872618
H258	H	1.595238	-0.202145	-0.622618
H259	H	1.845238	0.047855	-0.372618
H260	H	2.095238	0.297855	-0.122618
H261	H	1.064493	-0.372319	-0.952629
H262	H	1.314493	-0.122319	-0.702629
H263	H	1.564493	0.127681	-0.452629
H264	H	1.814493	0.377681	-0.202629
Br265	Br	1.253744	-0.974884	-0.577714
Br266	Br	1.503744	-0.724884	-0.327714
Br267	Br	1.753744	-0.474884	-0.077714
Br268	Br	2.003744	-0.224884	0.172286
