data_functionalizedCrystal
_audit_creation_method	'MofGen! by Chris Wilmer'
_symmetry_space_group_name_H-M	'P1'
_symmetry_Int_Tables_number	1
_symmetry_cell_setting	triclinic
loop_
_symmetry_equiv_pos_as_xyz
  x,y,z
_cell_length_a	10.686154
_cell_length_b	10.685741
_cell_length_c	10.686551
_cell_angle_alpha	89.636396
_cell_angle_beta	89.693980
_cell_angle_gamma	90.321389
loop_
_atom_site_label
_atom_site_type_symbol
_atom_site_fract_x
_atom_site_fract_y
_atom_site_fract_z
Zn1	Zn	-1.997321	-0.304149	-0.583886
Zn2	Zn	-1.497321	0.195851	-0.083886
Zn3	Zn	-1.999668	-0.529886	-0.390036
Zn4	Zn	-1.499668	-0.029886	0.109964
Zn5	Zn	-1.774064	-0.336043	-0.392444
Zn6	Zn	-1.274064	0.163957	0.107556
Zn7	Zn	-1.805889	-0.527349	-0.615629
Zn8	Zn	-1.305889	-0.027349	-0.115629
O9	O	-1.894235	-0.424357	-0.495499
O10	O	-1.394235	0.075643	0.004501
O11	O	-2.172164	-0.321807	-0.543879
O12	O	-1.672164	0.178193	-0.043879
O13	O	-1.957404	-0.518581	-0.215825
O14	O	-1.457404	-0.018581	0.284175
O15	O	-1.789378	-0.157278	-0.405562
O16	O	-1.289378	0.342722	0.094438
O17	O	-2.173888	-0.487655	-0.401459
O18	O	-1.673888	0.012345	0.098541
O19	O	-1.953405	-0.133846	-0.546214
O20	O	-1.453405	0.366154	-0.046214
O21	O	-1.791654	-0.376166	-0.217594
O22	O	-1.291654	0.123834	0.282406
O23	O	-1.603754	-0.373707	-0.436342
O24	O	-1.103754	0.126293	0.063658
O25	O	-1.843620	-0.483332	-0.785948
O26	O	-1.343620	0.016668	-0.285948
O27	O	-1.627136	-0.514258	-0.600315
O28	O	-1.127136	-0.014258	-0.100315
O29	O	-1.984264	-0.319348	-0.762627
O30	O	-1.484264	0.180652	-0.262627
O31	O	-1.988264	-0.704083	-0.432238
O32	O	-1.488264	-0.204083	0.067762
O33	O	-1.845895	-0.702220	-0.597980
O34	O	-1.345895	-0.202220	-0.097980
C35	C	-1.570191	-0.447169	-0.522035
C36	C	-1.070191	0.052831	-0.022035
C37	C	-1.431568	-0.456956	-0.533419
C38	C	-0.931568	0.043044	-0.033419
C39	C	-1.920823	-0.748401	-0.518317
C40	C	-1.420823	-0.248401	-0.018317
C41	C	-1.932315	-0.887017	-0.528111
C42	C	-1.432315	-0.387017	-0.028111
C43	C	-1.917230	-0.397499	-0.820807
C44	C	-1.417230	0.102501	-0.320807
C45	C	-1.927029	-0.386055	-0.959434
C46	C	-1.427029	0.113945	-0.459434
C47	C	-1.219544	-0.401445	-0.468851
C48	C	-0.719544	0.098555	0.031149
C49	C	-1.358167	-0.391652	-0.457472
C50	C	-0.858167	0.108348	0.042528
C51	C	-1.867580	-0.099042	-0.472616
C52	C	-1.367580	0.400958	0.027384
C53	C	-1.856220	0.039587	-0.462864
C54	C	-1.356220	0.539587	0.037136
C55	C	-1.871395	-0.451015	-0.171444
C56	C	-1.371395	0.048985	0.328556
C57	C	-1.861808	-0.462091	-0.032773
C58	C	-1.361808	0.037909	0.467227
H59	H	-1.388354	-0.520364	-0.607149
H60	H	-0.888354	-0.020364	-0.107149
H61	H	-1.990374	-0.312201	-1.002704
H62	H	-1.490374	0.187799	-0.502704
H63	H	-2.006158	0.069764	-0.591426
H64	H	-1.506158	0.569764	-0.091426
F65	F	-1.759706	0.096079	-0.380087
F66	F	-1.259706	0.596079	0.119913
H67	H	-1.798477	-0.535948	-0.989508
H68	H	-1.298477	-0.035948	-0.489508
H69	H	-1.401375	-0.328257	-0.383740
H70	H	-0.901375	0.171743	0.116260
