data_functionalizedCrystal
_audit_creation_method	'MofGen! by Chris Wilmer'
_symmetry_space_group_name_H-M	'P1'
_symmetry_Int_Tables_number	1
_symmetry_cell_setting	triclinic
loop_
_symmetry_equiv_pos_as_xyz
  x,y,z
_cell_length_a	14.971486
_cell_length_b	12.837942
_cell_length_c	11.295660
_cell_angle_alpha	85.465035
_cell_angle_beta	94.104437
_cell_angle_gamma	89.221535
loop_
_atom_site_label
_atom_site_type_symbol
_atom_site_fract_x
_atom_site_fract_y
_atom_site_fract_z
O1	O	1.192915	0.142062	-0.098884
O2	O	1.692915	0.642062	0.401116
O3	O	0.933877	0.158244	-0.098917
O4	O	1.433877	0.658244	0.401083
O5	O	1.057652	-0.000757	-0.098894
O6	O	1.557652	0.499243	0.401106
O7	O	1.069139	0.301063	-0.098907
O8	O	1.569139	0.801063	0.401093
O9	O	1.068496	-0.014700	0.099153
O10	O	1.568496	0.485300	0.599153
O11	O	0.944721	0.144301	0.099130
O12	O	1.444721	0.644301	0.599130
O13	O	1.203759	0.128120	0.099162
O14	O	1.703759	0.628120	0.599162
Cu15	Cu	1.075230	0.134938	0.117229
Cu16	Cu	1.575230	0.634938	0.617229
Cu17	Cu	1.062406	0.151426	-0.116984
Cu18	Cu	1.562406	0.651426	0.383016
O19	O	1.079983	0.287121	0.099140
O20	O	1.579983	0.787121	0.599140
C21	C	0.905913	0.150549	0.000103
C22	C	1.405913	0.650549	0.500103
C23	C	0.806432	0.148382	0.000090
C24	C	1.306432	0.648382	0.500090
C25	C	0.757082	0.241790	0.000088
C26	C	1.257082	0.741790	0.500088
C27	C	0.663611	0.239745	0.000106
C28	C	1.163611	0.739745	0.500106
C29	C	0.619492	0.144292	0.000118
C30	C	1.119492	0.644292	0.500118
C31	C	0.668849	0.050876	0.000124
C32	C	1.168849	0.550876	0.500124
C33	C	0.762319	0.052922	0.000114
C34	C	1.262319	0.552922	0.500114
C35	C	0.474029	0.046620	0.000140
C36	C	0.974029	0.546620	0.500140
C37	C	0.380553	0.044574	0.000147
C38	C	0.880553	0.544574	0.500147
C39	C	0.375322	0.233444	0.000132
C40	C	0.875322	0.733444	0.500132
C41	C	0.468791	0.235489	0.000122
C42	C	0.968791	0.735489	0.500122
C43	C	0.518142	0.142073	0.000126
C44	C	1.018142	0.642073	0.500126
C45	C	1.059194	-0.046354	0.000128
C46	C	1.559194	0.453646	0.500128
C47	C	1.047619	-0.161445	0.000125
C48	C	1.547619	0.338555	0.500125
C49	C	1.186761	-0.402230	0.000117
C50	C	1.686761	0.097770	0.500117
C51	C	1.175890	-0.510370	0.000114
C52	C	1.675890	-0.010370	0.500114
C53	C	1.015007	-0.485864	0.000106
C54	C	1.515007	0.014136	0.500106
C55	C	1.025878	-0.377725	0.000110
C56	C	1.525878	0.122275	0.500110
C57	C	1.111758	-0.335912	0.000117
C58	C	1.611758	0.164088	0.500117
C59	C	1.122628	-0.227772	0.000129
C60	C	1.622628	0.272228	0.500129
C61	C	0.961745	-0.203268	0.000113
C62	C	1.461745	0.296732	0.500113
C63	C	0.950874	-0.311407	0.000109
C64	C	1.450874	0.188593	0.500109
C65	C	1.231723	0.135815	0.000140
C66	C	1.731723	0.635815	0.500140
C67	C	1.331203	0.137982	0.000145
C68	C	1.831203	0.637982	0.500145
C69	C	1.078442	0.332718	0.000115
C70	C	1.578442	0.832718	0.500115
C71	C	1.090016	0.447809	0.000110
C72	C	1.590016	0.947809	0.500110
N73	N	1.084256	0.123340	0.281962
N74	N	1.584256	0.623340	0.781962
C75	C	0.988300	0.246570	0.531288
C76	C	1.488300	0.746570	1.031288
C77	C	0.995141	0.237796	0.655949
C78	C	1.495141	0.737796	1.155949
C79	C	1.104783	0.097023	0.655948
C80	C	1.604783	0.597023	1.155948
C81	C	1.097942	0.105797	0.531287
C82	C	1.597942	0.605797	1.031287
C83	C	1.039698	0.180572	0.468961
C84	C	1.539698	0.680572	0.968961
C85	C	1.032853	0.189340	0.344298
C86	C	1.532853	0.689340	0.844298
C87	C	1.142499	0.048574	0.344299
C88	C	1.642499	0.548574	0.844299
C89	C	1.149340	0.039799	0.468960
C90	C	1.649340	0.539799	0.968960
N91	N	1.053380	0.163024	0.718283
N92	N	1.553380	0.663024	1.218283
H93	H	0.344634	-0.033152	0.000158
H94	H	0.844634	0.466848	0.500158
Br95	Br	0.541005	-0.080160	0.000151
Br96	Br	1.041005	0.419840	0.500151
Br97	Br	1.212247	-0.041008	0.259702
Br98	Br	1.712247	0.458992	0.759702
Br99	Br	0.816948	0.371342	0.000060
Br100	Br	1.316948	0.871342	0.500060
H101	H	0.504710	0.313216	0.000101
H102	H	1.004710	0.813216	0.500101
H103	H	0.945086	-0.519926	0.000088
H104	H	1.445086	-0.019926	0.500088
H105	H	0.940869	0.307447	0.480541
H106	H	1.440869	0.807447	0.980541
H107	H	0.953289	0.291539	0.706692
H108	H	1.453289	0.791539	1.206692
H109	H	0.335136	0.309506	0.000134
H110	H	0.835136	0.809506	0.500134
H111	H	0.985425	0.250223	0.293553
H112	H	1.485425	0.750223	0.793553
H113	H	1.192556	-0.193731	0.000139
H114	H	1.692556	0.306269	0.500139
H115	H	0.900672	-0.149260	0.000122
H116	H	1.400672	0.350740	0.500122
Br117	Br	1.183838	-0.004437	0.740544
Br118	Br	1.683838	0.495563	1.240544
Br119	Br	1.277684	-0.600371	0.000106
Br120	Br	1.777684	-0.100371	0.500106
H121	H	0.623434	0.315808	0.000102
H122	H	1.123434	0.815808	0.500102
Br123	Br	0.608975	-0.078670	0.000151
Br124	Br	1.108975	0.421330	0.500151
H125	H	1.256688	-0.368187	0.000135
H126	H	1.756688	0.131813	0.500135
Br127	Br	0.834328	-0.368161	0.000084
Br128	Br	1.334328	0.131839	0.500084
H129	H	0.802499	-0.023141	0.000115
H130	H	1.302499	0.476859	0.500115
Br131	Br	1.228387	-0.061672	0.553552
Br132	Br	1.728387	0.438328	1.053552
