data_functionalizedCrystal
_audit_creation_method	'MofGen! by Chris Wilmer'
_symmetry_space_group_name_H-M	'P1'
_symmetry_Int_Tables_number	1
_symmetry_cell_setting	triclinic
loop_
_symmetry_equiv_pos_as_xyz
  x,y,z
_cell_length_a	14.519709
_cell_length_b	12.837943
_cell_length_c	11.295483
_cell_angle_alpha	85.461227
_cell_angle_beta	85.891168
_cell_angle_gamma	90.745458
loop_
_atom_site_label
_atom_site_type_symbol
_atom_site_fract_x
_atom_site_fract_y
_atom_site_fract_z
O1	O	-0.234191	1.382867	-0.098971
O2	O	-0.222345	1.081040	-0.098980
O3	O	-0.094720	1.239956	-0.098986
O4	O	-0.361815	1.223950	-0.098965
O5	O	-0.105911	1.225998	0.099065
O6	O	-0.233536	1.067082	0.099071
O7	O	-0.245381	1.368909	0.099080
Cu8	Cu	-0.240480	1.216721	0.117159
Cu9	Cu	-0.227246	1.233228	-0.117059
O10	O	-0.373006	1.209992	0.099086
C11	C	-0.223939	1.035433	0.000044
C12	C	-0.212004	0.920334	0.000040
C13	C	-0.355476	0.679639	0.000069
C14	C	-0.344267	0.571493	0.000066
C15	C	-0.178378	0.595892	0.000040
C16	C	-0.189588	0.704038	0.000043
C17	C	-0.278139	0.745908	0.000055
C18	C	-0.289347	0.854057	0.000050
C19	C	-0.123459	0.878453	0.000032
C20	C	-0.112250	0.770307	0.000030
C21	C	-0.401835	1.217717	0.000063
C22	C	-0.504410	1.219951	0.000072
C23	C	-0.880014	1.228183	0.000024
C24	C	-0.775509	1.225897	0.000038
C25	C	-0.692215	1.224067	0.000049
C26	C	-0.587704	1.221781	0.000060
C27	C	-0.065891	1.232232	0.000034
C28	C	0.036684	1.229998	0.000018
C29	C	-0.243787	1.414516	0.000053
C30	C	-0.255721	1.529615	0.000049
N31	N	-0.249788	1.205118	0.281896
N32	N	-0.217931	1.244838	-0.281796
C33	C	-0.150875	1.328360	0.531181
C34	C	-0.157916	1.319599	0.655845
C35	C	-0.270907	1.178831	0.655890
C36	C	-0.263866	1.187592	0.531226
C37	C	-0.203848	1.262360	0.468876
C38	C	-0.196812	1.271125	0.344210
C39	C	-0.309798	1.130353	0.344258
C40	C	-0.316840	1.121592	0.468922
H41	H	-0.427579	0.713730	0.000077
O42	O	-0.092457	1.400883	0.470646
C43	C	-0.001374	1.381762	0.501102
H44	H	0.004494	1.296352	0.535402
H45	H	0.016558	1.434106	0.573434
C46	C	0.058767	1.510443	0.348203
C47	C	0.065975	1.405538	0.390321
H48	H	0.100312	1.525113	0.279871
H49	H	-0.002598	1.523328	0.327686
H50	H	0.073708	1.554050	0.408490
H51	H	0.051023	1.361933	0.330040
H52	H	0.127340	1.392646	0.410825
H53	H	-0.319765	1.117950	0.706672
O54	O	-0.375028	1.048827	0.529443
C55	C	-0.349263	0.948312	0.498977
H56	H	-0.273435	0.950076	0.464693
H57	H	-0.393616	0.923041	0.426631
C58	C	-0.456772	0.868100	0.651846
C59	C	-0.363635	0.870266	0.609747
H60	H	-0.465640	0.819956	0.720171
H61	H	-0.474133	0.935819	0.672369
H62	H	-0.493722	0.847044	0.591548
H63	H	-0.326688	0.891334	0.670039
H64	H	-0.346268	0.802548	0.589236
O65	O	-0.419375	0.507062	0.000282
C66	C	-0.423636	0.436528	0.102837
H67	H	-0.383995	0.470987	0.174526
H68	H	-0.391548	0.359478	0.079639
C69	C	-0.573871	0.374691	0.061308
C70	C	-0.525190	0.417019	0.149362
H71	H	-0.636514	0.362652	0.090005
H72	H	-0.571000	0.422208	-0.007787
H73	H	-0.547121	0.310488	0.041984
H74	H	-0.551933	0.481227	0.168673
H75	H	-0.528068	0.369512	0.218462
O76	O	-0.092429	0.555040	-0.000012
C77	C	-0.099128	0.445374	0.000031
H78	H	-0.166761	0.422765	-0.037462
H79	H	-0.097392	0.408576	0.095050
C80	C	0.065636	0.433600	-0.031582
C81	C	-0.017428	0.405831	-0.077641
H82	H	0.116035	0.409206	-0.079489
H83	H	0.070151	0.507483	-0.031607
H84	H	0.067070	0.402932	0.047600
H85	H	-0.018865	0.436509	-0.156815
H86	H	-0.021940	0.331952	-0.077631
O87	O	-0.361310	1.066388	0.283607
C88	C	-0.419066	1.127091	0.211524
H89	H	-0.388434	1.209459	0.192822
H90	H	-0.490568	1.130891	0.259586
C91	C	-0.464567	0.975833	0.116091
C92	C	-0.426941	1.076997	0.093114
H93	H	-0.469430	0.944932	0.043052
H94	H	-0.425659	0.934935	0.164658
H95	H	-0.524149	0.979014	0.156146
H96	H	-0.367356	1.073814	0.053073
H97	H	-0.465839	1.117894	0.044537
H98	H	-0.040154	0.736200	0.000033
O99	O	-0.048429	0.942973	0.000068
C100	C	-0.077304	1.047408	0.000035
H101	H	-0.152233	1.049056	0.037548
H102	H	-0.071194	1.085363	-0.094984
C103	C	0.076145	1.105966	0.031605
C104	C	-0.015881	1.107991	0.077689
H105	H	0.114036	1.143338	0.079501
H106	H	0.095601	1.035606	0.031623
H107	H	0.081224	1.137593	-0.047576
H108	H	-0.020960	1.076352	0.156863
H109	H	-0.035336	1.178346	0.077686
O110	O	-0.375332	0.894796	-0.000149
C111	C	-0.380985	0.963867	-0.102705
H112	H	-0.326492	0.943252	-0.174407
H113	H	-0.368510	1.047474	-0.079519
C114	C	-0.544555	0.979544	-0.061132
C115	C	-0.477631	0.954218	-0.149200
H116	H	-0.604172	0.973597	-0.089810
H117	H	-0.540747	0.933012	0.007965
H118	H	-0.534147	1.049215	-0.041818
H119	H	-0.488033	0.884545	-0.168502
H120	H	-0.481444	1.000738	-0.218302
H121	H	-0.147946	1.332007	0.293445
H122	H	-0.114778	1.373342	0.706570
