data_functionalizedCrystal
_audit_creation_method	'MofGen! by Chris Wilmer'
_symmetry_space_group_name_H-M	'P1'
_symmetry_Int_Tables_number	1
_symmetry_cell_setting	triclinic
loop_
_symmetry_equiv_pos_as_xyz
  x,y,z
_cell_length_a	8.559649
_cell_length_b	18.366186
_cell_length_c	19.288865
_cell_angle_alpha	89.988521
_cell_angle_beta	76.457456
_cell_angle_gamma	89.991101
loop_
_atom_site_label
_atom_site_type_symbol
_atom_site_fract_x
_atom_site_fract_y
_atom_site_fract_z
O1	O	2.120308	-0.060535	-0.023572
O2	O	1.654846	-0.060543	0.012313
O3	O	1.901026	-0.060524	-0.107459
O4	O	1.874127	-0.060554	0.096200
O5	O	1.900985	0.060575	-0.107462
O6	O	1.654804	0.060557	0.012310
O7	O	2.120266	0.060564	-0.023575
Zn8	Zn	1.887529	0.079788	-0.005633
Zn9	Zn	1.887583	-0.079766	-0.005629
O10	O	1.874085	0.060546	0.096197
C11	C	1.595275	0.000006	0.015031
C12	C	1.417837	0.000004	0.023126
N13	N	1.887503	0.188679	-0.005637
N14	N	1.887622	-0.188657	-0.005631
C15	C	2.179837	0.000014	-0.026293
C16	C	2.357275	0.000011	-0.034388
C17	C	1.900140	0.000028	-0.133292
C18	C	1.897542	0.000034	-0.210261
C19	C	1.996547	0.226787	-0.058651
C20	C	1.996557	0.303015	-0.058654
C21	C	1.887538	0.341132	-0.005633
C22	C	1.778473	0.303014	0.047385
C23	C	1.778456	0.226787	0.047383
C24	C	1.866140	0.461882	0.058767
C25	C	1.866169	0.538107	0.058769
C26	C	1.887584	0.576239	-0.005627
C27	C	1.909003	0.538136	-0.070030
C28	C	1.908985	0.461910	-0.070032
C29	C	1.887545	0.423786	-0.005625
C30	C	1.996645	0.697003	-0.058649
C31	C	1.996644	0.773232	-0.058653
C32	C	1.778568	0.773229	0.047393
C33	C	1.778561	0.697001	0.047391
C34	C	1.887608	0.658893	-0.005629
C35	C	2.041990	0.000040	-0.262466
C36	C	2.039549	0.000028	-0.334786
C37	C	1.892652	0.000025	-0.354897
C38	C	1.748185	0.000015	-0.302681
C39	C	1.750630	0.000020	-0.230363
C40	C	1.777159	0.042442	-0.457183
C41	C	1.774720	0.042442	-0.529500
C42	C	1.885104	0.000009	-0.577950
C43	C	1.997955	-0.042415	-0.554077
C44	C	2.000400	-0.042411	-0.481759
C45	C	1.889984	0.000020	-0.433313
C46	C	2.026915	0.000001	-0.708575
C47	C	2.024468	-0.000015	-0.780895
C48	C	1.733101	-0.000020	-0.748789
C49	C	1.735552	-0.000011	-0.676470
C50	C	1.882463	0.000003	-0.656368
C51	C	1.874972	-0.000008	0.122030
C52	C	1.877570	-0.000019	0.198998
H53	H	1.333932	-0.000008	0.078562
N54	N	1.468381	0.000023	-0.107821
H55	H	1.538437	-0.044867	-0.113806
H56	H	1.538297	0.044946	-0.113761
H57	H	2.161616	0.000049	-0.246104
N58	N	2.114151	0.185685	-0.115836
H59	H	2.183231	0.221398	-0.149422
H60	H	2.053178	0.154074	-0.143310
N61	N	2.114169	0.344131	-0.115837
H62	H	2.183243	0.308422	-0.149425
H63	H	2.184634	0.375742	-0.092979
N64	N	1.574651	-0.000015	-0.770463
H65	H	1.511399	-0.044906	-0.750849
H66	H	1.595139	0.000011	-0.824201
N67	N	2.114197	0.655896	-0.115854
H68	H	2.097636	0.601823	-0.107813
H69	H	2.227548	0.669198	-0.113866
H70	H	1.617926	-0.000012	-0.633962
N71	N	1.932081	0.420812	-0.139487
H72	H	1.945652	0.456529	-0.180285
H73	H	1.834999	0.389197	-0.138388
H74	H	2.085436	0.804260	-0.101826
N75	N	2.180280	-0.000006	-0.837203
H76	H	2.185730	0.044882	-0.867934
H77	H	2.185697	-0.044930	-0.867863
N78	N	1.658086	0.088208	-0.404927
H79	H	1.586237	0.115086	-0.431024
H80	H	1.717906	0.124449	-0.381410
N81	N	2.185359	0.000014	-0.686885
H82	H	2.276500	0.000010	-0.730934
H83	H	2.192734	-0.044875	-0.657566
N84	N	1.932111	0.579251	-0.139493
H85	H	1.928865	0.633322	-0.129722
H86	H	1.843458	0.565941	-0.163714
H87	H	2.157179	0.000030	-0.377299
H88	H	2.092284	-0.076955	-0.462324
N89	N	1.660967	0.814329	0.104577
H90	H	1.677519	0.868401	0.096534
H91	H	1.679063	0.800992	0.152892
H92	H	1.689773	0.665971	0.090562
N93	N	1.653028	0.088206	-0.555250
H94	H	1.583462	0.115083	-0.513584
H95	H	1.583489	0.055663	-0.577701
N96	N	1.589744	0.000009	-0.324367
H97	H	1.610112	0.000009	-0.378103
H98	H	1.526537	0.044900	-0.304724
H99	H	1.633000	0.000015	-0.187855
N100	N	1.843058	0.579201	0.128228
H101	H	1.829463	0.543480	0.169024
H102	H	1.744127	0.610836	0.134925
H103	H	1.848674	0.430842	0.111211
N104	N	1.660896	0.344122	0.104575
H105	H	1.591809	0.308410	0.138160
H106	H	1.590441	0.375765	0.081722
H107	H	1.689657	0.195759	0.090554
N108	N	2.117030	-0.088184	-0.606323
H109	H	2.098357	-0.081754	-0.655759
H110	H	2.102532	-0.141103	-0.592021
