data_functionalizedCrystal
_audit_creation_method	'MofGen! by Chris Wilmer'
_symmetry_space_group_name_H-M	'P1'
_symmetry_Int_Tables_number	1
_symmetry_cell_setting	triclinic
loop_
_symmetry_equiv_pos_as_xyz
  x,y,z
_cell_length_a	10.489716
_cell_length_b	10.489746
_cell_length_c	14.586319
_cell_angle_alpha	89.995899
_cell_angle_beta	89.996864
_cell_angle_gamma	84.535218
loop_
_atom_site_label
_atom_site_type_symbol
_atom_site_fract_x
_atom_site_fract_y
_atom_site_fract_z
O1	O	1.694074	0.179817	-0.076234
O2	O	1.322874	0.196742	-0.076237
O3	O	1.516917	0.002681	-0.076229
O4	O	1.500031	0.373878	-0.076242
O5	O	1.516903	0.002678	0.076252
O6	O	1.322861	0.196739	0.076243
O7	O	1.694060	0.179814	0.076247
Cu8	Cu	1.508459	0.188276	0.090168
Cu9	Cu	1.508475	0.188280	-0.090158
O10	O	1.500017	0.373875	0.076238
C11	C	1.275335	0.195469	0.000003
C12	C	1.133704	0.191664	0.000002
C13	C	1.036032	0.310669	-0.000005
C14	C	0.958679	0.247783	0.075182
C15	C	0.958699	0.247758	-0.075152
C16	C	1.058216	0.128828	0.075251
C17	C	1.058241	0.128821	-0.075151
C18	C	0.980936	0.065848	0.000055
C19	C	1.515633	-0.044852	0.000012
C20	C	1.511813	-0.186480	0.000011
C21	C	1.386089	-0.339327	-0.000002
C22	C	1.448953	-0.261939	-0.075180
C23	C	1.448969	-0.261983	0.075154
C24	C	1.567936	-0.361441	-0.075250
C25	C	1.567934	-0.361490	0.075152
C26	C	1.630885	-0.284151	-0.000045
C27	C	1.741599	0.181087	0.000005
C28	C	1.883230	0.184892	0.000000
C29	C	1.501301	0.421408	-0.000004
C30	C	1.505121	0.563037	-0.000009
N31	N	1.508457	0.188273	0.217000
N32	N	1.508487	0.188273	-0.216990
C33	C	1.594408	0.102372	0.452010
C34	C	1.594412	0.102369	0.547991
C35	C	1.422527	0.274178	0.547993
C36	C	1.422518	0.274174	0.452014
C37	C	1.508466	0.188273	0.404024
C38	C	1.508478	0.188274	0.595985
C39	C	1.508482	0.188271	0.700052
C40	C	1.508461	0.188273	0.299951
H41	H	1.101525	0.078620	0.138879
H42	H	1.352527	0.344125	0.412941
Cl43	Cl	1.645472	-0.428260	-0.173492
H44	H	1.664392	0.032420	0.587058
H45	H	1.398691	-0.218535	0.138712
H46	H	1.618133	-0.404995	0.138715
Cl47	Cl	0.891534	0.325339	0.173314
Cl48	Cl	1.371386	-0.194810	-0.173315
H49	H	1.734466	-0.259686	-0.000085
H50	H	0.915222	0.298020	-0.138707
Cl51	Cl	1.226292	-0.377487	-0.000116
H52	H	1.664390	0.032424	0.412940
Cl53	Cl	0.943199	-0.094084	0.000128
H54	H	1.101742	0.078624	-0.138714
H55	H	1.352552	0.344119	0.587075
H56	H	1.060704	0.414184	0.000061
