data_functionalizedCrystal
_audit_creation_method	'MofGen! by Chris Wilmer'
_symmetry_space_group_name_H-M	'P1'
_symmetry_Int_Tables_number	1
_symmetry_cell_setting	triclinic
loop_
_symmetry_equiv_pos_as_xyz
  x,y,z
_cell_length_a	10.489741
_cell_length_b	17.699083
_cell_length_c	16.176319
_cell_angle_alpha	89.992304
_cell_angle_beta	89.995299
_cell_angle_gamma	83.911094
loop_
_atom_site_label
_atom_site_type_symbol
_atom_site_fract_x
_atom_site_fract_y
_atom_site_fract_z
O1	O	-1.692075	-0.106782	0.068697
O2	O	-1.320693	-0.116805	0.068710
O3	O	-1.516876	-0.001673	0.068696
O4	O	-1.495891	-0.221914	0.068711
O5	O	-1.516849	-0.001665	-0.068797
O6	O	-1.320666	-0.116798	-0.068783
O7	O	-1.692048	-0.106775	-0.068796
Cu8	Cu	-1.506354	-0.111785	-0.081344
Cu9	Cu	-1.506386	-0.111794	0.081258
O10	O	-1.495864	-0.221907	-0.068782
C11	C	-1.273162	-0.116044	-0.000035
C12	C	-1.131574	-0.113779	-0.000030
C13	C	-1.739579	-0.107535	-0.000049
C14	C	-1.881166	-0.109800	-0.000048
C15	C	-1.516111	0.026533	-0.000051
C16	C	-1.513855	0.110565	-0.000051
C17	C	-1.064795	-0.040524	-0.000043
C18	C	-0.972039	-0.075133	0.067749
C19	C	-0.972046	-0.075143	-0.067808
C20	C	-1.040683	-0.148418	0.067818
C21	C	-1.040700	-0.148418	-0.067800
C22	C	-0.947970	-0.183080	0.000008
C23	C	-1.496630	-0.250112	-0.000033
C24	C	-1.498886	-0.334145	-0.000028
N25	N	-1.506341	-0.111779	-0.195709
C26	C	-1.629011	0.158433	-0.000056
C27	C	-1.626883	0.237390	-0.000049
C28	C	-1.509599	0.268478	-0.000042
C29	C	-1.394435	0.220605	-0.000034
C30	C	-1.396563	0.141649	-0.000036
C31	C	-1.385848	0.539024	-0.000027
C32	C	-1.383729	0.617986	-0.000028
C33	C	-1.616168	0.634765	-0.000040
C34	C	-1.618297	0.555810	-0.000042
C35	C	-1.503133	0.507943	-0.000030
C36	C	-1.505441	0.422328	-0.000036
C37	C	-1.507290	0.354091	-0.000041
C38	C	-1.593237	-0.060819	-0.238979
C39	C	-1.593244	-0.060819	-0.325526
C40	C	-1.506359	-0.111781	-0.368801
C41	C	-1.419454	-0.162743	-0.325525
C42	C	-1.419442	-0.162740	-0.238979
C43	C	-1.419498	-0.162758	-0.674553
C44	C	-1.419518	-0.162759	-0.761105
C45	C	-1.593299	-0.060837	-0.761100
C46	C	-1.593288	-0.060833	-0.674555
C47	C	-1.506378	-0.111792	-0.631286
C48	C	-1.506371	-0.111791	-0.537441
C49	C	-1.506372	-0.111786	-0.462644
N50	N	-1.506409	-0.111795	0.195623
H51	H	-1.115604	0.019696	0.000038
H52	H	-1.664000	-0.019323	-0.360757
H53	H	-0.941633	-0.044131	-0.125121
C54	C	-1.323885	-0.218802	-0.373125
H55	H	-1.336345	-0.211512	-0.430866
H56	H	-1.238788	-0.210091	-0.358955
H57	H	-1.337583	-0.269397	-0.358927
H58	H	-1.302792	0.102675	-0.000031
C59	C	-1.323862	-0.218795	-0.191378
H60	H	-1.336290	-0.211489	-0.133637
H61	H	-1.337549	-0.269389	-0.205548
H62	H	-1.238768	-0.210075	-0.205574
H63	H	-0.941612	-0.044140	0.125059
C64	C	-1.747308	0.521617	-0.000045
H65	H	-1.815588	0.561434	-0.000039
H66	H	-1.752965	0.491169	-0.047991
H67	H	-1.752972	0.491161	0.047909
H68	H	-1.720655	0.276362	-0.000055
C69	C	-1.081552	-0.190278	0.145321
H70	H	-1.171887	-0.191445	0.144865
H71	H	-1.040487	-0.240764	0.145499
H72	H	-1.057514	-0.164440	0.193413
H73	H	-1.298940	0.245923	-0.000024
C74	C	-0.879676	-0.264514	0.000062
H75	H	-0.903155	-0.290411	0.048264
H76	H	-0.904223	-0.290729	-0.047635
H77	H	-0.789505	-0.262636	-0.000391
H78	H	-1.724517	0.133128	-0.000066
C79	C	-1.081864	-0.190249	-0.145222
H80	H	-1.058643	-0.164148	-0.193348
H81	H	-1.040255	-0.240605	-0.145707
H82	H	-1.172109	-0.191785	-0.144385
C83	C	-1.254714	0.652185	-0.000014
H84	H	-1.269945	0.706064	-0.000024
H85	H	-1.207323	0.635795	0.047938
H86	H	-1.207293	0.635803	-0.047962
C87	C	-1.259174	0.486380	-0.000029
H88	H	-1.189023	0.516206	-0.000036
H89	H	-1.255169	0.455222	0.047916
H90	H	-1.255168	0.455240	-0.047984
C91	C	-1.688810	-0.004758	-0.191384
H92	H	-1.740554	0.025596	-0.229553
H93	H	-1.741812	-0.032288	-0.157610
H94	H	-1.643017	0.027018	-0.157637
C95	C	-1.688880	-0.004790	-0.626953
H96	H	-1.676441	-0.012095	-0.569212
H97	H	-1.675218	0.045809	-0.641139
H98	H	-1.773971	-0.013522	-0.641132
C99	C	-1.688886	-0.004774	-0.808698
H100	H	-1.676444	-0.012066	-0.866440
H101	H	-1.773977	-0.013488	-0.794504
H102	H	-1.675187	0.045821	-0.794522
H103	H	-1.709940	0.673748	-0.000046
H104	H	-1.348762	-0.204260	-0.796338
C105	C	-1.323913	-0.218816	-0.626968
H106	H	-1.272183	-0.249172	-0.665139
H107	H	-1.270898	-0.191284	-0.593218
H108	H	-1.369695	-0.250590	-0.593196
