data_functionalizedCrystal
_audit_creation_method	'MofGen! by Chris Wilmer'
_symmetry_space_group_name_H-M	'P1'
_symmetry_Int_Tables_number	1
_symmetry_cell_setting	triclinic
loop_
_symmetry_equiv_pos_as_xyz
  x,y,z
_cell_length_a	10.654545
_cell_length_b	19.288857
_cell_length_c	9.130313
_cell_angle_alpha	89.993335
_cell_angle_beta	89.996934
_cell_angle_gamma	83.808094
loop_
_atom_site_label
_atom_site_type_symbol
_atom_site_fract_x
_atom_site_fract_y
_atom_site_fract_z
O1	O	1.665750	0.097540	-0.121793
O2	O	1.300071	0.106838	-0.121799
O3	O	1.493482	0.001127	-0.121778
O4	O	1.472339	0.203250	-0.121814
O5	O	1.493469	0.001124	0.121821
O6	O	1.300058	0.106835	0.121799
O7	O	1.665737	0.097537	0.121806
Cu8	Cu	1.482896	0.102185	0.144045
Cu9	Cu	1.482912	0.102189	-0.144038
O10	O	1.472326	0.203247	0.121785
C11	C	1.253281	0.106154	-0.000001
C12	C	1.113882	0.104114	-0.000003
C13	C	1.048390	0.103151	0.132784
C14	C	0.917412	0.101223	0.132785
C15	C	0.917427	0.101221	-0.132800
C16	C	1.048404	0.103145	-0.132799
C17	C	1.492797	-0.024755	0.000023
C18	C	1.490759	-0.101872	0.000027
C19	C	1.489816	-0.138088	-0.132759
C20	C	1.487884	-0.210546	-0.132770
C21	C	1.486920	-0.246789	0.000012
C22	C	1.487857	-0.210564	0.132816
C23	C	1.489777	-0.138106	0.132823
C24	C	1.557428	-0.366560	0.101733
C25	C	1.555516	-0.439018	0.101721
C26	C	1.480994	-0.470273	-0.000004
C27	C	1.408401	-0.429064	-0.101741
C28	C	1.410320	-0.356606	-0.101734
C29	C	1.484838	-0.325357	0.000019
C30	C	1.477954	-0.585056	-0.132811
C31	C	1.476014	-0.657516	-0.132817
C32	C	1.476000	-0.657533	0.132773
C33	C	1.477927	-0.585074	0.132775
C34	C	1.478910	-0.548841	-0.000021
C35	C	1.712527	0.098220	0.000004
C36	C	1.851927	0.100261	-0.000003
C37	C	1.473011	0.229130	-0.000019
C38	C	1.475049	0.306247	-0.000033
N39	N	1.482895	0.102182	0.346668
N40	N	1.482924	0.102187	-0.346661
C41	C	1.568565	0.055394	0.423329
C42	C	1.568577	0.055394	0.576666
C43	C	1.397244	0.148978	0.576667
C44	C	1.397227	0.148974	0.423333
H45	H	0.864100	0.100433	-0.240918
H46	H	0.864095	0.100439	0.240913
O47	O	1.486841	-0.249649	0.276037
H48	H	1.485368	-0.306120	0.253725
H49	H	1.101729	0.103927	-0.240937
O50	O	1.490844	-0.099003	-0.275982
H51	H	1.489846	-0.136363	-0.368319
H52	H	1.347718	-0.454510	-0.184575
O53	O	1.486869	-0.249621	-0.275993
H54	H	1.487880	-0.212252	-0.368331
O55	O	1.332009	-0.312154	-0.211431
H56	H	1.279853	-0.346054	-0.282164
H57	H	1.327497	0.187075	0.639103
H58	H	1.638319	0.017293	0.360912
O59	O	1.474965	-0.696619	0.275987
H60	H	1.389752	-0.676940	0.339658
O61	O	1.478997	-0.545970	-0.276035
H62	H	1.394305	-0.507171	-0.282374
H63	H	1.638337	0.017294	0.639079
O64	O	1.304825	0.199443	0.340631
H65	H	1.245271	0.231988	0.419698
H66	H	1.614631	-0.472565	0.184556
O67	O	1.474947	-0.696579	-0.276042
H68	H	1.475947	-0.659207	-0.368375
O69	O	1.490818	-0.099044	0.276052
H70	H	1.404880	-0.107175	0.339736
O71	O	1.119019	0.104197	0.276006
H72	H	1.051469	0.103201	0.368340
H73	H	1.478706	-0.555588	0.240904
H74	H	1.618111	-0.341119	0.184581
