data_functionalizedCrystal
_audit_creation_method	'MofGen! by Chris Wilmer'
_symmetry_space_group_name_H-M	'P1'
_symmetry_Int_Tables_number	1
_symmetry_cell_setting	triclinic
loop_
_symmetry_equiv_pos_as_xyz
  x,y,z
_cell_length_a	13.897449
_cell_length_b	13.897448
_cell_length_c	17.077396
_cell_angle_alpha	90.027368
_cell_angle_beta	90.021102
_cell_angle_gamma	90.018519
loop_
_atom_site_label
_atom_site_type_symbol
_atom_site_fract_x
_atom_site_fract_y
_atom_site_fract_z
Zn1	Zn	1.474681	-0.383994	0.443882
Zn2	Zn	1.974681	0.116006	0.943882
Zn3	Zn	1.474581	-0.545306	0.312619
Zn4	Zn	1.974581	-0.045306	0.812619
Zn5	Zn	1.313376	-0.384029	0.312627
Zn6	Zn	1.813376	0.115971	0.812627
Zn7	Zn	1.313352	-0.545251	0.443839
Zn8	Zn	1.813352	-0.045251	0.943839
O9	O	1.393998	-0.464645	0.378242
O10	O	1.893998	0.035355	0.878242
O11	O	1.609649	-0.405400	0.426485
O12	O	2.109649	0.094600	0.926485
O13	O	1.453166	-0.523951	0.202773
O14	O	1.953166	-0.023951	0.702773
O15	O	1.334826	-0.249043	0.330059
O16	O	1.834826	0.250957	0.830059
O17	O	1.609576	-0.523916	0.330046
O18	O	2.109576	-0.023916	0.830046
O19	O	1.453335	-0.249017	0.426492
O20	O	1.953335	0.250983	0.926492
O21	O	1.334729	-0.405461	0.202779
O22	O	1.834729	0.094539	0.702779
O23	O	1.178392	-0.405407	0.330017
O24	O	1.678392	0.094593	0.830017
O25	O	1.334784	-0.523821	0.553692
O26	O	1.834784	-0.023821	1.053692
O27	O	1.178373	-0.523856	0.426418
O28	O	1.678373	-0.023856	0.926418
O29	O	1.453311	-0.405347	0.553724
O30	O	1.953311	0.094653	1.053724
O31	O	1.453142	-0.680280	0.330004
O32	O	1.953142	-0.180280	0.830004
O33	O	1.334687	-0.680240	0.426411
O34	O	1.834687	-0.180240	0.926411
C35	C	1.143383	-0.464630	0.378214
C36	C	1.643383	0.035370	0.878214
C37	C	1.036169	-0.464647	0.378221
C38	C	1.536169	0.035353	0.878221
C39	C	0.949100	-0.464650	0.378234
C40	C	1.449100	0.035350	0.878234
C41	C	0.839867	-0.464657	0.378258
C42	C	1.339867	0.035343	0.878258
C43	C	1.393927	-0.715259	0.378219
C44	C	1.893927	-0.215259	0.878219
C45	C	1.393985	-0.822473	0.378235
C46	C	1.893985	-0.322473	0.878235
C47	C	1.394087	-1.018768	0.378285
C48	C	1.894087	-0.518768	0.878285
C49	C	1.394028	-0.909536	0.378260
C50	C	1.894028	-0.409536	0.878260
C51	C	1.645590	-0.464660	0.378270
C52	C	2.145590	0.035340	0.878270
C53	C	1.752804	-0.464667	0.378281
C54	C	2.252804	0.035333	0.878281
C55	C	1.394056	-0.464574	0.582986
C56	C	1.894056	0.035426	1.082986
C57	C	1.394081	-0.464544	0.670236
C58	C	1.894081	0.035456	1.170236
C59	C	1.394094	-0.213052	0.378282
C60	C	1.894094	0.286948	0.878282
C61	C	1.394136	-0.105838	0.378299
C62	C	1.894136	0.394162	0.878299
C63	C	1.393995	-0.464646	0.174294
C64	C	1.893995	0.035354	0.674294
C65	C	1.394157	-0.464405	0.087044
C66	C	1.894157	0.035595	0.587044
C67	C	1.455800	-0.402849	0.711244
C68	C	1.955800	0.097151	1.211244
C69	C	1.455812	-0.402816	0.793224
C70	C	1.955812	0.097184	1.293224
C71	C	1.394108	-0.464485	0.834195
C72	C	1.894108	0.035515	1.334195
C73	C	1.332382	-0.526183	0.793182
C74	C	1.832382	-0.026183	1.293182
C75	C	1.332366	-0.526209	0.711203
C76	C	1.832366	-0.026209	1.211203
C77	C	1.332420	-0.526125	0.964052
C78	C	1.832420	-0.026125	1.464052
C79	C	1.332437	-0.526100	1.046036
C80	C	1.832437	-0.026100	1.546036
C81	C	1.455867	-0.402732	1.046074
C82	C	1.955867	0.097268	1.546074
C83	C	1.455851	-0.402758	0.964095
C84	C	1.955851	0.097242	1.464095
C85	C	1.394125	-0.464458	0.923086
C86	C	1.894125	0.035542	1.423086
H87	H	1.506050	-0.352634	0.677891
H88	H	2.006050	0.147366	1.177891
H89	H	1.282098	-0.576438	0.677815
H90	H	1.782098	-0.076438	1.177815
H91	H	1.506073	-0.352580	0.826610
H92	H	2.006073	0.147420	1.326610
C93	C	1.522881	-0.335701	0.919751
C94	C	2.022881	0.164299	1.419751
C95	C	1.576922	-0.281642	0.973209
C96	C	2.076922	0.218358	1.473209
C97	C	1.638669	-0.219848	0.932388
C98	C	2.138669	0.280152	1.432388
H99	H	1.564971	-0.372507	0.887769
H100	H	2.064971	0.127493	1.387769
H101	H	1.486011	-0.293630	0.887789
H102	H	1.986011	0.206370	1.387789
H103	H	1.613789	-0.323707	1.005157
H104	H	2.113789	0.176293	1.505157
H105	H	1.534857	-0.244816	1.005193
H106	H	2.034857	0.255184	1.505193
H107	H	1.601800	-0.177777	0.900426
H108	H	2.101800	0.322223	1.400426
H109	H	1.680753	-0.256662	0.900407
H110	H	2.180753	0.243338	1.400407
H111	H	1.675337	-0.183155	0.968653
H112	H	2.175337	0.316845	1.468653
C113	C	1.522765	-0.335765	1.090734
C114	C	2.022765	0.164235	1.590734
C115	C	1.509549	-0.348910	1.171297
C116	C	2.009549	0.151090	1.671297
C117	C	1.571145	-0.287229	1.212466
C118	C	2.071145	0.212771	1.712466
H119	H	1.587609	-0.349822	1.077409
H120	H	2.087609	0.150178	1.577409
H121	H	1.508654	-0.270941	1.077345
H122	H	2.008654	0.229059	1.577345
H123	H	1.523666	-0.413719	1.184680
H124	H	2.023666	0.086281	1.684680
H125	H	1.444717	-0.334846	1.184646
H126	H	1.944717	0.165154	1.684646
H127	H	1.557034	-0.222406	1.199077
H128	H	2.057034	0.277594	1.699077
H129	H	1.635986	-0.301292	1.199134
H130	H	2.135986	0.198708	1.699134
H131	H	1.562180	-0.296134	1.267131
H132	H	2.062180	0.203866	1.767131
C133	C	1.265335	-0.593085	1.090380
C134	C	1.765335	-0.093085	1.590380
C135	C	1.211251	-0.647101	1.036923
C136	C	1.711251	-0.147101	1.536923
C137	C	1.149417	-0.708808	1.077743
C138	C	1.649417	-0.208808	1.577743
H139	H	1.302114	-0.635193	1.122361
H140	H	1.802114	-0.135193	1.622361
H141	H	1.223283	-0.556188	1.122344
H142	H	1.723283	-0.056188	1.622344
H143	H	1.253298	-0.683995	1.004972
H144	H	1.753298	-0.183995	1.504972
H145	H	1.174452	-0.605018	1.004940
H146	H	1.674452	-0.105018	1.504940
H147	H	1.107364	-0.671911	1.109707
H148	H	1.607364	-0.171911	1.609707
H149	H	1.186204	-0.750910	1.109722
H150	H	1.686204	-0.250910	1.609722
H151	H	1.112707	-0.745459	1.041479
H152	H	1.612707	-0.245459	1.541479
C153	C	1.265571	-0.593170	0.919419
C154	C	1.765571	-0.093170	1.419419
C155	C	1.320169	-0.654987	0.872341
C156	C	1.820169	-0.154987	1.372341
C157	C	1.258630	-0.716755	0.831203
C158	C	1.758630	-0.216755	1.331203
H159	H	1.228801	-0.629995	0.955462
H160	H	1.728801	-0.129995	1.455462
H161	H	1.223567	-0.556307	0.887389
H162	H	1.723567	-0.056307	1.387389
H163	H	1.362155	-0.691846	0.904368
H164	H	1.862155	-0.191846	1.404368
H165	H	1.356937	-0.618188	0.836283
H166	H	1.856937	-0.118188	1.336283
H167	H	1.216626	-0.679892	0.799174
H168	H	1.716626	-0.179892	1.299174
H169	H	1.221863	-0.753574	0.867252
H170	H	1.721863	-0.253574	1.367252
H171	H	1.295665	-0.758699	0.799251
H172	H	1.795665	-0.258699	1.299251
H173	H	1.282138	-0.576391	0.826547
H174	H	1.782138	-0.076391	1.326547
