data_functionalizedCrystal
_audit_creation_method	'MofGen! by Chris Wilmer'
_symmetry_space_group_name_H-M	'P1'
_symmetry_Int_Tables_number	1
_symmetry_cell_setting	triclinic
loop_
_symmetry_equiv_pos_as_xyz
  x,y,z
_cell_length_a	15.995300
_cell_length_b	14.853567
_cell_length_c	13.930277
_cell_angle_alpha	89.998611
_cell_angle_beta	89.991068
_cell_angle_gamma	96.446631
loop_
_atom_site_label
_atom_site_type_symbol
_atom_site_fract_x
_atom_site_fract_y
_atom_site_fract_z
O1	O	1.111150	-0.115987	-0.079858
O2	O	0.867386	-0.130384	-0.079851
O3	O	0.995780	0.008054	-0.079858
O4	O	0.982757	-0.254425	-0.079851
O5	O	0.995761	0.008052	0.079804
O6	O	0.867367	-0.130387	0.079811
O7	O	1.111132	-0.115990	0.079804
Zn8	Zn	0.989247	-0.123189	0.105157
Zn9	Zn	0.989271	-0.123185	-0.105204
O10	O	0.982738	-0.254428	0.079810
C11	C	0.836181	-0.129798	-0.000019
C12	C	0.743226	-0.128038	-0.000017
C13	C	0.573039	-0.124787	-0.000025
C14	C	0.525688	-0.223358	-0.000020
C15	C	0.428998	-0.221560	-0.000385
C16	C	0.405479	-0.121587	-0.000031
C17	C	0.446565	-0.072681	-0.091027
C18	C	0.543202	-0.075175	-0.091101
C19	C	0.543458	-0.073719	0.090471
C20	C	0.446513	-0.073728	0.091664
C21	C	0.310781	-0.119773	-0.000038
C22	C	0.667737	-0.126597	-0.000024
C23	C	0.995180	0.041641	-0.000029
C24	C	0.993412	0.141722	-0.000038
C25	C	1.142337	-0.116575	-0.000030
C26	C	1.235292	-0.118336	-0.000038
C27	C	0.983338	-0.288014	-0.000020
C28	C	0.985106	-0.388095	-0.000018
N29	N	0.989236	-0.123191	0.248723
C30	C	0.909669	0.554126	-0.000017
C31	C	1.062203	0.575643	-0.000021
C32	C	1.063866	0.481611	-0.000027
C33	C	0.988429	0.423833	-0.000026
C34	C	0.911329	0.460086	-0.000020
C35	C	1.140964	0.445351	-0.000024
C36	C	1.142630	0.351315	-0.000028
C37	C	1.067192	0.293535	-0.000035
C38	C	0.990089	0.329793	-0.000029
C39	C	0.914652	0.272015	-0.000028
C40	C	0.837548	0.308271	-0.000030
C41	C	0.835891	0.402306	-0.000026
C42	C	1.068849	0.199500	-0.000038
C43	C	0.916312	0.177975	-0.000031
N44	N	0.989289	-0.123176	-0.248770
C45	C	0.938395	-0.068489	0.298986
C46	C	1.040088	-0.177887	0.298965
C47	C	1.040098	-0.177887	0.399461
C48	C	0.989257	-0.123185	0.449724
C49	C	0.938406	-0.068485	0.399491
C50	C	1.090955	-0.232579	0.449701
C51	C	1.090968	-0.232580	0.550203
C52	C	1.040122	-0.177883	0.600468
C53	C	0.989268	-0.123181	0.550229
C54	C	0.938427	-0.068480	0.600492
C55	C	0.887567	-0.013782	0.550255
C56	C	0.887560	-0.013788	0.449757
C57	C	1.040130	-0.177877	0.700966
C58	C	0.938437	-0.068475	0.700997
H59	H	0.418227	-0.106207	-0.159000
H60	H	1.081542	-0.222408	0.741865
F61	F	0.391840	-0.271794	0.084852
H62	H	0.561570	-0.110419	-0.159378
F63	F	0.757266	0.246769	-0.000022
F64	F	1.150902	0.160916	-0.000022
H65	H	0.575391	-0.002793	-0.094991
F66	F	0.551383	-0.274364	-0.085182
H67	H	0.401202	-0.259820	-0.065993
H68	H	0.432381	0.000777	-0.094157
H69	H	0.773118	0.431835	-0.000026
H70	H	0.846893	0.583651	-0.000022
F71	F	0.410823	-0.120406	0.179659
F72	F	0.836020	0.116489	-0.000037
H73	H	1.123621	0.622691	-0.000014
H74	H	0.563988	-0.106172	0.159463
H75	H	1.132353	-0.277107	0.408769
H76	H	0.575154	-0.001044	0.091344
F77	F	0.426349	0.021540	0.099202
F78	F	0.550319	-0.275330	0.084926
H79	H	0.897032	-0.023935	0.741915
H80	H	1.202381	0.492401	-0.000016
H81	H	1.205412	0.321803	-0.000029
F82	F	0.833465	0.044437	0.603761
F83	F	0.884266	-0.010283	0.245522
F84	F	0.833438	0.044421	0.396285
H85	H	1.081485	-0.222417	0.258035
F86	F	1.145093	-0.290796	0.603659
