data_functionalizedCrystal
_audit_creation_method	'MofGen! by Chris Wilmer'
_symmetry_space_group_name_H-M	'P1'
_symmetry_Int_Tables_number	1
_symmetry_cell_setting	triclinic
loop_
_symmetry_equiv_pos_as_xyz
  x,y,z
_cell_length_a	15.944551
_cell_length_b	10.654541
_cell_length_c	9.130307
_cell_angle_alpha	90.002614
_cell_angle_beta	89.996434
_cell_angle_gamma	96.008667
loop_
_atom_site_label
_atom_site_type_symbol
_atom_site_fract_x
_atom_site_fract_y
_atom_site_fract_z
O1	O	0.117964	-1.666317	-0.121758
O2	O	0.129206	-1.300692	-0.121771
O3	O	0.001368	-1.493489	-0.121751
O4	O	0.245802	-1.473520	-0.121778
O5	O	0.001369	-1.493474	0.121848
O6	O	0.129208	-1.300677	0.121828
O7	O	0.117965	-1.666301	0.121841
Cu8	Cu	0.123587	-1.483488	0.144077
Cu9	Cu	0.123585	-1.483506	-0.144007
O10	O	0.245804	-1.473505	0.121821
C11	C	0.128382	-1.253897	0.000027
C12	C	0.125914	-1.114486	0.000022
C13	C	-0.029930	-1.492652	0.000049
C14	C	-0.123190	-1.490167	0.000049
N15	N	0.123587	-1.483484	0.346700
C16	C	-0.338772	-1.364722	0.000025
C17	C	-0.399452	-1.422967	0.120136
C18	C	-0.293942	-1.485671	0.000038
C19	C	-0.399437	-1.423011	-0.120034
C20	C	-0.458880	-1.481319	0.000021
C21	C	-0.353394	-1.543949	0.120248
C22	C	-0.353372	-1.543976	-0.120029
C23	C	-0.414034	-1.602309	0.000111
C24	C	-0.198925	-1.488175	0.000049
C25	C	-0.553896	-1.478825	0.000020
C26	C	0.277102	-1.474342	0.000018
C27	C	0.370362	-1.476827	0.000008
C28	C	0.118790	-1.713097	0.000040
C29	C	0.121258	-1.852508	0.000035
C30	C	0.278779	-1.084537	-0.000013
C31	C	0.354048	-1.004069	-0.000036
C32	C	0.351724	-0.873081	-0.000038
C33	C	0.274122	-0.822560	-0.000011
C34	C	0.198852	-0.903028	0.000012
C35	C	0.201185	-1.034017	0.000009
C36	C	0.045989	-0.932976	0.000058
C37	C	0.048311	-1.063965	0.000049
C38	C	-0.031613	-0.882455	0.000085
C39	C	-0.106885	-0.962924	0.000098
C40	C	-0.104557	-1.093919	0.000097
C41	C	-0.026958	-1.144433	0.000072
C42	C	0.010415	-1.654303	0.653347
C43	C	-0.046172	-1.739687	0.576669
C44	C	-0.046175	-1.739672	0.423335
C45	C	0.010417	-1.654267	0.346677
C46	C	0.067003	-1.568883	0.423355
C47	C	0.066998	-1.568904	0.576692
C48	C	0.180173	-1.398100	0.423378
C49	C	0.180173	-1.398107	0.576711
C50	C	0.236765	-1.312695	0.346719
C51	C	0.293349	-1.227302	0.423398
C52	C	0.293348	-1.227320	0.576740
C53	C	0.236760	-1.312723	0.653390
N54	N	0.123582	-1.483512	0.653370
H55	H	-0.306045	-1.264329	0.000141
H56	H	-0.025055	-1.251088	0.000055
H57	H	0.010418	-1.654271	0.221824
H58	H	0.272236	-0.715901	0.000006
H59	H	-0.419810	-1.371845	-0.221585
C60	C	-0.325774	-1.613034	-0.257215
N61	N	-0.304985	-1.665040	-0.360555
H62	H	-0.165851	-1.159430	0.000122
H63	H	-0.092247	-1.809226	0.639097
H64	H	-0.419856	-1.371804	0.221677
H65	H	0.280679	-1.191193	-0.000044
H66	H	0.339425	-1.157777	0.360973
C67	C	0.439407	-1.059652	-0.000064
N68	N	0.503699	-1.101515	-0.000084
C69	C	-0.325990	-1.612988	0.257586
N70	N	-0.305347	-1.664981	0.361030
C71	C	0.010409	-1.654321	0.822018
N72	N	0.010404	-1.654340	0.949063
H73	H	0.236752	-1.312740	0.778242
C74	C	-0.192238	-0.907341	0.000131
N75	N	-0.256527	-0.865471	0.000152
C76	C	-0.108422	-1.833598	0.338987
N77	N	-0.155308	-1.904341	0.275456
H78	H	0.339431	-1.157794	0.639164
C79	C	-0.458053	-1.738049	0.000211
N80	N	-0.491212	-1.840286	0.000295
H81	H	0.413015	-0.807563	-0.000046
H82	H	-0.033501	-0.775797	0.000092
C83	C	0.236759	-1.312680	0.178048
N84	N	0.236754	-1.312663	0.051003
