data_functionalizedCrystal
_audit_creation_method	'MofGen! by Chris Wilmer'
_symmetry_space_group_name_H-M	'P1'
_symmetry_Int_Tables_number	1
_symmetry_cell_setting	triclinic
loop_
_symmetry_equiv_pos_as_xyz
  x,y,z
_cell_length_a	14.971482
_cell_length_b	11.792241
_cell_length_c	14.048226
_cell_angle_alpha	89.993434
_cell_angle_beta	89.994098
_cell_angle_gamma	83.903012
loop_
_atom_site_label
_atom_site_type_symbol
_atom_site_fract_x
_atom_site_fract_y
_atom_site_fract_z
O1	O	1.187542	0.147889	-0.079149
O2	O	1.687542	0.647889	0.420851
O3	O	0.927212	0.165606	-0.079153
O4	O	1.427212	0.665606	0.420847
O5	O	1.063694	-0.008464	-0.079144
O6	O	1.563694	0.491536	0.420856
O7	O	1.051059	0.321959	-0.079158
O8	O	1.551059	0.821959	0.420842
O9	O	1.063678	-0.008474	0.079177
O10	O	1.563678	0.491526	0.579177
O11	O	0.927195	0.165596	0.079168
O12	O	1.427195	0.665596	0.579168
O13	O	1.187525	0.147879	0.079173
O14	O	1.687525	0.647879	0.579173
Zn15	Zn	1.057358	0.156736	0.104307
Zn16	Zn	1.557358	0.656736	0.604307
Zn17	Zn	1.057379	0.156749	-0.104288
Zn18	Zn	1.557379	0.656749	0.395712
O19	O	1.051043	0.321949	0.079164
O20	O	1.551043	0.821949	0.579164
C21	C	0.893876	0.164809	0.000007
C22	C	1.393876	0.664809	0.500007
C23	C	0.794569	0.162437	0.000005
C24	C	1.294569	0.662437	0.500005
C25	C	0.747911	0.161314	0.086307
C26	C	1.247911	0.661314	0.586307
C27	C	0.654603	0.159067	0.086308
C28	C	1.154603	0.659067	0.586308
C29	C	0.607955	0.157951	0.000006
C30	C	1.107955	0.657951	0.500006
C31	C	0.654620	0.159071	-0.086302
C32	C	1.154620	0.659071	0.413698
C33	C	0.747927	0.161310	-0.086302
C34	C	1.247927	0.661310	0.413698
C35	C	0.460139	0.154407	-0.086296
C36	C	0.960139	0.654407	0.413704
C37	C	0.366826	0.152170	-0.086296
C38	C	0.866826	0.652170	0.413704
C39	C	0.366816	0.152165	0.086315
C40	C	0.866816	0.652165	0.586315
C41	C	0.460123	0.154404	0.086315
C42	C	0.960123	0.654404	0.586315
C43	C	0.506781	0.155525	0.000006
C44	C	1.006781	0.655525	0.500006
C45	C	1.062892	-0.050755	0.000016
C46	C	1.562892	0.449245	0.500016
C47	C	1.060517	-0.176753	0.000015
C48	C	1.560517	0.323247	0.500015
C49	C	1.056149	-0.407437	-0.000001
C50	C	1.556149	0.092563	0.499999
C51	C	1.058576	-0.279068	0.000008
C52	C	1.558576	0.220932	0.500008
C53	C	1.220861	0.148675	0.000010
C54	C	1.720861	0.648675	0.500010
C55	C	1.320168	0.151048	0.000006
C56	C	1.820168	0.651048	0.500006
C57	C	1.051845	0.364240	0.000001
C58	C	1.551845	0.864240	0.500001
C59	C	1.054220	0.490238	-0.000004
C60	C	1.554220	0.990238	0.499996
N61	N	1.057349	0.156726	0.246668
N62	N	1.557349	0.656726	0.746668
N63	N	1.057395	0.156750	-0.246649
N64	N	1.557395	0.656750	0.253351
C65	C	1.117803	0.079679	0.296490
C66	C	1.617803	0.579679	0.796490
C67	C	1.117809	0.079679	0.396148
C68	C	1.617809	0.579679	0.896148
C69	C	1.057365	0.156731	0.445981
C70	C	1.557365	0.656731	0.945981
C71	C	0.996905	0.233781	0.396152
C72	C	1.496905	0.733781	0.896152
C73	C	0.996895	0.233775	0.296497
C74	C	1.496895	0.733775	0.796497
C75	C	0.996931	0.233789	0.603867
C76	C	1.496931	0.733789	1.103867
C77	C	0.996941	0.233796	0.703529
C78	C	1.496941	0.733796	1.203529
C79	C	1.117844	0.079693	0.703518
C80	C	1.617844	0.579693	1.203518
C81	C	1.117835	0.079687	0.603862
C82	C	1.617835	0.579687	1.103862
C83	C	1.057376	0.156739	0.554040
C84	C	1.557376	0.656739	1.054040
H85	H	0.498126	0.155321	-0.156578
H86	H	0.998126	0.655321	0.343422
H87	H	0.947667	0.296512	0.255932
H88	H	1.447667	0.796512	0.755932
H89	H	0.947695	0.296529	0.563305
H90	H	1.447695	0.796529	1.063305
H91	H	0.947686	0.296514	0.436733
H92	H	1.447686	0.796514	0.936733
H93	H	0.328823	0.151252	0.156591
H94	H	0.828823	0.651252	0.656591
O95	O	0.793202	0.162194	0.170167
O96	O	1.293202	0.662194	0.670167
C97	C	0.780037	0.063434	0.222681
C98	C	1.280037	0.563434	0.722681
H99	H	0.761143	-0.005827	0.172185
H100	H	1.261143	0.494173	0.672185
H101	H	0.844637	0.031933	0.261830
H102	H	1.344637	0.531933	0.761830
H103	H	0.723687	0.084336	0.276493
H104	H	1.223687	0.584336	0.776493
H105	H	0.616620	0.158134	0.156584
H106	H	1.116620	0.658134	0.656584
H107	H	0.616632	0.158154	-0.156571
H108	H	1.116632	0.658154	0.343429
O109	O	0.793109	0.162456	-0.170221
O110	O	1.293109	0.662456	0.329779
C111	C	0.731933	0.160966	-0.246395
C112	C	1.231933	0.660966	0.253605
H113	H	0.661887	0.195272	-0.221095
H114	H	1.161887	0.695272	0.278905
H115	H	0.753483	0.216679	-0.306757
H116	H	1.253483	0.716679	0.193243
H117	H	0.730961	0.069746	-0.272929
H118	H	1.230961	0.569746	0.227071
H119	H	0.947721	0.296539	0.744099
H120	H	1.447721	0.796539	1.244099
O121	O	1.176630	0.004806	0.444397
O122	O	1.676630	0.504806	0.944397
C123	C	1.229970	-0.063210	0.379043
C124	C	1.729970	0.436790	0.879043
H125	H	1.231184	-0.016678	0.307997
H126	H	1.731184	0.483322	0.807997
H127	H	1.301321	-0.080353	0.407819
H128	H	1.801321	0.419647	0.907819
H129	H	1.200538	-0.147599	0.368467
H130	H	1.700538	0.352401	0.868467
O131	O	0.505305	0.155438	0.170232
O132	O	1.005305	0.655438	0.670232
C133	C	0.444115	0.153995	0.246411
C134	C	0.944115	0.653995	0.746411
H135	H	0.381135	0.116495	0.221118
H136	H	0.881135	0.616495	0.721118
H137	H	0.476489	0.099581	0.306772
H138	H	0.976489	0.599581	0.806772
H139	H	0.425243	0.244741	0.272942
H140	H	0.925243	0.744741	0.772942
H141	H	0.328847	0.151263	-0.156571
H142	H	0.828847	0.651263	0.343429
O143	O	1.176538	0.004686	0.751802
O144	O	1.676538	0.504686	1.251802
C145	C	1.161452	-0.107704	0.727483
C146	C	1.661452	0.392296	1.227483
H147	H	1.126966	-0.107640	0.655136
H148	H	1.626966	0.392360	1.155136
H149	H	1.228419	-0.163449	0.724060
H150	H	1.728419	0.336551	1.224060
H151	H	1.116775	-0.142905	0.783586
H152	H	1.616775	0.357095	1.283586
H153	H	1.167057	0.016951	0.563287
H154	H	1.667057	0.516951	1.063287
H155	H	1.167027	0.016940	0.255922
H156	H	1.667027	0.516940	0.755922
