data_functionalizedCrystal
_audit_creation_method	'MofGen! by Chris Wilmer'
_symmetry_space_group_name_H-M	'P1'
_symmetry_Int_Tables_number	1
_symmetry_cell_setting	triclinic
loop_
_symmetry_equiv_pos_as_xyz
  x,y,z
_cell_length_a	23.532407
_cell_length_b	14.853559
_cell_length_c	13.330367
_cell_angle_alpha	90.000206
_cell_angle_beta	89.995007
_cell_angle_gamma	96.759900
loop_
_atom_site_label
_atom_site_type_symbol
_atom_site_fract_x
_atom_site_fract_y
_atom_site_fract_z
O1	O	0.755738	-0.109436	-0.083356
O2	O	1.255738	0.390564	0.416644
O3	O	0.589943	-0.125270	-0.083371
O4	O	1.089943	0.374730	0.416629
O5	O	0.677272	0.013926	-0.083362
O6	O	1.177272	0.513926	0.416638
O7	O	0.668409	-0.248632	-0.083365
O8	O	1.168409	0.251368	0.416635
O9	O	0.677258	0.013923	0.083485
O10	O	1.177258	0.513923	0.583485
O11	O	0.589930	-0.125273	0.083476
O12	O	1.089930	0.374727	0.583476
O13	O	0.755725	-0.109439	0.083491
O14	O	1.255725	0.390561	0.583491
Cu15	Cu	0.672826	-0.117356	0.098718
Cu16	Cu	1.172826	0.382644	0.598718
Cu17	Cu	0.672842	-0.117353	-0.098598
Cu18	Cu	1.172842	0.382647	0.401402
O19	O	0.668396	-0.248635	0.083482
O20	O	1.168396	0.251365	0.583482
C21	C	0.568719	-0.124869	0.000051
C22	C	1.068719	0.375131	0.500051
C23	C	0.505497	-0.123656	0.000045
C24	C	1.005497	0.376344	0.500045
C25	C	0.238949	-0.036283	0.000073
C26	C	0.738949	0.463717	0.500073
C27	C	0.298355	-0.037410	0.000073
C28	C	0.798355	0.462590	0.500073
O29	O	0.334798	0.031902	0.000108
O30	O	0.834798	0.531902	0.500108
N31	N	0.321340	-0.120162	0.000065
N32	N	0.821340	0.379838	0.500065
C33	C	0.284918	-0.201793	0.000068
C34	C	0.784918	0.298207	0.500068
O35	O	0.309924	-0.272283	0.000062
O36	O	0.809924	0.227717	0.500062
C37	C	0.225514	-0.200666	0.000075
C38	C	0.725514	0.299334	0.500075
C39	C	0.202531	-0.117908	0.000073
C40	C	0.702531	0.382092	0.500073
C41	C	0.215967	0.046467	0.000072
C42	C	0.715967	0.546467	0.500072
C43	C	0.156566	0.047593	0.000070
C44	C	0.656566	0.547593	0.500070
C45	C	0.120147	-0.034032	0.000070
C46	C	0.620147	0.465968	0.500070
C47	C	0.143130	-0.116782	0.000071
C48	C	0.643130	0.383218	0.500071
C49	C	0.189092	-0.282296	0.000085
C50	C	0.689092	0.217704	0.500085
C51	C	0.129684	-0.281162	0.000093
C52	C	0.629684	0.218838	0.500093
C53	C	0.106702	-0.198404	0.000091
C54	C	0.606702	0.301596	0.500091
C55	C	0.047311	-0.197282	0.000069
C56	C	0.547311	0.302718	0.500069
N57	N	0.024325	-0.114529	0.000077
N58	N	0.524325	0.385471	0.500077
C59	C	0.060743	-0.032905	0.000077
C60	C	0.560743	0.467095	0.500077
C61	C	0.409670	-0.204154	0.000054
C62	C	0.909670	0.295846	0.500054
C63	C	0.469073	-0.205282	0.000039
C64	C	0.969073	0.294718	0.500039
C65	C	0.482506	-0.040898	0.000046
C66	C	0.982506	0.459102	0.500046
C67	C	0.423102	-0.039771	0.000053
C68	C	0.923102	0.460229	0.500053
C69	C	0.386685	-0.121402	0.000061
C70	C	0.886685	0.378598	0.500061
C71	C	-0.064004	-0.030547	0.000073
C72	C	0.435996	0.469453	0.500073
C73	C	-0.123411	-0.029428	0.000067
C74	C	0.376589	0.470572	0.500067
C75	C	-0.136838	-0.193811	0.000066
C76	C	0.363162	0.306189	0.500066
C77	C	-0.077437	-0.194930	0.000066
C78	C	0.422563	0.305070	0.500066
C79	C	-0.041020	-0.113291	0.000073
C80	C	0.458980	0.386709	0.500073
O81	O	0.010833	-0.266557	0.000038
O82	O	0.510833	0.233443	0.500038
O83	O	0.035729	0.037574	0.000096
O84	O	0.535729	0.537574	0.500096
C85	C	0.676864	0.047509	0.000060
C86	C	1.176864	0.547509	0.500060
C87	C	0.675664	0.147580	0.000054
C88	C	1.175664	0.647580	0.500054
C89	C	0.776949	-0.109840	0.000068
C90	C	1.276949	0.390160	0.500068
C91	C	0.840171	-0.111053	0.000067
C92	C	1.340171	0.388947	0.500067
C93	C	0.668803	-0.282218	0.000058
C94	C	1.168803	0.217782	0.500058
C95	C	0.670004	-0.382289	0.000058
C96	C	1.170004	0.117711	0.500058
C97	C	0.670577	0.570701	-0.090895
C98	C	1.170577	1.070701	0.409105
C99	C	0.670563	0.570692	0.091008
C100	C	1.170563	1.070692	0.591008
C101	C	0.671695	0.476671	0.091009
C102	C	1.171695	0.976671	0.591009
C103	C	0.672268	0.429660	0.000057
C104	C	1.172268	0.929660	0.500057
C105	C	0.671708	0.476671	-0.090897
C106	C	1.171708	0.976671	0.409103
C107	C	0.672250	0.429653	0.181961
C108	C	1.172250	0.929653	0.681961
C109	C	0.673382	0.335626	0.181966
C110	C	1.173382	0.835626	0.681966
C111	C	0.673959	0.288614	0.091012
C112	C	1.173959	0.788614	0.591012
C113	C	0.673400	0.335630	0.000055
C114	C	1.173400	0.835630	0.500055
C115	C	0.673972	0.288620	-0.090898
C116	C	1.173972	0.788620	0.409102
C117	C	0.673417	0.335635	-0.181856
C118	C	1.173417	0.835635	0.318144
C119	C	0.672285	0.429659	-0.181850
C120	C	1.172285	0.929659	0.318150
C121	C	0.675091	0.194590	0.091007
C122	C	1.175091	0.694590	0.591007
C123	C	0.675104	0.194590	-0.090899
C124	C	1.175104	0.694590	0.409101
N125	N	0.672819	-0.117358	0.237500
N126	N	1.172819	0.382642	0.737500
N127	N	0.672853	-0.117344	-0.237379
N128	N	1.172853	0.382656	0.262621
C129	C	0.638241	-0.062957	0.290022
C130	C	1.138241	0.437043	0.790022
C131	C	0.707404	-0.171755	0.290005
C132	C	1.207404	0.328245	0.790005
C133	C	0.707411	-0.171755	0.395024
C134	C	1.207411	0.328245	0.895024
C135	C	0.672833	-0.117353	0.447546
C136	C	1.172833	0.382647	0.947546
C137	C	0.638248	-0.062952	0.395050
C138	C	1.138248	0.437048	0.895050
C139	C	0.742000	-0.226148	0.447528
C140	C	1.242000	0.273852	0.947528
C141	C	0.742008	-0.226148	0.552552
C142	C	1.242008	0.273852	1.052552
C143	C	0.707426	-0.171751	0.605077
C144	C	1.207426	0.328249	1.105077
C145	C	0.672840	-0.117349	0.552574
C146	C	1.172840	0.382651	1.052574
C147	C	0.638261	-0.062947	0.605097
C148	C	1.138261	0.437053	1.105097
C149	C	0.603671	-0.008549	0.552596
C150	C	1.103671	0.491451	1.052596
C151	C	0.603666	-0.008555	0.447575
C152	C	1.103666	0.491445	0.947575
C153	C	0.707431	-0.171745	0.710098
C154	C	1.207431	0.328255	1.210098
C155	C	0.638268	-0.062943	0.710125
C156	C	1.138268	0.437057	1.210125
H157	H	0.512169	0.025565	0.000046
H158	H	1.012169	0.525565	0.500046
H159	H	0.670092	0.608973	0.165058
H160	H	1.170092	1.108973	0.665058
Cl161	Cl	0.669885	0.629803	-0.205236
Cl162	Cl	1.169885	1.129803	0.294764
H163	H	0.673836	0.297354	0.256029
H164	H	1.173836	0.797354	0.756029
H165	H	-0.142119	0.037966	0.000063
H166	H	0.357881	0.537966	0.500063
H167	H	-0.034360	0.035932	0.000078
H168	H	0.465640	0.535932	0.500078
H169	H	0.735596	-0.216032	0.752839
H170	H	1.235596	0.283968	1.252839
Cl171	Cl	0.750875	-0.240136	0.223976
Cl172	Cl	1.250875	0.259864	0.723976
H173	H	0.137859	0.114983	0.000072
H174	H	0.637859	0.614983	0.500072
H175	H	0.404395	0.027617	0.000052
H176	H	0.904395	0.527617	0.500052
Cl177	Cl	0.261740	0.149096	0.000073
Cl178	Cl	0.761740	0.649096	0.500073
H179	H	0.487780	-0.272671	0.000027
H180	H	0.987780	0.227329	0.500027
Cl181	Cl	0.675788	0.135489	0.205344
Cl182	Cl	1.175788	0.635489	0.705344
H183	H	0.675573	0.156321	-0.164965
H184	H	1.175573	0.656321	0.335035
H185	H	0.671780	0.467935	0.256010
H186	H	1.171780	0.967935	0.756010
H187	H	0.380022	-0.270631	0.000053
H188	H	0.880022	0.229369	0.500053
Cl189	Cl	0.217969	-0.386341	0.000089
Cl190	Cl	0.717969	0.113659	0.500089
Cl191	Cl	0.594793	0.005447	0.776144
Cl192	Cl	1.094793	0.505447	1.276144
Cl193	Cl	-0.048544	-0.298969	0.000056
Cl194	Cl	0.451456	0.201031	0.500056
H195	H	0.100035	-0.347637	0.000104
H196	H	0.600035	0.152363	0.500104
H197	H	0.673880	0.297346	-0.255909
H198	H	1.173880	0.797346	0.244091
H199	H	0.575520	0.035748	0.595374
H200	H	1.075520	0.535748	1.095374
H201	H	0.575506	0.035735	0.404819
H202	H	1.075506	0.535735	0.904819
H203	H	0.610077	-0.018670	0.247272
H204	H	1.110077	0.481330	0.747272
H205	H	0.770155	-0.270432	0.404756
H206	H	1.270155	0.229568	0.904756
H207	H	0.770173	-0.270443	0.595289
H208	H	1.270173	0.229557	1.095289
H209	H	0.671833	0.467947	-0.255904
H210	H	1.171833	0.967947	0.244096
Cl211	Cl	-0.182632	-0.296419	0.000061
Cl212	Cl	0.317368	0.203581	0.500061
