data_functionalizedCrystal
_audit_creation_method	'MofGen! by Chris Wilmer'
_symmetry_space_group_name_H-M	'P1'
_symmetry_Int_Tables_number	1
_symmetry_cell_setting	triclinic
loop_
_symmetry_equiv_pos_as_xyz
  x,y,z
_cell_length_a	29.839134
_cell_length_b	29.839131
_cell_length_c	29.839126
_cell_angle_alpha	89.970347
_cell_angle_beta	89.964260
_cell_angle_gamma	90.030088
loop_
_atom_site_label
_atom_site_type_symbol
_atom_site_fract_x
_atom_site_fract_y
_atom_site_fract_z
Zn1	Zn	0.686800	-0.178959	-0.254101
Zn2	Zn	0.686722	-0.254076	-0.178961
Zn3	Zn	0.611665	-0.178955	-0.178971
Zn4	Zn	0.611639	-0.254056	-0.254049
O5	O	0.649206	-0.216511	-0.216521
O6	O	0.749657	-0.188934	-0.244151
O7	O	0.676744	-0.244118	-0.116095
O8	O	0.621675	-0.116088	-0.188963
O9	O	0.749600	-0.244122	-0.188946
O10	O	0.676877	-0.116091	-0.244161
O11	O	0.621600	-0.188927	-0.116102
O12	O	0.548794	-0.188906	-0.188912
O13	O	0.621631	-0.244087	-0.316923
O14	O	0.548775	-0.244083	-0.244073
O15	O	0.676851	-0.188914	-0.316961
O16	O	0.676719	-0.316941	-0.188896
O17	O	0.621555	-0.316926	-0.244063
C18	C	0.532484	-0.216492	-0.216488
C19	C	0.482549	-0.216495	-0.216485
C20	C	0.649138	-0.333234	-0.216483
C21	C	0.649150	-0.383168	-0.216482
C22	C	0.172905	-0.245284	-0.245207
C23	C	-0.014768	-0.245297	-0.245227
O24	O	-0.039033	-0.269754	-0.269629
N25	N	-0.038236	-0.216528	-0.216554
C26	C	-0.014783	-0.187752	-0.187877
O27	O	-0.039050	-0.163279	-0.163492
C28	C	0.172890	-0.187737	-0.187859
C29	C	0.196355	-0.216511	-0.216531
C30	C	0.196371	-0.274056	-0.273877
C31	C	0.243287	-0.274054	-0.273870
C32	C	0.266736	-0.245281	-0.245193
C33	C	0.243271	-0.216509	-0.216524
C34	C	0.196342	-0.158959	-0.159184
C35	C	0.243263	-0.158957	-0.159183
C36	C	0.266728	-0.187731	-0.187855
C37	C	0.313636	-0.187734	-0.187840
N38	N	0.337104	-0.216504	-0.216513
C39	C	0.313654	-0.245277	-0.245189
C40	C	-0.113313	-0.187762	-0.187887
C41	C	-0.160231	-0.187766	-0.187891
C42	C	-0.160213	-0.245311	-0.245242
C43	C	-0.113294	-0.245309	-0.245236
C44	C	-0.089845	-0.216531	-0.216560
C45	C	0.412180	-0.245271	-0.245172
C46	C	0.459100	-0.245268	-0.245161
C47	C	0.459077	-0.187722	-0.187812
C48	C	0.412162	-0.187726	-0.187821
C49	C	0.388714	-0.216502	-0.216505
O50	O	0.337930	-0.163287	-0.163455
O51	O	0.337930	-0.269739	-0.269577
C52	C	0.125990	-0.245286	-0.245214
C53	C	0.102524	-0.216515	-0.216545
C54	C	0.125974	-0.187741	-0.187868
C55	C	0.055606	-0.216519	-0.216548
C56	C	0.032157	-0.245292	-0.245225
C57	C	0.055625	-0.274061	-0.273898
C58	C	0.102540	-0.274059	-0.273891
C59	C	0.102506	-0.158972	-0.159196
C60	C	0.055590	-0.158977	-0.159205
C61	C	0.032141	-0.187750	-0.187881
C62	C	0.677944	-0.692779	-0.245303
C63	C	0.677992	-0.880452	-0.245330
O64	O	0.702407	-0.904688	-0.269807
N65	N	0.649283	-0.903953	-0.216570
C66	C	0.620557	-0.880534	-0.187804
O67	O	0.596135	-0.904830	-0.163346
C68	C	0.620506	-0.692862	-0.187780
C69	C	0.649221	-0.669363	-0.216538
C70	C	0.706656	-0.669279	-0.274060
C71	C	0.706645	-0.622364	-0.274051
C72	C	0.677922	-0.598948	-0.245286
C73	C	0.649210	-0.622447	-0.216529
C74	C	0.591778	-0.669444	-0.159016
C75	C	0.591767	-0.622523	-0.159013
C76	C	0.620482	-0.599023	-0.187771
C77	C	0.620476	-0.552116	-0.187755
N78	N	0.649186	-0.528614	-0.216515
C79	C	0.677909	-0.552030	-0.245280
C80	C	0.620586	-0.979065	-0.187818
C81	C	0.620599	-1.025983	-0.187824
C82	C	0.678034	-1.025897	-0.245351
C83	C	0.678023	-0.978978	-0.245342
C84	C	0.649296	-0.955563	-0.216578
C85	C	0.677884	-0.453504	-0.245259
C86	C	0.677872	-0.406584	-0.245247
C87	C	0.620436	-0.406674	-0.187722
C88	C	0.620449	-0.453590	-0.187732
C89	C	0.649175	-0.477004	-0.216505
O90	O	0.596071	-0.527850	-0.163295
O91	O	0.702320	-0.527726	-0.269742
C92	C	0.677954	-0.739694	-0.245312
C93	C	0.649242	-0.763193	-0.216556
C94	C	0.620519	-0.739778	-0.187790
C95	C	0.649255	-0.810111	-0.216561
C96	C	0.677978	-0.833527	-0.245326
C97	C	0.706688	-0.810025	-0.274086
C98	C	0.706677	-0.763110	-0.274077
C99	C	0.591810	-0.763279	-0.159031
C100	C	0.591823	-0.810195	-0.159041
C101	C	0.620546	-0.833611	-0.187807
C102	C	0.766385	-0.216531	-0.216553
C103	C	0.816319	-0.216539	-0.216567
C104	C	0.649247	-0.216499	-0.333699
C105	C	0.649264	-0.216493	-0.383633
C106	C	0.649287	-0.099333	-0.216568
C107	C	0.649322	-0.049399	-0.216589
C108	C	0.677971	-0.245172	-0.740220
C109	C	0.677972	-0.245203	-0.552547
O110	O	0.702376	-0.269657	-0.528282
N111	N	0.649262	-0.216471	-0.529079
C112	C	0.620547	-0.187732	-0.552532
O113	O	0.596124	-0.163298	-0.528264
C114	C	0.620544	-0.187704	-0.740204
C115	C	0.649260	-0.216434	-0.763670
C116	C	0.706684	-0.273900	-0.763686
C117	C	0.706685	-0.273890	-0.810601
C118	C	0.677974	-0.245152	-0.834051
C119	C	0.649261	-0.216424	-0.810585
C120	C	0.591828	-0.158967	-0.763656
C121	C	0.591829	-0.158963	-0.810577
C122	C	0.620544	-0.187693	-0.834043
C123	C	0.620551	-0.187676	-0.880950
N124	N	0.649261	-0.216407	-0.904418
C125	C	0.677973	-0.245145	-0.880969
C126	C	0.620551	-0.187749	-0.454001
C127	C	0.620552	-0.187755	-0.407083
C128	C	0.677977	-0.245227	-0.407102
C129	C	0.677978	-0.245217	-0.454020
C130	C	0.649262	-0.216480	-0.477469
C131	C	0.677974	-0.245122	-0.979495
C132	C	0.677974	-0.245109	-1.026414
C133	C	0.620547	-0.187639	-1.026392
C134	C	0.620549	-0.187651	-0.979476
C135	C	0.649263	-0.216396	-0.956029
O136	O	0.596156	-0.163238	-0.905244
O137	O	0.702385	-0.269583	-0.905244
C138	C	0.677970	-0.245181	-0.693305
C139	C	0.649257	-0.216453	-0.669839
C140	C	0.620546	-0.187715	-0.693288
C141	C	0.649259	-0.216460	-0.622921
C142	C	0.677970	-0.245198	-0.599471
C143	C	0.706680	-0.273929	-0.622940
C144	C	0.706682	-0.273919	-0.669855
C145	C	0.591835	-0.158984	-0.669820
C146	C	0.591837	-0.158996	-0.622904
C147	C	0.620548	-0.187734	-0.599455
C148	C	0.649192	-0.216492	-0.099798
C149	C	0.649262	-0.216371	-0.049864
H150	H	0.478203	-0.268701	-0.268510
H151	H	0.730067	-0.297286	-0.829703
H152	H	0.701360	-0.268612	-0.473123
N153	N	0.126455	-0.129575	-0.129906
N154	N	0.121234	-0.088125	-0.132966
H155	H	0.138147	-0.067363	-0.112276
N156	N	0.707308	-0.274574	-0.383137
N157	N	0.707302	-0.274571	-0.341246
H158	H	0.728015	-0.295297	-0.324319
N159	N	0.591213	-0.158293	-1.050349
N160	N	0.549757	-0.161274	-1.045085
H161	H	0.529036	-0.140551	-1.062006
H162	H	0.730065	-0.297314	-0.688957
N163	N	0.736018	-0.739115	-0.303449
N164	N	0.777473	-0.744336	-0.300509
H165	H	0.798199	-0.727394	-0.321254
H166	H	0.036489	-0.135546	-0.135853
H167	H	0.701405	-0.959848	-0.268760
H168	H	0.568454	-0.135583	-0.688908
N169	N	0.707306	-0.274452	-1.050391
N170	N	0.735945	-0.258644	-1.076594
H171	H	0.756660	-0.279367	-1.093527
N172	N	0.707379	-1.049812	-0.274736
N173	N	0.748834	-1.044544	-0.271807
H174	H	0.769556	-1.061436	-0.292562
H175	H	0.597071	-0.472724	-0.164312
H176	H	0.393095	-0.268703	-0.268530
N177	N	0.031673	-0.303451	-0.303197
N178	N	0.052625	-0.329138	-0.328799
H179	H	0.035708	-0.349892	-0.349493
H180	H	0.262388	-0.297484	-0.297218
H181	H	0.730065	-0.297304	-0.744598
H182	H	0.177283	-0.297487	-0.297231
N183	N	0.172371	-0.129569	-0.129901
N184	N	0.146161	-0.145326	-0.101241
H185	H	0.129231	-0.124568	-0.080559
H186	H	0.597174	-0.164355	-0.387981
H187	H	0.121642	-0.297490	-0.297238
H188	H	0.730045	-0.688339	-0.297486
N189	N	-0.089327	-0.274705	-0.274518
N190	N	-0.094589	-0.316155	-0.271455
H191	H	-0.077663	-0.336918	-0.292137
N192	N	0.591273	-1.049977	-0.158437
N193	N	0.565632	-1.029058	-0.132757
H194	H	0.544918	-1.046003	-0.112002
N195	N	0.591232	-0.955154	-0.158438
N196	N	0.549779	-0.960435	-0.161376
H197	H	0.529047	-0.943551	-0.140625
H198	H	0.730060	-0.297327	-0.603839
N199	N	0.736028	-0.833956	-0.303463
N200	N	0.736030	-0.875847	-0.303461
H201	H	0.756750	-0.892750	-0.324208
H202	H	0.568454	-0.135596	-0.603803
H203	H	0.568441	-0.829324	-0.135619
H204	H	0.701359	-0.268526	-0.960410
N205	N	0.591212	-0.158390	-0.477943
N206	N	0.565583	-0.132742	-0.456978
H207	H	0.544862	-0.112006	-0.473885
H208	H	0.262352	-0.135519	-0.135834
N209	N	0.707215	-0.382585	-0.274618
N210	N	0.748671	-0.387804	-0.271679
H211	H	0.769395	-0.370858	-0.292422
H212	H	0.568396	-0.688569	-0.135597
N213	N	0.388183	-0.158343	-0.158531
N214	N	0.361971	-0.174107	-0.129877
H215	H	0.345038	-0.153353	-0.109193
N216	N	0.562416	-0.598612	-0.129630
N217	N	0.536782	-0.619604	-0.103958
H218	H	0.516053	-0.602718	-0.083206
H219	H	0.568444	-0.135573	-0.744558
H220	H	0.568444	-0.135561	-0.829666
N221	N	0.483044	-0.158331	-0.158530
N222	N	0.509251	-0.129731	-0.174399
H223	H	0.526180	-0.108971	-0.153721
H224	H	0.597172	-0.164251	-0.960369
N225	N	0.707228	-0.477409	-0.274653
N226	N	0.732860	-0.456414	-0.300324
H227	H	0.753586	-0.473296	-0.321082
H228	H	0.597051	-0.387602	-0.164300
H229	H	-0.179314	-0.268739	-0.268592
H230	H	0.568420	-0.744218	-0.135607
H231	H	-0.179333	-0.164340	-0.164539
N232	N	0.735979	-0.598370	-0.303431
N233	N	0.761619	-0.619291	-0.329110
H234	H	0.782337	-0.602348	-0.349862
H235	H	-0.094225	-0.164327	-0.164534
