data_functionalizedCrystal
_audit_creation_method	'MofGen! by Chris Wilmer'
_symmetry_space_group_name_H-M	'P1'
_symmetry_Int_Tables_number	1
_symmetry_cell_setting	triclinic
loop_
_symmetry_equiv_pos_as_xyz
  x,y,z
_cell_length_a	18.101398
_cell_length_b	18.101395
_cell_length_c	18.101389
_cell_angle_alpha	89.983159
_cell_angle_beta	90.009745
_cell_angle_gamma	89.973339
loop_
_atom_site_label
_atom_site_type_symbol
_atom_site_fract_x
_atom_site_fract_y
_atom_site_fract_z
Zn1	Zn	1.132121	0.294995	0.418559
Zn2	Zn	1.132017	0.418821	0.294721
Zn3	Zn	1.008280	0.294988	0.294751
Zn4	Zn	1.008231	0.418790	0.418541
O5	O	1.070162	0.356898	0.356643
O6	O	1.235740	0.311437	0.402126
O7	O	1.115580	0.402404	0.191092
O8	O	1.024772	0.191356	0.311195
O9	O	1.235663	0.402411	0.311143
O10	O	1.115757	0.191361	0.402156
O11	O	1.024671	0.311425	0.191114
O12	O	0.904640	0.311395	0.311178
O13	O	1.024688	0.402358	0.522176
O14	O	0.904604	0.402351	0.402125
O15	O	1.115710	0.311407	0.522189
O16	O	1.115532	0.522450	0.311125
O17	O	1.024587	0.522427	0.402095
C18	C	0.877751	0.356869	0.356653
C19	C	0.795437	0.356875	0.356675
C20	C	0.496346	0.356918	0.356644
C21	C	0.527674	0.414422	0.413583
C22	C	0.613292	0.414242	0.413817
C23	C	0.644729	0.356897	0.356660
C24	C	0.613675	0.278899	0.377985
C25	C	0.528029	0.279244	0.378390
C26	C	0.527894	0.376725	0.278242
C27	C	0.613544	0.378437	0.278661
C28	C	0.728588	0.356881	0.356667
C29	C	0.412487	0.356930	0.356639
C30	C	1.070063	0.549309	0.356621
C31	C	1.070088	0.631623	0.356637
C32	C	1.070205	0.356880	0.549805
C33	C	1.070223	0.356872	0.632119
C34	C	1.263324	0.356928	0.356633
C35	C	1.345638	0.356941	0.356629
C36	C	1.070282	0.163736	0.356681
C37	C	1.070333	0.081422	0.356697
C38	C	1.070251	0.930714	0.356676
C39	C	1.013163	0.899405	0.414054
C40	C	1.012892	0.813787	0.413875
C41	C	1.070170	0.782331	0.356657
C42	C	1.049041	0.813467	0.278611
C43	C	1.048673	0.899112	0.278955
C44	C	1.148592	0.899067	0.376658
C45	C	1.148132	0.813417	0.378369
C46	C	1.070126	0.698472	0.356642
C47	C	1.070293	1.014573	0.356687
C48	C	1.070162	0.356864	0.164232
C49	C	1.070287	0.356663	0.081919
C50	C	1.070266	0.356733	0.931210
C51	C	1.012801	0.413775	0.899877
C52	C	1.012956	0.414040	0.814258
C53	C	1.070244	0.356802	0.782827
C54	C	1.148270	0.377992	0.813914
C55	C	1.147949	0.378366	0.899559
C56	C	1.050385	0.278374	0.899637
C57	C	1.048649	0.278826	0.813987
C58	C	1.070236	0.356839	0.698968
C59	C	1.070279	0.356697	1.015070
H60	H	0.634944	0.339594	0.233959
H61	H	1.165415	0.434665	0.792469
O62	O	1.206513	0.324699	0.786937
H63	H	1.192549	0.268010	0.805672
O64	O	1.205008	0.925878	0.321376
H65	H	1.248367	0.957984	0.350490
H66	H	0.633794	0.401138	0.471908
H67	H	0.955448	0.920985	0.400987
O68	O	0.640475	0.454451	0.257356
H69	H	0.621214	0.495286	0.298840
O70	O	0.935924	0.396386	0.927152
H71	H	0.914245	0.444159	0.958894
O72	O	0.973986	0.785135	0.255785
H73	H	0.959662	0.807527	0.200516
H74	H	1.192915	0.792001	0.339623
O75	O	1.169249	0.786461	0.454450
H76	H	1.221150	0.753976	0.450922
O77	O	0.936323	0.396451	0.786407
H78	H	0.898817	0.387685	0.834111
H79	H	1.025796	0.471503	0.921400
H80	H	1.026082	0.472122	0.793774
O81	O	0.641107	0.490859	0.396117
H82	H	0.675060	0.511491	0.442816
H83	H	1.167856	0.920627	0.432598
O84	O	1.170262	0.454243	0.926035
H85	H	1.181176	0.490324	0.877668
H86	H	1.026111	0.792735	0.471746
O87	O	1.206595	0.325739	0.927026
H88	H	1.235063	0.300138	0.879134
H89	H	0.994478	0.259069	0.921237
O90	O	1.030225	0.926993	0.490895
H91	H	1.079610	0.963269	0.489024
H92	H	1.089313	0.793092	0.234695
O93	O	0.499258	0.450768	0.252556
H94	H	0.516426	0.494157	0.292319
O95	O	0.972597	0.257643	0.787065
H96	H	0.950266	0.302456	0.751636
H97	H	0.954823	0.793357	0.400641
H98	H	0.508068	0.262443	0.435705
H99	H	0.507635	0.334839	0.235817
O100	O	1.101360	0.926562	0.220402
H101	H	1.070638	0.960584	0.179650
H102	H	0.507058	0.472452	0.400367
O103	O	0.972817	0.925661	0.256540
H104	H	0.936741	0.877328	0.245560
O105	O	1.100046	0.219535	0.785659
H106	H	1.141976	0.244832	0.748768
O107	O	1.105819	0.222071	0.926479
H108	H	1.147331	0.249716	0.962134
O109	O	0.499197	0.397286	0.490093
H110	H	0.462830	0.347989	0.487742
H111	H	0.634039	0.234893	0.337807
O112	O	0.500558	0.220573	0.325860
H113	H	0.521201	0.165728	0.343957
O114	O	0.642124	0.256219	0.453067
H115	H	0.678368	0.300372	0.475317
