data_functionalizedCrystal
_audit_creation_method	'MofGen! by Chris Wilmer'
_symmetry_space_group_name_H-M	'P1'
_symmetry_Int_Tables_number	1
_symmetry_cell_setting	triclinic
loop_
_symmetry_equiv_pos_as_xyz
  x,y,z
_cell_length_a	15.944493
_cell_length_b	15.944493
_cell_length_c	14.421503
_cell_angle_alpha	90.010165
_cell_angle_beta	89.992936
_cell_angle_gamma	83.475044
loop_
_atom_site_label
_atom_site_type_symbol
_atom_site_fract_x
_atom_site_fract_y
_atom_site_fract_z
O1	O	1.114537	0.108091	-0.077087
O2	O	0.869978	0.121499	-0.077090
O3	O	0.998961	-0.007484	-0.077096
O4	O	0.985554	0.237075	-0.077081
O5	O	0.998940	-0.007465	0.077127
O6	O	0.869957	0.121518	0.077133
O7	O	1.114516	0.108111	0.077136
Cu8	Cu	0.992234	0.114816	0.091217
Cu9	Cu	0.992260	0.114793	-0.091170
O10	O	0.985532	0.237094	0.077142
C11	C	0.838673	0.120961	0.000021
C12	C	0.745424	0.119318	0.000019
C13	C	0.509649	0.195240	0.000023
C14	C	0.459088	0.154308	0.076065
C15	C	0.574704	0.116273	0.000021
C16	C	0.459114	0.154270	-0.075987
C17	C	0.409795	0.113339	0.000018
C18	C	0.525372	0.075362	0.076125
C19	C	0.525401	0.075336	-0.075995
C20	C	0.474873	0.034346	0.000065
C21	C	0.669704	0.117966	0.000023
C22	C	0.314798	0.111640	0.000023
C23	C	0.998403	-0.038769	0.000011
C24	C	0.996760	-0.132018	-0.000000
C25	C	1.072682	-0.367793	0.000018
C26	C	1.031751	-0.418362	-0.076022
C27	C	0.993716	-0.302738	0.000011
C28	C	1.031711	-0.418320	0.076030
C29	C	0.990781	-0.467647	0.000026
C30	C	0.952805	-0.352079	-0.076092
C31	C	0.952777	-0.352033	0.076029
C32	C	0.911788	-0.402569	-0.000030
C33	C	0.995408	-0.207739	0.000002
C34	C	0.989082	-0.562644	0.000029
C35	C	1.145821	0.108649	0.000023
C36	C	1.239069	0.110292	0.000019
C37	C	0.986091	0.268379	0.000033
C38	C	0.987734	0.361627	0.000038
N39	N	0.992223	0.114832	0.219498
N40	N	0.992278	0.114771	-0.219452
C41	C	0.932570	0.174447	0.469154
C42	C	1.008469	0.190739	0.530959
C43	C	0.992243	0.114812	0.408659
C44	C	0.916364	0.098539	0.530948
C45	C	0.992256	0.114794	0.591381
C46	C	1.068180	0.131141	0.469103
C47	C	0.976025	0.038909	0.469087
C48	C	1.051979	0.055169	0.530864
C49	C	0.992234	0.114824	0.303398
C50	C	0.992273	0.114781	0.696640
H51	H	0.554363	0.042005	-0.140289
H52	H	0.919448	-0.323057	0.140317
Cl53	Cl	0.414439	0.205768	-0.175229
H54	H	1.140702	-0.352179	-0.000057
Cl55	Cl	0.817284	0.077299	0.572892
Cl56	Cl	1.083208	-0.462983	0.175278
H57	H	1.065108	-0.447323	-0.140308
Cl58	Cl	1.129980	-0.022709	0.572443
H59	H	0.525258	0.263261	0.000099
H60	H	1.132369	0.144974	0.442052
H61	H	0.919485	-0.323260	-0.140447
Cl62	Cl	0.806691	-0.426430	-0.000092
Cl63	Cl	0.854739	0.252367	0.427314
Cl64	Cl	1.029668	0.289828	0.572920
Cl65	Cl	0.954791	-0.060152	0.427090
H66	H	0.430135	0.187664	0.140356
H67	H	0.554198	0.042042	0.140476
H68	H	0.459422	-0.033727	0.000104
