data_functionalizedCrystal
_audit_creation_method	'MofGen! by Chris Wilmer'
_symmetry_space_group_name_H-M	'P1'
_symmetry_Int_Tables_number	1
_symmetry_cell_setting	triclinic
loop_
_symmetry_equiv_pos_as_xyz
  x,y,z
_cell_length_a	6.817900
_cell_length_b	13.167930
_cell_length_c	14.125465
_cell_angle_alpha	100.455984
_cell_angle_beta	100.398878
_cell_angle_gamma	105.754568
loop_
_atom_site_label
_atom_site_type_symbol
_atom_site_fract_x
_atom_site_fract_y
_atom_site_fract_z
V1	V	-4.008991	-0.147929	-0.313183
O2	O	-3.978545	0.008060	-0.293547
O3	O	-3.978227	-0.294233	-0.324193
O4	O	-3.944811	-0.145236	-0.443772
O5	O	-4.012192	-0.141969	-0.173139
V6	V	-4.492378	-0.129320	-0.294835
O7	O	-4.270547	-0.188749	-0.353431
O8	O	-4.681020	-0.088500	-0.254587
O9	O	-4.299936	0.016984	-0.283825
O10	O	-4.640221	-0.285309	-0.314471
O11	O	-4.606574	-0.135281	-0.434879
O12	O	-4.333351	-0.132013	-0.164245
C13	C	-3.828029	-0.329912	-0.322646
C14	C	-3.884057	-0.449515	-0.332518
C15	C	-3.926093	-0.644076	-0.172142
C16	C	-3.978735	-0.756453	-0.181413
C17	C	-4.041999	-0.786647	-0.360331
C18	C	-3.989357	-0.674270	-0.351060
C19	C	-3.931401	-0.602988	-0.256962
C20	C	-3.878744	-0.490609	-0.247691
C21	C	-3.942023	-0.520805	-0.426609
C22	C	-3.994665	-0.633182	-0.435880
C23	C	-3.785403	-0.139850	-0.475180
C24	C	-3.814329	-0.138617	-0.582024
C25	C	-3.867349	-0.136355	-0.777645
C26	C	-4.053389	-0.140892	-0.830372
C27	C	-4.082892	-0.139634	-0.939222
C28	C	-3.837838	-0.137613	-0.668785
C29	C	-4.113477	0.052657	-0.285370
C30	C	-4.036686	0.172259	-0.275504
C31	C	-4.156103	-0.137403	-0.132833
C32	C	-4.106415	-0.138631	-0.025987
H33	H	-3.974410	-0.789902	-0.112343
H34	H	-4.089223	-0.844704	-0.436941
H35	H	-3.878876	-0.586036	-0.095523
H36	H	-4.041867	-0.691234	-0.512492
Cl37	Cl	-3.948690	-0.469146	-0.533246
Cl38	Cl	-3.655670	-0.128910	-0.834166
Cl39	Cl	-3.805880	-0.400999	-0.129398
Cl40	Cl	-4.265086	-0.148342	-0.773853
