data_functionalizedCrystal
_audit_creation_method	'MofGen! by Chris Wilmer'
_symmetry_space_group_name_H-M	'P1'
_symmetry_Int_Tables_number	1
_symmetry_cell_setting	triclinic
loop_
_symmetry_equiv_pos_as_xyz
  x,y,z
_cell_length_a	12.759401
_cell_length_b	12.759400
_cell_length_c	17.077396
_cell_angle_alpha	89.975532
_cell_angle_beta	89.982624
_cell_angle_gamma	90.012838
loop_
_atom_site_label
_atom_site_type_symbol
_atom_site_fract_x
_atom_site_fract_y
_atom_site_fract_z
Zn1	Zn	1.606245	-0.418275	-0.443820
Zn2	Zn	1.606150	-0.593976	-0.312563
Zn3	Zn	1.430553	-0.418311	-0.312573
Zn4	Zn	1.430540	-0.593912	-0.443792
O5	O	1.518372	-0.506119	-0.378187
O6	O	1.753253	-0.441595	-0.426416
O7	O	1.582823	-0.570715	-0.202718
O8	O	1.453904	-0.271285	-0.329999
O9	O	1.753184	-0.570681	-0.329983
O10	O	1.582984	-0.271259	-0.426426
O11	O	1.453813	-0.441655	-0.202725
O12	O	1.283531	-0.441592	-0.329972
O13	O	1.453882	-0.570572	-0.553642
O14	O	1.283521	-0.570606	-0.426377
O15	O	1.582971	-0.441533	-0.553663
O16	O	1.582810	-0.740989	-0.329955
O17	O	1.453790	-0.740941	-0.426368
C18	C	1.245405	-0.506097	-0.378173
C19	C	1.128628	-0.506113	-0.378186
C20	C	1.518317	-0.779086	-0.378175
C21	C	1.518390	-0.895863	-0.378196
C22	C	0.964007	-0.573247	-0.327919
C23	C	1.073731	-0.573226	-0.327905
C24	C	1.073796	-0.439009	-0.428477
C25	C	0.964074	-0.439026	-0.428486
C26	C	0.909115	-0.640372	-0.277641
C27	C	0.963940	-0.707474	-0.227349
C28	C	1.073664	-0.707453	-0.227335
C29	C	1.128563	-0.640329	-0.277614
C30	C	1.585568	-0.950631	-0.428446
C31	C	1.585617	-1.060355	-0.428465
C32	C	1.451306	-1.060532	-0.327977
C33	C	1.451253	-0.950810	-0.327962
C34	C	1.652705	-0.895684	-0.478680
C35	C	1.719889	-0.950453	-0.528934
C36	C	1.719938	-1.060177	-0.528953
C37	C	1.652802	-1.115132	-0.478718
C38	C	1.792405	-0.506141	-0.378202
C39	C	1.909182	-0.506151	-0.378208
C40	C	1.518436	-0.506041	-0.582931
C41	C	1.518463	-0.506008	-0.670181
C42	C	1.518456	-0.232085	-0.378217
C43	C	1.518492	-0.115309	-0.378229
C44	C	1.585682	-0.438812	-0.711183
C45	C	1.585695	-0.438777	-0.793164
C46	C	1.518493	-0.505944	-0.834141
C47	C	1.451266	-0.573144	-0.793133
C48	C	1.451249	-0.573173	-0.711154
C49	C	1.451308	-0.573080	-0.964003
C50	C	1.451326	-0.573053	-1.045988
C51	C	1.585754	-0.438685	-1.046013
C52	C	1.585737	-0.438714	-0.964034
C53	C	1.518511	-0.505915	-0.923032
C54	C	1.518369	-0.506120	-0.174239
C55	C	1.518546	-0.505857	-0.086990
H56	H	0.819772	-0.640398	-0.277648
H57	H	1.640465	-0.384026	-0.930673
O58	O	1.378743	-0.645649	-0.666930
H59	H	1.390011	-0.634377	-0.603041
O60	O	1.658175	-0.366369	-0.666994
H61	H	1.646882	-0.377684	-0.603100
H62	H	1.118504	-0.384361	-0.469412
O63	O	0.904737	-0.779865	-0.173117
H64	H	0.819229	-0.768615	-0.181577
O65	O	1.132802	-0.779814	-0.173090
H66	H	1.076195	-0.826493	-0.138135
H67	H	1.774543	-0.905703	-0.569838
H68	H	1.396549	-0.906217	-0.287044
H69	H	1.217908	-0.640310	-0.277593
H70	H	1.774635	-1.104767	-0.569878
O71	O	1.658201	-0.366308	-0.837391
H72	H	1.704939	-0.319619	-0.795125
O73	O	0.904929	-0.366666	-0.482728
H74	H	0.961530	-0.319999	-0.517697
O75	O	1.378828	-0.645486	-1.090180
H76	H	1.325414	-0.598427	-1.127531
H77	H	1.396648	-1.105285	-0.287077
O78	O	1.652650	-0.777339	-0.478657
H79	H	1.710614	-0.748330	-0.522031
H80	H	1.652835	-1.204477	-0.478747
O81	O	1.658256	-0.366190	-1.090230
H82	H	1.646969	-0.377440	-1.154119
H83	H	1.396549	-0.627786	-0.930621
O84	O	1.378772	-0.645582	-0.837326
H85	H	1.425782	-0.699035	-0.874670
