data_functionalizedCrystal
_audit_creation_method	'MofGen! by Chris Wilmer'
_symmetry_space_group_name_H-M	'P1'
_symmetry_Int_Tables_number	1
_symmetry_cell_setting	triclinic
loop_
_symmetry_equiv_pos_as_xyz
  x,y,z
_cell_length_a	13.635800
_cell_length_b	17.253917
_cell_length_c	9.582880
_cell_angle_alpha	83.284586
_cell_angle_beta	111.207034
_cell_angle_gamma	77.340689
loop_
_atom_site_label
_atom_site_type_symbol
_atom_site_fract_x
_atom_site_fract_y
_atom_site_fract_z
V1	V	2.060133	-0.110944	0.480761
O2	O	2.051100	0.005681	0.456994
O3	O	2.037399	-0.220320	0.491528
O4	O	2.055490	-0.109085	0.684024
O5	O	2.032884	-0.106325	0.263166
V6	V	2.299223	-0.097013	0.453027
O7	O	2.196623	-0.141504	0.541596
O8	O	2.387832	-0.066453	0.392191
O9	O	2.210354	0.012363	0.442259
O10	O	2.366955	-0.213638	0.476793
O11	O	2.385171	-0.101632	0.670622
O12	O	2.192264	-0.098873	0.249763
V13	V	2.560133	-0.110944	0.480761
O14	O	2.551100	0.005681	0.456994
O15	O	2.537399	-0.220320	0.491528
O16	O	2.555490	-0.109085	0.684024
O17	O	2.532884	-0.106325	0.263166
V18	V	2.799223	-0.097013	0.453027
O19	O	2.696623	-0.141504	0.541596
O20	O	2.887832	-0.066453	0.392191
O21	O	2.710354	0.012363	0.442259
O22	O	2.866955	-0.213638	0.476793
O23	O	2.885171	-0.101632	0.670622
O24	O	2.692264	-0.098873	0.249763
C25	C	1.959624	-0.246988	0.487571
C26	C	1.981810	-0.336403	0.497730
C27	C	1.958729	-0.367024	0.364003
C28	C	1.979585	-0.451039	0.373554
C29	C	2.023515	-0.504433	0.516831
C30	C	2.046600	-0.473807	0.650568
C31	C	2.025751	-0.389793	0.641017
C32	C	2.089470	-0.756920	0.560249
C33	C	2.110315	-0.840939	0.569790
C34	C	2.043301	-0.818165	0.292775
C35	C	2.022448	-0.734150	0.283236
C36	C	2.045540	-0.703532	0.416973
N37	N	2.044832	-0.590310	0.526597
N38	N	2.024231	-0.617656	0.407207
C39	C	1.982699	-0.105095	0.733116
C40	C	2.019554	-0.104299	0.899378
C41	C	2.119800	0.039027	0.446213
C42	C	2.087235	0.128441	0.436064
C43	C	2.096725	-0.102864	0.200663
C44	C	2.049489	-0.103657	0.034400
C45	C	2.459624	-0.246988	0.487571
C46	C	2.481810	-0.336403	0.497730
C47	C	2.482699	-0.105095	0.733116
C48	C	2.519554	-0.104299	0.899378
C49	C	2.619800	0.039027	0.446213
C50	C	2.587235	0.128441	0.436064
C51	C	2.596725	-0.102864	0.200663
C52	C	2.549489	-0.103657	0.034400
C53	C	2.584082	-0.382489	0.510500
C54	C	2.604948	-0.466506	0.520069
C55	C	2.523537	-0.504435	0.516856
C56	C	2.421257	-0.458343	0.504088
C57	C	2.400395	-0.374329	0.494531
C58	C	2.657456	0.174526	0.423298
C59	C	2.626863	0.258543	0.413737
C60	C	2.526051	0.296472	0.416953
C61	C	2.455824	0.250380	0.429716
C62	C	2.486414	0.166366	0.439266
H63	H	1.922949	-0.323555	0.247330
H64	H	2.429229	0.128848	0.449674
H65	H	2.354978	-0.489238	0.501474
C66	C	2.704129	0.309229	0.399716
C67	C	2.820062	0.290191	0.526398
C68	C	2.897330	0.340873	0.512382
C69	C	2.858666	0.410594	0.371682
C70	C	2.742727	0.429636	0.244990
C71	C	2.665459	0.378954	0.259007
H72	H	2.848689	0.238576	0.630561
H73	H	2.983155	0.326777	0.606168
H74	H	2.915864	0.448113	0.361306
H75	H	2.714100	0.481251	0.140827
H76	H	2.579634	0.393050	0.165220
H77	H	2.739547	0.143656	0.420678
H78	H	1.960792	-0.475966	0.264660
C79	C	2.546491	-0.596852	0.527353
C80	C	2.658992	-0.647537	0.541386
C81	C	2.681952	-0.739953	0.551877
C82	C	2.592411	-0.781684	0.548335
C83	C	2.479902	-0.730998	0.534302
C84	C	2.456943	-0.638582	0.523811
H85	H	2.725283	-0.616646	0.544009
H86	H	2.765239	-0.777474	0.562265
H87	H	2.609407	-0.850095	0.556101
H88	H	2.413612	-0.761889	0.531679
H89	H	2.373656	-0.601062	0.513422
C90	C	1.974152	-0.675445	0.125603
C91	C	2.036906	-0.681541	0.020312
C92	C	1.988616	-0.622847	-0.137335
C93	C	1.877572	-0.558059	-0.189690
C94	C	1.814811	-0.551961	-0.084397
C95	C	1.863101	-0.610654	0.073250
H96	H	2.119114	-0.729503	0.059066
H97	H	2.035077	-0.627362	-0.215280
H98	H	1.841825	-0.514611	-0.306390
H99	H	1.732603	-0.503998	-0.123152
H100	H	1.816641	-0.606139	0.151194
H101	H	2.501156	0.364882	0.409175
H102	H	2.146085	-0.884411	0.686470
C103	C	2.017913	-0.851847	0.145673
C104	C	2.110525	-0.910367	0.121758
C105	C	2.085140	-0.944049	-0.025350
C106	C	1.967143	-0.919211	-0.148543
C107	C	1.874523	-0.860689	-0.124631
C108	C	1.899908	-0.827007	0.022477
H109	H	2.197881	-0.928755	0.212956
H110	H	2.153705	-0.987371	-0.043051
H111	H	1.948352	-0.944145	-0.257442
H112	H	1.787168	-0.842300	-0.215829
H113	H	1.831344	-0.783685	0.040177
C114	C	2.094924	-0.532538	0.808177
C115	C	2.117853	-0.624950	0.818692
C116	C	2.166173	-0.683678	0.976305
C117	C	2.191564	-0.649994	1.123403
C118	C	2.168635	-0.557577	1.112893
C119	C	2.120315	-0.498849	0.955281
H120	H	2.099057	-0.649889	0.709796
H121	H	2.183147	-0.752092	0.984083
H122	H	2.227334	-0.693469	1.240077
H123	H	2.187431	-0.532638	1.221789
H124	H	2.103341	-0.430435	0.947502
H125	H	2.108261	-0.732001	0.669147
H126	H	2.044557	-0.364865	0.749912
H127	H	2.650382	-0.351618	0.513109
H128	H	2.688234	-0.504023	0.530459
H129	H	2.317111	-0.336811	0.484125
H130	H	2.373740	0.281275	0.432332
