data_functionalizedCrystal
_audit_creation_method	'MofGen! by Chris Wilmer'
_symmetry_space_group_name_H-M	'P1'
_symmetry_Int_Tables_number	1
_symmetry_cell_setting	triclinic
loop_
_symmetry_equiv_pos_as_xyz
  x,y,z
_cell_length_a	13.596369
_cell_length_b	16.992694
_cell_length_c	16.992695
_cell_angle_alpha	90.668223
_cell_angle_beta	89.993811
_cell_angle_gamma	90.000436
loop_
_atom_site_label
_atom_site_type_symbol
_atom_site_fract_x
_atom_site_fract_y
_atom_site_fract_z
O1	O	0.081669	-1.050851	-0.166918
O2	O	0.081698	-0.822451	-0.165087
O3	O	0.081676	-0.935736	-0.051802
O4	O	0.081691	-0.937567	-0.280202
O5	O	-0.081907	-0.935723	-0.051795
O6	O	-0.081885	-0.822439	-0.165080
O7	O	-0.081914	-1.050839	-0.166911
Zn8	Zn	-0.107872	-0.936637	-0.165994
Zn9	Zn	0.107656	-0.936653	-0.166003
O10	O	-0.081892	-0.937555	-0.280195
C11	C	-0.000090	-0.793085	-0.162727
C12	C	-0.000079	-0.705600	-0.155699
N13	N	-0.254964	-0.936632	-0.165988
C14	C	-0.000115	-0.933374	-0.022439
C15	C	-0.000114	-0.926345	0.065046
C16	C	-0.656254	-0.936652	-0.166004
C17	C	-0.544603	-0.936644	-0.166002
C18	C	-0.455613	-0.936642	-0.165997
C19	C	-0.343954	-0.936634	-0.165993
N20	N	0.254748	-0.936665	-0.166004
C21	C	-0.000124	-1.080205	-0.169270
C22	C	-0.000128	-1.167690	-0.176299
C23	C	-0.000075	-0.659610	-0.223517
C24	C	-0.000089	-0.577409	-0.216908
C25	C	-0.000100	-0.541201	-0.142480
C26	C	-0.000107	-0.587198	-0.074657
C27	C	-0.000100	-0.669397	-0.081267
C28	C	-0.000128	-0.295886	-0.115086
C29	C	-0.000132	-0.213681	-0.108481
C30	C	-0.000116	-0.203898	-0.250732
C31	C	-0.000104	-0.286099	-0.257335
C32	C	-0.000115	-0.332089	-0.189512
N33	N	-0.000111	-0.457178	-0.135723
N34	N	-0.000111	-0.416110	-0.196270
C35	C	-0.000098	-0.939917	-0.309559
C36	C	-0.000093	-0.946945	-0.397044
C37	C	-0.000124	-0.994163	0.111037
C38	C	-0.000114	-0.987554	0.193238
C39	C	-0.000101	-0.913127	0.229446
C40	C	-0.000088	-0.845303	0.183449
C41	C	-0.000091	-0.851913	0.101250
C42	C	-0.000084	-0.885732	0.474760
C43	C	-0.000084	-0.879127	0.556966
C44	C	-0.000107	-1.021379	0.566749
C45	C	-0.000116	-1.027982	0.484547
C46	C	-0.000098	-0.960159	0.438558
N47	N	-0.000093	-0.906369	0.313468
N48	N	-0.000099	-0.966917	0.354537
H49	H	-0.000085	-0.539966	-0.272133
N50	N	-0.000068	-0.798848	0.596022
H51	H	-0.000055	-0.756885	0.554415
H52	H	0.060574	-0.793021	0.629910
H53	H	-0.000127	-1.088589	0.455073
H54	H	-0.000083	-0.315574	-0.317942
H55	H	-0.000120	-1.076596	0.604202
N56	N	-0.000069	-0.812583	0.425163
H57	H	-0.000065	-0.764433	0.460576
H58	H	-0.060711	-0.812221	0.390850
N59	N	-0.000105	-0.154296	-0.323881
H60	H	-0.000112	-0.096729	-0.308403
H61	H	-0.060744	-0.166532	-0.356092
H62	H	-0.000139	-0.333322	-0.059859
H63	H	-0.000072	-0.784703	0.212936
N64	N	-0.000075	-0.778768	0.051641
H65	H	-0.000068	-0.730614	0.087050
H66	H	-0.060716	-0.778404	0.017327
H67	H	-0.000066	-0.689084	-0.284124
H68	H	-0.000129	-0.557710	-0.014056
N69	N	-0.000147	-0.174616	-0.028206
H70	H	0.060487	-0.191055	0.001743
H71	H	-0.060834	-0.191067	0.001676
N72	N	-0.000111	-0.719005	-0.008121
H73	H	-0.000118	-0.683596	0.040032
H74	H	0.060531	-0.753323	-0.007764
H75	H	-0.000140	-1.054770	0.081563
H76	H	-0.000123	-1.042779	0.230680
