data_functionalizedCrystal
_audit_creation_method	'MofGen! by Chris Wilmer'
_symmetry_space_group_name_H-M	'P1'
_symmetry_Int_Tables_number	1
_symmetry_cell_setting	triclinic
loop_
_symmetry_equiv_pos_as_xyz
  x,y,z
_cell_length_a	15.944551
_cell_length_b	15.944551
_cell_length_c	15.021413
_cell_angle_alpha	89.996935
_cell_angle_beta	90.002826
_cell_angle_gamma	83.498738
loop_
_atom_site_label
_atom_site_type_symbol
_atom_site_fract_x
_atom_site_fract_y
_atom_site_fract_z
O1	O	-1.114529	-0.108321	-0.073941
O2	O	-0.864529	0.141679	0.176059
O3	O	-0.614529	0.391679	0.426059
O4	O	-0.364529	0.641679	0.676059
O5	O	-0.869979	-0.121677	-0.073964
O6	O	-0.619979	0.128323	0.176036
O7	O	-0.369979	0.378323	0.426036
O8	O	-0.119979	0.628323	0.676036
O9	O	-0.998932	0.007276	-0.073944
O10	O	-0.748932	0.257276	0.176056
O11	O	-0.498932	0.507276	0.426056
O12	O	-0.248932	0.757276	0.676056
O13	O	-0.985576	-0.237274	-0.073961
O14	O	-0.735576	0.012726	0.176039
O15	O	-0.485576	0.262726	0.426039
O16	O	-0.235576	0.512726	0.676039
O17	O	-0.998912	0.007257	0.074121
O18	O	-0.748912	0.257257	0.324121
O19	O	-0.498912	0.507257	0.574121
O20	O	-0.248912	0.757257	0.824121
O21	O	-0.869959	-0.121695	0.074101
O22	O	-0.619959	0.128305	0.324101
O23	O	-0.369959	0.378305	0.574101
O24	O	-0.119959	0.628305	0.824101
O25	O	-1.114508	-0.108339	0.074123
O26	O	-0.864508	0.141661	0.324123
O27	O	-0.614508	0.391661	0.574123
O28	O	-0.364508	0.641661	0.824123
Zn29	Zn	-0.992230	-0.115020	0.097620
Zn30	Zn	-0.742230	0.134980	0.347620
Zn31	Zn	-0.492230	0.384980	0.597620
Zn32	Zn	-0.242230	0.634980	0.847620
Zn33	Zn	-0.992257	-0.114996	-0.097461
Zn34	Zn	-0.742257	0.135004	0.152539
Zn35	Zn	-0.492257	0.385004	0.402539
Zn36	Zn	-0.242257	0.635004	0.652539
O37	O	-0.985555	-0.237292	0.074103
O38	O	-0.735555	0.012708	0.324103
O39	O	-0.485555	0.262708	0.574103
O40	O	-0.235555	0.512708	0.824103
C41	C	-0.838675	-0.121132	0.000066
C42	C	-0.588675	0.128868	0.250066
C43	C	-0.338675	0.378868	0.500066
C44	C	-0.088675	0.628868	0.750066
C45	C	-0.745429	-0.119470	0.000057
C46	C	-0.495429	0.130530	0.250057
C47	C	-0.245429	0.380530	0.500057
C48	C	0.004571	0.630530	0.750057
C49	C	-1.145813	-0.108885	0.000092
C50	C	-0.895813	0.141115	0.250092
C51	C	-0.645813	0.391115	0.500092
C52	C	-0.395813	0.641115	0.750092
C53	C	-1.239059	-0.110547	0.000094
C54	C	-0.989059	0.139453	0.250094
C55	C	-0.739059	0.389453	0.500094
C56	C	-0.489059	0.639453	0.750094
C57	C	-0.998367	0.038561	0.000089
C58	C	-0.748367	0.288561	0.250089
C59	C	-0.498367	0.538561	0.500089
C60	C	-0.248367	0.788561	0.750089
C61	C	-0.996705	0.131807	0.000089
C62	C	-0.746705	0.381807	0.250089
C63	C	-0.496705	0.631807	0.500089
C64	C	-0.246705	0.881807	0.750089
C65	C	-0.530572	-0.035565	0.000081
C66	C	-0.280572	0.214435	0.250081
C67	C	-0.030572	0.464435	0.500081
C68	C	0.219428	0.714435	0.750081
C69	C	-0.469562	-0.074518	-0.072926
C70	C	-0.219562	0.175482	0.177074
C71	C	0.030438	0.425482	0.427074
C72	C	0.280438	0.675482	0.677074
C73	C	-0.574703	-0.116462	0.000068
C74	C	-0.324703	0.133538	0.250068
C75	C	-0.074703	0.383538	0.500068
C76	C	0.175297	0.633538	0.750068
C77	C	-0.469564	-0.074556	0.073054
C78	C	-0.219564	0.175444	0.323054
C79	C	0.030436	0.425444	0.573054
C80	C	0.280436	0.675444	0.823054
C81	C	-0.409790	-0.113551	0.000083
C82	C	-0.159790	0.136449	0.250083
C83	C	0.090210	0.386449	0.500083
C84	C	0.340210	0.636449	0.750083
C85	C	-0.514921	-0.155438	-0.072998
C86	C	-0.264921	0.094562	0.177002
C87	C	-0.014921	0.344562	0.427002
C88	C	0.235079	0.594562	0.677002
C89	C	-0.514930	-0.155464	0.073047
C90	C	-0.264930	0.094536	0.323047
C91	C	-0.014930	0.344536	0.573047
C92	C	0.235070	0.594536	0.823047
C93	C	-0.453937	-0.194476	0.000023
C94	C	-0.203937	0.055524	0.250023
C95	C	0.046063	0.305524	0.500023
C96	C	0.296063	0.555524	0.750023
C97	C	-0.669705	-0.118137	0.000059
C98	C	-0.419705	0.131863	0.250059
C99	C	-0.169705	0.381863	0.500059
C100	C	0.080295	0.631863	0.750059
C101	C	-0.314789	-0.111883	0.000085
C102	C	-0.064789	0.138117	0.250085
C103	C	0.185211	0.388117	0.500085
C104	C	0.435211	0.638117	0.750085
C105	C	-0.986120	-0.268577	0.000069
C106	C	-0.736120	-0.018577	0.250069
C107	C	-0.486120	0.231423	0.500069
C108	C	-0.236120	0.481423	0.750069
C109	C	-0.987782	-0.361823	0.000063
C110	C	-0.737782	-0.111823	0.250063
C111	C	-0.487782	0.138177	0.500063
C112	C	-0.237782	0.388177	0.750063
N113	N	-0.992218	-0.115036	0.230758
N114	N	-0.742218	0.134964	0.480758
N115	N	-0.492218	0.384964	0.730758
N116	N	-0.242218	0.634964	0.980758
C117	C	-0.912801	0.346663	0.000069
C118	C	-0.662801	0.596663	0.250069
C119	C	-0.412801	0.846663	0.500069
C120	C	-0.162801	1.096663	0.750069
C121	C	-0.951753	0.407672	0.073077
C122	C	-0.701753	0.657672	0.323077
C123	C	-0.451753	0.907672	0.573077
C124	C	-0.201753	1.157672	0.823077
C125	C	-0.993698	0.302533	0.000082
C126	C	-0.743698	0.552533	0.250082
C127	C	-0.493698	0.802533	0.500082
C128	C	-0.243698	1.052533	0.750082
C129	C	-0.951792	0.407673	-0.072903
C130	C	-0.701792	0.657673	0.177097
C131	C	-0.451792	0.907673	0.427097
C132	C	-0.201792	1.157673	0.677097
C133	C	-0.990787	0.467445	0.000071
C134	C	-0.740787	0.717445	0.250071
C135	C	-0.490787	0.967445	0.500071
C136	C	-0.240787	1.217445	0.750071
C137	C	-1.032672	0.362313	0.073150
C138	C	-0.782672	0.612313	0.323150
C139	C	-0.532672	0.862313	0.573150
C140	C	-0.282672	1.112313	0.823150
C141	C	-1.032700	0.362308	-0.072895
C142	C	-0.782700	0.612308	0.177105
C143	C	-0.532700	0.862308	0.427105
C144	C	-0.282700	1.112308	0.677105
C145	C	-1.071711	0.423298	0.000131
C146	C	-0.821711	0.673298	0.250131
C147	C	-0.571711	0.923298	0.500131
C148	C	-0.321711	1.173298	0.750131
C149	C	-0.995372	0.207530	0.000089
C150	C	-0.745372	0.457530	0.250089
C151	C	-0.495372	0.707530	0.500089
C152	C	-0.245372	0.957530	0.750089
C153	C	-0.989119	0.562446	0.000070
C154	C	-0.739119	0.812446	0.250070
C155	C	-0.489119	1.062446	0.500070
C156	C	-0.239119	1.312446	0.750070
N157	N	-0.992276	-0.114973	-0.230598
N158	N	-0.742276	0.135027	0.019402
N159	N	-0.492276	0.385027	0.269402
N160	N	-0.242276	0.635027	0.519402
C161	C	-0.932581	-0.174636	0.470432
C162	C	-0.682581	0.075364	0.720432
C163	C	-0.432581	0.325364	0.970432
C164	C	-0.182581	0.575364	1.220432
C165	C	-1.008481	-0.190943	0.529772
C166	C	-0.758481	0.059057	0.779772
C167	C	-0.508481	0.309057	1.029772
C168	C	-0.258481	0.559057	1.279772
C169	C	-0.992239	-0.115015	0.412365
C170	C	-0.742239	0.134985	0.662365
C171	C	-0.492239	0.384985	0.912365
C172	C	-0.242239	0.634985	1.162365
C173	C	-0.916360	-0.098727	0.529766
C174	C	-0.666360	0.151273	0.779766
C175	C	-0.416360	0.401273	1.029766
C176	C	-0.166360	0.651273	1.279766
C177	C	-0.992253	-0.114997	0.587789
C178	C	-0.742253	0.135003	0.837789
C179	C	-0.492253	0.385003	1.087789
C180	C	-0.242253	0.635003	1.337789
C181	C	-1.068178	-0.131360	0.470398
C182	C	-0.818178	0.118640	0.720398
C183	C	-0.568178	0.368640	0.970398
C184	C	-0.318178	0.618640	1.220398
C185	C	-0.976006	-0.039111	0.470387
C186	C	-0.726006	0.210889	0.720387
C187	C	-0.476006	0.460889	0.970387
C188	C	-0.226006	0.710889	1.220387
C189	C	-1.051962	-0.055386	0.529701
C190	C	-0.801962	0.194614	0.779701
C191	C	-0.551962	0.444614	1.029701
C192	C	-0.301962	0.694614	1.279701
C193	C	-0.992230	-0.115028	0.311307
C194	C	-0.742230	0.134972	0.561307
C195	C	-0.492230	0.384972	0.811307
C196	C	-0.242230	0.634972	1.061307
C197	C	-0.992271	-0.114984	0.688844
C198	C	-0.742271	0.135016	0.938844
C199	C	-0.492271	0.385016	1.188844
C200	C	-0.242271	0.635016	1.438844
H201	H	-0.563905	0.031573	-0.000005
H202	H	-0.313905	0.281573	0.249995
H203	H	-0.063905	0.531573	0.499995
H204	H	0.186095	0.781573	0.749995
H205	H	-0.449461	-0.040295	-0.134642
H206	H	-0.199461	0.209705	0.115358
H207	H	0.050539	0.459705	0.365358
H208	H	0.300539	0.709705	0.615358
H209	H	-0.917574	0.427758	-0.134630
H210	H	-0.667574	0.677758	0.115370
H211	H	-0.417574	0.927758	0.365370
H212	H	-0.167574	1.177758	0.615370
H213	H	-0.882181	-0.225096	0.444409
H214	H	-0.632181	0.024904	0.694409
H215	H	-0.382181	0.274904	0.944409
H216	H	-0.132181	0.524904	1.194409
H217	H	-0.534918	-0.189621	-0.134787
H218	H	-0.284918	0.060379	0.115213
H219	H	-0.034918	0.310379	0.365213
H220	H	0.215082	0.560379	0.615213
H221	H	-1.066851	0.342314	0.134941
H222	H	-0.816851	0.592314	0.384941
H223	H	-0.566851	0.842314	0.634941
H224	H	-0.316851	1.092314	0.884941
H225	H	-1.022224	-0.255126	0.555856
H226	H	-0.772224	-0.005126	0.805856
H227	H	-0.522224	0.244874	1.055856
H228	H	-0.272224	0.494874	1.305856
H229	H	-0.420779	-0.261683	-0.000023
H230	H	-0.170779	-0.011683	0.249977
H231	H	0.079221	0.238317	0.499977
H232	H	0.329221	0.488317	0.749977
H233	H	-0.917528	0.427772	0.134794
H234	H	-0.667528	0.677772	0.384794
H235	H	-0.417528	0.927772	0.634794
H236	H	-0.167528	1.177772	0.884794
H237	H	-1.138919	0.456457	0.000178
H238	H	-0.888919	0.706457	0.250178
H239	H	-0.638919	0.956457	0.500178
H240	H	-0.388919	1.206457	0.750178
H241	H	-1.066896	0.342185	-0.134615
H242	H	-0.816896	0.592185	0.115385
H243	H	-0.566896	0.842185	0.365385
H244	H	-0.316896	1.092185	0.615385
H245	H	-0.845652	0.313356	0.000136
H246	H	-0.595652	0.563356	0.250136
H247	H	-0.345652	0.813356	0.500136
H248	H	-0.095652	1.063356	0.750136
H249	H	-1.132368	-0.145206	0.444430
H250	H	-0.882368	0.104794	0.694430
H251	H	-0.632368	0.354794	0.944430
H252	H	-0.382368	0.604794	1.194430
H253	H	-1.102474	-0.004956	0.555561
H254	H	-0.852474	0.245044	0.805561
H255	H	-0.602474	0.495044	1.055561
H256	H	-0.352474	0.745044	1.305561
H257	H	-0.852184	-0.084959	0.555847
H258	H	-0.602184	0.165041	0.805847
H259	H	-0.352184	0.415041	1.055847
H260	H	-0.102184	0.665041	1.305847
H261	H	-0.535052	-0.189659	0.134767
H262	H	-0.285052	0.060341	0.384767
H263	H	-0.035052	0.310341	0.634767
H264	H	0.214948	0.560341	0.884767
H265	H	-0.449470	-0.040332	0.134773
H266	H	-0.199470	0.209668	0.384773
H267	H	0.050530	0.459668	0.634773
H268	H	0.300530	0.709668	0.884773
H269	H	-0.962240	0.025051	0.444283
H270	H	-0.712240	0.275051	0.694283
H271	H	-0.462240	0.525051	0.944283
H272	H	-0.212240	0.775051	1.194283
