data_functionalizedCrystal
_audit_creation_method	'MofGen! by Chris Wilmer'
_symmetry_space_group_name_H-M	'P1'
_symmetry_Int_Tables_number	1
_symmetry_cell_setting	triclinic
loop_
_symmetry_equiv_pos_as_xyz
  x,y,z
_cell_length_a	25.639242
_cell_length_b	25.639239
_cell_length_c	11.169409
_cell_angle_alpha	89.960164
_cell_angle_beta	89.975876
_cell_angle_gamma	90.031588
loop_
_atom_site_label
_atom_site_type_symbol
_atom_site_fract_x
_atom_site_fract_y
_atom_site_fract_z
Zn1	Zn	0.799273	-0.208216	-0.678618
Zn2	Zn	0.799181	-0.295666	-0.477908
Zn3	Zn	0.711835	-0.208235	-0.477937
Zn4	Zn	0.711794	-0.295610	-0.678538
O5	O	0.755521	-0.251932	-0.578250
O6	O	0.872426	-0.219832	-0.652014
O7	O	0.787573	-0.284099	-0.309962
O8	O	0.723489	-0.135067	-0.504603
O9	O	0.872358	-0.284081	-0.504554
O10	O	0.787730	-0.135053	-0.652042
O11	O	0.723400	-0.219864	-0.309983
O12	O	0.638664	-0.219810	-0.504526
O13	O	0.723420	-0.283986	-0.846498
O14	O	0.638634	-0.284004	-0.651907
O15	O	0.787691	-0.219778	-0.846557
O16	O	0.787533	-0.368824	-0.504477
O17	O	0.723330	-0.368783	-0.651879
C18	C	0.619678	-0.251903	-0.578211
C19	C	0.561564	-0.251904	-0.578223
C20	C	0.755431	-0.387774	-0.578192
C21	C	0.755441	-0.445888	-0.578208
C22	C	0.310414	-0.218536	-0.655173
C23	C	0.365018	-0.218531	-0.655166
O24	O	0.393292	-0.190138	-0.720583
N25	N	0.392290	-0.251926	-0.578264
C26	C	0.364955	-0.285331	-0.501372
O27	O	0.393166	-0.313735	-0.435961
C28	C	0.310352	-0.285338	-0.501386
C29	C	0.283083	-0.251938	-0.578285
C30	C	0.283145	-0.185139	-0.732066
C31	C	0.228544	-0.185144	-0.732071
C32	C	0.201213	-0.218546	-0.655183
C33	C	0.228482	-0.251943	-0.578290
C34	C	0.283017	-0.318746	-0.424501
C35	C	0.228410	-0.318751	-0.424522
C36	C	0.201141	-0.285351	-0.501421
C37	C	0.146550	-0.285349	-0.501406
N38	N	0.119278	-0.251955	-0.578308
C39	C	0.146610	-0.218553	-0.655197
C40	C	0.479626	-0.285314	-0.501351
C41	C	0.534228	-0.285304	-0.501330
C42	C	0.534288	-0.218505	-0.655126
C43	C	0.479684	-0.218512	-0.655139
C44	C	0.452354	-0.251919	-0.578253
C45	C	0.031945	-0.218565	-0.655200
C46	C	-0.022661	-0.218571	-0.655195
C47	C	-0.022716	-0.285372	-0.501404
C48	C	0.031885	-0.285364	-0.501405
C49	C	0.059214	-0.251959	-0.578313
O50	O	0.118242	-0.313729	-0.436026
O51	O	0.118392	-0.190158	-0.720608
C52	C	0.722084	-0.697073	-0.654978
C53	C	0.722064	-0.642469	-0.654964
O54	O	0.693617	-0.614224	-0.720197
N55	N	0.755507	-0.615162	-0.578270
C56	C	0.788974	-0.642463	-0.501594
O57	O	0.817418	-0.614223	-0.436360
C58	C	0.788996	-0.697066	-0.501615
C59	C	0.755548	-0.724370	-0.578305
C60	C	0.688639	-0.724377	-0.731663
C61	C	0.688658	-0.778977	-0.731675
C62	C	0.722122	-0.806274	-0.655002
C63	C	0.755567	-0.778970	-0.578317
C64	C	0.822466	-0.724366	-0.424946
C65	C	0.822485	-0.778973	-0.424974
C66	C	0.789036	-0.806276	-0.501664
C67	C	0.789049	-0.860868	-0.501657
N68	N	0.755607	-0.888174	-0.578350
C69	C	0.722143	-0.860877	-0.655023
C70	C	0.788927	-0.527792	-0.501558
C71	C	0.788903	-0.473190	-0.501530
C72	C	0.721994	-0.473199	-0.654902
C73	C	0.722015	-0.527803	-0.654922
C74	C	0.755485	-0.555099	-0.578251
C75	C	0.722185	-0.975542	-0.655042
C76	C	0.722205	-1.030148	-0.655043
C77	C	0.789116	-1.030133	-0.501677
C78	C	0.789094	-0.975533	-0.501670
C79	C	0.755627	-0.948239	-0.578362
O80	O	0.817483	-0.889146	-0.436460
O81	O	0.693709	-0.889124	-0.720258
C82	C	0.891894	-0.251960	-0.578290
C83	C	0.950008	-0.251973	-0.578307
C84	C	0.755561	-0.251874	-0.891293
C85	C	0.755578	-0.251849	-1.024693
C86	C	0.755625	-0.115559	-0.578335
C87	C	0.755669	-0.057445	-0.578371
C88	C	0.755511	-0.251952	-0.266425
C89	C	0.755595	-0.251829	-0.133026
H90	H	-0.044861	-0.191370	-0.717815
H91	H	0.457376	-0.312516	-0.438730
H92	H	0.054088	-0.312557	-0.438777
H93	H	0.305210	-0.345944	-0.361882
O94	O	0.563769	-0.182477	-0.738066
H95	H	0.588646	-0.205909	-0.799027
O96	O	0.563638	-0.321322	-0.418376
H97	H	0.535454	-0.344548	-0.364920
O98	O	0.199135	-0.149123	-0.815020
H99	H	0.227321	-0.125903	-0.868484
O100	O	0.825170	-0.946073	-0.418971
H101	H	0.816237	-0.956586	-0.324750
O102	O	0.450274	-0.182487	-0.738078
H103	H	0.425399	-0.205918	-0.799048
H104	H	0.661389	-0.702156	-0.794104
O105	O	-0.052199	-0.321397	-0.418475
H106	H	-0.094748	-0.315790	-0.431415
H107	H	0.694966	-1.052376	-0.717497
H108	H	0.816360	-1.052368	-0.439247
O109	O	0.198931	-0.354779	-0.341584
H110	H	0.227070	-0.377997	-0.288107
O111	O	0.686079	-0.946111	-0.737743
H112	H	0.695021	-0.956556	-0.831960
O113	O	0.061417	-0.182530	-0.738134
H114	H	0.033275	-0.159307	-0.791586
O115	O	0.858550	-0.694928	-0.342241
H116	H	0.849616	-0.705456	-0.248030
O117	O	0.685896	-0.443749	-0.737590
H118	H	0.662636	-0.471905	-0.790916
O119	O	0.652587	-0.808424	-0.814403
H120	H	0.629321	-0.780261	-0.867718
O121	O	0.858593	-0.808405	-0.342279
H122	H	0.885194	-0.833231	-0.396070
O123	O	0.312620	-0.149104	-0.814988
H124	H	0.284476	-0.125882	-0.868441
O125	O	0.685944	-0.557251	-0.737646
H126	H	0.662675	-0.529091	-0.790958
H127	H	0.816134	-0.450963	-0.439068
H128	H	0.816181	-0.550013	-0.439113
