data_functionalizedCrystal
_audit_creation_method	'MofGen! by Chris Wilmer'
_symmetry_space_group_name_H-M	'P1'
_symmetry_Int_Tables_number	1
_symmetry_cell_setting	triclinic
loop_
_symmetry_equiv_pos_as_xyz
  x,y,z
_cell_length_a	6.817900
_cell_length_b	11.102233
_cell_length_c	12.200875
_cell_angle_alpha	92.495037
_cell_angle_beta	107.143593
_cell_angle_gamma	108.604751
loop_
_atom_site_label
_atom_site_type_symbol
_atom_site_fract_x
_atom_site_fract_y
_atom_site_fract_z
V1	V	-4.094468	-0.176129	-0.357667
O2	O	-4.053827	0.008167	-0.350852
O3	O	-4.071361	-0.348948	-0.355227
O4	O	-4.063808	-0.173550	-0.513655
O5	O	-4.061431	-0.168446	-0.191327
V6	V	-4.572520	-0.154069	-0.337771
O7	O	-4.367728	-0.224517	-0.401311
O8	O	-4.749458	-0.105681	-0.294126
O9	O	-4.372421	0.018750	-0.340211
O10	O	-4.730558	-0.338365	-0.344585
O11	O	-4.722954	-0.161752	-0.504110
O12	O	-4.379973	-0.156648	-0.181782
C13	C	-3.921940	-0.391073	-0.349586
C14	C	-3.984452	-0.532356	-0.348630
C15	C	-4.256291	-0.737958	-0.352995
C16	C	-4.197560	-0.605209	-0.353900
C17	C	-3.830060	-0.592256	-0.342443
C18	C	-3.888788	-0.725001	-0.341530
C19	C	-4.468467	-0.745437	-0.359614
C20	C	-4.409736	-0.612688	-0.360519
C21	C	-3.912305	-0.167334	-0.551676
C22	C	-3.968688	-0.166369	-0.679197
C23	C	-4.071878	-0.164604	-0.912671
C24	C	-4.014447	-0.165586	-0.782749
C25	C	-4.185184	0.060869	-0.345849
C26	C	-4.101911	0.202150	-0.346811
C27	C	-4.194818	-0.162868	-0.143756
C28	C	-4.117673	-0.163827	-0.016234
H29	H	-3.763060	-0.773755	-0.336473
C30	C	-4.415052	-0.540664	-0.251272
H31	H	-4.374211	-0.451258	-0.255622
H32	H	-4.558736	-0.571727	-0.246435
H33	H	-4.315438	-0.554556	-0.184357
C34	C	-4.555436	-0.586811	-0.473233
H35	H	-4.655196	-0.666251	-0.518978
H36	H	-4.634654	-0.536870	-0.454704
H37	H	-4.466328	-0.541361	-0.515563
C38	C	-4.641016	-0.823729	-0.474413
H39	H	-4.677229	-0.766737	-0.526164
H40	H	-4.583567	-0.877402	-0.508299
H41	H	-4.768718	-0.875339	-0.459598
C42	C	-4.542824	-0.779065	-0.253761
H43	H	-4.533531	-0.702811	-0.210839
H44	H	-4.689836	-0.836982	-0.279340
H45	H	-4.450936	-0.818129	-0.205785
H46	H	-3.656534	-0.532926	-0.338143
