data_functionalizedCrystal
_audit_creation_method	'MofGen! by Chris Wilmer'
_symmetry_space_group_name_H-M	'P1'
_symmetry_Int_Tables_number	1
_symmetry_cell_setting	triclinic
loop_
_symmetry_equiv_pos_as_xyz
  x,y,z
_cell_length_a	23.532361
_cell_length_b	23.532407
_cell_length_c	18.266242
_cell_angle_alpha	90.009798
_cell_angle_beta	90.004660
_cell_angle_gamma	82.839173
loop_
_atom_site_label
_atom_site_type_symbol
_atom_site_fract_x
_atom_site_fract_y
_atom_site_fract_z
O1	O	0.755280	0.069008	0.060815
O2	O	0.589413	0.079039	0.060834
O3	O	0.677349	-0.008909	0.060810
O4	O	0.667345	0.156956	0.060838
O5	O	0.677334	-0.008911	-0.060952
O6	O	0.589398	0.079037	-0.060928
O7	O	0.755266	0.069006	-0.060947
Zn8	Zn	0.672330	0.074021	-0.080270
Zn9	Zn	0.672349	0.074024	0.080157
O10	O	0.667330	0.156954	-0.060924
C11	C	0.568189	0.078787	-0.000045
C12	C	0.504971	0.078032	-0.000039
C13	C	0.231735	0.074730	0.066329
C14	C	0.291135	0.075444	0.066331
O15	O	0.321868	0.075796	0.122777
N16	N	0.320832	0.075804	-0.000042
C17	C	0.291128	0.075443	-0.066421
O18	O	0.321842	0.075815	-0.122876
C19	C	0.231730	0.074724	-0.066422
C20	C	0.202035	0.074370	-0.000045
C21	C	0.202040	0.074375	0.132700
C22	C	0.142644	0.073661	0.132698
C23	C	0.112944	0.073302	0.066324
C24	C	0.142639	0.073657	-0.000047
C25	C	0.202027	0.074359	-0.132800
C26	C	0.142625	0.073640	-0.132796
C27	C	0.112930	0.073286	-0.066419
C28	C	0.053542	0.072584	-0.066423
N29	N	0.023845	0.072224	-0.000051
C30	C	0.053545	0.072583	0.066323
C31	C	0.415868	0.076952	-0.066413
C32	C	0.475265	0.077675	-0.066413
C33	C	0.475268	0.077675	0.066339
C34	C	0.415870	0.076956	0.066338
C35	C	0.386171	0.076593	-0.000041
C36	C	-0.071190	0.071084	0.066314
C37	C	-0.130591	0.070373	0.066305
C38	C	-0.130589	0.070370	-0.066446
C39	C	-0.071193	0.071084	-0.066438
C40	C	-0.041495	0.071440	-0.000053
O41	O	0.022772	0.072230	-0.122840
O42	O	0.022825	0.072204	0.122769
C43	C	0.677086	-0.030126	-0.000073
C44	C	0.676320	-0.093343	-0.000078
C45	C	0.723555	-0.492454	-0.000043
C46	C	0.722844	-0.551854	-0.000038
O47	O	0.766630	-0.588606	-0.000016
N48	N	0.670566	-0.574471	-0.000032
C49	C	0.618997	-0.537685	-0.000025
O50	O	0.574465	-0.562377	-0.000019
C51	C	0.619709	-0.478286	-0.000026
C52	C	0.671990	-0.455672	-0.000038
C53	C	0.775832	-0.469839	-0.000055
C54	C	0.776543	-0.410443	-0.000062
C55	C	0.724977	-0.373662	-0.000057
C56	C	0.672701	-0.396276	-0.000045
C57	C	0.568140	-0.441501	-0.000013
C58	C	0.568857	-0.382099	-0.000013
C59	C	0.621137	-0.359485	-0.000026
C60	C	0.621847	-0.300099	-0.000047
N61	N	0.674124	-0.277481	-0.000053
C62	C	0.725690	-0.314263	-0.000058
C63	C	0.617505	-0.662427	-0.000023
C64	C	0.616793	-0.721825	-0.000028
C65	C	0.720640	-0.735990	-0.000039
C66	C	0.721352	-0.676591	-0.000039
C67	C	0.669783	-0.639810	-0.000028
C68	C	0.727179	-0.189526	-0.000073
C69	C	0.727886	-0.130124	-0.000083
C70	C	0.624039	-0.115965	-0.000068
C71	C	0.623332	-0.175361	-0.000062
C72	C	0.674907	-0.212141	-0.000062
O73	O	0.578083	-0.263312	-0.000067
O74	O	0.770214	-0.289562	-0.000054
C75	C	0.776489	0.069258	-0.000067
C76	C	0.839708	0.070014	-0.000068
C77	C	0.667592	0.178171	-0.000039
C78	C	0.668358	0.241388	-0.000029
N79	N	0.672320	0.074019	-0.189757
C80	C	0.706661	0.108382	-0.228058
C81	C	0.706670	0.108381	-0.304703
C82	C	0.672329	0.074022	-0.343044
C83	C	0.637986	0.039651	-0.304734
C84	C	0.637982	0.039650	-0.228091
N85	N	0.622454	0.072757	-0.463392
N86	N	0.622459	0.072762	-0.536200
C87	C	0.672340	0.074024	-0.573966
N88	N	0.722216	0.075292	-0.536175
N89	N	0.722209	0.075290	-0.463360
C90	C	0.672330	0.074020	-0.426151
C91	C	0.706694	0.108388	-0.695374
C92	C	0.706704	0.108382	-0.772021
C93	C	0.638015	0.039656	-0.772050
C94	C	0.638009	0.039658	-0.695406
C95	C	0.672348	0.074027	-0.657072
N96	N	0.672363	0.074022	0.189643
H97	H	0.226216	0.074665	0.186753
O98	O	0.604592	0.006267	-0.658310
C99	C	0.536489	-0.061923	-0.666430
C100	C	0.574296	-0.024122	-0.708532
H101	H	0.511993	-0.086512	-0.707016
H102	H	0.504836	-0.033773	-0.630567
H103	H	0.564683	-0.093502	-0.630529
H104	H	0.546147	0.007462	-0.744472
H105	H	0.605952	-0.052308	-0.744348
O106	O	0.113895	0.073284	0.197243
C107	C	0.120186	0.073382	0.328913
C108	C	0.152811	0.073801	0.255865
H109	H	0.151634	0.073812	0.376328
H110	H	0.097840	0.033173	0.332273
H111	H	0.086919	0.112896	0.332212
H112	H	0.186105	0.034314	0.252517
H113	H	0.175118	0.114036	0.252536
H114	H	0.391696	0.076668	0.120388
O115	O	-0.042309	0.071333	0.130781
C116	C	0.031504	0.022822	0.207822
C117	C	-0.001165	0.022457	0.134796
H118	H	0.064784	-0.016684	0.211085
H119	H	0.000099	0.022411	0.255282
H120	H	0.053843	0.063037	0.211141
H121	H	-0.023506	-0.017752	0.131406
H122	H	0.030267	0.022898	0.087371
O123	O	0.567445	-0.626642	-0.000120
C124	C	0.507949	-0.551397	-0.063222
C125	C	0.564668	-0.591877	-0.063197
H126	H	0.505680	-0.523288	-0.114222
H127	H	0.505678	-0.523187	-0.012301
H128	H	0.470476	-0.577783	-0.063184
H129	H	0.602172	-0.565537	-0.063261
H130	H	0.566888	-0.620089	-0.114114
O131	O	0.770747	-0.771703	-0.000166
C132	C	0.859295	-0.801989	-0.063224
C133	C	0.802570	-0.761520	-0.063180
H134	H	0.885045	-0.793762	-0.114157
H135	H	0.849833	-0.848337	-0.063265
H136	H	0.885020	-0.793802	-0.012245
H137	H	0.776816	-0.769656	-0.114150
H138	H	0.812072	-0.715186	-0.063101
H139	H	0.734673	0.136363	-0.803204
H140	H	0.499461	0.077968	0.120384
H141	H	-0.154767	0.070086	0.120360
O142	O	0.604566	0.006255	-0.190995
C143	C	0.536464	-0.061938	-0.199113
C144	C	0.574271	-0.024137	-0.241216
H145	H	0.511970	-0.086529	-0.239698
H146	H	0.504811	-0.033787	-0.163252
H147	H	0.564659	-0.093515	-0.163210
H148	H	0.546122	0.007444	-0.277159
H149	H	0.605929	-0.052324	-0.277030
O150	O	0.504118	0.078126	-0.130872
C151	C	0.564466	0.128257	-0.207897
C152	C	0.531806	0.127831	-0.134876
H153	H	0.586870	0.168433	-0.211150
H154	H	0.533050	0.127915	-0.255361
H155	H	0.597691	0.088711	-0.211215
H156	H	0.498581	0.167371	-0.131486
H157	H	0.563257	0.128144	-0.087446
O158	O	0.573967	-0.080205	0.000068
C159	C	0.514543	-0.004880	0.063143
C160	C	0.571264	-0.045356	0.063080
H161	H	0.512345	0.023315	0.114074
H162	H	0.477028	-0.031211	0.063200
H163	H	0.512281	0.023251	0.012162
H164	H	0.573582	-0.073495	0.114052
H165	H	0.608752	-0.018990	0.062985
H166	H	0.610025	0.011676	-0.335956
O167	O	0.387104	0.076634	-0.130964
C168	C	0.393387	0.076680	-0.262634
C169	C	0.426026	0.077056	-0.189585
H170	H	0.424842	0.077009	-0.310048
H171	H	0.360150	0.116216	-0.265998
H172	H	0.371003	0.036491	-0.265929
H173	H	0.448444	0.117218	-0.186241
H174	H	0.459230	0.037493	-0.186252
O175	O	0.772123	-0.654599	-0.000175
C176	C	0.833182	-0.595745	-0.063235
C177	C	0.775668	-0.620618	-0.063184
H178	H	0.836062	-0.568257	-0.114165
H179	H	0.869934	-0.632221	-0.063287
H180	H	0.836113	-0.568311	-0.012253
H181	H	0.772681	-0.648045	-0.114158
H182	H	0.738943	-0.584116	-0.063094
H183	H	0.226195	0.074646	-0.186852
O184	O	0.518708	-0.346451	-0.000035
C185	C	0.415632	-0.338676	0.000033
C186	C	0.472381	-0.379110	0.000042
H187	H	0.378161	-0.365064	0.000111
H188	H	0.413317	-0.310531	-0.050937
H189	H	0.413408	-0.310494	0.050977
H190	H	0.474642	-0.407328	-0.050867
H191	H	0.474671	-0.407216	0.051047
H192	H	0.118446	0.073349	-0.186850
H193	H	0.574220	-0.740232	-0.000030
O194	O	-0.042428	0.071404	-0.130981
C195	C	-0.048711	0.071355	-0.262652
C196	C	-0.081351	0.070987	-0.189610
H197	H	-0.080168	0.071030	-0.310073
H198	H	-0.015481	0.031814	-0.266025
H199	H	-0.026320	0.111538	-0.265927
H200	H	-0.103777	0.030830	-0.186286
H201	H	-0.114549	0.110555	-0.186268
O202	O	-0.159458	0.069919	-0.130899
C203	C	-0.219825	0.019773	-0.207913
C204	C	-0.187144	0.020211	-0.134903
H205	H	-0.242227	-0.020405	-0.211168
H206	H	-0.188423	0.020112	-0.255388
H207	H	-0.253054	0.059317	-0.211214
H208	H	-0.153915	-0.019326	-0.131530
H209	H	-0.218580	0.019902	-0.087463
H210	H	0.770461	-0.111716	-0.000095
H211	H	0.769176	-0.219466	-0.000070
H212	H	0.734635	0.136365	-0.335893
H213	H	0.734624	0.136366	-0.196851
H214	H	0.819115	-0.392037	-0.000070
H215	H	0.817825	-0.499782	-0.000057
H216	H	0.525567	-0.459902	0.000002
H217	H	0.580761	-0.193774	-0.000072
O218	O	0.740105	0.141783	-0.658245
C219	C	0.808210	0.209973	-0.666303
C220	C	0.770409	0.172171	-0.708439
H221	H	0.832712	0.234562	-0.706866
H222	H	0.839857	0.181823	-0.630438
H223	H	0.780010	0.241552	-0.630401
H224	H	0.798564	0.140587	-0.744381
H225	H	0.738759	0.200357	-0.744258
H226	H	0.610054	0.011680	-0.803267
