data_functionalizedCrystal
_audit_creation_method	'MofGen! by Chris Wilmer'
_symmetry_space_group_name_H-M	'P1'
_symmetry_Int_Tables_number	1
_symmetry_cell_setting	triclinic
loop_
_symmetry_equiv_pos_as_xyz
  x,y,z
_cell_length_a	12.759401
_cell_length_b	17.640280
_cell_length_c	12.759393
_cell_angle_alpha	78.768965
_cell_angle_beta	89.979062
_cell_angle_gamma	78.802151
loop_
_atom_site_label
_atom_site_type_symbol
_atom_site_fract_x
_atom_site_fract_y
_atom_site_fract_z
Zn1	Zn	1.690818	-0.314597	-0.509562
Zn2	Zn	1.726238	-0.446790	-0.298393
Zn3	Zn	1.515128	-0.314639	-0.333886
Zn4	Zn	1.550623	-0.446735	-0.474045
O5	O	1.620702	-0.380691	-0.403971
O6	O	1.842539	-0.332138	-0.481560
O7	O	1.698203	-0.429301	-0.156069
O8	O	1.508756	-0.204028	-0.386908
O9	O	1.868562	-0.429260	-0.326415
O10	O	1.637835	-0.203997	-0.515976
O11	O	1.543101	-0.332210	-0.182146
O12	O	1.372814	-0.332157	-0.352468
O13	O	1.569251	-0.429166	-0.625788
O14	O	1.398892	-0.429207	-0.455443
O15	O	1.672252	-0.332085	-0.651883
O16	O	1.732620	-0.557389	-0.291976
O17	O	1.603596	-0.557349	-0.421027
C18	C	1.347732	-0.380681	-0.403953
C19	C	1.230959	-0.380696	-0.403965
C20	C	1.189724	-0.431307	-0.457458
C21	C	1.080001	-0.431310	-0.457478
C22	C	1.052757	-0.330089	-0.350505
C23	C	1.162477	-0.330082	-0.350491
C24	C	1.675832	-0.586048	-0.348819
C25	C	1.699513	-0.673900	-0.325259
C26	C	1.441231	-0.962869	-0.583333
C27	C	1.463485	-1.045420	-0.561162
C28	C	1.597921	-1.045396	-0.426917
C29	C	1.575682	-0.962844	-0.449081
C30	C	1.497335	-0.921586	-0.527289
C31	C	1.631786	-0.921561	-0.393036
C32	C	1.609545	-0.839016	-0.415195
C33	C	1.531199	-0.797753	-0.493397
C34	C	1.475094	-0.839041	-0.549447
C35	C	1.710127	-0.962820	-0.314823
C36	C	1.766231	-0.921538	-0.258779
C37	C	1.743996	-0.838991	-0.280942
C38	C	1.665650	-0.797728	-0.359145
C39	C	1.800101	-0.797703	-0.224892
C40	C	1.777860	-0.715158	-0.247051
C41	C	1.643409	-0.715183	-0.381303
C42	C	1.894738	-0.380701	-0.403990
C43	C	2.011516	-0.380705	-0.403998
C44	C	1.620760	-0.380615	-0.678025
C45	C	1.620785	-0.380582	-0.794811
C46	C	1.565385	-0.174531	-0.459363
C47	C	1.541813	-0.086679	-0.482967
C48	C	1.674420	-0.330024	-0.863264
C49	C	1.674429	-0.329990	-0.972997
C50	C	1.567166	-0.431079	-0.945813
C51	C	1.567151	-0.431109	-0.836083
C52	C	1.620689	-0.380709	-0.130999
C53	C	1.620808	-0.380519	-0.014274
H54	H	1.579618	-0.681589	-0.444996
H55	H	1.523502	-0.472218	-0.979430
H56	H	1.863883	-0.831307	-0.161208
O57	O	1.731933	-1.043005	-0.293299
C58	C	1.840019	-1.070506	-0.313005
H59	H	1.887712	-1.022903	-0.307886
H60	H	1.873603	-1.125736	-0.250803
H61	H	1.846145	-1.085117	-0.396258
O62	O	0.986357	-0.280969	-0.298400
C63	C	1.017710	-0.298158	-0.189028
H64	H	1.105532	-0.328533	-0.178614
H65	H	1.006109	-0.241071	-0.157376
H66	H	0.966845	-0.338768	-0.142655
H67	H	1.830018	-0.955141	-0.195099
O68	O	1.673903	-1.085436	-0.350805
C69	C	1.645591	-1.065298	-0.251482
H70	H	1.555561	-1.042662	-0.252180
H71	H	1.669304	-1.119593	-0.185001
H72	H	1.689012	-1.017356	-0.236950
O73	O	1.726523	-0.280865	-0.823355
C74	C	1.773885	-0.236247	-0.907306
H75	H	1.730126	-0.233489	-0.986253
H76	H	1.768378	-0.173981	-0.892338
H77	H	1.861446	-0.265191	-0.911212
O78	O	1.202685	-0.281026	-0.298442
C79	C	1.278165	-0.325963	-0.218394
H80	H	1.310708	-0.385895	-0.239218
H81	H	1.346669	-0.293753	-0.213030
H82	H	1.238157	-0.334577	-0.138206
O83	O	1.409090	-1.085488	-0.615771
C84	C	1.426522	-1.065245	-0.725937
H85	H	1.504321	-1.042499	-0.737423
H86	H	1.432070	-1.119515	-0.763265
H87	H	1.357273	-1.017356	-0.766204
H88	H	1.046433	-0.472521	-0.501038
H89	H	1.245479	-0.472518	-0.501003
O90	O	1.365273	-0.922745	-0.659432
C91	C	1.412179	-0.874918	-0.740151
H92	H	1.501609	-0.899749	-0.740046
H93	H	1.373886	-0.873959	-0.821231
H94	H	1.398970	-0.812373	-0.724449
H95	H	1.823545	-0.681545	-0.201412
O96	O	1.509586	-0.717568	-0.514734
C97	C	1.475216	-0.690044	-0.421414
H98	H	1.506022	-0.737625	-0.348138
H99	H	1.507726	-0.634798	-0.417617
H100	H	1.384111	-0.675454	-0.423026
O101	O	1.515035	-0.480300	-0.769722
C102	C	1.467686	-0.524881	-0.829679
H103	H	1.511462	-0.527603	-0.907170
H104	H	1.473182	-0.587163	-0.781235
H105	H	1.380128	-0.495930	-0.849113
O106	O	1.399135	-0.798917	-0.625546
C107	C	1.446041	-0.751090	-0.706265
H108	H	1.535471	-0.775921	-0.706160
H109	H	1.407749	-0.750131	-0.787346
H110	H	1.432833	-0.688545	-0.690563
H111	H	1.718102	-0.288819	-1.028728
