data_functionalizedCrystal
_audit_creation_method	'MofGen! by Chris Wilmer'
_symmetry_space_group_name_H-M	'P1'
_symmetry_Int_Tables_number	1
_symmetry_cell_setting	triclinic
loop_
_symmetry_equiv_pos_as_xyz
  x,y,z
_cell_length_a	12.594517
_cell_length_b	25.639239
_cell_length_c	25.639234
_cell_angle_alpha	90.024905
_cell_angle_beta	90.011048
_cell_angle_gamma	90.034573
loop_
_atom_site_label
_atom_site_type_symbol
_atom_site_fract_x
_atom_site_fract_y
_atom_site_fract_z
Zn1	Zn	1.627095	-0.208240	0.295487
Zn2	Zn	1.626917	-0.295668	0.208051
Zn3	Zn	1.449100	-0.208242	0.208079
Zn4	Zn	1.449011	-0.295640	0.295469
O5	O	1.538031	-0.251948	0.251772
O6	O	1.776017	-0.219848	0.283884
O7	O	1.603292	-0.284084	0.134890
O8	O	1.472823	-0.135077	0.219693
O9	O	1.775886	-0.284082	0.219646
O10	O	1.603595	-0.135075	0.283911
O11	O	1.472651	-0.219852	0.134910
O12	O	1.300142	-0.219825	0.219676
O13	O	1.472671	-0.284033	0.368637
O14	O	1.300077	-0.284036	0.283881
O15	O	1.603509	-0.219821	0.368650
O16	O	1.603205	-0.368830	0.219628
O17	O	1.472498	-0.368809	0.283854
C18	C	1.261490	-0.251928	0.251780
C19	C	1.143184	-0.251932	0.251795
C20	C	1.073926	-0.286925	0.286649
C21	C	1.003156	-0.239256	0.299513
C22	C	1.003156	-0.299640	0.238920
C23	C	1.073972	-0.204238	0.264684
C24	C	1.073978	-0.264654	0.204069
C25	C	1.003240	-0.216953	0.216915
C26	C	1.537852	-0.387790	0.251748
C27	C	1.537872	-0.445904	0.251755
C28	C	1.606267	-0.806266	0.218386
C29	C	1.606308	-0.860870	0.218393
O30	O	1.664275	-0.889105	0.189996
N31	N	1.538218	-0.888187	0.251806
C32	C	1.470089	-0.860896	0.285218
O33	O	1.412177	-0.889146	0.313639
C34	C	1.470054	-0.806293	0.285213
C35	C	1.538141	-0.778979	0.251794
C36	C	1.674350	-0.778951	0.184971
C37	C	1.674307	-0.724351	0.184963
C38	C	1.606181	-0.697064	0.218371
C39	C	1.538098	-0.724379	0.251787
C40	C	1.401931	-0.779004	0.318627
C41	C	1.401902	-0.724397	0.318620
C42	C	1.469990	-0.697083	0.285201
C43	C	1.469930	-0.642492	0.285188
N44	N	1.538020	-0.615175	0.251775
C45	C	1.606146	-0.642461	0.218366
C46	C	1.470169	-0.975567	0.285226
C47	C	1.470198	-1.030169	0.285229
C48	C	1.606419	-1.030139	0.218404
C49	C	1.606384	-0.975536	0.218400
C50	C	1.538260	-0.948250	0.251813
C51	C	1.606050	-0.527796	0.218353
C52	C	1.605998	-0.473191	0.218347
C53	C	1.469781	-0.473226	0.285173
C54	C	1.469829	-0.527826	0.285177
C55	C	1.537972	-0.555110	0.251765
O56	O	1.411996	-0.614222	0.313572
O57	O	1.664059	-0.614205	0.189955
C58	C	1.815651	-0.251968	0.251764
C59	C	1.933957	-0.251977	0.251761
C60	C	1.538100	-0.251924	0.388145
C61	C	1.538129	-0.251914	0.446259
C62	C	1.538239	-0.115575	0.251807
C63	C	1.538328	-0.057461	0.251822
C64	C	1.538023	-0.251934	0.115929
C65	C	1.538200	-0.251797	0.057815
C66	C	1.470134	-0.218406	0.806638
C67	C	1.470140	-0.218397	0.861242
O68	O	1.412275	-0.189965	0.889493
N69	N	1.538165	-0.251832	0.888541
C70	C	1.606180	-0.285282	0.861233
O71	O	1.664040	-0.313721	0.889467
C72	C	1.606168	-0.285294	0.806630
C73	C	1.538147	-0.251853	0.779334
C74	C	1.402118	-0.184968	0.779342
C75	C	1.402114	-0.184977	0.724741
C76	C	1.470126	-0.218424	0.697437
C77	C	1.538143	-0.251862	0.724733
C78	C	1.674178	-0.318746	0.779323
C79	C	1.674160	-0.318756	0.724716
C80	C	1.606138	-0.285315	0.697419
C81	C	1.606151	-0.285317	0.642828
N82	N	1.538127	-0.251882	0.615529
C83	C	1.470114	-0.218436	0.642833
C84	C	1.606199	-0.285256	0.975904
C85	C	1.606217	-0.285242	1.030506
C86	C	1.470175	-0.218357	1.030512
C87	C	1.470163	-0.218368	0.975908
C88	C	1.538174	-0.251821	0.948605
C89	C	1.470112	-0.218457	0.528168
C90	C	1.470117	-0.218467	0.473563
C91	C	1.606154	-0.285354	0.473562
C92	C	1.606153	-0.285341	0.528163
C93	C	1.538124	-0.251891	0.555465
O94	O	1.663984	-0.313736	0.614543
O95	O	1.412254	-0.190007	0.614593
H96	H	0.972044	-0.339968	0.228045
H97	H	1.729567	-0.345978	0.801538
H98	H	1.414725	-0.191233	0.451341
F99	F	1.329711	-0.149372	0.808393
H100	H	1.414390	-0.550067	0.312391
H101	H	0.972047	-0.228511	0.339860
F102	F	1.114455	-0.151511	0.278960
H103	H	1.104967	-0.316460	0.316161
H104	H	1.661895	-1.052366	0.191203
H105	H	1.414685	-0.953354	0.312434
F106	F	1.678852	-0.946471	0.182831
F107	F	1.678469	-0.444124	0.182776
H108	H	1.729550	-0.345994	0.702488
H109	H	1.414311	-0.451001	0.312372
F110	F	1.397712	-0.182853	0.557217
F111	F	0.962924	-0.178256	0.178369
F112	F	1.114642	-0.278710	0.151340
F113	F	1.329710	-0.149387	0.695697
F114	F	1.397765	-0.182777	0.946862
F115	F	1.397788	-0.182760	1.059580
H116	H	1.661541	-0.550004	0.191147
H117	H	1.729753	-0.702115	0.157752
H118	H	1.729832	-0.801162	0.157765
F119	F	1.397718	-1.059233	0.320792
F120	F	1.329470	-0.808062	0.354201
H121	H	1.346428	-0.702184	0.345831
H122	H	1.661619	-0.312467	1.052726
H123	H	1.661595	-0.312493	0.953677
H124	H	1.661554	-0.312566	0.550389
F125	F	1.678540	-0.320945	0.444494
