data_functionalizedCrystal
_audit_creation_method	'MofGen! by Chris Wilmer'
_symmetry_space_group_name_H-M	'P1'
_symmetry_Int_Tables_number	1
_symmetry_cell_setting	triclinic
loop_
_symmetry_equiv_pos_as_xyz
  x,y,z
_cell_length_a	17.699104
_cell_length_b	10.868271
_cell_length_c	17.699083
_cell_angle_alpha	90.002306
_cell_angle_beta	96.712734
_cell_angle_gamma	89.993943
loop_
_atom_site_label
_atom_site_type_symbol
_atom_site_fract_x
_atom_site_fract_y
_atom_site_fract_z
O1	O	-1.004066	0.102373	0.095783
O2	O	-0.783690	0.102365	0.108219
O3	O	-0.900104	0.102359	-0.008188
O4	O	-0.887652	0.102380	0.212189
O5	O	-0.900094	-0.102286	-0.008184
O6	O	-0.783679	-0.102279	0.108222
O7	O	-1.004056	-0.102271	0.095786
Zn8	Zn	-0.893866	-0.134767	0.102005
Zn9	Zn	-0.893880	0.134861	0.102000
O10	O	-0.887641	-0.102265	0.212193
C11	C	-0.755488	0.000042	0.107772
C12	C	-0.671471	0.000039	0.106427
N13	N	-0.893862	-0.318781	0.102008
C14	C	-0.146600	0.000045	0.167171
C15	C	-0.225543	0.000051	0.168430
C16	C	-0.274161	0.000045	0.100095
C17	C	-0.243831	0.000046	0.030496
C18	C	-0.164889	0.000049	0.029238
C19	C	-0.562197	0.000034	0.035569
C20	C	-0.641144	0.000027	0.036833
C21	C	-0.622852	0.000036	0.174762
C22	C	-0.543909	0.000039	0.173503
C23	C	-0.513587	0.000047	0.103905
C24	C	-0.427987	0.000043	0.102541
C25	C	-0.359759	0.000040	0.101459
C26	C	-0.893868	-0.430119	0.102008
C27	C	-0.893878	-0.569796	0.102001
C28	C	-0.032258	0.000049	0.096233
C29	C	-0.116275	0.000043	0.097578
C30	C	-0.899653	0.000036	-0.036383
C31	C	-0.898314	0.000036	-0.120402
N32	N	-0.893890	0.318875	0.101991
C33	C	-0.966647	0.000036	-0.169017
C34	C	-0.965385	0.000047	-0.247961
C35	C	-0.895789	0.000049	-0.278287
C36	C	-0.827451	0.000052	-0.229665
C37	C	-0.828714	0.000050	-0.150723
C38	C	-0.822356	0.000061	-0.548028
C39	C	-0.821098	0.000060	-0.626976
C40	C	-0.959026	0.000059	-0.645266
C41	C	-0.960289	0.000057	-0.566324
C42	C	-0.891952	0.000067	-0.517709
C43	C	-0.893321	0.000057	-0.432110
C44	C	-0.894419	0.000049	-0.363885
C45	C	-0.888093	0.000061	0.240388
C46	C	-0.889431	0.000069	0.324406
H47	H	-0.107020	0.000041	0.222818
O48	O	-0.652183	-0.000011	0.242438
C49	C	-0.592342	0.000020	0.302480
H50	H	-0.538749	-0.038726	0.281362
H51	H	-0.608750	-0.059391	0.351079
H52	H	-0.581139	0.098199	0.323552
H53	H	-0.537518	0.000037	-0.021102
H54	H	-1.023320	0.000028	-0.144333
H55	H	-0.250230	0.000064	0.225100
H56	H	-0.504328	0.000038	0.229149
H57	H	-1.016961	0.000050	-0.541638
O58	O	-0.290948	0.000100	-0.035955
C59	C	-0.247251	0.000071	-0.097651
H60	H	-0.188301	0.038818	-0.078329
H61	H	-0.276460	0.059484	-0.145521
H62	H	-0.241659	-0.098107	-0.118991
O63	O	-0.688266	0.000087	-0.029622
C64	C	-0.644575	0.000068	-0.091322
H65	H	-0.585624	0.038814	-0.072003
H66	H	-0.673788	0.059485	-0.139187
H67	H	-0.638984	-0.098108	-0.112668
H68	H	-0.140200	0.000050	-0.027432
O69	O	-1.031833	-0.000015	-0.295078
C70	C	-1.093530	0.000003	-0.251384
H71	H	-1.074206	-0.038740	-0.192431
H72	H	-1.141393	-0.059417	-0.280591
H73	H	-1.114882	0.098178	-0.245797
O74	O	-0.762356	0.000264	-0.103463
C75	C	-0.758977	0.106236	-0.057239
H76	H	-0.797737	0.180314	-0.086220
H77	H	-0.697997	0.141814	-0.048251
H78	H	-0.778462	0.082275	0.000131
O79	O	-1.025342	0.000119	-0.692600
C80	C	-1.009310	0.000096	-0.768780
H81	H	-0.949871	0.038842	-0.771702
H82	H	-1.052881	0.059510	-0.804620
H83	H	-1.012214	-0.098081	-0.791621
O84	O	-0.753422	0.000126	-0.656310
C85	C	-0.693375	0.000107	-0.596474
H86	H	-0.714494	0.038848	-0.542881
H87	H	-0.644786	0.059529	-0.612889
H88	H	-0.672291	-0.098067	-0.585268
H89	H	-0.766711	0.000069	-0.508455
H90	H	-0.770785	0.000060	-0.254362
