data_functionalizedCrystal
_audit_creation_method	'MofGen! by Chris Wilmer'
_symmetry_space_group_name_H-M	'P1'
_symmetry_Int_Tables_number	1
_symmetry_cell_setting	triclinic
loop_
_symmetry_equiv_pos_as_xyz
  x,y,z
_cell_length_a	10.540539
_cell_length_b	9.016244
_cell_length_c	10.540539
_cell_angle_alpha	90.000067
_cell_angle_beta	95.474508
_cell_angle_gamma	89.994699
loop_
_atom_site_label
_atom_site_type_symbol
_atom_site_fract_x
_atom_site_fract_y
_atom_site_fract_z
O1	O	1.685893	-0.123263	-0.178895
O2	O	1.316480	-0.123280	-0.195751
O3	O	1.509614	-0.123269	-0.002617
O4	O	1.492759	-0.123274	-0.372030
O5	O	1.509586	0.123411	-0.002621
O6	O	1.316452	0.123400	-0.195755
O7	O	1.685865	0.123418	-0.178900
Cu8	Cu	1.501156	0.145933	-0.187328
Cu9	Cu	1.501189	-0.145795	-0.187323
O10	O	1.492730	0.123407	-0.372034
C11	C	1.269163	0.000058	-0.194489
C12	C	1.128215	0.000051	-0.190707
C13	C	1.508336	0.000068	0.044684
C14	C	1.504554	0.000060	0.185632
N15	N	1.501141	0.351119	-0.187331
C16	C	0.944788	0.000628	-0.045790
C17	C	1.091406	0.000057	-0.049624
C18	C	1.066558	-0.140811	-0.258600
C19	C	0.920014	-0.140914	-0.253785
C20	C	0.919493	0.139608	-0.256660
C21	C	1.066475	0.141455	-0.257960
C22	C	1.733182	0.000077	-0.180161
C23	C	1.874130	0.000074	-0.183943
N24	N	1.501213	-0.350982	-0.187310
C25	C	1.397510	0.586146	-0.290298
C26	C	1.397739	0.414255	-0.290684
C27	C	1.633864	0.413464	-0.217464
C28	C	1.633298	0.585409	-0.218193
C29	C	1.473367	0.585663	-0.053892
C30	C	1.470322	0.413709	-0.054757
C31	C	1.494008	0.000066	-0.419335
C32	C	1.497790	0.000064	-0.560283
C33	C	1.359637	-0.000500	0.369059
C34	C	1.363471	0.000055	0.222441
C35	C	1.572434	0.140930	0.247287
C36	C	1.567619	0.141049	0.393832
C37	C	1.570520	-0.139473	0.394355
C38	C	1.571820	-0.141336	0.247373
H39	H	1.134008	0.101034	0.003797
H40	H	0.916191	0.101649	0.009944
H41	H	1.303918	-0.101521	0.397661
H42	H	1.548979	0.626319	0.022762
N43	N	0.884655	-0.272996	-0.190810
N44	N	0.928699	-0.297993	-0.078516
H45	H	0.903735	-0.391279	-0.034034
N46	N	1.509662	-0.272096	0.195990
N47	N	1.548862	-0.397157	0.232854
H48	H	1.504975	-0.489508	0.196544
H49	H	1.088912	-0.146054	-0.362208
H50	H	0.887935	0.246381	-0.211004
N51	N	1.504631	0.273133	0.429191
N52	N	1.392335	0.298123	0.385147
H53	H	1.347844	0.391410	0.410112
N54	N	1.117830	0.272176	-0.195713
N55	N	1.199601	0.261355	-0.102169
H56	H	1.235878	0.353674	-0.058204
H57	H	1.109159	-0.245643	-0.211434
H58	H	0.914592	-0.099828	0.009712
N59	N	1.702411	0.147551	0.219263
N60	N	1.790092	0.147105	0.307908
H61	H	1.881889	0.151784	0.288114
H62	H	1.309661	0.101200	0.180683
H63	H	1.090700	0.149959	-0.360819
N64	N	1.733140	0.637617	-0.127826
N65	N	1.750535	0.773803	-0.112297
H66	H	1.821069	0.810673	-0.048502
N67	N	1.733030	0.362155	-0.125925
N68	N	1.706928	0.278866	-0.037246
H69	H	1.776962	0.242627	0.027408
H70	H	1.133163	-0.101092	0.004177
H71	H	1.674681	-0.149837	0.223152
H72	H	0.872266	0.140559	-0.358564
H73	H	1.658762	0.370386	-0.313702
H74	H	1.378630	0.629106	-0.025213
H75	H	0.872045	-0.147309	-0.355250
H76	H	1.299123	0.372106	-0.272553
H77	H	1.415177	0.629339	-0.388722
H78	H	1.372684	0.372962	-0.031916
H79	H	1.298584	0.627535	-0.272446
N80	N	1.558819	0.359805	0.045989
N81	N	1.675078	0.386714	0.045266
H82	H	1.737593	0.348645	0.116413
H83	H	1.415639	0.373108	-0.389668
N84	N	1.663856	0.635688	-0.340303
N85	N	1.685449	0.543790	-0.424395
H86	H	1.707031	0.579291	-0.510639
H87	H	1.310059	-0.100926	0.179839
N88	N	1.290000	0.125513	0.406961
N89	N	1.341676	0.215734	0.485784
H90	H	1.292499	0.304734	0.512557
H91	H	1.669083	0.147444	0.441800
N92	N	1.513244	0.272426	0.193840
N93	N	1.421084	0.262758	0.110360
H94	H	1.379273	0.355624	0.072613
N95	N	1.513284	-0.273437	0.433931
N96	N	1.577056	-0.362585	0.504968
H97	H	1.536625	-0.457194	0.532918
H98	H	1.672424	-0.140416	0.441581
