data_functionalizedCrystal
_audit_creation_method	'MofGen! by Chris Wilmer'
_symmetry_space_group_name_H-M	'P1'
_symmetry_Int_Tables_number	1
_symmetry_cell_setting	triclinic
loop_
_symmetry_equiv_pos_as_xyz
  x,y,z
_cell_length_a	16.625548
_cell_length_b	19.121449
_cell_length_c	16.625539
_cell_angle_alpha	92.469138
_cell_angle_beta	90.020568
_cell_angle_gamma	87.586203
loop_
_atom_site_label
_atom_site_type_symbol
_atom_site_fract_x
_atom_site_fract_y
_atom_site_fract_z
Zn1	Zn	1.246350	-0.279588	0.442220
Zn2	Zn	1.579684	0.053745	0.775553
Zn3	Zn	1.913017	0.387079	1.108886
Zn4	Zn	1.251996	-0.397043	0.301636
Zn5	Zn	1.585330	-0.063710	0.634969
Zn6	Zn	1.918663	0.269623	0.968302
Zn7	Zn	1.111513	-0.279615	0.307399
Zn8	Zn	1.444847	0.053719	0.640732
Zn9	Zn	1.778180	0.387052	0.974065
Zn10	Zn	1.117223	-0.397003	0.436428
Zn11	Zn	1.450557	-0.063670	0.769761
Zn12	Zn	1.783890	0.269664	1.103094
O13	O	1.181771	-0.338312	0.371920
O14	O	1.515104	-0.004979	0.705254
O15	O	1.848438	0.328354	1.038587
O16	O	1.359932	-0.295174	0.423583
O17	O	1.693265	0.038159	0.756916
O18	O	2.026599	0.371492	1.090250
O19	O	1.233334	-0.381494	0.189566
O20	O	1.566668	-0.048161	0.522900
O21	O	1.900001	0.285172	0.856233
O22	O	1.124647	-0.181328	0.330119
O23	O	1.457981	0.152005	0.663452
O24	O	1.791314	0.485338	0.996786
O25	O	1.364080	-0.381468	0.320297
O26	O	1.697413	-0.048135	0.653630
O27	O	2.030747	0.285198	0.986963
O28	O	1.223711	-0.181309	0.429171
O29	O	1.557045	0.152025	0.762505
O30	O	1.890378	0.485358	1.095838
O31	O	1.130122	-0.295220	0.193800
O32	O	1.463455	0.038113	0.527134
O33	O	1.796789	0.371447	0.860467
O34	O	0.999438	-0.295181	0.324503
O35	O	1.332772	0.038152	0.657836
O36	O	1.666105	0.371486	0.991169
O37	O	1.134379	-0.381400	0.550030
O38	O	1.467712	-0.048066	0.883363
O39	O	1.801046	0.285267	1.216696
O40	O	1.003633	-0.381426	0.419299
O41	O	1.336967	-0.048092	0.752633
O42	O	1.670300	0.285241	1.085966
O43	O	1.229248	-0.295135	0.554285
O44	O	1.562581	0.038198	0.887618
O45	O	1.895915	0.371531	1.220952
O46	O	1.238871	-0.495321	0.314680
O47	O	1.572204	-0.161988	0.648014
O48	O	1.905537	0.171346	0.981347
O49	O	1.139854	-0.495291	0.413711
O50	O	1.473187	-0.161958	0.747045
O51	O	1.806520	0.171375	1.080378
C52	C	0.972280	-0.338302	0.371898
C53	C	1.305613	-0.004969	0.705232
C54	C	1.638946	0.328364	1.038565
C55	C	0.882659	-0.338315	0.371907
C56	C	1.215992	-0.004982	0.705241
C57	C	1.549326	0.328352	1.038574
C58	C	1.190616	-0.520790	0.362959
C59	C	1.523950	-0.187457	0.696293
C60	C	1.857283	0.145877	1.029626
C61	C	1.194474	-0.598855	0.359153
C62	C	1.527808	-0.265521	0.692486
C63	C	1.861141	0.067812	1.025820
C64	C	0.554484	-0.338320	0.371941
C65	C	0.887817	-0.004986	0.705275
C66	C	1.221150	0.328347	1.038608
C67	C	0.645792	-0.338316	0.371929
C68	C	0.979125	-0.004983	0.705263
C69	C	1.312459	0.328350	1.038596
C70	C	0.718568	-0.338318	0.371924
C71	C	1.051902	-0.004984	0.705257
C72	C	1.385235	0.328349	1.038590
C73	C	0.809883	-0.338314	0.371913
C74	C	1.143216	-0.004980	0.705246
C75	C	1.476549	0.328353	1.038580
C76	C	1.144699	-0.635540	0.408882
C77	C	1.478032	-0.302206	0.742215
C78	C	1.811365	0.031127	1.075549
C79	C	1.148327	-0.708890	0.405302
C80	C	1.481660	-0.375556	0.738635
C81	C	1.814994	-0.042223	1.071969
C82	C	1.201736	-0.745553	0.351996
C83	C	1.535069	-0.412220	0.685330
C84	C	1.868402	-0.078887	1.018663
C85	C	1.251514	-0.708863	0.302262
C86	C	1.584847	-0.375530	0.635595
C87	C	1.918180	-0.042196	0.968929
C88	C	1.247880	-0.635514	0.305838
C89	C	1.581214	-0.302181	0.639172
C90	C	1.914547	0.031152	0.972505
C91	C	1.215283	-0.967019	0.338617
C92	C	1.548616	-0.633685	0.671950
C93	C	1.881949	-0.300352	1.005284
C94	C	1.218914	-1.040372	0.335046
C95	C	1.552247	-0.707039	0.668379
C96	C	1.885580	-0.373706	1.001713
C97	C	1.115726	-1.040394	0.438085
C98	C	1.449059	-0.707061	0.771419
C99	C	1.782392	-0.373727	1.104752
C100	C	1.112101	-0.967044	0.441661
C101	C	1.445434	-0.633710	0.774994
C102	C	1.778767	-0.300377	1.108327
C103	C	1.161875	-0.930360	0.391923
C104	C	1.495209	-0.597027	0.725256
C105	C	1.828542	-0.263693	1.058590
C106	C	1.205448	-0.820529	0.348338
C107	C	1.538781	-0.487196	0.681671
C108	C	1.872114	-0.153862	1.015004
C109	C	1.158159	-0.855386	0.395578
C110	C	1.491492	-0.522052	0.728912
C111	C	1.824826	-0.188719	1.062245
C112	C	1.392080	-0.338323	0.371943
C113	C	1.725414	-0.004990	0.705276
C114	C	2.058747	0.328344	1.038610
C115	C	1.481702	-0.338327	0.371953
C116	C	1.815035	-0.004994	0.705286
C117	C	2.148368	0.328339	1.038619
C118	C	1.181821	-0.338260	0.582232
C119	C	1.515154	-0.004927	0.915565
C120	C	1.848487	0.328407	1.248899
C121	C	1.181842	-0.338238	0.671854
C122	C	1.515175	-0.004904	1.005188
C123	C	1.848509	0.328429	1.338521
C124	C	1.172913	-0.155122	0.380934
C125	C	1.506246	0.178211	0.714267
C126	C	1.839579	0.511544	1.047601
C127	C	1.169138	-0.077057	0.384775
C128	C	1.502471	0.256276	0.718108
C129	C	1.835805	0.589609	1.051442
C130	C	1.181765	-0.338314	0.162429
C131	C	1.515098	-0.004980	0.495763
C132	C	1.848432	0.328353	0.829096
C133	C	1.181890	-0.338138	0.072817
C134	C	1.515224	-0.004805	0.406151
C135	C	1.848557	0.328528	0.739484
C136	C	1.181875	-0.338159	1.000034
C137	C	1.515209	-0.004826	1.333367
C138	C	1.848542	0.328508	1.666701
C139	C	1.181864	-0.338183	0.908724
C140	C	1.515197	-0.004850	1.242058
C141	C	1.848531	0.328483	1.575391
C142	C	1.181859	-0.338199	0.835947
C143	C	1.515192	-0.004866	1.169280
C144	C	1.848526	0.328468	1.502614
C145	C	1.181847	-0.338222	0.744631
C146	C	1.515180	-0.004889	1.077965
C147	C	1.848513	0.328445	1.411298
H148	H	1.101211	-0.605693	0.452293
H149	H	1.434544	-0.272360	0.785626
H150	H	1.767878	0.060974	1.118959
H151	H	1.107787	-0.738756	0.445789
H152	H	1.441120	-0.405422	0.779123
H153	H	1.774454	-0.072089	1.112456
H154	H	1.068611	-0.937194	0.485066
H155	H	1.401945	-0.603860	0.818400
H156	H	1.735278	-0.270527	1.151733
O157	O	1.309120	-0.748417	0.244777
O158	O	1.642454	-0.415084	0.578111
O159	O	1.975787	-0.081750	0.911444
H160	H	1.294635	-0.734403	0.182161
H161	H	1.627968	-0.401069	0.515494
H162	H	1.961301	-0.067736	0.848828
H163	H	1.075201	-1.070270	0.478578
H164	H	1.408534	-0.736936	0.811911
H165	H	1.741868	-0.403603	1.145245
O166	O	1.276515	-1.079921	0.277544
O167	O	1.609849	-0.746588	0.610877
O168	O	1.943182	-0.413255	0.944211
H169	H	1.310511	-1.042091	0.243552
H170	H	1.643844	-0.708758	0.576886
H171	H	1.977177	-0.375424	0.910219
H172	H	1.255813	-0.937156	0.298120
H173	H	1.589146	-0.603823	0.631453
H174	H	1.922479	-0.270490	0.964787
O175	O	1.301571	-0.595941	0.252208
O176	O	1.634904	-0.262608	0.585541
O177	O	1.968238	0.070725	0.918874
H178	H	1.339327	-0.633757	0.214546
H179	H	1.672660	-0.300424	0.547879
H180	H	2.005993	0.032910	0.881213
O181	O	1.100550	-0.815850	0.453071
O182	O	1.433884	-0.482517	0.786405
O183	O	1.767217	-0.149184	1.119738
H184	H	1.134961	-0.782382	0.495760
H185	H	1.468294	-0.449048	0.829093
H186	H	1.801628	-0.115715	1.162427
H187	H	1.248934	-0.850389	0.304937
H188	H	1.582267	-0.517055	0.638270
H189	H	1.915601	-0.183722	0.971603
