data_functionalizedCrystal
_audit_creation_method	'MofGen! by Chris Wilmer'
_symmetry_space_group_name_H-M	'P1'
_symmetry_Int_Tables_number	1
_symmetry_cell_setting	triclinic
loop_
_symmetry_equiv_pos_as_xyz
  x,y,z
_cell_length_a	12.759401
_cell_length_b	12.645330
_cell_length_c	12.759393
_cell_angle_alpha	89.969748
_cell_angle_beta	89.982620
_cell_angle_gamma	90.017853
loop_
_atom_site_label
_atom_site_type_symbol
_atom_site_fract_x
_atom_site_fract_y
_atom_site_fract_z
Zn1	Zn	1.606222	-0.421970	-0.593992
Zn2	Zn	1.606111	-0.599275	-0.418317
Zn3	Zn	1.430527	-0.422026	-0.418332
Zn4	Zn	1.430503	-0.599193	-0.593959
O5	O	1.518341	-0.510616	-0.506150
O6	O	1.753228	-0.445501	-0.570697
O7	O	1.582782	-0.575820	-0.271298
O8	O	1.453890	-0.273672	-0.441654
O9	O	1.753146	-0.575766	-0.441629
O10	O	1.582972	-0.273630	-0.570711
O11	O	1.453782	-0.445597	-0.271309
O12	O	1.283503	-0.445517	-0.441621
O13	O	1.453849	-0.575626	-0.740984
O14	O	1.283486	-0.575680	-0.570653
O15	O	1.582949	-0.445421	-0.741009
O16	O	1.582759	-0.747611	-0.441596
O17	O	1.453741	-0.747551	-0.570639
C18	C	1.245373	-0.510596	-0.506136
C19	C	1.128597	-0.510614	-0.506155
C20	C	1.073753	-0.578498	-0.573231
C21	C	0.964029	-0.578512	-0.573242
C22	C	0.964002	-0.442753	-0.439092
C23	C	1.073724	-0.442735	-0.439087
C24	C	1.128626	-0.646377	-0.640298
C25	C	1.073782	-0.714268	-0.707379
C26	C	0.964058	-0.714281	-0.707390
C27	C	0.909178	-0.646404	-0.640321
C28	C	1.518264	-0.786046	-0.506135
C29	C	1.518327	-0.903876	-0.506164
C30	C	1.437497	-1.071446	-0.587595
C31	C	1.437084	-0.948886	-0.587334
C32	C	1.488356	-0.948480	-0.395443
C33	C	1.487863	-1.071079	-0.395937
C34	C	1.629624	-1.070962	-0.534556
C35	C	1.628942	-0.948355	-0.536977
C36	C	1.792374	-0.510636	-0.506165
C37	C	1.909151	-0.510645	-0.506171
C38	C	1.518409	-0.510508	-0.780183
C39	C	1.518438	-0.510462	-0.896960
C40	C	1.518446	-0.234111	-0.506188
C41	C	1.518491	-0.116281	-0.506204
C42	C	1.451296	-0.442642	-0.951834
C43	C	1.451328	-0.442610	-1.061558
C44	C	1.585653	-0.578222	-1.061525
C45	C	1.585615	-0.578258	-0.951803
C46	C	1.384119	-0.374846	-0.896991
C47	C	1.316973	-0.307020	-0.951865
C48	C	1.317005	-0.306988	-1.061589
C49	C	1.384183	-0.374783	-1.116439
C50	C	1.518333	-0.510647	-0.233183
C51	C	1.518508	-0.510394	-0.116407
H52	H	0.919407	-0.769553	-0.762018
H53	H	1.692464	-0.917710	-0.482013
H54	H	0.919310	-0.387491	-0.384487
H55	H	1.651544	-0.919197	-0.618463
H56	H	1.217969	-0.646375	-0.640294
C57	C	1.484183	-0.347738	-1.273627
C58	C	1.384217	-0.374758	-1.237051
H59	H	1.484205	-0.347728	-1.348086
H60	H	1.502358	-0.279341	-1.248829
H61	H	1.533780	-0.397834	-1.248785
H62	H	1.334622	-0.324657	-1.261887
H63	H	1.366030	-0.443165	-1.261860
H64	H	1.354695	-0.919654	-0.568550
C65	C	1.636770	-0.757724	-1.095285
C66	C	1.659498	-0.652730	-1.121817
H67	H	1.682359	-0.803719	-1.132512
H68	H	1.646363	-0.767449	-1.022095
H69	H	1.566178	-0.773214	-1.113273
H70	H	1.730088	-0.637238	-1.103822
H71	H	1.649914	-0.643001	-1.195023
C72	C	1.139131	-0.255314	-1.095367
C73	C	1.243193	-0.232438	-1.121902
H74	H	1.093565	-0.209281	-1.132595
H75	H	1.123736	-0.326524	-1.113341
H76	H	1.129516	-0.245635	-1.022168
H77	H	1.252809	-0.242126	-1.195100
H78	H	1.258593	-0.161212	-1.103934
H79	H	1.456076	-1.100850	-0.669964
H80	H	1.689966	-1.099955	-0.475275
C81	C	1.645191	-0.638522	-0.783589
C82	C	1.659418	-0.652804	-0.891476
H83	H	1.690749	-0.684553	-0.746348
H84	H	1.660593	-0.567311	-0.765628
H85	H	1.574583	-0.654036	-0.765622
H86	H	1.730025	-0.637284	-0.909444
H87	H	1.644024	-0.724032	-0.909444
C88	C	1.241991	-0.774532	-0.766925
C89	C	1.134102	-0.788874	-0.781100
H90	H	1.279226	-0.820597	-0.812436
H91	H	1.259987	-0.703330	-0.782423
H92	H	1.259931	-0.789962	-0.696303
H93	H	1.116161	-0.773436	-0.851721
H94	H	1.116099	-0.860092	-0.765609
H95	H	0.819833	-0.646411	-0.640345
C96	C	1.175626	-0.292314	-0.828469
C97	C	1.243131	-0.232508	-0.891575
H98	H	1.130043	-0.246310	-0.791246
H99	H	1.135435	-0.338474	-0.871263
H100	H	1.215624	-0.332704	-0.780089
H101	H	1.203133	-0.192123	-0.939960
H102	H	1.283326	-0.186329	-0.848777
H103	H	1.118379	-0.387450	-0.384476
H104	H	1.455835	-0.918724	-0.669433
H105	H	1.384088	-0.374862	-0.807648
H106	H	1.406624	-1.099773	-0.371918
C107	C	1.288970	-1.170639	-0.648290
C108	C	1.326970	-1.113162	-0.562566
H109	H	1.220739	-1.196400	-0.632831
H110	H	1.286003	-1.126007	-0.708113
H111	H	1.334389	-1.228502	-0.662052
H112	H	1.281554	-1.055295	-0.548809
H113	H	1.329929	-1.157797	-0.502726
C114	C	1.609898	-1.024686	-0.260322
C115	C	1.564027	-1.111132	-0.311269
H116	H	1.656907	-1.049412	-0.208045
H117	H	1.647146	-0.983002	-0.309836
H118	H	1.556747	-0.983027	-0.228516
H119	H	1.617178	-1.152787	-0.343081
H120	H	1.526778	-1.152833	-0.261747
H121	H	1.545478	-0.919328	-0.333143
H122	H	1.656964	-1.101798	-0.613922
C123	C	1.311943	-0.992760	-0.346707
C124	C	1.379825	-0.907178	-0.362426
H125	H	1.244942	-0.967261	-0.326323
H126	H	1.305666	-1.031867	-0.409931
H127	H	1.339179	-1.037182	-0.293193
H128	H	1.352593	-0.862760	-0.415946
H129	H	1.386099	-0.868054	-0.299195
