data_functionalizedCrystal
_audit_creation_method	'MofGen! by Chris Wilmer'
_symmetry_space_group_name_H-M	'P1'
_symmetry_Int_Tables_number	1
_symmetry_cell_setting	triclinic
loop_
_symmetry_equiv_pos_as_xyz
  x,y,z
_cell_length_a	6.817900
_cell_length_b	15.300992
_cell_length_c	14.125465
_cell_angle_alpha	95.705154
_cell_angle_beta	100.398878
_cell_angle_gamma	104.175078
loop_
_atom_site_label
_atom_site_type_symbol
_atom_site_fract_x
_atom_site_fract_y
_atom_site_fract_z
V1	V	-3.994724	-0.123983	-0.300264
O2	O	-3.979323	0.006755	-0.294250
O3	O	-3.949850	-0.246604	-0.298497
O4	O	-3.930804	-0.121726	-0.431089
O5	O	-3.998500	-0.118987	-0.160741
V6	V	-4.479906	-0.108386	-0.283541
O7	O	-4.252343	-0.158195	-0.336947
O8	O	-4.672484	-0.074174	-0.246858
O9	O	-4.301574	0.014234	-0.285308
O10	O	-4.612705	-0.239124	-0.289555
O11	O	-4.593527	-0.113382	-0.423065
O12	O	-4.320620	-0.110643	-0.152717
C13	C	-3.796211	-0.276507	-0.293835
C14	C	-3.840705	-0.376749	-0.293262
C15	C	-3.831423	-0.411193	-0.204857
C16	C	-3.873249	-0.505382	-0.204323
C17	C	-3.924342	-0.565124	-0.292193
C18	C	-3.933630	-0.530675	-0.380605
C19	C	-3.891818	-0.436488	-0.381139
C20	C	-4.020771	-0.726989	-0.379486
C21	C	-4.062581	-0.821182	-0.378952
C22	C	-4.002201	-0.795882	-0.202669
C23	C	-3.960390	-0.701696	-0.203203
C24	C	-3.969676	-0.667252	-0.291615
C25	C	-3.771915	-0.117212	-0.462967
C26	C	-3.800960	-0.116178	-0.569919
C27	C	-3.854199	-0.114282	-0.765738
C28	C	-4.039801	-0.118085	-0.818068
C29	C	-4.069425	-0.117030	-0.927028
C30	C	-3.824566	-0.115337	-0.656768
C31	C	-4.118555	0.044133	-0.289968
C32	C	-4.053299	0.144374	-0.290547
C33	C	-4.142852	-0.115160	-0.120833
C34	C	-4.093045	-0.116190	-0.013881
H35	H	-3.975247	-0.579325	-0.452151
H36	H	-3.789804	-0.362555	-0.133302
H37	H	-3.717560	-0.110235	-0.802766
H38	H	-3.994633	-0.823930	-0.130681
C39	C	-3.902279	-0.399221	-0.477202
C40	C	-4.102112	-0.434102	-0.534796
C41	C	-4.111831	-0.399804	-0.623303
H42	H	-3.870211	-0.334580	-0.465077
H43	H	-3.805399	-0.416952	-0.510308
H44	H	-4.198962	-0.416366	-0.501697
H45	H	-4.134222	-0.498740	-0.546948
H46	H	-4.014951	-0.417535	-0.656409
H47	H	-4.079755	-0.335164	-0.611168
H48	H	-4.247410	-0.423472	-0.662395
C49	C	-3.862950	-0.542598	-0.108235
C50	C	-3.809187	-0.470117	-0.031395
C51	C	-3.799654	-0.504363	0.057138
H52	H	-3.994149	-0.581723	-0.107296
H53	H	-3.761714	-0.575859	-0.101235
H54	H	-3.910418	-0.436870	-0.038394
H55	H	-3.677986	-0.430985	-0.032303
H56	H	-3.698417	-0.537625	0.064139
H57	H	-3.930857	-0.543489	0.058068
H58	H	-3.763157	-0.455191	0.109285
H59	H	-3.918776	-0.653054	-0.131651
C60	C	-4.118159	-0.885903	-0.474459
C61	C	-4.117427	-0.835585	-0.552004
C62	C	-4.168654	-0.895176	-0.640001
H63	H	-4.019595	-0.920272	-0.474987
H64	H	-4.252001	-0.926084	-0.481029
H65	H	-3.983604	-0.795420	-0.545436
H66	H	-4.215992	-0.801219	-0.551507
H67	H	-4.302496	-0.935357	-0.646571
H68	H	-4.070083	-0.929542	-0.640519
H69	H	-4.168182	-0.861045	-0.692625
H70	H	-4.028369	-0.698950	-0.451481
C71	C	-4.222003	-0.123307	-0.768720
C72	C	-4.299740	-0.047872	-0.782867
C73	C	-4.467556	-0.052649	-0.737407
H74	H	-4.327472	-0.177745	-0.796023
H75	H	-4.177621	-0.123264	-0.700971
H76	H	-4.344127	-0.047923	-0.850602
H77	H	-4.194325	0.006577	-0.755561
H78	H	-4.423174	-0.052606	-0.669658
H79	H	-4.573009	-0.107090	-0.764714
H80	H	-4.520309	-0.001464	-0.746992
