data_functionalizedCrystal
_audit_creation_method	'MofGen! by Chris Wilmer'
_symmetry_space_group_name_H-M	'P1'
_symmetry_Int_Tables_number	1
_symmetry_cell_setting	triclinic
loop_
_symmetry_equiv_pos_as_xyz
  x,y,z
_cell_length_a	8.634740
_cell_length_b	14.044190
_cell_length_c	13.101039
_cell_angle_alpha	86.336293
_cell_angle_beta	93.880810
_cell_angle_gamma	96.881042
loop_
_atom_site_label
_atom_site_type_symbol
_atom_site_fract_x
_atom_site_fract_y
_atom_site_fract_z
O1	O	2.096989	0.308462	0.085250
O2	O	2.596989	0.808462	0.585250
O3	O	1.644426	0.282218	0.085249
O4	O	2.144426	0.782218	0.585249
O5	O	1.863907	0.156735	0.085229
O6	O	2.363907	0.656735	0.585229
O7	O	1.877508	0.433944	0.085270
O8	O	2.377508	0.933944	0.585270
O9	O	1.848162	0.165756	-0.085199
O10	O	2.348162	0.665756	0.414801
O11	O	1.628681	0.291238	-0.085180
O12	O	2.128681	0.791238	0.414820
O13	O	2.081244	0.317483	-0.085178
O14	O	2.581244	0.817483	0.414822
Zn15	Zn	1.852463	0.305793	-0.112238
Zn16	Zn	2.352463	0.805793	0.387762
Zn17	Zn	1.873208	0.293907	0.112309
Zn18	Zn	2.373208	0.793907	0.612309
O19	O	1.861763	0.442965	-0.085159
O20	O	2.361763	0.942965	0.414841
C21	C	1.578286	0.280783	0.000034
C22	C	2.078286	0.780783	0.500034
C23	C	1.404663	0.263056	0.000032
C24	C	1.904663	0.763056	0.500032
C25	C	1.850086	0.125388	0.000012
C26	C	2.350086	0.625388	0.500012
C27	C	1.832342	0.018542	0.000003
C28	C	2.332342	0.518542	0.500003
C29	C	1.925747	-0.223216	0.000043
C30	C	2.425747	0.276784	0.500043
C31	C	1.799931	-0.177078	0.000036
C32	C	2.299931	0.322922	0.500036
C33	C	1.817969	-0.068225	0.000018
C34	C	2.317969	0.431775	0.500018
C35	C	1.907712	-0.332079	0.000062
C36	C	2.407712	0.167921	0.500062
C37	C	2.147385	0.318917	0.000039
C38	C	2.647385	0.818917	0.500039
C39	C	2.321009	0.336644	0.000047
C40	C	2.821009	0.836644	0.500047
C41	C	1.875585	0.474312	0.000061
C42	C	2.375585	0.974312	0.500061
C43	C	1.893330	0.581158	0.000076
C44	C	2.393330	1.081158	0.500076
N45	N	1.838316	0.313904	-0.265486
N46	N	2.338316	0.813904	0.234514
C47	C	1.819071	0.324950	-0.474526
C48	C	2.319071	0.824950	0.025474
C49	C	1.906607	0.274747	-0.525410
C50	C	2.406607	0.774747	-0.025410
C51	C	1.895898	0.280892	-0.641727
C52	C	2.395898	0.780892	-0.141727
C53	C	1.829777	0.318805	-0.358198
C54	C	2.329777	0.818805	0.141802
N55	N	1.887366	0.285789	0.265556
N56	N	2.387366	0.785789	0.765556
H57	H	1.343452	0.186486	0.000050
H58	H	1.843452	0.686486	0.500050
H59	H	1.678670	-0.219328	0.000041
H60	H	2.178670	0.280672	0.500041
H61	H	2.046998	-0.180969	0.000033
H62	H	2.546998	0.319031	0.500033
O63	O	1.393846	0.428023	0.000195
O64	O	1.893846	0.928023	0.500195
C65	C	1.358280	0.471478	0.088485
C66	C	1.858280	0.971478	0.588485
H67	H	1.244373	0.433527	0.117913
H68	H	1.744373	0.933527	0.617913
H69	H	1.345000	0.550425	0.068648
H70	H	1.845000	1.050425	0.568648
H71	H	1.456705	0.465622	0.150286
H72	H	1.956705	0.965622	0.650286
H73	H	1.989592	0.227152	-0.481615
H74	H	2.489592	0.727152	0.018385
O75	O	1.720216	0.381720	-0.526922
O76	O	2.220216	0.881720	-0.026922
C77	C	1.731390	0.375284	-0.633076
C78	C	2.231390	0.875284	-0.133076
H79	H	1.849200	0.351402	-0.647589
H80	H	2.349200	0.851402	-0.147589
H81	H	1.720533	0.448536	-0.673934
H82	H	2.220533	0.948536	-0.173934
H83	H	1.633474	0.320712	-0.663543
H84	H	2.133474	0.820712	-0.163543
