data_functionalizedCrystal
_audit_creation_method	'MofGen! by Chris Wilmer'
_symmetry_space_group_name_H-M	'P1'
_symmetry_Int_Tables_number	1
_symmetry_cell_setting	triclinic
loop_
_symmetry_equiv_pos_as_xyz
  x,y,z
_cell_length_a	14.519709
_cell_length_b	10.654559
_cell_length_c	9.730223
_cell_angle_alpha	89.998315
_cell_angle_beta	89.994593
_cell_angle_gamma	95.915655
loop_
_atom_site_label
_atom_site_type_symbol
_atom_site_fract_x
_atom_site_fract_y
_atom_site_fract_z
O1	O	-1.224720	0.164617	-0.114112
O2	O	-0.956344	0.184003	-0.114154
O3	O	-1.096698	-0.008488	-0.114122
O4	O	-1.084365	0.357108	-0.114144
O5	O	-1.096696	-0.008483	0.114458
O6	O	-0.956342	0.184008	0.114426
O7	O	-1.224718	0.164622	0.114468
Zn8	Zn	-1.090530	0.174316	0.150739
Zn9	Zn	-1.090532	0.174309	-0.150425
O10	O	-1.084364	0.357113	0.114436
C11	C	-0.921978	0.183102	0.000131
C12	C	-0.819583	0.180395	0.000115
C13	C	-1.259083	0.165523	0.000180
C14	C	-1.361479	0.168230	0.000187
C15	C	-1.095790	-0.055274	0.000168
C16	C	-1.093076	-0.194691	0.000167
C17	C	-0.444635	0.170428	0.000178
C18	C	-0.548958	0.173196	0.000160
C19	C	-0.632106	0.175411	0.000145
C20	C	-0.736435	0.178179	0.000130
C21	C	-1.085272	0.403899	0.000143
C22	C	-1.087986	0.543316	0.000135
N23	N	-1.090535	0.174319	0.356275
C24	C	-1.089255	0.608826	-0.124457
C25	C	-1.091803	0.739823	-0.124442
C26	C	-1.091809	0.739790	0.124768
C27	C	-1.089267	0.608794	0.124752
C28	C	-1.089248	0.608847	-0.268337
C29	C	-1.091796	0.739844	-0.268322
N30	N	-1.090534	0.174296	-0.355961
C31	C	-1.152700	0.089113	0.428216
C32	C	-1.152698	0.089098	0.572099
C33	C	-1.028362	0.259506	0.572088
C34	C	-1.028361	0.259514	0.428208
C35	C	-1.224487	-0.009267	0.428223
C36	C	-1.224484	-0.009283	0.572106
H37	H	-1.092853	0.793118	0.226227
O38	O	-1.000157	0.570522	-0.327487
H39	H	-1.001771	0.466167	-0.325051
H40	H	-1.295355	0.011554	0.611166
O41	O	-1.203618	-0.136922	0.376474
H42	H	-1.193392	-0.199424	0.465246
O43	O	-1.313183	0.030369	0.369101
H44	H	-1.360210	0.051373	0.454114
H45	H	-1.088247	0.555459	0.226207
H46	H	-1.159057	0.768777	-0.312959
H47	H	-1.028059	0.786744	-0.323564
H48	H	-0.977733	0.328885	0.369635
O49	O	-0.961312	0.351404	0.649670
H50	H	-0.971759	0.337090	0.761806
O51	O	-1.194837	-0.129854	0.631197
H52	H	-1.123613	-0.142057	0.595899
O53	O	-1.173674	0.546728	-0.341480
H54	H	-1.217029	0.620204	-0.377267
