data_functionalizedCrystal
_audit_creation_method	'MofGen! by Chris Wilmer'
_symmetry_space_group_name_H-M	'P1'
_symmetry_Int_Tables_number	1
_symmetry_cell_setting	triclinic
loop_
_symmetry_equiv_pos_as_xyz
  x,y,z
_cell_length_a	12.759401
_cell_length_b	16.625545
_cell_length_c	12.759393
_cell_angle_alpha	90.033904
_cell_angle_beta	90.018496
_cell_angle_gamma	90.025719
loop_
_atom_site_label
_atom_site_type_symbol
_atom_site_fract_x
_atom_site_fract_y
_atom_site_fract_z
Zn1	Zn	1.606176	-0.320951	0.593964
Zn2	Zn	1.606037	-0.455807	0.418277
Zn3	Zn	1.430478	-0.320993	0.418304
Zn4	Zn	1.430433	-0.455745	0.593919
O5	O	1.518281	-0.388374	0.506116
O6	O	1.753179	-0.338848	0.570667
O7	O	1.582709	-0.437968	0.271260
O8	O	1.453862	-0.208155	0.441636
O9	O	1.753077	-0.437927	0.441590
O10	O	1.582946	-0.208124	0.570693
O11	O	1.453727	-0.338920	0.271279
O12	O	1.283451	-0.338860	0.441591
O13	O	1.453786	-0.437821	0.740946
O14	O	1.283418	-0.437862	0.570615
O15	O	1.582903	-0.338788	0.740979
O16	O	1.582666	-0.568632	0.441546
O17	O	1.453651	-0.568586	0.570589
C18	C	1.245314	-0.388359	0.506102
C19	C	1.128537	-0.388372	0.506120
C20	C	1.518167	-0.597865	0.506083
C21	C	1.518214	-0.687486	0.506104
C22	C	1.073686	-0.440005	0.573192
C23	C	0.963962	-0.440015	0.573203
C24	C	0.963950	-0.336758	0.439063
C25	C	1.073672	-0.336744	0.439058
C26	C	1.073691	-0.499623	0.650634
C27	C	0.963967	-0.499633	0.650645
C28	C	1.518255	-0.760268	0.506125
C29	C	1.518316	-0.851577	0.506148
C30	C	1.518371	-0.924353	0.506161
C31	C	1.518431	-1.015668	0.506183
C32	C	1.792314	-0.388390	0.506131
C33	C	1.909091	-0.388396	0.506137
C34	C	1.518355	-0.388293	0.780149
C35	C	1.518386	-0.388258	0.896926
C36	C	1.518424	-0.178065	0.506172
C37	C	1.518485	-0.088444	0.506196
C38	C	1.518268	-0.388397	0.233149
C39	C	1.518441	-0.388204	0.116372
C40	C	1.585627	-0.336687	0.951807
C41	C	1.585652	-0.336657	1.061531
C42	C	1.451192	-0.439778	1.061484
C43	C	1.451163	-0.439803	0.951761
C44	C	1.663259	-0.277153	0.951836
C45	C	1.663284	-0.277124	1.061560
H46	H	1.118329	-0.294694	0.384448
H47	H	0.929975	-0.477343	0.727998
O48	O	1.637117	-0.202687	0.916382
C49	C	1.507074	-0.097660	0.913130
C50	C	1.536538	-0.182003	0.953332
H51	H	1.425764	-0.080904	0.943006
H52	H	1.506971	-0.097645	0.823781
H53	H	1.566719	-0.051963	0.942903
H54	H	1.476922	-0.227748	0.923636
H55	H	1.536674	-0.181951	1.042680
O56	O	0.910490	-0.286691	0.373946
C57	C	0.741453	-0.240919	0.314542
C58	C	0.801862	-0.297671	0.388329
H59	H	0.653617	-0.249764	0.326161
H60	H	0.762911	-0.255005	0.229771
H61	H	0.763121	-0.175925	0.333124
H62	H	0.780227	-0.362684	0.369842
H63	H	0.780399	-0.283516	0.473079
O64	O	1.385727	-0.489775	0.898397
C65	C	1.243884	-0.500619	0.774453
C66	C	1.317912	-0.443933	0.834843
H67	H	1.189051	-0.463579	0.723038
H68	H	1.195766	-0.537441	0.832442
H69	H	1.292091	-0.542813	0.723113
H70	H	1.269786	-0.401690	0.886184
H71	H	1.366033	-0.407167	0.776797
H72	H	0.934156	-0.562065	0.628710
H73	H	1.103503	-0.482970	0.732041
H74	H	1.107691	-0.558911	0.621346
H75	H	1.396460	-0.481742	1.106144
H76	H	1.740525	-0.299539	0.917799
H77	H	1.634185	-0.217793	1.095611
O78	O	1.760395	-0.297129	1.096917
C79	C	1.937343	-0.333503	1.051102
C80	C	1.827415	-0.310875	1.010918
H81	H	1.991565	-0.344607	0.981592
H82	H	1.932067	-0.390384	1.100680
H83	H	1.969795	-0.282207	1.100795
H84	H	1.794899	-0.362118	0.961182
H85	H	1.832757	-0.253969	0.961397
