data_functionalizedCrystal
_audit_creation_method	'MofGen! by Chris Wilmer'
_symmetry_space_group_name_H-M	'P1'
_symmetry_Int_Tables_number	1
_symmetry_cell_setting	triclinic
loop_
_symmetry_equiv_pos_as_xyz
  x,y,z
_cell_length_a	12.827893
_cell_length_b	12.759394
_cell_length_c	12.827885
_cell_angle_alpha	90.029530
_cell_angle_beta	90.019272
_cell_angle_gamma	90.013826
loop_
_atom_site_label
_atom_site_type_symbol
_atom_site_fract_x
_atom_site_fract_y
_atom_site_fract_z
Zn1	Zn	1.597681	-0.418216	0.590851
Zn2	Zn	2.097681	0.081784	1.090851
Zn3	Zn	1.597580	-0.593932	0.416112
Zn4	Zn	2.097580	-0.093932	0.916112
Zn5	Zn	1.422922	-0.418268	0.416124
Zn6	Zn	1.922922	0.081732	0.916124
Zn7	Zn	1.422912	-0.593854	0.590812
Zn8	Zn	1.922912	-0.093854	1.090812
O9	O	1.510274	-0.506067	0.503474
O10	O	2.010274	-0.006067	1.003474
O11	O	1.743903	-0.441537	0.567682
O12	O	2.243903	0.058463	1.067682
O13	O	1.574373	-0.570684	0.269877
O14	O	2.074373	-0.070684	0.769877
O15	O	1.446151	-0.271240	0.439324
O16	O	1.946151	0.228760	0.939324
O17	O	1.743829	-0.570634	0.439302
O18	O	2.243829	-0.070634	0.939302
O19	O	1.574545	-0.271202	0.567694
O20	O	2.074545	0.228798	1.067694
O21	O	1.446053	-0.441624	0.269886
O22	O	1.946053	0.058376	0.769886
O23	O	1.276685	-0.441548	0.439286
O24	O	1.776685	0.058452	0.939286
O25	O	1.446134	-0.570501	0.737053
O26	O	1.946134	-0.070501	1.237053
O27	O	1.276677	-0.570551	0.567628
O28	O	1.776677	-0.070551	1.067628
O29	O	1.574535	-0.441461	0.737081
O30	O	2.074535	0.058539	1.237081
O31	O	1.574363	-0.740943	0.439264
O32	O	2.074363	-0.240943	0.939264
O33	O	1.446036	-0.740885	0.567616
O34	O	1.946036	-0.240885	1.067616
C35	C	1.238764	-0.506047	0.503455
C36	C	1.738764	-0.006047	1.003455
C37	C	1.122611	-0.506064	0.503471
C38	C	1.622611	-0.006064	1.003471
C39	C	1.510216	-0.779035	0.503457
C40	C	2.010216	-0.279035	1.003457
C41	C	1.510286	-0.895812	0.503485
C42	C	2.010286	-0.395812	1.003485
C43	C	1.070850	-0.569998	0.566881
C44	C	1.570850	-0.069998	1.066881
C45	C	0.950800	-0.570017	0.566899
C46	C	1.450800	-0.070017	1.066899
C47	C	1.643883	-0.895614	0.637257
C48	C	2.143883	-0.395614	1.137257
C49	C	1.710715	-0.950376	0.704152
C50	C	2.210715	-0.450376	1.204152
C51	C	1.710777	-1.060098	0.704174
C52	C	2.210777	-0.560098	1.204174
C53	C	1.643998	-1.115060	0.637298
C54	C	2.143998	-0.615060	1.137298
C55	C	1.577167	-1.060298	0.570403
C56	C	2.077167	-0.560298	1.070403
C57	C	1.577114	-0.950574	0.570386
C58	C	2.077114	-0.450574	1.070386
C59	C	1.443566	-1.060495	0.436638
C60	C	1.943566	-0.560495	0.936638
C61	C	1.443508	-0.950774	0.436608
C62	C	1.943508	-0.450774	0.936608
C63	C	1.376787	-1.115457	0.369761
C64	C	1.876787	-0.615457	0.869761
C65	C	1.309959	-1.060695	0.302860
C66	C	1.809959	-0.560695	0.802860
C67	C	1.309901	-0.950967	0.302839
C68	C	1.809901	-0.450967	0.802839
C69	C	1.376676	-0.896012	0.369714
C70	C	1.876676	-0.396012	0.869714
C71	C	1.782844	-0.506089	0.503495
C72	C	2.282844	-0.006089	1.003495
C73	C	1.898997	-0.506098	0.503504
C74	C	2.398997	-0.006098	1.003504
C75	C	1.510345	-0.505967	0.776045
C76	C	2.010345	-0.005967	1.276045
C77	C	1.510375	-0.505924	0.892198
C78	C	2.010375	-0.005924	1.392198
C79	C	1.510360	-0.232034	0.503515
C80	C	2.010360	0.267966	1.003515
C81	C	1.510397	-0.115257	0.503532
C82	C	2.010397	0.384743	1.003532
C83	C	1.510263	-0.506092	0.231965
C84	C	2.010263	-0.006092	0.731965
C85	C	1.510435	-0.505839	0.115812
C86	C	2.010435	-0.005839	0.615812
C87	C	1.573919	-0.442058	0.943997
C88	C	2.073919	0.057942	1.443997
C89	C	1.573952	-0.442012	1.064047
C90	C	2.073952	0.057988	1.564047
H91	H	1.115412	-0.624717	0.621158
H92	H	1.615412	-0.124717	1.121158
H93	H	1.255475	-0.906385	0.248370
H94	H	1.755475	-0.406385	0.748370
Cl95	Cl	0.967709	-0.421587	0.419675
Cl96	Cl	1.467709	0.078413	0.919675
Cl97	Cl	0.882081	-0.654536	0.650714
Cl98	Cl	1.382081	-0.154536	1.150714
H99	H	1.078048	-0.451337	0.449201
H100	H	1.578048	0.048663	0.949201
H101	H	1.628358	-0.387338	1.108593
H102	H	2.128358	0.112662	1.608593
Cl103	Cl	1.794791	-1.128945	0.788273
Cl104	Cl	2.294791	-0.628945	1.288273
H105	H	1.643849	-0.806273	0.637236
H106	H	2.143849	-0.306273	1.137236
Cl107	Cl	1.426440	-0.590271	1.047049
Cl108	Cl	1.926440	-0.090271	1.547049
H109	H	1.644046	-1.204401	0.637331
H110	H	2.144046	-0.704401	1.137331
Cl111	Cl	1.426409	-0.590288	0.960940
Cl112	Cl	1.926409	-0.090288	1.460940
Cl113	Cl	1.377008	-1.253394	0.369646
Cl114	Cl	1.877008	-0.753394	0.869646
Cl115	Cl	1.794651	-0.881277	0.788230
Cl116	Cl	2.294651	-0.381277	1.288230
H117	H	1.376639	-0.806670	0.369699
H118	H	1.876639	-0.306670	0.869699
H119	H	1.255589	-1.105454	0.248419
H120	H	1.755589	-0.605454	0.748419
H121	H	1.628294	-0.387411	0.899467
H122	H	2.128294	0.112589	1.399467
