data_functionalizedCrystal
_audit_creation_method	'MofGen! by Chris Wilmer'
_symmetry_space_group_name_H-M	'P1'
_symmetry_Int_Tables_number	1
_symmetry_cell_setting	triclinic
loop_
_symmetry_equiv_pos_as_xyz
  x,y,z
_cell_length_a	17.038272
_cell_length_b	14.971486
_cell_length_c	13.448316
_cell_angle_alpha	90.006811
_cell_angle_beta	90.000953
_cell_angle_gamma	87.362843
loop_
_atom_site_label
_atom_site_type_symbol
_atom_site_fract_x
_atom_site_fract_y
_atom_site_fract_z
O1	O	-1.037595	-0.194251	-0.082569
O2	O	-0.537595	0.305749	0.417431
O3	O	-0.809961	-0.191166	-0.082598
O4	O	-0.309961	0.308834	0.417402
O5	O	-0.929879	-0.062965	-0.082575
O6	O	-0.429879	0.437035	0.417425
O7	O	-0.917677	-0.322452	-0.082591
O8	O	-0.417677	0.177548	0.417409
O9	O	-0.929864	-0.062955	0.082808
O10	O	-0.429864	0.437045	0.582808
O11	O	-0.809946	-0.191157	0.082786
O12	O	-0.309946	0.308843	0.582786
O13	O	-1.037580	-0.194241	0.082815
O14	O	-0.537580	0.305759	0.582815
Cu15	Cu	-0.923762	-0.192698	0.097901
Cu16	Cu	-0.423762	0.307302	0.597901
Cu17	Cu	-0.923779	-0.192709	-0.097684
Cu18	Cu	-0.423779	0.307291	0.402316
O19	O	-0.917662	-0.322442	0.082793
O20	O	-0.417662	0.177558	0.582793
C21	C	-0.780822	-0.188356	0.000090
C22	C	-0.280822	0.311644	0.500090
C23	C	-0.694019	-0.179986	0.000079
C24	C	-0.194019	0.320014	0.500079
C25	C	-0.929326	-0.029595	0.000116
C26	C	-0.429326	0.470405	0.500116
C27	C	-0.927691	0.069825	0.000115
C28	C	-0.427691	0.569825	0.500115
C29	C	-1.066719	-0.197051	0.000125
C30	C	-0.566719	0.302949	0.500125
C31	C	-1.153522	-0.205421	0.000129
C32	C	-0.653522	0.294579	0.500129
C33	C	-0.643995	-0.256830	0.000076
C34	C	-0.143995	0.243170	0.500076
C35	C	-0.562435	-0.248961	0.000090
C36	C	-0.062435	0.251039	0.500090
C37	C	-0.530901	-0.164246	0.000101
C38	C	-0.030901	0.335754	0.500101
C39	C	-0.580933	-0.087397	0.000108
C40	C	-0.080933	0.412603	0.500108
C41	C	-0.662491	-0.095267	0.000101
C42	C	-0.162491	0.404733	0.500101
C43	C	-0.285111	-0.136442	0.000129
C44	C	0.214889	0.363558	0.500129
C45	C	-0.203547	-0.128577	0.000133
C46	C	0.296453	0.371423	0.500133
C47	C	-0.185054	-0.290142	0.000117
C48	C	0.314946	0.209858	0.500117
C49	C	-0.266615	-0.298005	0.000104
C50	C	0.233385	0.201995	0.500104
C51	C	-0.316639	-0.221155	0.000116
C52	C	0.183361	0.278845	0.500116
C53	C	-0.447535	-0.156200	0.000112
C54	C	0.052465	0.343800	0.500112
C55	C	-0.400004	-0.229202	0.000112
C56	C	0.099996	0.270798	0.500112
C57	C	-0.918215	-0.355812	0.000099
C58	C	-0.418215	0.144188	0.500099
C59	C	-0.919850	-0.455232	0.000094
C60	C	-0.419850	0.044768	0.500094
N61	N	-0.923755	-0.192690	0.235466
N62	N	-0.423755	0.307310	0.735466
C63	C	-0.998140	0.121776	0.000125
C64	C	-0.498140	0.621776	0.500125
C65	C	-0.996598	0.215190	0.000115
C66	C	-0.496598	0.715190	0.500115
C67	C	-0.924607	0.256653	0.000102
C68	C	-0.424607	0.756653	0.500102
C69	C	-0.854153	0.204695	0.000089
C70	C	-0.354153	0.704695	0.500089
C71	C	-0.855695	0.111282	0.000092
C72	C	-0.355695	0.611282	0.500092
C73	C	-0.850944	0.399398	0.000085
C74	C	-0.350944	0.899398	0.500085
C75	C	-0.849402	0.492817	0.000084
C76	C	-0.349402	0.992817	0.500084
C77	C	-0.991847	0.503306	0.000108
C78	C	-0.491847	1.003306	0.500108
C79	C	-0.993389	0.409893	0.000111
C80	C	-0.493389	0.909893	0.500111
C81	C	-0.922935	0.357942	0.000100
C82	C	-0.422935	0.857942	0.500100
N83	N	-0.923793	-0.192711	-0.235248
N84	N	-0.423793	0.307289	0.264752
C85	C	-0.976871	-0.135949	0.287516
C86	C	-0.476871	0.364051	0.787516
C87	C	-0.976876	-0.135948	0.391619
C88	C	-0.476876	0.364052	0.891619
C89	C	-0.923768	-0.192694	0.443670
C90	C	-0.423768	0.307306	0.943670
C91	C	-0.870646	-0.249438	0.391613
C92	C	-0.370646	0.250562	0.891613
C93	C	-0.870638	-0.249433	0.287511
C94	C	-0.370638	0.250567	0.787511
C95	C	-0.870667	-0.249446	0.608593
C96	C	-0.370667	0.250554	1.108593
C97	C	-0.870676	-0.249452	0.712701
C98	C	-0.370676	0.250548	1.212701
C99	C	-0.976906	-0.135961	0.712701
C100	C	-0.476906	0.364039	1.212701
C101	C	-0.976898	-0.135956	0.608599
C102	C	-0.476898	0.364044	1.108599
C103	C	-0.923777	-0.192701	0.556549
C104	C	-0.423777	0.307299	1.056549
H105	H	-0.669662	-0.325813	0.000066
H106	H	-0.169662	0.174187	0.500066
Cl107	Cl	-0.767127	0.045972	0.000076
Cl108	Cl	-0.267127	0.545972	0.500076
Cl109	Cl	-1.080419	0.568616	0.000116
Cl110	Cl	-0.580419	1.068616	0.500116
H111	H	-0.795537	0.238461	0.000072
H112	H	-0.295537	0.738461	0.500072
H113	H	-1.020121	-0.089743	0.245143
H114	H	-0.520121	0.410257	0.745143
Cl115	Cl	-0.803882	-0.320782	0.543162
Cl116	Cl	-0.303882	0.179218	1.043162
H117	H	-1.053965	0.257485	0.000125
H118	H	-0.553965	0.757485	0.500125
H119	H	-0.425682	-0.298176	0.000108
H120	H	0.074318	0.201824	0.500108
H121	H	-0.555252	-0.018421	0.000131
H122	H	-0.055252	0.481579	0.500131
H123	H	-0.421851	-0.087226	0.000149
H124	H	0.078149	0.412774	0.500149
H125	H	-1.020146	-0.089754	0.566220
H126	H	-0.520146	0.410246	1.066220
H127	H	-1.052010	0.376138	0.000128
H128	H	-0.552010	0.876138	0.500128
Cl129	Cl	-1.088648	0.069661	0.000151
Cl130	Cl	-0.588648	0.569661	0.500151
H131	H	-0.827429	-0.295659	0.755076
H132	H	-0.327429	0.204341	1.255076
Cl133	Cl	-0.163906	-0.022071	0.000169
Cl134	Cl	0.336094	0.477929	0.500169
Cl135	Cl	-0.803876	-0.320773	0.457046
Cl136	Cl	-0.303876	0.179227	0.957046
H137	H	-1.020127	-0.089745	0.433998
H138	H	-0.520127	0.410255	0.933998
H139	H	-0.790780	0.526573	0.000089
H140	H	-0.290780	1.026573	0.500089
Cl141	Cl	-0.762371	0.334089	0.000071
Cl142	Cl	-0.262371	0.834089	0.500071
H143	H	-0.292283	-0.366988	0.000084
H144	H	0.207717	0.133012	0.500084
Cl145	Cl	-0.803857	-0.320765	0.222078
Cl146	Cl	-0.303857	0.179235	0.722078
H147	H	-0.521707	-0.311535	0.000085
H148	H	-0.021707	0.188465	0.500085
H149	H	-0.325831	-0.073865	0.000140
H150	H	0.174169	0.426135	0.500140
Cl151	Cl	-1.043687	-0.064627	0.778139
Cl152	Cl	-0.543687	0.435373	1.278139
H153	H	-0.144317	-0.352708	0.000109
H154	H	0.355683	0.147292	0.500109
H155	H	-0.703221	-0.032692	0.000103
H156	H	-0.203221	0.467308	0.500103
