data_functionalizedCrystal
_audit_creation_method	'MofGen! by Chris Wilmer'
_symmetry_space_group_name_H-M	'P1'
_symmetry_Int_Tables_number	1
_symmetry_cell_setting	triclinic
loop_
_symmetry_equiv_pos_as_xyz
  x,y,z
_cell_length_a	16.120297
_cell_length_b	19.805407
_cell_length_c	19.805405
_cell_angle_alpha	90.023727
_cell_angle_beta	92.868750
_cell_angle_gamma	92.879222
loop_
_atom_site_label
_atom_site_type_symbol
_atom_site_fract_x
_atom_site_fract_y
_atom_site_fract_z
Zn1	Zn	-0.471347	1.015338	-0.288932
Zn2	Zn	0.028653	1.515338	0.211068
Zn3	Zn	-0.331929	1.020990	-0.396381
Zn4	Zn	0.168071	1.520990	0.103619
Zn5	Zn	-0.331953	0.907889	-0.283207
Zn6	Zn	0.168047	1.407889	0.216793
Zn7	Zn	-0.471296	0.902118	-0.402077
Zn8	Zn	0.028704	1.402118	0.097923
O9	O	-0.401631	0.961584	-0.342649
O10	O	0.098369	1.461584	0.157351
O11	O	-0.452864	1.110804	-0.303197
O12	O	0.047136	1.610804	0.196803
O13	O	-0.215269	1.010768	-0.376588
O14	O	0.284731	1.510768	0.123412
O15	O	-0.350475	0.922192	-0.189251
O16	O	0.149525	1.422192	0.310749
O17	O	-0.350434	1.114957	-0.382139
O18	O	0.149566	1.614957	0.117861
O19	O	-0.452888	1.001134	-0.193457
O20	O	0.047112	1.501134	0.306543
O21	O	-0.215287	0.927673	-0.293439
O22	O	0.284713	1.427673	0.206561
O23	O	-0.350426	0.812408	-0.298963
O24	O	0.149574	1.312408	0.201037
O25	O	-0.587965	0.912356	-0.391848
O26	O	-0.087965	1.412356	0.108152
O27	O	-0.452801	0.808168	-0.386296
O28	O	0.047199	1.308168	0.113704
O29	O	-0.588003	0.995538	-0.308721
O30	O	-0.088003	1.495538	0.191279
O31	O	-0.350385	1.005172	-0.491852
O32	O	0.149615	1.505172	0.008148
O33	O	-0.452777	0.917837	-0.496037
O34	O	0.047223	1.417837	0.003963
C35	C	-0.401611	0.785729	-0.342627
C36	C	0.098389	1.285729	0.157373
C37	C	-0.401622	0.710496	-0.342635
C38	C	0.098378	1.210496	0.157365
C39	C	-0.455038	0.672987	-0.301609
C40	C	0.044962	1.172987	0.198391
C41	C	-0.455042	0.602298	-0.301613
C42	C	0.044958	1.102298	0.198387
C43	C	-0.401632	0.569120	-0.342646
C44	C	0.098368	1.069120	0.157354
C45	C	-0.348210	0.606635	-0.383673
C46	C	0.151790	1.106635	0.116327
C47	C	-0.348203	0.677322	-0.383665
C48	C	0.151797	1.177322	0.116335
C49	C	-0.348235	0.321560	-0.383704
C50	C	0.151765	0.821560	0.116296
C51	C	-0.348248	0.250868	-0.383711
C52	C	0.151752	0.750868	0.116289
C53	C	-0.455074	0.246537	-0.301652
C54	C	0.044926	0.746537	0.198348
C55	C	-0.455067	0.317224	-0.301645
C56	C	0.044933	0.817224	0.198355
C57	C	-0.401642	0.354732	-0.342669
C58	C	0.098358	0.854732	0.157331
C59	C	-0.401638	0.431381	-0.342663
C60	C	0.098362	0.931381	0.157337
C61	C	-0.401640	0.492473	-0.342656
C62	C	0.098360	0.992473	0.157344
C63	C	-0.619079	0.952673	-0.351558
C64	C	-0.119079	1.452673	0.148442
C65	C	-0.711743	0.948876	-0.355355
C66	C	-0.211743	1.448876	0.144645
C67	C	-0.881400	0.941918	-0.362272
C68	C	-0.381400	1.441918	0.137728
C69	C	-0.922714	0.981383	-0.322824
C70	C	-0.422714	1.481383	0.177176
C71	C	-1.017117	0.977512	-0.326672
C72	C	-0.517117	1.477512	0.173328
C73	C	-0.786988	0.945788	-0.358424
C74	C	-0.286988	1.445788	0.141576
C75	C	-0.185029	0.970499	-0.333725
C76	C	0.314971	1.470499	0.166275
C77	C	-0.092366	0.974427	-0.329738
C78	C	0.407634	1.474427	0.170262
C79	C	-0.401652	1.138126	-0.342672
C80	C	0.098348	1.638126	0.157328
C81	C	-0.401661	1.213357	-0.342681
C82	C	0.098339	1.713357	0.157319
C83	C	-0.401591	0.961509	-0.518503
C84	C	0.098409	1.461509	-0.018503
C85	C	-0.401601	0.961538	-0.593736
C86	C	0.098399	1.461538	-0.093736
C87	C	-0.348341	1.007053	-0.626881
C88	C	0.151659	1.507053	-0.126881
C89	C	-0.348360	1.007081	-0.697570
C90	C	0.151640	1.507081	-0.197570
C91	C	-0.401635	0.961590	-0.735113
C92	C	0.098365	1.461590	-0.235113
C93	C	-0.454901	0.916073	-0.701963
C94	C	0.045099	1.416073	-0.201963
C95	C	-0.454886	0.916049	-0.631275
C96	C	0.045114	1.416049	-0.131275
C97	C	-0.454962	0.916171	-0.987039
C98	C	0.045038	1.416171	-0.487039
C99	C	-0.454971	0.916197	-1.057731
C100	C	0.045029	1.416197	-0.557731
C101	C	-0.348437	1.007203	-1.053333
C102	C	0.151563	1.507203	-0.553333
C103	C	-0.348422	1.007179	-0.982646
C104	C	0.151578	1.507179	-0.482646
C105	C	-0.401690	0.961664	-0.949502
C106	C	0.098310	1.461664	-0.449502
C107	C	-0.401671	0.961635	-0.872853
C108	C	0.098329	1.461635	-0.372853
C109	C	-0.401651	0.961616	-0.811760
C110	C	0.098349	1.461616	-0.311760
C111	C	-0.401690	0.961676	-0.166109
C112	C	0.098310	1.461676	0.333891
C113	C	-0.401715	0.961716	-0.090878
C114	C	0.098285	1.461716	0.409122
H115	H	-0.498572	0.215989	-0.268246
H116	H	0.001428	0.715989	0.231754
H117	H	-0.304955	1.044094	-0.596317
H118	H	0.195045	1.544094	-0.096317
H119	H	-0.304990	1.044144	-0.724553
H120	H	0.195010	1.544144	-0.224553
O121	O	-0.296645	1.051434	-0.946281
O122	O	0.203355	1.551434	-0.446281
C123	C	-0.249625	1.091603	-0.990694
C124	C	0.250375	1.591603	-0.490694
H125	H	-0.283783	1.092542	-1.042469
H126	H	0.216217	1.592542	-0.542469
H127	H	-0.240790	1.145292	-0.969870
H128	H	0.259210	1.645292	-0.469870
H129	H	-0.186281	1.069459	-0.995656
H130	H	0.313719	1.569459	-0.495656
O131	O	-0.923648	0.898090	-0.406029
O132	O	-0.423648	1.398090	0.093971
C133	C	-0.866647	0.862168	-0.441971
C134	C	-0.366647	1.362168	0.058029
H135	H	-0.804552	0.862326	-0.411768
H136	H	-0.304552	1.362326	0.088232
H137	H	-0.891876	0.807824	-0.450200
H138	H	-0.391876	1.307824	0.049800
H139	H	-0.857422	0.887304	-0.493008
H140	H	-0.357422	1.387304	0.006992
H141	H	-0.304719	0.579616	-0.417079
H142	H	0.195281	1.079616	0.082921
O143	O	-0.296291	0.713657	-0.423583
O144	O	0.203709	1.213657	0.076417
C145	C	-0.249138	0.669218	-0.459791
C146	C	0.250862	1.169218	0.040209
H147	H	-0.283284	0.617434	-0.463582
H148	H	0.216716	1.117434	0.036418
H149	H	-0.240124	0.689994	-0.512736
H150	H	0.259876	1.189994	-0.012736
H151	H	-0.185878	0.664291	-0.432334
H152	H	0.314122	1.164291	0.067666
H153	H	-0.498360	0.879153	-1.088297
H154	H	0.001640	1.379153	-0.588297
O155	O	-0.507038	0.349479	-0.261885
O156	O	-0.007038	0.849479	0.238115
C157	C	-0.560779	0.388174	-0.302684
C158	C	-0.060779	0.888174	0.197316
H159	H	-0.565814	0.366650	-0.356207
H160	H	-0.065814	0.866650	0.143793
H161	H	-0.624991	0.386363	-0.280914
H162	H	-0.124991	0.886363	0.219086
H163	H	-0.534991	0.442798	-0.303921
H164	H	-0.034991	0.942798	0.196079
O165	O	-0.296319	0.218564	-0.423474
O166	O	0.203681	0.718564	0.076526
C167	C	-0.242559	0.179893	-0.382666
C168	C	0.257441	0.679893	0.117334
H169	H	-0.272085	0.168117	-0.332622
H170	H	0.227915	0.668117	0.167378
H171	H	-0.231333	0.130634	-0.409765
H172	H	0.268667	0.630634	0.090235
H173	H	-0.180789	0.209655	-0.372615
H174	H	0.319211	0.709655	0.127385
H175	H	-0.304734	0.352091	-0.417109
H176	H	0.195266	0.852091	0.082891
O177	O	-0.880252	1.025068	-0.279040
O178	O	-0.380252	1.525068	0.220960
C179	C	-0.829902	0.988577	-0.233293
C180	C	-0.329902	1.488577	0.266707
H181	H	-0.816933	0.937794	-0.256644
H182	H	-0.316933	1.437794	0.243356
H183	H	-0.768640	1.018615	-0.221766
H184	H	-0.268640	1.518615	0.278234
H185	H	-0.863414	0.979813	-0.184478
H186	H	-0.363414	1.479813	0.315522
H187	H	-0.498540	0.571761	-0.268208
H188	H	0.001460	1.071761	0.231792
H189	H	-0.305066	1.044265	-1.080327
H190	H	0.194934	1.544265	-0.580327
H191	H	-0.498533	0.699995	-0.268197
H192	H	0.001467	1.199995	0.231803
H193	H	-0.498282	0.879037	-0.732536
H194	H	0.001718	1.379037	-0.232536
H195	H	-0.498334	0.879110	-0.960059
H196	H	0.001666	1.379110	-0.460059
O197	O	-0.506652	0.871773	-0.599182
O198	O	-0.006652	1.371773	-0.099182
C199	C	-0.553694	0.831639	-0.647475
C200	C	-0.053694	1.331639	-0.147475
H201	H	-0.519552	0.830728	-0.696477
H202	H	-0.019552	1.330728	-0.196477
H203	H	-0.562532	0.777937	-0.627448
H204	H	-0.062532	1.277937	-0.127448
H205	H	-0.617035	0.853796	-0.657551
H206	H	-0.117035	1.353796	-0.157551
