data_functionalizedCrystal
_audit_creation_method	'MofGen! by Chris Wilmer'
_symmetry_space_group_name_H-M	'P1'
_symmetry_Int_Tables_number	1
_symmetry_cell_setting	triclinic
loop_
_symmetry_equiv_pos_as_xyz
  x,y,z
_cell_length_a	15.944493
_cell_length_b	14.519709
_cell_length_c	13.596369
_cell_angle_alpha	89.993066
_cell_angle_beta	90.004761
_cell_angle_gamma	96.422406
loop_
_atom_site_label
_atom_site_type_symbol
_atom_site_fract_x
_atom_site_fract_y
_atom_site_fract_z
O1	O	1.114728	-0.118688	0.081780
O2	O	1.614728	0.381312	0.581780
O3	O	0.870193	-0.133409	0.081786
O4	O	1.370193	0.366591	0.581786
O5	O	0.998944	0.008203	0.081774
O6	O	1.498944	0.508203	0.581774
O7	O	0.985977	-0.260300	0.081792
O8	O	1.485977	0.239700	0.581792
O9	O	0.998931	0.008210	-0.081809
O10	O	1.498931	0.508210	0.418191
O11	O	0.870180	-0.133401	-0.081797
O12	O	1.370180	0.366599	0.418203
O13	O	1.114715	-0.118681	-0.081802
O14	O	1.614715	0.381319	0.418198
Zn15	Zn	0.992445	-0.126040	-0.107772
Zn16	Zn	1.492445	0.373960	0.392228
Zn17	Zn	0.992462	-0.126050	0.107755
Zn18	Zn	1.492462	0.373950	0.607755
O19	O	0.985964	-0.260292	-0.081791
O20	O	1.485964	0.239708	0.418209
C21	C	0.838891	-0.132803	-0.000005
C22	C	1.338891	0.367197	0.499995
C23	C	0.745639	-0.130999	-0.000004
C24	C	1.245639	0.369001	0.499996
C25	C	0.510000	-0.214355	0.000003
C26	C	1.010000	0.285645	0.500003
C27	C	0.459370	-0.169401	-0.080660
C28	C	0.959370	0.330599	0.419340
C29	C	0.574913	-0.127657	-0.000006
C30	C	1.074913	0.372343	0.499994
C31	C	0.459388	-0.169388	0.080620
C32	C	0.959388	0.330612	0.580620
C33	C	0.409999	-0.124435	-0.000004
C34	C	0.909999	0.375565	0.499996
C35	C	0.525512	-0.082727	-0.080735
C36	C	1.025512	0.417273	0.419265
C37	C	0.525532	-0.082726	0.080618
C38	C	1.025532	0.417274	0.580618
C39	C	0.474935	-0.037708	-0.000064
C40	C	0.974935	0.462292	0.499936
C41	C	0.669916	-0.129516	-0.000008
C42	C	1.169916	0.370484	0.499992
C43	C	0.314999	-0.122570	-0.000008
C44	C	0.814999	0.377430	0.499992
C45	C	0.998333	0.042565	-0.000018
C46	C	1.498333	0.542565	0.499982
C47	C	0.996522	0.144943	-0.000018
C48	C	1.496522	0.644943	0.499982
C49	C	1.146017	-0.119286	-0.000009
C50	C	1.646017	0.380714	0.499991
C51	C	1.239268	-0.121090	-0.000005
C52	C	1.739268	0.378910	0.499995
C53	C	0.986575	-0.294655	0.000003
C54	C	1.486575	0.205345	0.500003
C55	C	0.988385	-0.397032	0.000010
C56	C	1.488385	0.102968	0.500010
N57	N	0.992440	-0.126032	-0.254864
N58	N	1.492440	0.373968	0.245136
C59	C	0.989855	0.519825	0.000008
C60	C	1.489855	1.019825	0.500008
C61	C	0.991707	0.415521	0.000000
C62	C	1.491707	0.915521	0.500000
C63	C	0.993188	0.332387	-0.000006
C64	C	1.493188	0.832387	0.499994
C65	C	0.995040	0.228077	-0.000012
C66	C	1.495040	0.728077	0.499988
C67	C	0.992461	-0.126051	-0.656155
C68	C	1.492461	0.373949	-0.156155
C69	C	0.992453	-0.126049	-0.544504
C70	C	1.492453	0.373951	-0.044504
C71	C	0.992451	-0.126042	-0.455513
C72	C	1.492451	0.373958	0.044487
C73	C	0.992442	-0.126039	-0.343855
C74	C	1.492442	0.373961	0.156145
N75	N	0.992474	-0.126050	0.254847
N76	N	1.492474	0.373950	0.754847
H77	H	0.554431	-0.046143	0.148809
H78	H	1.054431	0.453857	0.648809
H79	H	0.430481	-0.206012	-0.148847
H80	H	0.930481	0.293988	0.351153
O81	O	0.563605	-0.034270	-0.171170
O82	O	1.063605	0.465730	0.328830
H83	H	0.609413	0.025190	-0.148595
H84	H	1.109413	0.525190	0.351405
H85	H	0.459361	0.037029	-0.000116
H86	H	0.959361	0.537029	0.499884
H87	H	0.430508	-0.206022	0.148804
H88	H	0.930508	0.293978	0.648804
H89	H	0.525732	-0.289036	-0.000068
H90	H	1.025732	0.210964	0.499932
