data_functionalizedCrystal
_audit_creation_method	'MofGen! by Chris Wilmer'
_symmetry_space_group_name_H-M	'P1'
_symmetry_Int_Tables_number	1
_symmetry_cell_setting	triclinic
loop_
_symmetry_equiv_pos_as_xyz
  x,y,z
_cell_length_a	16.625548
_cell_length_b	25.639239
_cell_length_c	25.639233
_cell_angle_alpha	89.981253
_cell_angle_beta	89.986620
_cell_angle_gamma	90.039754
loop_
_atom_site_label
_atom_site_type_symbol
_atom_site_fract_x
_atom_site_fract_y
_atom_site_fract_z
Zn1	Zn	1.232532	-0.208200	-0.295620
Zn2	Zn	1.232414	-0.295618	-0.208184
Zn3	Zn	1.097711	-0.208200	-0.208197
Zn4	Zn	1.097626	-0.295607	-0.295587
O5	O	1.165071	-0.251906	-0.251897
O6	O	1.345349	-0.219800	-0.284029
O7	O	1.214532	-0.284027	-0.135021
O8	O	1.115680	-0.135035	-0.219813
O9	O	1.345262	-0.284026	-0.219791
O10	O	1.214733	-0.135034	-0.284042
O11	O	1.115566	-0.219801	-0.135030
O12	O	0.984867	-0.219791	-0.219782
O13	O	1.115536	-0.284008	-0.368757
O14	O	0.984805	-0.284008	-0.283987
O15	O	1.214651	-0.219789	-0.368781
O16	O	1.214450	-0.368782	-0.219759
O17	O	1.115422	-0.368774	-0.283974
C18	C	0.955580	-0.251899	-0.251882
C19	C	0.865959	-0.251908	-0.251889
C20	C	0.537783	-0.251912	-0.251911
C21	C	0.629092	-0.251909	-0.251903
C22	C	0.701868	-0.251910	-0.251899
C23	C	0.793183	-0.251907	-0.251892
C24	C	1.164935	-0.387749	-0.251873
C25	C	1.164951	-0.445863	-0.251880
C26	C	1.216769	-0.806218	-0.218517
C27	C	1.216801	-0.860822	-0.218524
O28	O	1.260718	-0.889052	-0.190132
N29	N	1.165213	-0.888145	-0.251932
C30	C	1.113596	-0.860862	-0.285338
O31	O	1.069720	-0.889116	-0.313755
C32	C	1.113569	-0.806258	-0.285333
C33	C	1.165155	-0.778938	-0.251920
C34	C	1.268352	-0.778897	-0.185107
C35	C	1.268319	-0.724296	-0.185100
C36	C	1.216704	-0.697017	-0.218502
C37	C	1.165122	-0.724337	-0.251912
C38	C	1.061957	-0.778976	-0.318742
C39	C	1.061935	-0.724369	-0.318734
C40	C	1.113521	-0.697048	-0.285321
C41	C	1.113475	-0.642457	-0.285307
N42	N	1.165063	-0.615133	-0.251900
C43	C	1.216678	-0.642413	-0.218498
C44	C	1.113657	-0.975532	-0.285346
C45	C	1.113679	-1.030135	-0.285349
C46	C	1.216885	-1.030091	-0.218535
C47	C	1.216858	-0.975488	-0.218531
C48	C	1.165245	-0.948209	-0.251939
C49	C	1.216605	-0.527748	-0.218484
C50	C	1.216566	-0.473143	-0.218478
C51	C	1.113363	-0.473191	-0.285293
C52	C	1.113399	-0.527792	-0.285297
C53	C	1.165027	-0.555069	-0.251891
O54	O	1.069583	-0.614193	-0.313687
O55	O	1.260554	-0.614152	-0.190091
C56	C	1.375380	-0.251914	-0.251912
C57	C	1.465001	-0.251918	-0.251918
C58	C	1.165097	-0.251897	-0.388270
C59	C	1.165108	-0.251893	-0.446384
C60	C	1.165229	-0.115533	-0.251933
C61	C	1.165297	-0.057419	-0.251948
C62	C	1.216783	-0.218356	-0.806765
C63	C	1.216793	-0.218341	-0.861370
O64	O	1.260663	-0.189888	-0.889622
N65	N	1.165197	-0.251771	-0.888667
C66	C	1.113582	-0.285213	-0.861357
O67	O	1.069697	-0.313646	-0.889589
C68	C	1.113569	-0.285225	-0.806753
C69	C	1.165174	-0.251797	-0.779459
C70	C	1.268383	-0.184930	-0.779471
C71	C	1.268373	-0.184945	-0.724871
C72	C	1.216764	-0.218386	-0.697564
C73	C	1.165165	-0.251812	-0.724859
C74	C	1.061951	-0.318664	-0.779444
C75	C	1.061941	-0.318672	-0.724837
C76	C	1.113546	-0.285244	-0.697543
C77	C	1.113546	-0.285268	-0.642952
N78	N	1.165142	-0.251839	-0.615655
C79	C	1.216751	-0.218398	-0.642961
C80	C	1.113613	-0.285186	-0.976028
C81	C	1.113630	-0.285178	-1.030630
C82	C	1.216840	-0.218305	-1.030639
C83	C	1.216826	-0.218316	-0.976036
C84	C	1.165209	-0.251756	-0.948730
C85	C	1.216728	-0.218432	-0.528296
C86	C	1.216717	-0.218452	-0.473690
C87	C	1.113505	-0.285323	-0.473686
C88	C	1.113519	-0.285305	-0.528287
C89	C	1.165133	-0.251856	-0.555590
O90	O	1.069696	-0.313706	-0.614665
O91	O	1.260622	-0.189965	-0.614722
C92	C	1.165092	-0.251878	-0.116055
C93	C	1.165237	-0.251734	-0.057941
H94	H	1.258573	-0.450900	-0.191267
O95	O	1.063468	-0.948979	-0.317723
C96	C	0.954523	-0.887433	-0.324687
C97	C	1.011321	-0.917459	-0.287962
H98	H	0.912337	-0.861951	-0.300639
H99	H	0.991448	-0.861798	-0.352041
H100	H	0.917697	-0.916356	-0.348573
H101	H	1.048159	-0.888574	-0.264042
H102	H	0.974350	-0.943102	-0.260642
O103	O	1.267011	-0.948894	-0.186148
C104	C	1.375894	-0.887210	-0.179171
C105	C	1.319129	-0.917281	-0.215903
H106	H	1.418057	-0.861652	-0.203213
H107	H	1.338940	-0.861645	-0.151815
H108	H	1.412746	-0.916103	-0.155287
H109	H	1.282265	-0.888426	-0.239820
H110	H	1.356129	-0.942854	-0.243225
H111	H	1.019906	-0.702161	-0.345941
O112	O	1.063392	-0.317604	-0.949483
C113	C	0.954532	-0.324666	-0.887812
C114	C	1.011344	-0.287893	-0.917846
H115	H	0.912448	-0.300660	-0.862218
H116	H	0.917606	-0.348545	-0.916683
H117	H	0.991530	-0.352024	-0.862272
H118	H	0.974408	-0.260504	-0.943386
H119	H	1.048273	-0.264050	-0.888946
H120	H	1.258647	-0.549951	-0.191283
H121	H	1.310409	-0.157695	-0.801698
H122	H	1.258915	-1.052312	-0.191339
O123	O	1.063437	-0.317851	-0.554748
C124	C	1.024222	-0.406780	-0.571479
C125	C	1.080985	-0.369987	-0.541474
H126	H	1.038401	-0.448940	-0.560766
H127	H	0.959203	-0.397642	-0.560725
H128	H	1.033077	-0.400995	-0.615193
H129	H	1.072203	-0.375751	-0.497753
H130	H	1.145984	-0.379134	-0.552271
H131	H	1.071665	-1.052375	-0.312552
H132	H	1.071617	-0.312404	-1.052848
H133	H	1.019947	-0.801211	-0.345948
O134	O	1.063262	-0.554253	-0.317801
C135	C	0.960867	-0.548527	-0.384053
C136	C	1.017611	-0.518500	-0.347271
H137	H	0.923931	-0.519634	-0.407880
H138	H	0.997838	-0.574033	-0.411453
H139	H	0.918781	-0.574150	-0.360023
H140	H	1.059707	-0.492848	-0.371259
H141	H	0.980589	-0.493026	-0.319869
O142	O	1.266976	-0.185792	-0.949605
C143	C	1.369382	-0.119486	-0.955392
C144	C	1.312615	-0.156287	-0.985386
H145	H	1.406308	-0.095629	-0.984308
H146	H	1.332430	-0.092114	-0.929846
H147	H	1.411476	-0.143503	-0.929812
H148	H	1.270510	-0.132312	-1.010994
H149	H	1.349617	-0.183661	-1.010899
H150	H	1.071489	-0.312552	-0.451443
H151	H	1.310387	-0.801102	-0.157907
H152	H	1.071336	-0.450971	-0.312487
O153	O	1.266889	-0.185829	-1.057251
C154	C	1.312654	-0.156191	-1.141381
C155	C	1.255926	-0.192986	-1.111307
H156	H	1.303822	-0.161973	-1.185091
H157	H	1.298531	-0.114024	-1.130687
H158	H	1.377653	-0.165364	-1.130624
H159	H	1.190908	-0.183860	-1.122049
H160	H	1.270119	-0.235142	-1.122004
H161	H	1.019928	-0.345885	-0.801658
H162	H	1.310327	-0.702055	-0.157893
H163	H	1.258743	-0.191231	-0.451470
H164	H	1.258755	-0.191193	-0.550520
H165	H	1.310394	-0.157723	-0.702652
H166	H	1.019899	-0.345899	-0.702608
