data_functionalizedCrystal
_audit_creation_method	'MofGen! by Chris Wilmer'
_symmetry_space_group_name_H-M	'P1'
_symmetry_Int_Tables_number	1
_symmetry_cell_setting	triclinic
loop_
_symmetry_equiv_pos_as_xyz
  x,y,z
_cell_length_a	12.811457
_cell_length_b	10.654545
_cell_length_c	11.892095
_cell_angle_alpha	93.929293
_cell_angle_beta	91.498327
_cell_angle_gamma	84.263291
loop_
_atom_site_label
_atom_site_type_symbol
_atom_site_fract_x
_atom_site_fract_y
_atom_site_fract_z
O1	O	1.390454	0.173270	0.048547
O2	O	1.087208	0.189023	0.017458
O3	O	1.245803	-0.001568	0.033718
O4	O	1.231860	0.363862	0.032287
O5	O	1.232579	0.014298	0.220370
O6	O	1.073984	0.204889	0.204109
O7	O	1.377231	0.189137	0.235199
Zn8	Zn	1.223508	0.199532	0.249289
Zn9	Zn	1.240931	0.178628	0.003367
O10	O	1.218636	0.379728	0.218939
C11	C	1.041767	0.195587	0.106803
C12	C	0.926067	0.191493	0.094941
C13	C	0.694239	0.201076	0.276161
C14	C	0.585528	0.197229	0.265022
C15	C	0.599935	0.179944	0.061523
C16	C	0.708646	0.183791	0.072662
C17	C	0.755793	0.194359	0.179985
C18	C	0.864504	0.198215	0.191124
C19	C	0.878910	0.180921	-0.012374
C20	C	0.770200	0.177074	-0.023514
C21	C	1.238167	-0.040437	0.126937
C22	C	1.235104	-0.179891	0.126616
C23	C	1.249533	-0.197198	-0.076876
C24	C	1.255312	-0.271366	-0.178769
C25	C	1.252434	-0.402395	-0.179065
C26	C	1.243772	-0.459257	-0.077458
C27	C	1.237993	-0.385089	0.024434
C28	C	1.240876	-0.254058	0.024720
C29	C	1.223557	-0.367782	0.227923
C30	C	1.226442	-0.236754	0.228223
C31	C	1.214895	-0.424644	0.329530
C32	C	1.209124	-0.350477	0.431426
C33	C	1.212004	-0.219440	0.431719
C34	C	1.220663	-0.162585	0.330116
C35	C	1.422672	0.182572	0.145851
C36	C	1.538372	0.186666	0.157706
C37	C	1.226272	0.418596	0.125717
C38	C	1.229336	0.558050	0.126031
N39	N	1.211625	0.213798	0.417125
N40	N	1.252822	0.164352	-0.164467
C41	C	1.335507	0.065009	0.666474
C42	C	1.327209	0.074990	0.783965
C43	C	1.186726	0.243735	0.769600
C44	C	1.195024	0.233754	0.652109
C45	C	1.269418	0.144389	0.600550
C46	C	1.277721	0.134415	0.483058
C47	C	1.137234	0.303153	0.468694
C48	C	1.128935	0.313134	0.586185
H49	H	1.262362	-0.225054	-0.261495
C50	C	1.258740	-0.482714	-0.289804
C51	C	1.266948	-0.404882	-0.378724
C52	C	1.272759	-0.478827	-0.480751
H53	H	1.197274	-0.525464	-0.300505
H54	H	1.318598	-0.542912	-0.288002
H55	H	1.207097	-0.344706	-0.380528
H56	H	1.328413	-0.362132	-0.368061
H57	H	1.332616	-0.539025	-0.478949
H58	H	1.211291	-0.521574	-0.491440
H59	H	1.278338	-0.426031	-0.541094
C60	C	1.106009	0.340930	0.825443
C61	C	1.125787	0.462176	0.798674
C62	C	1.051439	0.551738	0.850080
H63	H	1.110449	0.335678	0.904867
H64	H	1.037712	0.324700	0.799027
H65	H	1.194067	0.478400	0.825096
H66	H	1.121338	0.467468	0.719259
H67	H	0.983142	0.535508	0.823665
H68	H	1.055885	0.546474	0.929503
H69	H	1.064842	0.634012	0.831917
C70	C	1.205755	-0.139141	0.542470
C71	C	1.197573	-0.216992	0.631381
C72	C	1.191823	-0.143072	0.733423
H73	H	1.145922	-0.078926	0.540741
H74	H	1.267254	-0.096417	0.553116
H75	H	1.136080	-0.259696	0.620737
H76	H	1.257399	-0.277206	0.633147
H77	H	1.253322	-0.100348	0.744069
H78	H	1.131989	-0.082860	0.731682
H79	H	1.186280	-0.195884	0.793762
C80	C	1.358518	0.037268	0.427283
C81	C	1.414597	-0.030137	0.510168
C82	C	1.489025	-0.119654	0.458834
H83	H	1.405561	0.079037	0.385927
H84	H	1.323913	-0.019520	0.377603
H85	H	1.449200	0.026643	0.559828
H86	H	1.367583	-0.071933	0.551530
H87	H	1.454420	-0.176443	0.409154
H88	H	1.536060	-0.077875	0.417479
H89	H	1.527077	-0.165408	0.515062
C90	C	0.548645	0.168726	-0.054961
C91	C	0.475724	0.273844	-0.068420
C92	C	0.428462	0.263562	-0.175714
H93	H	0.513871	0.093853	-0.062888
H94	H	0.600830	0.165340	-0.110692
H95	H	0.423547	0.277217	-0.012704
H96	H	0.510471	0.348732	-0.060515
H97	H	0.480647	0.260176	-0.231446
H98	H	0.393694	0.188685	-0.183632
H99	H	0.378987	0.334887	-0.184864
H100	H	0.731798	0.168464	-0.110893
H101	H	1.223014	-0.055897	0.330344
H102	H	1.083423	0.367794	0.415005
C103	C	1.048228	0.410343	0.642026
C104	C	1.068024	0.531579	0.615247
C105	C	0.993688	0.621160	0.666651
H106	H	1.052670	0.405098	0.721452
H107	H	0.979927	0.394126	0.615616
H108	H	1.136308	0.547791	0.641664
H109	H	1.063573	0.536865	0.535831
H110	H	0.925387	0.604943	0.640241
H111	H	0.998136	0.615903	0.746074
H112	H	1.007104	0.703427	0.648481
H113	H	1.396089	-0.007747	0.624495
H114	H	0.902889	0.206827	0.278512
H115	H	1.241417	-0.565947	-0.077710
H116	H	0.732625	0.209697	0.363548
H117	H	1.381024	0.010349	0.837637
C118	C	0.518869	0.204607	0.369578
C119	C	0.583429	0.214715	0.465945
C120	C	0.522058	0.221529	0.562286
H121	H	0.483561	0.130416	0.370379
H122	H	0.468760	0.276585	0.368769
H123	H	0.633519	0.142744	0.466754
H124	H	0.618737	0.288903	0.465182
H125	H	0.471949	0.293507	0.561477
H126	H	0.486753	0.147336	0.563075
H127	H	0.565851	0.228400	0.627682
H128	H	1.251889	-0.090510	-0.076644
C129	C	0.945557	0.173670	-0.116940
C130	C	0.880991	0.163623	-0.213307
C131	C	0.942346	0.156963	-0.309650
H132	H	0.995698	0.101737	-0.116227
H133	H	0.980823	0.247920	-0.117645
H134	H	0.845742	0.089380	-0.212602
H135	H	0.830851	0.235548	-0.214057
H136	H	0.977612	0.231213	-0.310355
H137	H	0.992484	0.085029	-0.308926
H138	H	0.898546	0.150157	-0.375047
H139	H	1.212546	-0.531335	0.329281
H140	H	1.202065	-0.396784	0.514146
