data_functionalizedCrystal
_audit_creation_method	'MofGen! by Chris Wilmer'
_symmetry_space_group_name_H-M	'P1'
_symmetry_Int_Tables_number	1
_symmetry_cell_setting	triclinic
loop_
_symmetry_equiv_pos_as_xyz
  x,y,z
_cell_length_a	6.817900
_cell_length_b	9.582889
_cell_length_c	16.418042
_cell_angle_alpha	93.121935
_cell_angle_beta	103.389568
_cell_angle_gamma	111.207298
loop_
_atom_site_label
_atom_site_type_symbol
_atom_site_fract_x
_atom_site_fract_y
_atom_site_fract_z
V1	V	-4.065737	-0.208271	-0.260999
V2	V	-3.815737	0.041729	-0.010999
V3	V	-3.565737	0.291729	0.239001
V4	V	-3.315737	0.541729	0.489001
O5	O	-4.011405	0.008757	-0.256189
O6	O	-3.761405	0.258757	-0.006189
O7	O	-3.511405	0.508757	0.243811
O8	O	-3.261405	0.758757	0.493811
O9	O	-4.056518	-0.411763	-0.259063
O10	O	-3.806518	-0.161763	-0.009063
O11	O	-3.556518	0.088237	0.240937
O12	O	-3.306518	0.338237	0.490937
O13	O	-4.016299	-0.205617	-0.374900
O14	O	-3.766299	0.044383	-0.124900
O15	O	-3.516299	0.294383	0.125100
O16	O	-3.266299	0.544383	0.375100
O17	O	-4.051903	-0.198817	-0.139550
O18	O	-3.801903	0.051183	0.110450
O19	O	-3.551903	0.301183	0.360450
O20	O	-3.301903	0.551183	0.610450
V21	V	-4.544422	-0.182247	-0.246492
V22	V	-4.294422	0.067753	0.003508
V23	V	-4.044422	0.317753	0.253508
V24	V	-3.794422	0.567753	0.503508
O25	O	-4.337607	-0.265357	-0.292824
O26	O	-4.087607	-0.015357	-0.042824
O27	O	-3.837607	0.234643	0.207176
O28	O	-3.587607	0.484643	0.457176
O29	O	-4.722749	-0.125162	-0.214667
O30	O	-4.472749	0.124838	0.035333
O31	O	-4.222749	0.374838	0.285333
O32	O	-3.972749	0.624838	0.535333
O33	O	-4.330434	0.021245	-0.248428
O34	O	-4.080434	0.271245	0.001572
O35	O	-3.830434	0.521245	0.251572
O36	O	-3.580434	0.771245	0.501572
O37	O	-4.716150	-0.399275	-0.251302
O38	O	-4.466150	-0.149275	-0.001302
O39	O	-4.216150	0.100725	0.248698
O40	O	-3.966150	0.350725	0.498698
O41	O	-4.675653	-0.191702	-0.367941
O42	O	-4.425653	0.058298	-0.117941
O43	O	-4.175653	0.308298	0.132059
O44	O	-3.925653	0.558298	0.382059
O45	O	-4.370653	-0.184902	-0.132591
O46	O	-4.120653	0.065098	0.117409
O47	O	-3.870653	0.315098	0.367409
O48	O	-3.620653	0.565098	0.617409
C49	C	-3.911085	-0.461353	-0.254906
C50	C	-3.661085	-0.211353	-0.004906
C51	C	-3.411085	0.038647	0.245094
C52	C	-3.161085	0.288647	0.495094
C53	C	-3.984827	-0.627714	-0.254082
C54	C	-3.734827	-0.377714	-0.004082
C55	C	-3.484827	-0.127714	0.245918
C56	C	-3.234827	0.122286	0.495918
C57	C	-3.859780	-0.198391	-0.402666
C58	C	-3.609780	0.051609	-0.152666
C59	C	-3.359780	0.301609	0.097334
C60	C	-3.109780	0.551609	0.347334
C61	C	-3.900902	-0.197567	-0.495779
C62	C	-3.650902	0.052433	-0.245779
C63	C	-3.400902	0.302433	0.004221
C64	C	-3.150902	0.552433	0.254221
C65	C	-4.178996	-0.203134	-0.714261
C66	C	-3.928996	0.046866	-0.464261
C67	C	-3.678996	0.296866	-0.214261
C68	C	-3.428996	0.546866	0.035739
C69	C	-4.217613	-0.202347	-0.801749
C70	C	-3.967613	0.047653	-0.551749
C71	C	-3.717613	0.297653	-0.301749
C72	C	-3.467613	0.547653	-0.051749
C73	C	-3.850517	-0.187377	-0.793218
C74	C	-3.600517	0.062623	-0.543218
C75	C	-3.350517	0.312623	-0.293218
C76	C	-3.100517	0.562623	-0.043218
C77	C	-3.811898	-0.188153	-0.705730
C78	C	-3.561898	0.061847	-0.455730
C79	C	-3.311898	0.311847	-0.205730
C80	C	-3.061898	0.561847	0.044270
C81	C	-3.976148	-0.196040	-0.666255
C82	C	-3.726148	0.053960	-0.416255
C83	C	-3.476148	0.303960	-0.166255
C84	C	-3.226148	0.553960	0.083745
C85	C	-4.053384	-0.194476	-0.841231
C86	C	-3.803384	0.055524	-0.591231
C87	C	-3.553384	0.305524	-0.341231
C88	C	-3.303384	0.555524	-0.091231
C89	C	-4.095253	-0.193623	-0.936089
C90	C	-3.845253	0.056377	-0.686089
C91	C	-3.595253	0.306377	-0.436089
C92	C	-3.345253	0.556377	-0.186089
C93	C	-3.934276	-0.196890	-0.571390
C94	C	-3.684276	0.053110	-0.321390
C95	C	-3.434276	0.303110	-0.071390
C96	C	-3.184276	0.553110	0.178610
C97	C	-4.139211	0.070826	-0.252583
C98	C	-3.889211	0.320826	-0.002583
C99	C	-3.639211	0.570826	0.247417
C100	C	-3.389211	0.820826	0.497417
C101	C	-4.044707	0.237186	-0.253412
C102	C	-3.794707	0.487186	-0.003412
C103	C	-3.544707	0.737186	0.246588
C104	C	-3.294707	0.987186	0.496588
C105	C	-4.190516	-0.192133	-0.104820
C106	C	-3.940516	0.057867	0.145180
C107	C	-3.690516	0.307867	0.395180
C108	C	-3.440516	0.557867	0.645180
C109	C	-4.128631	-0.192949	-0.011706
C110	C	-3.878631	0.057051	0.238294
C111	C	-3.628631	0.307051	0.488294
C112	C	-3.378631	0.557051	0.738294
H113	H	-4.312741	-0.209553	-0.682123
H114	H	-4.062741	0.040447	-0.432123
H115	H	-3.812741	0.290447	-0.182123
H116	H	-3.562741	0.540447	0.067877
H117	H	-4.382788	-0.208122	-0.840832
H118	H	-4.132788	0.041878	-0.590832
H119	H	-3.882788	0.291878	-0.340832
H120	H	-3.632788	0.541878	-0.090832
H121	H	-3.716798	-0.180960	-0.825369
H122	H	-3.466798	0.069040	-0.575369
H123	H	-3.216798	0.319040	-0.325369
H124	H	-2.966798	0.569040	-0.075369
H125	H	-3.646702	-0.182364	-0.666641
H126	H	-3.396702	0.067636	-0.416641
H127	H	-3.146702	0.317636	-0.166641
H128	H	-2.896702	0.567636	0.083359
