data_functionalizedCrystal
_audit_creation_method	'MofGen! by Chris Wilmer'
_symmetry_space_group_name_H-M	'P1'
_symmetry_Int_Tables_number	1
_symmetry_cell_setting	triclinic
loop_
_symmetry_equiv_pos_as_xyz
  x,y,z
_cell_length_a	6.817900
_cell_length_b	16.417825
_cell_length_c	11.102228
_cell_angle_alpha	93.887652
_cell_angle_beta	108.604565
_cell_angle_gamma	103.385495
loop_
_atom_site_label
_atom_site_type_symbol
_atom_site_fract_x
_atom_site_fract_y
_atom_site_fract_z
V1	V	-4.084993	-0.115887	-0.396702
O2	O	-4.071824	0.005567	-0.388692
O3	O	-4.035703	-0.229783	-0.394429
O4	O	-4.062176	-0.114105	-0.569516
O5	O	-4.045167	-0.110911	-0.212393
V6	V	-4.565422	-0.101360	-0.374603
O7	O	-4.353040	-0.147754	-0.445176
O8	O	-4.747572	-0.069493	-0.326129
O9	O	-4.391506	0.012536	-0.376876
O10	O	-4.695988	-0.222814	-0.382613
O11	O	-4.722645	-0.106335	-0.558912
O12	O	-4.365032	-0.103142	-0.201789
C13	C	-3.879659	-0.257548	-0.388285
C14	C	-3.920815	-0.350660	-0.387579
C15	C	-3.958127	-0.552923	-0.269549
C16	C	-3.996822	-0.640413	-0.268895
C17	C	-4.111669	-0.664324	-0.501771
C18	C	-4.072989	-0.576836	-0.502423
C19	C	-3.996207	-0.521138	-0.386308
C20	C	-4.073582	-0.696115	-0.385002
C21	C	-4.115537	-0.790975	-0.384294
C22	C	-3.954253	-0.426272	-0.387015
C23	C	-3.913427	-0.109989	-0.611624
C24	C	-3.976049	-0.109286	-0.752903
C25	C	-4.048079	-0.185658	-0.837721
C26	C	-4.106931	-0.184996	-0.970468
C27	C	-4.021708	-0.031582	-0.933566
C28	C	-3.962871	-0.032245	-0.800822
C29	C	-4.356191	-0.278930	-1.178218
C30	C	-4.428190	-0.355305	-1.263040
C31	C	-4.329040	-0.420556	-1.232077
C32	C	-4.157845	-0.409433	-1.116292
C33	C	-4.085830	-0.333056	-1.031476
C34	C	-4.185028	-0.267809	-1.062440
C35	C	-3.713596	0.061684	-0.593070
C36	C	-3.641566	0.138062	-0.508251
C37	C	-3.740698	0.203321	-0.539209
C38	C	-3.911860	0.192207	-0.654995
C39	C	-3.983891	0.115829	-0.739814
C40	C	-3.884758	0.050570	-0.708847
C41	C	-4.210891	0.040297	-0.383017
C42	C	-4.148974	0.133408	-0.383731
C43	C	-4.177122	-0.107261	-0.159675
C44	C	-4.093738	-0.107960	-0.018394
H45	H	-4.174185	-0.709684	-0.596307
C46	C	-4.007285	0.053156	-0.986278
H47	H	-3.956005	0.098545	-0.916749
H48	H	-3.911379	0.059304	-1.033159
H49	H	-4.145621	0.053902	-1.041430
H50	H	-3.965814	-0.666287	-0.173818
C51	C	-3.661469	0.287335	-0.445905
H52	H	-3.545335	0.284611	-0.372510
H53	H	-3.614776	0.332638	-0.487779
H54	H	-3.775433	0.296575	-0.419846
C55	C	-4.114871	-0.541869	-0.630864
H56	H	-4.166109	-0.587569	-0.699924
H57	H	-4.219263	-0.510964	-0.640029
H58	H	-3.985054	-0.505510	-0.631882
C59	C	-4.062611	-0.270399	-0.785015
H60	H	-4.113963	-0.315789	-0.854547
H61	H	-3.924331	-0.271180	-0.729845
H62	H	-4.158560	-0.276516	-0.738155
C63	C	-3.604550	-0.010103	-0.559018
H64	H	-3.671977	-0.057185	-0.626108
H65	H	-3.456889	0.009314	-0.548940
H66	H	-3.617544	-0.026735	-0.480999
H67	H	-3.946439	-0.323999	-0.937210
C68	C	-4.048774	-0.481210	-1.082242
H69	H	-4.116193	-0.528293	-1.149333
H70	H	-3.901112	-0.461789	-1.072162
H71	H	-4.061769	-0.497843	-1.004225
C72	C	-4.408247	-0.504568	-1.325374
H73	H	-4.524405	-0.501849	-1.398758
H74	H	-4.294301	-0.513818	-1.351432
H75	H	-4.454953	-0.549870	-1.283491
H76	H	-4.123266	0.106783	-0.834094
C77	C	-4.616509	-0.367543	-1.390388
H78	H	-4.665283	-0.317749	-1.396673
H79	H	-4.569911	-0.378181	-1.460498
H80	H	-4.730532	-0.414246	-1.392544
C81	C	-4.465287	-0.207159	-1.212265
H82	H	-4.397910	-0.160083	-1.145161
H83	H	-4.452315	-0.190521	-1.290278
H84	H	-4.612954	-0.226596	-1.222339
C85	C	-3.453305	0.150284	-0.380881
H86	H	-3.404600	0.100475	-0.374576
H87	H	-3.339244	0.196976	-0.378691
H88	H	-3.499958	0.160927	-0.310788
C89	C	-4.020927	0.263986	-0.689051
H90	H	-3.953533	0.311061	-0.621947
H91	H	-4.007943	0.280620	-0.767063
H92	H	-4.168598	0.244561	-0.699127
H93	H	-3.895608	-0.507575	-0.175000
