data_functionalizedCrystal
_audit_creation_method	'MofGen! by Chris Wilmer'
_symmetry_space_group_name_H-M	'P1'
_symmetry_Int_Tables_number	1
_symmetry_cell_setting	triclinic
loop_
_symmetry_equiv_pos_as_xyz
  x,y,z
_cell_length_a	13.339070
_cell_length_b	16.109301
_cell_length_c	15.186229
_cell_angle_alpha	90.005167
_cell_angle_beta	89.996148
_cell_angle_gamma	80.454613
loop_
_atom_site_label
_atom_site_type_symbol
_atom_site_fract_x
_atom_site_fract_y
_atom_site_fract_z
O1	O	1.342144	-0.416773	-0.073272
O2	O	1.842144	0.083227	0.426728
O3	O	1.047635	-0.362069	-0.073265
O4	O	1.547635	0.137931	0.426735
O5	O	1.202980	-0.270258	-0.073259
O6	O	1.702980	0.229742	0.426741
O7	O	1.186799	-0.508584	-0.073277
O8	O	1.686799	-0.008584	0.426723
O9	O	1.202969	-0.270254	0.073198
O10	O	1.702969	0.229746	0.573198
O11	O	1.047624	-0.362065	0.073192
O12	O	1.547624	0.137935	0.573192
O13	O	1.342133	-0.416769	0.073186
O14	O	1.842133	0.083231	0.573186
Zn15	Zn	1.194877	-0.389416	0.096442
Zn16	Zn	1.694877	0.110584	0.596442
Zn17	Zn	1.194891	-0.389422	-0.096521
Zn18	Zn	1.694891	0.110578	0.403479
O19	O	1.186788	-0.508580	0.073180
O20	O	1.686788	-0.008580	0.573180
C21	C	1.009943	-0.352827	-0.000035
C22	C	1.509943	0.147173	0.499965
C23	C	0.897651	-0.325282	-0.000032
C24	C	1.397651	0.174718	0.499968
C25	C	1.202319	-0.239130	-0.000030
C26	C	1.702319	0.260870	0.499970
C27	C	1.200354	-0.146381	-0.000029
C28	C	1.700354	0.353619	0.499971
N29	N	1.194875	-0.389414	0.228135
N30	N	1.694875	0.110586	0.728135
C31	C	0.532787	-0.539450	-0.000062
C32	C	1.032787	-0.039450	0.499938
C33	C	0.638291	-0.565332	-0.000068
C34	C	1.138291	-0.065332	0.499932
C35	C	0.703136	-0.505322	-0.000059
C36	C	1.203136	-0.005322	0.499941
C37	C	0.662467	-0.419426	-0.000045
C38	C	1.162467	0.080574	0.499955
C39	C	0.556952	-0.393541	-0.000046
C40	C	1.056952	0.106459	0.499954
C41	C	0.727301	-0.359413	-0.000042
C42	C	1.227301	0.140587	0.499958
C43	C	0.686632	-0.273517	-0.000028
C44	C	1.186632	0.226483	0.499972
C45	C	0.581127	-0.247637	-0.000029
C46	C	1.081127	0.252363	0.499971
C47	C	0.516283	-0.307647	-0.000038
C48	C	1.016283	0.192353	0.499962
C49	C	0.832816	-0.385297	-0.000041
C50	C	1.332816	0.114703	0.499959
C51	C	0.856981	-0.239388	-0.000025
C52	C	1.356981	0.260612	0.499975
C53	C	0.751477	-0.213506	-0.000019
C54	C	1.251477	0.286494	0.499981
C55	C	1.379825	-0.426012	-0.000046
C56	C	1.879825	0.073988	0.499954
C57	C	1.492117	-0.453556	-0.000054
C58	C	1.992117	0.046444	0.499946
C59	C	1.187449	-0.539708	-0.000051
C60	C	1.687449	-0.039708	0.499949
C61	C	1.189414	-0.632457	-0.000058
C62	C	1.689414	-0.132457	0.499942
C63	C	1.287963	0.055662	-0.000045
C64	C	1.787963	0.555662	0.499955
C65	C	1.286109	0.142810	-0.000052
C66	C	1.786109	0.642810	0.499948
C67	C	1.101798	0.165494	-0.000045
C68	C	1.601798	0.665494	0.499955
C69	C	1.103653	0.078347	-0.000044
C70	C	1.603653	0.578347	0.499956
C71	C	1.196739	0.023433	-0.000039
C72	C	1.696739	0.523433	0.499961
C73	C	1.193029	0.197729	-0.000048
C74	C	1.693029	0.697729	0.499952
C75	C	1.191018	0.292219	-0.000055
C76	C	1.691018	0.792219	0.499945
C77	C	1.198750	-0.071064	-0.000033
C78	C	1.698750	0.428936	0.499967
N79	N	1.194901	-0.389420	-0.228214
N80	N	1.694901	0.110580	0.271786
C81	C	1.263685	-0.348785	0.453860
C82	C	1.763685	0.151215	0.953860
C83	C	1.263689	-0.348783	0.546050
C84	C	1.763689	0.151217	1.046050
C85	C	1.126083	-0.430050	0.546054
C86	C	1.626083	0.069950	1.046054
C87	C	1.126076	-0.430046	0.453866
C88	C	1.626076	0.069954	0.953866
C89	C	1.194883	-0.389415	0.407772
C90	C	1.694883	0.110585	0.907772
C91	C	1.194893	-0.389418	0.592149
C92	C	1.694893	0.110582	1.092149
C93	C	1.194896	-0.389417	0.692105
C94	C	1.694896	0.110583	1.192105
C95	C	1.194879	-0.389415	0.307809
C96	C	1.694879	0.110585	0.807809
H97	H	0.865918	-0.455234	-0.000049
H98	H	1.365918	0.044766	0.499951
F99	F	0.403990	-0.280105	-0.000030
F100	F	0.903990	0.219895	0.499970
F101	F	1.383203	0.177106	-0.000060
F102	F	1.883203	0.677106	0.499940
H103	H	1.363760	0.010952	-0.000043
H104	H	1.863760	0.510952	0.499957
F105	F	1.002734	0.223945	-0.000050
F106	F	1.502734	0.723945	0.499950
F107	F	1.336913	-0.305539	0.404807
F108	F	1.836913	0.194461	0.904807
H109	H	1.029362	0.052108	-0.000042
H110	H	1.529362	0.552108	0.499958
F111	F	1.336915	-0.305537	0.595098
F112	F	1.836915	0.194463	1.095098
H113	H	0.909778	-0.190522	-0.000021
H114	H	1.409778	0.309478	0.499979
F115	F	0.463770	-0.603307	-0.000084
F116	F	0.963770	-0.103307	0.499916
H117	H	1.070044	-0.463132	0.416338
H118	H	1.570044	0.036868	0.916338
H119	H	0.789042	-0.526400	-0.000065
H120	H	1.289042	-0.026400	0.499935
F121	F	0.537847	-0.156218	-0.000039
F122	F	1.037847	0.343782	0.499961
F123	F	1.052860	-0.473293	0.595117
F124	F	1.552860	0.026707	1.095117
H125	H	0.718348	-0.143568	-0.000015
H126	H	1.218348	0.356432	0.499985
H127	H	0.671396	-0.635268	-0.000086
H128	H	1.171396	-0.135268	0.499914
