data_functionalizedCrystal
_audit_creation_method	'MofGen! by Chris Wilmer'
_symmetry_space_group_name_H-M	'P1'
_symmetry_Int_Tables_number	1
_symmetry_cell_setting	triclinic
loop_
_symmetry_equiv_pos_as_xyz
  x,y,z
_cell_length_a	16.625547
_cell_length_b	16.625546
_cell_length_c	19.077174
_cell_angle_alpha	87.729003
_cell_angle_beta	92.319725
_cell_angle_gamma	90.022405
loop_
_atom_site_label
_atom_site_type_symbol
_atom_site_fract_x
_atom_site_fract_y
_atom_site_fract_z
Zn1	Zn	1.250962	-0.339334	0.398028
Zn2	Zn	1.245459	-0.468756	0.280330
Zn3	Zn	1.110718	-0.333942	0.280337
Zn4	Zn	1.116092	-0.474126	0.397978
O5	O	1.180808	-0.404040	0.339168
O6	O	1.363065	-0.356512	0.382433
O7	O	1.223034	-0.446369	0.181840
O8	O	1.129376	-0.221826	0.295973
O9	O	1.359022	-0.451598	0.295961
O10	O	1.232412	-0.225788	0.382440
O11	O	1.124040	-0.347321	0.181846
O12	O	0.998598	-0.352528	0.295924
O13	O	1.138534	-0.460750	0.496474
O14	O	1.002546	-0.455521	0.382354
O15	O	1.237623	-0.361719	0.496512
O16	O	1.228244	-0.582300	0.295912
O17	O	1.133199	-0.586245	0.382347
C18	C	0.971315	-0.404022	0.339135
C19	C	0.881694	-0.404035	0.339137
C20	C	0.808912	-0.404037	0.339146
C21	C	0.717605	-0.404042	0.339164
C22	C	0.644829	-0.404051	0.339181
C23	C	0.553516	-0.404057	0.339198
C24	C	1.180730	-0.613529	0.339139
C25	C	1.180772	-0.703151	0.339149
C26	C	1.180916	-1.031330	0.339223
C27	C	1.180873	-0.940020	0.339204
C28	C	1.180843	-0.867243	0.339186
C29	C	1.180802	-0.775928	0.339168
C30	C	1.391118	-0.404057	0.339202
C31	C	1.480740	-0.404065	0.339216
C32	C	1.189292	-0.412435	0.522744
C33	C	1.192907	-0.416012	0.600974
C34	C	1.180908	-0.193733	0.339213
C35	C	1.180951	-0.104113	0.339232
C36	C	1.172403	-0.395619	0.156306
C37	C	1.168944	-0.391814	0.078077
C38	C	1.143067	-0.366125	0.637728
C39	C	1.146461	-0.369494	0.711233
C40	C	1.199700	-0.422745	0.747982
C41	C	1.249542	-0.472638	0.711222
C42	C	1.246143	-0.469273	0.637719
C43	C	1.215387	-0.438342	0.967814
C44	C	1.218784	-0.441701	1.041322
C45	C	1.115702	-0.338557	1.041328
C46	C	1.112311	-0.335194	0.967823
C47	C	1.162150	-0.385090	0.931070
N48	N	1.203172	-0.426188	0.823116
N49	N	1.158673	-0.381651	0.855937
H50	H	1.105873	-0.328873	0.741155
O51	O	1.067170	-0.290134	1.076953
C52	C	0.931070	-0.252052	1.099460
C53	C	0.985944	-0.306926	1.059060
H54	H	0.865388	-0.265620	1.085019
H55	H	0.944523	-0.186362	1.085012
H56	H	0.942682	-0.263588	1.158303
H57	H	0.974364	-0.295461	1.000207
H58	H	0.972480	-0.372598	1.073566
H59	H	1.068957	-0.291833	0.937907
H60	H	1.099719	-0.322757	0.607813
H61	H	1.286734	-0.509891	0.607794
O62	O	1.270522	-0.493506	1.076913
C63	C	1.372438	-0.595424	1.069155
C64	C	1.313871	-0.536813	1.028761
H65	H	1.407514	-0.630442	1.030242
H66	H	1.337026	-0.639204	1.103536
H67	H	1.416176	-0.559970	1.103598
H68	H	1.270121	-0.572201	0.994280
H69	H	1.349336	-0.493034	0.994425
H70	H	1.255961	-0.478979	0.937898
O71	O	1.301236	-0.524298	0.747027
C72	C	1.352123	-0.575229	0.860258
C73	C	1.293554	-0.516674	0.819799
H74	H	1.345920	-0.569097	0.919101
H75	H	1.416498	-0.560417	0.845870
H76	H	1.337268	-0.639570	0.845746
H77	H	1.308335	-0.452313	0.834290
H78	H	1.229195	-0.531555	0.834190
