data_functionalizedCrystal
_audit_creation_method	'MofGen! by Chris Wilmer'
_symmetry_space_group_name_H-M	'P1'
_symmetry_Int_Tables_number	1
_symmetry_cell_setting	triclinic
loop_
_symmetry_equiv_pos_as_xyz
  x,y,z
_cell_length_a	16.109318
_cell_length_b	17.019294
_cell_length_c	14.586319
_cell_angle_alpha	93.883317
_cell_angle_beta	90.000556
_cell_angle_gamma	83.431560
loop_
_atom_site_label
_atom_site_type_symbol
_atom_site_fract_x
_atom_site_fract_y
_atom_site_fract_z
O1	O	1.103031	0.101460	0.084173
O2	O	1.436364	0.434794	0.417506
O3	O	1.769698	0.768127	0.750839
O4	O	0.860960	0.114065	0.085186
O5	O	1.194293	0.447398	0.418519
O6	O	1.527626	0.780731	0.751853
O7	O	0.988748	-0.007072	0.075609
O8	O	1.322082	0.326262	0.408942
O9	O	1.655415	0.659595	0.742275
O10	O	0.975243	0.222597	0.093750
O11	O	1.308576	0.555930	0.427083
O12	O	1.641909	0.889263	0.760417
O13	O	0.988738	-0.007074	-0.076872
O14	O	1.322072	0.326259	0.256461
O15	O	1.655405	0.659592	0.589794
O16	O	0.860950	0.114062	-0.067295
O17	O	1.194283	0.447395	0.266038
O18	O	1.527616	0.780728	0.599372
O19	O	1.103021	0.101458	-0.068308
O20	O	1.436354	0.434791	0.265025
O21	O	1.769688	0.768124	0.598358
Cu22	Cu	0.981984	0.107759	-0.081724
Cu23	Cu	1.315318	0.441093	0.251609
Cu24	Cu	1.648651	0.774426	0.584942
Cu25	Cu	0.981996	0.107763	0.098602
Cu26	Cu	1.315330	0.441096	0.431935
Cu27	Cu	1.648663	0.774429	0.765269
O28	O	0.975232	0.222594	-0.058731
O29	O	1.308566	0.555927	0.274602
O30	O	1.641899	0.889260	0.607936
C31	C	0.829981	0.113550	0.008907
C32	C	1.163314	0.446884	0.342241
C33	C	1.496647	0.780217	0.675574
C34	C	0.737687	0.112012	0.008793
C35	C	1.071021	0.445346	0.342126
C36	C	1.404354	0.778679	0.675460
C37	C	0.438624	0.107047	0.091502
C38	C	0.771957	0.440380	0.424835
C39	C	1.105290	0.773714	0.758169
C40	C	0.525344	0.108487	0.091621
C41	C	0.858677	0.441820	0.424955
C42	C	1.192010	0.775153	0.758288
C43	C	0.525351	0.108473	-0.074623
C44	C	0.858685	0.441806	0.258711
C45	C	1.192018	0.775139	0.592044
C46	C	0.438634	0.107027	-0.074742
C47	C	0.771967	0.440361	0.258592
C48	C	1.105300	0.773694	0.591925
C49	C	0.395272	0.106319	0.008324
C50	C	0.728605	0.439652	0.341657
C51	C	1.061938	0.772985	0.674990
C52	C	0.568709	0.109204	0.008562
C53	C	0.902042	0.442537	0.341895
C54	C	1.235376	0.775870	0.675229
C55	C	0.662735	0.110765	0.008691
C56	C	0.996068	0.444098	0.342024
C57	C	1.329401	0.777431	0.675357
C58	C	0.301240	0.104756	0.008195
C59	C	0.634573	0.438089	0.341529
C60	C	0.967907	0.771423	0.674862
C61	C	0.988231	-0.036462	-0.002951
C62	C	1.321564	0.296871	0.330382
C63	C	1.654898	0.630205	0.663715
C64	C	0.986695	-0.124032	-0.009862
C65	C	1.320028	0.209301	0.323471
C66	C	1.653361	0.542634	0.656805
C67	C	0.985981	-0.165167	0.070008
C68	C	1.319314	0.168167	0.403341
C69	C	1.652647	0.501500	0.736675
C70	C	0.984532	-0.247448	0.063512
C71	C	1.317865	0.085886	0.396845
C72	C	1.651198	0.419219	0.730178
C73	C	0.983803	-0.288593	-0.022856
C74	C	1.317136	0.044740	0.310478
C75	C	1.650470	0.378074	0.643811
C76	C	0.984515	-0.247452	-0.102732
C77	C	1.317848	0.085881	0.230602
C78	C	1.651182	0.419214	0.563935
C79	C	0.985958	-0.165172	-0.096234
C80	C	1.319291	0.168161	0.237099
C81	C	1.652624	0.501494	0.570432
C82	C	0.979441	-0.537025	-0.046631
C83	C	1.312774	-0.203692	0.286702
C84	C	1.646107	0.129642	0.620036
C85	C	0.978000	-0.619311	-0.053122
C86	C	1.311334	-0.285978	0.280211
C87	C	1.644667	0.047356	0.613544
C88	C	0.978016	-0.619300	0.113122
C89	C	1.311349	-0.285967	0.446455
C90	C	1.644682	0.047366	0.779788
C91	C	0.979463	-0.537019	0.119611
C92	C	1.312797	-0.203686	0.452945
C93	C	1.646130	0.129647	0.786278
C94	C	0.980171	-0.495885	0.039735
C95	C	1.313504	-0.162552	0.373069
C96	C	1.646837	0.170781	0.706402
C97	C	0.982325	-0.372697	-0.029498
C98	C	1.315658	-0.039364	0.303835
C99	C	1.648991	0.293969	0.637169
C100	C	0.981643	-0.411782	0.046379
C101	C	1.314976	-0.078448	0.379712
C102	C	1.648310	0.254885	0.713045
C103	C	1.134000	0.101972	0.007972
C104	C	1.467334	0.435305	0.341306
C105	C	1.800667	0.768639	0.674639
C106	C	1.226293	0.103510	0.008093
C107	C	1.559627	0.436843	0.341426
C108	C	1.892960	0.770177	0.674759
C109	C	0.975750	0.251984	0.019831
C110	C	1.309083	0.585318	0.353164
C111	C	1.642416	0.918651	0.686498
C112	C	0.977286	0.339554	0.026748
C113	C	1.310619	0.672888	0.360081
C114	C	1.643953	1.006221	0.693414
N115	N	0.981982	0.107756	-0.208556
N116	N	1.315315	0.441090	0.124777
N117	N	1.648649	0.774423	0.458110
C118	C	1.038589	0.054135	-0.543790
C119	C	1.371922	0.387468	-0.210456
C120	C	1.705255	0.720802	0.122877
C121	C	1.038587	0.054135	-0.447808
C122	C	1.371920	0.387469	-0.114475
C123	C	1.705253	0.720802	0.218858
C124	C	0.925396	0.161387	-0.439339
C125	C	1.258729	0.494720	-0.106006
C126	C	1.592063	0.828053	0.227327
C127	C	0.925403	0.161389	-0.535319
C128	C	1.258736	0.494723	-0.201985
C129	C	1.592069	0.828056	0.131348
C130	C	0.981998	0.107759	-0.587542
C131	C	1.315331	0.441092	-0.254208
C132	C	1.648665	0.774426	0.079125
C133	C	0.981989	0.107757	-0.395581
C134	C	1.315323	0.441090	-0.062248
C135	C	1.648656	0.774423	0.271086
C136	C	0.981987	0.107758	-0.291514
C137	C	1.315320	0.441091	0.041819
C138	C	1.648653	0.774424	0.375153
C139	C	0.982002	0.107759	-0.691615
C140	C	1.315335	0.441092	-0.358282
C141	C	1.648669	0.774426	-0.024949
N142	N	0.982005	0.107759	0.225434
N143	N	1.315339	0.441093	0.558767
N144	N	1.648672	0.774426	0.892100
H145	H	0.986578	-0.131673	0.140338
H146	H	1.319912	0.201661	0.473671
H147	H	1.653245	0.534994	0.807004
H148	H	0.403321	0.106469	0.159139
H149	H	0.736654	0.439802	0.492472
H150	H	1.069988	0.773135	0.825806
C151	C	0.863138	0.220371	-0.381886
C152	C	1.196471	0.553704	-0.048552
C153	C	1.529805	0.887037	0.284781
N154	N	0.816241	0.264796	-0.338613
N155	N	1.149575	0.598130	-0.005279
N156	N	1.482908	0.931463	0.328054
H157	H	0.560667	0.109051	-0.142252
H158	H	0.894000	0.442385	0.191082
H159	H	1.227334	0.775718	0.524415
H160	H	0.403336	0.106433	-0.142479
H161	H	0.736669	0.439767	0.190854
H162	H	1.070002	0.773100	0.524187
H163	H	1.084673	0.010467	-0.586308
H164	H	1.418007	0.343800	-0.252974
H165	H	1.751340	0.677134	0.080359
H166	H	0.983954	-0.280936	0.128551
H167	H	1.317287	0.052397	0.461884
H168	H	1.650620	0.385731	0.795217
H169	H	0.986528	-0.131680	-0.161273
H170	H	1.319861	0.201653	0.172060
H171	H	1.653194	0.534987	0.505394
C172	C	0.983707	-0.292715	-0.197737
C173	C	1.317041	0.040619	0.135597
C174	C	1.650374	0.373952	0.468930
N175	N	0.983101	-0.326805	-0.269297
N176	N	1.316434	0.006528	0.064037
N177	N	1.649768	0.339861	0.397370
H178	H	0.977403	-0.652809	-0.123456
H179	H	1.310736	-0.319476	0.209877
H180	H	1.644069	0.013858	0.543210
H181	H	0.980058	-0.503525	0.189941
H182	H	1.313391	-0.170191	0.523274
H183	H	1.646725	0.163142	0.856607
C184	C	0.977228	-0.664553	0.200979
C185	C	1.310561	-0.331220	0.534313
C186	C	1.643895	0.002113	0.867646
N187	N	0.976630	-0.698637	0.267157
N188	N	1.309964	-0.365304	0.600491
N189	N	1.643297	-0.031971	0.933824
H190	H	0.980033	-0.503546	-0.111672
H191	H	1.313367	-0.170212	0.221661
H192	H	1.646700	0.163121	0.554994
H193	H	0.982231	-0.378277	0.116698
H194	H	1.315564	-0.044944	0.450032
H195	H	1.648897	0.288390	0.783365
C196	C	0.573027	0.109286	0.183124
C197	C	0.906361	0.442619	0.516457
C198	C	1.239694	0.775952	0.849790
N199	N	0.608942	0.109886	0.252047
N200	N	0.942276	0.443219	0.585381
N201	N	1.275609	0.776552	0.918714
H202	H	0.981734	-0.406208	-0.099818
H203	H	1.315067	-0.072874	0.233515
H204	H	1.648401	0.260459	0.566848
H205	H	1.084669	0.010471	-0.412188
H206	H	1.418002	0.343804	-0.078855
H207	H	1.751335	0.677137	0.254478
C208	C	0.863144	0.220382	-0.583448
C209	C	1.196477	0.553715	-0.250115
C210	C	1.529811	0.887049	0.083218
N211	N	0.816253	0.264814	-0.619700
N212	N	1.149587	0.598148	-0.286367
N213	N	1.482920	0.931481	0.046967
