data_functionalizedCrystal
_audit_creation_method	'MofGen! by Chris Wilmer'
_symmetry_space_group_name_H-M	'P1'
_symmetry_Int_Tables_number	1
_symmetry_cell_setting	triclinic
loop_
_symmetry_equiv_pos_as_xyz
  x,y,z
_cell_length_a	8.559649
_cell_length_b	10.654550
_cell_length_c	9.130313
_cell_angle_alpha	90.004369
_cell_angle_beta	90.003285
_cell_angle_gamma	77.131797
loop_
_atom_site_label
_atom_site_type_symbol
_atom_site_fract_x
_atom_site_fract_y
_atom_site_fract_z
O1	O	-2.119654	0.042558	-0.121775
O2	O	-1.655168	-0.022229	-0.121783
O3	O	-1.898091	0.194007	-0.121769
O4	O	-1.876732	-0.173678	-0.121788
O5	O	-1.898074	0.194011	0.121829
O6	O	-1.655151	-0.022225	0.121816
O7	O	-2.119637	0.042562	0.121824
Cu8	Cu	-1.887393	0.010169	0.144063
Cu9	Cu	-1.887413	0.010164	-0.144021
O10	O	-1.876715	-0.173674	0.121811
C11	C	-1.595684	-0.027137	0.000016
C12	C	-1.418466	-0.041751	0.000013
C13	C	-1.896514	0.240645	0.000029
C14	C	-1.891822	0.379603	0.000027
C15	C	-2.179121	0.047469	0.000023
C16	C	-2.356339	0.062084	0.000016
C17	C	-1.878292	-0.220312	0.000009
C18	C	-1.882984	-0.359271	0.000002
N19	N	-1.887391	0.010174	0.346685
C20	C	-2.034851	0.473864	0.000029
C21	C	-2.030432	0.604428	0.000011
C22	C	-1.739944	0.546458	-0.000005
C23	C	-1.744364	0.415896	0.000003
N24	N	-1.887428	0.010170	-0.346644
C25	C	-1.994993	0.105891	0.423343
C26	C	-1.995009	0.105892	0.576680
C27	C	-1.779813	-0.085552	0.576688
C28	C	-1.779792	-0.085547	0.423354
H29	H	-1.438727	0.162162	0.000014
C30	C	-2.197058	0.433947	0.000039
N31	N	-2.319238	0.403886	0.000041
H32	H	-1.336069	-0.141836	-0.000000
C33	C	-1.661487	-0.190899	0.339025
N34	N	-1.572409	-0.270263	0.275509
C35	C	-1.577748	0.586394	-0.000003
N36	N	-1.455579	0.616472	0.000009
H37	H	-2.146901	0.681172	0.000009
C38	C	-2.113342	0.211195	0.339013
N39	N	-2.202481	0.290517	0.275500
C40	C	-2.113367	0.211198	0.660996
N41	N	-2.202515	0.290522	0.724503
H42	H	-1.627885	0.339143	-0.000003
H43	H	-1.692211	-0.163488	0.639126
