data_functionalizedCrystal
_audit_creation_method	'MofGen! by Chris Wilmer'
_symmetry_space_group_name_H-M	'P1'
_symmetry_Int_Tables_number	1
_symmetry_cell_setting	triclinic
loop_
_symmetry_equiv_pos_as_xyz
  x,y,z
_cell_length_a	10.967926
_cell_length_b	11.792240
_cell_length_c	10.065918
_cell_angle_alpha	80.228909
_cell_angle_beta	87.800512
_cell_angle_gamma	95.540026
loop_
_atom_site_label
_atom_site_type_symbol
_atom_site_fract_x
_atom_site_fract_y
_atom_site_fract_z
O1	O	1.617971	-0.124035	-0.267022
O2	O	2.117971	0.375965	0.232978
O3	O	1.266777	-0.150149	-0.184415
O4	O	1.766777	0.349851	0.315585
O5	O	1.450891	0.028329	-0.227763
O6	O	1.950891	0.528329	0.272237
O7	O	1.433858	-0.302512	-0.223674
O8	O	1.933858	0.197488	0.276326
O9	O	1.419012	0.057225	-0.447261
O10	O	1.919012	0.557225	0.052739
O11	O	1.234898	-0.121253	-0.403913
O12	O	1.734898	0.378747	0.096087
O13	O	1.586092	-0.095139	-0.486520
O14	O	2.086092	0.404861	0.013480
Zn15	Zn	1.405434	-0.103608	-0.480066
Zn16	Zn	1.905434	0.396392	0.019934
Zn17	Zn	1.447436	-0.141680	-0.190869
Zn18	Zn	1.947436	0.358320	0.309131
O19	O	1.401979	-0.273616	-0.443172
O20	O	1.901979	0.226384	0.056828
C21	C	1.205877	-0.135984	-0.283589
C22	C	1.705877	0.364016	0.216411
C23	C	1.071909	-0.136815	-0.252079
C24	C	1.571909	0.363185	0.247921
C25	C	0.995667	-0.122216	-0.351737
C26	C	1.495667	0.377784	0.148263
C27	C	0.857203	-0.123075	-0.319172
C28	C	1.357203	0.376925	0.180828
C29	C	1.433880	0.085038	-0.337268
C30	C	1.933880	0.585038	0.162732
C31	C	1.430672	0.210963	-0.336536
C32	C	1.930672	0.710963	0.163464
C33	C	1.424776	0.441508	-0.335171
C34	C	1.924776	0.941508	0.164829
C35	C	1.428052	0.313216	-0.335929
C36	C	1.928052	0.813216	0.164071
C37	C	1.646993	-0.109304	-0.387343
C38	C	2.146993	0.390696	0.112657
C39	C	1.780962	-0.108474	-0.418845
C40	C	2.280962	0.391526	0.081155
N41	N	1.376777	-0.077624	-0.677438
N42	N	1.876777	0.422376	-0.177438
C43	C	1.418983	0.669680	-0.333711
C44	C	1.918983	1.169680	0.166289
C45	C	1.422172	0.543773	-0.334574
C46	C	1.922172	1.043773	0.165426
C47	C	1.437457	-0.132640	-0.759476
C48	C	1.937457	0.367360	-0.259476
C49	C	1.415413	-0.112631	-0.911463
C50	C	1.915413	0.387369	-0.411463
N51	N	1.476102	-0.167654	0.006501
N52	N	1.976102	0.332346	0.506501
H53	H	1.505733	-0.194549	-0.717192
H54	H	2.005733	0.305451	-0.217192
O55	O	1.325002	-0.030585	-0.967465
O56	O	1.825002	0.469415	-0.467465
H57	H	1.283921	0.006687	-0.884254
H58	H	1.783921	0.506687	-0.384254
H59	H	1.544379	-0.229571	-0.951223
H60	H	2.044379	0.270429	-0.451223
H61	H	1.308510	-0.015706	-0.719724
H62	H	1.808510	0.484294	-0.219724
H63	H	1.032903	-0.109076	-0.461166
H64	H	1.532903	0.390924	0.038834
H65	H	0.819974	-0.136207	-0.209736
H66	H	1.319974	0.363793	0.290264
O67	O	0.830255	-0.091080	-0.563812
O68	O	1.330255	0.408920	-0.063812
H69	H	0.931273	-0.093146	-0.566645
H70	H	1.431273	0.406854	-0.066645
O71	O	1.022606	-0.154218	-0.107119
O72	O	1.522606	0.345782	0.392881
H73	H	0.921586	-0.152171	-0.104289
H74	H	1.421586	0.347829	0.395711
