data_functionalizedCrystal
_audit_creation_method	'MofGen! by Chris Wilmer'
_symmetry_space_group_name_H-M	'P1'
_symmetry_Int_Tables_number	1
_symmetry_cell_setting	triclinic
loop_
_symmetry_equiv_pos_as_xyz
  x,y,z
_cell_length_a	19.288856
_cell_length_b	19.288859
_cell_length_c	18.366186
_cell_angle_alpha	89.994011
_cell_angle_beta	90.011039
_cell_angle_gamma	96.866756
loop_
_atom_site_label
_atom_site_type_symbol
_atom_site_fract_x
_atom_site_fract_y
_atom_site_fract_z
O1	O	-0.921355	0.086621	-0.060582
O2	O	-0.421355	0.586621	0.439418
O3	O	-0.719093	0.098316	-0.060577
O4	O	-0.219093	0.598316	0.439423
O5	O	-0.826070	-0.008663	-0.060575
O6	O	-0.326070	0.491337	0.439425
O7	O	-0.814377	0.193599	-0.060584
O8	O	-0.314377	0.693599	0.439416
O9	O	-0.826052	-0.008668	0.060524
O10	O	-0.326052	0.491332	0.560524
O11	O	-0.719075	0.098310	0.060523
O12	O	-0.219075	0.598310	0.560523
O13	O	-0.921336	0.086615	0.060517
O14	O	-0.421336	0.586615	0.560517
Zn15	Zn	-0.820203	0.092462	0.079747
Zn16	Zn	-0.320203	0.592462	0.579747
Zn17	Zn	-0.820227	0.092469	-0.079807
Zn18	Zn	-0.320227	0.592469	0.420193
O19	O	-0.814359	0.193594	0.060516
O20	O	-0.314359	0.693594	0.560516
C21	C	-0.693207	0.097938	-0.000026
C22	C	-0.193207	0.597938	0.499974
C23	C	-0.616103	0.096811	-0.000024
C24	C	-0.116103	0.596811	0.499976
C25	C	-0.052061	0.151959	-0.000016
C26	C	0.447939	0.651959	0.499984
C27	C	-0.124507	0.153024	-0.000021
C28	C	0.375493	0.653024	0.499979
C29	C	-0.169216	0.090254	-0.000018
C30	C	0.330784	0.590254	0.499982
C31	C	-0.141472	0.026415	-0.000028
C32	C	0.358528	0.526415	0.499972
C33	C	-0.069027	0.025352	-0.000030
C34	C	0.430973	0.525352	0.499970
C35	C	-0.290481	0.043438	0.042411
C36	C	0.209519	0.543438	0.542411
C37	C	-0.362924	0.044504	0.042417
C38	C	0.137076	0.544504	0.542417
C39	C	-0.392662	0.093530	-0.000015
C40	C	0.107338	0.593530	0.499985
C41	C	-0.349945	0.141502	-0.042445
C42	C	0.150055	0.641502	0.457555
C43	C	-0.277499	0.140439	-0.042446
C44	C	0.222501	0.640439	0.457554
C45	C	-0.247771	0.091400	-0.000016
C46	C	0.252229	0.591400	0.499984
C47	C	-0.498952	0.158520	-0.000016
C48	C	0.001048	0.658520	0.499984
C49	C	-0.571400	0.159582	-0.000026
C50	C	-0.071400	0.659582	0.499974
C51	C	-0.588363	0.032971	-0.000026
C52	C	-0.088363	0.532971	0.499974
C53	C	-0.515916	0.031910	-0.000023
C54	C	-0.015916	0.531910	0.499977
C55	C	-0.471215	0.094687	-0.000015
C56	C	0.028785	0.594687	0.499985
C57	C	-0.825686	-0.034542	-0.000026
C58	C	-0.325686	0.465458	0.499974
C59	C	-0.824558	-0.111646	-0.000027
C60	C	-0.324558	0.388354	0.499973
C61	C	0.052778	0.086996	-0.000030
C62	C	0.552778	0.586996	0.499970
C63	C	-0.024325	0.088128	-0.000022
C64	C	0.475675	0.588128	0.499978
C65	C	-0.879702	-0.675688	-0.000048
C66	C	-0.379702	-0.175688	0.499952
C67	C	-0.880767	-0.603241	-0.000042
C68	C	-0.380767	-0.103241	0.499958
C69	C	-0.817998	-0.558533	-0.000040
C70	C	-0.317998	-0.058533	0.499960
C71	C	-0.754158	-0.586276	-0.000026
C72	C	-0.254158	-0.086276	0.499974
C73	C	-0.753095	-0.658721	-0.000026
C74	C	-0.253095	-0.158721	0.499974
C75	C	-0.771191	-0.437256	-0.042464
C76	C	-0.271191	0.062744	0.457536
C77	C	-0.772257	-0.364812	-0.042469
C78	C	-0.272257	0.135188	0.457531
C79	C	-0.821275	-0.335087	-0.000040
C80	C	-0.321275	0.164913	0.499960
C81	C	-0.869239	-0.377816	0.042386
C82	C	-0.369239	0.122184	0.542386
C83	C	-0.868176	-0.450261	0.042387
C84	C	-0.368176	0.049739	0.542387
C85	C	-0.819144	-0.479977	-0.000041
C86	C	-0.319144	0.020023	0.499959
C87	C	-0.886266	-0.228797	-0.000041
C88	C	-0.386266	0.271203	0.499959
C89	C	-0.887329	-0.156349	-0.000030
C90	C	-0.387329	0.343651	0.499970
C91	C	-0.760718	-0.139385	-0.000022
C92	C	-0.260718	0.360615	0.499978
C93	C	-0.759657	-0.211832	-0.000026
C94	C	-0.259657	0.288168	0.499974
C95	C	-0.822433	-0.256534	-0.000039
C96	C	-0.322433	0.243466	0.499961
C97	C	-0.814744	0.219473	-0.000035
C98	C	-0.314744	0.719473	0.499965
C99	C	-0.815871	0.296577	-0.000039
C100	C	-0.315871	0.796577	0.499961
N101	N	-0.820191	0.092457	0.188638
N102	N	-0.320191	0.592457	0.688638
N103	N	-0.820243	0.092469	-0.188698
N104	N	-0.320243	0.592469	0.311302
C105	C	-0.867577	0.045110	0.226739
C106	C	-0.367577	0.545110	0.726739
C107	C	-0.867581	0.045107	0.302967
C108	C	-0.367581	0.545107	0.802967
C109	C	-0.820207	0.092463	0.341091
C110	C	-0.320207	0.592463	0.841091
C111	C	-0.772813	0.139813	0.302981
C112	C	-0.272813	0.639813	0.802981
C113	C	-0.772805	0.139810	0.226754
C114	C	-0.272805	0.639810	0.726754
C115	C	-0.810907	0.155751	0.461849
C116	C	-0.310907	0.655751	0.961849
C117	C	-0.810920	0.155755	0.538074
C118	C	-0.310920	0.655755	1.038074
C119	C	-0.820227	0.092471	0.576198
C120	C	-0.320227	0.592471	1.076198
C121	C	-0.829536	0.029181	0.538089
C122	C	-0.329536	0.529181	1.038089
C123	C	-0.829528	0.029179	0.461862
C124	C	-0.329528	0.529179	0.961862
C125	C	-0.820210	0.092471	0.423746
C126	C	-0.320210	0.592471	0.923746
C127	C	-0.867619	0.045117	0.696954
C128	C	-0.367619	0.545117	1.196954
C129	C	-0.867619	0.045113	0.773183
C130	C	-0.367619	0.545113	1.273183
C131	C	-0.772854	0.139825	0.773196
C132	C	-0.272854	0.639825	1.273196
C133	C	-0.772851	0.139823	0.696968
C134	C	-0.272851	0.639823	1.196968
C135	C	-0.820237	0.092470	0.658852
C136	C	-0.320237	0.592470	1.158852
H137	H	-0.462554	0.209636	-0.000010
H138	H	0.037446	0.709636	0.499990
H139	H	-0.906202	0.006557	0.665919
H140	H	-0.406202	0.506557	1.165919
H141	H	-0.703051	-0.549869	-0.000023
H142	H	-0.203051	-0.049869	0.499977
H143	H	-0.593980	0.211562	-0.000027
H144	H	-0.093980	0.711562	0.499973
H145	H	-0.177878	-0.024693	-0.000028
H146	H	0.322122	0.475307	0.499972
N147	N	-0.721741	0.190895	0.655875
N148	N	-0.221741	0.690895	1.155875
H149	H	-0.729582	0.240174	0.669130
H150	H	-0.229582	0.740174	1.169130
H151	H	-0.728946	0.183649	0.601814
H152	H	-0.228946	0.683649	1.101814
H153	H	-0.624764	-0.018138	-0.000029
H154	H	-0.124764	0.481862	0.499971
H155	H	-0.493334	-0.020068	-0.000024
H156	H	0.006666	0.479932	0.499976
N157	N	-0.258411	-0.009447	0.088175
N158	N	0.241589	0.490553	0.588175
H159	H	-0.296462	-0.039671	0.115058
H160	H	0.203538	0.460329	0.615058
H161	H	-0.224920	0.015668	0.124413
H162	H	0.275080	0.515668	0.624413
H163	H	-0.374154	0.181426	-0.076995
H164	H	0.125846	0.681426	0.423005
N165	N	-0.039106	-0.043497	-0.000036
N166	N	0.460894	0.456503	0.499964
H167	H	-0.078419	-0.083102	-0.000037
H168	H	0.421581	0.416898	0.499963
H169	H	-0.009411	-0.046699	0.044858
H170	H	0.490589	0.453301	0.544858
N171	N	-0.953967	-0.277022	-0.000038
N172	N	-0.453967	0.222978	0.499962
H173	H	-0.956356	-0.307453	-0.044931
H174	H	-0.456356	0.192547	0.455069
H175	H	-0.994531	-0.248410	-0.000008
H176	H	-0.494531	0.251590	0.499992
N177	N	-0.720532	-0.318732	-0.088232
N178	N	-0.220532	0.181268	0.411768
H179	H	-0.691141	-0.284674	-0.055734
H180	H	-0.191141	0.215326	0.444266
H181	H	-0.746538	-0.292142	-0.124512
H182	H	-0.246538	0.207858	0.375488
N183	N	-0.721753	0.190899	0.814306
N184	N	-0.221753	0.690899	1.314306
H185	H	-0.672485	0.183019	0.801054
H186	H	-0.172485	0.683019	1.301054
H187	H	-0.729007	0.183687	0.868363
H188	H	-0.229007	0.683687	1.368363
H189	H	-0.906160	0.006551	0.195707
H190	H	-0.406160	0.506551	0.695707
H191	H	-0.930819	-0.712081	-0.000055
H192	H	-0.430819	-0.212081	0.499945
N193	N	-0.408993	-0.007227	0.088187
N194	N	0.091007	0.492773	0.588187
H195	H	-0.379164	-0.038450	0.115062
H196	H	0.120836	0.461550	0.615062
H197	H	-0.443053	-0.036565	0.055647
H198	H	0.056947	0.463435	0.555647
N199	N	-0.839578	-0.039081	0.579196
N200	N	-0.339578	0.460919	1.079196
H201	H	-0.838168	-0.029479	0.633268
H202	H	-0.338168	0.470521	1.133268
H203	H	-0.801056	-0.067909	0.565885
H204	H	-0.301056	0.432091	1.065885
N205	N	-0.800872	0.224013	0.420736
N206	N	-0.300872	0.724013	0.920736
H207	H	-0.843041	0.228020	0.389096
H208	H	-0.343041	0.728020	0.889096
H209	H	-0.757847	0.225603	0.389164
H210	H	-0.257847	0.725603	0.889164
H211	H	-0.932748	-0.580655	-0.000050
H212	H	-0.432748	-0.080655	0.499950
H213	H	-0.909150	-0.353615	0.076942
H214	H	-0.409150	0.146385	0.576942
H215	H	-0.803344	0.207289	0.569097
H216	H	-0.303344	0.707289	1.069097
H217	H	-0.906169	0.006550	0.333994
H218	H	-0.406169	0.506550	0.833994
N219	N	-0.684246	-0.688641	-0.000010
N220	N	-0.184246	-0.188641	0.499990
H221	H	-0.644641	-0.649328	-0.000003
H222	H	-0.144641	-0.149328	0.499997
H223	H	-0.681048	-0.718325	-0.044902
H224	H	-0.181048	-0.218325	0.455098
H225	H	-0.906203	0.006554	0.804206
H226	H	-0.406203	0.506554	1.304206
H227	H	-0.734239	0.178370	0.334025
H228	H	-0.234239	0.678370	0.834025
H229	H	-0.731265	-0.461450	-0.077010
H230	H	-0.231265	0.038550	0.422990
H231	H	-0.837106	-0.022354	0.430837
H232	H	-0.337106	0.477646	0.930837
H233	H	-0.907228	-0.485048	0.076933
H234	H	-0.407228	0.014952	0.576933
N235	N	-0.721692	0.190881	0.185661
N236	N	-0.221692	0.690881	0.685661
H237	H	-0.729531	0.240160	0.198917
H238	H	-0.229531	0.740160	0.698917
H239	H	-0.728900	0.183635	0.131600
H240	H	-0.228900	0.683635	0.631600
N241	N	-0.003874	0.219682	0.000038
N242	N	0.496126	0.719682	0.500038
H243	H	-0.012776	0.247572	-0.044836
H244	H	0.487224	0.747572	0.455164
H245	H	0.046219	0.209297	0.000080
H246	H	0.546219	0.709297	0.500080
N247	N	-0.154434	0.221872	-0.000015
N248	N	0.345566	0.721872	0.499985
H249	H	-0.115123	0.261479	-0.000011
H250	H	0.384877	0.761479	0.499989
H251	H	-0.184114	0.225060	0.044880
H252	H	0.315886	0.725060	0.544880
H253	H	-0.242722	0.179499	-0.076995
H254	H	0.257278	0.679499	0.423005
N255	N	-0.956179	-0.126431	-0.000032
N256	N	-0.456179	0.373569	0.499968
H257	H	-0.995782	-0.165745	-0.000041
H258	H	-0.495782	0.334255	0.499959
H259	H	-0.959380	-0.096735	-0.044923
H260	H	-0.459380	0.403265	0.455077
H261	H	-0.707679	-0.234413	-0.000023
H262	H	-0.207679	0.265587	0.499977
N263	N	-0.693014	-0.091174	-0.000012
N264	N	-0.193014	0.408826	0.499988
H265	H	-0.703372	-0.041070	-0.000012
H266	H	-0.203372	0.458930	0.499988
H267	H	-0.665188	-0.100127	-0.044902
H268	H	-0.165188	0.399873	0.455098
