data_functionalizedCrystal
_audit_creation_method	'MofGen! by Chris Wilmer'
_symmetry_space_group_name_H-M	'P1'
_symmetry_Int_Tables_number	1
_symmetry_cell_setting	triclinic
loop_
_symmetry_equiv_pos_as_xyz
  x,y,z
_cell_length_a	16.625546
_cell_length_b	19.805407
_cell_length_c	19.805399
_cell_angle_alpha	90.026078
_cell_angle_beta	89.972133
_cell_angle_gamma	89.978916
loop_
_atom_site_label
_atom_site_type_symbol
_atom_site_fract_x
_atom_site_fract_y
_atom_site_fract_z
Zn1	Zn	-0.321050	-1.034754	-0.382836
Zn2	Zn	-0.071050	-0.784754	-0.132836
Zn3	Zn	0.178950	-0.534754	0.117164
Zn4	Zn	0.428950	-0.284754	0.367164
Zn5	Zn	-0.455887	-1.034677	-0.269647
Zn6	Zn	-0.205887	-0.784677	-0.019647
Zn7	Zn	0.044113	-0.534677	0.230353
Zn8	Zn	0.294113	-0.284677	0.480353
Zn9	Zn	-0.321069	-0.921569	-0.269648
Zn10	Zn	-0.071069	-0.671569	-0.019648
Zn11	Zn	0.178931	-0.421569	0.230352
Zn12	Zn	0.428931	-0.171569	0.480352
Zn13	Zn	-0.455841	-0.921540	-0.382781
Zn14	Zn	-0.205841	-0.671540	-0.132781
Zn15	Zn	0.044159	-0.421540	0.117219
Zn16	Zn	0.294159	-0.171540	0.367219
O17	O	-0.388462	-0.978135	-0.326228
O18	O	-0.138462	-0.728135	-0.076228
O19	O	0.111538	-0.478135	0.173772
O20	O	0.361538	-0.228135	0.423772
O21	O	-0.338948	-1.129461	-0.367844
O22	O	-0.088948	-0.879461	-0.117844
O23	O	0.161052	-0.629461	0.132156
O24	O	0.411052	-0.379461	0.382156
O25	O	-0.438031	-1.019653	-0.174930
O26	O	-0.188031	-0.769653	0.075070
O27	O	0.061969	-0.519653	0.325070
O28	O	0.311969	-0.269653	0.575070
O29	O	-0.208234	-0.936628	-0.284685
O30	O	0.041766	-0.686628	-0.034685
O31	O	0.291766	-0.436628	0.215315
O32	O	0.541766	-0.186628	0.465315
O33	O	-0.438012	-1.129404	-0.284684
O34	O	-0.188012	-0.879404	-0.034684
O35	O	0.061988	-0.629404	0.215316
O36	O	0.311988	-0.379404	0.465316
O37	O	-0.208220	-1.019784	-0.367844
O38	O	0.041780	-0.769784	-0.117844
O39	O	0.291780	-0.519784	0.132156
O40	O	0.541780	-0.269784	0.382156
O41	O	-0.338980	-0.936553	-0.174931
O42	O	-0.088980	-0.686553	0.075069
O43	O	0.161020	-0.436553	0.325069
O44	O	0.411020	-0.186553	0.575069
O45	O	-0.338935	-0.826849	-0.284632
O46	O	-0.088935	-0.576849	-0.034632
O47	O	0.161065	-0.326849	0.215368
O48	O	0.411065	-0.076849	0.465368
O49	O	-0.437934	-0.936579	-0.477505
O50	O	-0.187934	-0.686579	-0.227505
O51	O	0.062066	-0.436579	0.022495
O52	O	0.312066	-0.186579	0.272495
O53	O	-0.437952	-0.826827	-0.367751
O54	O	-0.187952	-0.576827	-0.117751
O55	O	0.062048	-0.326827	0.132249
O56	O	0.312048	-0.076827	0.382249
O57	O	-0.338903	-1.019757	-0.477545
O58	O	-0.088903	-0.769757	-0.227545
O59	O	0.161097	-0.519757	0.022455
O60	O	0.411097	-0.269757	0.272455
O61	O	-0.568713	-1.019625	-0.284631
O62	O	-0.318713	-0.769625	-0.034631
O63	O	-0.068713	-0.519625	0.215369
O64	O	0.181287	-0.269625	0.465369
O65	O	-0.568680	-0.936504	-0.367750
O66	O	-0.318680	-0.686504	-0.117750
O67	O	-0.068680	-0.436504	0.132250
O68	O	0.181320	-0.186504	0.382250
C69	C	-0.388441	-0.802279	-0.326186
C70	C	-0.138441	-0.552279	-0.076186
C71	C	0.111559	-0.302279	0.173814
C72	C	0.361559	-0.052279	0.423814
C73	C	-0.388452	-0.727047	-0.326184
C74	C	-0.138452	-0.477047	-0.076184
C75	C	0.111548	-0.227047	0.173816
C76	C	0.361548	0.022953	0.423816
C77	C	-0.440107	-0.265263	-0.369460
C78	C	-0.190107	-0.015263	-0.119460
C79	C	0.059893	0.234737	0.130540
C80	C	0.309893	0.484737	0.380540
C81	C	-0.440107	-0.335951	-0.369448
C82	C	-0.190107	-0.085951	-0.119448
C83	C	0.059893	0.164049	0.130552
C84	C	0.309893	0.414049	0.380552
C85	C	-0.388473	-0.371285	-0.326234
C86	C	-0.138473	-0.121285	-0.076234
C87	C	0.111527	0.128715	0.173766
C88	C	0.361527	0.378715	0.423766
C89	C	-0.336843	-0.335927	-0.283025
C90	C	-0.086843	-0.085927	-0.033025
C91	C	0.163157	0.164073	0.216975
C92	C	0.413157	0.414073	0.466975
C93	C	-0.336848	-0.265240	-0.283035
C94	C	-0.086848	-0.015240	-0.033035
C95	C	0.163152	0.234760	0.216965
C96	C	0.413152	0.484760	0.466965
C97	C	-0.336822	-0.621001	-0.282987
C98	C	-0.086822	-0.371001	-0.032987
C99	C	0.163178	-0.121001	0.217013
C100	C	0.413178	0.128999	0.467013
C101	C	-0.336819	-0.691693	-0.282983
C102	C	-0.086819	-0.441693	-0.032983
C103	C	0.163181	-0.191693	0.217017
C104	C	0.413181	0.058307	0.467017
C105	C	-0.440081	-0.691712	-0.369400
C106	C	-0.190081	-0.441712	-0.119400
C107	C	0.059919	-0.191712	0.130600
C108	C	0.309919	0.058288	0.380600
C109	C	-0.440086	-0.621025	-0.369409
C110	C	-0.190086	-0.371025	-0.119409
C111	C	0.059914	-0.121025	0.130591
C112	C	0.309914	0.128975	0.380591
C113	C	-0.388459	-0.585673	-0.326198
C114	C	-0.138459	-0.335673	-0.076198
C115	C	0.111541	-0.085673	0.173802
C116	C	0.361541	0.164327	0.423802
C117	C	-0.388461	-0.509024	-0.326211
C118	C	-0.138461	-0.259024	-0.076211
C119	C	0.111539	-0.009024	0.173789
C120	C	0.361539	0.240976	0.423789
C121	C	-0.388467	-0.447932	-0.326225
C122	C	-0.138467	-0.197932	-0.076225
C123	C	0.111533	0.052068	0.173775
C124	C	0.361533	0.302068	0.423775
C125	C	-0.597953	-0.978071	-0.326199
C126	C	-0.347953	-0.728071	-0.076199
C127	C	-0.097953	-0.478071	0.173801
C128	C	0.152047	-0.228071	0.423801
C129	C	-0.687574	-0.978106	-0.326210
C130	C	-0.437574	-0.728106	-0.076210
C131	C	-0.187574	-0.478106	0.173790
C132	C	0.062426	-0.228106	0.423790
C133	C	-1.015749	-0.978224	-0.326280
C134	C	-0.765749	-0.728224	-0.076280
C135	C	-0.515749	-0.478224	0.173720
C136	C	-0.265749	-0.228224	0.423720
C137	C	-0.924441	-0.978189	-0.326263
C138	C	-0.674441	-0.728189	-0.076263
C139	C	-0.424441	-0.478189	0.173737
C140	C	-0.174441	-0.228189	0.423737
C141	C	-0.851664	-0.978164	-0.326245
C142	C	-0.601664	-0.728164	-0.076245
C143	C	-0.351664	-0.478164	0.173755
C144	C	-0.101664	-0.228164	0.423755
C145	C	-0.760350	-0.978130	-0.326228
C146	C	-0.510350	-0.728130	-0.076228
C147	C	-0.260350	-0.478130	0.173772
C148	C	-0.010350	-0.228130	0.423772
C149	C	-0.178153	-0.978218	-0.326271
C150	C	0.071847	-0.728218	-0.076271
C151	C	0.321847	-0.478218	0.173729
C152	C	0.571847	-0.228218	0.423729
C153	C	-0.088532	-0.978253	-0.326289
C154	C	0.161468	-0.728253	-0.076289
C155	C	0.411468	-0.478253	0.173711
C156	C	0.661468	-0.228253	0.423711
C157	C	-0.388411	-0.978173	-0.502771
C158	C	-0.138411	-0.728173	-0.252771
C159	C	0.111589	-0.478173	-0.002771
C160	C	0.361589	-0.228173	0.247229
C161	C	-0.388389	-0.978189	-0.578003
C162	C	-0.138389	-0.728189	-0.328003
C163	C	0.111611	-0.478189	-0.078003
C164	C	0.361611	-0.228189	0.171997
C165	C	-0.388480	-0.154678	-0.326262
C166	C	-0.138480	0.095322	-0.076262
C167	C	0.111520	0.345322	0.173738
C168	C	0.361520	0.595322	0.423738
C169	C	-0.388479	-0.229910	-0.326255
C170	C	-0.138479	0.020090	-0.076255
C171	C	0.111521	0.270090	0.173745
C172	C	0.361521	0.520090	0.423745
C173	C	-0.336822	-1.021501	-0.613369
C174	C	-0.086822	-0.771501	-0.363369
C175	C	0.163178	-0.521501	-0.113369
C176	C	0.413178	-0.271501	0.136631
C177	C	-0.336798	-1.021508	-0.684057
C178	C	-0.086798	-0.771508	-0.434057
C179	C	0.163202	-0.521508	-0.184057
C180	C	0.413202	-0.271508	0.065943
C181	C	-0.388347	-0.978206	-0.719378
C182	C	-0.138347	-0.728206	-0.469378
C183	C	0.111653	-0.478206	-0.219378
C184	C	0.361653	-0.228206	0.030622
C185	C	-0.439917	-0.934890	-0.684007
C186	C	-0.189917	-0.684890	-0.434007
C187	C	0.060083	-0.434890	-0.184007
C188	C	0.310083	-0.184890	0.065993
C189	C	-0.439936	-0.934880	-0.613320
C190	C	-0.189936	-0.684880	-0.363320
C191	C	0.060064	-0.434880	-0.113320
C192	C	0.310064	-0.184880	0.136680
C193	C	-0.439842	-0.934928	-0.969081
C194	C	-0.189842	-0.684928	-0.719081
C195	C	0.060158	-0.434928	-0.469081
C196	C	0.310158	-0.184928	-0.219081
C197	C	-0.439821	-0.934942	-1.039773
C198	C	-0.189821	-0.684942	-0.789773
C199	C	0.060179	-0.434942	-0.539773
C200	C	0.310179	-0.184942	-0.289773
C201	C	-0.336704	-1.021556	-1.039818
C202	C	-0.086704	-0.771556	-0.789818
C203	C	0.163296	-0.521556	-0.539818
C204	C	0.413296	-0.271556	-0.289818
C205	C	-0.336723	-1.021546	-0.969131
C206	C	-0.086723	-0.771546	-0.719131
C207	C	0.163277	-0.521546	-0.469131
C208	C	0.413277	-0.271546	-0.219131
C209	C	-0.388290	-0.978227	-0.933766
C210	C	-0.138290	-0.728227	-0.683766
C211	C	0.111710	-0.478227	-0.433766
C212	C	0.361710	-0.228227	-0.183766
C213	C	-0.388313	-0.978219	-0.857117
C214	C	-0.138313	-0.728219	-0.607117
C215	C	0.111687	-0.478219	-0.357117
C216	C	0.361687	-0.228219	-0.107117
C217	C	-0.388328	-0.978217	-0.796025
C218	C	-0.138328	-0.728217	-0.546025
C219	C	0.111672	-0.478217	-0.296025
C220	C	0.361672	-0.228217	-0.046025
C221	C	-0.388454	-0.978136	-0.150372
C222	C	-0.138454	-0.728136	0.099628
C223	C	0.111546	-0.478136	0.349628
C224	C	0.361546	-0.228136	0.599628
C225	C	-0.388249	-0.978251	-0.075140
C226	C	-0.138249	-0.728251	0.174860
C227	C	0.111751	-0.478251	0.424860
C228	C	0.361751	-0.228251	0.674860
H229	H	-0.294769	-0.720460	-0.247792
H230	H	-0.044769	-0.470460	0.002208
H231	H	0.205231	-0.220460	0.252208
H232	H	0.455231	0.029540	0.502208
H233	H	-0.294809	-1.056778	-0.712849
H234	H	-0.044809	-0.806778	-0.462849
H235	H	0.205191	-0.556778	-0.212849
H236	H	0.455191	-0.306778	0.037151
F237	F	-0.495033	-0.729341	-0.415386
F238	F	-0.245033	-0.479341	-0.165386
F239	F	0.004967	-0.229341	0.084614
F240	F	0.254967	0.020659	0.334614
H241	H	-0.294749	-1.056809	-0.940376
H242	H	-0.044749	-0.806809	-0.690376
H243	H	0.205251	-0.556809	-0.440376
H244	H	0.455251	-0.306809	-0.190376
F245	F	-0.495059	-0.373573	-0.415430
F246	F	-0.245059	-0.123573	-0.165430
F247	F	0.004941	0.126427	0.084570
F248	F	0.254941	0.376427	0.334570
F249	F	-0.494724	-0.888824	-0.931451
F250	F	-0.244724	-0.638824	-0.681451
F251	F	0.005276	-0.388824	-0.431451
F252	F	0.255276	-0.138824	-0.181451
F253	F	-0.494819	-0.888780	-0.575681
F254	F	-0.244819	-0.638780	-0.325681
F255	F	0.005181	-0.388780	-0.075681
F256	F	0.255181	-0.138780	0.174319
F257	F	-0.281893	-0.373534	-0.237032
F258	F	-0.031893	-0.123534	0.012968
F259	F	0.218107	0.126466	0.262968
F260	F	0.468107	0.376466	0.512968
H261	H	-0.481886	-0.899630	-0.712771
H262	H	-0.231886	-0.649630	-0.462771
H263	H	0.018114	-0.399630	-0.212771
H264	H	0.268114	-0.149630	0.037229
H265	H	-0.294804	-0.236457	-0.247855
H266	H	-0.044804	0.013543	0.002145
H267	H	0.205196	0.263543	0.252145
H268	H	0.455196	0.513543	0.502145
F269	F	-0.495060	-0.227664	-0.415457
F270	F	-0.245060	0.022336	-0.165457
F271	F	0.004940	0.272336	0.084543
F272	F	0.254940	0.522336	0.334543
F273	F	-0.281869	-0.583386	-0.237003
F274	F	-0.031869	-0.333386	0.012997
F275	F	0.218131	-0.083386	0.262997
F276	F	0.468131	0.166614	0.512997
H277	H	-0.482128	-0.592259	-0.404600
H278	H	-0.232128	-0.342259	-0.154600
H279	H	0.017872	-0.092259	0.095400
H280	H	0.267872	0.157741	0.345400
F281	F	-0.281959	-1.067593	-0.575784
F282	F	-0.031959	-0.817593	-0.325784
F283	F	0.218041	-0.567593	-0.075784
F284	F	0.468041	-0.317593	0.174216
F285	F	-0.281819	-1.067658	-1.077462
F286	F	-0.031819	-0.817658	-0.827462
F287	F	0.218181	-0.567658	-0.577462
F288	F	0.468181	-0.317658	-0.327462
H289	H	-0.481800	-0.899678	-1.068529
H290	H	-0.231800	-0.649678	-0.818529
H291	H	0.018200	-0.399678	-0.568529
H292	H	0.268200	-0.149678	-0.318529
