data_functionalizedCrystal
_audit_creation_method	'MofGen! by Chris Wilmer'
_symmetry_space_group_name_H-M	'P1'
_symmetry_Int_Tables_number	1
_symmetry_cell_setting	triclinic
loop_
_symmetry_equiv_pos_as_xyz
  x,y,z
_cell_length_a	18.101395
_cell_length_b	15.298206
_cell_length_c	15.298259
_cell_angle_alpha	72.647385
_cell_angle_beta	99.713753
_cell_angle_gamma	80.369303
loop_
_atom_site_label
_atom_site_type_symbol
_atom_site_fract_x
_atom_site_fract_y
_atom_site_fract_z
Zn1	Zn	-0.443935	1.330586	0.279395
Zn2	Zn	0.056065	1.830586	0.779395
Zn3	Zn	-0.593682	1.357352	0.123894
Zn4	Zn	-0.093682	1.857352	0.623894
Zn5	Zn	-0.443981	1.201981	0.150848
Zn6	Zn	0.056019	1.701981	0.650848
Zn7	Zn	-0.541838	1.175033	0.306321
Zn8	Zn	-0.041838	1.675033	0.806321
O9	O	-0.505859	1.266238	0.215114
O10	O	-0.005859	1.766238	0.715114
O11	O	-0.485476	1.464259	0.236218
O12	O	0.014524	1.964259	0.736218
O13	O	-0.595540	1.359222	-0.002674
O14	O	-0.095540	1.859222	0.497326
O15	O	-0.340351	1.219117	0.167911
O16	O	0.159649	1.719117	0.667911
O17	O	-0.595496	1.483925	0.121973
O18	O	-0.095496	1.983925	0.621973
O19	O	-0.340317	1.313602	0.262354
O20	O	0.159683	1.813602	0.762354
O21	O	-0.485555	1.245071	0.017128
O22	O	0.014445	1.745071	0.517128
O23	O	-0.435284	1.068283	0.194020
O24	O	0.064716	1.568283	0.694020
O25	O	-0.507135	1.173187	0.432893
O26	O	-0.007135	1.673187	0.932893
O27	O	-0.507180	1.048484	0.308246
O28	O	-0.007180	1.548484	0.808246
O29	O	-0.435206	1.287472	0.413110
O30	O	0.064794	1.787472	0.913110
O31	O	-0.690429	1.333091	0.148081
O32	O	-0.190429	1.833091	0.648081
O33	O	-0.652339	1.199142	0.282110
O34	O	-0.152339	1.699142	0.782110
C35	C	-0.465612	1.024644	0.256980
C36	C	0.034388	1.524644	0.756980
C37	C	-0.448408	0.921286	0.274912
C38	C	0.051592	1.421286	0.774912
C39	C	-0.698253	1.266118	0.215108
C40	C	-0.198253	1.766118	0.715108
C41	C	-0.780570	1.266147	0.215122
C42	C	-0.280570	1.766147	0.715122
C43	C	-0.383101	0.862479	0.342916
C44	C	0.116899	1.362479	0.842916
C45	C	-0.366930	0.765368	0.359767
C46	C	0.133070	1.265368	0.859767
C47	C	-0.416067	0.727053	0.308621
C48	C	0.083933	1.227053	0.808621
C49	C	-0.481377	0.785860	0.240620
C50	C	0.018623	1.285860	0.740620
C51	C	-0.497547	0.882981	0.223763
C52	C	0.002453	1.382981	0.723763
C53	C	-0.530512	0.747556	0.189467
C54	C	-0.030512	1.247556	0.689467
C55	C	-0.595823	0.806362	0.121467
C56	C	-0.095823	1.306362	0.621467
C57	C	-0.611990	0.903473	0.104613
C58	C	-0.111990	1.403473	0.604613
C59	C	-0.562853	0.941788	0.155759
C60	C	-0.062853	1.441788	0.655759
C61	C	-0.514343	0.650434	0.206325
C62	C	-0.014343	1.150434	0.706325
C63	C	-0.628788	0.670936	0.087172
C64	C	-0.128788	1.170936	0.587172
C65	C	-0.644960	0.768047	0.070321
C66	C	-0.144960	1.268047	0.570321
C67	C	-1.079686	1.266342	0.215137
C68	C	-0.579686	1.766342	0.715137
C69	C	-1.024425	1.182201	0.299613
C70	C	-0.524425	1.682201	0.799613
C71	C	-0.938788	1.181899	0.299447
C72	C	-0.438788	1.681899	0.799447
C73	C	-0.931291	1.266245	0.215131
C74	C	-0.431291	1.766245	0.715131
C75	C	-0.974360	1.256666	0.121711
C76	C	-0.474360	1.756666	0.621711
C77	C	-1.059857	1.256130	0.122223
C78	C	-0.559857	1.756130	0.622223
C79	C	-1.060228	1.360368	0.223190
C80	C	-0.560228	1.860368	0.723190
C81	C	-0.974122	1.359418	0.225440
C82	C	-0.474122	1.859418	0.725440
C83	C	-0.847425	1.266193	0.215121
C84	C	-0.347425	1.766193	0.715121
C85	C	-1.163552	1.266393	0.215141
C86	C	-0.663552	1.766393	0.715141
C87	C	-0.312714	1.266380	0.215136
C88	C	0.187286	1.766380	0.715136
C89	C	-0.230407	1.266440	0.215145
C90	C	0.269593	1.766440	0.715145
C91	C	-0.465382	1.224338	0.457690
C92	C	0.034618	1.724338	0.957690
C93	C	-0.448133	1.206482	0.561061
C94	C	0.051867	1.706482	1.061061
C95	C	-0.546264	1.508775	0.173085
C96	C	-0.046264	2.008775	0.673085
C97	C	-0.563482	1.612130	0.155175
C98	C	-0.063482	2.112130	0.655175
C99	C	-0.546134	1.308029	-0.026527
C100	C	-0.046134	1.808029	0.473473
C101	C	-0.563204	1.326064	-0.129929
C102	C	-0.063204	1.826064	0.370071
C103	C	-0.628573	1.393883	0.811198
C104	C	-0.128573	1.893883	1.311198
C105	C	-0.644783	1.410655	0.714076
C106	C	-0.144783	1.910655	1.214076
C107	C	-0.595622	1.359613	0.675818
C108	C	-0.095622	1.859613	1.175818
C109	C	-0.530248	1.291797	0.734690
C110	C	-0.030248	1.791797	1.234690
C111	C	-0.514040	1.275019	0.831822
C112	C	-0.014040	1.775019	1.331822
C113	C	-0.481089	1.240749	0.696442
C114	C	0.018911	1.740749	1.196442
C115	C	-0.415715	1.172933	0.755314
C116	C	0.084285	1.672933	1.255314
C117	C	-0.399509	1.156159	0.852437
C118	C	0.100491	1.656159	1.352437
C119	C	-0.448671	1.207200	0.890695
C120	C	0.051329	1.707200	1.390695
C121	C	-0.497297	1.257527	0.599310
C122	C	0.002703	1.757527	1.099310
C123	C	-0.382764	1.138663	0.619934
C124	C	0.117236	1.638663	1.119934
C125	C	-0.366554	1.121892	0.717056
C126	C	0.133446	1.621892	1.217056
H127	H	-0.402894	0.647981	0.322342
H128	H	0.097106	1.147981	0.822342
H129	H	-0.435475	1.193551	0.969779
H130	H	0.064525	1.693551	1.469779
H131	H	-0.698016	1.465862	0.666151
H132	H	-0.198016	1.965862	1.166151
H133	H	-0.608825	1.373272	0.596736
H134	H	-0.108825	1.873272	1.096736
H135	H	-0.313326	1.066675	0.765003
H136	H	0.186674	1.566675	1.265003
H137	H	-0.971603	1.316770	0.057799
H138	H	-0.471603	1.816770	0.557799
H139	H	-0.342733	1.097100	0.588785
H140	H	0.157267	1.597100	1.088785
C141	C	-0.287922	1.040356	0.863064
C142	C	0.212078	1.540356	1.363064
C143	C	-0.327652	1.081612	0.917152
C144	C	0.172348	1.581612	1.417152
H145	H	-0.243558	0.994339	0.903017
H146	H	0.256442	1.494339	1.403017
H147	H	-0.320578	1.011305	0.831345
H148	H	0.179422	1.511305	1.331345
H149	H	-0.272673	1.087447	0.818159
H150	H	0.227327	1.587447	1.318159
H151	H	-0.342906	1.034523	0.962052
H152	H	0.157094	1.534523	1.462052
H153	H	-0.294990	1.110663	0.948886
H154	H	0.205010	1.610663	1.448886
H155	H	-0.343099	0.893685	0.384547
H156	H	0.156901	1.393685	0.884547
H157	H	-0.944735	1.189265	0.112396
H158	H	-0.444735	1.689265	0.612396
H159	H	-1.036679	1.112571	0.295756
H160	H	-0.536679	1.612571	0.795756
C161	C	-0.447217	0.593389	0.369061
C162	C	0.052783	1.093389	0.869061
C163	C	-0.442562	0.585798	0.281074
C164	C	0.057438	1.085798	0.781074
H165	H	-0.402902	0.553480	0.415212
H166	H	0.097098	1.053480	0.915212
H167	H	-0.449813	0.656705	0.366334
H168	H	0.050187	1.156705	0.866334
H169	H	-0.492089	0.575115	0.385315
H170	H	0.007911	1.075115	0.885315
H171	H	-0.397692	0.604079	0.264818
H172	H	0.102308	1.104079	0.764818
H173	H	-0.439958	0.522469	0.283800
H174	H	0.060042	1.022469	0.783800
C175	C	-1.011760	1.380852	0.370089
C176	C	-0.511760	1.880852	0.870089
C177	C	-1.078941	1.376626	0.312372
C178	C	-0.578941	1.876626	0.812372
H179	H	-1.023315	1.390887	0.425146
H180	H	-0.523315	1.890887	0.925146
H181	H	-0.974510	1.323295	0.387374
H182	H	-0.474510	1.823295	0.887374
H183	H	-0.991900	1.431251	0.336891
H184	H	-0.491900	1.931251	0.836891
H185	H	-1.098798	1.326223	0.345568
H186	H	-0.598798	1.826223	0.845568
H187	H	-1.116204	1.434190	0.295088
H188	H	-0.616204	1.934190	0.795088
H189	H	-0.313755	0.717494	0.415134
H190	H	0.186245	1.217494	0.915134
C191	C	-0.654577	1.420924	0.950938
C192	C	-0.154577	1.920924	1.450938
C193	C	-0.682609	1.449977	0.853255
C194	C	-0.182609	1.949977	1.353255
H195	H	-0.687938	1.455560	0.976899
H196	H	-0.187938	1.955560	1.476899
H197	H	-0.652348	1.355696	0.977667
H198	H	-0.152348	1.855696	1.477667
H199	H	-0.604436	1.431829	0.964493
H200	H	-0.104436	1.931829	1.464493
H201	H	-0.732748	1.439065	0.839700
H202	H	-0.232748	1.939065	1.339700
H203	H	-0.684846	1.515221	0.826516
H204	H	-0.184846	2.015221	1.326516
H205	H	-0.576024	1.020861	0.142055
H206	H	-0.076024	1.520861	0.642055
C207	C	-0.723493	0.913982	-0.011470
C208	C	-0.223493	1.413982	0.488530
C209	C	-0.683776	0.968116	0.029862
C210	C	-0.183776	1.468116	0.529862
H211	H	-0.767812	0.953890	-0.057614
H212	H	-0.267812	1.453890	0.442386
H213	H	-0.690802	0.882245	-0.040397
H214	H	-0.190802	1.382245	0.459603
H215	H	-0.738811	0.869108	0.035572
H216	H	-0.238811	1.369108	0.535572
H217	H	-0.668453	1.012985	-0.017179
H218	H	-0.168453	1.512985	0.482821
H219	H	-0.716474	0.999869	0.058789
H220	H	-0.216474	1.499869	0.558789
C221	C	-0.685968	0.668181	-0.065190
C222	C	-0.185968	1.168181	0.434810
C223	C	-0.682805	0.628829	0.030948
C224	C	-0.182805	1.128829	0.530948
H225	H	-0.719308	0.642175	-0.099895
H226	H	-0.219308	1.142175	0.400105
H227	H	-0.704946	0.734426	-0.084957
H228	H	-0.204946	1.234426	0.415043
H229	H	-0.635794	0.654613	-0.075916
H230	H	-0.135794	1.154613	0.424084
H231	H	-0.732978	0.642402	0.041676
H232	H	-0.232978	1.142402	0.541676
H233	H	-0.663830	0.562569	0.050722
H234	H	-0.163830	1.062569	0.550722
H235	H	-1.035557	1.186024	0.369680
H236	H	-0.535557	1.686024	0.869680
C237	C	-1.002616	1.442380	0.059092
C238	C	-0.502616	1.942380	0.559092
C239	C	-0.968811	1.446691	0.146599
C240	C	-0.468811	1.946691	0.646599
H241	H	-0.999341	1.496261	0.010416
H242	H	-0.499341	1.996261	0.510416
H243	H	-0.976266	1.387168	0.051115
H244	H	-0.476266	1.887168	0.551115
H245	H	-1.055173	1.440803	0.056397
H246	H	-0.555173	1.940803	0.556397
H247	H	-0.916252	1.448262	0.149298
H248	H	-0.416252	1.948262	0.649298
H249	H	-0.995160	1.501918	0.154579
H250	H	-0.495160	2.001918	0.654579
C251	C	-0.950217	1.190866	0.450801
C252	C	-0.450217	1.690866	0.950801
C253	C	-0.897721	1.187315	0.393685
C254	C	-0.397721	1.687315	0.893685
H255	H	-0.924862	1.194197	0.508986
H256	H	-0.424862	1.694197	1.008986
H257	H	-0.991286	1.244918	0.419993
H258	H	-0.491286	1.744918	0.919993
H259	H	-0.970095	1.135881	0.462172
H260	H	-0.470095	1.635881	0.962172
H261	H	-0.877847	1.242304	0.382308
H262	H	-0.377847	1.742304	0.882308
H263	H	-0.856637	1.133258	0.424499
H264	H	-0.356637	1.633258	0.924499
H265	H	-0.908993	1.111862	0.295458
H266	H	-0.408993	1.611862	0.795458
H267	H	-1.098118	1.422849	0.161455
H268	H	-0.598118	1.922849	0.661455
H269	H	-0.945068	1.366949	0.294107
H270	H	-0.445068	1.866949	0.794107
H271	H	-1.071469	1.187901	0.113421
H272	H	-0.571469	1.687901	0.613421
C273	C	-1.095402	1.323128	-0.046462
C274	C	-0.595402	1.823128	0.453538
C275	C	-1.111565	1.336501	0.035601
C276	C	-0.611565	1.836501	0.535601
H277	H	-1.127330	1.372739	-0.099935
H278	H	-0.627330	1.872739	0.400065
H279	H	-1.042863	1.322926	-0.046195
H280	H	-0.542863	1.822926	0.453805
H281	H	-1.105063	1.264653	-0.048916
H282	H	-0.605063	1.764653	0.451084
H283	H	-1.101898	1.394973	0.038058
H284	H	-0.601898	1.894973	0.538058
H285	H	-1.164116	1.336712	0.035334
H286	H	-0.664116	1.836712	0.535334
H287	H	-0.698136	0.815941	0.014955
H288	H	-0.198136	1.315941	0.514955
H289	H	-0.550522	1.312749	0.551384
H290	H	-0.050522	1.812749	1.051384
