data_functionalizedCrystal
_audit_creation_method	'MofGen! by Chris Wilmer'
_symmetry_space_group_name_H-M	'P1'
_symmetry_Int_Tables_number	1
_symmetry_cell_setting	triclinic
loop_
_symmetry_equiv_pos_as_xyz
  x,y,z
_cell_length_a	13.897449
_cell_length_b	19.120786
_cell_length_c	13.897441
_cell_angle_alpha	92.474365
_cell_angle_beta	90.020733
_cell_angle_gamma	92.466448
loop_
_atom_site_label
_atom_site_type_symbol
_atom_site_fract_x
_atom_site_fract_y
_atom_site_fract_z
Zn1	Zn	1.458270	-0.279585	0.528973
Zn2	Zn	1.791603	0.053748	0.862307
Zn3	Zn	2.124937	0.387082	1.195640
Zn4	Zn	1.451260	-0.397056	0.360781
Zn5	Zn	1.784593	-0.063723	0.694114
Zn6	Zn	2.117926	0.269611	1.027447
Zn7	Zn	1.296957	-0.279618	0.367690
Zn8	Zn	1.630290	0.053715	0.701023
Zn9	Zn	1.963624	0.387048	1.034356
Zn10	Zn	1.290039	-0.397010	0.522036
Zn11	Zn	1.623372	-0.063677	0.855369
Zn12	Zn	1.956706	0.269657	1.188703
O13	O	1.374131	-0.338317	0.444870
O14	O	1.707465	-0.004984	0.778203
O15	O	2.040798	0.328349	1.111537
O16	O	1.592321	-0.295173	0.506674
O17	O	1.925655	0.038160	0.840007
O18	O	2.258988	0.371494	1.173341
O19	O	1.430752	-0.381511	0.226714
O20	O	1.764086	-0.048178	0.560047
O21	O	2.097419	0.285156	0.893380
O22	O	1.324185	-0.181323	0.394879
O23	O	1.657518	0.152010	0.728212
O24	O	1.990851	0.485343	1.061546
O25	O	1.587171	-0.381479	0.383104
O26	O	1.920504	-0.048145	0.716437
O27	O	2.253837	0.285188	1.049770
O28	O	1.442701	-0.181299	0.513373
O29	O	1.776034	0.152035	0.846707
O30	O	2.109367	0.485368	1.180040
O31	O	1.317387	-0.295230	0.231790
O32	O	1.650720	0.038103	0.565123
O33	O	1.984054	0.371437	0.898456
O34	O	1.161058	-0.295185	0.388152
O35	O	1.494391	0.038148	0.721486
O36	O	1.827725	0.371481	1.054819
O37	O	1.312394	-0.381400	0.657940
O38	O	1.645727	-0.048067	0.991273
O39	O	1.979061	0.285267	1.324607
O40	O	1.155975	-0.381432	0.501550
O41	O	1.489309	-0.048099	0.834883
O42	O	1.822642	0.285234	1.168216
O43	O	1.435992	-0.295128	0.663037
O44	O	1.769326	0.038205	0.996370
O45	O	2.102659	0.371538	1.329703
O46	O	1.424044	-0.495341	0.376377
O47	O	1.757378	-0.162007	0.709710
O48	O	2.090711	0.171326	1.043044
O49	O	1.305596	-0.495307	0.494850
O50	O	1.638930	-0.161973	0.828184
O51	O	1.972263	0.171360	1.161517
C52	C	1.123518	-0.338308	0.444848
C53	C	1.456851	-0.004975	0.778182
C54	C	1.790184	0.328359	1.111515
C55	C	1.016303	-0.338321	0.444861
C56	C	1.349636	-0.004988	0.778195
C57	C	1.682970	0.328346	1.111528
C58	C	0.820008	-0.338323	0.444886
C59	C	1.153341	-0.004990	0.778220
C60	C	1.486674	0.328343	1.111553
C61	C	0.929240	-0.338320	0.444870
C62	C	1.262574	-0.004987	0.778203
C63	C	1.595907	0.328347	1.111536
C64	C	1.363335	-0.520809	0.434132
C65	C	1.696668	-0.187476	0.767466
C66	C	2.030002	0.145857	1.100799
C67	C	1.358805	-0.598880	0.429571
C68	C	1.692138	-0.265547	0.762904
C69	C	2.025471	0.067786	1.096237
C70	C	1.418335	-0.635485	0.489172
C71	C	1.751668	-0.302152	0.822505
C72	C	2.085002	0.031182	1.155838
C73	C	1.414074	-0.708841	0.484887
C74	C	1.747407	-0.375507	0.818221
C75	C	2.080741	-0.042174	1.151554
C76	C	1.350287	-0.745591	0.420997
C77	C	1.683620	-0.412257	0.754330
C78	C	2.016954	-0.078924	1.087663
C79	C	1.290750	-0.708981	0.361394
C80	C	1.624084	-0.375647	0.694727
C81	C	1.957417	-0.042314	1.028060
C82	C	1.295007	-0.635626	0.365683
C83	C	1.628340	-0.302293	0.699017
C84	C	1.961673	0.031040	1.032350
C85	C	1.334346	-0.967078	0.404960
C86	C	1.667679	-0.633744	0.738293
C87	C	2.001013	-0.300411	1.071627
C88	C	1.330096	-1.040437	0.400673
C89	C	1.663429	-0.707104	0.734006
C90	C	1.996762	-0.373771	1.067339
C91	C	1.453419	-1.040292	0.524168
C92	C	1.786752	-0.706959	0.857502
C93	C	2.120086	-0.373625	1.190835
C94	C	1.457674	-0.966936	0.528448
C95	C	1.791007	-0.633603	0.861782
C96	C	2.124341	-0.300269	1.195115
C97	C	1.398134	-0.930333	0.468849
C98	C	1.731467	-0.596999	0.802182
C99	C	2.064800	-0.263666	1.135515
C100	C	1.345933	-0.820572	0.416614
C101	C	1.679266	-0.487239	0.749947
C102	C	2.012599	-0.153905	1.083281
C103	C	1.402484	-0.855353	0.473237
C104	C	1.735817	-0.522019	0.806570
C105	C	2.069151	-0.188686	1.139904
C106	C	1.625724	-0.338327	0.444892
C107	C	1.959057	-0.004994	0.778225
C108	C	2.292390	0.328339	1.111559
C109	C	1.732937	-0.338332	0.444901
C110	C	2.066271	-0.004998	0.778235
C111	C	2.399604	0.328335	1.111568
C112	C	1.374203	-0.338255	0.696467
C113	C	1.707537	-0.004922	1.029800
C114	C	2.040870	0.328411	1.363133
C115	C	1.374234	-0.338229	0.803682
C116	C	1.707568	-0.004895	1.137016
C117	C	2.040901	0.328438	1.470349
C118	C	1.384996	-0.155113	0.455671
C119	C	1.718330	0.178221	0.789004
C120	C	2.051663	0.511554	1.122337
C121	C	1.389626	-0.077042	0.460273
C122	C	1.722960	0.256291	0.793607
C123	C	2.056293	0.589625	1.126940
C124	C	1.374118	-0.338329	0.194255
C125	C	1.707451	-0.004995	0.527588
C126	C	2.040785	0.328338	0.860922
C127	C	1.374286	-0.338157	0.087052
C128	C	1.707619	-0.004824	0.420385
C129	C	2.040953	0.328510	0.753718
C130	C	1.374263	-0.338181	0.999980
C131	C	1.707597	-0.004848	1.333314
C132	C	2.040930	0.328485	1.666647
C133	C	1.374244	-0.338210	0.890746
C134	C	1.707577	-0.004876	1.224079
C135	C	2.040911	0.328457	1.557413
H136	H	1.470281	-0.605568	0.541194
H137	H	1.803615	-0.272235	0.874527
H138	H	2.136948	0.061099	1.207861
F139	F	1.525564	-0.927829	0.596450
F140	F	1.858897	-0.594496	0.929784
F141	F	2.192231	-0.261163	1.263117
H142	H	1.501892	-1.070102	0.572692
H143	H	1.835226	-0.736769	0.906025
H144	H	2.168559	-0.403436	1.239359
F145	F	1.231645	-0.596669	0.302249
F146	F	1.564978	-0.263336	0.635582
F147	F	1.898312	0.069997	0.968915
F148	F	1.477425	-0.747795	0.548334
F149	F	1.810758	-0.414462	0.881667
F150	F	2.144091	-0.081128	1.215000
H151	H	1.278148	-1.070357	0.348644
H152	H	1.611481	-0.737024	0.681978
H153	H	1.944815	-0.403690	1.015311
H154	H	1.238809	-0.738908	0.309376
H155	H	1.572143	-0.405575	0.642710
H156	H	1.905476	-0.072242	0.976043
H157	H	1.285867	-0.937281	0.356430
H158	H	1.619201	-0.603947	0.689763
H159	H	1.952534	-0.270614	1.023096
F160	F	1.470363	-0.816239	0.541237
F161	F	1.803697	-0.482906	0.874570
F162	F	2.137030	-0.149573	1.207904
H163	H	1.294000	-0.850502	0.364591
H164	H	1.627333	-0.517169	0.697925
H165	H	1.960666	-0.183835	1.031258
