data_functionalizedCrystal
_audit_creation_method	'MofGen! by Chris Wilmer'
_symmetry_space_group_name_H-M	'P1'
_symmetry_Int_Tables_number	1
_symmetry_cell_setting	triclinic
loop_
_symmetry_equiv_pos_as_xyz
  x,y,z
_cell_length_a	19.121449
_cell_length_b	12.827893
_cell_length_c	12.827885
_cell_angle_alpha	89.980728
_cell_angle_beta	92.473889
_cell_angle_gamma	92.414809
loop_
_atom_site_label
_atom_site_type_symbol
_atom_site_fract_x
_atom_site_fract_y
_atom_site_fract_z
Zn1	Zn	-0.279577	-1.615334	0.573083
Zn2	Zn	0.220423	-1.115334	1.073083
Zn3	Zn	-0.397043	-1.622650	0.390878
Zn4	Zn	0.102957	-1.122650	0.890878
Zn5	Zn	-0.279611	-1.440578	0.398354
Zn6	Zn	0.220389	-0.940578	0.898354
Zn7	Zn	-0.396990	-1.447979	0.565582
Zn8	Zn	0.103010	-0.947979	1.065582
O9	O	-0.338305	-1.531635	0.481974
O10	O	0.161695	-1.031635	0.981974
O11	O	-0.295167	-1.762541	0.548923
O12	O	0.204833	-1.262541	1.048923
O13	O	-0.381501	-1.598462	0.245632
O14	O	0.118499	-1.098462	0.745632
O15	O	-0.181323	-1.457600	0.427800
O16	O	0.318677	-0.957600	0.927800
O17	O	-0.381468	-1.767916	0.415059
O18	O	0.118532	-1.267916	0.915059
O19	O	-0.181298	-1.585993	0.556172
O20	O	0.318702	-1.085993	1.056172
O21	O	-0.295225	-1.464694	0.251124
O22	O	0.204775	-0.964694	0.751124
O23	O	-0.295174	-1.295323	0.420527
O24	O	0.204826	-0.795323	0.920527
O25	O	-0.381379	-1.470215	0.712815
O26	O	0.118621	-0.970215	1.212815
O27	O	-0.381412	-1.300761	0.543388
O28	O	0.118588	-0.800761	1.043388
O29	O	-0.295116	-1.593170	0.718326
O30	O	0.204884	-1.093170	1.218326
O31	O	-0.495319	-1.605639	0.407785
O32	O	0.004681	-1.105639	0.907785
O33	O	-0.495281	-1.477309	0.536139
O34	O	0.004719	-0.977309	1.036139
C35	C	-0.338292	-1.260125	0.481955
C36	C	0.161708	-0.760125	0.981955
C37	C	-0.338303	-1.143972	0.481971
C38	C	0.161697	-0.643972	0.981971
C39	C	-0.520784	-1.543099	0.470360
C40	C	-0.020784	-1.043099	0.970360
C41	C	-0.598849	-1.548099	0.465426
C42	C	-0.098849	-1.048099	0.965426
C43	C	-0.635529	-1.483588	0.529880
C44	C	-0.135529	-0.983588	1.029880
C45	C	-0.708880	-1.488291	0.525240
C46	C	-0.208880	-0.988291	1.025240
C47	C	-0.745548	-1.557511	0.456151
C48	C	-0.245548	-1.057511	0.956151
C49	C	-0.708862	-1.622024	0.391690
C50	C	-0.208862	-1.122024	0.891690
C51	C	-0.635513	-1.617316	0.396325
C52	C	-0.135513	-1.117316	0.896325
C53	C	-0.967015	-1.575068	0.438810
C54	C	-0.467015	-1.075068	0.938810
C55	C	-1.040369	-1.579774	0.434181
C56	C	-0.540369	-1.079774	0.934181
C57	C	-1.040381	-1.446038	0.567730
C58	C	-0.540381	-0.946038	1.067730
C59	C	-0.967031	-1.441340	0.572364
C60	C	-0.467031	-0.941340	1.072364
C61	C	-0.930351	-1.505850	0.507900
C62	C	-0.430351	-1.005850	1.007900
C63	C	-0.820524	-1.562321	0.451409
C64	C	-0.320524	-1.062321	0.951409
C65	C	-0.855377	-1.501033	0.512637
C66	C	-0.355377	-1.001033	1.012637
C67	C	-0.338238	-1.531702	0.754549
C68	C	0.161762	-1.031702	1.254549
C69	C	-0.338209	-1.531731	0.870704
C70	C	0.161791	-1.031731	1.370704
C71	C	-0.155114	-1.520155	0.493657
C72	C	0.344886	-1.020155	0.993657
C73	C	-0.077049	-1.515263	0.498635
C74	C	0.422951	-1.015263	0.998635
C75	C	-0.338319	-1.804206	0.481994
C76	C	0.161681	-1.304206	0.981994
C77	C	-0.338325	-1.920360	0.482002
C78	C	0.161675	-1.420360	0.982002
C79	C	-0.381043	-1.094910	0.542664
C80	C	0.118957	-0.594910	1.042664
C81	C	-0.381055	-0.974861	0.542682
C82	C	0.118945	-0.474861	1.042682
C83	C	-0.338322	-1.531626	0.210463
C84	C	0.161678	-1.031626	0.710463
C85	C	-0.338153	-1.531787	0.094321
C86	C	0.161847	-1.031787	0.594321
C87	C	-0.295515	-1.592579	0.925216
C88	C	0.204485	-1.092579	1.425216
C89	C	-0.295484	-1.592610	1.045268
C90	C	0.204516	-1.092610	1.545268
H91	H	-0.605679	-1.427227	0.586144
H92	H	-0.105679	-0.927227	1.086144
H93	H	-0.374709	-1.479694	1.047459
H94	H	0.125291	-0.979694	1.547459
H95	H	-0.301718	-1.097100	0.430026
H96	H	0.198282	-0.597100	0.930026
Br97	Br	-0.399092	-1.444926	0.941043
Br98	Br	0.100908	-0.944926	1.441043
H99	H	-0.738742	-1.435750	0.577716
H100	H	-0.238742	-0.935750	1.077716
H101	H	-0.937177	-1.384976	0.628622
H102	H	-0.437177	-0.884976	1.128622
H103	H	-0.258935	-1.644708	1.092137
H104	H	0.241065	-1.144708	1.592137
Br105	Br	-0.277338	-0.990686	0.395378
Br106	Br	0.222662	-0.490686	0.895378
Br107	Br	-0.442021	-1.173023	0.629252
Br108	Br	0.057979	-0.673023	1.129252
Br109	Br	-0.585731	-1.704860	0.308839
Br110	Br	-0.085731	-1.204860	0.808839
Br111	Br	-0.442053	-0.904528	0.629285
Br112	Br	0.057947	-0.404528	1.129285
Br113	Br	-0.234606	-1.679341	0.854879
Br114	Br	0.265394	-1.179341	1.354879
H115	H	-1.070253	-1.393517	0.620213
H116	H	-0.570253	-0.893517	1.120213
Br117	Br	-1.090133	-1.673723	0.340414
Br118	Br	-0.590133	-1.173723	0.840414
Br119	Br	-0.917244	-1.662635	0.351339
Br120	Br	-0.417244	-1.162635	0.851339
H121	H	-0.738724	-1.678380	0.335431
H122	H	-0.238724	-1.178380	0.835431
H123	H	-0.825519	-1.444671	0.568886
H124	H	-0.325519	-0.944671	1.068886
H125	H	-0.850388	-1.618681	0.395157
H126	H	-0.350388	-1.118681	0.895157
