data_functionalizedCrystal
_audit_creation_method	'MofGen! by Chris Wilmer'
_symmetry_space_group_name_H-M	'P1'
_symmetry_Int_Tables_number	1
_symmetry_cell_setting	triclinic
loop_
_symmetry_equiv_pos_as_xyz
  x,y,z
_cell_length_a	12.759401
_cell_length_b	12.759400
_cell_length_c	12.827885
_cell_angle_alpha	89.970433
_cell_angle_beta	89.981116
_cell_angle_gamma	90.012809
loop_
_atom_site_label
_atom_site_type_symbol
_atom_site_fract_x
_atom_site_fract_y
_atom_site_fract_z
Zn1	Zn	1.606264	-0.418223	-0.590836
Zn2	Zn	1.606164	-0.593940	-0.416097
Zn3	Zn	1.430567	-0.418274	-0.416111
Zn4	Zn	1.430559	-0.593860	-0.590799
O5	O	1.518389	-0.506074	-0.503461
O6	O	1.753272	-0.441545	-0.567666
O7	O	1.582832	-0.570692	-0.269863
O8	O	1.453918	-0.271246	-0.439310
O9	O	1.753198	-0.570643	-0.439286
O10	O	1.583003	-0.271209	-0.567679
O11	O	1.453821	-0.441631	-0.269873
O12	O	1.283545	-0.441554	-0.439274
O13	O	1.453906	-0.570507	-0.737040
O14	O	1.283539	-0.570556	-0.567617
O15	O	1.582995	-0.441467	-0.737067
O16	O	1.582825	-0.740950	-0.439250
O17	O	1.453809	-0.740891	-0.567603
C18	C	1.245421	-0.506052	-0.503443
C19	C	1.128645	-0.506068	-0.503461
C20	C	0.964030	-0.438831	-0.436761
C21	C	1.073754	-0.438809	-0.436751
C22	C	1.073806	-0.573346	-0.570193
C23	C	0.964084	-0.573363	-0.570208
C24	C	0.909144	-0.371576	-0.370039
C25	C	0.963976	-0.304296	-0.303308
C26	C	1.073700	-0.304274	-0.303297
C27	C	1.128593	-0.371531	-0.370018
C28	C	1.518333	-0.779042	-0.503444
C29	C	1.518406	-0.895818	-0.503472
C30	C	1.585586	-0.950581	-0.570369
C31	C	1.585635	-1.060305	-0.570394
C32	C	1.451320	-1.060494	-0.436617
C33	C	1.451267	-0.950772	-0.436598
C34	C	1.652725	-0.895628	-0.637243
C35	C	1.719912	-0.950391	-0.704144
C36	C	1.719961	-1.060115	-0.704170
C37	C	1.652823	-1.115076	-0.637294
C38	C	1.792422	-0.506097	-0.503478
C39	C	1.909198	-0.506107	-0.503486
C40	C	1.518461	-0.505972	-0.776031
C41	C	1.518492	-0.505929	-0.892184
C42	C	1.518472	-0.232041	-0.503500
C43	C	1.518508	-0.115264	-0.503517
C44	C	1.454635	-0.569756	-0.943956
C45	C	1.454665	-0.569712	-1.064006
C46	C	1.518377	-0.506100	-0.231951
C47	C	1.518550	-0.505847	-0.115798
H48	H	0.819802	-0.371588	-0.370038
C49	C	0.795755	-0.244604	-0.244056
C50	C	0.903642	-0.230374	-0.229965
H51	H	0.758512	-0.198972	-0.198770
H52	H	0.777806	-0.229305	-0.314286
H53	H	0.777780	-0.315186	-0.228651
H54	H	0.921619	-0.159794	-0.245378
H55	H	0.921599	-0.245667	-0.159719
H56	H	1.399946	-0.624436	-0.899402
C57	C	0.975147	-0.706338	-0.702117
C58	C	0.903805	-0.647304	-0.643560
H59	H	0.937931	-0.751985	-0.747403
H60	H	1.017969	-0.660602	-0.742150
H61	H	1.017914	-0.746477	-0.656508
H62	H	0.861043	-0.607159	-0.689170
H63	H	0.860965	-0.693046	-0.603525
H64	H	1.652695	-0.806285	-0.637227
C65	C	1.779482	-0.782110	-0.763503
C66	C	1.793706	-0.889982	-0.777653
H67	H	1.825045	-0.744820	-0.808882
H68	H	1.708884	-0.764169	-0.778736
H69	H	1.794888	-0.764182	-0.693295
H70	H	1.778292	-0.907911	-0.847859
H71	H	1.864320	-0.907930	-0.762427
C72	C	1.062622	-0.171299	-0.171391
C73	C	1.133972	-0.230322	-0.229950
H74	H	1.099833	-0.125651	-0.126102
H75	H	1.019852	-0.131171	-0.216992
H76	H	1.019804	-0.217050	-0.131353
H77	H	1.176786	-0.184572	-0.269994
H78	H	1.176760	-0.270453	-0.184343
H79	H	1.399988	-0.624350	-1.108528
H80	H	1.573218	-0.451195	-1.071283
C81	C	1.285744	-0.298251	-0.297352
C82	C	1.249204	-0.371507	-0.370008
H83	H	1.360202	-0.298245	-0.297341
H84	H	1.260937	-0.230489	-0.315546
H85	H	1.260884	-0.316352	-0.229892
H86	H	1.274057	-0.353402	-0.437470
H87	H	1.274021	-0.439284	-0.351820
H88	H	1.573188	-0.451256	-0.936738
H89	H	1.118508	-0.628105	-0.624514
C90	C	1.391552	-0.782656	-0.377177
C91	C	1.377424	-0.890566	-0.363064
H92	H	1.345955	-0.745490	-0.331785
H93	H	1.462133	-0.764642	-0.361937
H94	H	1.376130	-0.764651	-0.447379
H95	H	1.392853	-0.908573	-0.292863
H96	H	1.306826	-0.908587	-0.378296
C97	C	1.852723	-1.048902	-0.836394
C98	C	1.793808	-1.120312	-0.777706
H99	H	1.898321	-1.086066	-0.881786
H100	H	1.806910	-1.006112	-0.876320
H101	H	1.892909	-1.006110	-0.790874
H102	H	1.753616	-1.163099	-0.823226
H103	H	1.839628	-1.163120	-0.737778
H104	H	1.396660	-1.105252	-0.382170
C105	C	1.726005	-1.272152	-0.710179
C106	C	1.652866	-1.235687	-0.637332
H107	H	1.726034	-1.346611	-0.710196
H108	H	1.707786	-1.247287	-0.777581
H109	H	1.793800	-1.247301	-0.692150
H110	H	1.585069	-1.260532	-0.655365
H111	H	1.671079	-1.260563	-0.569914
