data_functionalizedCrystal
_audit_creation_method	'MofGen! by Chris Wilmer'
_symmetry_space_group_name_H-M	'P1'
_symmetry_Int_Tables_number	1
_symmetry_cell_setting	triclinic
loop_
_symmetry_equiv_pos_as_xyz
  x,y,z
_cell_length_a	10.723024
_cell_length_b	14.421503
_cell_length_c	10.723024
_cell_angle_alpha	90.005502
_cell_angle_beta	95.532131
_cell_angle_gamma	90.007403
loop_
_atom_site_label
_atom_site_type_symbol
_atom_site_fract_x
_atom_site_fract_y
_atom_site_fract_z
O1	O	1.657196	0.077103	-0.175010
O2	O	2.157196	0.577103	0.324990
O3	O	1.294044	0.077106	-0.191763
O4	O	1.794044	0.577106	0.308237
O5	O	1.483996	0.077101	-0.001811
O6	O	1.983996	0.577101	0.498189
O7	O	1.467243	0.077108	-0.364963
O8	O	1.967243	0.577108	0.135037
O9	O	1.483965	-0.077122	-0.001839
O10	O	1.983965	0.422878	0.498161
O11	O	1.294012	-0.077117	-0.191792
O12	O	1.794012	0.422883	0.308208
O13	O	1.657164	-0.077120	-0.175038
O14	O	2.157164	0.422880	0.324962
Cu15	Cu	1.475585	-0.091201	-0.183418
Cu16	Cu	1.975585	0.408799	0.316582
Cu17	Cu	1.475623	0.091186	-0.183384
Cu18	Cu	1.975623	0.591186	0.316616
O19	O	1.467212	-0.077115	-0.364991
O20	O	1.967212	0.422885	0.135009
C21	C	1.247528	-0.000005	-0.190558
C22	C	1.747528	0.499995	0.309442
C23	C	1.108974	-0.000004	-0.186911
C24	C	1.608974	0.499996	0.313089
N25	N	1.475568	-0.219482	-0.183440
N26	N	1.975568	0.280518	0.316560
C27	C	1.033991	-0.000002	-0.293198
C28	C	1.533991	0.499998	0.206802
C29	C	0.890788	-0.000000	-0.289431
C30	C	1.390788	0.500000	0.210569
C31	C	1.387718	-0.469133	-0.271235
C32	C	1.887718	0.030867	0.228765
C33	C	1.500687	-0.530936	-0.296421
C34	C	2.000687	-0.030936	0.203579
C35	C	1.475598	-0.408643	-0.183411
C36	C	1.975598	0.091357	0.316589
C37	C	1.362659	-0.530934	-0.158254
C38	C	1.862659	-0.030934	0.341746
C39	C	1.475617	-0.591365	-0.183385
C40	C	1.975617	-0.091365	0.316615
C41	C	1.588625	-0.469086	-0.208654
C42	C	2.088625	0.030914	0.291346
C43	C	1.450522	-0.469078	-0.070437
C44	C	1.950522	0.030922	0.429563
C45	C	1.563572	-0.530853	-0.095576
C46	C	2.063572	-0.030853	0.404424
C47	C	1.475586	-0.303382	-0.183429
C48	C	1.975586	0.196618	0.316571
C49	C	1.475643	-0.696624	-0.183366
C50	C	1.975643	-0.196624	0.316634
C51	C	1.703680	-0.000007	-0.176243
C52	C	2.203680	0.499993	0.323757
C53	C	1.842234	-0.000002	-0.179891
C54	C	2.342234	0.499998	0.320109
C55	C	1.482762	-0.000010	0.044675
C56	C	1.982762	0.499990	0.544675
C57	C	1.479114	-0.000006	0.183229
C58	C	1.979114	0.499994	0.683229
N59	N	1.475650	0.219468	-0.183352
N60	N	1.975650	0.719468	0.316648
C61	C	1.468447	-0.000003	-0.411477
C62	C	1.968447	0.499997	0.088523
C63	C	1.472094	0.000000	-0.550031
C64	C	1.972094	0.500000	-0.050031
C65	C	1.585401	-0.000006	0.258212
C66	C	2.085401	0.499994	0.758212
C67	C	1.581634	-0.000002	0.401415
C68	C	2.081634	0.499998	0.901415
H69	H	1.075814	-0.000005	-0.386984
H70	H	1.575814	0.499995	0.113016
Cl71	Cl	1.730207	-0.000001	0.193653
Cl72	Cl	2.230207	0.499999	0.693653
H73	H	1.672624	-0.000006	0.465848
H74	H	2.172624	0.499994	0.965848
Cl75	Cl	1.331599	-0.000008	0.350504
Cl76	Cl	1.831599	0.499992	0.850504
Cl77	Cl	0.941699	0.000002	-0.039396
Cl78	Cl	1.441699	0.500002	0.460604
Cl79	Cl	1.215187	-0.572881	-0.125417
Cl80	Cl	1.715187	-0.072881	0.374583
Cl81	Cl	1.273098	-0.427286	-0.385989
Cl82	Cl	1.773098	0.072714	0.114011
H83	H	1.684165	-0.442032	-0.230034
H84	H	2.184165	0.057968	0.269966
H85	H	0.826355	0.000006	-0.380421
H86	H	1.326355	0.500006	0.119579
H87	H	1.385328	0.000001	0.225051
H88	H	1.885328	0.500001	0.725051
Cl89	Cl	1.044415	-0.000014	-0.042105
Cl90	Cl	1.544415	0.499986	0.457895
H91	H	1.521915	-0.558107	-0.391949
H92	H	2.021915	-0.058107	0.108051
Cl93	Cl	1.678446	-0.572439	0.019111
Cl94	Cl	2.178446	-0.072439	0.519111
H95	H	1.429259	-0.441886	0.025061
H96	H	1.929259	0.058114	0.525061
