data_functionalizedCrystal
_audit_creation_method	'MofGen! by Chris Wilmer'
_symmetry_space_group_name_H-M	'P1'
_symmetry_Int_Tables_number	1
_symmetry_cell_setting	triclinic
loop_
_symmetry_equiv_pos_as_xyz
  x,y,z
_cell_length_a	10.654550
_cell_length_b	9.730223
_cell_length_c	10.654551
_cell_angle_alpha	90.001209
_cell_angle_beta	84.485179
_cell_angle_gamma	90.002884
loop_
_atom_site_label
_atom_site_type_symbol
_atom_site_fract_x
_atom_site_fract_y
_atom_site_fract_z
O1	O	1.667840	0.114266	0.176396
O2	O	1.302362	0.114272	0.193202
O3	O	1.493503	0.114266	0.002060
O4	O	1.476699	0.114272	0.367538
O5	O	1.493490	-0.114314	0.002060
O6	O	1.302348	-0.114308	0.193202
O7	O	1.667827	-0.114314	0.176396
Zn8	Zn	1.485085	-0.150603	0.184799
Zn9	Zn	1.485103	0.150561	0.184799
O10	O	1.476685	-0.114308	0.367538
C11	C	1.255557	-0.000017	0.191968
C12	C	1.116114	-0.000015	0.188276
N13	N	1.485082	-0.356140	0.184798
C14	C	1.492262	-0.000022	-0.044738
C15	C	1.488570	-0.000016	-0.184181
C16	C	1.714632	-0.000022	0.177630
C17	C	1.854075	-0.000016	0.181322
C18	C	1.933560	-0.000012	0.068780
C19	C	2.064581	-0.000017	0.072257
C20	C	2.036619	-0.000022	0.300826
C21	C	1.905600	-0.000027	0.297348
C22	C	1.561914	-0.428060	0.261680
C23	C	1.561935	-0.571943	0.261673
C24	C	1.408281	-0.571972	0.107899
C25	C	1.408268	-0.428091	0.107900
N26	N	1.485116	0.356097	0.184790
C27	C	1.486844	0.124585	-0.249685
C28	C	1.483364	0.124586	-0.380706
C29	C	1.483341	-0.124625	-0.380707
C30	C	1.486812	-0.124624	-0.249688
C31	C	1.477926	-0.000017	0.414336
C32	C	1.481619	-0.000015	0.553779
H33	H	1.891613	-0.000006	-0.025696
O34	O	2.092190	-0.000028	0.425967
H35	H	2.151203	0.093147	0.433030
O36	O	1.481489	0.258987	-0.451341
H37	H	1.565344	0.264960	-0.521497
H38	H	1.488210	-0.226095	-0.196353
H39	H	2.129293	-0.000016	-0.019386
H40	H	1.481912	-0.226076	-0.434059
H41	H	1.624501	-0.630495	0.324277
O42	O	1.819854	-0.000030	0.418737
H43	H	1.877692	-0.000018	0.500002
O44	O	1.644768	-0.350448	0.344606
H45	H	1.698206	-0.424638	0.398056
H46	H	1.345741	-0.630573	0.045293
H47	H	1.345701	-0.369532	0.045287
O48	O	1.488716	0.258976	-0.179022
H49	H	1.486916	0.345617	-0.246586
