data_functionalizedCrystal
_audit_creation_method	'MofGen! by Chris Wilmer'
_symmetry_space_group_name_H-M	'P1'
_symmetry_Int_Tables_number	1
_symmetry_cell_setting	triclinic
loop_
_symmetry_equiv_pos_as_xyz
  x,y,z
_cell_length_a	6.817900
_cell_length_b	15.300912
_cell_length_c	16.305550
_cell_angle_alpha	95.167755
_cell_angle_beta	103.455250
_cell_angle_gamma	104.173621
loop_
_atom_site_label
_atom_site_type_symbol
_atom_site_fract_x
_atom_site_fract_y
_atom_site_fract_z
V1	V	-4.029791	-0.125520	-0.263289
O2	O	-4.013693	0.005249	-0.258014
O3	O	-3.984704	-0.248132	-0.261741
O4	O	-3.981152	-0.123933	-0.378003
O5	O	-4.017270	-0.119810	-0.140947
V6	V	-4.513020	-0.109838	-0.248625
O7	O	-4.291693	-0.159920	-0.295455
O8	O	-4.701315	-0.075438	-0.216459
O9	O	-4.334900	0.012774	-0.250172
O10	O	-4.646515	-0.240607	-0.253900
O11	O	-4.642937	-0.115548	-0.370966
O12	O	-4.338452	-0.111425	-0.133911
C13	C	-3.830519	-0.278011	-0.257653
C14	C	-3.874941	-0.378250	-0.257153
C15	C	-4.248598	-0.814621	-0.259217
C16	C	-4.206840	-0.720435	-0.259681
C17	C	-4.003730	-0.668743	-0.255700
C18	C	-3.842363	-0.711241	-0.251245
C19	C	-3.884119	-0.805425	-0.250774
C20	C	-3.755345	-0.514933	-0.252228
C21	C	-3.713587	-0.420742	-0.252700
C22	C	-4.078066	-0.429943	-0.261135
C23	C	-4.119822	-0.524126	-0.260665
C24	C	-3.958452	-0.566618	-0.256211
C25	C	-3.825986	-0.119582	-0.405955
C26	C	-3.867524	-0.119095	-0.499736
C27	C	-4.018558	-0.117211	-0.840477
C28	C	-3.782352	-0.111616	-0.799537
C29	C	-3.739183	-0.112495	-0.702044
C30	C	-3.943627	-0.118145	-0.671431
C31	C	-4.113175	-0.207199	-0.722241
C32	C	-4.155024	-0.206696	-0.819789
C33	C	-4.070976	-0.034464	-0.794464
C34	C	-4.023027	-0.033759	-0.696620
C35	C	-3.901292	-0.118677	-0.575894
C36	C	-4.060902	-0.116686	-0.936015
C37	C	-4.152427	0.042649	-0.254258
C38	C	-4.087244	0.142887	-0.254764
C39	C	-4.156960	-0.115779	-0.105954
C40	C	-4.094660	-0.116261	-0.012173
H41	H	-3.610878	-0.048465	-0.666889
H42	H	-3.674397	-0.047284	-0.811769
C43	C	-4.384341	-0.673700	-0.264597
H44	H	-4.511293	-0.717977	-0.266916
H45	H	-4.349760	-0.628766	-0.215519
H46	H	-4.401507	-0.645537	-0.314406
C47	C	-4.390156	-0.217259	-0.857632
H48	H	-4.459703	-0.221844	-0.813375
H49	H	-4.407056	-0.165614	-0.883810
H50	H	-4.448778	-0.270859	-0.899047
H51	H	-4.285212	-0.566213	-0.263913
H52	H	-4.170284	-0.032651	-0.675270
H53	H	-3.548201	-0.378658	-0.249462
C54	C	-4.040686	-0.291848	-0.699711
H55	H	-3.907212	-0.273104	-0.659379
H56	H	-4.139117	-0.329368	-0.675953
H57	H	-4.030963	-0.325287	-0.749907
H58	H	-4.209457	-0.395341	-0.264760
H59	H	-3.623941	-0.549527	-0.248609
C60	C	-3.944919	0.056691	-0.812327
H61	H	-3.859130	0.045134	-0.848018
H62	H	-4.038785	0.088233	-0.840015
H63	H	-3.859018	0.092935	-0.759962
C64	C	-3.706632	-0.852167	-0.245880
H65	H	-3.579690	-0.807895	-0.243583
H66	H	-3.689444	-0.880335	-0.196080
H67	H	-3.741250	-0.897098	-0.294968
H68	H	-3.738940	-0.171066	-0.831171
H69	H	-3.674455	-0.172631	-0.685874
H70	H	-3.676982	-0.669145	-0.247997
C71	C	-4.303536	-0.038923	-0.830701
H72	H	-4.368436	-0.090928	-0.873661
H73	H	-4.372127	-0.043270	-0.786151
H74	H	-4.313511	0.014673	-0.854667
C75	C	-4.108576	-0.291314	-0.861009
H76	H	-4.064348	-0.325670	-0.818096
H77	H	-4.231881	-0.327977	-0.901573
H78	H	-4.000797	-0.272492	-0.888773
H79	H	-4.266539	-0.214555	-0.703343
C80	C	-3.856996	0.055228	-0.650003
H81	H	-3.739775	0.041022	-0.615327
H82	H	-3.813127	0.090635	-0.690750
H83	H	-3.915650	0.088918	-0.615152
H84	H	-4.413991	-0.856703	-0.262464
