data_functionalizedCrystal
_audit_creation_method	'MofGen! by Chris Wilmer'
_symmetry_space_group_name_H-M	'P1'
_symmetry_Int_Tables_number	1
_symmetry_cell_setting	triclinic
loop_
_symmetry_equiv_pos_as_xyz
  x,y,z
_cell_length_a	12.827893
_cell_length_b	12.827892
_cell_length_c	10.686551
_cell_angle_alpha	85.594922
_cell_angle_beta	85.605088
_cell_angle_gamma	90.015363
loop_
_atom_site_label
_atom_site_type_symbol
_atom_site_fract_x
_atom_site_fract_y
_atom_site_fract_z
Zn1	Zn	1.643030	-0.370628	-0.713447
Zn2	Zn	1.629509	-0.558819	-0.502448
Zn3	Zn	1.454858	-0.384091	-0.502465
Zn4	Zn	1.468254	-0.545330	-0.713400
O5	O	1.548913	-0.464717	-0.607940
O6	O	1.787474	-0.395602	-0.685470
O7	O	1.595076	-0.546920	-0.325869
O8	O	1.479871	-0.236067	-0.530479
O9	O	1.777540	-0.533865	-0.530450
O10	O	1.618121	-0.226176	-0.685487
O11	O	1.466760	-0.418549	-0.325881
O12	O	1.310398	-0.405469	-0.530433
O13	O	1.502704	-0.510876	-0.889987
O14	O	1.320240	-0.523931	-0.685406
O15	O	1.631111	-0.382523	-0.890022
O16	O	1.608066	-0.703267	-0.530404
O17	O	1.489593	-0.693357	-0.685390
C18	C	1.277402	-0.464698	-0.607917
C19	C	1.161250	-0.464713	-0.607937
C20	C	1.548846	-0.736228	-0.607918
C21	C	1.548916	-0.852379	-0.607950
C22	C	0.994345	-0.396419	-0.684785
C23	C	1.114394	-0.396402	-0.684766
C24	C	1.607621	-0.909028	-0.531344
C25	C	1.607694	-1.029076	-0.531376
C26	C	1.821485	-0.464736	-0.607964
C27	C	1.937638	-0.464745	-0.607974
C28	C	1.569910	-0.443693	-0.937070
C29	C	1.578858	-0.434734	-1.077326
C30	C	1.549010	-0.192144	-0.607990
C31	C	1.549052	-0.075989	-0.608011
C32	C	1.528058	-0.485584	-0.280090
C33	C	1.519312	-0.494248	-0.139835
H34	H	0.954018	-0.337939	-0.750564
H35	H	1.636691	-0.376927	-1.131116
C36	C	1.179569	-0.318516	-0.772408
C37	C	1.285684	-0.334006	-0.754996
C38	C	1.345757	-0.262285	-0.835725
H39	H	1.160702	-0.249386	-0.754191
H40	H	1.167217	-0.328501	-0.857210
H41	H	1.298031	-0.324013	-0.670214
H42	H	1.304584	-0.403122	-0.773223
H43	H	1.333405	-0.272270	-0.920527
H44	H	1.326881	-0.193160	-0.817501
H45	H	1.417763	-0.272792	-0.823930
C46	C	1.442050	-0.571268	-1.068296
C47	C	1.340679	-0.546510	-1.100282
C48	C	1.269481	-0.617449	-1.034413
H49	H	1.445936	-0.567320	-0.980377
H50	H	1.458623	-0.640136	-1.089857
H51	H	1.324111	-0.477659	-1.078713
H52	H	1.336759	-0.550464	-1.188190
H53	H	1.286054	-0.686318	-1.055974
H54	H	1.273376	-0.613497	-0.946497
H55	H	1.200694	-0.600667	-1.056115
H56	H	0.977966	-0.523233	-0.542206
C57	C	1.096225	-0.542838	-0.520455
C58	C	1.038142	-0.605318	-0.591847
C59	C	0.978232	-0.677307	-0.511304
H60	H	1.050055	-0.506389	-0.465582
H61	H	1.141164	-0.585754	-0.472275
H62	H	0.993207	-0.562408	-0.640005
H63	H	1.084285	-0.641791	-0.646716
H64	H	1.023171	-0.720223	-0.463124
H65	H	0.932069	-0.640849	-0.456435
H66	H	0.938823	-0.719715	-0.559731
H67	H	1.498785	-1.027299	-0.673596
C68	C	1.674383	-0.855155	-0.443699
C69	C	1.610008	-0.797756	-0.362791
C70	C	1.671472	-0.748128	-0.282022
H71	H	1.722915	-0.809357	-0.491906
H72	H	1.711201	-0.906233	-0.395564
H73	H	1.573207	-0.746684	-0.410921
H74	H	1.561477	-0.843529	-0.314556
H75	H	1.708290	-0.799206	-0.233888
H76	H	1.720001	-0.702336	-0.330240
H77	H	1.627802	-0.709185	-0.227110
C78	C	1.674724	-1.094176	-0.444101
C79	C	1.661524	-1.200299	-0.461543
C80	C	1.723285	-1.260300	-0.381198
H81	H	1.654182	-1.081947	-0.359210
H82	H	1.746126	-1.075128	-0.462678
H83	H	1.590138	-1.219341	-0.442958
H84	H	1.682073	-1.212560	-0.546418
H85	H	1.794687	-1.241253	-0.399775
H86	H	1.702738	-1.248063	-0.296312
H87	H	1.714345	-1.332310	-0.393030
C88	C	1.482143	-0.906333	-0.695513
C89	C	1.546512	-0.963771	-0.776383
C90	C	1.485036	-1.013495	-0.857055
H91	H	1.445286	-0.855338	-0.743692
H92	H	1.433642	-0.952115	-0.647194
H93	H	1.594995	-0.917994	-0.824698
H94	H	1.583369	-1.014784	-0.728240
H95	H	1.436535	-1.059277	-0.808736
H96	H	1.448181	-0.962493	-0.905225
H97	H	1.528699	-1.052480	-0.911927
