data_functionalizedCrystal
_audit_creation_method	'MofGen! by Chris Wilmer'
_symmetry_space_group_name_H-M	'P1'
_symmetry_Int_Tables_number	1
_symmetry_cell_setting	triclinic
loop_
_symmetry_equiv_pos_as_xyz
  x,y,z
_cell_length_a	21.295418
_cell_length_b	18.101397
_cell_length_c	18.101389
_cell_angle_alpha	90.021047
_cell_angle_beta	90.038200
_cell_angle_gamma	90.036278
loop_
_atom_site_label
_atom_site_type_symbol
_atom_site_fract_x
_atom_site_fract_y
_atom_site_fract_z
Zn1	Zn	0.962365	-0.294595	0.419099
Zn2	Zn	1.462365	0.205405	0.919099
Zn3	Zn	0.962296	-0.418420	0.295252
Zn4	Zn	1.462296	0.081580	0.795252
Zn5	Zn	0.857099	-0.294631	0.295231
Zn6	Zn	1.357099	0.205369	0.795231
Zn7	Zn	0.857076	-0.418433	0.419011
Zn8	Zn	1.357076	0.081567	0.919011
O9	O	0.909709	-0.356520	0.357148
O10	O	1.409709	0.143480	0.857148
O11	O	1.050445	-0.311000	0.402717
O12	O	1.550445	0.189000	0.902717
O13	O	0.948322	-0.402010	0.191616
O14	O	1.448322	0.097990	0.691616
O15	O	0.871101	-0.190994	0.311690
O16	O	1.371101	0.309006	0.811690
O17	O	1.050395	-0.401974	0.311727
O18	O	1.550395	0.098026	0.811727
O19	O	0.948440	-0.190967	0.402696
O20	O	1.448440	0.309033	0.902696
O21	O	0.871034	-0.311062	0.191601
O22	O	1.371034	0.188938	0.691601
O23	O	0.769006	-0.311075	0.311604
O24	O	1.269006	0.188925	0.811604
O25	O	0.871063	-0.401996	0.522656
O26	O	1.371063	0.098004	1.022656
O27	O	0.768990	-0.402031	0.402545
O28	O	1.268990	0.097969	0.902545
O29	O	0.948418	-0.311012	0.522721
O30	O	1.448418	0.188988	1.022721
O31	O	0.948300	-0.522055	0.311641
O32	O	1.448300	-0.022055	0.811641
O33	O	0.870996	-0.522064	0.402566
O34	O	1.370996	-0.022064	0.902566
C35	C	0.746157	-0.356559	0.357063
C36	C	1.246157	0.143441	0.857063
C37	C	0.676189	-0.356593	0.357044
C38	C	1.176189	0.143407	0.857044
C39	C	0.909655	-0.548930	0.357112
C40	C	1.409655	-0.048930	0.857112
C41	C	0.909690	-0.631244	0.357122
C42	C	1.409690	-0.131244	0.857122
C43	C	0.909770	-0.930335	0.357189
C44	C	1.409770	-0.430335	0.857189
C45	C	0.958272	-0.898974	0.299829
C46	C	1.458272	-0.398974	0.799829
C47	C	0.958441	-0.813355	0.299977
C48	C	1.458441	-0.313355	0.799977
C49	C	0.909730	-0.781953	0.357155
C50	C	1.409730	-0.281953	0.857155
C51	C	0.927713	-0.812967	0.435223
C52	C	1.427713	-0.312967	0.935223
C53	C	0.928088	-0.898612	0.434911
C54	C	1.428088	-0.398612	0.934911
C55	C	0.843156	-0.898863	0.337158
C56	C	1.343156	-0.398863	0.837158
C57	C	0.843485	-0.813213	0.335416
C58	C	1.343485	-0.313213	0.835416
C59	C	0.909707	-0.698093	0.357141
C60	C	1.409707	-0.198093	0.857141
C61	C	0.909795	-1.014195	0.357209
C62	C	1.409795	-0.514195	0.857209
C63	C	0.643331	-0.404017	0.404326
C64	C	1.143331	0.095983	0.904326
C65	C	0.577588	-0.403999	0.404359
C66	C	1.077588	0.096001	0.904359
C67	C	0.544707	-0.356565	0.357097
C68	C	1.044707	0.143435	0.857097
C69	C	0.577573	-0.309132	0.309812
C70	C	1.077573	0.190868	0.809812
C71	C	0.643315	-0.309146	0.309785
C72	C	1.143315	0.190854	0.809785
N73	N	0.441435	-0.350769	0.292325
N74	N	0.941435	0.149231	0.792325
N75	N	0.378984	-0.350760	0.292352
N76	N	0.878984	0.149240	0.792352
C77	C	0.346632	-0.356517	0.357176
C78	C	0.846632	0.143483	0.857176
N79	N	0.379091	-0.362299	0.421973
N80	N	0.879091	0.137701	0.921973
N81	N	0.441548	-0.362312	0.421945
N82	N	0.941548	0.137688	0.921945
C83	C	0.473421	-0.356543	0.357121
C84	C	0.973421	0.143457	0.857121
C85	C	0.242488	-0.403924	0.404498
C86	C	0.742488	0.096076	0.904498
C87	C	0.176744	-0.403900	0.404533
C88	C	0.676744	0.096100	0.904533
C89	C	0.176731	-0.309037	0.309979
C90	C	0.676731	0.190963	0.809979
C91	C	0.242473	-0.309057	0.309951
C92	C	0.742473	0.190943	0.809951
C93	C	0.275348	-0.356504	0.357209
C94	C	0.775348	0.143496	0.857209
C95	C	1.073899	-0.356481	0.357234
C96	C	1.573899	0.143519	0.857234
C97	C	1.143868	-0.356465	0.357271
C98	C	1.643868	0.143535	0.857271
C99	C	0.909745	-0.356501	0.550310
C100	C	1.409745	0.143499	1.050310
C101	C	0.909761	-0.356493	0.632624
C102	C	1.409761	0.143507	1.132624
C103	C	0.909780	-0.163358	0.357201
C104	C	1.409780	0.336642	0.857201
C105	C	0.909811	-0.081044	0.357223
C106	C	1.409811	0.418956	0.857223
C107	C	0.909709	-0.356485	0.164738
C108	C	1.409709	0.143515	0.664738
C109	C	0.909816	-0.356284	0.082424
C110	C	1.409816	0.143716	0.582424
C111	C	0.909798	-0.356354	0.931716
C112	C	1.409798	0.143646	1.431716
C113	C	0.860960	-0.413417	0.900349
C114	C	1.360960	0.086583	1.400349
C115	C	0.861092	-0.413681	0.814731
C116	C	1.361092	0.086319	1.314731
C117	C	0.909779	-0.356423	0.783333
C118	C	1.409779	0.143577	1.283333
C119	C	0.976105	-0.377586	0.814457
C120	C	1.476105	0.122414	1.314457
C121	C	0.975833	-0.377960	0.900102
C122	C	1.475833	0.122040	1.400102
C123	C	0.892886	-0.278002	0.900139
C124	C	1.392886	0.221998	1.400139
C125	C	0.891410	-0.278455	0.814487
C126	C	1.391410	0.221545	1.314487
C127	C	0.909772	-0.356461	0.699473
C128	C	1.409772	0.143539	1.199473
C129	C	0.909809	-0.356318	1.015575
C130	C	1.409809	0.143682	1.515575
H131	H	0.947190	-0.792387	0.242092
H132	H	1.447190	-0.292387	0.742092
N133	N	0.143142	-0.260579	0.261714
N134	N	0.643142	0.239421	0.761714
N135	N	0.084445	-0.260567	0.261748
N136	N	0.584445	0.239433	0.761748
H137	H	0.060719	-0.226340	0.227663
H138	H	0.560719	0.273660	0.727663
N139	N	0.276032	-0.260611	0.261646
N140	N	0.776032	0.239389	0.761646
N141	N	0.246669	-0.218260	0.219452
N142	N	0.746669	0.281740	0.719452
H143	H	0.270369	-0.184040	0.185335
H144	H	0.770369	0.315960	0.685335
N145	N	0.799068	-0.396983	0.926138
N146	N	1.299068	0.103017	1.426138
N147	N	0.756341	-0.382783	0.880952
N148	N	1.256341	0.117217	1.380952
H149	H	0.712627	-0.371175	0.899169
H150	H	1.212627	0.128825	1.399169
N151	N	0.143190	-0.452357	0.452834
N152	N	0.643190	0.047643	0.952834
N153	N	0.150482	-0.520685	0.447785
N154	N	0.650482	-0.020685	0.947785
H155	H	0.126785	-0.554910	0.481899
H156	H	0.626785	-0.054910	0.981899
N157	N	0.676873	-0.260694	0.261484
N158	N	1.176873	0.239306	0.761484
N159	N	0.647511	-0.218338	0.219293
N160	N	1.147511	0.281662	0.719293
H161	H	0.671212	-0.184118	0.185178
H162	H	1.171212	0.315882	0.685178
N163	N	0.993804	-0.449809	0.925191
N164	N	1.493804	0.050191	1.425191
N165	N	0.996849	-0.463078	0.992861
N166	N	1.496849	0.036922	1.492861
H167	H	1.009539	-0.513824	1.010578
H168	H	1.509539	-0.013824	1.510578
H169	H	0.975860	-0.791447	0.452474
H170	H	1.475860	-0.291447	0.952474
H171	H	0.990688	-0.434253	0.793016
H172	H	1.490688	0.065747	1.293016
N173	N	0.874829	-0.485826	0.927363
N174	N	1.374829	0.014174	1.427363
N175	N	0.920525	-0.495588	0.969615
N176	N	1.420525	0.004412	1.469615
H177	H	0.930321	-0.546726	0.988695
H178	H	1.430321	-0.046726	1.488695
H179	H	1.013454	-0.338201	0.920854
H180	H	1.513454	0.161799	1.420854
N181	N	0.795715	-0.786404	0.383988
N182	N	1.295715	-0.286404	0.883988
N183	N	0.809780	-0.743634	0.435652
N184	N	1.309780	-0.243634	0.935652
H185	H	0.776044	-0.724702	0.469963
H186	H	1.276044	-0.224702	0.969963
H187	H	0.550829	-0.442617	0.442865
H188	H	1.050829	0.057383	0.942865
H189	H	0.894309	-0.919357	0.479123
H190	H	1.394309	-0.419357	0.979123
H191	H	0.807018	-0.919147	0.378936
H192	H	1.307018	-0.419147	0.878936
H193	H	1.007347	-0.920428	0.312932
H194	H	1.507347	-0.420428	0.812932
H195	H	0.872258	-0.471759	0.794249
H196	H	1.372258	0.028241	1.294249
N197	N	0.799396	-0.397060	0.788325
N198	N	1.299396	0.102940	1.288325
N199	N	0.774069	-0.337017	0.804860
N200	N	1.274069	0.162983	1.304860
H201	H	0.730493	-0.325280	0.786215
H202	H	1.230493	0.174720	1.286215
H203	H	0.893466	-0.792626	0.479112
H204	H	1.393466	-0.292626	0.979112
N205	N	0.826477	-0.787777	0.263347
N206	N	1.326477	-0.287777	0.763347
N207	N	0.821875	-0.720072	0.250934
N208	N	1.321875	-0.220072	0.750934
H209	H	0.809867	-0.702102	0.200035
H210	H	1.309867	-0.202102	0.700035
H211	H	0.826796	-0.920519	0.281217
H212	H	1.326796	-0.420519	0.781217
N213	N	1.022975	-0.327080	0.788948
N214	N	1.522975	0.172920	1.288948
N215	N	1.007983	-0.274801	0.747445
N216	N	1.507983	0.225199	1.247445
H217	H	1.041084	-0.239129	0.729428
H218	H	1.541084	0.260871	1.229428
N219	N	0.833267	-0.253815	0.927207
N220	N	1.333267	0.246185	1.427207
N221	N	0.802515	-0.294037	0.970107
N222	N	1.302515	0.205963	1.470107
H223	H	0.760407	-0.276962	0.989226
H224	H	1.260407	0.223038	1.489226
H225	H	0.670093	-0.442651	0.442809
H226	H	1.170093	0.057349	0.942809
N227	N	0.543980	-0.260678	0.261545
N228	N	1.043980	0.239322	0.761545
N229	N	0.485283	-0.260671	0.261574
N230	N	0.985283	0.239329	0.761574
H231	H	0.461556	-0.226447	0.227487
H232	H	0.961556	0.273553	0.727487
H233	H	0.842600	-0.262496	0.794142
H234	H	1.342600	0.237504	1.294142
N235	N	0.276064	-0.452392	0.452773
N236	N	0.776064	0.047608	0.952773
N237	N	0.246714	-0.494729	0.494992
N238	N	0.746714	0.005271	0.994992
H239	H	0.270424	-0.528962	0.529087
H240	H	0.770424	-0.028962	1.029087
H241	H	0.947158	-0.919611	0.241770
H242	H	1.447158	-0.419611	0.741770
N243	N	0.932770	-0.222293	0.787659
N244	N	1.432770	0.277707	1.287659
N245	N	0.937238	-0.210764	0.719784
N246	N	1.437238	0.289236	1.219784
H247	H	0.966454	-0.171104	0.700831
H248	H	1.466454	0.328896	1.200831
N249	N	0.937513	-0.224675	0.925591
N250	N	1.437513	0.275325	1.425591
N251	N	0.981599	-0.244188	0.966805
N252	N	1.481599	0.255812	1.466805
H253	H	1.013120	-0.206532	0.984785
H254	H	1.513120	0.293468	1.484785
H255	H	1.007785	-0.792798	0.313233
H256	H	1.507785	-0.292798	0.813233
H257	H	0.976781	-0.918518	0.451876
H258	H	1.476781	-0.418518	0.951876
