data_functionalizedCrystal
_audit_creation_method	'MofGen! by Chris Wilmer'
_symmetry_space_group_name_H-M	'P1'
_symmetry_Int_Tables_number	1
_symmetry_cell_setting	triclinic
loop_
_symmetry_equiv_pos_as_xyz
  x,y,z
_cell_length_a	17.699097
_cell_length_b	10.540539
_cell_length_c	16.776229
_cell_angle_alpha	90.001499
_cell_angle_beta	89.989277
_cell_angle_gamma	83.906961
loop_
_atom_site_label
_atom_site_type_symbol
_atom_site_fract_x
_atom_site_fract_y
_atom_site_fract_z
O1	O	1.005117	0.160589	-0.066351
O2	O	1.505117	0.660589	0.433649
O3	O	0.784876	0.181456	-0.066337
O4	O	1.284876	0.681456	0.433663
O5	O	0.900021	-0.013775	-0.066343
O6	O	1.400021	0.486225	0.433657
O7	O	0.889972	0.355821	-0.066345
O8	O	1.389972	0.855821	0.433655
O9	O	0.900004	-0.013765	0.066233
O10	O	1.400004	0.486235	0.566233
O11	O	0.784859	0.181466	0.066239
O12	O	1.284859	0.681466	0.566239
O13	O	1.005100	0.160600	0.066226
O14	O	1.505100	0.660600	0.566226
Zn15	Zn	0.894977	0.171035	0.087282
Zn16	Zn	1.394977	0.671035	0.587282
Zn17	Zn	0.894999	0.171021	-0.087393
Zn18	Zn	1.394999	0.671021	0.412607
O19	O	0.889955	0.355831	0.066232
O20	O	1.389955	0.855831	0.566232
C21	C	0.756666	0.180710	-0.000047
C22	C	1.256666	0.680710	0.499953
C23	C	0.672633	0.178459	-0.000042
C24	C	1.172633	0.678459	0.499958
C25	C	0.899259	-0.061059	-0.000057
C26	C	1.399259	0.438941	0.499943
C27	C	0.897004	-0.201966	-0.000061
C28	C	1.397004	0.298034	0.499939
C29	C	0.156835	0.164652	-0.072342
C30	C	0.656835	0.664652	0.427658
C31	C	0.235792	0.166759	-0.072338
C32	C	0.735792	0.666759	0.427662
C33	C	0.275256	0.167820	-0.000067
C34	C	0.775256	0.667820	0.499933
C35	C	0.235759	0.166761	0.072204
C36	C	0.735759	0.666761	0.572204
C37	C	0.156803	0.164645	0.072199
C38	C	0.656803	0.664645	0.572199
C39	C	0.554178	0.175293	0.072225
C40	C	1.054178	0.675293	0.572225
C41	C	0.633139	0.177413	0.072224
C42	C	1.133139	0.677413	0.572224
C43	C	0.633168	0.177407	-0.072312
C44	C	1.133168	0.677407	0.427688
C45	C	0.554212	0.175291	-0.072317
C46	C	1.054212	0.675291	0.427683
C47	C	0.514722	0.174225	-0.000046
C48	C	1.014722	0.674225	0.499954
C49	C	0.429107	0.171938	-0.000051
C50	C	0.929107	0.671938	0.499949
C51	C	0.360869	0.170116	-0.000061
C52	C	0.860869	0.670116	0.499939
C53	C	0.810606	-0.383820	-0.000353
C54	C	1.310606	0.116180	0.499647
C55	C	0.812891	-0.237243	-0.000055
C56	C	1.312891	0.262757	0.499945
C57	C	0.937473	-0.264355	0.075645
C58	C	1.437473	0.235645	0.575645
C59	C	0.934603	-0.410848	0.075709
C60	C	1.434603	0.089152	0.575709
C61	C	0.936333	-0.411409	-0.075056
C62	C	1.436333	0.088591	0.424944
C63	C	0.937108	-0.264441	-0.076057
C64	C	1.437108	0.235559	0.423943
C65	C	1.033310	0.161345	-0.000066
C66	C	1.533310	0.661345	0.499934
C67	C	1.117342	0.163597	-0.000076
C68	C	1.617342	0.663597	0.499924
C69	C	0.890717	0.403115	-0.000057
C70	C	1.390717	0.903115	0.499943
C71	C	0.892972	0.544022	-0.000058
C72	C	1.392972	1.044022	0.499942
N73	N	0.894967	0.171043	0.206493
N74	N	1.394967	0.671043	0.706493
N75	N	0.895015	0.171002	-0.206605
N76	N	1.395015	0.671002	0.293395
C77	C	0.946007	0.084585	0.751655
C78	C	1.446007	0.584585	1.251655
C79	C	0.946004	0.084594	0.668203
C80	C	1.446004	0.584594	1.168203
C81	C	0.895003	0.171015	0.626492
C82	C	1.395003	0.671015	1.126492
C83	C	0.844008	0.257442	0.668238
C84	C	1.344008	0.757442	1.168238
C85	C	0.844016	0.257438	0.751689
C86	C	1.344016	0.757438	1.251689
C87	C	0.843976	0.257460	0.331691
C88	C	1.343976	0.757460	0.831691
C89	C	0.843970	0.257455	0.248235
C90	C	1.343970	0.757455	0.748235
C91	C	0.945964	0.084617	0.248205
C92	C	1.445964	0.584617	0.748205
C93	C	0.945972	0.084613	0.331656
C94	C	1.445972	0.584613	0.831656
C95	C	0.894979	0.171043	0.373394
C96	C	1.394979	0.671043	0.873394
C97	C	0.894985	0.171034	0.463883
C98	C	1.394985	0.671034	0.963883
C99	C	0.894993	0.171019	0.536006
C100	C	1.394993	0.671019	1.036006
H101	H	0.267944	0.167610	-0.131184
H102	H	0.767944	0.667610	0.368816
C103	C	0.510806	0.174119	-0.151814
C104	C	1.010806	0.674119	0.348186
H105	H	0.545636	0.175036	-0.194854
H106	H	1.045636	0.675036	0.305146
H107	H	0.474633	0.247282	-0.154823
H108	H	0.974633	0.747282	0.345177
H109	H	0.485381	0.099289	-0.154816
H110	H	0.985381	0.599289	0.345184
H111	H	0.909347	-0.221239	0.131985
H112	H	1.409347	0.278761	0.631985
C113	C	0.676610	0.178563	-0.151810
C114	C	1.176610	0.678563	0.348190
H115	H	0.729286	0.179961	-0.141461
H116	H	1.229286	0.679961	0.358539
H117	H	0.658306	0.252208	-0.181504
H118	H	1.158306	0.752208	0.318496
H119	H	0.669046	0.104215	-0.181505
H120	H	1.169046	0.604215	0.318495
C121	C	1.020920	-0.235689	0.079450
C122	C	1.520920	0.264311	0.579450
H123	H	1.044311	-0.274302	0.125666
H124	H	1.544311	0.225698	0.625666
H125	H	1.022854	-0.146042	0.081717
H126	H	1.522854	0.353958	0.581717
H127	H	1.047079	-0.269065	0.033312
H128	H	1.547079	0.230935	0.533312
C129	C	1.002092	-0.010472	0.622292
C130	C	1.502092	0.489528	1.122292
H131	H	1.032459	-0.061953	0.659085
H132	H	1.532459	0.438047	1.159085
H133	H	1.033842	0.035120	0.589730
H134	H	1.533842	0.535120	1.089730
H135	H	0.974572	-0.063255	0.589746
H136	H	1.474572	0.436745	1.089746
C137	C	0.899571	-0.453362	-0.152574
C138	C	1.399571	0.046638	0.347426
H139	H	0.926593	-0.425522	-0.197103
H140	H	1.426593	0.074478	0.302897
H141	H	0.848214	-0.416729	-0.154898
H142	H	1.348214	0.083271	0.345102
H143	H	0.901236	-0.543731	-0.153547
H144	H	1.401236	-0.043731	0.346453
C145	C	1.016318	-0.477143	0.080359
C146	C	1.516318	0.022857	0.580359
H147	H	1.051119	-0.414509	0.082207
H148	H	1.551119	0.085491	0.582207
H149	H	1.026483	-0.529507	0.034709
H150	H	1.526483	-0.029507	0.534709
H151	H	1.021765	-0.528295	0.127047
H152	H	1.521765	-0.028295	0.627047
C153	C	0.897166	-0.208416	-0.151719
C154	C	1.397166	0.291584	0.348281
H155	H	0.856224	-0.147201	-0.137064
H156	H	1.356224	0.352799	0.362936
H157	H	0.878221	-0.274915	-0.181444
H158	H	1.378221	0.225085	0.318556
H159	H	0.932415	-0.168539	-0.183320
H160	H	1.432415	0.331461	0.316680
H161	H	0.802485	0.327814	0.634273
H162	H	1.302485	0.827814	1.134273
C163	C	1.002074	-0.010446	0.377533
C164	C	1.502074	0.489554	0.877533
H165	H	1.032449	-0.061905	0.340721
H166	H	1.532449	0.438095	0.840721
H167	H	0.974572	-0.063233	0.410097
H168	H	1.474572	0.436767	0.910097
H169	H	1.033827	0.035166	0.410076
H170	H	1.533827	0.535166	0.910076
H171	H	0.124708	0.163797	-0.131193
H172	H	0.624708	0.663797	0.368807
H173	H	0.802438	0.327834	0.214275
H174	H	1.302438	0.827834	0.714275
H175	H	0.904680	-0.438498	0.132303
H176	H	1.404680	0.061502	0.632303
H177	H	0.987535	0.014206	0.785610
H178	H	1.487535	0.514206	1.285610
C179	C	0.787902	0.352554	0.377594
C180	C	1.287902	0.852554	0.877594
H181	H	0.757529	0.404022	0.340798
H182	H	1.257529	0.904022	0.840798
H183	H	0.815431	0.405328	0.410129
H184	H	1.315431	0.905328	0.910129
H185	H	0.756144	0.306983	0.410167
H186	H	1.256144	0.806983	0.910167
H187	H	0.998433	-0.241337	-0.080632
H188	H	1.498433	0.258663	0.419368
C189	C	1.018402	-0.476709	-0.075757
C190	C	1.518402	0.023291	0.424243
H191	H	1.026235	-0.530879	-0.030594
H192	H	1.526235	-0.030879	0.469406
H193	H	1.052936	-0.413653	-0.074099
H194	H	1.552936	0.086347	0.425901
H195	H	1.026659	-0.525911	-0.123007
H196	H	1.526659	-0.025911	0.376993
H197	H	0.987487	0.014244	0.214212
H198	H	1.487487	0.514244	0.714212
C199	C	0.113361	0.163491	0.151692
C200	C	0.613361	0.663491	0.651692
H201	H	0.148170	0.164438	0.194735
H202	H	0.648170	0.664438	0.694735
H203	H	0.087931	0.088675	0.154695
H204	H	0.587931	0.588675	0.654695
H205	H	0.077189	0.236668	0.154693
H206	H	0.577189	0.736668	0.654693
H207	H	0.665268	0.178277	0.131079
H208	H	1.165268	0.678277	0.631079
H209	H	0.780810	-0.194899	0.054308
H210	H	1.280810	0.305101	0.554308
C211	C	0.787925	0.352493	0.797607
C212	C	1.287925	0.852493	1.297607
H213	H	0.795239	0.340123	0.853281
H214	H	1.295239	0.840123	1.353281
H215	H	0.737339	0.338817	0.783948
H216	H	1.237339	0.838817	1.283948
H217	H	0.796606	0.437197	0.783929
H218	H	1.296606	0.937197	1.283929
C219	C	0.510748	0.174139	0.151719
C220	C	1.010748	0.674139	0.651719
H221	H	0.545560	0.175090	0.194759
H222	H	1.045560	0.675090	0.694759
H223	H	0.485317	0.099323	0.154728
H224	H	0.985317	0.599323	0.654728
H225	H	0.474576	0.247316	0.154721
H226	H	0.974576	0.747316	0.654721
H227	H	0.267897	0.167617	0.131048
H228	H	0.767897	0.667617	0.631048
C229	C	0.769876	-0.178899	-0.073364
C230	C	1.269876	0.321101	0.426636
H231	H	0.771223	-0.089036	-0.073282
H232	H	1.271223	0.410964	0.426718
H233	H	0.718587	-0.197682	-0.071492
H234	H	1.218587	0.302318	0.428508
H235	H	0.793293	-0.213979	-0.120551
H236	H	1.293293	0.286021	0.379449
C237	C	0.765720	-0.421655	-0.073684
C238	C	1.265720	0.078345	0.426316
H239	H	0.796805	-0.481803	-0.104777
H240	H	1.296805	0.018197	0.395223
H241	H	0.750902	-0.347972	-0.104861
H242	H	1.250902	0.152028	0.395139
H243	H	0.721763	-0.458566	-0.056651
H244	H	1.221763	0.041434	0.443349
H245	H	0.777507	-0.413421	0.053636
H246	H	1.277507	0.086579	0.553636
