data_functionalizedCrystal
_audit_creation_method	'MofGen! by Chris Wilmer'
_symmetry_space_group_name_H-M	'P1'
_symmetry_Int_Tables_number	1
_symmetry_cell_setting	triclinic
loop_
_symmetry_equiv_pos_as_xyz
  x,y,z
_cell_length_a	13.897449
_cell_length_b	18.050590
_cell_length_c	18.050582
_cell_angle_alpha	89.976663
_cell_angle_beta	89.983584
_cell_angle_gamma	90.019379
loop_
_atom_site_label
_atom_site_type_symbol
_atom_site_fract_x
_atom_site_fract_y
_atom_site_fract_z
Zn1	Zn	1.474630	-0.295690	-0.419938
Zn2	Zn	1.474542	-0.419874	-0.295747
Zn3	Zn	1.313339	-0.295704	-0.295759
Zn4	Zn	1.313299	-0.419845	-0.419892
O5	O	1.393953	-0.357778	-0.357834
O6	O	1.609600	-0.312170	-0.403478
O7	O	1.453138	-0.403420	-0.191824
O8	O	1.334789	-0.191777	-0.312256
O9	O	1.609535	-0.403407	-0.312235
O10	O	1.453289	-0.191767	-0.403490
O11	O	1.334703	-0.312193	-0.191833
O12	O	1.178352	-0.312165	-0.312211
O13	O	1.334720	-0.403358	-0.523823
O14	O	1.178323	-0.403371	-0.403411
O15	O	1.453250	-0.312142	-0.523857
O16	O	1.453098	-0.523794	-0.312190
O17	O	1.334634	-0.523773	-0.403399
C18	C	1.143338	-0.357767	-0.357808
C19	C	1.036124	-0.357780	-0.357815
C20	C	0.949054	-0.357782	-0.357827
C21	C	0.839822	-0.357787	-0.357850
C22	C	1.393878	-0.550730	-0.357804
C23	C	1.393935	-0.633276	-0.357816
C24	C	1.458490	-0.832711	-0.308286
C25	C	1.482045	-0.882049	-0.376067
C26	C	1.393990	-0.784406	-0.357846
C27	C	1.370533	-0.882150	-0.290096
C28	C	1.394044	-0.930391	-0.357869
C29	C	1.417590	-0.832657	-0.425662
C30	C	1.306037	-0.832753	-0.339646
C31	C	1.329558	-0.882069	-0.407473
C32	C	1.393961	-0.700308	-0.357832
C33	C	1.394073	-1.014488	-0.357890
C34	C	1.645545	-0.357790	-0.357860
C35	C	1.752759	-0.357795	-0.357872
C36	C	1.393990	-0.357745	-0.551540
C37	C	1.394006	-0.357731	-0.634085
C38	C	1.394053	-0.164072	-0.357880
C39	C	1.394096	-0.081527	-0.357900
C40	C	1.329599	-0.407266	-0.833518
C41	C	1.417607	-0.425419	-0.882911
C42	C	1.394054	-0.357674	-0.785216
C43	C	1.306095	-0.339501	-0.882905
C44	C	1.394092	-0.357621	-0.931201
C45	C	1.482107	-0.375862	-0.833522
C46	C	1.370536	-0.289913	-0.833511
C47	C	1.458605	-0.308040	-0.882882
C48	C	1.394031	-0.357707	-0.701118
C49	C	1.394125	-0.357588	-1.015298
C50	C	1.393970	-0.357757	-0.164882
C51	C	1.394141	-0.357562	-0.082336
H52	H	1.513054	-0.811038	-0.266418
C53	C	1.575987	-0.953901	-0.461482
C54	C	1.582487	-0.911271	-0.396884
H55	H	1.638000	-0.971929	-0.474335
H56	H	1.533820	-0.994496	-0.453220
H57	H	1.551748	-0.924185	-0.500704
H58	H	1.606719	-0.940989	-0.357660
H59	H	1.624670	-0.870671	-0.405143
C60	C	1.138270	-0.370815	-0.887265
C61	C	1.205658	-0.318775	-0.912188
H62	H	1.076264	-0.358020	-0.905339
H63	H	1.155434	-0.418585	-0.904908
H64	H	1.137402	-0.371123	-0.834643
H65	H	1.206532	-0.318471	-0.964810
H66	H	1.188490	-0.270992	-0.894549
H67	H	1.437379	-0.811010	-0.483017
H68	H	1.231655	-0.811082	-0.324217
C69	C	1.280779	-0.886028	-0.535004
C70	C	1.255956	-0.911150	-0.464126
H71	H	1.235345	-0.903987	-0.569979
H72	H	1.280731	-0.833411	-0.535582
H73	H	1.343090	-0.903660	-0.547524
H74	H	1.193648	-0.893514	-0.451604
H75	H	1.255994	-0.963778	-0.463546
C76	C	1.581632	-0.396554	-0.726798
C77	C	1.582575	-0.396681	-0.804368
H78	H	1.643653	-0.409414	-0.708801
H79	H	1.564818	-0.348592	-0.709478
H80	H	1.535793	-0.431581	-0.709510
H81	H	1.628409	-0.361651	-0.821656
H82	H	1.599401	-0.444650	-0.821695
C83	C	1.411328	-0.886573	-0.160927
C84	C	1.343709	-0.911493	-0.212738
H85	H	1.394769	-0.904684	-0.113169
H86	H	1.473376	-0.904180	-0.174204
H87	H	1.411685	-0.833951	-0.160262
H88	H	1.343357	-0.964115	-0.213407
H89	H	1.281645	-0.893890	-0.199457
H90	H	1.275143	-0.449260	-0.811844
H91	H	1.437521	-0.482700	-0.904609
C92	C	1.624313	-0.270575	-0.886903
C93	C	1.532289	-0.251395	-0.911968
H94	H	1.669803	-0.235609	-0.904865
H95	H	1.625062	-0.270572	-0.834286
H96	H	1.640491	-0.318547	-0.904570
H97	H	1.516109	-0.203425	-0.894296
H98	H	1.531538	-0.251390	-0.964595
C99	C	1.251410	-0.193717	-0.829067
C100	C	1.343618	-0.212611	-0.804185
H101	H	1.234783	-0.145996	-0.810956
H102	H	1.250652	-0.193242	-0.881682
H103	H	1.206258	-0.229095	-0.811427
H104	H	1.388771	-0.177235	-0.821829
H105	H	1.344383	-0.213081	-0.751559
