data_functionalizedCrystal
_audit_creation_method	'MofGen! by Chris Wilmer'
_symmetry_space_group_name_H-M	'P1'
_symmetry_Int_Tables_number	1
_symmetry_cell_setting	triclinic
loop_
_symmetry_equiv_pos_as_xyz
  x,y,z
_cell_length_a	12.827893
_cell_length_b	16.120444
_cell_length_c	12.827885
_cell_angle_alpha	92.864681
_cell_angle_beta	89.980538
_cell_angle_gamma	92.926466
loop_
_atom_site_label
_atom_site_type_symbol
_atom_site_fract_x
_atom_site_fract_y
_atom_site_fract_z
Zn1	Zn	1.576498	-0.331868	-0.611901
Zn2	Zn	2.076498	0.168132	-0.111901
Zn3	Zn	1.567496	-0.471303	-0.446006
Zn4	Zn	2.067496	0.028697	0.053994
Zn5	Zn	1.401736	-0.331908	-0.437177
Zn6	Zn	1.901736	0.168092	0.062823
Zn7	Zn	1.392833	-0.471241	-0.620702
Zn8	Zn	1.892833	0.028759	-0.120702
O9	O	1.484641	-0.401580	-0.528946
O10	O	1.984641	0.098420	-0.028946
O11	O	1.721539	-0.350373	-0.589906
O12	O	2.221539	0.149627	-0.089906
O13	O	1.545466	-0.452855	-0.298601
O14	O	2.045466	0.047145	0.201399
O15	O	1.432413	-0.215237	-0.452976
O16	O	1.932413	0.284763	0.047024
O17	O	1.714925	-0.452816	-0.468024
O18	O	2.214925	0.047184	0.031976
O19	O	1.560809	-0.215207	-0.581345
O20	O	2.060809	0.284793	-0.081345
O21	O	1.423683	-0.350442	-0.292115
O22	O	1.923683	0.149558	0.207885
O23	O	1.254320	-0.350382	-0.461510
O24	O	1.754320	0.149618	0.038490
O25	O	1.417238	-0.452710	-0.765768
O26	O	1.917238	0.047290	-0.265768
O27	O	1.247778	-0.452750	-0.596346
O28	O	1.747778	0.047250	-0.096346
O29	O	1.552176	-0.350313	-0.759302
O30	O	2.052176	0.149687	-0.259302
O31	O	1.536832	-0.587961	-0.476558
O32	O	2.036832	-0.087961	0.023442
O33	O	1.408508	-0.587915	-0.604907
O34	O	1.908508	-0.087915	-0.104907
C35	C	1.213132	-0.401564	-0.528926
C36	C	1.713132	0.098436	-0.028926
C37	C	1.096978	-0.401577	-0.528943
C38	C	1.596978	0.098423	-0.028943
C39	C	1.470756	-0.618188	-0.542669
C40	C	1.970756	-0.118188	-0.042669
C41	C	1.464911	-0.710854	-0.548574
C42	C	1.964911	-0.210854	-0.048574
C43	C	1.041979	-0.452311	-0.595570
C44	C	1.541979	0.047689	-0.095570
C45	C	0.921927	-0.452326	-0.595590
C46	C	1.421927	0.047674	-0.095590
C47	C	1.515215	-0.921799	-0.498537
C48	C	2.015215	-0.421799	0.001463
C49	C	1.454260	-0.880510	-0.559367
C50	C	1.954260	-0.380510	-0.059367
C51	C	1.460188	-0.786105	-0.553360
C52	C	1.960188	-0.286105	-0.053360
C53	C	1.509288	-1.016213	-0.504543
C54	C	2.009288	-0.516213	-0.004543
C55	C	1.757210	-0.401597	-0.528968
C56	C	2.257210	0.098403	-0.028968
C57	C	1.873362	-0.401604	-0.528977
C58	C	2.373362	0.098396	-0.028977
C59	C	1.484718	-0.401500	-0.801512
C60	C	1.984718	0.098500	-0.301512
C61	C	1.484751	-0.401466	-0.917663
C62	C	1.984751	0.098534	-0.417663
C63	C	1.498608	-0.184126	-0.515194
C64	C	1.998608	0.315874	-0.015194
C65	C	1.504561	-0.091460	-0.509333
C66	C	2.004561	0.408540	-0.009333
C67	C	1.424510	-0.350779	-0.966237
C68	C	1.924510	0.149221	-0.466237
C69	C	1.424542	-0.350742	-1.086285
C70	C	1.924542	0.149258	-0.586285
C71	C	1.484628	-0.401600	-0.257438
C72	C	1.984628	0.098400	0.242562
C73	C	1.484812	-0.401399	-0.141272
C74	C	1.984812	0.098601	0.358728
H75	H	1.083770	-0.495732	-0.652602
H76	H	1.583770	0.004268	-0.152602
C77	C	1.567854	-0.894869	-0.319943
C78	C	2.067854	-0.394869	0.180057
C79	C	1.591661	-0.873811	-0.422137
C80	C	2.091661	-0.373811	0.077863
H81	H	1.615050	-0.865238	-0.272777
H82	H	2.115050	-0.365238	0.227223
H83	H	1.498524	-0.880714	-0.303723
H84	H	1.998524	-0.380714	0.196277
H85	H	1.573860	-0.952935	-0.314019
H86	H	2.073860	-0.452935	0.185981
H87	H	1.585647	-0.815745	-0.428062
H88	H	2.085647	-0.315745	0.071938
H89	H	1.661008	-0.887960	-0.438361
H90	H	2.161008	-0.387960	0.061639
H91	H	1.372907	-0.307414	-0.918948
H92	H	1.872907	0.192586	-0.418948
H93	H	1.397622	-0.916063	-0.615955
H94	H	1.897622	-0.416063	-0.115955
H95	H	1.536394	-0.444793	-1.099494
H96	H	2.036394	0.055207	-0.599494
C97	C	1.284852	-0.339208	-1.208404
C98	C	1.784852	0.160792	-0.708404
C99	C	1.354907	-0.292159	-1.142680
C100	C	1.854907	0.207841	-0.642680
H101	H	1.241856	-0.303038	-1.243214
H102	H	1.741856	0.196962	-0.743214
H103	H	1.322670	-0.370972	-1.258461
H104	H	1.822670	0.129028	-0.758461
H105	H	1.242506	-0.375511	-1.168105
H106	H	1.742506	0.124489	-0.668105
H107	H	1.397258	-0.255860	-1.182980
H108	H	1.897258	0.244140	-0.682980
H109	H	1.317085	-0.260380	-1.092617
H110	H	1.817085	0.239620	-0.592617
H111	H	1.536348	-0.444835	-0.964952
H112	H	2.036348	0.055165	-0.464952
H113	H	0.874642	-0.495763	-0.652629
H114	H	1.374642	0.004237	-0.152629
H115	H	0.920641	-0.358170	-0.471928
H116	H	1.420641	0.141830	0.028072
H117	H	1.055187	-0.358150	-0.471918
H118	H	1.555187	0.141850	0.028082
