data_functionalizedCrystal
_audit_creation_method	'MofGen! by Chris Wilmer'
_symmetry_space_group_name_H-M	'P1'
_symmetry_Int_Tables_number	1
_symmetry_cell_setting	triclinic
loop_
_symmetry_equiv_pos_as_xyz
  x,y,z
_cell_length_a	19.805407
_cell_length_b	14.909383
_cell_length_c	19.805399
_cell_angle_alpha	93.275179
_cell_angle_beta	89.979591
_cell_angle_gamma	86.728142
loop_
_atom_site_label
_atom_site_type_symbol
_atom_site_fract_x
_atom_site_fract_y
_atom_site_fract_z
Zn1	Zn	1.050303	-0.359098	-0.398314
Zn2	Zn	1.056758	-0.509949	-0.291671
Zn3	Zn	0.937119	-0.359128	-0.285138
Zn4	Zn	0.943619	-0.509906	-0.404814
O5	O	0.996950	-0.434520	-0.344984
O6	O	1.145876	-0.379114	-0.384181
O7	O	1.040868	-0.489973	-0.196089
O8	O	0.946712	-0.232892	-0.294698
O9	O	1.150618	-0.489944	-0.305831
O10	O	1.029868	-0.232870	-0.377847
O11	O	0.952970	-0.379165	-0.191290
O12	O	0.843264	-0.379124	-0.301000
O13	O	0.957790	-0.489871	-0.498667
O14	O	0.848040	-0.489900	-0.388925
O15	O	1.036170	-0.379073	-0.493892
O16	O	1.047171	-0.636176	-0.312133
O17	O	0.964049	-0.636144	-0.395259
C18	C	0.821093	-0.434511	-0.344959
C19	C	0.745862	-0.434529	-0.344966
C20	C	0.281610	-0.376920	-0.385879
C21	C	0.352298	-0.376921	-0.385874
C22	C	0.390101	-0.434534	-0.345007
C23	C	0.357211	-0.492156	-0.304147
C24	C	0.286524	-0.492158	-0.304156
C25	C	0.642284	-0.492149	-0.304111
C26	C	0.712976	-0.492140	-0.304104
C27	C	0.708058	-0.376912	-0.385829
C28	C	0.637371	-0.376914	-0.385838
C29	C	0.604488	-0.434539	-0.344981
C30	C	0.527840	-0.434537	-0.344988
C31	C	0.466748	-0.434532	-0.344996
C32	C	1.007034	-0.668891	-0.355125
C33	C	1.011410	-0.769155	-0.359486
C34	C	0.933122	-0.957739	-0.281017
C35	C	0.937231	-1.051947	-0.285112
C36	C	1.023741	-1.051780	-0.371768
C37	C	1.019632	-0.957572	-0.367673
C38	C	0.974320	-0.910555	-0.322296
C39	C	0.970207	-0.816346	-0.318205
C40	C	1.056720	-0.816180	-0.404856
C41	C	1.060830	-0.910388	-0.408952
C42	C	1.173493	-0.434530	-0.345010
C43	C	1.248725	-0.434535	-0.345020
C44	C	0.996985	-0.434464	-0.521525
C45	C	0.997000	-0.434439	-0.596756
C46	C	0.986845	-0.199235	-0.334819
C47	C	0.982538	-0.098970	-0.330487
C48	C	1.037814	-0.376744	-0.629614
C49	C	1.037820	-0.376718	-0.700302
C50	C	0.997015	-0.434392	-0.738129
C51	C	0.956197	-0.492090	-0.705266
C52	C	0.956188	-0.492111	-0.634579
C53	C	0.956231	-0.492006	-0.990336
C54	C	0.956245	-0.491983	-1.061027
C55	C	1.037863	-0.376613	-1.056058
C56	C	1.037854	-0.376634	-0.985371
C57	C	0.997034	-0.434328	-0.952514
C58	C	0.997027	-0.434354	-0.875867
C59	C	0.997025	-0.434371	-0.814775
C60	C	0.996950	-0.434512	-0.169128
C61	C	0.997055	-0.434282	-0.093886
H62	H	0.387996	-0.539069	-0.270875
H63	H	1.097723	-0.948682	-0.445894
N64	N	0.912200	-0.554242	-0.954921
H65	H	0.941486	-0.596066	-0.927402
H66	H	0.879253	-0.517531	-0.924045
N67	N	0.912169	-0.554277	-0.746061
H68	H	0.918364	-0.545507	-0.795827
H69	H	0.925456	-0.618712	-0.736495
N70	N	0.606825	-0.554289	-0.260037
H71	H	0.556308	-0.545555	-0.266242
H72	H	0.621960	-0.618730	-0.273279
H73	H	1.071099	-0.329632	-1.082818
N74	N	1.101154	-0.765285	-0.449385
H75	H	1.130834	-0.726181	-0.420214
H76	H	1.130437	-0.809424	-0.478744
N77	N	0.240839	-0.314770	-0.429950
H78	H	0.272400	-0.278272	-0.455832
H79	H	0.213104	-0.351540	-0.462824
N80	N	0.387768	-0.314783	-0.429944
H81	H	0.353094	-0.278282	-0.455832
H82	H	0.415288	-0.272991	-0.400633
N83	N	1.081830	-0.314543	-0.588817
H84	H	1.107684	-0.277989	-0.620362
H85	H	1.052483	-0.272805	-0.557679
N86	N	0.753746	-0.554285	-0.260022
H87	H	0.744227	-0.618756	-0.273250
H88	H	0.803500	-0.545459	-0.266232
H89	H	0.933310	-0.778066	-0.281259
H90	H	0.259751	-0.539076	-0.270886
N91	N	1.081826	-0.314472	-0.735742
H92	H	1.107672	-0.277938	-0.701052
H93	H	1.114731	-0.351168	-0.766671
N94	N	0.912161	-0.554331	-0.599135
H95	H	0.886312	-0.590864	-0.633823
H96	H	0.941496	-0.596089	-0.571612
N97	N	1.081868	-0.314433	-0.944572
H98	H	1.107724	-0.277878	-0.976114
H99	H	1.052519	-0.272696	-0.913434
N100	N	0.912233	-0.554191	-1.101829
H101	H	0.886370	-0.590742	-1.070289
H102	H	0.879341	-0.517457	-1.129567
N103	N	0.884246	-0.907021	-0.232087
H104	H	0.858767	-0.951208	-0.206559
H105	H	0.910110	-0.867926	-0.199090
H106	H	0.734840	-0.329994	-0.419098
N107	N	0.596606	-0.314762	-0.429912
H108	H	0.609536	-0.328853	-0.478864
H109	H	0.546848	-0.323527	-0.423662
N110	N	0.892799	-1.102841	-0.240588
H111	H	0.863473	-1.058757	-0.211222
H112	H	0.863163	-1.141942	-0.269805
N113	N	1.072616	-1.102498	-0.420699
H114	H	1.068968	-1.169337	-0.417024
H115	H	1.061333	-1.086013	-0.468313
