data_functionalizedCrystal
_audit_creation_method	'MofGen! by Chris Wilmer'
_symmetry_space_group_name_H-M	'P1'
_symmetry_Int_Tables_number	1
_symmetry_cell_setting	triclinic
loop_
_symmetry_equiv_pos_as_xyz
  x,y,z
_cell_length_a	19.188933
_cell_length_b	19.188930
_cell_length_c	18.266242
_cell_angle_alpha	90.011475
_cell_angle_beta	90.007623
_cell_angle_gamma	83.145175
loop_
_atom_site_label
_atom_site_type_symbol
_atom_site_fract_x
_atom_site_fract_y
_atom_site_fract_z
O1	O	0.926148	0.087175	0.060865
O2	O	0.722837	0.098908	0.060873
O3	O	0.830360	-0.008614	0.060854
O4	O	0.818626	0.194697	0.060883
O5	O	0.830342	-0.008620	-0.060908
O6	O	0.722819	0.098902	-0.060889
O7	O	0.926130	0.087170	-0.060897
Zn8	Zn	0.824472	0.093035	-0.080226
Zn9	Zn	0.824496	0.093042	0.080201
O10	O	0.818608	0.194692	-0.060879
C11	C	0.696817	0.098525	-0.000008
C12	C	0.619313	0.097384	-0.000005
C13	C	0.066067	0.089242	0.066358
C14	C	0.138892	0.090310	0.066361
C15	C	0.175299	0.090844	-0.000011
C16	C	0.138878	0.090292	-0.066391
C17	C	0.066056	0.089217	-0.066392
N18	N	0.284311	0.132260	-0.049409
N19	N	0.353489	0.133283	-0.049403
C20	C	0.394707	0.094082	-0.000012
N21	N	0.364134	0.053828	0.049385
N22	N	0.294949	0.052808	0.049382
C23	C	0.254262	0.092009	-0.000017
C24	C	0.510084	0.095787	0.066367
C25	C	0.582911	0.096851	0.066368
C26	C	0.582894	0.096840	-0.066386
C27	C	0.510071	0.095769	-0.066385
C28	C	0.473669	0.095246	-0.000006
C29	C	0.829971	-0.034628	-0.000029
C30	C	0.828830	-0.112132	-0.000035
C31	C	0.891921	-0.157056	-0.000041
C32	C	0.890849	-0.229880	-0.000029
C33	C	0.826683	-0.257777	-0.000026
C34	C	0.763584	-0.212843	-0.000016
C35	C	0.764658	-0.140021	-0.000021
N36	N	0.777630	-0.365784	-0.041462
N37	N	0.776614	-0.434962	-0.041460
C38	C	0.823445	-0.477185	-0.000011
N39	N	0.871340	-0.447618	0.041425
N40	N	0.872358	-0.378433	0.041419
C41	C	0.825512	-0.336739	-0.000021
C42	C	0.885378	-0.601073	-0.000004
C43	C	0.884304	-0.673898	0.000013
C44	C	0.757037	-0.656860	0.000019
C45	C	0.758113	-0.584037	0.000010
C46	C	0.822286	-0.556148	-0.000005
C47	C	0.952150	0.087553	-0.000015
C48	C	1.029655	0.088694	-0.000013
C49	C	0.818997	0.220705	0.000006
C50	C	0.820137	0.298210	0.000017
N51	N	0.824461	0.093030	-0.189713
C52	C	0.872087	0.045442	-0.228030
C53	C	0.872092	0.045439	-0.304675
C54	C	0.824476	0.093035	-0.342999
C55	C	0.776841	0.140626	-0.304673
C56	C	0.776833	0.140624	-0.228030
N57	N	0.815400	0.154843	-0.463323
N58	N	0.815412	0.154843	-0.536131
C59	C	0.824496	0.093045	-0.573922
N60	N	0.833581	0.031245	-0.536154
N61	N	0.833573	0.031245	-0.463339
C62	C	0.824479	0.093043	-0.426106
C63	C	0.872130	0.045450	-0.695346
C64	C	0.872129	0.045446	-0.771992
C65	C	0.776882	0.140640	-0.771990
C66	C	0.776879	0.140638	-0.695345
C67	C	0.824506	0.093044	-0.657028
N68	N	0.824512	0.093042	0.189688
H69	H	0.168544	0.090760	0.120410
C70	C	1.000737	-0.149149	0.062544
C71	C	0.962459	-0.126402	-0.000048
H72	H	1.044282	-0.130220	0.062541
H73	H	1.009123	-0.198943	0.062539
H74	H	0.974769	-0.133700	0.105001
H75	H	0.988425	-0.141856	-0.042506
H76	H	0.954075	-0.076597	-0.000050
C77	C	0.966272	-0.048649	-0.703044
C78	C	0.924473	-0.006871	-0.653222
H79	H	0.998582	-0.080953	-0.677038
H80	H	0.991298	-0.019649	-0.732924
H81	H	0.937281	-0.073689	-0.732952
H82	H	0.953463	0.018174	-0.623318
H83	H	0.899445	-0.035875	-0.623330
C84	C	0.436224	0.034584	0.143375
C85	C	0.470068	0.095204	0.139329
H86	H	0.411519	0.034228	0.188417
H87	H	0.470080	-0.005697	0.140614
H88	H	0.404113	0.034117	0.103842
H89	H	0.502183	0.095668	0.178859
H90	H	0.436209	0.135495	0.142097
C91	C	0.887594	-0.049619	-0.858194
C92	C	0.924484	-0.006869	-0.814111
H93	H	0.919918	-0.081919	-0.884193
H94	H	0.859240	-0.021278	-0.891985
H95	H	0.858613	-0.074663	-0.828298
H96	H	0.953461	0.018179	-0.844008
H97	H	0.952850	-0.035214	-0.780317
C98	C	0.250501	0.091947	-0.125333
C99	C	0.178893	0.090882	-0.139349
H100	H	0.275203	0.092313	-0.170376
H101	H	0.267885	0.051422	-0.098069
H102	H	0.256979	0.132835	-0.098056
H103	H	0.172415	0.049992	-0.166621
H104	H	0.161504	0.131411	-0.166624
H105	H	0.480423	0.095326	-0.120432
H106	H	0.738109	0.179391	-0.803193
C107	C	0.575605	0.096769	0.197587
C108	C	0.622938	0.097452	0.139329
H109	H	0.600318	0.097145	0.242630
H110	H	0.552650	0.055648	0.194826
H111	H	0.541752	0.137060	0.194820
H112	H	0.656788	0.057159	0.142093
H113	H	0.645905	0.138578	0.142092
H114	H	0.738099	0.179391	-0.664145
C115	C	0.035635	0.148922	0.179522
C116	C	0.026061	0.088655	0.139323
H117	H	0.010940	0.148554	0.224569
H118	H	0.018240	0.189442	0.152258
H119	H	0.084220	0.149635	0.189011
H120	H	-0.022524	0.087944	0.129829
H121	H	0.043453	0.048124	0.166594
C122	C	0.648221	-0.664770	-0.062566
C123	C	0.686503	-0.687515	0.000024
H124	H	0.604673	-0.683695	-0.062557
H125	H	0.674182	-0.680219	-0.105020
H126	H	0.639836	-0.614970	-0.062563
H127	H	0.694892	-0.737316	0.000018
H128	H	0.660536	-0.672070	0.042489
H129	H	0.036409	0.088774	-0.120441
H130	H	0.612537	0.097273	-0.120428
H131	H	0.706738	-0.547459	0.000010
H132	H	0.942227	-0.266463	-0.000031
C133	C	0.992465	-0.710814	0.062591
C134	C	0.953661	-0.723279	0.000007
H135	H	1.035286	-0.741298	0.062583
H136	H	0.966156	-0.719242	0.105049
H137	H	1.002280	-0.663449	0.062575
H138	H	0.943842	-0.770643	0.000025
H139	H	0.979976	-0.714856	-0.042462
C140	C	0.914396	0.003185	-0.422170
C141	C	0.924448	-0.006870	-0.346806
H142	H	0.946717	-0.029111	-0.448176
H143	H	0.921830	0.049763	-0.434708
H144	H	0.867825	-0.004289	-0.434736
H145	H	0.971018	0.000610	-0.334238
H146	H	0.917020	-0.053458	-0.334262
H147	H	0.937631	-0.578365	-0.000012
H148	H	0.910867	0.006687	-0.196834
H149	H	0.738070	0.179379	-0.335881
C150	C	0.688563	-0.284848	0.062579
C151	C	0.693052	-0.243507	-0.000014
H152	H	0.645019	-0.303781	0.062579
H153	H	0.691630	-0.256784	0.105031
H154	H	0.725990	-0.322025	0.062568
H155	H	0.655628	-0.206327	-0.000001
H156	H	0.689978	-0.271572	-0.042477
C157	C	0.638753	-0.130496	-0.000015
C158	C	0.695303	-0.090636	-0.000021
H159	H	0.595937	-0.100006	-0.000021
H160	H	0.640987	-0.159239	0.042447
H161	H	0.640980	-0.159269	-0.042475
H162	H	0.693080	-0.061867	0.042442
H163	H	0.693069	-0.061881	-0.042488
C164	C	0.682687	0.234719	-0.235727
C165	C	0.724483	0.192941	-0.185907
H166	H	0.650373	0.267020	-0.209720
H167	H	0.657666	0.205717	-0.265630
H168	H	0.711680	0.259760	-0.265612
H169	H	0.695491	0.167895	-0.156026
H170	H	0.749506	0.221946	-0.155992
