data_functionalizedCrystal
_audit_creation_method	'MofGen! by Chris Wilmer'
_symmetry_space_group_name_H-M	'P1'
_symmetry_Int_Tables_number	1
_symmetry_cell_setting	triclinic
loop_
_symmetry_equiv_pos_as_xyz
  x,y,z
_cell_length_a	23.532407
_cell_length_b	16.109301
_cell_length_c	15.186229
_cell_angle_alpha	90.000638
_cell_angle_beta	89.991614
_cell_angle_gamma	96.844921
loop_
_atom_site_label
_atom_site_type_symbol
_atom_site_fract_x
_atom_site_fract_y
_atom_site_fract_z
O1	O	0.073202	-1.102555	-0.073182
O2	O	0.082312	-0.860421	-0.073197
O3	O	-0.005148	-0.988790	-0.073173
O4	O	0.160662	-0.974187	-0.073206
O5	O	-0.005149	-0.988781	0.073284
O6	O	0.082311	-0.860413	0.073260
O7	O	0.073201	-1.102547	0.073275
Zn8	Zn	0.077755	-0.981478	0.096521
Zn9	Zn	0.077757	-0.981490	-0.096443
O10	O	0.160660	-0.974178	0.073251
C11	C	0.081942	-0.829445	0.000030
C12	C	0.080836	-0.737159	0.000025
C13	C	-0.026366	-0.988414	0.000058
C14	C	-0.089587	-0.987296	0.000064
C15	C	0.073570	-1.133523	0.000046
C16	C	0.074677	-1.225809	0.000046
C17	C	-0.488436	-1.056249	0.000021
C18	C	-0.547840	-1.055210	0.000014
O19	O	-0.584349	-1.119130	-0.000015
N20	N	-0.570748	-0.978895	0.000010
C21	C	-0.534248	-0.903614	0.000003
O22	O	-0.559187	-0.838607	-0.000002
C23	C	-0.474845	-0.904654	0.000004
C24	C	-0.451941	-0.980973	0.000017
C25	C	-0.465531	-1.132562	0.000033
C26	C	-0.406131	-1.133601	0.000041
C27	C	-0.369636	-1.058325	0.000037
C28	C	-0.392541	-0.982012	0.000025
C29	C	-0.438346	-0.829373	-0.000009
C30	C	-0.378940	-0.830419	-0.000009
C31	C	-0.356036	-0.906739	0.000004
C32	C	-0.296645	-0.907774	0.000030
N33	N	-0.273738	-0.984089	0.000034
C34	C	-0.310233	-1.059365	0.000038
C35	C	-0.658998	-0.901437	0.000001
C36	C	-0.718400	-0.900396	0.000007
C37	C	-0.731988	-1.051993	0.000016
C38	C	-0.672585	-1.053032	0.000016
C39	C	-0.636091	-0.977752	0.000005
C40	C	-0.185488	-1.061539	0.000056
C41	C	-0.126082	-1.062571	0.000068
C42	C	-0.112499	-0.910975	0.000055
C43	C	-0.171900	-0.909943	0.000047
C44	C	-0.208394	-0.985232	0.000045
O45	O	-0.260102	-0.843888	0.000055
O46	O	-0.285285	-1.124361	0.000031
C47	C	0.181878	-0.974554	0.000018
C48	C	0.245100	-0.975672	0.000006
N49	N	0.077754	-0.981477	0.228214
C50	C	0.130160	-0.514498	0.000025
C51	C	0.129116	-0.427786	0.000031
C52	C	0.025348	-0.448476	0.000048
C53	C	0.026393	-0.535187	0.000048
C54	C	0.078801	-0.568195	0.000032
C55	C	0.076712	-0.394773	0.000038
C56	C	0.075580	-0.300755	0.000044
C57	C	0.079933	-0.662218	0.000028
N58	N	0.077754	-0.981498	-0.228136
C59	C	0.039040	-1.038337	0.453947
C60	C	0.039039	-1.038340	0.546137
C61	C	0.116470	-0.924631	0.546124
C62	C	0.116468	-0.924625	0.453936
C63	C	0.077754	-0.981483	0.407850
C64	C	0.077754	-0.981492	0.592228
C65	C	0.077753	-0.981494	0.692184
C66	C	0.077754	-0.981480	0.307888
H67	H	-0.215195	-1.122847	0.000051
N68	N	-0.741802	-0.822445	0.000013
N69	N	-0.773441	-0.804947	0.061743
H70	H	-0.789968	-0.749892	0.061745
N71	N	-0.341670	-0.753511	-0.000031
N72	N	-0.362134	-0.685381	-0.000048
H73	H	-0.335814	-0.631064	-0.000064
N74	N	0.156016	-0.866535	0.406857
N75	N	0.190581	-0.815777	0.448013
H76	H	0.218509	-0.774750	0.414764
N77	N	-0.000542	-1.096369	0.406884
N78	N	-0.035129	-1.147094	0.448058
H79	H	-0.063099	-1.188061	0.414822
H80	H	-0.107437	-1.124722	0.000081
H81	H	0.147991	-0.878340	0.583657
N82	N	-0.000519	-1.096406	0.593215
N83	N	-0.053157	-1.095694	0.582918
H84	H	-0.081099	-1.136704	0.616164
N85	N	-0.382741	-1.211561	0.000061
N86	N	-0.393938	-1.262194	0.061798
H87	H	-0.377422	-1.317258	0.061811
N88	N	-0.502795	-1.209470	0.000050
N89	N	-0.500703	-1.260325	0.061795
H90	H	-0.527017	-1.314647	0.061814
N91	N	-0.649201	-1.130998	0.000033
N92	N	-0.681800	-1.198198	0.000043
H93	H	-0.665288	-1.253266	0.000056
H94	H	-0.629287	-0.840130	-0.000001
H95	H	-0.456984	-0.767225	-0.000025
N96	N	-0.769282	-1.128880	0.000024
N97	N	-0.822318	-1.127932	0.000023
H98	H	-0.848658	-1.182230	0.000031
H99	H	-0.190549	-0.847797	0.000061
N100	N	0.181574	-0.372925	0.000019
N101	N	0.180637	-0.295506	0.000026
H102	H	0.217687	-0.256758	0.000021
N103	N	0.183686	-0.548231	0.000010
N104	N	0.195849	-0.594309	-0.061726
H105	H	0.233653	-0.618132	-0.061735
H106	H	-0.017320	-0.421590	0.000066
N107	N	-0.026078	-0.590032	0.000065
N108	N	-0.072866	-0.560552	0.000075
H109	H	-0.109923	-0.599285	0.000090
N110	N	-0.075204	-0.834096	0.000038
N111	N	-0.040534	-0.817788	-0.061701
H112	H	-0.014191	-0.763492	-0.061720
