data_functionalizedCrystal
_audit_creation_method	'MofGen! by Chris Wilmer'
_symmetry_space_group_name_H-M	'P1'
_symmetry_Int_Tables_number	1
_symmetry_cell_setting	triclinic
loop_
_symmetry_equiv_pos_as_xyz
  x,y,z
_cell_length_a	10.654550
_cell_length_b	11.026607
_cell_length_c	9.130313
_cell_angle_alpha	90.000037
_cell_angle_beta	89.996220
_cell_angle_gamma	96.535460
loop_
_atom_site_label
_atom_site_type_symbol
_atom_site_fract_x
_atom_site_fract_y
_atom_site_fract_z
O1	O	1.704901	0.170762	-0.121918
O2	O	1.342954	0.187032	-0.121895
O3	O	1.493930	0.001991	-0.121899
O4	O	1.553926	0.355802	-0.121914
O5	O	1.493929	0.001996	0.121700
O6	O	1.342953	0.187037	0.121704
O7	O	1.704900	0.170767	0.121681
Cu8	Cu	1.523927	0.178902	0.143935
Cu9	Cu	1.523928	0.178896	-0.144149
O10	O	1.553924	0.355807	0.121685
C11	C	1.295897	0.185839	-0.000092
C12	C	1.155677	0.182265	-0.000083
C13	C	1.099841	0.291214	-0.000109
C14	C	0.968090	0.287849	-0.000134
C15	C	0.948022	0.066576	-0.000114
C16	C	1.079771	0.069943	-0.000078
C17	C	1.111426	0.418964	-0.000127
C18	C	0.979675	0.415599	-0.000152
C19	C	1.482861	-0.043310	-0.000101
C20	C	1.449867	-0.178302	-0.000104
C21	C	1.540970	-0.251341	-0.000112
C22	C	1.506871	-0.390862	-0.000115
C23	C	1.751958	0.171959	-0.000125
C24	C	1.892177	0.175533	-0.000144
C25	C	1.564993	0.401109	-0.000116
C26	C	1.597988	0.536100	-0.000123
N27	N	1.523934	0.178906	0.346558
N28	N	1.523928	0.178883	-0.346771
C29	C	1.590814	0.096998	0.423208
C30	C	1.590808	0.096983	0.576544
C31	C	1.457040	0.260795	0.576568
C32	C	1.457040	0.260803	0.423234
C33	C	1.668049	0.002426	0.423195
C34	C	1.668043	0.002411	0.576532
H35	H	0.886203	-0.024874	-0.000132
C36	C	1.737472	-0.408855	-0.000134
C37	C	1.825120	-0.437337	-0.126637
C38	C	1.964601	-0.382291	-0.126650
C39	C	2.016435	-0.298763	-0.000159
C40	C	1.928786	-0.270277	0.126354
C41	C	1.789305	-0.325323	0.126367
H42	H	1.786751	-0.499174	-0.220282
H43	H	2.029484	-0.403379	-0.220304
H44	H	2.119687	-0.258015	-0.000169
H45	H	1.967155	-0.208440	0.219998
H46	H	1.724421	-0.304235	0.220021
H47	H	1.402568	0.327488	0.360827
C48	C	1.165715	0.486460	0.137594
C49	C	1.076367	0.537466	0.248592
C50	C	1.130656	0.604959	0.386310
C51	C	1.274293	0.621445	0.413029
C52	C	1.363651	0.570438	0.302028
C53	C	1.309362	0.502946	0.164311
H54	H	0.970030	0.525262	0.228816
H55	H	1.064507	0.642717	0.468480
H56	H	1.314481	0.671407	0.514976
H57	H	1.469988	0.582642	0.321805
H58	H	1.375511	0.465187	0.082140
H59	H	0.942384	0.454209	0.105015
C60	C	1.141196	-0.049900	-0.000031
C61	C	1.229048	-0.078029	-0.126489
C62	C	1.290474	-0.197877	-0.126438
C63	C	1.264049	-0.289595	0.000071
C64	C	1.176193	-0.261468	0.126538
C65	C	1.114766	-0.141621	0.126487
H66	H	1.248613	-0.010132	-0.220146
H67	H	1.355511	-0.218698	-0.220058
H68	H	1.309520	-0.378313	0.000108
H69	H	1.156627	-0.329365	0.220196
H70	H	1.049729	-0.120800	0.220108
H71	H	1.346625	-0.219062	-0.000107
C72	C	1.804527	0.030575	0.632746
C73	C	1.840964	0.143360	0.729718
C74	C	1.977442	0.171535	0.785926
C75	C	2.077483	0.086925	0.745161
C76	C	2.041049	-0.025867	0.648184
C77	C	1.904570	-0.054042	0.591976
H78	H	1.766905	0.206000	0.759899
H79	H	2.004413	0.255032	0.857715
H80	H	2.178513	0.107782	0.786770
H81	H	2.115107	-0.088507	0.618003
H82	H	1.877599	-0.137538	0.520187
H83	H	1.402575	0.327472	0.639014
C84	C	1.799914	0.042424	0.358927
C85	C	1.863863	-0.045016	0.259260
C86	C	1.995727	-0.005013	0.194993
C87	C	2.063643	0.122430	0.230393
C88	C	1.999694	0.209878	0.330065
C89	C	1.867829	0.169875	0.394332
H90	H	1.813587	-0.139364	0.233051
H91	H	2.043066	-0.069748	0.121209
H92	H	2.161257	0.152042	0.182819
H93	H	2.049969	0.304226	0.356275
H94	H	1.820491	0.234610	0.468116
H95	H	1.155912	0.459640	-0.105300
C96	C	1.600955	-0.116903	0.640771
C97	C	1.673955	-0.197120	0.740394
C98	C	1.606876	-0.316437	0.804627
C99	C	1.466797	-0.355538	0.769235
C100	C	1.393788	-0.275320	0.669606
C101	C	1.460867	-0.156002	0.605374
H102	H	1.777657	-0.168177	0.766598
H103	H	1.660922	-0.375820	0.878379
H104	H	1.417141	-0.443864	0.816784
H105	H	1.290086	-0.304263	0.643402
H106	H	1.406821	-0.096620	0.531622
H107	H	0.948391	0.463731	-0.102107
H108	H	1.626321	-0.091025	0.381581
H109	H	1.644212	-0.210581	-0.000109
H110	H	1.403623	-0.431617	-0.000118
