data_functionalizedCrystal
_audit_creation_method	'MofGen! by Chris Wilmer'
_symmetry_space_group_name_H-M	'P1'
_symmetry_Int_Tables_number	1
_symmetry_cell_setting	triclinic
loop_
_symmetry_equiv_pos_as_xyz
  x,y,z
_cell_length_a	18.627276
_cell_length_b	18.627284
_cell_length_c	18.627245
_cell_angle_alpha	59.996087
_cell_angle_beta	90.004359
_cell_angle_gamma	120.000068
loop_
_atom_site_label
_atom_site_type_symbol
_atom_site_fract_x
_atom_site_fract_y
_atom_site_fract_z
O1	O	-0.611880	-0.633233	1.125709
O2	O	-0.507484	-0.486225	0.874305
O3	O	-0.507483	-0.633233	1.021313
O4	O	-0.611881	-0.486225	0.978701
O5	O	-0.388083	-0.513832	1.021316
O6	O	-0.388084	-0.366825	0.874308
O7	O	-0.492479	-0.513832	1.125711
Cu8	Cu	-0.429379	-0.429426	1.000010
Cu9	Cu	-0.570584	-0.570631	1.000007
O10	O	-0.492480	-0.366825	0.978704
C11	C	-0.612987	-0.356033	0.969015
C12	C	-0.568684	-0.406426	0.975106
C13	C	-0.569583	-0.269028	0.968409
C14	C	-0.742991	-0.356040	0.969024
C15	C	-0.837688	-0.406440	0.975124
C16	C	-0.699390	-0.269035	0.968419
C17	C	-0.612990	-0.226038	0.969022
C18	C	-0.568690	-0.137439	0.975121
C19	C	-0.699387	-0.398833	0.968411
O20	O	-1.125689	-0.633247	1.021332
O21	O	-0.874290	-0.486241	0.978721
O22	O	-1.021278	-0.633251	1.125728
O23	O	-0.978701	-0.486237	0.874325
O24	O	-1.021279	-0.513853	1.125735
O25	O	-0.874291	-0.366842	0.978728
O26	O	-1.125690	-0.513849	1.021338
Cu27	Cu	-0.999990	-0.429444	1.000034
Cu28	Cu	-0.999989	-0.570646	1.000026
O29	O	-0.978702	-0.366839	0.874331
C30	C	-0.386976	-0.356038	0.613012
C31	C	-0.431276	-0.406437	0.568713
C32	C	-0.300577	-0.269035	0.569611
C33	C	-0.386979	-0.356033	0.743011
C34	C	-0.431282	-0.406426	0.837706
C35	C	-0.300580	-0.269030	0.699412
C36	C	-0.256977	-0.226040	0.613016
C37	C	-0.162280	-0.137443	0.568720
C38	C	-0.430382	-0.398831	0.699408
C39	C	-0.256986	-0.644041	1.031025
C40	C	-0.162291	-0.593647	1.024932
C41	C	-0.300589	-0.731048	1.031633
C42	C	-0.386984	-0.644035	1.031017
C43	C	-0.431282	-0.593634	1.024915
C44	C	-0.430389	-0.731041	1.031624
C45	C	-0.386987	-0.774039	1.031021
C46	C	-0.431288	-0.862640	1.024925
C47	C	-0.300586	-0.601241	1.031628
O48	O	-0.507493	0.104353	1.021331
O49	O	-0.611891	-0.104441	0.978725
O50	O	-0.611880	-0.104451	1.125730
O51	O	-0.507504	0.104364	0.874326
O52	O	-0.492474	-0.104443	1.125722
O53	O	-0.492485	-0.104433	0.978717
O54	O	-0.388087	0.104361	1.021323
Cu55	Cu	-0.429383	-0.000035	1.000019
Cu56	Cu	-0.570595	-0.000045	1.000029
O57	O	-0.388098	0.104372	0.874318
O58	O	0.125718	0.104347	0.507536
O59	O	-0.125680	-0.104440	0.611920
O60	O	0.021311	-0.104457	0.611946
O61	O	-0.021273	0.104365	0.507509
O62	O	0.021314	-0.104461	0.492546
O63	O	-0.125676	-0.104444	0.492520
O64	O	0.125721	0.104343	0.388136
Cu65	Cu	0.000023	-0.000051	0.429426
Cu66	Cu	0.000019	-0.000046	0.570630
O67	O	-0.021270	0.104360	0.388109
O68	O	-0.492475	-0.513848	0.388120
O69	O	-0.388075	-0.366840	0.492513
O70	O	-0.388083	-0.513855	0.492536
O71	O	-0.492467	-0.366833	0.388097
O72	O	-0.507487	-0.633250	0.611933
O73	O	-0.507479	-0.486235	0.611910
O74	O	-0.611879	-0.633243	0.507517
Cu75	Cu	-0.570581	-0.570641	0.570615
Cu76	Cu	-0.429373	-0.429442	0.429414
O77	O	-0.611871	-0.486228	0.507494
C78	C	-0.742977	-0.774038	1.387010
C79	C	-0.837673	-0.862639	1.431308
C80	C	-0.699376	-0.731046	1.430416
C81	C	-0.612980	-0.644034	1.257010
C82	C	-0.568681	-0.593634	1.162312
C83	C	-0.569575	-0.601239	1.300614
C84	C	-0.612978	-0.644039	1.387014
C85	C	-0.568678	-0.593645	1.431316
C86	C	-0.699377	-0.731041	1.300610
C87	C	-1.030979	-0.644074	1.387043
C88	C	-1.024937	-0.593711	1.431361
C89	C	-1.031518	-0.731038	1.430428
C90	C	-1.030946	-0.644045	1.257028
C91	C	-1.024869	-0.593652	1.162333
C92	C	-1.031485	-0.731010	1.300611
C93	C	-1.030860	-0.773996	1.387007
C94	C	-1.024690	-0.862547	1.431286
C95	C	-1.031604	-0.601284	1.300647
C96	C	-0.969032	-0.226023	0.613031
C97	C	-0.975133	-0.137423	0.568736
C98	C	-0.968428	-0.269012	0.569621
C99	C	-0.969019	-0.356031	0.743027
C100	C	-0.975106	-0.406435	0.837726
C101	C	-0.968415	-0.398821	0.699420
C102	C	-0.969031	-0.356018	0.613020
C103	C	-0.975131	-0.406408	0.568714
C104	C	-0.968416	-0.269024	0.699431
C105	C	-0.612958	-0.356064	1.387027
C106	C	-0.568652	-0.406461	1.431325
C107	C	-0.699355	-0.398867	1.430435
C108	C	-0.612969	-0.226059	1.257027
C109	C	-0.568676	-0.137453	1.162328
C110	C	-0.699366	-0.269059	1.300632
C111	C	-0.742961	-0.356070	1.387032
C112	C	-0.837656	-0.406472	1.431336
C113	C	-0.569560	-0.269053	1.300627
O114	O	-0.978859	-0.486363	1.611995
O115	O	-1.021319	-0.633300	1.507560
O116	O	-0.874380	-0.486236	1.507556
O117	O	-1.125799	-0.633427	1.612000
O118	O	-0.874460	-0.366881	1.388172
O119	O	-1.021399	-0.513945	1.388177
O120	O	-0.978939	-0.367008	1.492612
Cu121	Cu	-1.000176	-0.429578	1.429494
Cu122	Cu	-1.000082	-0.570729	1.570678
O123	O	-1.125879	-0.514072	1.492616
C124	C	-0.257023	0.355993	0.613012
C125	C	-0.162329	0.406397	0.568706
C126	C	-0.300633	0.398787	0.569613
C127	C	-0.387013	0.225979	0.743020
C128	C	-0.431303	0.137373	0.837719
C129	C	-0.430424	0.268971	0.699423
C130	C	-0.387029	0.355982	0.613023
C131	C	-0.431337	0.406376	0.568728
C132	C	-0.300616	0.268981	0.699412
H133	H	-0.498590	-0.233041	0.967421
H134	H	-1.032490	-0.767019	1.501419
H135	H	-0.734388	-0.767021	1.265604
H136	H	-0.734389	-0.468845	0.967434
C137	C	-0.967091	-0.493405	0.746706
N138	N	-0.966094	-0.564642	0.782320
H139	H	-1.032352	-0.766915	1.265564
H140	H	-0.734385	-0.767034	1.501406
H141	H	-0.501410	0.232981	0.734439
C142	C	-1.033009	-0.506756	1.253381
N143	N	-1.034072	-0.435563	1.217782
H144	H	-0.265601	0.233003	0.734411
H145	H	-0.265582	-0.767032	1.032616
H146	H	-0.501373	-0.468838	0.734407
H147	H	-0.967439	-0.233007	0.498625
C148	C	-0.473674	-0.506659	1.253326
N149	N	-0.401442	-0.435426	1.217711
H150	H	-0.734402	-0.233060	0.967448
C151	C	-0.746638	-0.493455	1.526338
N152	N	-0.782252	-0.564698	1.598570
C153	C	-0.253281	-0.220438	0.746714
N154	N	-0.217651	-0.183846	0.782343
C155	C	-0.253282	-0.220436	0.473715
N156	N	-0.217657	-0.183834	0.401490
C157	C	-0.967094	-0.220420	0.746728
N158	N	-0.966097	-0.183814	0.782352
C159	C	-0.746663	-0.220449	1.253342
N160	N	-0.782286	-0.183839	1.217725
H161	H	-0.501373	-0.767010	1.032586
H162	H	-0.265567	-0.531211	1.032578
C163	C	-0.473666	-0.220449	1.253326
N164	N	-0.401443	-0.183844	1.217698
C165	C	-0.253346	0.493374	0.473709
N166	N	-0.217730	0.564616	0.401477
