data_functionalizedCrystal
_audit_creation_method	'MofGen! by Chris Wilmer'
_symmetry_space_group_name_H-M	'P1'
_symmetry_Int_Tables_number	1
_symmetry_cell_setting	triclinic
loop_
_symmetry_equiv_pos_as_xyz
  x,y,z
_cell_length_a	13.897449
_cell_length_b	12.594516
_cell_length_c	12.594510
_cell_angle_alpha	90.031906
_cell_angle_beta	90.021319
_cell_angle_gamma	90.017332
loop_
_atom_site_label
_atom_site_type_symbol
_atom_site_fract_x
_atom_site_fract_y
_atom_site_fract_z
Zn1	Zn	1.474719	-0.423614	0.601833
Zn2	Zn	1.474616	-0.601642	0.423861
Zn3	Zn	1.313407	-0.423682	0.423867
Zn4	Zn	1.313395	-0.601555	0.601796
O5	O	1.394034	-0.512623	0.512839
O6	O	1.609687	-0.447238	0.578238
O7	O	1.453193	-0.578100	0.274916
O8	O	1.334853	-0.274727	0.447493
O9	O	1.609611	-0.578034	0.447483
O10	O	1.453369	-0.274677	0.578244
O11	O	1.334753	-0.447353	0.274920
O12	O	1.178423	-0.447269	0.447456
O13	O	1.334833	-0.577886	0.750747
O14	O	1.178415	-0.577951	0.578180
O15	O	1.453357	-0.447153	0.750774
O16	O	1.453182	-0.750576	0.447446
O17	O	1.334733	-0.750512	0.578174
C18	C	1.143420	-0.512609	0.512815
C19	C	1.036206	-0.512628	0.512830
C20	C	0.839911	-0.512632	0.512858
C21	C	0.949143	-0.512627	0.512839
C22	C	1.393971	-0.789164	0.512829
C23	C	1.394032	-0.907469	0.512860
C24	C	1.329602	-0.976726	0.583913
C25	C	1.306097	-1.047602	0.486790
C26	C	1.417624	-1.047393	0.609999
C27	C	1.370481	-0.976787	0.415686
C28	C	1.482049	-0.976571	0.538960
C29	C	1.458578	-1.047415	0.441771
C30	C	1.645627	-0.512638	0.512864
C31	C	1.752841	-0.512644	0.512875
C32	C	1.394105	-0.512502	0.790460
C33	C	1.394135	-0.512451	0.908766
C34	C	1.394124	-0.235002	0.512873
C35	C	1.394162	-0.116697	0.512887
C36	C	1.394019	-0.512667	0.236298
C37	C	1.394176	-0.512418	0.117993
C38	C	1.458624	-0.441324	1.048798
C39	C	1.482175	-0.538444	0.977980
C40	C	1.370627	-0.415341	0.978012
C41	C	1.417773	-0.609589	1.048734
C42	C	1.306184	-0.486421	1.048772
C43	C	1.329701	-0.583609	0.977986
H44	H	1.275017	-0.945687	0.643912
C45	C	1.256072	-0.664947	0.936207
N46	N	1.200626	-0.726217	0.904724
H47	H	1.556570	-0.560452	0.946881
C48	C	1.205616	-1.089752	0.456974
N49	N	1.129932	-1.121496	0.434523
C50	C	1.444782	-0.720547	1.090522
N51	N	1.465129	-0.804117	1.122001
C52	C	1.205710	-0.456645	1.090824
N53	N	1.130033	-0.434205	1.122501
H54	H	1.350728	-0.333232	0.946944
H55	H	1.513121	-1.078257	0.381626
C56	C	1.343474	-0.935064	0.304691
N57	N	1.323127	-0.903635	0.221092
C58	C	1.532331	-0.360187	1.090807
N59	N	1.587849	-0.299079	1.122450
H60	H	1.556406	-0.945351	0.561060
H61	H	1.437526	-1.078408	0.692138
