data_functionalizedCrystal
_audit_creation_method	'MofGen! by Chris Wilmer'
_symmetry_space_group_name_H-M	'P1'
_symmetry_Int_Tables_number	1
_symmetry_cell_setting	triclinic
loop_
_symmetry_equiv_pos_as_xyz
  x,y,z
_cell_length_a	18.215407
_cell_length_b	13.897447
_cell_length_c	18.215399
_cell_angle_alpha	89.974944
_cell_angle_beta	89.982632
_cell_angle_gamma	90.016973
loop_
_atom_site_label
_atom_site_type_symbol
_atom_site_fract_x
_atom_site_fract_y
_atom_site_fract_z
Zn1	Zn	1.125099	-0.384091	-0.416082
Zn2	Zn	1.125019	-0.545400	-0.293022
Zn3	Zn	1.002032	-0.384114	-0.293035
Zn4	Zn	1.002009	-0.545338	-0.416052
O5	O	1.063540	-0.464736	-0.354548
O6	O	1.228073	-0.405505	-0.399765
O7	O	1.108681	-0.524041	-0.190040
O8	O	1.018400	-0.249129	-0.309375
O9	O	1.228014	-0.524019	-0.309354
O10	O	1.108817	-0.249112	-0.399778
O11	O	1.018322	-0.405544	-0.190049
O12	O	0.899045	-0.405484	-0.309346
O13	O	1.018361	-0.523913	-0.519041
O14	O	0.899028	-0.523935	-0.399727
O15	O	1.108795	-0.405445	-0.519063
O16	O	1.108659	-0.680374	-0.309325
O17	O	1.018284	-0.680328	-0.399714
C18	C	0.872334	-0.464706	-0.354535
C19	C	0.790535	-0.464717	-0.354547
C20	C	1.063480	-0.715350	-0.354531
C21	C	1.063522	-0.822564	-0.354548
C22	C	0.602370	-0.403134	-0.401699
C23	C	0.525512	-0.403142	-0.401701
C24	C	0.525461	-0.526365	-0.307410
C25	C	0.602319	-0.526351	-0.307404
C26	C	0.640771	-0.464737	-0.354553
C27	C	0.487055	-0.464759	-0.354561
C28	C	0.403722	-0.464768	-0.354563
C29	C	0.724110	-0.464726	-0.354550
C30	C	1.063557	-0.909634	-0.354565
C31	C	1.063609	-1.018866	-0.354584
C32	C	1.255493	-0.464766	-0.354561
C33	C	1.337292	-0.464779	-0.354567
C34	C	1.063585	-0.464669	-0.546501
C35	C	1.063604	-0.464641	-0.628300
C36	C	1.063620	-0.213143	-0.354581
C37	C	1.063654	-0.105929	-0.354595
C38	C	1.110710	-0.402897	-0.816507
C39	C	1.110718	-0.402869	-0.893365
C40	C	1.016550	-0.526236	-0.893331
C41	C	1.016538	-0.526258	-0.816474
C42	C	1.063622	-0.464590	-0.778063
C43	C	1.063643	-0.464540	-0.931780
C44	C	1.063652	-0.464510	-1.015113
C45	C	1.063612	-0.464619	-0.694724
C46	C	1.063538	-0.464732	-0.163342
C47	C	1.063661	-0.464489	-0.081543
H48	H	0.494249	-0.352977	-0.440091
H49	H	1.149046	-0.352680	-0.785235
O50	O	0.970874	-0.586331	-0.779158
C51	C	0.935070	-0.750407	-0.755634
C52	C	0.986840	-0.682493	-0.797927
H53	H	0.947950	-0.828167	-0.770805
H54	H	0.943152	-0.739909	-0.694096
H55	H	0.875740	-0.733408	-0.770730
H56	H	1.046190	-0.699450	-0.782894
H57	H	0.978695	-0.693004	-0.859455
O58	O	0.488141	-0.586119	-0.261513
C59	C	0.464606	-0.632791	-0.136276
C60	C	0.506900	-0.565039	-0.188168
H61	H	0.479769	-0.615786	-0.076967
H62	H	0.403068	-0.622221	-0.144314
H63	H	0.479708	-0.710580	-0.149139
H64	H	0.491860	-0.487224	-0.175337
H65	H	0.568428	-0.575692	-0.180120
O66	O	0.639610	-0.343190	-0.447517
C67	C	0.631544	-0.221011	-0.541072
C68	C	0.589282	-0.288835	-0.489208
H69	H	0.590873	-0.177063	-0.574803
H70	H	0.667502	-0.170448	-0.507384
H71	H	0.667555	-0.265369	-0.579463
H72	H	0.553232	-0.244555	-0.450807
H73	H	0.553371	-0.339401	-0.522942
O74	O	0.639593	-0.586336	-0.261683
C75	C	0.663049	-0.750346	-0.225716
C76	C	0.620804	-0.682532	-0.277551
H77	H	0.647862	-0.828134	-0.238516
H78	H	0.724595	-0.739832	-0.233812
H79	H	0.647927	-0.733263	-0.166402
H80	H	0.635865	-0.699573	-0.336885
H81	H	0.559269	-0.693058	-0.269391
H82	H	1.149061	-0.352630	-0.924662
H83	H	0.978218	-0.576445	-0.924614
