data_functionalizedCrystal
_audit_creation_method	'MofGen! by Chris Wilmer'
_symmetry_space_group_name_H-M	'P1'
_symmetry_Int_Tables_number	1
_symmetry_cell_setting	triclinic
loop_
_symmetry_equiv_pos_as_xyz
  x,y,z
_cell_length_a	13.635800
_cell_length_b	11.164089
_cell_length_c	11.102300
_cell_angle_alpha	76.015589
_cell_angle_beta	108.605850
_cell_angle_gamma	109.526109
loop_
_atom_site_label
_atom_site_type_symbol
_atom_site_fract_x
_atom_site_fract_y
_atom_site_fract_z
V1	V	1.961968	-0.175839	0.396256
O2	O	2.039789	0.008450	0.388713
O3	O	1.858170	-0.348659	0.393545
O4	O	1.951802	-0.173134	0.569077
O5	O	1.945509	-0.168290	0.211966
V6	V	2.212278	-0.153796	0.374213
O7	O	2.073846	-0.224192	0.444607
O8	O	2.325498	-0.105443	0.325861
O9	O	2.204473	0.019025	0.376924
O10	O	2.193156	-0.338085	0.381755
O11	O	2.287435	-0.161344	0.558503
O12	O	2.110841	-0.156501	0.201392
V13	V	2.461968	-0.175839	0.396256
O14	O	2.539789	0.008450	0.388713
O15	O	2.358170	-0.348659	0.393545
O16	O	2.451802	-0.173134	0.569077
O17	O	2.445509	-0.168290	0.211966
V18	V	2.712278	-0.153796	0.374213
O19	O	2.573846	-0.224192	0.444607
O20	O	2.825498	-0.105443	0.325861
O21	O	2.704473	0.019025	0.376924
O22	O	2.693156	-0.338085	0.381755
O23	O	2.787435	-0.161344	0.558503
O24	O	2.610841	-0.156501	0.201392
C25	C	2.133458	0.061148	0.383172
C26	C	2.167208	0.202429	0.384245
C27	C	1.760852	-0.390789	0.387293
C28	C	1.716722	-0.532072	0.386229
C29	C	2.271861	0.275278	0.378403
C30	C	2.303561	0.408030	0.379389
C31	C	2.125944	0.395072	0.392066
C32	C	2.094244	0.262324	0.391070
C33	C	2.264341	0.609211	0.387293
C34	C	2.230608	0.467929	0.386227
C35	C	1.784540	-0.604920	0.392069
C36	C	1.743071	-0.737672	0.391079
C37	C	1.565960	-0.724713	0.378402
C38	C	1.607431	-0.591966	0.379402
C39	C	1.880289	-0.166888	0.611200
C40	C	1.912092	-0.165820	0.752482
C41	C	2.014023	-0.162751	0.159262
C42	C	1.971842	-0.163813	0.017978
C43	C	2.015652	-0.171665	0.825331
C44	C	2.045530	-0.170657	0.958080
C45	C	1.868273	-0.157963	0.945119
C46	C	1.838400	-0.158962	0.812372
C47	C	2.380289	-0.166888	0.611200
C48	C	2.412092	-0.165820	0.752482
C49	C	2.633458	0.061148	0.383172
C50	C	2.667208	0.202429	0.384245
C51	C	2.514023	-0.162751	0.159262
C52	C	2.471842	-0.163813	0.017978
C53	C	2.515652	-0.171665	0.825331
C54	C	2.545530	-0.170657	0.958080
C55	C	2.368273	-0.157963	0.945119
C56	C	2.338400	-0.158962	0.812372
H57	H	2.331274	0.226516	0.372842
H58	H	2.388777	0.467338	0.374629
H59	H	2.066545	0.443854	0.397625
H60	H	2.009020	0.203008	0.395828
H61	H	1.873529	-0.556159	0.397627
H62	H	2.075659	-0.177247	0.776573
H63	H	1.798300	-0.796980	0.395837
H64	H	1.476974	-0.773495	0.372841
H65	H	2.308280	-0.152383	0.993898
H66	H	1.552200	-0.532651	0.374650
H67	H	2.129857	-0.175416	1.017388
H68	H	1.808280	-0.152383	0.993898
H69	H	1.754068	-0.154192	0.753054
H70	H	2.575659	-0.177247	0.776573
H71	H	2.629857	-0.175416	1.017388
H72	H	2.254068	-0.154192	0.753054
