data_functionalizedCrystal
_audit_creation_method	'MofGen! by Chris Wilmer'
_symmetry_space_group_name_H-M	'P1'
_symmetry_Int_Tables_number	1
_symmetry_cell_setting	triclinic
loop_
_symmetry_equiv_pos_as_xyz
  x,y,z
_cell_length_a	18.215407
_cell_length_b	16.625545
_cell_length_c	18.215399
_cell_angle_alpha	89.973113
_cell_angle_beta	89.980167
_cell_angle_gamma	90.026006
loop_
_atom_site_label
_atom_site_type_symbol
_atom_site_fract_x
_atom_site_fract_y
_atom_site_fract_z
Zn1	Zn	1.125069	-0.321000	-0.416121
Zn2	Zn	1.625069	0.179000	0.083879
Zn3	Zn	1.124975	-0.455841	-0.293057
Zn4	Zn	1.624975	0.044159	0.206943
Zn5	Zn	1.002001	-0.321027	-0.293069
Zn6	Zn	1.502001	0.178973	0.206931
Zn7	Zn	1.001966	-0.455796	-0.416082
Zn8	Zn	1.501966	0.044204	0.083918
O9	O	1.063503	-0.388416	-0.354582
O10	O	1.563503	0.111584	0.145418
O11	O	1.228040	-0.338895	-0.399808
O12	O	1.728040	0.161105	0.100192
O13	O	1.108639	-0.437987	-0.190074
O14	O	1.608639	0.062013	0.309926
O15	O	1.018380	-0.208191	-0.309413
O16	O	1.518380	0.291809	0.190587
O17	O	1.227972	-0.437961	-0.309394
O18	O	1.727972	0.062039	0.190606
O19	O	1.108797	-0.208171	-0.399819
O20	O	1.608797	0.291829	0.100181
O21	O	1.018290	-0.338940	-0.190083
O22	O	1.518290	0.161060	0.309917
O23	O	0.899012	-0.338896	-0.309375
O24	O	1.399012	0.161104	0.190625
O25	O	1.018319	-0.437885	-0.519072
O26	O	1.518319	0.062115	-0.019072
O27	O	0.898986	-0.437910	-0.399753
O28	O	1.398986	0.062090	0.100247
O29	O	1.108763	-0.338851	-0.519100
O30	O	1.608763	0.161149	-0.019100
O31	O	1.108604	-0.568667	-0.309356
O32	O	1.608604	-0.068667	0.190644
O33	O	1.018229	-0.568634	-0.399742
O34	O	1.518229	-0.068634	0.100258
C35	C	0.872296	-0.388402	-0.354561
C36	C	1.372296	0.111598	0.145439
C37	C	0.790497	-0.388415	-0.354570
C38	C	1.290497	0.111585	0.145430
C39	C	0.602309	-0.440053	-0.401570
C40	C	1.102309	0.059947	0.098430
C41	C	0.525450	-0.440056	-0.401579
C42	C	1.025450	0.059944	0.098421
C43	C	0.525448	-0.336793	-0.307611
C44	C	1.025448	0.163207	0.192389
C45	C	0.602305	-0.336787	-0.307606
C46	C	1.102305	0.163213	0.192394
C47	C	0.640734	-0.388422	-0.354584
C48	C	1.140734	0.111578	0.145416
C49	C	0.487018	-0.388430	-0.354598
C50	C	0.987018	0.111570	0.145402
C51	C	0.403684	-0.388433	-0.354608
C52	C	0.903684	0.111567	0.145392
C53	C	0.724073	-0.388418	-0.354576
C54	C	1.224073	0.111582	0.145424
C55	C	1.063423	-0.597907	-0.354559
C56	C	1.563423	-0.097907	0.145441
C57	C	1.063456	-0.687528	-0.354574
C58	C	1.563456	-0.187528	0.145426
C59	C	1.063484	-0.760310	-0.354589
C60	C	1.563484	-0.260310	0.145411
C61	C	1.063527	-0.851619	-0.354605
C62	C	1.563527	-0.351619	0.145395
C63	C	1.063565	-0.924395	-0.354614
C64	C	1.563565	-0.424395	0.145386
C65	C	1.063608	-1.015709	-0.354629
C66	C	1.563608	-0.515709	0.145371
C67	C	1.255456	-0.388430	-0.354604
C68	C	1.755456	0.111570	0.145396
C69	C	1.337254	-0.388436	-0.354613
C70	C	1.837254	0.111564	0.145387
C71	C	1.063547	-0.388360	-0.546535
C72	C	1.563547	0.111640	-0.046535
C73	C	1.063567	-0.388336	-0.628334
C74	C	1.563567	0.111664	-0.128334
C75	C	1.063603	-0.178107	-0.354622
C76	C	1.563603	0.321893	0.145378
C77	C	1.063646	-0.088486	-0.354639
C78	C	1.563646	0.411514	0.145361
C79	C	1.110677	-0.336721	-0.816544
C80	C	1.610677	0.163279	-0.316544
C81	C	1.110686	-0.336698	-0.893403
C82	C	1.610686	0.163302	-0.393403
C83	C	1.016508	-0.439827	-0.893362
C84	C	1.516508	0.060173	-0.393362
C85	C	1.016496	-0.439846	-0.816505
C86	C	1.516496	0.060154	-0.316505
C87	C	1.063585	-0.388294	-0.778098
C88	C	1.563585	0.111706	-0.278098
C89	C	1.063606	-0.388252	-0.931814
C90	C	1.563606	0.111748	-0.431814
C91	C	1.063615	-0.388227	-1.015148
C92	C	1.563615	0.111773	-0.515148
C93	C	1.063575	-0.388318	-0.694759
C94	C	1.563575	0.111682	-0.194759
C95	C	1.063500	-0.388413	-0.163376
C96	C	1.563500	0.111587	0.336624
C97	C	1.063624	-0.388210	-0.081578
C98	C	1.563624	0.111790	0.418422
H99	H	0.633595	-0.482096	-0.439825
H100	H	1.133595	0.017904	0.060175
H101	H	0.978171	-0.481800	-0.924642
H102	H	1.478171	0.018200	-0.424642
Br103	Br	0.952573	-0.509835	-0.764322
Br104	Br	1.452573	-0.009835	-0.264322
H105	H	0.494168	-0.482098	-0.439841
H106	H	0.994168	0.017902	0.060159
Br107	Br	0.473291	-0.266721	-0.243857
Br108	Br	0.973291	0.233279	0.256143
Br109	Br	0.654458	-0.266702	-0.243842
Br110	Br	1.154458	0.233298	0.256158
H111	H	1.149018	-0.294743	-0.785276
H112	H	1.649018	0.205257	-0.285276
Br113	Br	1.174606	-0.266709	-0.945578
Br114	Br	1.674606	0.233291	-0.445578
