data_functionalizedCrystal
_audit_creation_method	'MofGen! by Chris Wilmer'
_symmetry_space_group_name_H-M	'P1'
_symmetry_Int_Tables_number	1
_symmetry_cell_setting	triclinic
loop_
_symmetry_equiv_pos_as_xyz
  x,y,z
_cell_length_a	12.759401
_cell_length_b	12.759400
_cell_length_c	12.759393
_cell_angle_alpha	89.970185
_cell_angle_beta	90.019027
_cell_angle_gamma	89.987670
loop_
_atom_site_label
_atom_site_type_symbol
_atom_site_fract_x
_atom_site_fract_y
_atom_site_fract_z
Zn1	Zn	-1.606254	-0.418277	-0.594007
Zn2	Zn	-1.606151	-0.593992	-0.418329
Zn3	Zn	-1.430557	-0.418321	-0.418344
Zn4	Zn	-1.430546	-0.593908	-0.593968
O5	O	-1.518377	-0.506124	-0.506162
O6	O	-1.753262	-0.441602	-0.570713
O7	O	-1.582819	-0.570742	-0.271310
O8	O	-1.453912	-0.271294	-0.441669
O9	O	-1.753185	-0.570699	-0.441643
O10	O	-1.582996	-0.271262	-0.570728
O11	O	-1.453811	-0.441677	-0.271321
O12	O	-1.283535	-0.441596	-0.441631
O13	O	-1.453893	-0.570557	-0.740994
O14	O	-1.283526	-0.570599	-0.570661
O15	O	-1.582985	-0.441521	-0.741023
O16	O	-1.582808	-0.741002	-0.441604
O17	O	-1.453792	-0.740940	-0.570646
C18	C	-1.245410	-0.506094	-0.506144
C19	C	-1.128633	-0.506107	-0.506161
C20	C	-1.073794	-0.573384	-0.573235
C21	C	-0.964070	-0.573393	-0.573245
C22	C	-0.964033	-0.438844	-0.439098
C23	C	-1.073756	-0.438831	-0.439094
C24	C	-1.128672	-0.640660	-0.640302
C25	C	-1.073833	-0.707943	-0.707380
C26	C	-0.964109	-0.707952	-0.707390
C27	C	-0.909224	-0.640678	-0.640321
C28	C	-1.518316	-0.779092	-0.506142
C29	C	-1.518386	-0.895868	-0.506169
C30	C	-0.792410	-0.506145	-0.506177
C31	C	-0.909187	-0.506129	-0.506174
C32	C	-1.585625	-1.060354	-0.573460
C33	C	-1.585568	-0.950630	-0.573430
C34	C	-1.451264	-0.950836	-0.438924
C35	C	-1.451326	-1.060558	-0.438950
C36	C	-1.652804	-1.115110	-0.640734
C37	C	-1.719928	-1.060149	-0.707977
C38	C	-1.719871	-0.950425	-0.707947
C39	C	-1.652690	-0.895662	-0.640674
C40	C	-1.518449	-0.506025	-0.780195
C41	C	-1.518480	-0.505982	-0.896972
C42	C	-1.518467	-0.232091	-0.506205
C43	C	-1.518505	-0.115314	-0.506223
C44	C	-1.585693	-0.573110	-1.061557
C45	C	-1.585661	-0.573157	-0.951833
C46	C	-1.451318	-0.438763	-0.951841
C47	C	-1.451345	-0.438722	-1.061563
C48	C	-1.652886	-0.640282	-1.116412
C49	C	-1.720046	-0.707503	-1.061551
C50	C	-1.720015	-0.707550	-0.951827
C51	C	-1.652823	-0.640376	-0.896964
C52	C	-1.518366	-0.506148	-0.233195
C53	C	-1.518538	-0.505894	-0.116418
H54	H	-0.919337	-0.384074	-0.384493
H55	H	-1.652854	-1.204452	-0.640768
H56	H	-1.396615	-0.384073	-0.907163
C57	C	-1.134081	-0.364824	-0.365310
C58	C	-1.209482	-0.410233	-0.282745
C59	C	-1.269805	-0.336218	-0.208963
C60	C	-1.254727	-0.216796	-0.217748
C61	C	-1.179322	-0.171381	-0.300317
C62	C	-1.118999	-0.245395	-0.374098
H63	H	-1.220647	-0.498642	-0.276239
H64	H	-1.325625	-0.369838	-0.147840
H65	H	-1.299381	-0.162006	-0.163130
H66	H	-1.168157	-0.082972	-0.306823
H67	H	-1.063179	-0.211776	-0.435221
H68	H	-1.774629	-1.104745	-0.762741
C69	C	-0.903784	-0.781957	-0.781177
C70	C	-0.964151	-0.855952	-0.854945
C71	C	-0.903829	-0.929963	-0.928731
C72	C	-0.783139	-0.929978	-0.928747
C73	C	-0.722765	-0.855980	-0.854976
C74	C	-0.783087	-0.781969	-0.781190
H75	H	-1.053499	-0.855943	-0.854936
H76	H	-0.948523	-0.984741	-0.983342
H77	H	-0.738485	-0.984765	-0.983368
H78	H	-0.633417	-0.855988	-0.854985
H79	H	-0.738393	-0.727191	-0.726580
H80	H	-1.652921	-0.640249	-1.205755
H81	H	-1.218014	-0.640662	-0.640299
C82	C	-1.377360	-0.890600	-0.364938
C83	C	-1.377284	-0.769910	-0.364915
C84	C	-1.303374	-0.709675	-0.290931
C85	C	-1.229540	-0.770130	-0.216971
C86	C	-1.229614	-0.890826	-0.216992
C87	C	-1.303523	-0.951061	-0.290976
H88	H	-1.431942	-0.725152	-0.419667
H89	H	-1.303321	-0.620327	-0.290916
H90	H	-1.174828	-0.725540	-0.162204
H91	H	-1.174955	-0.935585	-0.162240
H92	H	-1.303577	-1.040409	-0.290991
C93	C	-1.793951	-0.781393	-1.121894
C94	C	-1.793992	-0.781345	-1.242584
C95	C	-1.867898	-0.855239	-1.302925
C96	C	-1.941762	-0.929181	-1.242576
C97	C	-1.941724	-0.929232	-1.121879
C98	C	-1.867818	-0.855338	-1.061538
H99	H	-1.739311	-0.726606	-1.287265
H100	H	-1.867926	-0.855201	-1.392273
H101	H	-1.996472	-0.983882	-1.287243
H102	H	-1.996405	-0.983971	-1.077198
H103	H	-1.867790	-0.855376	-0.972190
H104	H	-1.118527	-0.762709	-0.761992
H105	H	-1.652658	-0.806317	-0.640647
H106	H	-0.819879	-0.640682	-0.640344
H107	H	-1.774533	-0.905677	-0.762691
H108	H	-1.396671	-1.105308	-0.384201
H109	H	-1.774694	-0.762290	-0.907162
H110	H	-1.652790	-0.640432	-0.807619
H111	H	-1.396665	-0.383986	-1.106232
