data_functionalizedCrystal
_audit_creation_method	'MofGen! by Chris Wilmer'
_symmetry_space_group_name_H-M	'P1'
_symmetry_Int_Tables_number	1
_symmetry_cell_setting	triclinic
loop_
_symmetry_equiv_pos_as_xyz
  x,y,z
_cell_length_a	6.817900
_cell_length_b	11.102289
_cell_length_c	11.168144
_cell_angle_alpha	91.983187
_cell_angle_beta	108.508840
_cell_angle_gamma	108.605707
loop_
_atom_site_label
_atom_site_type_symbol
_atom_site_fract_x
_atom_site_fract_y
_atom_site_fract_z
V1	V	-4.110389	-0.175857	-0.393699
O2	O	-4.069443	0.008432	-0.386205
O3	O	-4.087174	-0.348677	-0.391006
O4	O	-4.086672	-0.173160	-0.565405
O5	O	-4.069948	-0.168300	-0.210599
V6	V	-4.587555	-0.153813	-0.371799
O7	O	-4.385592	-0.224213	-0.441739
O8	O	-4.762550	-0.105457	-0.323759
O9	O	-4.387564	0.019007	-0.374491
O10	O	-4.745898	-0.338102	-0.379293
O11	O	-4.745393	-0.161370	-0.554899
O12	O	-4.388065	-0.156510	-0.200093
C13	C	-3.937503	-0.390807	-0.384795
C14	C	-3.999973	-0.532089	-0.383738
C15	C	-4.213310	-0.604938	-0.389540
C16	C	-4.272001	-0.737689	-0.388558
C17	C	-3.903993	-0.724731	-0.375965
C18	C	-3.845310	-0.591983	-0.376957
C19	C	-4.425775	-0.612420	-0.396805
C20	C	-4.484466	-0.745171	-0.395823
C21	C	-3.936862	-0.166916	-0.607256
C22	C	-3.998921	-0.165854	-0.747627
C23	C	-4.083721	-0.275988	-0.827347
C24	C	-4.147864	-0.274893	-0.972428
C25	C	-4.200577	0.061130	-0.380699
C26	C	-4.117347	0.202411	-0.381764
C27	C	-4.201218	-0.162758	-0.158235
C28	C	-4.118396	-0.163814	-0.017863
H29	H	-3.671603	-0.532677	-0.372247
O30	O	-4.116984	-0.401969	-0.775501
H31	H	-4.061362	-0.383058	-0.669684
O32	O	-4.022082	-0.038905	-0.927155
H33	H	-3.866815	0.021862	-0.938940
H34	H	-3.973818	-0.070755	-0.786783
H35	H	-4.220559	-0.369180	-1.040919
H36	H	-4.537375	-0.593203	-0.488638
O37	O	-3.737187	-0.789332	-0.368657
H38	H	-3.710357	-0.835929	-0.281442
O39	O	-4.426132	-0.541886	-0.278864
H40	H	-4.473802	-0.611848	-0.215539
H41	H	-4.616003	-0.803042	-0.489369
H42	H	-4.536024	-0.770136	-0.309568
