data_functionalizedCrystal
_audit_creation_method	'MofGen! by Chris Wilmer'
_symmetry_space_group_name_H-M	'P1'
_symmetry_Int_Tables_number	1
_symmetry_cell_setting	triclinic
loop_
_symmetry_equiv_pos_as_xyz
  x,y,z
_cell_length_a	12.759401
_cell_length_b	12.645330
_cell_length_c	12.759393
_cell_angle_alpha	89.970851
_cell_angle_beta	90.018496
_cell_angle_gamma	89.973653
loop_
_atom_site_label
_atom_site_type_symbol
_atom_site_fract_x
_atom_site_fract_y
_atom_site_fract_z
Zn1	Zn	1.606172	0.421972	0.593999
Zn2	Zn	1.606031	0.599276	0.418326
Zn3	Zn	1.430474	0.422028	0.418338
Zn4	Zn	1.430427	0.599195	0.593968
O5	O	1.518276	0.510618	0.506158
O6	O	1.753174	0.445503	0.570704
O7	O	1.582703	0.575821	0.271307
O8	O	1.453859	0.273673	0.441658
O9	O	1.753070	0.575767	0.441638
O10	O	1.582943	0.273632	0.570715
O11	O	1.453722	0.445598	0.271316
O12	O	1.283446	0.445518	0.441628
O13	O	1.453779	0.575628	0.740993
O14	O	1.283412	0.575682	0.570662
O15	O	1.582898	0.445424	0.741016
O16	O	1.582658	0.747613	0.441608
O17	O	1.453643	0.747553	0.570651
C18	C	1.245308	0.510598	0.506144
C19	C	1.128532	0.510615	0.506162
C20	C	1.518159	0.786048	0.506148
C21	C	1.518205	0.903878	0.506178
C22	C	1.073679	0.578500	0.573240
C23	C	0.963955	0.578514	0.573251
C24	C	0.963946	0.442755	0.439099
C25	C	1.073668	0.442737	0.439094
C26	C	1.128543	0.646379	0.640308
C27	C	1.073691	0.714270	0.707390
C28	C	0.963967	0.714284	0.707401
C29	C	0.909095	0.646406	0.640331
C30	C	1.437351	1.071448	0.587612
C31	C	1.436956	0.948889	0.587348
C32	C	1.488225	0.948482	0.395457
C33	C	1.487713	1.071080	0.395954
C34	C	1.629477	1.070964	0.534573
C35	C	1.628813	0.948357	0.536992
C36	C	1.792309	0.510638	0.506173
C37	C	1.909086	0.510647	0.506179
C38	C	1.518349	0.510511	0.780191
C39	C	1.518381	0.510465	0.896968
C40	C	1.518385	1.234113	0.506195
C41	C	1.518337	1.116282	0.506221
C42	C	1.518263	0.510648	0.233191
C43	C	1.518435	0.510395	0.116414
C44	C	1.585622	0.442661	0.951844
C45	C	1.585647	0.442623	1.061568
C46	C	1.451186	0.578202	1.061531
C47	C	1.451157	0.578234	0.951809
C48	C	1.652846	0.374893	0.897003
C49	C	1.720094	0.307084	0.951879
C50	C	1.720119	0.307046	1.061603
C51	C	1.652896	0.374816	1.116451
H52	H	1.118375	0.769527	0.762002
H53	H	1.544141	1.100743	0.333243
H54	H	1.407837	0.917873	0.371004
O55	O	1.785275	0.241100	0.898653
C56	C	1.836408	0.060793	0.865171
C57	C	1.762508	0.135402	0.925491
H58	H	1.818042	-0.024678	0.886865
H59	H	1.824841	0.072372	0.777310
H60	H	1.921112	0.079465	0.886739
H61	H	1.677776	0.116777	0.904011
H62	H	1.774166	0.123810	1.013338
O63	O	0.910797	0.780173	0.772709
C64	C	0.877237	0.831819	0.951339
C65	C	0.937531	0.757143	0.877498
H66	H	0.898812	0.813211	1.036077
H67	H	0.898797	0.917290	0.932825
H68	H	0.789396	0.820191	0.939774
H69	H	1.025386	0.768677	0.889021
H70	H	0.915885	0.671699	0.896029
O71	O	1.390861	1.105375	0.367138
C72	C	1.289206	1.206382	0.243276
C73	C	1.398950	1.167602	0.275773
H74	H	1.295712	1.256718	0.169417
H75	H	1.236545	1.135416	0.227166
H76	H	1.254119	1.255783	0.309243
H77	H	1.434130	1.118220	0.209846
H78	H	1.451538	1.238614	0.291918
H79	H	1.396387	0.633430	0.907128
H80	H	1.217886	0.646378	0.640304
H81	H	0.819750	0.646413	0.640355
H82	H	1.774867	0.251825	1.106280
O83	O	1.338651	0.913955	0.565118
C84	C	1.189994	0.812449	0.623715
C85	C	1.301313	0.851955	0.649040
H86	H	1.159781	0.762296	0.691540
H87	H	1.135754	0.883065	0.611537
H88	H	1.192066	0.762677	0.549272
H89	H	1.299342	0.901709	0.723493
H90	H	1.355506	0.781293	0.661151
H91	H	1.689814	1.099957	0.475293
H92	H	1.545350	0.919329	0.333157
O93	O	1.339595	1.108126	0.565522
C94	C	1.161651	1.063858	0.519989
C95	C	1.272302	1.022174	0.545011
H96	H	1.107219	0.994388	0.503377
H97	H	1.130615	1.110606	0.589776
H98	H	1.165223	1.117456	0.448211
H99	H	1.268819	0.968533	0.616758
H100	H	1.303295	0.975486	0.475166
H101	H	1.652835	0.374919	0.807660
H102	H	1.652909	0.374767	1.205796
H103	H	0.919260	0.387493	0.384493
O104	O	1.126796	0.376771	0.373828
C105	C	1.115217	0.242091	0.240794
C106	C	1.054919	0.316761	0.314639
H107	H	1.057131	0.193538	0.192937
H108	H	1.166518	0.290647	0.185710
H109	H	1.166654	0.186754	0.289131
H110	H	1.003425	0.372113	0.266386
H111	H	1.003684	0.268139	0.369726
H112	H	1.396456	0.633377	1.106197
H113	H	1.455928	1.100852	0.669981
O114	O	1.655722	0.913767	0.634288
C115	C	1.701434	0.961937	0.811184
C116	C	1.670976	1.001247	0.701040
H117	H	1.713797	1.032644	0.865178
H118	H	1.636115	0.909953	0.843737
H119	H	1.777018	0.914101	0.806154
H120	H	1.595418	1.049127	0.705981
H121	H	1.736357	1.053175	0.668528
O122	O	1.704673	0.911985	0.471401
C123	C	1.839270	0.956769	0.346625
C124	C	1.753415	0.998102	0.420899
H125	H	1.878688	1.026372	0.305757
H126	H	1.900134	0.910765	0.393600
H127	H	1.802490	0.902554	0.285474
H128	H	1.790102	1.052359	0.482064
H129	H	1.692562	1.044045	0.373853
H130	H	1.455713	0.918727	0.669447
H131	H	1.656814	1.101801	0.613939
