data_functionalizedCrystal
_audit_creation_method	'MofGen! by Chris Wilmer'
_symmetry_space_group_name_H-M	'P1'
_symmetry_Int_Tables_number	1
_symmetry_cell_setting	triclinic
loop_
_symmetry_equiv_pos_as_xyz
  x,y,z
_cell_length_a	14.853569
_cell_length_b	11.026607
_cell_length_c	9.482900
_cell_angle_alpha	78.599815
_cell_angle_beta	99.300832
_cell_angle_gamma	96.110791
loop_
_atom_site_label
_atom_site_type_symbol
_atom_site_fract_x
_atom_site_fract_y
_atom_site_fract_z
O1	O	-1.232902	-0.139517	-0.120823
O2	O	-0.973490	-0.158391	-0.120840
O3	O	-1.081695	0.027735	-0.120827
O4	O	-1.124696	-0.325643	-0.120835
O5	O	-1.059741	-0.010223	0.120963
O6	O	-0.951535	-0.196349	0.120950
O7	O	-1.210947	-0.177475	0.120967
Cu8	Cu	-1.079237	-0.190378	0.143036
Cu9	Cu	-1.105200	-0.145488	-0.142909
O10	O	-1.102742	-0.363601	0.120955
C11	C	-1.062786	0.053981	0.000065
C12	C	-1.039139	0.188736	0.000059
C13	C	-0.928786	-0.176514	0.000053
C14	C	-0.828289	-0.173949	0.000047
C15	C	-1.255651	-0.159351	0.000071
C16	C	-1.356149	-0.161915	0.000068
C17	C	-0.773878	-0.062181	0.000044
C18	C	-0.788268	-0.283308	0.000055
C19	C	-0.693846	-0.280903	0.000057
C20	C	-0.639435	-0.169136	0.000054
C21	C	-0.679446	-0.059773	0.000050
C22	C	-0.653826	-0.390266	0.000076
C23	C	-0.559398	-0.387865	0.000079
C24	C	-0.504986	-0.276095	0.000066
C25	C	-0.545003	-0.166728	0.000060
C26	C	-0.490592	-0.054961	0.000058
C27	C	-0.530608	0.054409	0.000041
C28	C	-0.625035	0.051997	0.000037
C29	C	-0.410560	-0.273682	0.000071
C30	C	-0.396160	-0.052553	0.000064
C31	C	-1.121652	-0.389846	0.000059
C32	C	-1.145300	-0.524600	0.000056
N33	N	-1.060982	-0.221950	0.344154
C34	C	-1.104434	0.262430	0.000061
C35	C	-1.079995	0.401707	0.000054
N36	N	-1.123461	-0.113906	-0.344027
C37	C	-1.099809	-0.154794	0.416358
C38	C	-1.084628	-0.181072	0.583773
H39	H	-0.351865	0.038464	0.000054
C40	C	-1.203143	0.209198	-0.000237
C41	C	-1.257218	0.268064	-0.124651
C42	C	-1.348153	0.219050	-0.124987
H43	H	-1.224793	0.222525	0.083982
H44	H	-1.206499	0.122687	-0.000315
H45	H	-1.253867	0.354555	-0.124559
H46	H	-1.235598	0.254741	-0.208889
H47	H	-1.351509	0.132539	-0.125065
H48	H	-1.369793	0.232380	-0.040763
H49	H	-1.384853	0.258974	-0.209407
H50	H	-1.167939	-0.036947	0.593854
H51	H	-0.832574	-0.374306	0.000067
H52	H	-0.965145	0.228755	0.000044
H53	H	-0.698133	-0.481262	0.000088
H54	H	-1.005997	0.441721	0.000040
C55	C	-1.001739	-0.324544	0.427239
C56	C	-0.998485	-0.330238	0.576774
C57	C	-0.943928	-0.424745	0.653352
H58	H	-0.941601	-0.307670	0.402557
H59	H	-1.027089	-0.401674	0.402449
H60	H	-0.973132	-0.253126	0.601554
H61	H	-1.058608	-0.347129	0.601499
H62	H	-0.969278	-0.501874	0.628562
H63	H	-0.883794	-0.407862	0.628658
H64	H	-0.941720	-0.428628	0.754819
C65	C	-0.516135	-0.506722	0.000010
C66	C	-0.584001	-0.605110	-0.000023
C67	C	-0.544183	-0.714615	-0.000112
H68	H	-0.471953	-0.523784	0.084302
H69	H	-0.487282	-0.497205	-0.084344
H70	H	-0.612839	-0.614627	0.084322
H71	H	-0.628187	-0.588089	-0.084309
H72	H	-0.515330	-0.705098	-0.084466
H73	H	-0.500001	-0.731665	0.084181
H74	H	-0.590224	-0.781382	-0.000148
H75	H	-0.486295	0.145412	0.000030
H76	H	-1.219309	0.435408	-0.000048
H77	H	-0.657624	0.141039	0.000027
H78	H	-1.144284	-0.077839	0.354235
H79	H	-1.040142	-0.258023	0.645893
H80	H	-0.806464	0.026866	0.000025
H81	H	-0.377982	-0.362732	0.000097
