data_functionalizedCrystal
_audit_creation_method	'MofGen! by Chris Wilmer'
_symmetry_space_group_name_H-M	'P1'
_symmetry_Int_Tables_number	1
_symmetry_cell_setting	triclinic
loop_
_symmetry_equiv_pos_as_xyz
  x,y,z
_cell_length_a	15.995350
_cell_length_b	27.732048
_cell_length_c	15.072220
_cell_angle_alpha	89.993868
_cell_angle_beta	89.991149
_cell_angle_gamma	83.067515
loop_
_atom_site_label
_atom_site_type_symbol
_atom_site_fract_x
_atom_site_fract_y
_atom_site_fract_z
O1	O	1.110190	0.062301	-0.073717
O2	O	1.610190	0.562301	0.426283
O3	O	0.866315	0.069995	-0.073737
O4	O	1.366315	0.569995	0.426263
O5	O	0.995827	-0.004216	-0.073709
O6	O	1.495827	0.495784	0.426291
O7	O	0.980678	0.136512	-0.073744
O8	O	1.480678	0.636512	0.426256
O9	O	0.995795	-0.004212	0.073856
O10	O	1.495795	0.495788	0.573856
O11	O	0.866283	0.069999	0.073828
O12	O	1.366283	0.569999	0.573828
O13	O	1.110158	0.062305	0.073848
O14	O	1.610158	0.562305	0.573848
Zn15	Zn	0.988215	0.066153	0.097267
Zn16	Zn	1.488215	0.566153	0.597267
Zn17	Zn	0.988257	0.066148	-0.097156
Zn18	Zn	1.488257	0.566148	0.402844
O19	O	0.980646	0.136516	0.073821
O20	O	1.480646	0.636516	0.573821
C21	C	0.835108	0.069679	0.000044
C22	C	1.335108	0.569679	0.500044
C23	C	0.742170	0.068726	0.000037
C24	C	1.242170	0.568726	0.500037
C25	C	0.404467	0.065301	0.000056
C26	C	0.904467	0.565301	0.500056
C27	C	0.452585	0.012449	0.000399
C28	C	0.952585	0.512449	0.500399
C29	C	0.549263	0.013403	0.000060
C30	C	1.049263	0.513403	0.500060
C31	C	0.572006	0.067000	0.000047
C32	C	1.072006	0.567000	0.500047
C33	C	0.530599	0.093065	-0.084223
C34	C	1.030599	0.593065	0.415777
C35	C	0.433981	0.091738	-0.084287
C36	C	0.933981	0.591738	0.415713
C37	C	0.433592	0.092834	0.083522
C38	C	0.933592	0.592834	0.583522
C39	C	0.530537	0.092822	0.084630
C40	C	1.030537	0.592822	0.584630
C41	C	0.666691	0.067962	0.000039
C42	C	1.166691	0.567962	0.500039
C43	C	0.309782	0.064340	0.000058
C44	C	0.809782	0.564340	0.500058
C45	C	0.995493	-0.022222	0.000076
C46	C	1.495493	0.477778	0.500076
C47	C	0.994535	-0.075881	0.000083
C48	C	1.494535	0.424119	0.500083
C49	C	1.065040	-0.414392	0.000043
C50	C	1.565040	0.085608	0.500043
C51	C	1.061487	-0.616067	0.000030
C52	C	1.561487	-0.116067	0.500030
O53	O	1.125959	-0.647045	-0.000004
O54	O	1.625959	-0.147045	0.499996
N55	N	0.984692	-0.635522	0.000025
N56	N	1.484692	-0.135522	0.500025
C57	C	0.908780	-0.604555	0.000017
C58	C	1.408780	-0.104555	0.500017
O59	O	0.843380	-0.625730	0.000003
O60	O	1.343380	-0.125730	0.500003
C61	C	0.912334	-0.402881	0.000023
C62	C	1.412334	0.097119	0.500023
C63	C	0.989134	-0.383429	0.000037
C64	C	1.489134	0.116571	0.500037
C65	C	1.141834	-0.394940	0.000056
C66	C	1.641834	0.105060	0.500056
C67	C	1.142721	-0.344524	0.000064
C68	C	1.642721	0.155476	0.500064
C69	C	1.066815	-0.313561	0.000059
C70	C	1.566815	0.186439	0.500059
C71	C	0.990021	-0.333013	0.000045
C72	C	1.490021	0.166987	0.500045
C73	C	0.836422	-0.371914	0.000009
C74	C	1.336422	0.128086	0.500009
C75	C	0.837317	-0.321493	0.000008
C76	C	1.337317	0.178507	0.500008
C77	C	0.914117	-0.302041	0.000023
C78	C	1.414117	0.197959	0.500023
C79	C	0.915002	-0.251634	0.000048
C80	C	1.415002	0.248366	0.500048
N81	N	0.991797	-0.232179	0.000053
N82	N	1.491797	0.267821	0.500053
C83	C	1.067703	-0.263142	0.000059
C84	C	1.567703	0.236858	0.500059
C85	C	0.906920	-0.710437	0.000015
C86	C	1.406920	-0.210437	0.500015
C87	C	0.906031	-0.760855	0.000015
C88	C	1.406031	-0.260855	0.500015
C89	C	1.058739	-0.772364	0.000027
C90	C	1.558739	-0.272364	0.500027
C91	C	1.059627	-0.721945	0.000033
C92	C	1.559627	-0.221945	0.500033
C93	C	0.983715	-0.690982	0.000021
C94	C	1.483715	-0.190982	0.500021
C95	C	1.069561	-0.157265	0.000076
C96	C	1.569561	0.342735	0.500076
C97	C	1.070442	-0.106844	0.000088
C98	C	1.570442	0.393156	0.500088
C99	C	0.917734	-0.095340	0.000072
C100	C	1.417734	0.404660	0.500072
C101	C	0.916853	-0.145756	0.000065
C102	C	1.416853	0.354244	0.500065
C103	C	0.992773	-0.176718	0.000064
C104	C	1.492773	0.323282	0.500064
O105	O	0.850565	-0.220628	0.000072
O106	O	1.350565	0.279372	0.500072
O107	O	1.133094	-0.241958	0.000053
O108	O	1.633094	0.258042	0.500053
C109	C	1.064153	-0.464808	0.000035
C110	C	1.564153	0.035192	0.500035
C111	C	0.987359	-0.484260	0.000022
C112	C	1.487359	0.015740	0.500022
C113	C	0.911452	-0.453297	0.000016
C114	C	1.411452	0.046703	0.500016
C115	C	0.986470	-0.534679	0.000022
C116	C	1.486470	-0.034679	0.500022
C117	C	1.062377	-0.565642	0.000027
C118	C	1.562377	-0.065642	0.500027
C119	C	1.139172	-0.546187	0.000032
C120	C	1.639172	-0.046187	0.500032
C121	C	1.140059	-0.495771	0.000040
C122	C	1.640059	0.004229	0.500040
C123	C	0.834657	-0.472752	0.000011
C124	C	1.334657	0.027248	0.500011
C125	C	0.833776	-0.523168	0.000004
C126	C	1.333776	-0.023168	0.500004
C127	C	0.909683	-0.554132	0.000009
C128	C	1.409683	-0.054132	0.500009
C129	C	1.141364	0.062621	0.000066
C130	C	1.641364	0.562621	0.500066
C131	C	1.234302	0.063575	0.000066
C132	C	1.734302	0.563575	0.500066
C133	C	0.980980	0.154523	0.000034
C134	C	1.480980	0.654523	0.500034
C135	C	0.981938	0.208182	0.000021
C136	C	1.481938	0.708182	0.500021
N137	N	0.988193	0.066156	0.229956
N138	N	1.488193	0.566156	0.729956
N139	N	0.988287	0.066140	-0.229845
N140	N	1.488287	0.566140	0.270155
C141	C	0.988256	0.066146	0.589158
C142	C	1.488256	0.566146	1.089158
C143	C	0.918727	0.105721	0.551536
C144	C	1.418727	0.605721	1.051536
C145	C	0.918884	0.105866	0.448710
C146	C	1.418884	0.605866	0.948710
C147	C	0.988224	0.066151	0.410954
C148	C	1.488224	0.566151	0.910954
C149	C	1.075446	0.077167	0.448249
C150	C	1.575446	0.577167	0.948249
C151	C	1.075056	0.077448	0.551106
C152	C	1.575056	0.577448	1.051106
C153	C	0.971342	0.015437	0.551269
C154	C	1.471342	0.515437	1.051269
C155	C	0.969333	0.015775	0.448405
C156	C	1.469333	0.515775	0.948405
C157	C	0.988211	0.066153	0.310240
C158	C	1.488211	0.566153	0.810240
C159	C	0.988274	0.066145	0.689871
C160	C	1.488274	0.566145	1.189871
H161	H	0.401326	0.131802	0.084083
H162	H	0.901326	0.631802	0.584083
H163	H	1.205260	-0.328691	0.000072
H164	H	1.705260	0.171309	0.500072
H165	H	1.016735	-0.015055	0.422708
H166	H	1.516735	0.484945	0.922708
H167	H	1.203650	-0.420146	0.000057
H168	H	1.703650	0.079854	0.500057
H169	H	1.090825	0.113727	0.422472
H170	H	1.590825	0.613727	0.922472
H171	H	1.122164	-0.706111	0.000044
H172	H	1.622164	-0.206111	0.500044
F173	F	0.824290	-0.781551	0.000016
F174	F	1.324290	-0.281551	0.500016
F175	F	0.753863	-0.439804	0.000003
F176	F	1.253863	0.060196	0.500003
F177	F	1.144654	0.040493	0.416284
F178	F	1.644654	0.540493	0.916284
F179	F	1.139525	-0.805326	0.000031
F180	F	1.639525	-0.305326	0.500031
H181	H	1.132984	-0.091010	0.000102
H182	H	1.632984	0.408990	0.500102
H183	H	0.853661	0.099266	0.576294
H184	H	1.353661	0.599266	1.076294
F185	F	0.834101	0.097312	0.415751
F186	F	1.334101	0.597312	0.915751
F187	F	0.826118	-0.677489	0.000002
F188	F	1.326118	-0.177489	0.500002
F189	F	0.754680	-0.392605	-0.000010
F190	F	1.254680	0.107395	0.499990
F191	F	1.144608	0.041167	0.583636
F192	F	1.644608	0.541167	1.083636
F193	F	0.890047	0.001600	0.585212
F194	F	1.390047	0.501600	1.085212
H195	H	0.544216	0.132441	-0.087365
H196	H	1.044216	0.632441	0.412635
F197	F	0.885473	0.004847	0.416548
F198	F	1.385473	0.504847	0.916548
H199	H	1.131383	-0.182469	0.000072
H200	H	1.631383	0.317531	0.500072
F201	F	1.221801	-0.475076	0.000050
F202	F	1.721801	0.024924	0.500050
F203	F	1.037624	-0.023058	0.583069
F204	F	1.537624	0.476942	1.083069
H205	H	0.929308	0.143139	0.577366
H206	H	1.429308	0.643139	1.077366
H207	H	0.413266	0.075558	0.147396
H208	H	0.913266	0.575558	0.647396
H209	H	0.771232	-0.539001	-0.000000
H210	H	1.271232	-0.039001	0.500000
H211	H	0.577944	-0.007086	0.060468
H212	H	1.077944	0.492914	0.560468
H213	H	0.775499	-0.296285	-0.000003
H214	H	1.275499	0.203715	0.499997
F215	F	0.836954	-0.062378	0.000066
F216	F	1.336954	0.437622	0.500066
F217	F	0.932884	0.155055	0.416523
F218	F	1.432884	0.655055	0.916523
F219	F	1.094666	0.125785	0.582444
F220	F	1.594666	0.625785	1.082444
H221	H	0.433276	-0.008581	-0.059692
H222	H	0.933276	0.491419	0.440308
F223	F	0.428712	-0.015162	0.079391
F224	F	0.928712	0.484838	0.579391
H225	H	0.854317	-0.161595	0.000078
H226	H	1.354317	0.338405	0.500078
F227	F	0.568008	0.069398	-0.166187
F228	F	1.068008	0.569398	0.333813
F229	F	0.586018	-0.013454	-0.079149
F230	F	1.086018	0.486546	0.420851
F231	F	1.219957	-0.579149	0.000043
F232	F	1.719957	-0.079149	0.500043
F233	F	0.566463	0.067912	0.166115
F234	F	1.066463	0.567912	0.666115
H235	H	0.401231	0.130541	-0.088120
H236	H	0.901231	0.630541	0.411880
F237	F	0.549952	0.143910	0.091270
F238	F	1.049952	0.643910	0.591270
H239	H	0.415932	0.072726	-0.147272
H240	H	0.915932	0.572726	0.352728
