data_functionalizedCrystal
_audit_creation_method	'MofGen! by Chris Wilmer'
_symmetry_space_group_name_H-M	'P1'
_symmetry_Int_Tables_number	1
_symmetry_cell_setting	triclinic
loop_
_symmetry_equiv_pos_as_xyz
  x,y,z
_cell_length_a	19.188925
_cell_length_b	19.188924
_cell_length_c	7.540329
_cell_angle_alpha	89.994348
_cell_angle_beta	89.996095
_cell_angle_gamma	83.142256
loop_
_atom_site_label
_atom_site_type_symbol
_atom_site_fract_x
_atom_site_fract_y
_atom_site_fract_z
O1	O	0.926144	0.087149	-0.147529
O2	O	0.722831	0.098887	-0.147525
O3	O	0.830357	-0.008638	-0.147506
O4	O	0.818618	0.194674	-0.147548
O5	O	0.830351	-0.008640	0.147459
O6	O	0.722825	0.098886	0.147440
O7	O	0.926137	0.087147	0.147436
Cu8	Cu	0.824481	0.093016	0.174371
Cu9	Cu	0.824488	0.093018	-0.174459
O10	O	0.818612	0.194673	0.147418
C11	C	0.696817	0.098507	-0.000042
C12	C	0.619313	0.097368	-0.000039
C13	C	0.829975	-0.034650	-0.000022
C14	C	0.828836	-0.112155	-0.000017
C15	C	0.057541	0.152832	-0.000055
C16	C	0.130364	0.153908	-0.000065
C17	C	0.175300	0.090816	-0.000049
C18	C	0.147408	0.026642	-0.000068
C19	C	0.074586	0.025568	-0.000076
N20	N	0.295976	0.045139	0.100369
N21	N	0.365154	0.046164	0.100380
C22	C	0.394709	0.094050	-0.000028
N23	N	0.352473	0.140882	-0.100427
N24	N	0.283289	0.139859	-0.100430
C25	C	0.254264	0.091974	-0.000041
C26	C	0.501557	0.159387	-0.000032
C27	C	0.574381	0.160461	-0.000053
C28	C	0.591424	0.033193	-0.000038
C29	C	0.518600	0.032121	-0.000035
C30	C	0.473671	0.095220	-0.000024
C31	C	0.828308	-0.148553	-0.160803
C32	C	0.827228	-0.221376	-0.160816
C33	C	0.826690	-0.257799	-0.000035
C34	C	0.827214	-0.221392	0.160772
C35	C	0.828287	-0.148569	0.160781
N36	N	0.864735	-0.377464	0.119630
N37	N	0.863718	-0.446642	0.119611
C38	C	0.823456	-0.477208	-0.000052
N39	N	0.784259	-0.435984	-0.119722
N40	N	0.785280	-0.366800	-0.119707
C41	C	0.825526	-0.336763	-0.000027
C42	C	0.821756	-0.592569	-0.160863
C43	C	0.820672	-0.665392	-0.160870
C44	C	0.820665	-0.665408	0.160723
C45	C	0.821742	-0.592585	0.160725
C46	C	0.822291	-0.556170	-0.000073
C47	C	0.952151	0.087528	-0.000051
C48	C	1.029656	0.088667	-0.000065
C49	C	0.818994	0.220684	-0.000071
C50	C	0.820133	0.298189	-0.000087
N51	N	0.824480	0.093015	0.419719
N52	N	0.824494	0.093014	-0.419808
H53	H	0.020963	0.204212	-0.000054
N54	N	0.820141	-0.702560	-0.325142
N55	N	0.869475	-0.701006	-0.432780
H56	H	0.869102	-0.727254	-0.548804
H57	H	0.826794	-0.251016	-0.291752
N58	N	0.822276	-0.555401	0.324968
N59	N	0.772947	-0.556950	0.432624
H60	H	0.773321	-0.530689	0.548628
N61	N	0.637306	-0.031262	-0.000042
N62	N	0.634880	-0.073984	-0.124375
H63	H	0.667287	-0.119508	-0.124386
H64	H	0.464973	0.210766	-0.000026
H65	H	0.153073	0.206161	-0.000040
H66	H	0.051883	-0.026685	-0.000084
H67	H	0.828714	-0.118934	0.291716
H68	H	0.826774	-0.251052	0.291682
N69	N	0.602856	0.226014	-0.000068
N70	N	0.562729	0.282343	-0.000065
H71	H	0.582839	0.328641	-0.000078
H72	H	0.495897	-0.020129	-0.000033
H73	H	0.822199	-0.562918	-0.291795
H74	H	0.828753	-0.118908	-0.291737
N75	N	0.820099	-0.702601	0.324963
N76	N	0.770291	-0.736644	0.360833
H77	H	0.769887	-0.762914	0.476834
N78	N	0.193315	-0.037799	-0.000067
N79	N	0.258333	-0.036831	-0.000059
H80	H	0.290756	-0.082345	-0.000066
