data_functionalizedCrystal
_audit_creation_method	'MofGen! by Chris Wilmer'
_symmetry_space_group_name_H-M	'P1'
_symmetry_Int_Tables_number	1
_symmetry_cell_setting	triclinic
loop_
_symmetry_equiv_pos_as_xyz
  x,y,z
_cell_length_a	6.817900
_cell_length_b	19.453103
_cell_length_c	19.453030
_cell_angle_alpha	96.316731
_cell_angle_beta	101.707737
_cell_angle_gamma	101.709178
loop_
_atom_site_label
_atom_site_type_symbol
_atom_site_fract_x
_atom_site_fract_y
_atom_site_fract_z
V1	V	-3.997980	-0.097914	-0.219328
V2	V	-3.497980	0.402086	0.280672
O3	O	-3.995081	0.003953	-0.214817
O4	O	-3.495081	0.503953	0.285183
O5	O	-3.940999	-0.193422	-0.218151
O6	O	-3.440999	0.306578	0.281849
O7	O	-3.940993	-0.096738	-0.314837
O8	O	-3.440993	0.403262	0.185163
O9	O	-3.995087	-0.093401	-0.117461
O10	O	-3.495087	0.406599	0.382539
V11	V	-4.483832	-0.085690	-0.207104
V12	V	-3.983832	0.414310	0.292896
O13	O	-4.254128	-0.124727	-0.246140
O14	O	-3.754128	0.375273	0.253860
O15	O	-4.677881	-0.058877	-0.180292
O16	O	-4.177881	0.441123	0.319708
O17	O	-4.317606	0.009819	-0.208281
O18	O	-3.817606	0.509819	0.291719
O19	O	-4.604128	-0.187556	-0.211615
O20	O	-4.104128	0.312444	0.288385
O21	O	-4.604121	-0.090202	-0.308971
O22	O	-4.104121	0.409798	0.191029
O23	O	-4.317612	-0.086866	-0.111595
O24	O	-3.817612	0.413134	0.388405
C25	C	-3.784191	-0.216695	-0.214774
C26	C	-3.284191	0.283305	0.285226
C27	C	-3.818832	-0.294777	-0.214448
C28	C	-3.318832	0.205223	0.285552
C29	C	-4.016565	-0.335044	-0.217808
C30	C	-3.516565	0.164956	0.282192
C31	C	-4.049118	-0.408411	-0.217509
C32	C	-3.549118	0.091589	0.282491
C33	C	-3.883920	-0.441507	-0.213836
C34	C	-3.383920	0.058493	0.286164
C35	C	-3.686161	-0.401231	-0.210481
C36	C	-3.186161	0.098769	0.289519
C37	C	-3.653617	-0.327866	-0.210787
C38	C	-3.153617	0.172134	0.289213
N39	N	-3.779044	-0.547627	-0.170551
N40	N	-3.279044	-0.047627	0.329449
N41	N	-3.809970	-0.617320	-0.170259
N42	N	-3.309970	-0.117320	0.329741
C43	C	-3.981962	-0.662551	-0.212916
C44	C	-3.481962	-0.162551	0.287084
N45	N	-4.121885	-0.635454	-0.255867
N46	N	-3.621885	-0.135454	0.244133
N47	N	-4.090959	-0.565754	-0.256156
N48	N	-3.590959	-0.065754	0.243844
C49	C	-3.919188	-0.521058	-0.213505
C50	C	-3.419188	-0.021058	0.286495
C51	C	-4.215006	-0.782371	-0.215952
C52	C	-3.715006	-0.282371	0.284048
C53	C	-4.247555	-0.855740	-0.215658
C54	C	-3.747555	-0.355740	0.284342
C55	C	-3.884588	-0.848558	-0.208622
C56	C	-3.384588	-0.348558	0.291378
C57	C	-3.852049	-0.775191	-0.208924
C58	C	-3.352049	-0.275191	0.291076
C59	C	-4.017264	-0.742102	-0.212586
C60	C	-3.517264	-0.242102	0.287414
C61	C	-3.784181	-0.093363	-0.338106
C62	C	-3.284181	0.406637	0.161894
C63	C	-3.818815	-0.093034	-0.416187
C64	C	-3.318815	0.406966	0.083813
C65	C	-3.868540	-0.157237	-0.463108
C66	C	-3.368540	0.342763	0.036892
C67	C	-3.901105	-0.156935	-0.536475
C68	C	-3.401105	0.343065	-0.036475
C69	C	-3.883902	-0.092425	-0.562917
C70	C	-3.383902	0.407575	-0.062917
C71	C	-3.834181	-0.028213	-0.515986
C72	C	-3.334181	0.471787	-0.015986
C73	C	-3.801637	-0.028518	-0.442621
C74	C	-3.301637	0.471482	0.057379
N75	N	-3.796770	-0.041847	-0.668241
N76	N	-3.296770	0.458153	-0.168241
N77	N	-3.827683	-0.041562	-0.737935
N78	N	-3.327683	0.458438	-0.237935
C79	C	-3.981956	-0.091504	-0.783961
C80	C	-3.481956	0.408496	-0.283961
N81	N	-4.104129	-0.141752	-0.757661
N82	N	-3.604129	0.358248	-0.257661
N83	N	-4.073205	-0.142039	-0.687960
N84	N	-3.573205	0.357961	-0.187960
C85	C	-3.919188	-0.092088	-0.642468
C86	C	-3.419188	0.407912	-0.142468
C87	C	-4.066996	-0.155384	-0.910436
C88	C	-3.566996	0.344616	-0.410436
C89	C	-4.099573	-0.155079	-0.983804
C90	C	-3.599573	0.344921	-0.483804
C91	C	-4.032627	-0.026356	-0.963313
C92	C	-3.532627	0.473644	-0.463313
C93	C	-4.000072	-0.026662	-0.889947
C94	C	-3.500072	0.473338	-0.389947
C95	C	-4.017250	-0.091178	-0.863513
C96	C	-3.517250	0.408822	-0.363513
C97	C	-4.137757	0.033088	-0.211656
C98	C	-3.637757	0.533088	0.288344
C99	C	-4.082353	0.111169	-0.211986
C100	C	-3.582353	0.611169	0.288014
C101	C	-4.137766	-0.090243	-0.088323
C102	C	-3.637766	0.409757	0.411677
C103	C	-4.082371	-0.090569	-0.010241
C104	C	-3.582371	0.409431	0.489759
H105	H	-4.408578	-0.888526	-0.218398
H106	H	-3.908578	-0.388526	0.281602
F107	F	-4.085280	-0.224046	-0.882300
F108	F	-3.585280	0.275954	-0.382300
H109	H	-3.882541	-0.209771	-0.441591
H110	H	-3.382541	0.290229	0.058409
F111	F	-3.748694	0.039820	-0.392681
F112	F	-3.248694	0.539820	0.107319
F113	F	-3.708772	-0.883777	-0.204720
F114	F	-3.208772	-0.383777	0.295280
H115	H	-3.691033	-0.742405	-0.206184
H116	H	-3.191033	-0.242405	0.293816
F117	F	-4.259583	-0.451274	-0.221085
F118	F	-3.759583	0.048726	0.278915
H119	H	-4.140078	-0.207364	-1.022008
H120	H	-3.640078	0.292636	-0.522008
H121	H	-3.941590	-0.209218	-0.574685
H122	H	-3.441590	0.290782	-0.074685
H123	H	-3.820181	0.024311	-0.537520
H124	H	-3.320181	0.524311	-0.037520
F125	F	-4.014341	0.042301	-0.991450
F126	F	-3.514341	0.542301	-0.491450
H127	H	-3.959571	0.025619	-0.851742
H128	H	-3.459571	0.525619	-0.351742
H129	H	-3.551658	-0.428183	-0.207492
H130	H	-3.051658	0.071817	0.292508
F131	F	-4.192399	-0.299830	-0.221697
F132	F	-3.692399	0.200170	0.278303
F133	F	-3.443155	-0.285010	-0.207210
F134	F	-2.943155	0.214990	0.292790
H135	H	-4.349533	-0.755428	-0.218933
H136	H	-3.849533	-0.255428	0.281067
