data_functionalizedCrystal
_audit_creation_method	'MofGen! by Chris Wilmer'
_symmetry_space_group_name_H-M	'P1'
_symmetry_Int_Tables_number	1
_symmetry_cell_setting	triclinic
loop_
_symmetry_equiv_pos_as_xyz
  x,y,z
_cell_length_a	26.374263
_cell_length_b	26.373608
_cell_length_c	26.370205
_cell_angle_alpha	60.005297
_cell_angle_beta	60.010839
_cell_angle_gamma	59.993700
loop_
_atom_site_label
_atom_site_type_symbol
_atom_site_fract_x
_atom_site_fract_y
_atom_site_fract_z
O1	O	0.070152	-0.740800	0.619517
O2	O	0.570152	-0.240800	1.119517
O3	O	0.026377	-0.576764	0.499159
O4	O	0.526377	-0.076764	0.999159
O5	O	0.130245	-0.680560	0.499088
O6	O	0.630245	-0.180560	0.999088
O7	O	-0.033715	-0.637003	0.619589
O8	O	0.466285	-0.137003	1.119589
O9	O	0.164701	-0.646107	0.533470
O10	O	0.664701	-0.146107	1.033470
O11	O	0.060833	-0.542310	0.533541
O12	O	0.560833	-0.042310	1.033541
O13	O	0.104608	-0.706346	0.653899
O14	O	0.604608	-0.206346	1.153899
Cu15	Cu	0.085867	-0.621182	0.596859
Cu16	Cu	0.585867	-0.121182	1.096859
Cu17	Cu	0.045119	-0.661927	0.556199
Cu18	Cu	0.545119	-0.161927	1.056199
O19	O	0.000741	-0.602549	0.653971
O20	O	0.500741	-0.102549	1.153971
N21	N	0.114528	-0.592529	0.625461
N22	N	0.614528	-0.092529	1.125461
N23	N	0.016463	-0.690587	0.527598
N24	N	0.516463	-0.190587	1.027598
C25	C	0.181428	-0.355400	0.692330
C26	C	0.681428	0.144600	1.192330
C27	C	0.181530	-0.525690	0.862573
C28	C	0.681530	-0.025690	1.362573
C29	C	0.181440	-0.525667	0.692313
C30	C	0.681440	-0.025667	1.192313
C31	C	0.351736	-0.525673	0.692271
C32	C	0.851736	-0.025673	1.192271
C33	C	0.200174	-0.411588	0.711047
C34	C	0.700174	0.088412	1.211047
C35	C	0.200232	-0.506954	0.806384
C36	C	0.700232	-0.006954	1.306384
C37	C	0.295546	-0.506943	0.711016
C38	C	0.795546	-0.006943	1.211016
C39	C	0.200182	-0.506940	0.711037
C40	C	0.700182	-0.006940	1.211037
C41	C	0.157567	-0.283881	0.668507
C42	C	0.657567	0.216119	1.168507
C43	C	0.157587	-0.549500	0.668479
C44	C	0.657587	-0.049500	1.168479
C45	C	0.224035	-0.483107	0.734871
C46	C	0.724035	0.016893	1.234871
C47	C	0.455739	-0.507754	0.637520
C48	C	0.955739	-0.007754	1.137520
C49	C	0.520749	-0.529425	0.615835
C50	C	1.020749	-0.029425	1.115835
C51	C	0.520768	-0.634611	0.655947
C52	C	1.020768	-0.134611	1.155947
C53	C	0.455759	-0.612939	0.677633
C54	C	0.955759	-0.112939	1.177633
C55	C	0.173240	-0.251367	0.604595
C56	C	0.673240	0.248633	1.104595
C57	C	0.151546	-0.186351	0.582941
C58	C	0.651546	0.313649	1.082941
C59	C	0.098512	-0.186369	0.689113
C60	C	0.598512	0.313631	1.189113
C61	C	0.120206	-0.251385	0.710768
C62	C	0.620206	0.248615	1.210768
C63	C	0.093669	-0.533798	0.684205
C64	C	0.593669	-0.033798	1.184205
C65	C	0.071992	-0.555464	0.662532
C66	C	0.571992	-0.055464	1.162532
C67	C	0.178144	-0.608536	0.609422
C68	C	0.678144	-0.108536	1.109422
C69	C	0.199825	-0.586869	0.631088
C70	C	0.699825	-0.086869	1.131088
C71	C	0.093821	-0.533842	0.966616
C72	C	0.593821	-0.033842	1.466616
C73	C	0.072187	-0.555526	1.031630
C74	C	0.572187	-0.055526	1.531630
C75	C	0.178370	-0.608608	1.031591
C76	C	0.678370	-0.108608	1.531591
C77	C	0.200004	-0.586926	0.966576
C78	C	0.700004	-0.086926	1.466576
C79	C	0.157728	-0.549541	0.934090
C80	C	0.657728	-0.049541	1.434090
C81	C	0.423247	-0.549509	0.668416
C82	C	0.923247	-0.049509	1.168416
C83	C	-0.097522	-0.709158	0.508557
C84	C	0.402478	-0.209158	1.008557
C85	C	-0.002050	-0.709295	0.413344
C86	C	0.497950	-0.209295	0.913344
C87	C	-0.002241	-0.804604	0.508735
C88	C	0.497759	-0.304604	1.008735
C89	C	-0.002225	-0.709288	0.508793
C90	C	0.497775	-0.209288	1.008793
C91	C	-0.026009	-0.733087	0.484858
C92	C	0.473991	-0.233087	0.984858
N93	N	0.552340	-0.592538	0.625346
N94	N	1.052340	-0.092538	1.125346
O95	O	0.750867	-0.598274	0.477076
O96	O	1.250867	-0.098274	0.977076
O97	O	0.751048	-0.718989	0.640960
O98	O	1.251048	-0.218989	1.140960
O99	O	0.750981	-0.718715	0.537020
O100	O	1.250981	-0.218715	1.037020
O101	O	0.750934	-0.598547	0.581017
O102	O	1.250934	-0.098547	1.081017
O103	O	0.647701	-0.684348	0.571512
O104	O	1.147701	-0.184348	1.071512
O105	O	0.647768	-0.684622	0.675452
O106	O	1.147768	-0.184622	1.175452
O107	O	0.647587	-0.563907	0.511569
O108	O	1.147587	-0.063907	1.011569
Cu109	Cu	0.638247	-0.621127	0.596660
Cu110	Cu	1.138247	-0.121127	1.096660
Cu111	Cu	0.760388	-0.661769	0.555869
Cu112	Cu	1.260388	-0.161769	1.055869
O113	O	0.647654	-0.564181	0.615509
O114	O	1.147654	-0.064181	1.115509
N115	N	0.846295	-0.690358	0.527176
N116	N	1.346295	-0.190358	1.027176
N117	N	0.114503	-0.154778	0.625499
N118	N	0.614503	0.345222	1.125499
O119	O	-0.033701	0.043855	0.619632
O120	O	0.466299	0.543855	1.119632
O121	O	0.130190	0.043858	0.498933
O122	O	0.630190	0.543858	0.998933
O123	O	0.026233	0.043841	0.499224
O124	O	0.526233	0.543841	0.999224
O125	O	0.070257	0.043872	0.619341
O126	O	0.570257	0.543872	1.119341
O127	O	0.060690	-0.059448	0.533654
O128	O	0.560690	0.440552	1.033654
O129	O	0.164647	-0.059431	0.533363
O130	O	0.664647	0.440569	1.033363
O131	O	0.000756	-0.059434	0.654062
O132	O	0.500756	0.440566	1.154062
Cu133	Cu	0.085848	-0.068863	0.596857
Cu134	Cu	0.585848	0.431137	1.096857
Cu135	Cu	0.045099	0.053287	0.556138
Cu136	Cu	0.545099	0.553287	1.056138
O137	O	0.104714	-0.059417	0.653771
O138	O	0.604714	0.440583	1.153771
N139	N	0.016435	0.139202	0.527497
N140	N	0.516435	0.639202	1.027497
N141	N	0.114760	-0.592585	1.063190
N142	N	0.614760	-0.092585	1.563190
O143	O	0.108896	-0.740779	1.261808
O144	O	0.608896	-0.240779	1.761808
O145	O	-0.011787	-0.576838	1.261822
O146	O	0.488213	-0.076838	1.761822
O147	O	-0.011509	-0.680779	1.261780
O148	O	0.488491	-0.180779	1.761780
O149	O	0.108618	-0.636838	1.261850
O150	O	0.608618	-0.136838	1.761850
O151	O	0.022916	-0.646341	1.158496
O152	O	0.522916	-0.146341	1.658496
O153	O	0.022638	-0.542399	1.158538
O154	O	0.522638	-0.042399	1.658538
O155	O	0.143321	-0.706341	1.158524
O156	O	0.643321	-0.206341	1.658524
Cu157	Cu	0.086123	-0.621225	1.149100
Cu158	Cu	0.586123	-0.121225	1.649100
Cu159	Cu	0.045411	-0.661953	1.271246
Cu160	Cu	0.545411	-0.161953	1.771246
O161	O	0.143044	-0.602399	1.158566
O162	O	0.643044	-0.102399	1.658566
N163	N	0.016774	-0.690600	1.357156
N164	N	0.516774	-0.190600	1.857156
C165	C	0.039504	-0.538867	0.499769
C166	C	0.539504	-0.038867	0.999769
C167	C	0.168130	-0.667407	0.499680
C168	C	0.668130	-0.167407	0.999680
C169	C	0.091482	-0.744243	0.653289
C170	C	0.591482	-0.244243	1.153289
C171	C	-0.037145	-0.615703	0.653378
C172	C	0.462855	-0.115703	1.153378
C173	C	0.699429	-0.718429	0.678853
C174	C	1.199429	-0.218429	1.178853
C175	C	0.699348	-0.718091	0.550135
C176	C	1.199348	-0.218091	1.050135
C177	C	0.699202	-0.564465	0.473677
C178	C	1.199202	-0.064465	0.973677
C179	C	0.699287	-0.564805	0.602393
C180	C	1.199287	-0.064805	1.102393
C181	C	0.168023	-0.007659	0.499484
C182	C	0.668023	0.492341	0.999484
C183	C	0.039327	-0.007807	0.499887
C184	C	0.539327	0.492193	0.999887
C185	C	-0.037119	-0.007789	0.653468
C186	C	0.462881	0.492211	1.153468
C187	C	0.091620	-0.007770	0.653109
C188	C	0.591620	0.492230	1.153109
C189	C	-0.011194	-0.538964	1.210181
C190	C	0.488806	-0.038964	1.710181
C191	C	-0.010843	-0.667676	1.210109
C192	C	0.489157	-0.167676	1.710109
C193	C	0.142729	-0.744214	1.210165
C194	C	0.642729	-0.244214	1.710165
C195	C	0.142386	-0.615494	1.210214
C196	C	0.642386	-0.115494	1.710214
H197	H	0.020147	-0.542732	1.058106
H198	H	0.520147	-0.042732	1.558106
H199	H	0.203661	-0.277820	0.570179
H200	H	0.703661	0.222180	1.070179
O201	O	0.102974	-0.007799	0.698074
O202	O	0.602974	0.492201	1.198074
C203	C	0.164014	-0.007782	0.675445
C204	C	0.664014	0.492218	1.175445
H205	H	0.193381	-0.027332	0.635576
H206	H	0.693381	0.472668	1.135576
H207	H	0.184927	-0.037774	0.714334
H208	H	0.684927	0.462226	1.214334
H209	H	0.163094	0.041770	0.658126
H210	H	0.663094	0.541770	1.158126
O211	O	0.028076	-0.007711	0.454816
O212	O	0.528076	0.492289	0.954816
C213	C	0.034966	0.045769	0.402434
C214	C	0.534966	0.545769	0.902434
H215	H	0.028246	0.083169	0.417282
H216	H	0.528246	0.583169	0.917282
H217	H	-0.001226	0.063713	0.380418
H218	H	0.498774	0.563713	0.880418
H219	H	0.083447	0.033672	0.367245
H220	H	0.583447	0.533672	0.867245
O221	O	-0.093317	-0.007670	0.698621
O222	O	0.406683	0.492330	1.198621
C223	C	-0.140144	0.045814	0.677378
C224	C	0.359856	0.545814	1.177378
H225	H	-0.118987	0.083196	0.638698
H226	H	0.381013	0.583196	1.138698
H227	H	-0.177202	0.063784	0.717407
H228	H	0.322798	0.563784	1.217407
H229	H	-0.162107	0.033713	0.658855
H230	H	0.337893	0.533713	1.158855
H231	H	0.699474	-0.756325	0.725922
H232	H	1.199474	-0.256325	1.225922
O233	O	0.104947	-0.283012	0.772843
O234	O	0.604947	0.216988	1.272843
C235	C	0.072255	-0.320658	0.788581
C236	C	0.572255	0.179342	1.288581
H237	H	0.050195	-0.301062	0.751971
H238	H	0.550195	0.198938	1.251971
H239	H	0.034420	-0.321435	0.835804
H240	H	0.534420	0.178565	1.335804
H241	H	0.105713	-0.369917	0.790695
H242	H	0.605713	0.130083	1.290695
H243	H	0.699366	-0.755841	0.540718
H244	H	1.199366	-0.255841	1.040718
O245	O	-0.093299	-0.604744	0.698584
O246	O	0.406701	-0.104744	1.198584
C247	C	-0.093352	-0.658146	0.752099
C248	C	0.406648	-0.158146	1.252099
H249	H	-0.056603	-0.700771	0.738414
H250	H	0.443397	-0.200771	1.238414
H251	H	-0.140980	-0.663693	0.775314
H252	H	0.359020	-0.163693	1.275314
H253	H	-0.082516	-0.653159	0.785844
H254	H	0.417484	-0.153159	1.285844
O255	O	0.028466	-0.482681	0.454609
O256	O	0.528466	0.017319	0.954609
C257	C	0.081822	-0.482545	0.401057
C258	C	0.581822	0.017455	0.901057
H259	H	0.124482	-0.519276	0.414687
H260	H	0.624482	-0.019276	0.914687
H261	H	0.087314	-0.434891	0.377870
H262	H	0.587314	0.065109	0.877870
H263	H	0.076814	-0.493357	0.367308
H264	H	0.576814	0.006643	0.867308
H265	H	0.180125	-0.606093	1.210228
H266	H	0.680125	-0.106093	1.710228
O267	O	-0.056339	-0.482769	1.210211
O268	O	0.443661	0.017231	1.710211
C269	C	-0.033981	-0.444125	1.210219
C270	C	0.466019	0.055875	1.710219
H271	H	0.005881	-0.473994	1.229783
H272	H	0.505881	0.026006	1.729783
H273	H	-0.073009	-0.414368	1.240208
H274	H	0.426991	0.085632	1.740208
H275	H	-0.016738	-0.412763	1.160674
H276	H	0.483262	0.087237	1.660674
O277	O	0.187856	-0.800426	1.210186
O278	O	0.687856	-0.300426	1.710186
C279	C	0.165511	-0.839059	1.210142
C280	C	0.665511	-0.339059	1.710142
H281	H	0.112614	-0.822232	1.229688
H282	H	0.612614	-0.322232	1.729688
H283	H	0.184553	-0.888813	1.240121
H284	H	0.684553	-0.388813	1.740121
H285	H	0.181296	-0.837373	1.160584
H286	H	0.681296	-0.337373	1.660584
O287	O	0.699382	-0.519786	0.613555
O288	O	1.199382	-0.019786	1.113555
C289	C	0.752828	-0.503031	0.570953
C290	C	1.252828	-0.003031	1.070953
H291	H	0.790224	-0.542803	0.552724
H292	H	1.290224	-0.042803	1.052724
H293	H	0.770797	-0.492960	0.595144
H294	H	1.270797	0.007040	1.095144
H295	H	0.740681	-0.459781	0.530544
H296	H	1.240681	0.040219	1.030544
H297	H	-0.048566	-0.677061	1.210046
H298	H	0.451434	-0.177061	1.710046
H299	H	0.212798	-0.639038	1.058038
H300	H	0.712798	-0.139038	1.558038
O301	O	0.052667	-0.497551	0.935159
O302	O	0.552667	0.002449	1.435159
C303	C	-0.008377	-0.488331	0.977811
C304	C	0.491623	0.011669	1.477811
H305	H	-0.008233	-0.527534	1.024146
H306	H	0.491767	-0.027534	1.524146
H307	H	-0.039260	-0.487984	0.959039
H308	H	0.460740	0.012016	1.459039
H309	H	-0.027002	-0.442020	0.984737
H310	H	0.472998	0.057980	1.484737
H311	H	0.252044	-0.599714	0.940097
H312	H	0.752044	-0.099714	1.440097
H313	H	0.699142	-0.526565	0.426612
H314	H	1.199142	-0.026565	0.926612
H315	H	0.059274	-0.503369	0.714648
H316	H	0.559274	-0.003369	1.214648
O317	O	0.224082	-0.007285	0.454219
O318	O	0.724082	0.492715	0.954219
C319	C	0.262707	-0.007173	0.476532
C320	C	0.762707	0.492827	0.976532
H321	H	0.232834	0.012181	0.516539
H322	H	0.732834	0.512181	1.016539
H323	H	0.292220	0.023053	0.437537
H324	H	0.792220	0.523053	0.937537
H325	H	0.294300	-0.056660	0.493560
H326	H	0.794300	0.443340	0.993560
H327	H	0.019945	-0.542665	0.675322
H328	H	0.519945	-0.042665	1.175322
H329	H	0.212545	-0.638970	0.578981
H330	H	0.712545	-0.138970	1.078981
O331	O	0.261928	-0.602085	0.615703
O332	O	0.761928	-0.102085	1.115703
C333	C	0.288884	-0.579819	0.550584
C334	C	0.788884	-0.079819	1.050584
H335	H	0.258044	-0.573451	0.527846
H336	H	0.758044	-0.073451	1.027846
H337	H	0.336710	-0.614651	0.535364
H338	H	0.836710	-0.114651	1.035364
H339	H	0.293697	-0.533352	0.535886
H340	H	0.793697	-0.033352	1.035886
H341	H	0.547237	-0.686258	0.663446
H342	H	1.047237	-0.186258	1.163446
O343	O	0.424231	-0.653517	0.707543
O344	O	0.924231	-0.153517	1.207543
C345	C	0.440121	-0.683968	0.667752
C346	C	0.940121	-0.183968	1.167752
H347	H	0.457964	-0.654360	0.617425
H348	H	0.957964	-0.154360	1.117425
H349	H	0.397371	-0.691282	0.675436
H350	H	0.897371	-0.191282	1.175436
H351	H	0.477875	-0.730884	0.678220
H352	H	0.977875	-0.230884	1.178220
O353	O	0.552221	-0.488776	0.585807
O354	O	1.052221	0.011224	1.085807
C355	C	0.509585	-0.428145	0.582335
C356	C	1.009585	0.071855	1.082335
H357	H	0.463236	-0.425609	0.586609
H358	H	0.963236	0.074391	1.086609
H359	H	0.528350	-0.393789	0.535867
H360	H	1.028350	0.106211	1.035867
H361	H	0.502694	-0.416008	0.621721
H362	H	1.002694	0.083992	1.121721
H363	H	0.215222	-0.676694	0.461838
H364	H	0.715222	-0.176694	0.961838
H365	H	0.100832	-0.791364	0.691090
H366	H	0.600832	-0.291364	1.191090
H367	H	0.429268	-0.456103	0.630015
H368	H	0.929268	0.043897	1.130015
H369	H	0.068098	-0.159910	0.723527
H370	H	0.568098	0.340090	1.223527
O371	O	0.166846	-0.154857	0.520834
O372	O	0.666846	0.345143	1.020834
C373	C	0.204461	-0.197482	0.488178
C374	C	0.704461	0.302518	0.988178
H375	H	0.228122	-0.243829	0.519171
H376	H	0.728122	0.256171	1.019171
H377	H	0.241221	-0.178687	0.444784
H378	H	0.741221	0.321313	0.944784
H379	H	0.174459	-0.204399	0.474173
H380	H	0.674459	0.295601	0.974173
