data_functionalizedCrystal
_audit_creation_method	'MofGen! by Chris Wilmer'
_symmetry_space_group_name_H-M	'P1'
_symmetry_Int_Tables_number	1
_symmetry_cell_setting	triclinic
loop_
_symmetry_equiv_pos_as_xyz
  x,y,z
_cell_length_a	19.188933
_cell_length_b	19.188925
_cell_length_c	9.730223
_cell_angle_alpha	89.995959
_cell_angle_beta	89.998127
_cell_angle_gamma	83.144059
loop_
_atom_site_label
_atom_site_type_symbol
_atom_site_fract_x
_atom_site_fract_y
_atom_site_fract_z
O1	O	0.926141	0.087174	-0.114243
O2	O	0.722830	0.098907	-0.114256
O3	O	0.830354	-0.008615	-0.114241
O4	O	0.818616	0.194696	-0.114258
O5	O	0.830348	-0.008618	0.114339
O6	O	0.722823	0.098904	0.114324
O7	O	0.926134	0.087171	0.114337
Zn8	Zn	0.824477	0.093037	0.150623
Zn9	Zn	0.824486	0.093041	-0.150541
O10	O	0.818609	0.194693	0.114322
C11	C	0.696815	0.098525	0.000033
C12	C	0.619311	0.097384	0.000028
C13	C	0.066059	0.089240	-0.124556
C14	C	0.138884	0.090308	-0.124561
C15	C	0.175297	0.090844	0.000038
C16	C	0.138882	0.090294	0.124651
C17	C	0.066060	0.089219	0.124652
N18	N	0.284313	0.132262	0.092779
N19	N	0.353491	0.133285	0.092768
C20	C	0.394705	0.094082	0.000040
N21	N	0.364128	0.053827	-0.092700
N22	N	0.294944	0.052807	-0.092693
C23	C	0.254260	0.092010	0.000049
C24	C	0.510076	0.095786	-0.124572
C25	C	0.582902	0.096850	-0.124572
C26	C	0.582899	0.096842	0.124643
C27	C	0.510075	0.095771	0.124640
C28	C	0.473668	0.095246	0.000029
C29	C	0.829972	-0.034628	0.000048
C30	C	0.828832	-0.112133	0.000045
C31	C	0.884296	-0.673902	0.000014
C32	C	0.885373	-0.601079	0.000026
C33	C	0.822281	-0.556145	0.000022
C34	C	0.758107	-0.584040	0.000040
C35	C	0.757033	-0.656862	0.000041
N36	N	0.776607	-0.435464	-0.077784
N37	N	0.777632	-0.366287	-0.077788
C38	C	0.825515	-0.336736	0.000021
N39	N	0.872344	-0.378977	0.077817
N40	N	0.871321	-0.448161	0.077815
C41	C	0.823439	-0.477181	0.000021
C42	C	0.890851	-0.229887	0.000026
C43	C	0.891925	-0.157062	0.000047
C44	C	0.764658	-0.140023	0.000047
C45	C	0.763586	-0.212847	0.000040
C46	C	0.826685	-0.257775	0.000023
C47	C	0.952149	0.087553	0.000045
C48	C	1.029653	0.088694	0.000041
C49	C	0.818992	0.220706	0.000030
C50	C	0.820131	0.298211	0.000024
N51	N	0.824476	0.093034	0.356159
N52	N	0.824493	0.093038	-0.356078
C53	C	0.872104	0.045443	0.428091
C54	C	0.872111	0.045443	0.571974
C55	C	0.776860	0.140632	0.571980
C56	C	0.776850	0.140628	0.428100
H57	H	0.612546	0.097276	0.226094
N58	N	0.693654	-0.538154	0.000011
N59	N	0.636365	-0.563066	0.000009
H60	H	0.590842	-0.530661	-0.000010
H61	H	0.480432	0.095356	-0.226037
H62	H	0.738085	0.179382	0.630568
N63	N	0.176091	0.090884	-0.251827
N64	N	0.241108	0.091853	-0.251804
H65	H	0.267385	0.092263	-0.341685
H66	H	0.612544	0.097289	-0.226037
H67	H	0.704780	-0.679566	0.000053
H68	H	0.942230	-0.266469	0.000013
H69	H	0.944178	-0.134359	0.000047
N70	N	0.176061	0.090860	0.251938
N71	N	0.143541	0.090382	0.363181
H72	H	0.169796	0.090783	0.453084
N73	N	0.028877	0.088680	-0.251841
N74	N	-0.005162	0.038871	-0.279645
H75	H	-0.031422	0.038472	-0.369543
H76	H	0.910883	0.006689	0.369521
N77	N	0.700216	-0.094124	0.000058
N78	N	0.701183	-0.029106	0.000065
H79	H	0.655669	0.003316	0.000078
H80	H	0.910893	0.006690	0.630538
H81	H	0.480432	0.095329	0.226100
N82	N	0.728187	0.189244	0.354634
N83	N	0.685671	0.231736	0.418879
H84	H	0.651302	0.266068	0.366995
H85	H	0.036418	0.088776	0.226117
H86	H	0.711336	-0.235552	0.000039
H87	H	0.937625	-0.578369	0.000018
N88	N	0.948754	-0.719783	-0.000007
N89	N	1.006041	-0.694869	-0.000017
H90	H	1.051566	-0.727273	-0.000031
