data_functionalizedCrystal
_audit_creation_method	'MofGen! by Chris Wilmer'
_symmetry_space_group_name_H-M	'P1'
_symmetry_Int_Tables_number	1
_symmetry_cell_setting	triclinic
loop_
_symmetry_equiv_pos_as_xyz
  x,y,z
_cell_length_a	16.109318
_cell_length_b	16.109301
_cell_length_c	13.448316
_cell_angle_alpha	89.991973
_cell_angle_beta	89.996821
_cell_angle_gamma	83.465022
loop_
_atom_site_label
_atom_site_type_symbol
_atom_site_fract_x
_atom_site_fract_y
_atom_site_fract_z
O1	O	1.103125	0.106938	-0.082612
O2	O	1.603125	0.606938	0.417388
O3	O	0.861065	0.120222	-0.082633
O4	O	1.361065	0.620222	0.417367
O5	O	0.988745	-0.007451	-0.082612
O6	O	1.488745	0.492549	0.417388
O7	O	0.975446	0.234610	-0.082633
O8	O	1.475446	0.734610	0.417367
O9	O	0.988729	-0.007459	0.082772
O10	O	1.488729	0.492541	0.582772
O11	O	0.861049	0.120214	0.082751
O12	O	1.361049	0.620214	0.582751
O13	O	1.103109	0.106930	0.082772
O14	O	1.603109	0.606930	0.582772
Cu15	Cu	0.982078	0.113571	0.097862
Cu16	Cu	1.482078	0.613571	0.597862
Cu17	Cu	0.982097	0.113581	-0.097723
Cu18	Cu	1.482097	0.613581	0.402277
O19	O	0.975430	0.234603	0.082751
O20	O	1.475430	0.734603	0.582751
C21	C	0.830083	0.119677	0.000057
C22	C	1.330083	0.619677	0.500057
C23	C	0.737788	0.118057	0.000049
C24	C	1.237788	0.618057	0.500049
C25	C	0.438723	0.112826	-0.090084
C26	C	0.938723	0.612826	0.409916
C27	C	0.525444	0.114343	-0.090090
C28	C	1.025444	0.614343	0.409910
C29	C	0.525446	0.114323	0.090221
C30	C	1.025446	0.614323	0.590221
C31	C	0.438727	0.112800	0.090226
C32	C	0.938727	0.612800	0.590226
C33	C	0.395367	0.112056	0.000071
C34	C	0.895367	0.612056	0.500071
C35	C	0.568807	0.115096	0.000059
C36	C	1.068807	0.615096	0.500059
C37	C	0.662835	0.116742	0.000053
C38	C	1.162835	0.616742	0.500053
C39	C	0.301334	0.110409	0.000076
C40	C	0.801334	0.610409	0.500076
C41	C	0.988198	-0.038430	0.000080
C42	C	1.488198	0.461570	0.500080
C43	C	0.986583	-0.130725	0.000082
C44	C	1.486583	0.369275	0.500082
C45	C	1.058590	-0.352993	0.000072
C46	C	1.558590	0.147007	0.500072
C47	C	1.057066	-0.439713	0.000064
C48	C	1.557066	0.060287	0.500064
C49	C	0.905579	-0.419848	0.000055
C50	C	1.405579	0.080152	0.500055
C51	C	0.907104	-0.333130	0.000056
C52	C	1.407104	0.166870	0.500056
C53	C	0.983612	-0.299704	0.000070
C54	C	1.483612	0.200296	0.500070
C55	C	0.980563	-0.473144	0.000060
C56	C	1.480563	0.026856	0.500060
C57	C	0.978910	-0.567170	0.000051
C58	C	1.478910	-0.067170	0.500051
C59	C	0.985265	-0.205672	0.000077
C60	C	1.485265	0.294328	0.500077
C61	C	1.134092	0.107474	0.000080
C62	C	1.634092	0.607474	0.500080
C63	C	1.226387	0.109095	0.000081
C64	C	1.726387	0.609095	0.500081
C65	C	0.975976	0.265581	0.000056
C66	C	1.475976	0.765581	0.500056
C67	C	0.977592	0.357877	0.000048
C68	C	1.477592	0.857877	0.500048
N69	N	0.982071	0.113564	0.235426
N70	N	1.482071	0.613564	0.735426
N71	N	0.982111	0.113581	-0.235288
N72	N	1.482111	0.613581	0.264712
C73	C	1.038625	0.057054	0.287476
C74	C	1.538625	0.557054	0.787476
C75	C	1.038630	0.057053	0.391579
C76	C	1.538630	0.557053	0.891579
C77	C	0.982084	0.113567	0.443631
C78	C	1.482084	0.613567	0.943631
C79	C	0.925524	0.170080	0.391574
C80	C	1.425524	0.670080	0.891574
C81	C	0.925516	0.170076	0.287473
C82	C	1.425516	0.670076	0.787473
C83	C	0.925547	0.170086	0.608554
C84	C	1.425547	0.670086	1.108554
C85	C	0.925557	0.170091	0.712663
C86	C	1.425557	0.670091	1.212663
C87	C	1.038661	0.057063	0.712661
C88	C	1.538661	0.557063	1.212661
C89	C	1.038653	0.057059	0.608559
C90	C	1.538653	0.557059	1.108559
C91	C	0.982094	0.113573	0.556510
C92	C	1.482094	0.613573	1.056510
H93	H	0.560741	0.114969	-0.163503
H94	H	1.060741	0.614969	0.336497
Cl95	Cl	0.809402	-0.461875	0.000038
Cl96	Cl	1.309402	0.038125	0.500038
Cl97	Cl	0.579960	0.115268	0.203552
Cl98	Cl	1.079960	0.615268	0.703552
Cl99	Cl	0.384218	0.111829	0.203572
Cl100	Cl	0.884218	0.611829	0.703572
H101	H	1.084674	0.011037	0.245102
H102	H	1.584674	0.511037	0.745102
Cl103	Cl	1.151329	-0.506702	0.000065
Cl104	Cl	1.651329	-0.006702	0.500065
Cl105	Cl	1.109727	-0.013990	0.457015
Cl106	Cl	1.609727	0.486010	0.957015
H107	H	0.846043	-0.289740	0.000051
H108	H	1.346043	0.210260	0.500051
H109	H	1.120888	-0.325781	0.000081
H110	H	1.620888	0.174219	0.500081
H111	H	1.084700	0.011045	0.566179
H112	H	1.584700	0.511045	1.066179
H113	H	1.084714	0.011047	0.755046
H114	H	1.584714	0.511047	1.255046
H115	H	0.879511	0.216110	0.755038
H116	H	1.379511	0.716110	1.255038
H117	H	0.879488	0.216103	0.566179
H118	H	1.379488	0.716103	1.066179
H119	H	0.879480	0.216093	0.433961
H120	H	1.379480	0.716093	0.933961
H121	H	0.403423	0.112219	-0.163494
H122	H	0.903423	0.612219	0.336506
Cl123	Cl	0.854413	0.241119	0.222040
Cl124	Cl	1.354413	0.741119	0.722040
