data_functionalizedCrystal
_audit_creation_method	'MofGen! by Chris Wilmer'
_symmetry_space_group_name_H-M	'P1'
_symmetry_Int_Tables_number	1
_symmetry_cell_setting	triclinic
loop_
_symmetry_equiv_pos_as_xyz
  x,y,z
_cell_length_a	19.288840
_cell_length_b	10.654541
_cell_length_c	17.766277
_cell_angle_alpha	89.993913
_cell_angle_beta	89.983415
_cell_angle_gamma	83.804972
loop_
_atom_site_label
_atom_site_type_symbol
_atom_site_fract_x
_atom_site_fract_y
_atom_site_fract_z
O1	O	0.922388	0.156507	-0.062720
O2	O	0.720264	0.177673	-0.062694
O3	O	0.825974	-0.015750	-0.062703
O4	O	0.816678	0.349930	-0.062711
O5	O	0.825955	-0.015760	0.062486
O6	O	0.720245	0.177663	0.062495
O7	O	0.922369	0.156497	0.062469
Cu8	Cu	0.821305	0.167079	0.073913
Cu9	Cu	0.821328	0.167091	-0.074137
O10	O	0.816659	0.349920	0.062478
C11	C	0.694373	0.176992	-0.000096
C12	C	0.617255	0.174963	-0.000086
C13	C	0.581056	0.173994	-0.068328
C14	C	0.508596	0.172074	-0.068337
C15	C	0.472341	0.171098	-0.000100
C16	C	0.508549	0.172074	0.068151
C17	C	0.581006	0.174007	0.068158
C18	C	0.362504	0.094477	0.052170
C19	C	0.290049	0.092536	0.052160
C20	C	0.248858	0.165142	-0.000120
C21	C	0.280133	0.239673	-0.052402
C22	C	0.352590	0.241606	-0.052395
C23	C	0.393773	0.169003	-0.000101
C24	C	0.134090	0.162093	-0.068377
C25	C	0.061628	0.160180	-0.068383
C26	C	0.061583	0.160168	0.068107
C27	C	0.134042	0.162093	0.068111
C28	C	0.170291	0.163049	-0.000133
C29	C	0.825282	-0.062538	-0.000109
C30	C	0.823241	-0.201938	-0.000110
C31	C	0.949647	-0.232635	-0.000117
C32	C	1.011888	-0.313472	-0.000118
C33	C	1.009966	-0.444448	-0.000120
C34	C	0.945796	-0.494589	-0.000123
C35	C	0.883555	-0.413753	-0.000121
C36	C	0.885484	-0.282775	-0.000117
C37	C	0.757151	-0.383056	-0.000120
C38	C	0.759071	-0.252079	-0.000112
C39	C	0.692981	-0.433197	-0.000123
C40	C	0.630738	-0.352360	-0.000115
C41	C	0.632663	-0.221376	-0.000112
C42	C	0.696830	-0.171242	-0.000111
C43	C	0.948260	0.157178	-0.000131
C44	C	1.025378	0.159207	-0.000146
C45	C	0.817351	0.396708	-0.000118
C46	C	0.819392	0.536108	-0.000122
N47	N	0.821295	0.167070	0.178043
N48	N	0.821344	0.167090	-0.178268
C49	C	0.868119	0.081465	0.217426
C50	C	0.868123	0.081459	0.296228
C51	C	0.821309	0.167080	0.335643
C52	C	0.774477	0.252692	0.296251
C53	C	0.774469	0.252687	0.217451
C54	C	0.812759	0.281503	0.460480
C55	C	0.812771	0.281509	0.539278
C56	C	0.821328	0.167095	0.578690
C57	C	0.829887	0.052670	0.539293
C58	C	0.829880	0.052665	0.460492
C59	C	0.821312	0.167095	0.421089
C60	C	0.868159	0.081476	0.703519
C61	C	0.868158	0.081469	0.782322
C62	C	0.774515	0.252713	0.782344
C63	C	0.774513	0.252710	0.703542
C64	C	0.821338	0.167093	0.664134
H65	H	0.479025	0.171283	0.123710
Br66	Br	0.801216	0.436797	0.407001
Br67	Br	0.931705	-0.034721	0.650034
H68	H	0.944236	-0.601239	-0.000134
Br69	Br	0.699448	0.006511	-0.000099
Br70	Br	0.543660	-0.420415	-0.000131
H71	H	0.691420	-0.539846	-0.000129
H72	H	0.610565	0.174773	-0.123898
Br73	Br	1.098971	-0.245418	-0.000123
Br74	Br	0.931664	-0.034731	0.163943
Br75	Br	0.548188	-0.111679	-0.000119
H76	H	0.032155	0.159399	-0.123956
Br77	Br	0.247609	-0.008580	0.123128
H78	H	0.736339	0.322399	0.185384
H79	H	0.805807	0.374681	0.571350
Br80	Br	0.012386	0.158862	0.160716
H81	H	0.906254	0.011746	0.328299
H82	H	0.163517	0.162874	0.123682
H83	H	0.610479	0.174797	0.123731
Br84	Br	0.841489	-0.102619	0.407026
Br85	Br	0.931704	-0.034730	0.835775
H86	H	0.951218	-0.125988	-0.000105
Br87	Br	0.710938	0.368886	0.349741
Br88	Br	0.841509	-0.102618	0.592769
Br89	Br	0.459457	0.170761	-0.160958
H90	H	1.060648	-0.510267	-0.000128
Br91	Br	0.710975	0.368902	0.835830
H92	H	0.163604	0.162885	-0.123945
Br93	Br	0.418398	-0.004064	0.123130
H94	H	0.378051	0.302294	-0.094963
Br95	Br	0.224241	0.338220	-0.123357
H96	H	0.736387	0.322423	0.671474
