data_functionalizedCrystal
_audit_creation_method	'MofGen! by Chris Wilmer'
_symmetry_space_group_name_H-M	'P1'
_symmetry_Int_Tables_number	1
_symmetry_cell_setting	triclinic
loop_
_symmetry_equiv_pos_as_xyz
  x,y,z
_cell_length_a	15.995292
_cell_length_b	15.995350
_cell_length_c	9.016244
_cell_angle_alpha	89.999993
_cell_angle_beta	89.991488
_cell_angle_gamma	83.480495
loop_
_atom_site_label
_atom_site_type_symbol
_atom_site_fract_x
_atom_site_fract_y
_atom_site_fract_z
O1	O	1.111020	0.107691	-0.123373
O2	O	0.867238	0.121070	-0.123366
O3	O	0.995793	-0.007509	-0.123368
O4	O	0.982465	0.236269	-0.123371
O5	O	0.995774	-0.007506	0.123312
O6	O	0.867219	0.121073	0.123315
O7	O	1.111001	0.107694	0.123308
Cu8	Cu	0.989108	0.114384	0.145835
Cu9	Cu	0.989130	0.114380	-0.145894
O10	O	0.982446	0.236272	0.123310
C11	C	0.836033	0.120527	-0.000025
C12	C	0.743080	0.118894	-0.000023
C13	C	0.405341	0.112893	-0.000039
C14	C	0.428654	0.205697	-0.000591
C15	C	0.525329	0.207461	-0.000029
C16	C	0.572897	0.115871	-0.000032
C17	C	0.543785	0.069475	0.140830
C18	C	0.446994	0.068358	0.140942
C19	C	0.447160	0.066459	-0.139580
C20	C	0.543653	0.069898	-0.141436
C21	C	0.667593	0.117549	-0.000023
C22	C	0.310646	0.111212	-0.000039
C23	C	0.995232	-0.038702	-0.000031
C24	C	0.993580	-0.131652	-0.000039
C25	C	0.987648	-0.469398	-0.000034
C26	C	0.896094	-0.421945	-0.000585
C27	C	0.897746	-0.325255	-0.000029
C28	C	0.990591	-0.301838	-0.000037
C29	C	1.035738	-0.342923	0.140826
C30	C	1.033438	-0.439559	0.140944
C31	C	1.035351	-0.439920	-0.139579
C32	C	1.035329	-0.342975	-0.141440
C33	C	0.992259	-0.207141	-0.000034
C34	C	0.985983	-0.564095	-0.000027
C35	C	1.142206	0.108237	-0.000037
C36	C	1.235159	0.109870	-0.000049
C37	C	0.983006	0.267466	-0.000031
C38	C	0.984658	0.360416	-0.000032
N39	N	0.989099	0.114386	0.351021
N40	N	0.989147	0.114372	-0.351080
C41	C	0.920123	0.182940	0.586055
C42	C	0.920272	0.183193	0.414164
C43	C	1.076469	0.133451	0.413357
C44	C	1.076091	0.133935	0.585302
C45	C	0.971576	0.026536	0.585566
C46	C	0.969562	0.027125	0.413612
H47	H	0.575653	0.002077	0.146066
O48	O	0.884429	0.007956	0.359651
H49	H	0.871088	-0.053808	0.404371
O50	O	0.570331	0.112153	0.279704
H51	H	0.604250	0.166400	0.248755
O52	O	0.390216	0.252828	0.132466
H53	H	0.440898	0.274749	0.201474
O54	O	0.411459	0.110913	0.280431
H55	H	0.342117	0.110531	0.281904
O56	O	0.994190	-0.305320	0.279694
H57	H	0.927102	-0.316987	0.281095
H58	H	0.859655	-0.441530	0.099870
O59	O	0.568257	0.114638	-0.279484
H60	H	0.510891	0.136727	-0.344024
O61	O	1.146169	0.070302	0.640393
H62	H	1.190499	0.102666	0.708560
H63	H	1.092317	0.196779	0.370278
O64	O	1.126089	-0.324228	0.147769
H65	H	1.156549	-0.353955	0.248263
H66	H	0.432443	0.000313	0.147339
H67	H	0.418841	0.095465	-0.246346
O68	O	0.587311	-0.018661	-0.152714
H69	H	0.630725	-0.031351	-0.057279
O70	O	0.995713	-0.467109	-0.281012
H71	H	0.941564	-0.501940	-0.253418
O72	O	0.847627	-0.446483	-0.134389
H73	H	0.783289	-0.412200	-0.132278
O74	O	0.428625	-0.024025	-0.140866
H75	H	0.389823	-0.035908	-0.042661
O76	O	0.889006	0.002255	0.643053
H77	H	0.859568	0.052528	0.717430
H78	H	1.016565	-0.026288	0.370635
O79	O	0.991671	-0.306803	-0.279483
H80	H	0.967662	-0.358134	-0.344029
H81	H	0.862256	-0.296827	-0.101005
H82	H	1.021911	-0.024490	0.626218
H83	H	1.103036	-0.327627	-0.149952
O84	O	0.550551	0.255613	-0.133750
H85	H	0.594712	0.213826	-0.203333
H86	H	1.102853	-0.471695	-0.140532
O87	O	0.934781	0.268797	0.643255
H88	H	0.878910	0.295991	0.707212
O89	O	0.549661	0.255858	0.134013
H90	H	0.580995	0.310763	0.097297
O91	O	0.391579	0.253084	-0.134400
H92	H	0.408893	0.318333	-0.132290
O93	O	0.850419	-0.288323	0.133971
H94	H	0.826268	-0.339536	0.198636
H95	H	1.129053	0.084838	0.372452
O96	O	0.989806	-0.463803	0.280419
H97	H	0.924717	-0.431286	0.282885
O98	O	1.122467	-0.482306	0.149448
H99	H	1.158664	-0.463800	0.052100
O100	O	0.834246	0.168168	0.358322
H101	H	0.792161	0.160658	0.454131
H102	H	0.854974	0.171769	0.627450
H103	H	0.931488	0.248376	0.373016
H104	H	1.091574	0.197993	0.625390
