data_functionalizedCrystal
_audit_creation_method	'MofGen! by Chris Wilmer'
_symmetry_space_group_name_H-M	'P1'
_symmetry_Int_Tables_number	1
_symmetry_cell_setting	triclinic
loop_
_symmetry_equiv_pos_as_xyz
  x,y,z
_cell_length_a	18.215407
_cell_length_b	18.215405
_cell_length_c	18.215399
_cell_angle_alpha	89.970050
_cell_angle_beta	89.985195
_cell_angle_gamma	90.017245
loop_
_atom_site_label
_atom_site_type_symbol
_atom_site_fract_x
_atom_site_fract_y
_atom_site_fract_z
Zn1	Zn	1.125061	-0.293082	-0.416078
Zn2	Zn	1.124981	-0.416159	-0.293013
Zn3	Zn	1.002000	-0.293099	-0.293030
Zn4	Zn	1.001964	-0.416100	-0.416042
O5	O	1.063501	-0.354610	-0.354541
O6	O	1.228035	-0.309426	-0.399761
O7	O	1.108648	-0.399866	-0.190031
O8	O	1.018373	-0.190112	-0.309375
O9	O	1.227975	-0.399850	-0.309346
O10	O	1.108786	-0.190100	-0.399778
O11	O	1.018295	-0.309454	-0.190043
O12	O	0.899011	-0.309397	-0.309340
O13	O	1.018312	-0.399750	-0.519031
O14	O	0.898985	-0.399766	-0.399716
O15	O	1.108751	-0.309369	-0.519058
O16	O	1.108613	-0.519135	-0.309311
O17	O	1.018234	-0.519092	-0.399700
C18	C	0.872295	-0.354577	-0.354526
C19	C	0.790496	-0.354581	-0.354538
C20	C	0.525464	-0.307617	-0.401695
C21	C	0.602323	-0.307605	-0.401693
C22	C	0.602280	-0.401626	-0.307402
C23	C	0.525423	-0.401642	-0.307409
C24	C	0.487017	-0.354632	-0.354554
C25	C	0.640733	-0.354606	-0.354545
C26	C	0.724066	-0.354593	-0.354543
C27	C	0.403678	-0.354646	-0.354558
C28	C	1.063431	-0.545816	-0.354515
C29	C	1.063468	-0.627615	-0.354529
C30	C	1.110568	-0.815741	-0.401666
C31	C	1.110595	-0.892600	-0.401680
C32	C	1.016526	-0.892726	-0.307461
C33	C	1.016496	-0.815869	-0.307452
C34	C	1.063521	-0.777378	-0.354553
C35	C	1.063578	-0.931094	-0.354576
C36	C	1.063606	-1.014428	-0.354591
C37	C	1.063492	-0.694039	-0.354540
C38	C	1.255454	-0.354643	-0.354556
C39	C	1.337253	-0.354657	-0.354562
C40	C	1.063536	-0.354551	-0.546494
C41	C	1.063551	-0.354526	-0.628293
C42	C	1.063592	-0.162657	-0.354582
C43	C	1.063631	-0.080858	-0.354600
C44	C	1.016544	-0.307417	-0.816494
C45	C	1.016557	-0.307402	-0.893353
C46	C	1.110646	-0.401547	-0.893329
C47	C	1.110629	-0.401565	-0.816472
C48	C	1.063579	-0.354496	-0.778056
C49	C	1.063609	-0.354463	-0.931772
C50	C	1.063623	-0.354447	-1.015106
C51	C	1.063564	-0.354512	-0.694717
C52	C	1.063509	-0.354615	-0.163335
C53	C	1.063637	-0.354433	-0.081536
H54	H	0.494118	-0.439932	-0.269021
H55	H	1.148858	-0.784404	-0.440019
F56	F	1.160718	-0.451638	-0.934220
H57	H	0.494196	-0.269339	-0.440084
H58	H	0.978241	-0.924074	-0.269112
H59	H	0.633623	-0.269321	-0.440080
F60	F	0.966487	-0.257302	-0.934258
H61	H	0.633560	-0.439898	-0.269017
H62	H	1.148904	-0.923832	-0.440045
H63	H	1.148933	-0.439905	-0.785175
H64	H	0.978181	-0.784631	-0.269087
H65	H	0.978233	-0.269090	-0.785219
