data_functionalizedCrystal
_audit_creation_method	'MofGen! by Chris Wilmer'
_symmetry_space_group_name_H-M	'P1'
_symmetry_Int_Tables_number	1
_symmetry_cell_setting	triclinic
loop_
_symmetry_equiv_pos_as_xyz
  x,y,z
_cell_length_a	17.699083
_cell_length_b	11.792241
_cell_length_c	16.176319
_cell_angle_alpha	89.993071
_cell_angle_beta	89.998611
_cell_angle_gamma	83.738215
loop_
_atom_site_label
_atom_site_type_symbol
_atom_site_fract_x
_atom_site_fract_y
_atom_site_fract_z
O1	O	1.004844	0.143527	-0.068631
O2	O	1.504844	0.643527	0.431369
O3	O	0.784565	0.162200	-0.068658
O4	O	1.284565	0.662200	0.431342
O5	O	0.900050	-0.012371	-0.068638
O6	O	1.400050	0.487629	0.431362
O7	O	0.889359	0.318098	-0.068651
O8	O	1.389359	0.818098	0.431349
O9	O	0.900034	-0.012382	0.068855
O10	O	1.400034	0.487618	0.568855
O11	O	0.784549	0.162189	0.068835
O12	O	1.284549	0.662189	0.568835
O13	O	1.004828	0.143516	0.068862
O14	O	1.504828	0.643516	0.568862
Cu15	Cu	0.894687	0.152851	0.081403
Cu16	Cu	1.394687	0.652851	0.581403
Cu17	Cu	0.894706	0.152865	-0.081199
Cu18	Cu	1.394706	0.652865	0.418801
O19	O	0.889343	0.318087	0.068842
O20	O	1.389343	0.818087	0.568842
C21	C	0.756356	0.161525	0.000085
C22	C	1.256356	0.661525	0.500085
C23	C	0.672328	0.159518	0.000075
C24	C	1.172328	0.659518	0.500075
C25	C	0.624253	0.261988	0.000071
C26	C	1.124253	0.761988	0.500071
C27	C	0.545299	0.260095	0.000082
C28	C	1.045299	0.760095	0.500082
C29	C	0.514422	0.155731	0.000091
C30	C	1.014422	0.655731	0.500091
C31	C	0.562503	0.053254	0.000097
C32	C	1.062503	0.553254	0.500097
C33	C	0.641455	0.055148	0.000092
C34	C	1.141455	0.555148	0.500092
C35	C	0.244099	0.045613	0.000118
C36	C	0.744099	0.545613	0.500118
C37	C	0.165141	0.043727	0.000120
C38	C	0.665141	0.543727	0.500120
C39	C	0.147944	0.250560	0.000108
C40	C	0.647944	0.750560	0.500108
C41	C	0.226896	0.252454	0.000103
C42	C	0.726896	0.752454	0.500103
C43	C	0.274970	0.149977	0.000113
C44	C	0.774970	0.649977	0.500113
C45	C	0.360580	0.152031	0.000103
C46	C	0.860580	0.652031	0.500103
C47	C	0.428814	0.153676	0.000095
C48	C	0.928814	0.653676	0.500095
C49	C	0.899370	-0.054660	0.000108
C50	C	1.399370	0.445340	0.500108
C51	C	0.897360	-0.180649	0.000107
C52	C	1.397360	0.319351	0.500107
C53	C	0.893664	-0.411317	0.000093
C54	C	1.393664	0.088683	0.500093
C55	C	0.895718	-0.282956	0.000101
C56	C	1.395718	0.217044	0.500101
C57	C	1.033036	0.144190	0.000117
C58	C	1.533036	0.644190	0.500117
C59	C	1.117065	0.146198	0.000122
C60	C	1.617065	0.646198	0.500122
C61	C	0.890022	0.360375	0.000094
C62	C	1.390022	0.860375	0.500094
C63	C	0.892032	0.486365	0.000090
C64	C	1.392032	0.986365	0.500090
N65	N	0.894679	0.152841	0.195768
N66	N	1.394679	0.652841	0.695768
N67	N	0.894720	0.152865	-0.195564
N68	N	1.394720	0.652865	0.304436
C69	C	0.945831	0.075573	0.239041
C70	C	1.445831	0.575573	0.739041
C71	C	0.945835	0.075572	0.325588
C72	C	1.445835	0.575572	0.825588
C73	C	0.894690	0.152845	0.368861
C74	C	1.394690	0.652845	0.868861
C75	C	0.843532	0.230118	0.325582
C76	C	1.343532	0.730118	0.825582
C77	C	0.843525	0.230113	0.239036
C78	C	1.343525	0.730113	0.739036
C79	C	0.843558	0.230139	0.674610
C80	C	1.343558	0.730139	1.174610
C81	C	0.843570	0.230140	0.761161
C82	C	1.343570	0.730140	1.261161
C83	C	0.945868	0.075598	0.761162
C84	C	1.445868	0.575598	1.261162
C85	C	0.945861	0.075593	0.674617
C86	C	1.445861	0.575593	1.174617
C87	C	0.894701	0.152861	0.631345
C88	C	1.394701	0.652861	1.131345
C89	C	0.894697	0.152860	0.537501
C90	C	1.394697	0.652860	1.037501
C91	C	0.894697	0.152853	0.462703
C92	C	1.394697	0.652853	0.962703
H93	H	0.680598	-0.028294	0.000095
H94	H	1.180598	0.471706	0.500095
O95	O	0.101135	0.350005	0.000142
O96	O	0.601135	0.850005	0.500142
C97	C	0.024828	0.325964	0.000130
C98	C	0.524828	0.825964	0.500130
H99	H	0.021435	0.236827	0.026170
H100	H	0.521435	0.736827	0.526170
H101	H	-0.010668	0.391296	0.040045
H102	H	0.489332	0.891296	0.540045
H103	H	0.002012	0.330329	-0.065831
H104	H	0.502012	0.830329	0.434169
O105	O	0.135057	-0.057587	0.000243
O106	O	0.635057	0.442413	0.500243
C107	C	0.089916	-0.064874	0.071464
C108	C	0.589916	0.435126	0.571464
H109	H	0.070624	0.024636	0.095194
H110	H	0.570624	0.524636	0.595194
H111	H	0.038034	-0.109969	0.055453
H112	H	0.538034	0.390031	0.555453
H113	H	0.124584	-0.115182	0.121332
H114	H	0.624584	0.384818	0.621332
O115	O	0.995571	0.000419	0.632711
O116	O	1.495571	0.500419	1.132711
C117	C	1.040734	-0.067765	0.689464
C118	C	1.540734	0.432235	1.189464
H119	H	1.009707	-0.068985	0.751162
H120	H	1.509707	0.431015	1.251162
H121	H	1.051907	-0.158428	0.664468
H122	H	1.551907	0.341572	1.164468
H123	H	1.097107	-0.031020	0.698655
H124	H	1.597107	0.468980	1.198655
H125	H	0.283232	-0.037830	0.000127
H126	H	0.783232	0.462170	0.500127
H127	H	0.801871	0.293031	0.203804
H128	H	1.301871	0.793031	0.703804
O129	O	0.793848	0.305046	0.803289
O130	O	1.293848	0.805046	1.303289
C131	C	0.746912	0.244340	0.853351
C132	C	1.246912	0.744340	1.353351
H133	H	0.776703	0.155475	0.866319
H134	H	1.276703	0.655475	1.366319
H135	H	0.735138	0.291733	0.914208
H136	H	1.235138	0.791733	1.414208
H137	H	0.690943	0.236724	0.820010
H138	H	1.190943	0.736724	1.320010
H139	H	0.987523	0.012679	0.796403
H140	H	1.487523	0.512679	1.296403
O141	O	0.793839	0.305309	0.632711
O142	O	1.293839	0.805309	1.132711
C143	C	0.748690	0.373494	0.689466
C144	C	1.248690	0.873494	1.189466
H145	H	0.779734	0.374719	0.751152
H146	H	1.279734	0.874719	1.251152
H147	H	0.737509	0.464156	0.664453
H148	H	1.237509	0.964156	1.164453
H149	H	0.692321	0.336747	0.698687
H150	H	1.192321	0.836747	1.198687
H151	H	0.801884	0.293032	0.360819
H152	H	1.301884	0.793032	0.860819
O153	O	0.257014	0.353734	0.000048
O154	O	0.757014	0.853734	0.500048
C155	C	0.337008	0.333431	0.000059
C156	C	0.837008	0.833431	0.500059
H157	H	0.355179	0.244807	-0.025959
H158	H	0.855179	0.744807	0.474041
H159	H	0.361518	0.400193	-0.039873
H160	H	0.861518	0.900193	0.460127
H161	H	0.359012	0.338879	0.066017
H162	H	0.859012	0.838879	0.566017
O163	O	0.654153	0.363440	-0.000048
O164	O	1.154153	0.863440	0.499952
C165	C	0.629638	0.425885	-0.071269
C166	C	1.129638	0.925885	0.428731
H167	H	0.574760	0.395102	-0.095004
H168	H	1.074760	0.895102	0.404996
H169	H	0.619065	0.520428	-0.055257
H170	H	1.119065	1.020428	0.444743
H171	H	0.675263	0.412622	-0.121135
H172	H	1.175263	0.912622	0.378865
O173	O	0.498491	0.359529	0.000104
O174	O	0.998491	0.859529	0.500104
C175	C	0.422185	0.335484	0.000090
C176	C	0.922185	0.835484	0.500090
H177	H	0.418792	0.246351	0.026137
H178	H	0.918792	0.746351	0.526137
H179	H	0.386686	0.400822	0.039997
H180	H	0.886686	0.900822	0.539997
H181	H	0.399373	0.339837	-0.065873
H182	H	0.899373	0.839837	0.434127
H183	H	0.537357	-0.031721	0.000116
H184	H	1.037357	0.468279	0.500116
H185	H	0.987487	0.012653	0.360821
H186	H	1.487487	0.512653	0.860821
O187	O	0.995543	0.000399	0.197138
O188	O	1.495543	0.500399	0.697138
C189	C	1.040704	-0.067782	0.253895
C190	C	1.540704	0.432218	0.753895
H191	H	1.009674	-0.069001	0.315592
H192	H	1.509674	0.430999	0.815592
H193	H	1.051879	-0.158446	0.228901
H194	H	1.551879	0.341554	0.728901
H195	H	1.097076	-0.031035	0.263089
H196	H	1.597076	0.468965	0.763089
