data_functionalizedCrystal
_audit_creation_method	'MofGen! by Chris Wilmer'
_symmetry_space_group_name_H-M	'P1'
_symmetry_Int_Tables_number	1
_symmetry_cell_setting	triclinic
loop_
_symmetry_equiv_pos_as_xyz
  x,y,z
_cell_length_a	10.540535
_cell_length_b	10.540539
_cell_length_c	9.730217
_cell_angle_alpha	89.998866
_cell_angle_beta	90.000969
_cell_angle_gamma	84.524567
loop_
_atom_site_label
_atom_site_type_symbol
_atom_site_fract_x
_atom_site_fract_y
_atom_site_fract_z
O1	O	1.685885	0.178871	-0.114208
O2	O	1.316471	0.195733	-0.114226
O3	O	1.509606	0.002595	-0.114215
O4	O	1.492750	0.372009	-0.114219
O5	O	1.509600	0.002593	0.114365
O6	O	1.316465	0.195731	0.114354
O7	O	1.685879	0.178869	0.114372
Zn8	Zn	1.501171	0.187300	0.150655
Zn9	Zn	1.501179	0.187302	-0.150509
O10	O	1.492744	0.372007	0.114361
C11	C	1.269165	0.194469	0.000061
C12	C	1.128217	0.190689	0.000054
C13	C	1.091546	0.049675	0.000061
C14	C	0.944946	0.045698	0.000594
C15	C	0.918878	0.255058	0.130346
C16	C	1.065643	0.258059	0.130442
C17	C	1.065534	0.260113	-0.129506
C18	C	0.919187	0.253591	-0.131204
C19	C	1.508339	-0.044709	0.000073
C20	C	1.504557	-0.185657	0.000065
C21	C	1.359640	-0.369081	-0.000455
C22	C	1.363474	-0.222463	0.000059
C23	C	1.572450	-0.247316	0.130599
C24	C	1.567635	-0.393861	0.130709
C25	C	1.570511	-0.394377	-0.129230
C26	C	1.571810	-0.247395	-0.130955
C27	C	1.733185	0.180133	0.000082
C28	C	1.874134	0.183913	0.000080
C29	C	1.494011	0.419311	0.000070
C30	C	1.497793	0.560259	0.000069
N31	N	1.501175	0.187297	0.356192
N32	N	1.501185	0.187295	-0.356046
C33	C	1.672267	0.016324	0.356192
C34	C	1.757821	-0.069158	0.428133
C35	C	1.757834	-0.069159	0.572012
C36	C	1.672281	0.016330	0.643955
C37	C	1.586727	0.101812	0.572015
C38	C	1.586725	0.101806	0.428132
C39	C	1.415631	0.272777	0.572014
C40	C	1.415622	0.272786	0.428134
C41	C	1.330078	0.358266	0.643957
C42	C	1.244528	0.443757	0.572017
C43	C	1.244519	0.443755	0.428128
C44	C	1.330068	0.358269	0.356194
H45	H	0.916491	-0.009671	0.094527
Cl46	Cl	1.865365	-0.176630	0.337688
H47	H	1.174871	0.513350	0.630601
H48	H	1.672415	-0.441605	-0.130102
Cl49	Cl	1.273591	-0.413231	-0.144981
Cl50	Cl	1.865382	-0.176631	0.662454
H51	H	1.304133	-0.399288	0.092623
H52	H	1.309673	-0.180707	0.093782
Cl53	Cl	1.127667	0.183874	0.281360
H54	H	1.672286	0.016313	0.761110
Cl55	Cl	1.099728	0.420313	-0.131417
H56	H	1.310052	-0.179858	-0.093513
Cl57	Cl	0.845766	0.412178	0.137265
H58	H	1.174846	0.513361	0.369562
Cl59	Cl	1.672276	0.016333	0.175314
Cl60	Cl	1.158631	-0.032536	0.144080
H61	H	1.517454	-0.422060	0.228280
H62	H	1.669100	-0.441831	0.136635
H63	H	1.524852	-0.425929	-0.228166
H64	H	0.887973	0.206245	0.227665
H65	H	1.676057	-0.224964	0.135457
Cl66	Cl	1.131086	0.192175	-0.282003
Cl67	Cl	1.101208	0.417657	0.139021
H68	H	1.330087	0.358257	0.761112
H69	H	0.890588	0.201816	-0.227577
Cl70	Cl	1.499630	-0.181554	0.280571
Cl71	Cl	1.156347	-0.033937	-0.144146
H72	H	0.870139	0.354464	-0.139476
H73	H	1.330073	0.358264	0.239040
H74	H	1.674671	-0.223175	-0.138832
Cl75	Cl	0.899649	-0.040207	-0.143549
Cl76	Cl	1.495756	-0.183562	-0.280070
