data_functionalizedCrystal
_audit_creation_method	'MofGen! by Chris Wilmer'
_symmetry_space_group_name_H-M	'P1'
_symmetry_Int_Tables_number	1
_symmetry_cell_setting	triclinic
loop_
_symmetry_equiv_pos_as_xyz
  x,y,z
_cell_length_a	8.559649
_cell_length_b	10.489741
_cell_length_c	7.088929
_cell_angle_alpha	83.712943
_cell_angle_beta	95.325015
_cell_angle_gamma	77.158919
loop_
_atom_site_label
_atom_site_type_symbol
_atom_site_fract_x
_atom_site_fract_y
_atom_site_fract_z
O1	O	2.103400	-0.028523	-0.158957
O2	O	1.638952	0.037276	-0.158967
O3	O	1.881746	-0.182335	-0.158950
O4	O	1.860607	0.191088	-0.158973
O5	O	1.914192	-0.211743	0.159027
O6	O	1.671399	0.007868	0.159010
O7	O	2.135846	-0.057931	0.159021
Cu8	Cu	1.906585	-0.027717	0.188049
Cu9	Cu	1.868214	0.007062	-0.187996
O10	O	1.893053	0.161680	0.159004
C11	C	1.595703	0.027558	0.000020
C12	C	1.418493	0.042401	0.000017
C13	C	1.896372	-0.244403	0.000037
C14	C	1.891596	-0.385529	0.000034
C15	C	1.737113	-0.437401	0.000016
C16	C	1.826086	-0.551707	0.156797
C17	C	1.794133	-0.522692	-0.156703
C18	C	1.980646	-0.497989	0.156944
C19	C	1.948657	-0.468948	-0.156697
C20	C	2.037747	-0.583242	0.000122
C21	C	2.179096	-0.048213	0.000029
C22	C	2.356304	-0.063054	0.000020
C23	C	1.878426	0.223748	0.000012
C24	C	1.883201	0.364876	0.000003
N25	N	1.933585	-0.052180	0.452539
N26	N	1.841226	0.031513	-0.452486
H27	H	1.336155	0.144049	-0.000000
H28	H	1.610115	-0.374390	0.000171
H29	H	2.029323	-0.138908	0.534202
H30	H	2.164884	-0.646061	0.000212
C31	C	1.756060	-0.600873	0.335854
C32	C	1.839602	-0.596765	0.536330
C33	C	1.769563	-0.645920	0.715379
C34	C	1.615983	-0.699183	0.693951
C35	C	1.532432	-0.703293	0.493466
C36	C	1.602471	-0.654138	0.314418
H37	H	1.953299	-0.557335	0.552200
H38	H	1.831414	-0.642878	0.863791
H39	H	1.564136	-0.735571	0.826493
H40	H	1.418735	-0.742723	0.477596
H41	H	1.540620	-0.657180	0.166006
C42	C	2.087160	-0.482218	0.336216
C43	C	2.111305	-0.344869	0.369403
C44	C	2.217810	-0.329094	0.548675
C45	C	2.300170	-0.450668	0.694760
C46	C	2.276026	-0.588026	0.661578
C47	C	2.169522	-0.603801	0.482306
H48	H	2.050335	-0.254865	0.261257
H49	H	2.235682	-0.227412	0.573237
H50	H	2.379011	-0.438991	0.827468
H51	H	2.336996	-0.678031	0.769724
H52	H	2.151650	-0.705484	0.457744
C53	C	1.687538	-0.538685	-0.335770
C54	C	1.538322	-0.595902	-0.314354
C55	C	1.431716	-0.611889	-0.493410
C56	C	1.474327	-0.570659	-0.693881
C57	C	1.623550	-0.513438	-0.715305
C58	C	1.730156	-0.497451	-0.536249
H59	H	1.506773	-0.626426	-0.165946
H60	H	1.321251	-0.654248	-0.477549
H61	H	1.395411	-0.582493	-0.826429
H62	H	1.655099	-0.482914	-0.863713
H63	H	1.840621	-0.455092	-0.552110
H64	H	1.438631	-0.164693	0.000017
H65	H	2.000441	-0.432522	-0.289249
H66	H	1.745507	0.118244	0.465862
