data_functionalizedCrystal
_audit_creation_method	'MofGen! by Chris Wilmer'
_symmetry_space_group_name_H-M	'P1'
_symmetry_Int_Tables_number	1
_symmetry_cell_setting	triclinic
loop_
_symmetry_equiv_pos_as_xyz
  x,y,z
_cell_length_a	18.215405
_cell_length_b	18.215407
_cell_length_c	18.215399
_cell_angle_alpha	89.983176
_cell_angle_beta	89.968171
_cell_angle_gamma	90.024268
loop_
_atom_site_label
_atom_site_type_symbol
_atom_site_fract_x
_atom_site_fract_y
_atom_site_fract_z
Zn1	Zn	-0.292966	1.125056	-0.416108
Zn2	Zn	-0.416042	1.124973	-0.293039
Zn3	Zn	-0.292995	1.001995	-0.293056
Zn4	Zn	-0.415996	1.001956	-0.416064
O5	O	-0.354500	1.063495	-0.354567
O6	O	-0.309299	1.228029	-0.399795
O7	O	-0.399751	1.108641	-0.190057
O8	O	-0.190007	1.018370	-0.309405
O9	O	-0.399723	1.227968	-0.309376
O10	O	-0.189985	1.108782	-0.399811
O11	O	-0.309349	1.018289	-0.190069
O12	O	-0.309304	0.899005	-0.309361
O13	O	-0.399644	1.018304	-0.519054
O14	O	-0.399672	0.898977	-0.399735
O15	O	-0.309254	1.108745	-0.519087
O16	O	-0.519020	1.108604	-0.309333
O17	O	-0.518986	1.018224	-0.399719
C18	C	-0.354487	0.872289	-0.354546
C19	C	-0.354499	0.790490	-0.354554
C20	C	-0.401628	0.602300	-0.401552
C21	C	-0.401630	0.525442	-0.401562
C22	C	-0.307384	0.525441	-0.307597
C23	C	-0.307379	0.602299	-0.307592
C24	C	-0.354505	0.640726	-0.354569
C25	C	-0.354513	0.487010	-0.354583
C26	C	-0.354515	0.403676	-0.354592
C27	C	-0.354502	0.724065	-0.354560
C28	C	-0.545706	1.063421	-0.354535
C29	C	-0.627505	1.063456	-0.354546
C30	C	-0.892555	1.110655	-0.307582
C31	C	-0.815697	1.110624	-0.307565
C32	C	-0.815702	1.016426	-0.401602
C33	C	-0.892560	1.016453	-0.401614
C34	C	-0.930984	1.063572	-0.354605
C35	C	-0.777268	1.063514	-0.354576
C36	C	-0.693935	1.063481	-0.354558
C37	C	-1.014323	1.063604	-0.354622
C38	C	-0.162547	1.063589	-0.354615
C39	C	-0.080748	1.063630	-0.354635
C40	C	-0.354441	1.063530	-0.546520
C41	C	-0.354416	1.063544	-0.628319
C42	C	-0.354513	1.255448	-0.354588
C43	C	-0.354518	1.337247	-0.354598
C44	C	-0.307311	1.016538	-0.816520
C45	C	-0.307297	1.016551	-0.893379
C46	C	-0.401432	1.110639	-0.893355
C47	C	-0.401450	1.110622	-0.816498
C48	C	-0.354386	1.063572	-0.778082
C49	C	-0.354353	1.063602	-0.931798
C50	C	-0.354337	1.063616	-1.015132
C51	C	-0.354402	1.063557	-0.694743
C52	C	-0.354505	1.063503	-0.163360
C53	C	-0.354323	1.063630	-0.081562
H54	H	-0.439999	0.633586	-0.439806
Br55	Br	-0.465302	1.174488	-0.945495
Br56	Br	-0.243414	0.654453	-0.243831
Br57	Br	-0.944701	1.174599	-0.243783
Br58	Br	-0.465583	0.473295	-0.465332
H59	H	-0.268989	0.978228	-0.785244
H60	H	-0.784410	1.148963	-0.269273
H61	H	-0.923849	0.978109	-0.439908
Br62	Br	-0.243431	0.473285	-0.243846
Br63	Br	-0.763550	0.952488	-0.465402
Br64	Br	-0.243420	0.952703	-0.945542
Br65	Br	-0.465347	1.174453	-0.764327
