data_functionalizedCrystal
_audit_creation_method	'MofGen! by Chris Wilmer'
_symmetry_space_group_name_H-M	'P1'
_symmetry_Int_Tables_number	1
_symmetry_cell_setting	triclinic
loop_
_symmetry_equiv_pos_as_xyz
  x,y,z
_cell_length_a	6.817900
_cell_length_b	7.190410
_cell_length_c	7.076105
_cell_angle_alpha	96.845923
_cell_angle_beta	62.298168
_cell_angle_gamma	119.389325
loop_
_atom_site_label
_atom_site_type_symbol
_atom_site_fract_x
_atom_site_fract_y
_atom_site_fract_z
V1	V	4.285428	0.291767	-0.663506
V2	V	4.785428	0.791767	-0.163506
O3	O	4.178752	-0.017451	-0.652443
O4	O	4.678752	0.482549	-0.152443
O5	O	4.321029	0.581824	-0.657461
O6	O	4.821029	1.081824	-0.157461
O7	O	4.310673	0.285774	-0.953572
O8	O	4.810673	0.785774	-0.453572
O9	O	4.189179	0.280649	-0.354282
O10	O	4.689179	0.780649	0.145718
V11	V	4.748629	0.254959	-0.626704
V12	V	5.248629	0.754959	-0.126704
O13	O	4.591265	0.372509	-0.744236
O14	O	5.091265	0.872509	-0.244236
O15	O	4.892990	0.174217	-0.545974
O16	O	5.392990	0.674217	-0.045974
O17	O	4.489822	-0.035098	-0.632749
O18	O	4.989822	0.464902	-0.132749
O19	O	4.972702	0.564176	-0.637767
O20	O	5.472702	1.064176	-0.137767
O21	O	4.962275	0.266077	-0.935927
O22	O	5.462275	0.766077	-0.435927
O23	O	4.500178	0.260952	-0.336638
O24	O	5.000178	0.760952	0.163362
C25	C	4.297078	0.894153	-0.643575
C26	C	4.797078	1.394153	-0.143575
C27	C	4.184074	0.652574	-0.646603
C28	C	4.684074	1.152574	-0.146603
C29	C	4.177820	0.274926	-0.024320
C30	C	4.677820	0.774926	0.475680
C31	C	4.303352	0.271832	-0.265888
C32	C	4.803352	0.771832	0.234112
