data_functionalizedCrystal
_audit_creation_method	'MofGen! by Chris Wilmer'
_symmetry_space_group_name_H-M	'P1'
_symmetry_Int_Tables_number	1
_symmetry_cell_setting	triclinic
loop_
_symmetry_equiv_pos_as_xyz
  x,y,z
_cell_length_a	21.395364
_cell_length_b	12.594516
_cell_length_c	21.395355
_cell_angle_alpha	89.988593
_cell_angle_beta	89.975448
_cell_angle_gamma	90.031004
loop_
_atom_site_label
_atom_site_type_symbol
_atom_site_fract_x
_atom_site_fract_y
_atom_site_fract_z
Zn1	Zn	0.957923	-0.423441	-0.354292
Zn2	Zn	0.957852	-0.601405	-0.249528
Zn3	Zn	0.853138	-0.423487	-0.249529
Zn4	Zn	0.853134	-0.601424	-0.354268
O5	O	0.905512	-0.512439	-0.301904
O6	O	1.045591	-0.447021	-0.340405
O7	O	0.943934	-0.577815	-0.161850
O8	O	0.867069	-0.274535	-0.263437
O9	O	1.045540	-0.577770	-0.263435
O10	O	0.944054	-0.274501	-0.340406
O11	O	0.867001	-0.447100	-0.161851
O12	O	0.765460	-0.447119	-0.263413
O13	O	0.867062	-0.577803	-0.441949
O14	O	0.765457	-0.577848	-0.340365
O15	O	0.944050	-0.447039	-0.441967
O16	O	0.943930	-0.750353	-0.263411
O17	O	0.866994	-0.750367	-0.340363
C18	C	0.742724	-0.512491	-0.301887
C19	C	0.673083	-0.512539	-0.301894
C20	C	0.640419	-0.444569	-0.342034
C21	C	0.574984	-0.444541	-0.342037
C22	C	0.542215	-0.512501	-0.301906
C23	C	0.574886	-0.580476	-0.261758
C24	C	0.640320	-0.580495	-0.261752
C25	C	0.438505	-0.608355	-0.296875
C26	C	0.373072	-0.608338	-0.296885
C27	C	0.340394	-0.512443	-0.301920
C28	C	0.373157	-0.416562	-0.306957
C29	C	0.438591	-0.416581	-0.306951
C30	C	0.471262	-0.512488	-0.301907
C31	C	0.236778	-0.444436	-0.342065
C32	C	0.171341	-0.444406	-0.342063
C33	C	0.171245	-0.580351	-0.261787
C34	C	0.236680	-0.580372	-0.261785
C35	C	0.269443	-0.512416	-0.301928
C36	C	0.905471	-0.788980	-0.301898
C37	C	0.905510	-0.907286	-0.301917
C38	C	0.863661	-0.976585	-0.343741
C39	C	0.848391	-1.047432	-0.286569
C40	C	0.920837	-1.047238	-0.359098
C41	C	0.890211	-0.976575	-0.244714
C42	C	0.962683	-0.976374	-0.317282
C43	C	0.947435	-1.047189	-0.260070
C44	C	1.068935	-0.512388	-0.301922
C45	C	1.138576	-0.512366	-0.301930
C46	C	0.905564	-0.512418	-0.465328
C47	C	0.905586	-0.512409	-0.534969
C48	C	0.905570	-0.234818	-0.301924
C49	C	0.905595	-0.116513	-0.301933
C50	C	0.945672	-0.444317	-0.567692
C51	C	0.945671	-0.444271	-0.633128
C52	C	0.905591	-0.512336	-0.665837
C53	C	0.865497	-0.580432	-0.633106
C54	C	0.865495	-0.580469	-0.567672
C55	C	0.900629	-0.608176	-0.769510
C56	C	0.900636	-0.608141	-0.834943
C57	C	0.905595	-0.512224	-0.867658
C58	C	0.910560	-0.416337	-0.834933
C59	C	0.910557	-0.416374	-0.769498
C60	C	0.905589	-0.512304	-0.736790
C61	C	0.945682	-0.444077	-0.971334
C62	C	0.945677	-0.444029	-1.036771
C63	C	0.865506	-0.580200	-1.036748
C64	C	0.865508	-0.580238	-0.971312
C65	C	0.905599	-0.512178	-0.938610
C66	C	0.905496	-0.512384	-0.139117
C67	C	0.905595	-0.512093	-0.069476
H68	H	0.465106	-0.686449	-0.292775
H69	H	0.263275	-0.635724	-0.229101
H70	H	0.832865	-0.635608	-1.063379
H71	H	0.828207	-0.945582	-0.379060
H72	H	0.978313	-0.388817	-0.659777
H73	H	0.144565	-0.635686	-0.229111
H74	H	0.800081	-1.078667	-0.273587
H75	H	0.978317	-0.388896	-0.541070
Br76	Br	0.917292	-0.286250	-0.725086
Br77	Br	0.811087	-0.672884	-0.523258
Br78	Br	0.281245	-0.352207	-0.396538
H79	H	0.877226	-0.945664	-0.196349
H80	H	0.933766	-1.078277	-0.407450
H81	H	0.666915	-0.635846	-0.229064
Br82	Br	0.684880	-0.352344	-0.396513
Br83	Br	0.811103	-0.672655	-0.926899
Br84	Br	0.917295	-0.286154	-0.879323
Br85	Br	1.000088	-0.351709	-0.926948
Br86	Br	1.000094	-0.351627	-1.081183
H87	H	1.010982	-0.945142	-0.330292
H88	H	0.896597	-0.686218	-0.861583
H89	H	0.346401	-0.686410	-0.292786
H90	H	0.896424	-0.686263	-0.742879
H91	H	0.465264	-0.338511	-0.311051
Br92	Br	0.530416	-0.672701	-0.207288
H93	H	0.548384	-0.389186	-0.374723
Br94	Br	0.328817	-0.286409	-0.313791
Br95	Br	1.006486	-1.098536	-0.201066
Br96	Br	0.811098	-0.672799	-0.677496
H97	H	0.144747	-0.389051	-0.374749
