data_functionalizedCrystal
_audit_creation_method	'MofGen! by Chris Wilmer'
_symmetry_space_group_name_H-M	'P1'
_symmetry_Int_Tables_number	1
_symmetry_cell_setting	triclinic
loop_
_symmetry_equiv_pos_as_xyz
  x,y,z
_cell_length_a	10.723024
_cell_length_b	26.809956
_cell_length_c	10.723024
_cell_angle_alpha	89.996723
_cell_angle_beta	95.532131
_cell_angle_gamma	90.015767
loop_
_atom_site_label
_atom_site_type_symbol
_atom_site_fract_x
_atom_site_fract_y
_atom_site_fract_z
O1	O	1.657210	0.041475	-0.175025
O2	O	1.294057	0.041477	-0.191778
O3	O	1.484010	0.041474	-0.001825
O4	O	1.467257	0.041478	-0.364977
O5	O	1.483951	-0.041485	-0.001824
O6	O	1.293998	-0.041483	-0.191777
O7	O	1.657151	-0.041484	-0.175024
Zn8	Zn	1.475565	-0.054655	-0.183400
Zn9	Zn	1.475643	0.054647	-0.183401
O10	O	1.467198	-0.041482	-0.364977
C11	C	1.247528	-0.000003	-0.190558
C12	C	1.108974	-0.000002	-0.186911
N13	N	1.475521	-0.129251	-0.183399
C14	C	1.033991	-0.000001	-0.293198
C15	C	0.890788	-0.000000	-0.289431
C16	C	1.551956	-0.473877	-0.259766
C17	C	1.551997	-0.682754	-0.259766
O18	O	1.616952	-0.709758	-0.324682
N19	N	1.475673	-0.708878	-0.183389
C20	C	1.399339	-0.682779	-0.107001
O21	O	1.334431	-0.709792	-0.042028
C22	C	1.399306	-0.473902	-0.106996
C23	C	1.475626	-0.447781	-0.183387
C24	C	1.628271	-0.447756	-0.336150
C25	C	1.628255	-0.395539	-0.336155
C26	C	1.551925	-0.369444	-0.259775
C27	C	1.475610	-0.395565	-0.183391
C28	C	1.322980	-0.447805	-0.030602
C29	C	1.322981	-0.395582	-0.030605
C30	C	1.399301	-0.369461	-0.106996
C31	C	1.399264	-0.317254	-0.107016
N32	N	1.475588	-0.291130	-0.183393
C33	C	1.551918	-0.317225	-0.259772
C34	C	1.399360	-0.792443	-0.107011
C35	C	1.399366	-0.844661	-0.107014
C36	C	1.552026	-0.844633	-0.259777
C37	C	1.552012	-0.792413	-0.259780
C38	C	1.475684	-0.766319	-0.183388
C39	C	1.551878	-0.207567	-0.259777
C40	C	1.551852	-0.155346	-0.259778
C41	C	1.399197	-0.155379	-0.107010
C42	C	1.399218	-0.207596	-0.107013
C43	C	1.475569	-0.233688	-0.183400
O44	O	1.334353	-0.290218	-0.042124
O45	O	1.616837	-0.290203	-0.324715
C46	C	1.551972	-0.526093	-0.259762
C47	C	1.475658	-0.552214	-0.183378
C48	C	1.399327	-0.526119	-0.106999
C49	C	1.475664	-0.604433	-0.183381
C50	C	1.551995	-0.630528	-0.259760
C51	C	1.628319	-0.604404	-0.336137
C52	C	1.628303	-0.552188	-0.336141
C53	C	1.323003	-0.552243	-0.030622
C54	C	1.323024	-0.604459	-0.030625
C55	C	1.399355	-0.630554	-0.107004
C56	C	1.703680	-0.000004	-0.176243
C57	C	1.842234	-0.000001	-0.179891
C58	C	1.482762	-0.000005	0.044675
C59	C	1.479114	-0.000003	0.183229
N60	N	1.475697	0.129243	-0.183393
C61	C	1.468447	-0.000001	-0.411477
C62	C	1.472094	0.000000	-0.550031
C63	C	1.585401	-0.000003	0.258212
C64	C	1.581634	-0.000001	0.401415
H65	H	1.075814	-0.000003	-0.386984
H66	H	1.385328	0.000000	0.225051
F67	F	0.926441	0.000001	-0.060950
H68	H	0.826355	0.000003	-0.380421
F69	F	1.633139	-0.235330	-0.341076
H70	H	1.672624	-0.000003	0.465848
H71	H	1.690450	-0.530925	-0.398347
H72	H	1.067152	0.000010	-0.093125
H73	H	1.614000	-0.134081	-0.321991
F74	F	1.709470	-0.367746	-0.417477
H75	H	1.690435	-0.468997	-0.398348
F76	F	1.353153	-0.000004	0.365762
H77	H	1.614158	-0.771149	-0.321985
H78	H	1.614172	-0.865889	-0.321973
H79	H	1.337204	-0.865925	-0.044823
H80	H	1.337201	-0.771201	-0.044799
H81	H	1.260834	-0.469063	0.031606
H82	H	1.260825	-0.374339	0.031605
H83	H	1.337057	-0.228864	-0.044825
H84	H	1.337047	-0.134123	-0.044828
H85	H	1.260863	-0.625722	0.031579
F86	F	1.709550	-0.632186	-0.417431
F87	F	1.241742	-0.524477	0.050662
F88	F	1.707991	-0.000001	0.203554
