data_functionalizedCrystal
_audit_creation_method	'MofGen! by Chris Wilmer'
_symmetry_space_group_name_H-M	'P1'
_symmetry_Int_Tables_number	1
_symmetry_cell_setting	triclinic
loop_
_symmetry_equiv_pos_as_xyz
  x,y,z
_cell_length_a	12.594517
_cell_length_b	17.077402
_cell_length_c	17.077395
_cell_angle_alpha	90.028524
_cell_angle_beta	89.983950
_cell_angle_gamma	89.977317
loop_
_atom_site_label
_atom_site_type_symbol
_atom_site_fract_x
_atom_site_fract_y
_atom_site_fract_z
Zn1	Zn	1.627161	0.312522	-0.443844
Zn2	Zn	1.627047	0.443794	-0.312575
Zn3	Zn	1.449181	0.312546	-0.312591
Zn4	Zn	1.449126	0.443749	-0.443798
O5	O	1.538129	0.378153	-0.378202
O6	O	1.776092	0.329944	-0.426444
O7	O	1.603428	0.426412	-0.202730
O8	O	1.472862	0.202696	-0.330028
O9	O	1.776008	0.426389	-0.330001
O10	O	1.603622	0.202678	-0.426459
O11	O	1.472751	0.329985	-0.202742
O12	O	1.300228	0.329941	-0.329983
O13	O	1.472767	0.426313	-0.553651
O14	O	1.300187	0.426336	-0.426380
O15	O	1.603569	0.329901	-0.553685
O16	O	1.603374	0.553635	-0.329956
O17	O	1.472657	0.553602	-0.426365
C18	C	1.538026	0.582101	-0.378171
C19	C	1.538079	0.669351	-0.378184
C20	C	1.261588	0.378137	-0.378179
C21	C	1.143282	0.378149	-0.378188
C22	C	1.538174	0.378100	-0.582946
C23	C	1.538194	0.378077	-0.670196
C24	C	1.074020	0.325649	-0.325857
C25	C	1.003200	0.397250	-0.306544
C26	C	1.003304	0.306583	-0.397514
C27	C	1.074020	0.449788	-0.358837
C28	C	1.074130	0.359073	-0.449841
C29	C	1.003342	0.430724	-0.430554
C30	C	1.815750	0.378169	-0.378226
C31	C	1.934055	0.378176	-0.378236
C32	C	1.538261	0.173409	-0.378251
C33	C	1.538317	0.086159	-0.378271
C34	C	1.606214	0.710332	-0.328037
C35	C	1.606266	0.792312	-0.328057
C36	C	1.538177	0.833310	-0.378220
C37	C	1.470040	0.792323	-0.428372
C38	C	1.469994	0.710344	-0.428355
C39	C	1.470139	0.963193	-0.428402
C40	C	1.470183	1.045178	-0.428418
C41	C	1.606410	1.045161	-0.328104
C42	C	1.606364	0.963182	-0.328087
C43	C	1.538225	0.922201	-0.378238
C44	C	1.606420	0.327768	-1.046030
C45	C	1.606399	0.327796	-0.964049
C46	C	1.538282	0.378003	-0.923045
C47	C	1.470190	0.428191	-0.964026
C48	C	1.470217	0.428166	-1.046005
C49	C	1.470134	0.428236	-0.793156
C50	C	1.470105	0.428259	-0.711171
C51	C	1.606316	0.327866	-0.711200
C52	C	1.606344	0.327841	-0.793179
C53	C	1.538250	0.378029	-0.834154
C54	C	1.538145	0.378149	-0.174254
C55	C	1.538331	0.377951	-0.087005
H56	H	1.105054	0.281294	-0.281549
C57	C	1.681287	0.272589	-0.918973
C58	C	1.764814	0.306620	-0.862610
C59	C	1.839704	0.251411	-0.817532
C60	C	1.831067	0.162171	-0.828817
C61	C	1.747537	0.128135	-0.885183
C62	C	1.672647	0.183344	-0.930261
H63	H	1.771211	0.372686	-0.854253
H64	H	1.901539	0.276607	-0.775806
H65	H	1.886505	0.121301	-0.795448
H66	H	1.741141	0.062070	-0.893540
H67	H	1.610813	0.158148	-0.971987
H68	H	1.661806	0.286955	-0.826563
H69	H	1.414606	0.825710	-0.469219
C70	C	1.395042	0.665260	-0.483514
C71	C	1.274054	0.676605	-0.477027
C72	C	1.199103	0.631522	-0.532190
C73	C	1.245141	0.575094	-0.593839
C74	C	1.366135	0.563747	-0.600328
C75	C	1.441086	0.608831	-0.545165
H76	H	1.239968	0.718378	-0.431389
H77	H	1.109535	0.639922	-0.527386
H78	H	1.189658	0.541721	-0.634674
H79	H	1.400221	0.521974	-0.645967
H80	H	1.530654	0.600430	-0.549969
C81	C	0.961338	0.224809	-0.419578
C82	C	0.989243	0.153504	-0.368388
C83	C	0.947281	0.071729	-0.390444
C84	C	0.877413	0.061257	-0.463688
C85	C	0.849504	0.132564	-0.514882
C86	C	0.891466	0.214340	-0.492827
H87	H	1.040967	0.161254	-0.314164
H88	H	0.967942	0.018943	-0.352546
H89	H	0.846350	0.000722	-0.480015
H90	H	0.797780	0.124815	-0.569107
H91	H	0.870805	0.267125	-0.530725
C92	C	1.681353	0.272540	-1.091131
C93	C	1.756255	0.217344	-1.046055
C94	C	1.831193	0.162117	-1.091153
C95	C	1.831228	0.162085	-1.181327
C96	C	1.756323	0.217282	-1.226407
C97	C	1.681386	0.272510	-1.181309
H98	H	1.756231	0.217366	-0.979298
H99	H	1.886642	0.121256	-1.057781
H100	H	1.886702	0.121202	-1.214711
H101	H	1.756347	0.217260	-1.293164
H102	H	1.625936	0.313371	-1.214682
C103	C	0.961103	0.419081	-0.224718
C104	C	0.990558	0.498493	-0.187919
C105	C	0.948465	0.520322	-0.106093
C106	C	0.876916	0.462739	-0.061065
C107	C	0.847457	0.383322	-0.097864
C108	C	0.889550	0.361492	-0.179690
H109	H	1.043526	0.541124	-0.221251
H110	H	0.970273	0.579112	-0.078852
H111	H	0.845756	0.478898	-0.000493
H112	H	0.794488	0.340690	-0.064532
H113	H	0.867742	0.302702	-0.206931
C114	C	1.115799	0.531589	-0.336679
C115	C	1.236204	0.546681	-0.332524
C116	C	1.277984	0.628478	-0.310363
C117	C	1.199361	0.695184	-0.292356
C118	C	1.078949	0.680094	-0.296510
C119	C	1.037168	0.598297	-0.318672
H120	H	1.294412	0.497299	-0.345854
H121	H	1.367122	0.639648	-0.307288
H122	H	1.230289	0.755736	-0.275951
H123	H	1.020740	0.729476	-0.283180
H124	H	0.948031	0.587126	-0.321747
C125	C	1.395245	0.483446	-0.838237
C126	C	1.403874	0.572687	-0.826948
C127	C	1.328989	0.627895	-0.872032
C128	C	1.245476	0.593863	-0.928405
C129	C	1.236843	0.504618	-0.939697
C130	C	1.311727	0.449409	-0.894612
H131	H	1.465699	0.597884	-0.785214
H132	H	1.335380	0.693960	-0.863673
H133	H	1.190042	0.634731	-0.961779
H134	H	1.175018	0.479421	-0.981430
H135	H	1.305337	0.383344	-0.902972
H136	H	1.661758	0.287000	-0.677834
H137	H	0.972503	0.475185	-0.474829
H138	H	1.661655	0.676957	-0.287186
H139	H	1.414773	0.469031	-1.079366
C140	C	1.681221	0.837387	-0.272896
C141	C	1.672608	0.826184	-0.183651
C142	C	1.747572	0.871256	-0.128489
C143	C	1.831150	0.927530	-0.162573
C144	C	1.839767	0.938735	-0.251823
C145	C	1.764803	0.893664	-0.306984
H146	H	1.610735	0.784524	-0.158416
H147	H	1.741193	0.862960	-0.062421
H148	H	1.886643	0.960895	-0.121739
H149	H	1.901640	0.980395	-0.277058
H150	H	1.771182	0.901959	-0.373053
H151	H	1.661802	0.929802	-0.287237
H152	H	1.414759	1.078556	-0.469279
C153	C	1.395182	0.918110	-0.483563
C154	C	1.274195	0.929457	-0.477068
C155	C	1.199235	0.884372	-0.532223
C156	C	1.245262	0.827941	-0.593872
C157	C	1.366255	0.816591	-0.600369
C158	C	1.441215	0.861676	-0.545215
H159	H	1.240117	0.971233	-0.431429
H160	H	1.109667	0.892775	-0.527412
H161	H	1.189772	0.794567	-0.634701
H162	H	1.400333	0.774815	-0.646008
H163	H	1.530783	0.853273	-0.550025
H164	H	1.414613	0.469124	-0.677788
H165	H	1.105309	0.342900	-0.510397
H166	H	1.661895	1.078532	-0.287272
H167	H	1.414732	0.469073	-0.930634
