data_functionalizedCrystal
_audit_creation_method	'MofGen! by Chris Wilmer'
_symmetry_space_group_name_H-M	'P1'
_symmetry_Int_Tables_number	1
_symmetry_cell_setting	triclinic
loop_
_symmetry_equiv_pos_as_xyz
  x,y,z
_cell_length_a	17.699083
_cell_length_b	14.853567
_cell_length_c	16.776229
_cell_angle_alpha	89.997147
_cell_angle_beta	89.998886
_cell_angle_gamma	83.458972
loop_
_atom_site_label
_atom_site_type_symbol
_atom_site_fract_x
_atom_site_fract_y
_atom_site_fract_z
O1	O	1.004374	0.114008	-0.066170
O2	O	1.504374	0.614008	0.433830
O3	O	0.784034	0.128841	-0.066195
O4	O	1.284034	0.628841	0.433805
O5	O	0.900090	-0.009827	-0.066184
O6	O	1.400090	0.490173	0.433816
O7	O	0.888319	0.252676	-0.066181
O8	O	1.388319	0.752676	0.433819
O9	O	0.900075	-0.009835	0.066392
O10	O	1.400075	0.490165	0.566392
O11	O	0.784019	0.128832	0.066381
O12	O	1.284019	0.628832	0.566381
O13	O	1.004359	0.114000	0.066407
O14	O	1.504359	0.614000	0.566407
Zn15	Zn	0.894187	0.121415	0.087443
Zn16	Zn	1.394187	0.621415	0.587443
Zn17	Zn	0.894207	0.121426	-0.087232
Zn18	Zn	1.394207	0.621426	0.412768
O19	O	0.888303	0.252667	0.066396
O20	O	1.388303	0.752667	0.566396
C21	C	0.755828	0.128305	0.000090
C22	C	1.255828	0.628305	0.500090
C23	C	0.671806	0.126711	0.000080
C24	C	1.171806	0.626711	0.500080
C25	C	0.623396	0.208106	0.000081
C26	C	1.123396	0.708106	0.500081
C27	C	0.544449	0.206602	0.000092
C28	C	1.044449	0.706602	0.500092
C29	C	0.513913	0.123703	0.000095
C30	C	1.013913	0.623703	0.500095
C31	C	0.562329	0.042301	0.000096
C32	C	1.062329	0.542301	0.500096
C33	C	0.641275	0.043806	0.000091
C34	C	1.141275	0.543806	0.500091
C35	C	0.243950	0.036232	0.000116
C36	C	0.743950	0.536232	0.500116
C37	C	0.164999	0.034734	0.000118
C38	C	0.664999	0.534734	0.500118
C39	C	0.147125	0.199028	0.000116
C40	C	0.647125	0.699028	0.500116
C41	C	0.226070	0.200533	0.000111
C42	C	0.726070	0.700533	0.500111
C43	C	0.274479	0.119132	0.000116
C44	C	0.774479	0.619132	0.500116
C45	C	0.360083	0.120763	0.000107
C46	C	0.860083	0.620763	0.500107
C47	C	0.428311	0.122070	0.000099
C48	C	0.928311	0.622070	0.500099
C49	C	0.899549	-0.043418	0.000102
C50	C	1.399549	0.456582	0.500102
C51	C	0.897951	-0.143496	0.000095
C52	C	1.397951	0.356504	0.500095
C53	C	0.822255	-0.555751	0.000101
C54	C	1.322255	-0.055751	0.500101
C55	C	0.960131	-0.577539	0.000117
C56	C	1.460131	-0.077539	0.500117
C57	C	0.961634	-0.483511	0.000112
C58	C	1.461634	0.016489	0.500112
C59	C	0.893446	-0.425598	0.000103
C60	C	1.393446	0.074402	0.500103
C61	C	0.823756	-0.461714	0.000099
C62	C	1.323756	0.038286	0.500099
C63	C	1.031324	-0.447389	0.000125
C64	C	1.531324	0.052611	0.500125
C65	C	1.032829	-0.353355	0.000121
C66	C	1.532829	0.146645	0.500121
C67	C	0.964641	-0.295441	0.000107
C68	C	1.464641	0.204559	0.500107
C69	C	0.894947	-0.331561	0.000101
C70	C	1.394947	0.168439	0.500101
C71	C	0.826759	-0.273648	0.000092
C72	C	1.326759	0.226352	0.500092
C73	C	0.757065	-0.309767	0.000081
C74	C	1.257065	0.190233	0.500081
C75	C	0.755567	-0.403799	0.000084
C76	C	1.255567	0.096201	0.500084
C77	C	0.966139	-0.201409	0.000104
C78	C	1.466139	0.298591	0.500104
C79	C	0.828260	-0.179611	0.000090
C80	C	1.328260	0.320389	0.500090
C81	C	1.032565	0.114535	0.000120
C82	C	1.532565	0.614535	0.500120
C83	C	1.116587	0.116130	0.000125
C84	C	1.616587	0.616130	0.500125
C85	C	0.888844	0.286258	0.000108
C86	C	1.388844	0.786258	0.500108
C87	C	0.890443	0.386336	0.000110
C88	C	1.390443	0.886336	0.500110
N89	N	0.894178	0.121406	0.206655
N90	N	1.394178	0.621406	0.706655
N91	N	0.894221	0.121427	-0.206443
N92	N	1.394221	0.621427	0.293557
C93	C	0.945583	0.060029	0.248377
C94	C	1.445583	0.560029	0.748377
C95	C	0.945587	0.060029	0.331829
C96	C	1.445587	0.560029	0.831829
C97	C	0.894190	0.121410	0.373558
C98	C	1.394190	0.621410	0.873558
C99	C	0.842779	0.182790	0.331830
C100	C	1.342779	0.682790	0.831830
C101	C	0.842772	0.182786	0.248379
C102	C	1.342772	0.682786	0.748379
C103	C	0.842806	0.182808	0.668377
C104	C	1.342806	0.682808	1.168377
C105	C	0.842819	0.182809	0.751834
C106	C	1.342819	0.682809	1.251834
C107	C	0.945622	0.060051	0.751827
C108	C	1.445622	0.560051	1.251827
C109	C	0.945615	0.060046	0.668376
C110	C	1.445615	0.560046	1.168376
C111	C	0.894202	0.121423	0.626656
C112	C	1.394202	0.621423	1.126656
C113	C	0.894197	0.121422	0.536167
C114	C	1.394197	0.621422	1.036167
C115	C	0.894198	0.121416	0.464044
C116	C	1.394198	0.621416	0.964044
H117	H	0.772732	-0.132463	0.000079
H118	H	1.272732	0.367537	0.500079
O119	O	0.687937	-0.439035	0.000117
O120	O	1.187937	0.060965	0.500117
C121	C	0.624525	-0.574243	0.000079
C122	C	1.124525	-0.074243	0.500079
C123	C	0.701166	-0.534455	0.000057
C124	C	1.201166	-0.034455	0.500057
H125	H	0.635195	-0.651395	0.000014
H126	H	1.135195	-0.151395	0.500014
H127	H	0.590809	-0.550445	0.055572
H128	H	1.090809	-0.050445	0.555572
H129	H	0.590828	-0.550334	-0.055395
H130	H	1.090828	-0.050334	0.444605
H131	H	0.734925	-0.558347	0.055493
H132	H	1.234925	-0.058347	0.555493
H133	H	0.734825	-0.558248	-0.055473
H134	H	1.234825	-0.058248	0.444527
O135	O	0.532543	-0.038149	0.000065
O136	O	1.032543	0.461851	0.500065
C137	C	0.418848	-0.113285	0.000118
C138	C	0.918848	0.386715	0.500118
C139	C	0.452476	-0.022110	0.000137
C140	C	0.952476	0.477890	0.500137
H141	H	0.354110	-0.100348	0.000193
H142	H	0.854110	0.399652	0.500193
H143	H	0.438723	-0.153511	-0.055378
H144	H	0.938723	0.346489	0.444622
H145	H	0.438825	-0.153500	0.055588
H146	H	0.938825	0.346500	0.555588
H147	H	0.432515	0.018179	-0.055296
H148	H	0.932515	0.518179	0.444704
H149	H	0.432605	0.018047	0.055670
H150	H	0.932605	0.518047	0.555670
H151	H	0.987445	0.010050	0.365798
H152	H	1.487445	0.510050	0.865798
H153	H	0.765511	-0.585163	0.000089
H154	H	1.265511	-0.085163	0.500089
H155	H	0.987470	0.010067	0.634403
H156	H	1.487470	0.510067	1.134403
H157	H	1.086839	-0.494548	0.000140
H158	H	1.586839	0.005452	0.500140
H159	H	0.680690	-0.022475	0.000090
H160	H	1.180690	0.477525	0.500090
O161	O	1.100593	-0.318423	0.000091
O162	O	1.600593	0.181577	0.500091
C163	C	1.237191	-0.349967	0.000153
C164	C	1.737191	0.150033	0.500153
C165	C	1.160503	-0.389649	0.000171
C166	C	1.660503	0.110351	0.500171
H167	H	1.285648	-0.407533	0.000235
H168	H	1.785648	0.092467	0.500235
H169	H	1.241398	-0.306525	-0.055346
H170	H	1.741398	0.193475	0.444654
H171	H	1.241294	-0.306454	0.055620
H172	H	1.741294	0.193546	0.555620
H173	H	1.156348	-0.433203	-0.055258
H174	H	1.656348	0.066797	0.444742
H175	H	1.156328	-0.433039	0.055707
H176	H	1.656328	0.066961	0.555707
O177	O	0.995526	0.000295	0.792269
O178	O	1.495526	0.500295	1.292269
C179	C	1.039685	-0.156535	0.817843
C180	C	1.539685	0.343465	1.317843
C181	C	0.983141	-0.088966	0.771980
C182	C	1.483141	0.411034	1.271980
H183	H	1.029680	-0.228717	0.801468
H184	H	1.529680	0.271283	1.301468
H185	H	1.100329	-0.144954	0.801414
H186	H	1.600329	0.355046	1.301414
H187	H	1.030870	-0.145948	0.884650
H188	H	1.530870	0.354052	1.384650
H189	H	0.991886	-0.099513	0.705162
H190	H	1.491886	0.400487	1.205162
H191	H	0.922516	-0.100564	0.788474
H192	H	1.422516	0.399436	1.288474
H193	H	0.701546	-0.262602	0.000080
H194	H	1.201546	0.237398	0.500080
O195	O	0.792810	0.242467	0.792247
O196	O	1.292810	0.742467	1.292247
C197	C	0.690858	0.364254	0.783452
C198	C	1.190858	0.864254	1.283452
C199	C	0.747435	0.296732	0.737585
C200	C	1.247435	0.796732	1.237585
H201	H	0.654169	0.408158	0.739278
H202	H	1.154169	0.908158	1.239278
H203	H	0.652970	0.325426	0.822510
H204	H	1.152970	0.825426	1.322510
H205	H	0.723594	0.409209	0.822535
H206	H	1.223594	0.909209	1.322535
H207	H	0.714762	0.251761	0.698460
H208	H	1.214762	0.751761	1.198460
H209	H	0.785323	0.335617	0.698578
H210	H	1.285323	0.835617	1.198578
H211	H	0.987440	0.010050	0.214407
H212	H	1.487440	0.510050	0.714407
H213	H	0.800946	0.232784	0.634415
H214	H	1.300946	0.732784	1.134415
O215	O	1.026414	-0.633702	0.000019
O216	O	1.526414	-0.133702	0.500019
C217	C	1.143781	-0.681149	-0.068680
C218	C	1.643781	-0.181149	0.431320
C219	C	1.068750	-0.617473	-0.068657
C220	C	1.568750	-0.117473	0.431343
H221	H	1.178023	-0.668063	-0.124207
H222	H	1.678023	-0.168063	0.375793
H223	H	1.178122	-0.668026	-0.013234
H224	H	1.678122	-0.168026	0.486766
H225	H	1.130716	-0.754551	-0.068638
H226	H	1.630716	-0.254551	0.431362
H227	H	1.081745	-0.544048	-0.068727
H228	H	1.581745	-0.044048	0.431273
H229	H	1.034431	-0.630674	-0.124099
H230	H	1.534431	-0.130674	0.375901
O231	O	1.033896	-0.166472	0.000076
O232	O	1.533896	0.333528	0.500076
C233	C	1.170495	-0.198012	0.000143
C234	C	1.670495	0.301988	0.500143
C235	C	1.093808	-0.237696	0.000159
C236	C	1.593808	0.262304	0.500159
H237	H	1.218953	-0.255577	0.000227
H238	H	1.718953	0.244423	0.500227
H239	H	1.174703	-0.154571	-0.055357
H240	H	1.674703	0.345429	0.444643
H241	H	1.174595	-0.154497	0.055609
H242	H	1.674595	0.345503	0.555609
H243	H	1.089655	-0.281251	-0.055270
H244	H	1.589655	0.218749	0.444730
H245	H	1.089632	-0.281086	0.055696
H246	H	1.589632	0.218914	0.555696
H247	H	0.800926	0.232765	0.365810
H248	H	1.300926	0.732765	0.865810
O249	O	0.792810	0.242497	0.207971
O250	O	1.292810	0.742497	0.707971
C251	C	0.690810	0.364225	0.216780
C252	C	1.190810	0.864225	0.716780
C253	C	0.747366	0.296667	0.262639
C254	C	1.247366	0.796667	0.762639
H255	H	0.654043	0.408026	0.260959
H256	H	1.154043	0.908026	0.760959
H257	H	0.723486	0.409275	0.177723
H258	H	1.223486	0.909275	0.677723
H259	H	0.652995	0.325336	0.177698
H260	H	1.152995	0.825336	0.677698
H261	H	0.785196	0.335482	0.301764
H262	H	1.285196	0.835482	0.801764
H263	H	0.714643	0.251617	0.301646
H264	H	1.214643	0.751617	0.801646
H265	H	0.648252	0.275612	0.000078
H266	H	1.148252	0.775612	0.500078
H267	H	0.505037	0.272882	0.000092
H268	H	1.005037	0.772882	0.500092
H269	H	0.250928	0.268038	0.000105
H270	H	0.750928	0.768038	0.500105
H271	H	0.283356	-0.030050	0.000121
H272	H	0.783356	0.469950	0.500121
H273	H	0.107700	0.265309	0.000116
H274	H	0.607700	0.765309	0.500116
H275	H	0.140140	-0.032777	0.000121
H276	H	0.640140	0.467223	0.500121
