data_functionalizedCrystal
_audit_creation_method	'MofGen! by Chris Wilmer'
_symmetry_space_group_name_H-M	'P1'
_symmetry_Int_Tables_number	1
_symmetry_cell_setting	triclinic
loop_
_symmetry_equiv_pos_as_xyz
  x,y,z
_cell_length_a	13.033293
_cell_length_b	14.909383
_cell_length_c	13.032268
_cell_angle_alpha	100.828334
_cell_angle_beta	89.079182
_cell_angle_gamma	94.324214
loop_
_atom_site_label
_atom_site_type_symbol
_atom_site_fract_x
_atom_site_fract_y
_atom_site_fract_z
Zn1	Zn	1.514582	-0.281167	-0.802348
Zn2	Zn	1.543770	-0.411040	-0.640013
Zn3	Zn	1.364168	-0.276395	-0.608170
Zn4	Zn	1.352181	-0.448714	-0.792849
O5	O	1.443675	-0.354329	-0.710845
O6	O	1.661583	-0.284626	-0.798116
O7	O	1.537178	-0.375415	-0.490563
O8	O	1.376922	-0.150559	-0.624577
O9	O	1.683028	-0.380043	-0.678850
O10	O	1.487430	-0.154065	-0.767239
O11	O	1.405225	-0.276492	-0.467167
O12	O	1.219449	-0.313023	-0.615366
O13	O	1.356491	-0.444253	-0.939336
O14	O	1.210642	-0.439625	-0.751049
O15	O	1.475807	-0.321157	-0.946315
O16	O	1.525554	-0.542506	-0.669639
O17	O	1.384794	-0.570185	-0.781927
C18	C	1.177933	-0.379895	-0.678722
C19	C	1.064246	-0.390857	-0.665006
C20	C	1.002944	-0.348631	-0.718005
C21	C	0.885442	-0.359959	-0.703830
C22	C	1.457066	-0.589138	-0.728233
C23	C	1.462884	-0.689585	-0.735718
C24	C	1.358879	-0.874813	-0.601121
C25	C	1.364342	-0.969192	-0.608150
C26	C	1.479280	-0.972724	-0.756800
C27	C	1.473816	-0.878345	-0.749771
C28	C	1.413612	-0.829393	-0.671930
C29	C	1.408144	-0.735013	-0.664906
C30	C	1.523087	-0.738545	-0.813550
C31	C	1.528550	-0.832924	-0.820579
C32	C	1.710455	-0.328664	-0.743095
C33	C	1.824140	-0.317727	-0.756837
C34	C	1.411556	-0.387439	-0.981534
C35	C	1.397869	-0.401549	-1.096886
C36	C	1.430258	-0.118603	-0.693415
C37	C	1.424540	-0.018151	-0.685988
C38	C	1.450801	-0.346934	-1.151766
C39	C	1.436656	-0.361516	-1.270988
C40	C	1.475725	-0.321277	-0.441212
C41	C	1.489596	-0.306893	-0.325866
H42	H	1.037450	-0.304089	-0.773871
H43	H	0.850940	-0.404499	-0.647955
H44	H	0.858641	-0.273180	-0.812705
H45	H	1.029740	-0.435393	-0.609134
C46	C	1.341918	-0.681167	-0.579281
N47	N	1.292037	-0.640612	-0.514784
H48	H	1.528304	-1.012595	-0.820167
H49	H	1.309850	-0.834957	-0.537747
H50	H	1.319773	-1.006169	-0.550490
H51	H	1.577570	-0.872793	-0.883952
C52	C	1.583298	-0.688575	-0.891445
N53	N	1.628645	-0.650938	-0.950115
H54	H	1.506587	-0.289378	-1.110487
C55	C	1.361277	-0.439271	-1.326743
N56	N	1.304502	-0.497835	-1.368739
C57	C	1.564973	-0.229136	-1.270113
N58	N	1.621748	-0.170571	-1.228119
C59	C	1.322493	-0.479300	-1.152645
N60	N	1.265719	-0.537864	-1.194641
