data_functionalizedCrystal
_audit_creation_method	'MofGen! by Chris Wilmer'
_symmetry_space_group_name_H-M	'P1'
_symmetry_Int_Tables_number	1
_symmetry_cell_setting	triclinic
loop_
_symmetry_equiv_pos_as_xyz
  x,y,z
_cell_length_a	19.805407
_cell_length_b	18.215405
_cell_length_c	18.215399
_cell_angle_alpha	90.030551
_cell_angle_beta	89.979366
_cell_angle_gamma	89.975115
loop_
_atom_site_label
_atom_site_type_symbol
_atom_site_fract_x
_atom_site_fract_y
_atom_site_fract_z
Zn1	Zn	1.034750	0.292992	-0.416118
Zn2	Zn	1.034666	0.416063	-0.293046
Zn3	Zn	0.921562	0.293015	-0.293064
Zn4	Zn	0.921531	0.416021	-0.416070
O5	O	0.978127	0.354523	-0.354575
O6	O	1.129455	0.309325	-0.399806
O7	O	1.019640	0.399768	-0.190064
O8	O	0.936625	0.190028	-0.309415
O9	O	1.129393	0.399745	-0.309385
O10	O	1.019784	0.190011	-0.399823
O11	O	0.936544	0.309365	-0.190077
O12	O	0.826842	0.309324	-0.309368
O13	O	0.936572	0.399674	-0.519060
O14	O	0.826819	0.399696	-0.399740
O15	O	1.019753	0.309285	-0.519096
O16	O	1.019610	0.519042	-0.309338
O17	O	0.936490	0.519011	-0.399723
C18	C	0.802271	0.354509	-0.354551
C19	C	0.727039	0.354520	-0.354558
C20	C	0.978056	0.545729	-0.354539
C21	C	0.978087	0.627528	-0.354549
C22	C	0.978169	0.354472	-0.546528
C23	C	0.978186	0.354450	-0.628327
C24	C	0.691701	0.401648	-0.401538
C25	C	0.621012	0.401649	-0.401549
C26	C	0.585664	0.354526	-0.354575
C27	C	0.621007	0.307393	-0.307592
C28	C	0.691694	0.307389	-0.307586
C29	C	0.335934	0.307410	-0.307616
C30	C	0.265242	0.307419	-0.307625
C31	C	0.265252	0.401670	-0.401579
C32	C	0.335939	0.401666	-0.401573
C33	C	0.371276	0.354530	-0.354594
C34	C	0.447925	0.354529	-0.354584
C35	C	0.509017	0.354531	-0.354580
C36	C	1.154670	0.354537	-0.354599
C37	C	1.229902	0.354544	-0.354609
C38	C	0.978217	0.162570	-0.354626
C39	C	0.978256	0.080771	-0.354648
C40	C	1.021469	0.815713	-0.307572
C41	C	1.021499	0.892572	-0.307590
C42	C	0.934872	0.892580	-0.401630
C43	C	0.934846	0.815723	-0.401615
C44	C	0.978143	0.777291	-0.354582
C45	C	0.978200	0.931007	-0.354615
C46	C	0.978232	1.014341	-0.354634
C47	C	0.978112	0.693952	-0.354563
C48	C	1.021514	0.307341	-0.816540
C49	C	1.021522	0.307319	-0.893399
C50	C	0.934906	0.401446	-0.893351
C51	C	0.934895	0.401463	-0.816493
C52	C	0.978203	0.354412	-0.778090
C53	C	0.978222	0.354373	-0.931806
C54	C	0.978230	0.354350	-1.015140
C55	C	0.978194	0.354433	-0.694751
C56	C	0.978125	0.354520	-0.163368
C57	C	0.978239	0.354334	-0.081570
H58	H	0.720477	0.440024	-0.439788
H59	H	0.592243	0.440026	-0.439804
O60	O	0.370326	0.261730	-0.261940
C61	C	0.450055	0.251690	-0.162553
C62	C	0.411159	0.303506	-0.214251
H63	H	0.483067	0.285446	-0.123973
H64	H	0.483220	0.213256	-0.196363
H65	H	0.412629	0.218001	-0.129016
H66	H	0.448536	0.337243	-0.247799
H67	H	0.377984	0.341892	-0.180399
O68	O	0.370171	0.447464	-0.447274
C69	C	0.362719	0.540979	-0.540442
C70	C	0.323869	0.489139	-0.488732
H71	H	0.325301	0.574698	-0.573963
H72	H	0.395821	0.507272	-0.579029
H73	H	0.395806	0.579382	-0.506570
H74	H	0.290746	0.450726	-0.522544
H75	H	0.290810	0.522892	-0.450143
O76	O	0.230820	0.447384	-0.447199
C77	C	0.121928	0.489198	-0.488825
C78	C	0.160835	0.437378	-0.437140
H79	H	0.065339	0.481138	-0.480700
H80	H	0.135807	0.476352	-0.548205
H81	H	0.135841	0.548513	-0.475796
H82	H	0.146943	0.378046	-0.450103
H83	H	0.146952	0.450288	-0.377776
H84	H	1.056726	0.784424	-0.269276
O85	O	0.892940	0.447232	-0.930691
C86	C	0.883803	0.546542	-1.017466
C87	C	0.931406	0.494745	-0.975213
H88	H	0.914884	0.584959	-1.053484
H89	H	0.852855	0.580242	-0.976814
H90	H	0.848419	0.512729	-1.053419
H91	H	0.966831	0.528501	-0.939258
H92	H	0.962307	0.461043	-1.015905
O93	O	1.063564	0.261493	-0.930666
C94	C	1.096453	0.136302	-0.954250
C95	C	1.048809	0.188122	-0.911989
H96	H	1.084531	0.076971	-0.939177
H97	H	1.151033	0.149173	-0.939133
H98	H	1.089036	0.144403	-1.015776
H99	H	1.056166	0.180050	-0.850453
H100	H	0.994246	0.175238	-0.927167
H101	H	0.899621	0.439794	-0.785186
H102	H	0.236463	0.269041	-0.269372
H103	H	1.056777	0.269026	-0.785275
H104	H	0.899620	0.923880	-0.439922
H105	H	0.720466	0.269009	-0.269334
O106	O	0.586744	0.261653	-0.261860
C107	C	0.565043	0.225797	-0.136743
C108	C	0.603898	0.277631	-0.188454
H109	H	0.578887	0.238707	-0.077382
H110	H	0.578978	0.166459	-0.149714
H111	H	0.508454	0.233886	-0.144855
H112	H	0.660496	0.269608	-0.180370
H113	H	0.589907	0.336950	-0.175470
H114	H	0.899564	0.784437	-0.439900
O115	O	1.063606	0.929781	-0.261853
C116	C	1.149552	0.921657	-0.168605
C117	C	1.101886	0.879428	-0.220353
H118	H	1.180524	0.880965	-0.135050
H119	H	1.118544	0.957677	-0.130050
H120	H	1.184910	0.957602	-0.202448
H121	H	1.066518	0.843443	-0.186569
H122	H	1.132936	0.843454	-0.258910
