data_functionalizedCrystal
_audit_creation_method	'MofGen! by Chris Wilmer'
_symmetry_space_group_name_H-M	'P1'
_symmetry_Int_Tables_number	1
_symmetry_cell_setting	triclinic
loop_
_symmetry_equiv_pos_as_xyz
  x,y,z
_cell_length_a	14.853566
_cell_length_b	14.519731
_cell_length_c	13.930277
_cell_angle_alpha	89.994465
_cell_angle_beta	89.995631
_cell_angle_gamma	83.661634
loop_
_atom_site_label
_atom_site_type_symbol
_atom_site_fract_x
_atom_site_fract_y
_atom_site_fract_z
O1	O	1.196425	0.120398	-0.079770
O2	O	0.933972	0.134742	-0.079786
O3	O	1.072147	-0.006670	-0.079768
O4	O	1.058250	0.261810	-0.079787
O5	O	1.072128	-0.006673	0.079893
O6	O	0.933953	0.134739	0.079876
O7	O	1.196406	0.120395	0.079892
Zn8	Zn	1.065176	0.127566	0.105234
Zn9	Zn	1.065201	0.127570	-0.105127
O10	O	1.058231	0.261807	0.079875
C11	C	0.900373	0.134091	0.000043
C12	C	0.800289	0.132144	0.000037
C13	C	0.377110	0.123910	-0.086977
C14	C	0.377111	0.123907	0.087093
C15	C	0.471146	0.125736	0.087090
C16	C	0.518167	0.126653	0.000052
C17	C	0.471154	0.125741	-0.086983
C18	C	0.518165	0.126657	0.174123
C19	C	0.612206	0.128486	0.174123
C20	C	0.659229	0.129397	0.087084
C21	C	0.612210	0.128484	0.000046
C22	C	0.659232	0.129401	-0.086991
C23	C	0.612215	0.128482	-0.174031
C24	C	0.518178	0.126652	-0.174021
C25	C	0.753267	0.131227	0.087075
C26	C	0.753275	0.131232	-0.086997
C27	C	1.071486	-0.041031	0.000063
C28	C	1.069535	-0.143410	0.000063
C29	C	1.067949	-0.226554	0.000061
C30	C	1.065968	-0.330862	0.000053
C31	C	1.064396	-0.414000	0.000047
C32	C	1.062415	-0.518315	0.000041
C33	C	1.230004	0.121046	0.000061
C34	C	1.330089	0.122993	0.000061
C35	C	1.058891	0.296168	0.000042
C36	C	1.060843	0.398547	0.000035
N37	N	1.065165	0.127563	0.248800
N38	N	1.065219	0.127566	-0.248693
C39	C	1.004015	0.190163	0.701062
C40	C	1.126412	0.064971	0.701046
C41	C	1.126402	0.064968	0.600551
C42	C	1.065198	0.127564	0.550306
C43	C	1.004004	0.190164	0.600557
C44	C	1.187600	0.002376	0.550292
C45	C	1.187593	0.002371	0.449790
C46	C	1.126383	0.064964	0.399544
C47	C	1.065187	0.127565	0.449801
C48	C	1.003983	0.190162	0.399556
C49	C	0.942781	0.252760	0.449811
C50	C	0.942795	0.252757	0.550310
C51	C	1.126369	0.064967	0.299045
C52	C	1.003972	0.190163	0.299051
H53	H	0.650479	0.129233	0.244995
H54	H	1.237435	-0.048584	0.591205
C55	C	0.848039	0.244015	0.732023
C56	C	0.936742	0.258964	0.756300
H57	H	0.806509	0.286486	0.766131
H58	H	0.839283	0.252980	0.664987
H59	H	0.838166	0.182442	0.748502
H60	H	0.946618	0.320536	0.739814
H61	H	0.945502	0.250006	0.823351
C62	C	0.358172	0.044135	-0.235344
C63	C	0.325436	0.122904	-0.182648
H64	H	0.326265	0.043515	-0.294405
H65	H	0.420898	0.045366	-0.247796
H66	H	0.349537	-0.009897	-0.199571
H67	H	0.334076	0.176937	-0.218418
H68	H	0.262694	0.121681	-0.170199
H69	H	0.791543	0.131984	0.157941
H70	H	1.176203	0.014004	0.258132
C71	C	0.499217	0.046887	-0.322393
C72	C	0.466496	0.125656	-0.269689
H73	H	0.467304	0.046275	-0.381451
H74	H	0.561943	0.048110	-0.334852
H75	H	0.490578	-0.007146	-0.286623
H76	H	0.475141	0.179689	-0.305457
H77	H	0.403754	0.124441	-0.257234
H78	H	0.338819	0.123167	0.157955
H79	H	0.791554	0.131976	-0.157875
C80	C	0.890101	0.412316	0.418851
C81	C	0.875510	0.321568	0.394574
H82	H	0.848576	0.454792	0.384741
H83	H	0.881336	0.421270	0.485887
H84	H	0.950287	0.422432	0.402372
H85	H	0.815326	0.311449	0.411059
H86	H	0.884268	0.312610	0.327523
H87	H	0.479872	0.125916	0.244984
H88	H	0.954129	0.241134	0.258148
H89	H	1.237425	-0.048600	0.408879
C90	C	1.145768	-0.060493	0.814078
C91	C	1.193681	-0.003834	0.756278
H92	H	1.187298	-0.102976	0.848174
H93	H	1.109335	-0.023207	0.858381
H94	H	1.108188	-0.093735	0.774873
H95	H	1.231257	0.029413	0.795483
H96	H	1.230130	-0.041125	0.711970
C97	C	0.756374	0.131295	-0.251317
C98	C	0.663908	0.129489	-0.269701
H99	H	0.788288	0.131911	-0.310379
H100	H	0.764987	0.185330	-0.215568
H101	H	0.778560	0.077857	-0.215547
H102	H	0.641721	0.182931	-0.305465
H103	H	0.655290	0.075449	-0.305465
C104	C	0.786822	0.306612	0.581296
C105	C	0.875530	0.321558	0.605557
H106	H	0.745299	0.349084	0.615413
H107	H	0.778055	0.315580	0.514262
H108	H	0.776949	0.245039	0.597777
H109	H	0.885405	0.383130	0.589069
H110	H	0.884300	0.312599	0.672606
