data_functionalizedCrystal
_audit_creation_method	'MofGen! by Chris Wilmer'
_symmetry_space_group_name_H-M	'P1'
_symmetry_Int_Tables_number	1
_symmetry_cell_setting	triclinic
loop_
_symmetry_equiv_pos_as_xyz
  x,y,z
_cell_length_a	27.732048
_cell_length_b	27.731996
_cell_length_c	16.053802
_cell_angle_alpha	92.537600
_cell_angle_beta	87.445675
_cell_angle_gamma	82.632022
loop_
_atom_site_label
_atom_site_type_symbol
_atom_site_fract_x
_atom_site_fract_y
_atom_site_fract_z
O1	O	0.642968	0.055471	-0.069332
O2	O	0.502174	0.064216	-0.069358
O3	O	0.576957	-0.010555	-0.069326
O4	O	0.568186	0.130241	-0.069364
O5	O	0.572840	-0.006456	0.069531
O6	O	0.498058	0.068314	0.069499
O7	O	0.638852	0.059570	0.069526
Zn8	Zn	0.567802	0.064593	0.091559
Zn9	Zn	0.573225	0.059193	-0.091392
O10	O	0.564070	0.134340	0.069493
C11	C	0.482109	0.066081	0.000067
C12	C	0.428455	0.065528	0.000058
C13	C	0.089631	0.106234	0.000083
C14	C	-0.112028	0.104183	0.000091
O15	O	-0.143292	0.141406	0.000117
N16	N	-0.131144	0.059847	0.000101
C17	C	-0.099842	0.016021	0.000115
O18	O	-0.120728	-0.021737	0.000133
C19	C	0.101817	0.018072	0.000113
C20	C	0.120930	0.062411	0.000094
C21	C	0.108745	0.150569	0.000065
C22	C	0.159157	0.151081	0.000058
C23	C	0.190455	0.107258	0.000070
C24	C	0.171342	0.062923	0.000088
C25	C	0.133118	-0.025753	0.000133
C26	C	0.183535	-0.025236	0.000135
C27	C	0.202648	0.019102	0.000116
C28	C	0.253052	0.019612	0.000093
N29	N	0.272168	0.063948	0.000082
C30	C	0.240870	0.107771	0.000071
C31	C	-0.205715	0.014947	0.000115
C32	C	-0.256130	0.014434	0.000114
C33	C	-0.268313	0.102596	0.000091
C34	C	-0.217898	0.103109	0.000086
C35	C	-0.186600	0.059283	0.000104
C36	C	0.346739	0.108843	0.000056
C37	C	0.397156	0.109351	0.000046
C38	C	0.409335	0.021189	0.000073
C39	C	0.358922	0.020681	0.000079
C40	C	0.327625	0.064512	0.000073
O41	O	0.284344	-0.017590	0.000076
O42	O	0.261765	0.145524	0.000072
C43	C	0.039219	0.105722	0.000089
C44	C	0.020106	0.061387	0.000107
C45	C	0.051404	0.017564	0.000119
C46	C	-0.030309	0.060874	0.000106
C47	C	-0.061607	0.104697	0.000095
C48	C	-0.042491	0.149033	0.000085
C49	C	0.007921	0.149545	0.000078
C50	C	0.032288	-0.026772	0.000129
C51	C	-0.018124	-0.027281	0.000135
C52	C	-0.049423	0.016542	0.000123
C53	C	0.574718	-0.026513	0.000105
C54	C	0.574175	-0.080169	0.000114
C55	C	0.573005	-0.415120	-0.075619
C56	C	0.570945	-0.616779	-0.075634
O57	O	0.572566	-0.644750	-0.140007
N58	N	0.568445	-0.639762	0.000056
C59	C	0.566457	-0.612327	0.075756
O60	O	0.564279	-0.636501	0.140135
C61	C	0.568514	-0.410668	0.075770
C62	C	0.571019	-0.387689	0.000075
C63	C	0.575509	-0.392141	-0.151308
C64	C	0.576027	-0.341729	-0.151303
C65	C	0.574041	-0.314298	-0.075610
C66	C	0.571537	-0.337278	0.000079
C67	C	0.566523	-0.383233	0.151469
C68	C	0.567036	-0.332816	0.151465
C69	C	0.569541	-0.309836	0.075770
C70	C	0.570068	-0.259435	0.075777
N71	N	0.572568	-0.236452	0.000087
C72	C	0.574554	-0.263883	-0.075606
C73	C	0.565378	-0.718200	0.075743
C74	C	0.564865	-0.768615	0.075740
C75	C	0.569352	-0.773064	-0.075650
C76	C	0.569869	-0.722649	-0.075646
C77	C	0.567878	-0.695217	0.000053
C78	C	0.575642	-0.158016	-0.075591
C79	C	0.576161	-0.107600	-0.075580
C80	C	0.571672	-0.103155	0.075810
C81	C	0.571155	-0.153567	0.075799
C82	C	0.573139	-0.180996	0.000092
O83	O	0.568443	-0.231433	0.140117
O84	O	0.576722	-0.239698	-0.139976
C85	C	0.572488	-0.465532	-0.075623
C86	C	0.569984	-0.488511	0.000066
C87	C	0.567997	-0.461080	0.075759
C88	C	0.569470	-0.538926	0.000062
C89	C	0.571457	-0.566357	-0.075631
C90	C	0.573956	-0.543374	-0.151321
C91	C	0.574474	-0.492963	-0.151317
C92	C	0.565498	-0.484063	0.151450
C93	C	0.564981	-0.534474	0.151439
C94	C	0.566967	-0.561906	0.075745
C95	C	0.658917	0.057704	0.000098
C96	C	0.712572	0.058257	0.000102
C97	C	0.566308	0.150298	0.000060
C98	C	0.566851	0.203954	0.000046
N99	N	0.564104	0.068278	0.216417
N100	N	0.576926	0.055503	-0.216250
C101	C	0.595935	0.036474	0.260125
C102	C	0.593353	0.039057	0.347531
C103	C	0.558942	0.073445	0.391227
C104	C	0.527107	0.105251	0.347513
C105	C	0.529687	0.102666	0.260109
C106	C	0.547671	0.084724	0.652632
C107	C	0.545095	0.087307	0.740042
C108	C	0.611341	0.021112	0.740053
C109	C	0.613920	0.018532	0.652648
C110	C	0.582083	0.050336	0.608942
N111	N	0.556303	0.076087	0.480570
N112	N	0.584721	0.047692	0.519601
H113	H	-0.180236	-0.020744	0.000130
H114	H	0.517071	0.115313	0.775616
C115	C	0.481936	0.150417	0.661412
C116	C	0.512681	0.119686	0.604598
H117	H	0.460336	0.172004	0.631754
H118	H	0.463700	0.131423	0.695515
H119	H	0.500924	0.168672	0.695491
H120	H	0.493693	0.101428	0.570523
H121	H	0.530919	0.138682	0.570480
H122	H	0.619273	0.013159	0.383117
H123	H	0.578065	-0.323024	-0.212942
C124	C	0.523437	-0.267791	0.239287
C125	C	0.564848	-0.302662	0.234676
H126	H	0.522086	-0.249178	0.290659
H127	H	0.525007	-0.246892	0.194215
H128	H	0.495134	-0.283657	0.236128
H129	H	0.593151	-0.286795	0.237829
H130	H	0.563282	-0.323564	0.279760
H131	H	0.562833	-0.787321	0.137378
C132	C	0.664686	0.022591	0.161778
C133	C	0.633741	-0.001340	0.212076
H134	H	0.688020	-0.000759	0.132115
H135	H	0.646097	0.041170	0.123257
H136	H	0.680934	0.043587	0.195856
H137	H	0.617490	-0.022333	0.177998
H138	H	0.652332	-0.019927	0.250602
C139	C	0.497275	0.189926	0.374382
C140	C	0.489277	0.143051	0.395537
H141	H	0.473918	0.213262	0.404025
H142	H	0.529066	0.195377	0.388704
H143	H	0.494257	0.192929	0.316069
H144	H	0.492299	0.140046	0.453849
H145	H	0.457479	0.137598	0.381221
C146	C	0.679138	-0.046644	0.661442
C147	C	0.651744	-0.019272	0.604619
H148	H	0.702487	-0.069984	0.631789
H149	H	0.695363	-0.025634	0.695517
H150	H	0.658139	-0.062884	0.695548
H151	H	0.672741	-0.003029	0.570518
H152	H	0.635517	-0.040285	0.570530
C153	C	0.580004	-0.391462	-0.300943
C154	C	0.577697	-0.422288	-0.234520
H155	H	0.581361	-0.410073	-0.352318
H156	H	0.551912	-0.367811	-0.297798
H157	H	0.608310	-0.375601	-0.297767
H158	H	0.549389	-0.438147	-0.237693
H159	H	0.605792	-0.445948	-0.237667
H160	H	0.503766	0.128563	0.224523
H161	H	0.563760	-0.695870	0.137390
H162	H	0.412715	0.145459	0.000030
C163	C	0.562124	-0.373748	0.301105
C164	C	0.563764	-0.408483	0.234677
H165	H	0.560416	-0.389336	0.352477
H166	H	0.590617	-0.358080	0.297966
H167	H	0.534220	-0.350276	0.297930
H168	H	0.591671	-0.431953	0.237849
H169	H	0.535268	-0.424158	0.237818
H170	H	0.321262	0.144535	0.000054
H171	H	0.637260	-0.004781	0.775647
H172	H	0.571907	-0.703942	-0.137284
H173	H	0.570969	-0.795407	-0.137283
H174	H	-0.293805	0.138279	0.000082
C175	C	0.566772	-0.144103	0.225441
C176	C	0.568404	-0.178829	0.159003
H177	H	0.565067	-0.159696	0.276808
H178	H	0.595266	-0.128437	0.222302
H179	H	0.538868	-0.120628	0.222279
H180	H	0.596310	-0.202302	0.162162
H181	H	0.539907	-0.194503	0.162144
C182	C	0.538561	-0.090150	-0.204617
C183	C	0.578903	-0.082352	-0.158802
H184	H	0.540250	-0.074565	-0.255994
H185	H	0.538543	-0.124099	-0.215424
H186	H	0.509532	-0.077066	-0.173508
H187	H	0.607933	-0.095440	-0.189909
H188	H	0.578926	-0.048396	-0.147997
H189	H	0.570057	-0.080812	0.137437
C190	C	0.093941	-0.075247	0.071512
C191	C	0.066688	-0.074947	0.000135
H192	H	0.115174	-0.104992	0.071512
H193	H	0.112542	-0.048776	0.071498
H194	H	0.072586	-0.072185	0.119932
H195	H	0.088043	-0.078005	-0.048285
H196	H	0.048085	-0.101426	0.000141
H197	H	-0.202340	0.139213	0.000075
H198	H	0.576513	-0.474258	-0.212956
H199	H	0.174714	0.187186	0.000043
C200	C	0.101780	0.237761	0.000027
C201	C	0.074347	0.198745	0.000045
H202	H	0.080546	0.267504	0.000005
H203	H	0.120261	0.237556	0.048451
H204	H	0.123134	0.234687	-0.048395
H205	H	0.052995	0.201818	0.048471
H206	H	0.055858	0.198951	-0.048383
H207	H	0.117566	-0.061859	0.000149
C208	C	-0.239011	-0.072658	0.000142
C209	C	-0.277135	-0.034305	0.000127
H210	H	-0.251979	-0.102747	0.000159
H211	H	-0.218171	-0.072052	-0.048279
H212	H	-0.221033	-0.069187	0.048566
H213	H	-0.295111	-0.037773	-0.048301
H214	H	-0.297983	-0.034911	0.048553
C215	C	-0.125186	0.187384	0.000086
C216	C	-0.076902	0.197204	0.000075
H217	H	-0.146430	0.217122	0.000089
H218	H	-0.129509	0.167763	-0.048329
H219	H	-0.132367	0.170614	0.048516
H220	H	-0.069720	0.213971	-0.048358
H221	H	-0.072577	0.216833	0.048496
H222	H	0.575576	-0.565718	-0.212954
H223	H	0.562945	-0.553180	0.213084
C224	C	0.190510	-0.112434	0.000159
C225	C	0.217938	-0.073413	0.000146
H226	H	0.211749	-0.142175	0.000158
H227	H	0.169165	-0.109370	0.048581
H228	H	0.172021	-0.112224	-0.048264
H229	H	0.236424	-0.073621	0.048572
H230	H	0.239292	-0.076478	-0.048282
H231	H	0.343360	-0.015424	0.000082
H232	H	0.434827	-0.014490	0.000079
C233	C	-0.001005	-0.114376	0.000172
C234	C	-0.039129	-0.076023	0.000158
H235	H	-0.013973	-0.144465	0.000197
H236	H	0.019832	-0.113773	-0.048254
H237	H	0.016976	-0.110903	0.048592
H238	H	-0.057108	-0.079494	-0.048265
H239	H	-0.059974	-0.076626	0.048589
H240	H	0.577254	-0.180342	-0.137239
H241	H	0.023477	0.185650	0.000064
H242	H	0.563881	-0.461733	0.213090
