data_functionalizedCrystal
_audit_creation_method	'MofGen! by Chris Wilmer'
_symmetry_space_group_name_H-M	'P1'
_symmetry_Int_Tables_number	1
_symmetry_cell_setting	triclinic
loop_
_symmetry_equiv_pos_as_xyz
  x,y,z
_cell_length_a	19.288865
_cell_length_b	10.654550
_cell_length_c	9.130313
_cell_angle_alpha	90.000276
_cell_angle_beta	89.990258
_cell_angle_gamma	96.189411
loop_
_atom_site_label
_atom_site_type_symbol
_atom_site_fract_x
_atom_site_fract_y
_atom_site_fract_z
O1	O	0.097555	-1.665751	-0.121709
O2	O	0.106849	-1.300074	-0.121738
O3	O	0.001141	-1.493479	-0.121693
O4	O	0.203263	-1.472346	-0.121753
O5	O	0.001138	-1.493466	0.121905
O6	O	0.106846	-1.300061	0.121861
O7	O	0.097552	-1.665738	0.121890
Cu8	Cu	0.102198	-1.482898	0.144118
Cu9	Cu	0.102202	-1.482914	-0.143966
O10	O	0.203260	-1.472333	0.121846
C11	C	0.106165	-1.253284	0.000059
C12	C	0.104123	-1.113884	0.000049
C13	C	-0.024742	-1.492792	0.000110
C14	C	-0.101859	-1.490751	0.000123
C15	C	0.098236	-1.712528	0.000090
C16	C	0.100277	-1.851928	0.000091
C17	C	-0.145812	-1.604232	0.000139
C18	C	-0.218272	-1.602315	0.000116
C19	C	-0.246775	-1.486909	0.000106
C20	C	-0.202812	-1.373413	0.000081
C21	C	-0.130354	-1.375334	0.000090
C22	C	-0.355657	-1.396183	0.085426
C23	C	-0.428114	-1.394266	0.085426
C24	C	-0.470259	-1.480980	0.000073
C25	C	-0.439940	-1.569631	-0.085263
C26	C	-0.367482	-1.571552	-0.085254
C27	C	-0.325343	-1.484814	0.000095
C28	C	-0.592782	-1.592390	0.000061
C29	C	-0.665243	-1.590467	0.000029
C30	C	-0.649781	-1.361562	0.000009
C31	C	-0.577322	-1.363488	0.000027
C32	C	-0.548827	-1.478905	0.000060
C33	C	0.229142	-1.473020	0.000039
C34	C	0.306259	-1.475061	0.000016
N35	N	0.102195	-1.482896	0.346741
C36	C	0.166363	-1.033066	0.000035
C37	C	0.164440	-0.902087	0.000061
C38	C	0.038033	-0.932756	0.000109
C39	C	0.039956	-1.063733	0.000094
N40	N	0.102200	-1.482925	-0.346588
C41	C	0.055408	-1.568565	0.423412
C42	C	0.055408	-1.568577	0.576749
C43	C	0.148990	-1.397248	0.576729
C44	C	0.148986	-1.397231	0.423395
H45	H	-0.254065	-1.694728	0.000123
H46	H	0.017307	-1.638317	0.361003
C47	C	0.236941	-1.088236	-0.000003
H48	H	0.229174	-1.177817	-0.000024
H49	H	0.262595	-1.060478	0.084939
H50	H	0.262592	-1.060461	-0.084969
H51	H	-0.010730	-1.129539	0.000109
H52	H	0.187086	-1.327464	0.360965
H53	H	0.017308	-1.638334	0.639171
H54	H	-0.342798	-1.643732	-0.154740
H55	H	-0.452794	-1.322076	0.154903
H56	H	0.187086	-1.327503	0.639157
H57	H	-0.474253	-1.640241	-0.154767
C58	C	-0.114471	-1.731186	0.000149
H59	H	-0.151030	-1.798497	0.000141
H60	H	-0.086532	-1.736695	0.085095
H61	H	-0.086522	-1.736694	-0.084812
H62	H	-0.672988	-1.267597	-0.000006
H63	H	-0.014209	-0.891906	0.000154
H64	H	0.215122	-0.836289	0.000052
H65	H	-0.569580	-1.686369	0.000081
H66	H	-0.701029	-1.682881	0.000034
C67	C	-0.528972	-1.238657	0.000034
H68	H	-0.556323	-1.169649	0.000038
H69	H	-0.500373	-1.234649	-0.084907
H70	H	-0.500396	-1.234650	0.085000
H71	H	-0.226024	-1.279449	0.000070
C72	C	-0.309304	-1.300790	0.179320
H73	H	-0.337738	-1.247733	0.230155
H74	H	-0.277607	-1.250837	0.117794
H75	H	-0.283979	-1.344960	0.247958
H76	H	-0.094566	-1.282921	0.000077
