data_functionalizedCrystal
_audit_creation_method	'MofGen! by Chris Wilmer'
_symmetry_space_group_name_H-M	'P1'
_symmetry_Int_Tables_number	1
_symmetry_cell_setting	triclinic
loop_
_symmetry_equiv_pos_as_xyz
  x,y,z
_cell_length_a	11.792254
_cell_length_b	17.038272
_cell_length_c	10.268362
_cell_angle_alpha	89.994496
_cell_angle_beta	89.995475
_cell_angle_gamma	87.655077
loop_
_atom_site_label
_atom_site_type_symbol
_atom_site_fract_x
_atom_site_fract_y
_atom_site_fract_z
O1	O	1.516299	0.107255	-0.108301
O2	O	1.186927	0.118293	-0.108304
O3	O	1.349655	-0.001050	-0.108292
O4	O	1.353570	0.226598	-0.108313
O5	O	1.349639	-0.001055	0.108309
O6	O	1.186911	0.118288	0.108297
O7	O	1.516283	0.107250	0.108300
Cu8	Cu	1.351596	0.112768	0.128076
Cu9	Cu	1.351614	0.112774	-0.128080
O10	O	1.353555	0.226593	0.108288
C11	C	1.144567	0.117595	-0.000004
C12	C	1.018372	0.115514	-0.000005
C13	C	0.915887	0.113823	-0.000010
C14	C	0.787315	0.111708	-0.000011
C15	C	1.346086	-0.030197	0.000008
C16	C	1.335462	-0.117037	0.000008
C17	C	1.433002	-0.166717	0.000010
C18	C	1.423013	-0.248312	-0.000002
C19	C	1.315483	-0.280225	-0.000008
C20	C	1.217937	-0.230539	-0.000014
C21	C	1.227927	-0.148946	-0.000011
C22	C	1.280190	-0.526140	-0.000026
C23	C	1.270208	-0.607740	-0.000025
C24	C	1.475285	-0.625508	-0.000016
C25	C	1.485266	-0.543912	-0.000005
C26	C	1.387719	-0.494233	-0.000018
C27	C	1.305271	-0.363628	-0.000016
C28	C	1.397933	-0.410831	-0.000019
C29	C	1.558642	0.107947	-0.000003
C30	C	1.684838	0.110029	-0.000011
C31	C	1.357123	0.255740	-0.000015
C32	C	1.367747	0.342580	-0.000023
N33	N	1.351591	0.112764	0.308242
N34	N	1.351627	0.112773	-0.308245
C35	C	1.351608	0.112773	0.573912
C36	C	1.351595	0.112770	0.426074
H37	H	1.520564	-0.140740	0.000022
H38	H	1.502440	-0.288759	0.000002
H39	H	1.217719	-0.389621	-0.000018
H40	H	1.485483	-0.384844	-0.000043
H41	H	1.554702	-0.665965	-0.000008
Br42	Br	1.631204	-0.500607	-0.000040
Br43	Br	1.124265	-0.651051	-0.000019
Br44	Br	1.147804	-0.458729	-0.000052
Br45	Br	1.072002	-0.273849	-0.000043
Br46	Br	1.095546	-0.081521	-0.000024
