data_functionalizedCrystal
_audit_creation_method	'MofGen! by Chris Wilmer'
_symmetry_space_group_name_H-M	'P1'
_symmetry_Int_Tables_number	1
_symmetry_cell_setting	triclinic
loop_
_symmetry_equiv_pos_as_xyz
  x,y,z
_cell_length_a	15.944499
_cell_length_b	15.944551
_cell_length_c	9.730223
_cell_angle_alpha	89.997716
_cell_angle_beta	89.997205
_cell_angle_gamma	83.488174
loop_
_atom_site_label
_atom_site_type_symbol
_atom_site_fract_x
_atom_site_fract_y
_atom_site_fract_z
O1	O	1.114546	0.108122	-0.114375
O2	O	0.869991	0.121523	-0.114360
O3	O	0.998947	-0.007454	-0.114356
O4	O	0.985590	0.237098	-0.114380
O5	O	0.998945	-0.007450	0.114224
O6	O	0.869989	0.121526	0.114220
O7	O	1.114545	0.108125	0.114205
Zn8	Zn	0.992267	0.114826	0.150504
Zn9	Zn	0.992269	0.114822	-0.150660
O10	O	0.985589	0.237102	0.114200
C11	C	0.838695	0.120976	-0.000068
C12	C	0.745447	0.119331	-0.000062
C13	C	0.453911	0.194263	-0.000090
C14	C	0.514941	0.155310	-0.112791
C15	C	0.409810	0.113355	-0.000093
C16	C	0.514925	0.155292	0.112571
C17	C	0.574719	0.116296	-0.000076
C18	C	0.469612	0.074379	-0.112887
C19	C	0.469590	0.074372	0.112576
C20	C	0.530603	0.035360	-0.000152
C21	C	0.314810	0.111663	-0.000105
C22	C	0.669718	0.117981	-0.000074
C23	C	0.998392	-0.038746	-0.000066
C24	C	0.996729	-0.131992	-0.000065
C25	C	0.912823	-0.346833	-0.000078
C26	C	0.951786	-0.407856	0.112623
C27	C	0.993722	-0.302717	-0.000075
C28	C	0.951806	-0.407842	-0.112739
C29	C	0.990811	-0.467629	-0.000091
C30	C	1.032707	-0.362512	0.112719
C31	C	1.032716	-0.362492	-0.112744
C32	C	1.071737	-0.423497	-0.000015
C33	C	0.995397	-0.207715	-0.000065
C34	C	0.989143	-0.562630	-0.000092
C35	C	1.145840	0.108672	-0.000090
C36	C	1.239089	0.110317	-0.000105
C37	C	0.986144	0.268394	-0.000093
C38	C	0.987806	0.361640	-0.000103
N39	N	0.992272	0.114829	0.356041
N40	N	0.992271	0.114813	-0.356196
C41	C	1.049388	0.057737	0.427969
C42	C	1.049386	0.057727	0.571852
C43	C	0.935148	0.171907	0.571866
C44	C	0.935147	0.171913	0.427985
C45	C	1.115345	-0.008182	0.427962
C46	C	1.115342	-0.008192	0.571845
H47	H	0.535000	0.189528	0.207847
O48	O	0.538806	0.196243	-0.226425
C49	C	0.494161	0.270378	-0.434357
C50	C	0.467000	0.224017	-0.305769
H51	H	0.436123	0.292831	-0.498558
H52	H	0.527038	0.327059	-0.401753
H53	H	0.539448	0.225508	-0.498007
H54	H	0.421685	0.268821	-0.242062
H55	H	0.434170	0.167325	-0.338467
O56	O	0.445638	0.033646	-0.226644
C57	C	0.330315	-0.013673	-0.354232
C58	C	0.357350	0.032486	-0.225362
H59	H	0.258935	-0.014642	-0.353224
H60	H	0.349313	0.020585	-0.450208
H61	H	0.362700	-0.081196	-0.354622
H62	H	0.324978	0.100010	-0.224838
H63	H	0.338367	-0.001837	-0.129444
H64	H	0.888639	0.218383	0.630459
H65	H	0.449473	0.040181	0.207865
H66	H	0.917568	-0.427956	0.207907
O67	O	1.091496	-0.080696	0.625140
C68	C	0.991864	-0.143836	0.767062
C69	C	1.018764	-0.061666	0.706780
H70	H	0.933068	-0.128478	0.833105
H71	H	0.977456	-0.187752	0.679852
H72	H	1.045199	-0.176112	0.832937
H73	H	0.965462	-0.029319	0.640921
H74	H	1.033200	-0.017810	0.794055
H75	H	0.563780	-0.031846	-0.000205
O76	O	1.073627	-0.338735	0.226417
C77	C	1.203359	-0.351833	0.355678
C78	C	1.157129	-0.378816	0.226846
H79	H	1.270873	-0.384240	0.356083
H80	H	1.204336	-0.280452	0.354802
H81	H	1.169066	-0.370875	0.451587
H82	H	1.191386	-0.359831	0.130869
H83	H	1.156145	-0.450195	0.227843
H84	H	0.917579	-0.427914	-0.208026
O85	O	1.098784	-0.084982	0.381209
C86	C	1.006063	-0.162473	0.248012
C87	C	1.024737	-0.075448	0.300833
H88	H	0.946187	-0.154795	0.183041
H89	H	1.061243	-0.191631	0.182828
H90	H	0.996909	-0.205431	0.339160
H91	H	1.033874	-0.032425	0.209769
H92	H	0.969548	-0.046357	0.366060
O93	O	0.414006	0.274309	-0.000159
C94	C	0.280821	0.362417	0.000814
C95	C	0.325908	0.271727	0.000935
H96	H	0.209587	0.360360	0.001669
H97	H	0.300148	0.397280	0.095944
H98	H	0.299360	0.396755	-0.095369
H99	H	0.307392	0.237318	0.097053
H100	H	0.306579	0.236928	-0.094260
H101	H	1.179772	0.005630	0.610890
O102	O	1.073390	-0.338361	-0.226455
C103	C	1.064328	-0.254042	-0.432574
C104	C	1.018181	-0.281287	-0.303822
H105	H	1.019706	-0.207907	-0.495177
H106	H	1.121684	-0.222151	-0.400189
H107	H	1.085747	-0.311954	-0.497726
H108	H	0.996706	-0.223419	-0.238613
H109	H	0.960864	-0.313208	-0.336304
H110	H	1.176158	0.011738	0.383329
O111	O	0.879627	0.227447	0.358327
C112	C	0.766274	0.340652	0.373531
C113	C	0.829122	0.277818	0.452589
H114	H	0.725412	0.381381	0.449707
H115	H	0.802485	0.382698	0.306203
H116	H	0.724357	0.304346	0.306136
H117	H	0.871055	0.314055	0.520058
H118	H	0.792858	0.235772	0.519830
H119	H	0.845673	-0.313513	0.000038
H120	H	1.138946	-0.456668	0.000045
