data_functionalizedCrystal
_audit_creation_method	'MofGen! by Chris Wilmer'
_symmetry_space_group_name_H-M	'P1'
_symmetry_Int_Tables_number	1
_symmetry_cell_setting	triclinic
loop_
_symmetry_equiv_pos_as_xyz
  x,y,z
_cell_length_a	15.944499
_cell_length_b	15.944551
_cell_length_c	15.455313
_cell_angle_alpha	92.664316
_cell_angle_beta	87.316496
_cell_angle_gamma	83.488174
loop_
_atom_site_label
_atom_site_type_symbol
_atom_site_fract_x
_atom_site_fract_y
_atom_site_fract_z
O1	O	1.118236	0.104448	-0.072185
O2	O	1.618236	0.604448	0.427815
O3	O	0.873679	0.117850	-0.072175
O4	O	1.373679	0.617850	0.427825
O5	O	1.002635	-0.011127	-0.072173
O6	O	1.502635	0.488873	0.427827
O7	O	0.989280	0.233425	-0.072188
O8	O	1.489280	0.733425	0.427812
O9	O	0.995261	-0.003782	0.072089
O10	O	1.495261	0.496218	0.572089
O11	O	0.866305	0.125195	0.072087
O12	O	1.366305	0.625195	0.572087
O13	O	1.110861	0.111793	0.072077
O14	O	1.610861	0.611793	0.572077
Cu15	Cu	0.987910	0.119165	0.085254
Cu16	Cu	1.487910	0.619165	0.585254
Cu17	Cu	0.996631	0.110478	-0.085352
Cu18	Cu	1.496631	0.610478	0.414648
O19	O	0.981905	0.240770	0.072074
O20	O	1.481905	0.740770	0.572074
C21	C	0.838698	0.120974	-0.000043
C22	C	1.338698	0.620974	0.499957
C23	C	0.745449	0.119329	-0.000039
C24	C	1.245449	0.619329	0.499961
C25	C	0.998394	-0.038748	-0.000041
C26	C	1.498394	0.461252	0.499959
C27	C	0.996731	-0.131994	-0.000041
C28	C	1.496731	0.368006	0.499959
C29	C	0.453914	0.194261	-0.000057
C30	C	0.953914	0.694261	0.499943
C31	C	0.518579	0.151687	-0.071185
C32	C	1.018579	0.651687	0.428815
C33	C	0.409813	0.113352	-0.000059
C34	C	0.909813	0.613352	0.499941
C35	C	0.511294	0.158907	0.071046
C36	C	1.011294	0.658907	0.571046
C37	C	0.574722	0.116293	-0.000048
C38	C	1.074722	0.616293	0.499952
C39	C	0.473253	0.070753	-0.071246
C40	C	0.973253	0.570753	0.428754
C41	C	0.465959	0.077988	0.071049
C42	C	0.965959	0.577988	0.571049
C43	C	0.530608	0.035355	-0.000096
C44	C	1.030608	0.535355	0.499904
C45	C	0.314814	0.111660	-0.000066
C46	C	0.814814	0.611660	0.499934
C47	C	0.669721	0.117979	-0.000047
C48	C	1.169721	0.617979	0.499953
C49	C	0.912825	-0.346835	-0.000050
C50	C	1.412825	0.153165	0.499950
C51	C	0.948153	-0.404238	0.071079
C52	C	1.448153	0.095762	0.571079
C53	C	0.993724	-0.302719	-0.000047
C54	C	1.493724	0.197281	0.499953
C55	C	0.955442	-0.411463	-0.071152
C56	C	1.455442	0.088537	0.428848
C57	C	0.990814	-0.467632	-0.000057
C58	C	1.490814	0.032368	0.499943
C59	C	1.029071	-0.358891	0.071140
C60	C	1.529071	0.141109	0.571140
C61	C	1.036353	-0.366113	-0.071155
C62	C	1.536353	0.133887	0.428845
C63	C	1.071738	-0.423498	-0.000009
C64	C	1.571738	0.076502	0.499991
C65	C	0.995399	-0.207717	-0.000041
C66	C	1.495399	0.292283	0.499959
C67	C	0.989146	-0.562633	-0.000058
C68	C	1.489146	-0.062633	0.499942
C69	C	1.145843	0.108669	-0.000057
C70	C	1.645843	0.608669	0.499943
C71	C	1.239092	0.110313	-0.000067
C72	C	1.739092	0.610313	0.499933
C73	C	0.986147	0.268391	-0.000059
C74	C	1.486147	0.768391	0.499941
C75	C	0.987810	0.361636	-0.000065
C76	C	1.487810	0.861636	0.499935
N77	N	0.981782	0.125274	0.205250
N78	N	1.481782	0.625274	0.705250
N79	N	1.002765	0.104363	-0.205348
N80	N	1.502765	0.604363	0.294652
C81	C	1.036586	0.070500	0.250645
C82	C	1.536586	0.570500	0.750645
C83	C	1.031960	0.075128	0.341453
C84	C	1.531960	0.575128	0.841453
C85	C	0.972533	0.134534	0.386863
C86	C	1.472533	0.634534	0.886863
C87	C	0.917723	0.189310	0.341462
C88	C	1.417723	0.689310	0.841462
C89	C	0.922346	0.184678	0.250656
C90	C	1.422346	0.684678	0.750656
C91	C	0.952578	0.154506	0.658444
C92	C	1.452578	0.654506	1.158444
C93	C	0.947961	0.159136	0.749257
C94	C	1.447961	0.659136	1.249257
C95	C	1.062198	0.044953	0.749242
C96	C	1.562198	0.544953	1.249242
C97	C	1.066819	0.040329	0.658434
C98	C	1.566819	0.540329	1.158434
C99	C	1.012006	0.095102	0.613040
C100	C	1.512006	0.595102	1.113040
N101	N	0.967804	0.139267	0.479684
N102	N	1.467804	0.639267	0.979684
N103	N	1.016731	0.090364	0.520221
N104	N	1.516731	0.590364	1.020221
H105	H	0.420588	0.261403	-0.000130
H106	H	0.920588	0.761403	0.499870
H107	H	0.877718	0.229279	0.213696
H108	H	1.377718	0.729279	0.713696
Cl109	Cl	0.890581	-0.430548	0.163925
Cl110	Cl	1.390581	0.069452	0.663925
H111	H	0.845672	-0.313511	0.000024
H112	H	1.345672	0.186489	0.500024
Cl113	Cl	1.175498	-0.474713	0.000045
Cl114	Cl	1.675498	0.025287	0.500045
H115	H	1.084981	0.022129	0.213677
H116	H	1.584981	0.522129	0.713677
Cl117	Cl	0.581844	-0.068404	-0.000148
Cl118	Cl	1.081844	0.431596	0.499852
Cl119	Cl	1.100857	0.006267	0.398523
Cl120	Cl	1.600857	0.506267	0.898523
Cl121	Cl	0.554346	0.199792	-0.164034
Cl122	Cl	1.054346	0.699792	0.335966
H123	H	0.456352	0.033499	-0.131446
H124	H	0.956352	0.533499	0.368554
Cl125	Cl	1.131098	-0.023904	0.806312
Cl126	Cl	1.631098	0.476096	1.306312
Cl127	Cl	0.430149	0.029924	0.163900
Cl128	Cl	0.930149	0.529924	0.663900
Cl129	Cl	0.537547	0.216488	0.163882
Cl130	Cl	1.037547	0.716488	0.663882
Cl131	Cl	1.093883	-0.339767	-0.164006
Cl132	Cl	1.593883	0.160233	0.335994
H133	H	1.060182	-0.335842	0.131339
H134	H	1.560182	0.164158	0.631339
Cl135	Cl	0.907338	-0.447199	-0.163986
Cl136	Cl	1.407338	0.052801	0.336014
H137	H	0.899566	0.207515	0.786226
H138	H	1.399566	0.707515	1.286226
Cl139	Cl	1.141528	-0.034353	0.601346
Cl140	Cl	1.641528	0.465647	1.101346
Cl141	Cl	0.883676	0.223365	0.601384
Cl142	Cl	1.383676	0.723365	1.101384
H143	H	0.869332	0.237677	0.378440
H144	H	1.369332	0.737677	0.878440
