data_functionalizedCrystal
_audit_creation_method	'MofGen! by Chris Wilmer'
_symmetry_space_group_name_H-M	'P1'
_symmetry_Int_Tables_number	1
_symmetry_cell_setting	triclinic
loop_
_symmetry_equiv_pos_as_xyz
  x,y,z
_cell_length_a	8.597340
_cell_length_b	10.967829
_cell_length_c	7.681481
_cell_angle_alpha	72.153773
_cell_angle_beta	103.474906
_cell_angle_gamma	86.633684
loop_
_atom_site_label
_atom_site_type_symbol
_atom_site_fract_x
_atom_site_fract_y
_atom_site_fract_z
O1	O	2.096260	0.176898	0.117938
O2	O	1.631786	0.197280	0.041281
O3	O	1.880485	0.000878	0.138618
O4	O	1.847560	0.373300	0.020602
O5	O	1.911097	-0.023350	0.443473
O6	O	1.662397	0.173051	0.346136
O7	O	2.126871	0.152670	0.422793
Zn8	Zn	1.899495	0.159014	0.432867
Zn9	Zn	1.859162	0.190936	0.031207
O10	O	1.878172	0.349071	0.325457
C11	C	1.587725	0.184326	0.184956
C12	C	1.410832	0.181811	0.158880
C13	C	1.895708	-0.058892	0.305491
C14	C	1.895442	-0.200893	0.348534
C15	C	1.879466	-0.251644	0.209797
C16	C	1.879191	-0.398410	0.254280
C17	C	2.170932	0.165623	0.279114
C18	C	2.347824	0.168140	0.305178
C19	C	1.862949	0.408842	0.158579
C20	C	1.863213	0.550844	0.115524
N21	N	1.927032	0.137227	0.706991
N22	N	1.831638	0.212712	-0.242912
H23	H	1.329437	0.191591	0.013663
Br24	Br	1.857043	-0.142982	-0.043065
H25	H	2.024428	0.060183	0.820355
H26	H	1.429211	0.158351	0.450388
H27	H	1.892657	-0.463609	0.405998
Br28	Br	1.840678	-0.340490	-0.137370
Br29	Br	1.917883	-0.309557	0.601399
Br30	Br	1.669331	0.341138	0.568159
