data_functionalizedCrystal
_audit_creation_method	'MofGen! by Chris Wilmer'
_symmetry_space_group_name_H-M	'P1'
_symmetry_Int_Tables_number	1
_symmetry_cell_setting	triclinic
loop_
_symmetry_equiv_pos_as_xyz
  x,y,z
_cell_length_a	10.654546
_cell_length_b	13.101039
_cell_length_c	14.044190
_cell_angle_alpha	86.336293
_cell_angle_beta	91.162351
_cell_angle_gamma	86.602214
loop_
_atom_site_label
_atom_site_type_symbol
_atom_site_fract_x
_atom_site_fract_y
_atom_site_fract_z
O1	O	-1.687577	0.085410	0.128014
O2	O	-1.323371	0.085374	0.140713
O3	O	-1.500001	0.085371	-0.003656
O4	O	-1.510947	0.085413	0.272383
O5	O	-1.487330	-0.085058	0.006720
O6	O	-1.310700	-0.085056	0.151089
O7	O	-1.674906	-0.085019	0.138390
Zn8	Zn	-1.490791	-0.112097	0.146387
Zn9	Zn	-1.507486	0.112451	0.132717
O10	O	-1.498276	-0.085017	0.282759
C11	C	-1.270144	0.000154	0.144970
C12	C	-1.130419	0.000139	0.142184
N13	N	-1.479406	-0.265345	0.155716
C14	C	-1.059479	0.000163	0.227184
C15	C	-0.928195	0.000172	0.224559
C16	C	-0.938802	0.000140	0.051925
C17	C	-1.070084	0.000123	0.054552
C18	C	-1.053355	0.000186	0.326853
C19	C	-0.922071	0.000196	0.324228
C20	C	-1.463918	-0.474388	0.168417
C21	C	-1.534364	-0.525264	0.110682
C22	C	-1.525746	-0.641583	0.117749
C23	C	-1.472535	-0.358059	0.161351
C24	C	-0.728132	0.000188	0.134137
C25	C	-0.867854	0.000166	0.136932
C26	C	-1.488878	0.000153	-0.033813
C27	C	-1.474598	0.000143	-0.139132
N28	N	-1.518879	0.265700	0.123380
C29	C	-1.549767	0.000190	-0.388928
C30	C	-1.448516	0.000173	-0.331963
C31	C	-1.463032	0.000156	-0.224662
C32	C	-1.535253	0.000207	-0.496239
C33	C	-1.509399	0.000204	0.312917
C34	C	-1.523679	0.000221	0.418235
H35	H	-0.889662	0.000142	-0.019423
C36	C	-0.877945	0.096566	0.369078
C37	C	-0.975014	0.174250	0.407881
C38	C	-0.930889	0.270618	0.452724
C39	C	-0.789693	0.289303	0.458764
C40	C	-0.692614	0.211617	0.419960
C41	C	-0.736740	0.115249	0.375116
H42	H	-1.079544	0.160420	0.403411
H43	H	-1.002754	0.328126	0.481450
H44	H	-0.757029	0.360641	0.491960
H45	H	-0.588085	0.225447	0.424430
H46	H	-0.664875	0.057741	0.346391
H47	H	-1.081302	-0.071135	0.370175
C48	C	-1.681593	0.000179	-0.345954
C49	C	-1.798902	0.000188	-0.411839
C50	C	-1.930725	0.000169	-0.368851
C51	C	-1.945241	0.000141	-0.259978
C52	C	-1.827929	0.000132	-0.194087
C53	C	-1.696105	0.000151	-0.237075
H54	H	-1.788160	0.000209	-0.492439
H55	H	-2.017567	0.000176	-0.417629
H56	H	-2.042825	0.000128	-0.228156
H57	H	-1.838671	0.000112	-0.113486
H58	H	-1.609263	0.000144	-0.188297
H59	H	-1.127837	0.000089	-0.014663
C60	C	-1.113231	0.099594	0.363679
C61	C	-1.093548	0.203504	0.310171
C62	C	-1.153422	0.302915	0.346994
C63	C	-1.232979	0.298417	0.437325
C64	C	-1.252666	0.194503	0.490839
C65	C	-1.192792	0.095092	0.454016
H66	H	-1.034651	0.206838	0.243298
H67	H	-1.138848	0.379839	0.307380
H68	H	-1.277302	0.372007	0.464584
H69	H	-1.311562	0.191170	0.557712
H70	H	-1.207365	0.018168	0.493631
H71	H	-1.350929	0.000169	-0.363779
C72	C	-0.857058	-0.099198	0.370966
C73	C	-0.936608	-0.184379	0.413720
C74	C	-0.871593	-0.283772	0.460452
C75	C	-0.727029	-0.297984	0.464430
C76	C	-0.647471	-0.212801	0.421674
C77	C	-0.712486	-0.113408	0.374942
H78	H	-1.043630	-0.173860	0.410777
H79	H	-0.930488	-0.346830	0.492103
H80	H	-0.678902	-0.371561	0.499024
H81	H	-0.540449	-0.223320	0.424618
H82	H	-0.653591	-0.050350	0.343292
H83	H	-1.601147	-0.481463	0.055946
H84	H	-1.397141	-0.518184	0.223151
