data_functionalizedCrystal
_audit_creation_method	'MofGen! by Chris Wilmer'
_symmetry_space_group_name_H-M	'P1'
_symmetry_Int_Tables_number	1
_symmetry_cell_setting	triclinic
loop_
_symmetry_equiv_pos_as_xyz
  x,y,z
_cell_length_a	12.827893
_cell_length_b	12.759399
_cell_length_c	12.827885
_cell_angle_alpha	90.030910
_cell_angle_beta	89.980728
_cell_angle_gamma	89.984913
loop_
_atom_site_label
_atom_site_type_symbol
_atom_site_fract_x
_atom_site_fract_y
_atom_site_fract_z
Zn1	Zn	1.597672	0.418216	-0.590840
Zn2	Zn	1.597567	0.593932	-0.416097
Zn3	Zn	1.422913	0.418267	-0.416114
Zn4	Zn	1.422899	0.593854	-0.590797
O5	O	1.510263	0.506067	-0.503462
O6	O	1.743894	0.441537	-0.567671
O7	O	1.574360	0.570684	-0.269863
O8	O	1.446145	0.271240	-0.439317
O9	O	1.743816	0.570634	-0.439288
O10	O	1.574539	0.271202	-0.567688
O11	O	1.446043	0.441624	-0.269876
O12	O	1.276675	0.441548	-0.439275
O13	O	1.446121	0.570501	-0.737039
O14	O	1.276665	0.570550	-0.567614
O15	O	1.574526	0.441461	-0.737071
O16	O	1.574347	0.740943	-0.439247
O17	O	1.446019	0.740885	-0.567598
C18	C	1.238753	0.506047	-0.503442
C19	C	1.122600	0.506064	-0.503459
C20	C	1.510199	0.779035	-0.503439
C21	C	1.510267	0.895811	-0.503463
C22	C	1.510334	0.505966	-0.776033
C23	C	1.510364	0.505923	-0.892186
C24	C	1.070837	0.569998	-0.566867
C25	C	0.950787	0.570017	-0.566885
C26	C	1.782833	0.506088	-0.503483
C27	C	1.898986	0.506097	-0.503492
C28	C	1.510355	0.232034	-0.503509
C29	C	1.510395	0.115257	-0.503529
C30	C	1.577163	0.950668	-0.436707
C31	C	1.577230	1.060392	-0.436742
C32	C	1.443496	1.060393	-0.570293
C33	C	1.443435	0.950671	-0.570262
C34	C	1.573910	0.442058	-0.943986
C35	C	1.573942	0.442012	-1.064037
C36	C	1.510252	0.506092	-0.231952
C37	C	1.510424	0.505839	-0.115800
H38	H	0.906273	0.624756	-0.621168
O39	O	1.645947	0.369677	-0.885008
H40	H	1.628074	0.287190	-0.905899
H41	H	1.631583	0.906004	-0.382316
H42	H	1.078038	0.451337	-0.449190
H43	H	1.628350	0.387338	-1.108584
O44	O	1.438327	0.578255	-1.056817
H45	H	1.456193	0.660731	-1.077683
O46	O	1.649376	1.119564	-0.364735
H47	H	1.695829	1.062979	-0.318278
O48	O	1.371260	0.891502	-0.642258
H49	H	1.389136	0.912483	-0.724298
H50	H	1.389082	1.105073	-0.624677
H51	H	0.943493	0.451362	-0.449199
H52	H	1.455978	0.560560	-0.936714
H53	H	1.115399	0.624717	-0.621143
