data_functionalizedCrystal
_audit_creation_method	'MofGen! by Chris Wilmer'
_symmetry_space_group_name_H-M	'P1'
_symmetry_Int_Tables_number	1
_symmetry_cell_setting	triclinic
loop_
_symmetry_equiv_pos_as_xyz
  x,y,z
_cell_length_a	16.109317
_cell_length_b	16.109301
_cell_length_c	14.586319
_cell_angle_alpha	89.994786
_cell_angle_beta	89.998916
_cell_angle_gamma	96.535152
loop_
_atom_site_label
_atom_site_type_symbol
_atom_site_fract_x
_atom_site_fract_y
_atom_site_fract_z
O1	O	-1.103122	0.106931	-0.076146
O2	O	-0.603122	0.606931	0.423854
O3	O	-0.861062	0.120216	-0.076169
O4	O	-0.361062	0.620216	0.423831
O5	O	-0.988742	-0.007457	-0.076147
O6	O	-0.488742	0.492543	0.423853
O7	O	-0.975443	0.234604	-0.076167
O8	O	-0.475443	0.734604	0.423833
O9	O	-0.988733	-0.007459	0.076333
O10	O	-0.488733	0.492541	0.576333
O11	O	-0.861053	0.120214	0.076312
O12	O	-0.361053	0.620214	0.576312
O13	O	-1.103113	0.106929	0.076335
O14	O	-0.603113	0.606929	0.576335
Cu15	Cu	-0.982083	0.113572	0.090246
Cu16	Cu	-0.482083	0.613572	0.590246
Cu17	Cu	-0.982093	0.113574	-0.090080
Cu18	Cu	-0.482093	0.613574	0.409920
O19	O	-0.975434	0.234603	0.076313
O20	O	-0.475434	0.734603	0.576313
C21	C	-0.830083	0.119675	0.000068
C22	C	-0.330083	0.619675	0.500068
C23	C	-0.737788	0.118054	0.000060
C24	C	-0.237788	0.618054	0.500060
C25	C	-0.438719	0.112821	-0.083047
C26	C	0.061281	0.612821	0.416953
C27	C	-0.525441	0.114338	-0.083051
C28	C	-0.025441	0.614338	0.416949
C29	C	-0.525450	0.114325	0.083192
C30	C	-0.025450	0.614325	0.583192
C31	C	-0.438731	0.112802	0.083195
C32	C	0.061269	0.612802	0.583195
C33	C	-0.395367	0.112054	0.000073
C34	C	0.104633	0.612054	0.500073
C35	C	-0.568808	0.115095	0.000066
C36	C	-0.068808	0.615095	0.500066
C37	C	-0.662835	0.116740	0.000062
C38	C	-0.162835	0.616740	0.500062
C39	C	-0.301335	0.110408	0.000076
C40	C	0.198665	0.610408	0.500076
C41	C	-0.988199	-0.038433	0.000093
C42	C	-0.488199	0.461567	0.500093
C43	C	-0.986584	-0.130728	0.000095
C44	C	-0.486584	0.369272	0.500095
C45	C	-1.058591	-0.352996	0.000087
C46	C	-0.558591	0.147004	0.500087
C47	C	-1.057067	-0.439717	0.000079
C48	C	-0.557067	0.060283	0.500079
C49	C	-0.905579	-0.419851	0.000068
C50	C	-0.405579	0.080149	0.500068
C51	C	-0.907104	-0.333132	0.000069
C52	C	-0.407104	0.166868	0.500069
C53	C	-0.983612	-0.299707	0.000083
C54	C	-0.483612	0.200293	0.500083
C55	C	-0.980563	-0.473147	0.000075
C56	C	-0.480563	0.026853	0.500075
C57	C	-0.978910	-0.567173	0.000066
C58	C	-0.478910	-0.067173	0.500066
C59	C	-0.985266	-0.205675	0.000090
C60	C	-0.485266	0.294325	0.500090
C61	C	-0.134092	0.107472	0.000091
C62	C	0.365908	0.607472	0.500091
C63	C	-0.226387	0.109095	0.000079
C64	C	0.273613	0.609095	0.500079
C65	C	-0.975977	0.265578	0.000071
C66	C	-0.475977	0.765578	0.500071
C67	C	-0.977592	0.357874	0.000063
C68	C	-0.477592	0.857874	0.500063
N69	N	-0.982081	0.113570	0.217078
N70	N	-0.482081	0.613570	0.717078
N71	N	-0.982101	0.113570	-0.216912
N72	N	-0.482101	0.613570	0.283088
C73	C	-1.038636	0.057055	0.452094
C74	C	-0.538636	0.557055	0.952094
C75	C	-1.038639	0.057053	0.548075
C76	C	-0.538639	0.557053	1.048075
C77	C	-0.925540	0.170087	0.548065
C78	C	-0.425540	0.670087	1.048065
C79	C	-0.925534	0.170084	0.452086
C80	C	-0.425534	0.670084	0.952086
C81	C	-0.982087	0.113569	0.404103
C82	C	-0.482087	0.613569	0.904103
C83	C	-0.982095	0.113570	0.596063
C84	C	-0.482095	0.613570	1.096063
C85	C	-0.982097	0.113568	0.700131
C86	C	-0.482097	0.613568	1.200131
C87	C	-0.982084	0.113570	0.300029
C88	C	-0.482084	0.613570	0.800029
H89	H	-0.560734	0.114962	-0.150736
H90	H	-0.060734	0.614962	0.349264
H91	H	-0.843289	-0.447077	0.000059
H92	H	-0.343289	0.052923	0.500059
H93	H	-1.084685	0.011033	0.587147
H94	H	-0.584685	0.511033	1.087147
H95	H	-0.403433	0.112177	0.150885
H96	H	0.096567	0.612177	0.650885
H97	H	-0.879496	0.216101	0.587143
H98	H	-0.379496	0.716101	1.087143
H99	H	-0.846044	-0.289742	0.000064
H100	H	-0.346044	0.210258	0.500064
O101	O	-1.093613	0.002251	0.405421
O102	O	-0.593613	0.502251	0.905421
C103	C	-1.144880	0.046758	0.349846
C104	C	-0.644880	0.546758	0.849846
H105	H	-1.146323	0.112320	0.378759
H106	H	-0.646323	0.612320	0.878759
H107	H	-1.118822	0.051124	0.277121
H108	H	-0.618822	0.551124	0.777121
C109	C	-1.232357	-0.079613	0.312812
C110	C	-0.732357	0.420387	0.812812
C111	C	-1.234136	0.000910	0.348328
C112	C	-0.734136	0.500910	0.848328
H113	H	-1.287414	-0.107895	0.311871
H114	H	-0.787414	0.392105	0.811871
H115	H	-1.197817	-0.109599	0.350250
H116	H	-0.697817	0.390401	0.850250
H117	H	-1.210639	-0.075963	0.252210
H118	H	-0.710639	0.424037	0.752210
H119	H	-1.255844	-0.002741	0.408932
H120	H	-0.755844	0.497259	0.908932
H121	H	-1.268682	0.030894	0.310899
H122	H	-0.768682	0.530894	0.810899
O123	O	-0.396729	0.112056	-0.163870
O124	O	0.103271	0.612056	0.336130
C125	C	-0.453591	0.113079	-0.237234
C126	C	0.046409	0.613079	0.262766
H127	H	-0.518856	0.087855	-0.212866
H128	H	-0.018856	0.587855	0.287134
H129	H	-0.454075	0.179903	-0.262792
H130	H	0.045925	0.679903	0.237208
C131	C	-0.346726	0.088982	-0.345692
C132	C	0.153274	0.588982	0.154308
C133	C	-0.426885	0.057995	-0.315765
C134	C	0.073115	0.557995	0.184235
H135	H	-0.330252	0.055008	-0.394136
H136	H	0.169748	0.555008	0.105864
H137	H	-0.308416	0.088296	-0.296266
H138	H	0.191584	0.588296	0.203734
H139	H	-0.347140	0.144668	-0.366984
H140	H	0.152860	0.644668	0.133016
H141	H	-0.426468	0.002315	-0.294463
H142	H	0.073532	0.502315	0.205537
H143	H	-0.465195	0.058671	-0.365189
H144	H	0.034805	0.558671	0.134811
O145	O	-0.567697	0.115099	0.163850
O146	O	-0.067697	0.615099	0.663850
C147	C	-0.653537	0.116589	0.146027
C148	C	-0.153537	0.616589	0.646027
H149	H	-0.661928	0.143107	0.074590
H150	H	-0.161928	0.643107	0.574590
H151	H	-0.686889	0.050362	0.149969
H152	H	-0.186889	0.550362	0.649969
C153	C	-0.680611	0.139291	0.305469
C154	C	-0.180611	0.639291	0.805469
C155	C	-0.690916	0.171866	0.217733
C156	C	-0.190916	0.671866	0.717733
H157	H	-0.703670	0.173384	0.349703
H158	H	-0.203670	0.673384	0.849703
H159	H	-0.622779	0.138283	0.317479
H160	H	-0.122779	0.638283	0.817479
H161	H	-0.708404	0.084102	0.308741
H162	H	-0.208404	0.584102	0.808741
H163	H	-0.663114	0.227049	0.214458
H164	H	-0.163114	0.727049	0.714458
H165	H	-0.748743	0.172884	0.205724
H166	H	-0.248743	0.672884	0.705724
H167	H	-1.120889	-0.325785	0.000097
H168	H	-0.620889	0.174215	0.500097
H169	H	-1.118122	-0.483101	0.000080
H170	H	-0.618122	0.016899	0.500080
O171	O	-0.870568	0.225067	0.405603
O172	O	-0.370568	0.725067	0.905603
C173	C	-0.820645	0.274940	0.468533
C174	C	-0.320645	0.774940	0.968533
H175	H	-0.854731	0.275897	0.536950
H176	H	-0.354731	0.775897	1.036950
H177	H	-0.758895	0.247922	0.478748
H178	H	-0.258895	0.747922	0.978748
C179	C	-0.761614	0.363446	0.347026
C180	C	-0.261614	0.863446	0.847026
C181	C	-0.803483	0.364628	0.431054
C182	C	-0.303483	0.864628	0.931054
H183	H	-0.751024	0.418769	0.323907
H184	H	-0.251024	0.918769	0.823907
H185	H	-0.795246	0.329844	0.304628
H186	H	-0.295246	0.829844	0.804628
H187	H	-0.710161	0.340927	0.355550
H188	H	-0.210161	0.840927	0.855550
H189	H	-0.854940	0.387136	0.422527
H190	H	-0.354940	0.887136	0.922527
H191	H	-0.769860	0.398236	0.473450
H192	H	-0.269860	0.898236	0.973450
