data_functionalizedCrystal
_audit_creation_method	'MofGen! by Chris Wilmer'
_symmetry_space_group_name_H-M	'P1'
_symmetry_Int_Tables_number	1
_symmetry_cell_setting	triclinic
loop_
_symmetry_equiv_pos_as_xyz
  x,y,z
_cell_length_a	12.811439
_cell_length_b	12.996460
_cell_length_c	12.837942
_cell_angle_alpha	90.005421
_cell_angle_beta	90.588939
_cell_angle_gamma	95.425732
loop_
_atom_site_label
_atom_site_type_symbol
_atom_site_fract_x
_atom_site_fract_y
_atom_site_fract_z
O1	O	-1.406628	-0.045679	0.139651
O2	O	-1.102567	-0.017306	0.154847
O3	O	-1.247855	-0.030870	-0.003682
O4	O	-1.261339	-0.032115	0.298181
O5	O	-1.247837	-0.202002	-0.003691
O6	O	-1.102549	-0.188438	0.154839
O7	O	-1.406610	-0.216811	0.139642
Cu8	Cu	-1.254578	-0.218250	0.147240
Cu9	Cu	-1.254599	-0.015867	0.147250
O10	O	-1.261322	-0.203247	0.298172
C11	C	-1.063369	-0.099216	0.153993
C12	C	-0.946598	-0.088320	0.151447
C13	C	-0.727152	-0.254434	0.146634
C14	C	-0.617435	-0.244202	0.144242
C15	C	-0.617446	-0.057623	0.144263
C16	C	-0.727162	-0.067856	0.146655
C17	C	-0.782012	-0.166264	0.147842
C18	C	-0.891731	-0.176496	0.150242
C19	C	-0.891739	0.010082	0.150255
C20	C	-0.782022	0.020314	0.147863
N21	N	-1.254571	-0.360597	0.147232
C22	C	-1.254597	-0.780413	0.147251
C23	C	-1.254587	-0.663607	0.147249
C24	C	-1.254585	-0.570509	0.147242
C25	C	-1.254573	-0.453695	0.147239
C26	C	-0.445807	-0.134902	0.140501
C27	C	-0.562578	-0.145799	0.143058
C28	C	-1.243291	-0.116010	-0.042327
C29	C	-1.229705	-0.114741	-0.157462
N30	N	-1.254613	0.126479	0.147250
C31	C	-1.393032	-0.129959	-0.397720
C32	C	-1.380272	-0.128767	-0.505901
C33	C	-1.191425	-0.111156	-0.482006
C34	C	-1.204185	-0.112349	-0.373826
C35	C	-1.304992	-0.121752	-0.331687
C36	C	-1.317752	-0.122952	-0.223504
C37	C	-1.128905	-0.105334	-0.199612
C38	C	-1.116145	-0.104141	-0.307792
C39	C	-1.265886	-0.118105	0.336817
C40	C	-1.279472	-0.119367	0.451952
H41	H	-0.572773	-0.315999	0.143264
F42	F	-1.084148	-0.101124	-0.526871
F43	F	-1.425038	-0.132966	-0.178659
H44	H	-0.936417	0.081876	0.151245
F45	F	-0.950104	-0.281230	0.151509
F46	F	-0.559056	0.047102	0.142920
H47	H	-1.475113	-0.137626	-0.363411
F48	F	-1.473977	-0.137500	-0.576176
F49	F	-0.785529	-0.359166	0.147910
H50	H	-0.737349	0.100436	0.146892
H51	H	-1.034071	-0.096481	-0.342117
H52	H	-1.057217	-0.098659	-0.145835
