data_functionalizedCrystal
_audit_creation_method	'MofGen! by Chris Wilmer'
_symmetry_space_group_name_H-M	'P1'
_symmetry_Int_Tables_number	1
_symmetry_cell_setting	triclinic
loop_
_symmetry_equiv_pos_as_xyz
  x,y,z
_cell_length_a	21.395364
_cell_length_b	15.299816
_cell_length_c	21.395356
_cell_angle_alpha	99.658221
_cell_angle_beta	89.976411
_cell_angle_gamma	80.365592
loop_
_atom_site_label
_atom_site_type_symbol
_atom_site_fract_x
_atom_site_fract_y
_atom_site_fract_z
Zn1	Zn	1.001000	-0.358711	-0.397435
Zn2	Zn	1.334333	-0.025377	-0.064102
Zn3	Zn	1.667667	0.307956	0.269231
Zn4	Zn	1.019045	-0.509529	-0.310810
Zn5	Zn	1.352378	-0.176195	0.022524
Zn6	Zn	1.685712	0.157138	0.355857
Zn7	Zn	0.896224	-0.358774	-0.292680
Zn8	Zn	1.229558	-0.025441	0.040654
Zn9	Zn	1.562891	0.307892	0.373987
Zn10	Zn	0.914324	-0.509521	-0.415549
Zn11	Zn	1.247657	-0.176187	-0.082216
Zn12	Zn	1.580991	0.157146	0.251118
O13	O	0.957648	-0.434134	-0.354118
O14	O	1.290982	-0.100800	-0.020785
O15	O	1.624315	0.232533	0.312548
O16	O	1.091069	-0.378694	-0.385951
O17	O	1.424402	-0.045360	-0.052618
O18	O	1.757736	0.287973	0.280716
O19	O	1.002730	-0.489561	-0.220731
O20	O	1.336063	-0.156227	0.112603
O21	O	1.669397	0.177106	0.445936
O22	O	0.894996	-0.232560	-0.291407
O23	O	1.228330	0.100773	0.041926
O24	O	1.561663	0.434106	0.375259
O25	O	1.104326	-0.489499	-0.322308
O26	O	1.437660	-0.156166	0.011026
O27	O	1.770993	0.177168	0.344359
O28	O	0.971975	-0.232514	-0.368371
O29	O	1.305308	0.100820	-0.035037
O30	O	1.638641	0.434153	0.298296
O31	O	0.912494	-0.378802	-0.207410
O32	O	1.245827	-0.045469	0.125923
O33	O	1.579161	0.287864	0.459256
O34	O	0.810950	-0.378794	-0.308972
O35	O	1.144284	-0.045461	0.024362
O36	O	1.477617	0.287872	0.357695
O37	O	0.925845	-0.489485	-0.500820
O38	O	1.259178	-0.156152	-0.167487
O39	O	1.592511	0.177181	0.165846
O40	O	0.824248	-0.489547	-0.399243
O41	O	1.157581	-0.156214	-0.065910
O42	O	1.490915	0.177120	0.267423
O43	O	0.989525	-0.378686	-0.487512
O44	O	1.322858	-0.045353	-0.154179
O45	O	1.656192	0.287981	0.179154
O46	O	1.020280	-0.635733	-0.339872
O47	O	1.353614	-0.302400	-0.006539
O48	O	1.686947	0.030933	0.326795
O49	O	0.943342	-0.635727	-0.416823
O50	O	1.276676	-0.302394	-0.083490
O51	O	1.610009	0.030939	0.249843
C52	C	0.794866	-0.434177	-0.354106
C53	C	1.128199	-0.100844	-0.020773
C54	C	1.461533	0.232489	0.312561
C55	C	0.725230	-0.434218	-0.354118
C56	C	1.058563	-0.100885	-0.020785
C57	C	1.391896	0.232449	0.312548
C58	C	0.685647	-0.376616	-0.387331
C59	C	1.018980	-0.043283	-0.053997
C60	C	1.352314	0.290051	0.279336
C61	C	0.620209	-0.376592	-0.387330
C62	C	0.953542	-0.043259	-0.053997
C63	C	1.286875	0.290075	0.279336
C64	C	0.594358	-0.434186	-0.354126
C65	C	0.927691	-0.100853	-0.020793
C66	C	1.261024	0.232481	0.312541
C67	C	0.633949	-0.491792	-0.320906
C68	C	0.967282	-0.158459	0.012427
C69	C	1.300615	0.174875	0.345760
C70	C	0.699385	-0.491808	-0.320902
C71	C	1.032718	-0.158475	0.012431
C72	C	1.366051	0.174859	0.345764
C73	C	0.500403	-0.515406	-0.358864
C74	C	0.833736	-0.182073	-0.025530
C75	C	1.167069	0.151260	0.307803
C76	C	0.434968	-0.515392	-0.358872
C77	C	0.768301	-0.182059	-0.025539
C78	C	1.101635	0.151275	0.307795
C79	C	0.392531	-0.434136	-0.354134
C80	C	0.725864	-0.100803	-0.020800
C81	C	1.059197	0.232530	0.312533
C82	C	0.415536	-0.352893	-0.349400
C83	C	0.748869	-0.019560	-0.016067
C84	C	1.082203	0.313774	0.317267
C85	C	0.480972	-0.352909	-0.349396
C86	C	0.814306	-0.019576	-0.016063
C87	C	1.147639	0.313758	0.317270
C88	C	0.523404	-0.434175	-0.354126
C89	C	0.856737	-0.100842	-0.020793
C90	C	1.190070	0.232492	0.312541
C91	C	0.281992	-0.376504	-0.387347
C92	C	0.615325	-0.043170	-0.054014
C93	C	0.948659	0.290163	0.279319
C94	C	0.216552	-0.376478	-0.387342
C95	C	0.549886	-0.043145	-0.054009
C96	C	0.883219	0.290188	0.279324
C97	C	0.230294	-0.491686	-0.320922
C98	C	0.563628	-0.158353	0.012411
C99	C	0.896961	0.174980	0.345744
C100	C	0.295732	-0.491704	-0.320923
C101	C	0.629065	-0.158370	0.012410
C102	C	0.962398	0.174963	0.345743
C103	C	0.321577	-0.434114	-0.354139
C104	C	0.654910	-0.100780	-0.020806
C105	C	0.988243	0.232553	0.312528
C106	C	0.985750	-0.668454	-0.382294
C107	C	1.319084	-0.335121	-0.048961
C108	C	1.652417	-0.001787	0.284372
C109	C	0.997830	-0.768697	-0.394369
C110	C	1.331163	-0.435364	-0.061036
C111	C	1.664497	-0.102031	0.272298
C112	C	0.871725	-1.051662	-0.268031
C113	C	1.205059	-0.718329	0.065302
C114	C	1.538392	-0.384996	0.398636
C115	C	0.860373	-0.957479	-0.256688
C116	C	1.193706	-0.624145	0.076645
C117	C	1.527040	-0.290812	0.409979
C118	C	0.894736	-0.910279	-0.291107
C119	C	1.228070	-0.576945	0.042226
C120	C	1.561403	-0.243612	0.375560
C121	C	0.940454	-0.957271	-0.336872
C122	C	1.273787	-0.623938	-0.003538
C123	C	1.607121	-0.290605	0.329795
C124	C	0.951804	-1.051464	-0.348220
C125	C	1.285137	-0.718131	-0.014886
C126	C	1.618471	-0.384798	0.318447
C127	C	0.974815	-0.910081	-0.371295
C128	C	1.308148	-0.576747	-0.037962
C129	C	1.641482	-0.243414	0.295371
C130	C	1.020532	-0.957073	-0.417060
C131	C	1.353866	-0.623740	-0.083727
C132	C	1.687199	-0.290407	0.249606
C133	C	1.031881	-1.051257	-0.428406
C134	C	1.365214	-0.717924	-0.095072
C135	C	1.698547	-0.384590	0.238261
C136	C	0.997517	-1.098457	-0.393987
C137	C	1.330851	-0.765124	-0.060653
C138	C	1.664184	-0.431790	0.272680
C139	C	0.963465	-0.815888	-0.359948
C140	C	1.296798	-0.482555	-0.026614
C141	C	1.630131	-0.149221	0.306719
C142	C	1.043543	-0.815690	-0.440136
C143	C	1.376877	-0.482357	-0.106803
C144	C	1.710210	-0.149023	0.226531
C145	C	1.054896	-0.909873	-0.451479
C146	C	1.388229	-0.576540	-0.118146
C147	C	1.721562	-0.243207	0.215187
C148	C	1.121066	-0.434090	-0.354131
C149	C	1.454400	-0.100757	-0.020798
C150	C	1.787733	0.232576	0.312535
C151	C	1.190706	-0.434072	-0.354137
C152	C	1.524039	-0.100738	-0.020803
C153	C	1.857372	0.232595	0.312530
C154	C	0.957691	-0.434078	-0.517535
C155	C	1.291024	-0.100744	-0.184202
C156	C	1.624358	0.232589	0.149132
C157	C	0.957709	-0.434054	-0.587173
C158	C	1.291042	-0.100721	-0.253840
C159	C	1.624376	0.232613	0.079493
C160	C	0.929454	-0.198898	-0.325846
C161	C	1.262787	0.134435	0.007487
C162	C	1.596120	0.467768	0.340821
C163	C	0.917439	-0.098655	-0.313798
C164	C	1.250772	0.234678	0.019535
C165	C	1.584106	0.568012	0.352869
C166	C	0.910733	-0.376375	-0.612940
C167	C	1.244067	-0.043042	-0.279607
C168	C	1.577400	0.290291	0.053727
C169	C	0.910729	-0.376359	-0.678374
C170	C	1.244062	-0.043025	-0.345040
C171	C	1.577396	0.290308	-0.011707
C172	C	0.957711	-0.434011	-0.718037
C173	C	1.291044	-0.100678	-0.384703
C174	C	1.624378	0.232656	-0.051370
C175	C	1.004691	-0.491701	-0.692263
C176	C	1.338024	-0.158367	-0.358930
C177	C	1.671358	0.174966	-0.025597
C178	C	1.004690	-0.491722	-0.626832
C179	C	1.338023	-0.158389	-0.293499
C180	C	1.671357	0.174945	0.039835
C181	C	1.015013	-0.441080	-0.822574
C182	C	1.348347	-0.107747	-0.489240
C183	C	1.681680	0.225586	-0.155907
C184	C	1.015014	-0.441052	-0.888003
C185	C	1.348348	-0.107719	-0.554670
C186	C	1.681681	0.225614	-0.221337
C187	C	0.957714	-0.433950	-0.919850
C188	C	1.291047	-0.100617	-0.586517
C189	C	1.624381	0.232717	-0.253184
C190	C	0.900408	-0.426856	-0.886257
C191	C	1.233742	-0.093523	-0.552924
C192	C	1.567075	0.239810	-0.219590
C193	C	0.900407	-0.426878	-0.820825
C194	C	1.233741	-0.093545	-0.487492
C195	C	1.567074	0.239789	-0.154159
C196	C	0.957717	-0.433995	-0.788987
C197	C	1.291050	-0.100661	-0.455654
C198	C	1.624384	0.232672	-0.122320
C199	C	0.910730	-0.376250	-1.016567
C200	C	1.244063	-0.042917	-0.683234
C201	C	1.577396	0.290416	-0.349900
C202	C	0.910725	-0.376240	-1.082002
C203	C	1.244059	-0.042907	-0.748669
C204	C	1.577392	0.290427	-0.415336
C205	C	1.004692	-0.491577	-1.095890
C206	C	1.338025	-0.158244	-0.762557
C207	C	1.671359	0.175089	-0.429224
C208	C	1.004692	-0.491592	-1.030457
C209	C	1.338025	-0.158259	-0.697123
C210	C	1.671358	0.175074	-0.363790
C211	C	0.957711	-0.433924	-0.990798
C212	C	1.291044	-0.100591	-0.657465
C213	C	1.624377	0.232743	-0.324132
C214	C	0.957634	-0.434124	-0.191330
C215	C	1.290968	-0.100791	0.142004
C216	C	1.624301	0.232542	0.475337
C217	C	0.957707	-0.433894	-0.121661
C218	C	1.291040	-0.100561	0.211672
C219	C	1.624374	0.232773	0.545006
H220	H	0.380984	-0.286727	-0.345542
H221	H	0.714318	0.046606	-0.012208
H222	H	1.047651	0.379940	0.321125
H223	H	1.006760	-1.175149	-0.403218
H224	H	1.340094	-0.841816	-0.069884
H225	H	1.673427	-0.508482	0.263449
H226	H	0.499700	-0.286758	-0.345540
H227	H	0.833033	0.046576	-0.012206
H228	H	1.166367	0.379909	0.321127
C229	C	1.078051	-0.448855	-0.924950
C230	C	1.411385	-0.115521	-0.591616
C231	C	1.744718	0.217812	-0.258283
N232	N	1.125533	-0.454733	-0.952776
N233	N	1.458866	-0.121400	-0.619443
N234	N	1.792199	0.211934	-0.286110
H235	H	1.069104	-1.089516	-0.465673
H236	H	1.402438	-0.756182	-0.132340
H237	H	1.735771	-0.422849	0.200993
H238	H	0.853747	-0.421104	-0.793477
H239	H	1.187081	-0.087771	-0.460143
H240	H	1.520414	0.245563	-0.126810
C241	C	0.913177	-0.764207	-0.309607
C242	C	1.246510	-0.430874	0.023726
C243	C	1.579843	-0.097540	0.357060
N244	N	0.875297	-0.725282	-0.271687
N245	N	1.208630	-0.391948	0.061647
N246	N	1.541964	-0.058615	0.394980
H247	H	0.843749	-1.090101	-0.240015
H248	H	1.177082	-0.756768	0.093318
H249	H	1.510415	-0.423434	0.426652
C250	C	0.859049	-0.312946	-0.569320
C251	C	1.192382	0.020388	-0.235987
C252	C	1.525715	0.353721	0.097346
N253	N	0.820118	-0.265172	-0.536465
N254	N	1.153451	0.068161	-0.203132
N255	N	1.486784	0.401495	0.130202
H256	H	1.042946	-0.538558	-1.009478
H257	H	1.376279	-0.205225	-0.676144
H258	H	1.709612	0.128108	-0.342811
C259	C	1.081347	-0.763774	-0.477999
C260	C	1.414680	-0.430441	-0.144665
C261	C	1.748014	-0.097107	0.188668
N262	N	1.109818	-0.724665	-0.506514
N263	N	1.443151	-0.391332	-0.173181
N264	N	1.776484	-0.057998	0.160152
H265	H	0.303035	-0.329605	-0.414389
H266	H	0.636369	0.003729	-0.081056
H267	H	0.969702	0.337062	0.252278
C268	C	0.173010	-0.313107	-0.423880
C269	C	0.506344	0.020226	-0.090546
C270	C	0.839677	0.353560	0.242787
N271	N	0.140214	-0.265376	-0.451401
N272	N	0.473547	0.067958	-0.118068
N273	N	0.806881	0.401291	0.215265
H274	H	1.061677	-0.446856	-0.796649
H275	H	1.395010	-0.113523	-0.463315
H276	H	1.728344	0.219810	-0.129982
C277	C	1.056300	-0.555241	-0.735909
C278	C	1.389634	-0.221907	-0.402576
C279	C	1.722967	0.111426	-0.069242
N280	N	1.095148	-0.603148	-0.768788
N281	N	1.428481	-0.269814	-0.435455
N282	N	1.761814	0.063519	-0.102122
C283	C	0.201862	-0.555040	-0.284396
C284	C	0.535195	-0.221707	0.048937
C285	C	0.868528	0.111627	0.382270
N286	N	0.180443	-0.602758	-0.256883
N287	N	0.513777	-0.269425	0.076450
N288	N	0.847110	0.063908	0.409784
H289	H	0.885491	-0.833590	-0.281868
H290	H	1.218824	-0.500257	0.051466
H291	H	1.552158	-0.166924	0.384799
C292	C	1.056380	-0.555157	-0.598486
C293	C	1.389714	-0.221824	-0.265153
C294	C	1.723047	0.111510	0.068181
N295	N	1.095318	-0.602930	-0.577134
N296	N	1.428652	-0.269597	-0.243801
N297	N	1.761985	0.063737	0.089532
H298	H	0.872476	-0.329385	-0.699357
H299	H	1.205810	0.003948	-0.366023
H300	H	1.539143	0.337281	-0.032690
C301	C	1.105181	-0.961578	-0.501823
C302	C	1.438515	-0.628244	-0.168489
C303	C	1.771848	-0.294911	0.164844
N304	N	1.143056	-1.000522	-0.539742
N305	N	1.476389	-0.667189	-0.206408
N306	N	1.809722	-0.333856	0.126925
C307	C	0.837373	-0.419052	-0.921284
C308	C	1.170706	-0.085719	-0.587951
C309	C	1.504039	0.247615	-0.254618
N310	N	0.789896	-0.413175	-0.947670
N311	N	1.123230	-0.079842	-0.614337
N312	N	1.456563	0.253491	-0.281003
C313	C	0.339276	-0.555078	-0.284392
C314	C	0.672609	-0.221745	0.048941
C315	C	1.005942	0.111588	0.382274
N316	N	0.372073	-0.602814	-0.256875
N317	N	0.705406	-0.269481	0.076459
N318	N	1.038739	0.063852	0.409792
H319	H	0.706685	-0.329721	-0.414377
H320	H	1.040019	0.003612	-0.081044
H321	H	1.373352	0.336946	0.252290
C322	C	1.056396	-0.554955	-1.139511
C323	C	1.389730	-0.221622	-0.806178
C324	C	1.723063	0.111711	-0.472845
N325	N	1.095349	-0.602679	-1.172368
N326	N	1.428682	-0.269346	-0.839035
N327	N	1.762016	0.063987	-0.505702
H328	H	0.731613	-0.538716	-0.293856
H329	H	1.064947	-0.205383	0.039477
H330	H	1.398280	0.127951	0.372811
H331	H	0.872475	-0.329294	-0.984275
H332	H	1.205808	0.004039	-0.650942
H333	H	1.539141	0.337372	-0.317609
C334	C	0.576660	-0.313228	-0.423872
C335	C	0.909994	0.020105	-0.090539
C336	C	1.243327	0.353438	0.242795
N337	N	0.543862	-0.265505	-0.451397
N338	N	0.877195	0.067828	-0.118064
N339	N	1.210528	0.401162	0.215269
C340	C	0.409668	-0.604760	-0.364072
C341	C	0.743002	-0.271426	-0.030739
C342	C	1.076335	0.061907	0.302594
N343	N	0.390615	-0.672074	-0.367985
N344	N	0.723948	-0.338740	-0.034652
N345	N	1.057281	-0.005407	0.298681
H346	H	0.534951	-0.581579	-0.362722
H347	H	0.868285	-0.248246	-0.029389
H348	H	1.201618	0.085088	0.303944
H349	H	0.823150	-0.919221	-0.219427
H350	H	1.156483	-0.585887	0.113906
H351	H	1.489816	-0.252554	0.447239
H352	H	0.612896	-0.538685	-0.293870
H353	H	0.946230	-0.205351	0.039463
H354	H	1.279563	0.127982	0.372796
C355	C	0.859047	-0.312783	-1.110344
C356	C	1.192380	0.020550	-0.777011
C357	C	1.525714	0.353884	-0.443677
N358	N	0.820123	-0.264983	-1.131691
N359	N	1.153457	0.068350	-0.798358
N360	N	1.486790	0.401684	-0.465025
