data_functionalizedCrystal
_audit_creation_method	'MofGen! by Chris Wilmer'
_symmetry_space_group_name_H-M	'P1'
_symmetry_Int_Tables_number	1
_symmetry_cell_setting	triclinic
loop_
_symmetry_equiv_pos_as_xyz
  x,y,z
_cell_length_a	10.723024
_cell_length_b	15.500227
_cell_length_c	10.723024
_cell_angle_alpha	92.856340
_cell_angle_beta	95.532131
_cell_angle_gamma	92.871156
loop_
_atom_site_label
_atom_site_type_symbol
_atom_site_fract_x
_atom_site_fract_y
_atom_site_fract_z
O1	O	1.662943	0.071936	-0.169284
O2	O	2.162943	0.571936	0.330716
O3	O	1.299791	0.071939	-0.186037
O4	O	1.799791	0.571939	0.313963
O5	O	1.489743	0.071934	0.003915
O6	O	1.989743	0.571934	0.503915
O7	O	1.472991	0.071941	-0.359237
O8	O	1.972991	0.571941	0.140763
O9	O	1.478216	-0.071954	-0.007566
O10	O	1.978216	0.428046	0.492434
O11	O	1.288264	-0.071950	-0.197519
O12	O	1.788264	0.428050	0.302481
O13	O	1.651416	-0.071952	-0.180765
O14	O	2.151416	0.428048	0.319235
Cu15	Cu	1.468787	-0.085089	-0.190190
Cu16	Cu	1.968787	0.414911	0.309810
Cu17	Cu	1.482420	0.085076	-0.176612
Cu18	Cu	1.982420	0.585076	0.323388
O19	O	1.461464	-0.071948	-0.370718
O20	O	1.961464	0.428052	0.129282
C21	C	1.247528	-0.000005	-0.190559
C22	C	1.747528	0.499995	0.309441
C23	C	1.108974	-0.000004	-0.186911
C24	C	1.608974	0.499996	0.313089
N25	N	1.459208	-0.204774	-0.199740
N26	N	1.959208	0.295226	0.300260
C27	C	1.033991	-0.000001	-0.293198
C28	C	1.533991	0.499999	0.206802
C29	C	0.890788	-0.000000	-0.289431
C30	C	1.390788	0.500000	0.210569
C31	C	1.539726	-0.250052	-0.119280
C32	C	2.039726	0.249948	0.380720
C33	C	1.532493	-0.340625	-0.126514
C34	C	2.032493	0.159375	0.373486
C35	C	1.444748	-0.385917	-0.214214
C36	C	1.944748	0.114083	0.285786
C37	C	1.364221	-0.340632	-0.294676
C38	C	1.864221	0.159368	0.205324
C39	C	1.371449	-0.250061	-0.287436
C40	C	1.871449	0.249939	0.212564
C41	C	1.418710	-0.659384	-0.240276
C42	C	1.918710	-0.159384	0.259724
C43	C	1.411491	-0.749961	-0.247513
C44	C	1.911491	-0.249961	0.252487
C45	C	1.579762	-0.749947	-0.079348
C46	C	2.079762	-0.249947	0.420652
C47	C	1.586987	-0.659375	-0.072120
C48	C	2.086987	-0.159375	0.427880
C49	C	1.506456	-0.614098	-0.152578
C50	C	2.006456	-0.114098	0.347422
C51	C	1.437355	-0.478497	-0.221612
C52	C	1.937355	0.021503	0.278388
C53	C	1.513844	-0.521519	-0.145173
C54	C	2.013844	-0.021519	0.354827
C55	C	1.703679	-0.000006	-0.176244
C56	C	2.203679	0.499994	0.323756
C57	C	1.842234	-0.000002	-0.179891
C58	C	2.342234	0.499998	0.320109
C59	C	1.482761	-0.000009	0.044674
C60	C	1.982761	0.499991	0.544674
C61	C	1.479113	-0.000006	0.183229
C62	C	1.979113	0.499994	0.683229
N63	N	1.492008	0.204760	-0.167053
N64	N	1.992008	0.704760	0.332947
C65	C	1.468446	-0.000003	-0.411477
C66	C	1.968446	0.499997	0.088523
C67	C	1.472094	0.000000	-0.550031
C68	C	1.972094	0.500000	-0.050031
C69	C	1.585401	-0.000005	0.258211
C70	C	2.085401	0.499995	0.758211
C71	C	1.581634	-0.000002	0.401415
C72	C	2.081634	0.499998	0.901415
H73	H	1.075813	-0.000005	-0.386985
H74	H	1.575813	0.499995	0.113015
C75	C	1.621075	-0.390428	-0.038020
C76	C	2.121075	0.109572	0.461980
H77	H	1.674381	-0.350482	0.015234
H78	H	2.174381	0.149518	0.515234
H79	H	1.572938	-0.425774	0.011522
H80	H	2.072938	0.074226	0.511522
H81	H	1.670581	-0.425744	-0.086228
H82	H	2.170581	0.074256	0.413772
C83	C	0.929255	-0.000000	-0.056957
C84	C	1.429255	0.500000	0.443043
H85	H	0.880216	0.000006	0.012255
H86	H	1.380216	0.500006	0.512255
H87	H	0.976602	-0.050175	-0.057637
H88	H	1.476602	0.449825	0.442363
H89	H	0.984629	0.050186	-0.049638
H90	H	1.484629	0.550186	0.450362
H91	H	0.826356	0.000005	-0.380421
H92	H	1.326356	0.500005	0.119579
H93	H	1.611183	-0.213181	-0.047871
H94	H	2.111183	0.286819	0.452129
H95	H	1.067153	0.000017	-0.093123
H96	H	1.567153	0.500017	0.406877
H97	H	1.658437	-0.622499	-0.000708
H98	H	2.158437	-0.122499	0.499292
C99	C	1.668326	-0.799753	0.009159
C100	C	2.168326	-0.299753	0.509159
H101	H	1.651450	-0.860181	-0.007702
H102	H	2.151450	-0.360181	0.492298
H103	H	1.752910	-0.784897	-0.003961
H104	H	2.252910	-0.284897	0.496039
H105	H	1.655235	-0.784918	0.093758
H106	H	2.155235	-0.284918	0.593758
H107	H	1.679186	-0.000011	0.216389
H108	H	2.179186	0.499989	0.716389
C109	C	1.314899	-0.799781	-0.343920
C110	C	1.814899	-0.299781	0.156080
H111	H	1.267946	-0.759845	-0.390775
H112	H	1.767946	-0.259845	0.109225
H113	H	1.357345	-0.835123	-0.399131
H114	H	1.857345	-0.335123	0.100869
H115	H	1.259784	-0.835103	-0.301299
H116	H	1.759784	-0.335103	0.198701
H117	H	1.353140	-0.622526	-0.305791
H118	H	1.853140	-0.122526	0.194209
H119	H	1.305881	-0.213196	-0.352953
H120	H	1.805881	0.286804	0.147047
H121	H	1.385328	0.000001	0.225051
H122	H	1.885328	0.500001	0.725051
C123	C	1.704560	0.000003	0.488449
C124	C	2.204560	0.500003	0.988449
H125	H	1.685902	0.000012	0.573280
H126	H	2.185902	0.500012	1.073280
H127	H	1.747793	-0.050172	0.468890
H128	H	2.247793	0.449828	0.968890
H129	H	1.755817	0.050189	0.476886
H130	H	2.255817	0.550189	0.976886
C131	C	1.349160	-0.000001	0.362948
C132	C	1.849160	0.499999	0.862948
H133	H	1.279948	-0.000005	0.411987
H134	H	1.779948	0.499995	0.911987
H135	H	1.349860	0.050173	0.315583
H136	H	1.849860	0.550173	0.815583
H137	H	1.341821	-0.050187	0.307592
H138	H	1.841821	0.449813	0.807592
C139	C	1.267705	-0.390452	-0.391146
C140	C	1.767705	0.109548	0.108854
H141	H	1.274940	-0.450878	-0.383946
H142	H	1.774940	0.049122	0.116054
H143	H	1.185490	-0.375625	-0.375650
H144	H	1.685490	0.124375	0.124350
H145	H	1.283161	-0.375595	-0.473372
H146	H	1.783161	0.124405	0.026628
H147	H	1.585282	-0.484640	-0.073763
H148	H	2.085282	0.015360	0.426237
H149	H	1.365913	-0.515382	-0.293021
H150	H	1.865913	-0.015382	0.206979
