data_functionalizedCrystal
_audit_creation_method	'MofGen! by Chris Wilmer'
_symmetry_space_group_name_H-M	'P1'
_symmetry_Int_Tables_number	1
_symmetry_cell_setting	triclinic
loop_
_symmetry_equiv_pos_as_xyz
  x,y,z
_cell_length_a	16.992694
_cell_length_b	13.596369
_cell_length_c	14.519709
_cell_angle_alpha	90.013196
_cell_angle_beta	92.825815
_cell_angle_gamma	90.012208
loop_
_atom_site_label
_atom_site_type_symbol
_atom_site_fract_x
_atom_site_fract_y
_atom_site_fract_z
O1	O	1.040653	-0.081699	-0.195571
O2	O	1.540653	0.418301	0.304429
O3	O	0.812365	-0.081728	-0.193425
O4	O	1.312365	0.418272	0.306575
O5	O	0.932562	-0.081685	-0.060694
O6	O	1.432562	0.418315	0.439306
O7	O	0.920456	-0.081742	-0.328302
O8	O	1.420456	0.418258	0.171698
O9	O	0.932576	0.081898	-0.060687
O10	O	1.432576	0.581898	0.439313
O11	O	0.812379	0.081855	-0.193419
O12	O	1.312379	0.581855	0.306581
O13	O	1.040668	0.081884	-0.195564
O14	O	1.540668	0.581884	0.304436
Zn15	Zn	0.926526	0.107842	-0.194490
Zn16	Zn	1.426526	0.607842	0.305510
Zn17	Zn	0.926506	-0.107686	-0.194499
Zn18	Zn	1.426506	0.392314	0.305501
O19	O	0.920471	0.081841	-0.328296
O20	O	1.420471	0.581841	0.171704
C21	C	0.783156	0.000060	-0.190662
C22	C	1.283156	0.500060	0.309338
C23	C	0.696100	0.000051	-0.182427
C24	C	1.196100	0.500051	0.317573
C25	C	0.645971	0.000035	-0.261887
C26	C	1.145971	0.500035	0.238113
C27	C	0.564173	0.000050	-0.254143
C28	C	1.064173	0.500050	0.245857
C29	C	0.532507	0.000074	-0.166939
C30	C	1.032507	0.500074	0.333061
C31	C	0.582642	0.000093	-0.087473
C32	C	1.082642	0.500093	0.412527
C33	C	0.664438	0.000085	-0.095217
C34	C	1.164438	0.500085	0.404783
C35	C	0.288864	0.000107	-0.134842
C36	C	0.788864	0.500107	0.365158
C37	C	0.207062	0.000113	-0.127103
C38	C	0.707062	0.500113	0.372897
C39	C	0.188598	0.000071	-0.293774
C40	C	0.688598	0.500071	0.206226
C41	C	0.270397	0.000057	-0.301511
C42	C	0.770397	0.500057	0.198489
C43	C	0.320525	0.000081	-0.222045
C44	C	0.820525	0.500081	0.277955
N45	N	0.448897	0.000087	-0.159022
N46	N	0.948897	0.500087	0.340978
N47	N	0.404133	0.000076	-0.229963
N48	N	0.904133	0.500076	0.270037
N49	N	0.926494	-0.254778	-0.194499
N50	N	1.426494	0.245222	0.305501
C51	C	0.926496	-0.343775	-0.194500
C52	C	1.426496	0.156225	0.305500
C53	C	0.926508	-0.455427	-0.194498
C54	C	1.426508	0.044573	0.305502
C55	C	0.926521	-0.544417	-0.194493
C56	C	1.426521	-0.044417	0.305507
C57	C	0.926532	-0.656076	-0.194490
C58	C	1.426532	-0.156076	0.305510
C59	C	1.069877	0.000093	-0.198328
C60	C	1.569877	0.500093	0.301672
C61	C	1.156932	0.000097	-0.206563
C62	C	1.656932	0.500097	0.293437
C63	C	0.932005	0.000111	-0.026290
C64	C	1.432005	0.500111	0.473710
C65	C	0.930314	0.000126	0.076212
C66	C	1.430314	0.500126	0.576212
N67	N	0.926545	0.254934	-0.194484
N68	N	1.426545	0.754934	0.305516
C69	C	0.924090	0.000152	0.451555
C70	C	1.424090	0.500152	0.951555
C71	C	0.925819	0.000145	0.347123
C72	C	1.425819	0.500145	0.847123
C73	C	0.927202	0.000140	0.263887
C74	C	1.427202	0.500140	0.763887
C75	C	0.928931	0.000131	0.159448
C76	C	1.428931	0.500131	0.659448
C77	C	0.921028	0.000078	0.637301
C78	C	1.421028	0.500078	1.137301
C79	C	0.922718	0.000161	0.534798
C80	C	1.422718	0.500161	1.034798
H81	H	0.181282	0.000131	-0.056088
H82	H	0.681282	0.500131	0.443912
C83	C	0.343994	0.000127	-0.047432
C84	C	0.843994	0.500127	0.452568
H85	H	0.313417	0.000132	0.005610
H86	H	0.813417	0.500132	0.505610
H87	H	0.376298	0.057171	-0.046984
H88	H	0.876298	0.557171	0.453016
H89	H	0.376275	-0.056926	-0.046988
H90	H	0.876275	0.443074	0.453012
C91	C	0.305225	0.000045	-0.397435
C92	C	0.805225	0.500045	0.102565
H93	H	0.263654	0.000048	-0.443651
H94	H	0.763654	0.500048	0.056349
H95	H	0.336740	-0.057001	-0.403928
H96	H	0.836740	0.442999	0.096072
H97	H	0.336759	0.057096	-0.403911
H98	H	0.836759	0.557096	0.096089
H99	H	0.523361	0.000036	-0.318848
H100	H	1.023361	0.500036	0.181152
H101	H	0.671747	0.000014	-0.332897
H102	H	1.171747	0.500014	0.167103
C103	C	0.547811	0.000118	0.008450
C104	C	1.047811	0.500118	0.508450
H105	H	0.491916	0.000110	0.001683
H106	H	0.991916	0.500110	0.501683
H107	H	0.565021	0.057168	0.041425
H108	H	1.065021	0.557168	0.541425
H109	H	0.564999	-0.056929	0.041416
H110	H	1.064999	0.443071	0.541416
H111	H	0.147776	0.000054	-0.358470
H112	H	0.647776	0.500054	0.141530
H113	H	0.705253	0.000098	-0.030512
H114	H	1.205253	0.500098	0.469488
