data_functionalizedCrystal
_audit_creation_method	'MofGen! by Chris Wilmer'
_symmetry_space_group_name_H-M	'P1'
_symmetry_Int_Tables_number	1
_symmetry_cell_setting	triclinic
loop_
_symmetry_equiv_pos_as_xyz
  x,y,z
_cell_length_a	10.967916
_cell_length_b	15.944551
_cell_length_c	9.482900
_cell_angle_alpha	99.334197
_cell_angle_beta	87.450335
_cell_angle_gamma	95.881383
loop_
_atom_site_label
_atom_site_type_symbol
_atom_site_fract_x
_atom_site_fract_y
_atom_site_fract_z
O1	O	-1.610222	0.148270	0.282505
O2	O	-1.261008	0.150112	0.195014
O3	O	-1.445149	0.027232	0.241161
O4	O	-1.426081	0.271150	0.236358
O5	O	-1.407746	0.052297	0.473580
O6	O	-1.223605	0.175177	0.427433
O7	O	-1.572819	0.173334	0.514924
Cu8	Cu	-1.394797	0.176544	0.492400
Cu9	Cu	-1.439030	0.146902	0.217538
O10	O	-1.388678	0.296215	0.468777
C11	C	-1.197619	0.160617	0.300028
C12	C	-1.064465	0.154564	0.266669
C13	C	-0.985725	0.164850	0.372196
C14	C	-0.848103	0.158595	0.337720
C15	C	-1.425656	0.008444	0.357173
C16	C	-1.423282	-0.084880	0.356579
C17	C	-1.303471	-0.303689	0.326542
C18	C	-1.340667	-0.350514	0.455078
C19	C	-1.418990	-0.255749	0.355492
C20	C	-1.377571	-0.375208	0.225938
C21	C	-1.414836	-0.420800	0.354434
C22	C	-1.456202	-0.301334	0.484131
C23	C	-1.493106	-0.326033	0.254884
C24	C	-1.530381	-0.372834	0.383468
C25	C	-1.421379	-0.160666	0.356102
C26	C	-1.412453	-0.515880	0.353837
C27	C	-0.636208	0.162830	0.409908
C28	C	-0.769363	0.168882	0.443262
C29	C	-1.408172	0.315002	0.352762
C30	C	-1.410547	0.408325	0.353347
N31	N	-1.363694	0.197393	0.685726
N32	N	-1.470143	0.126047	0.024215
C33	C	-1.429848	0.153047	0.774504
C34	C	-1.403979	0.170400	0.935438
H35	H	-1.020199	0.178282	0.488065
H36	H	-0.813636	0.145155	0.221843
H37	H	-0.803829	0.182318	0.559140
H38	H	-1.207566	-0.273531	0.302633
O39	O	-1.018821	0.136768	0.113178
H40	H	-0.917888	0.134655	0.110186
H41	H	-1.287901	0.248203	0.728862
O42	O	-1.570533	0.058726	0.967099
H43	H	-1.639660	0.088754	0.915053
O44	O	-1.255308	-0.365444	0.567207
H45	H	-1.161180	-0.337585	0.543385
H46	H	-1.489412	-0.269274	0.593350
H47	H	-1.626342	-0.402822	0.407577
O48	O	-1.578426	-0.311061	0.142756
H49	H	-1.545572	-0.340838	0.035704
O50	O	-1.333491	-0.417792	0.081385
H51	H	-1.239293	-0.389867	0.058047
H52	H	-1.505633	0.102230	0.731368
H53	H	-1.328181	0.221213	0.978567
