data_functionalizedCrystal
_audit_creation_method	'MofGen! by Chris Wilmer'
_symmetry_space_group_name_H-M	'P1'
_symmetry_Int_Tables_number	1
_symmetry_cell_setting	triclinic
loop_
_symmetry_equiv_pos_as_xyz
  x,y,z
_cell_length_a	17.000383
_cell_length_b	17.038272
_cell_length_c	14.586319
_cell_angle_alpha	89.995924
_cell_angle_beta	89.993336
_cell_angle_gamma	83.355929
loop_
_atom_site_label
_atom_site_type_symbol
_atom_site_fract_x
_atom_site_fract_y
_atom_site_fract_z
O1	O	1.057999	0.028051	-0.076304
O2	O	1.391332	0.361385	0.257030
O3	O	1.724665	0.694718	0.590363
O4	O	0.828179	0.056294	-0.076292
O5	O	1.161512	0.389627	0.257041
O6	O	1.494845	0.722961	0.590375
O7	O	0.941723	-0.071549	-0.076290
O8	O	1.275056	0.261784	0.257043
O9	O	1.608389	0.595118	0.590376
O10	O	0.944455	0.155895	-0.076305
O11	O	1.277788	0.489228	0.257028
O12	O	1.611121	0.822561	0.590362
O13	O	0.941714	-0.071550	0.076190
O14	O	1.275047	0.261783	0.409524
O15	O	1.608381	0.595116	0.742857
O16	O	0.828170	0.056293	0.076189
O17	O	1.161504	0.389626	0.409522
O18	O	1.494837	0.722960	0.742855
O19	O	1.057990	0.028050	0.076177
O20	O	1.391323	0.361384	0.409511
O21	O	1.724657	0.694717	0.742844
Cu22	Cu	0.943079	0.042171	0.090106
Cu23	Cu	1.276413	0.375505	0.423439
Cu24	Cu	1.609746	0.708838	0.756772
Cu25	Cu	0.943089	0.042173	-0.090221
Cu26	Cu	1.276423	0.375506	0.243113
Cu27	Cu	1.609756	0.708840	0.576446
O28	O	0.944446	0.155893	0.076176
O29	O	1.277779	0.489227	0.409509
O30	O	1.611113	0.822560	0.742842
C31	C	0.798624	0.057810	-0.000050
C32	C	1.131957	0.391144	0.333283
C33	C	1.465290	0.724477	0.666617
C34	C	0.710571	0.062321	-0.000045
C35	C	1.043904	0.395654	0.333288
C36	C	1.377237	0.728987	0.666621
C37	C	0.212326	0.091445	-0.000082
C38	C	0.545659	0.424778	0.333252
C39	C	0.878992	0.758112	0.666585
C40	C	0.295061	0.087201	-0.000081
C41	C	0.628395	0.420534	0.333253
C42	C	0.961728	0.753868	0.666586
C43	C	0.341068	0.013535	-0.000069
C44	C	0.674401	0.346868	0.333264
C45	C	1.007734	0.680201	0.666598
C46	C	0.304335	-0.055892	-0.000067
C47	C	0.637668	0.277442	0.333266
C48	C	0.971002	0.610775	0.666599
C49	C	0.221601	-0.051647	-0.000075
C50	C	0.554934	0.281686	0.333258
C51	C	0.888267	0.615020	0.666592
C52	C	0.591103	-0.002861	-0.000052
C53	C	0.924437	0.330472	0.333282
C54	C	1.257770	0.663806	0.666615
C55	C	0.673843	-0.007101	-0.000041
C56	C	1.007176	0.326233	0.333292
C57	C	1.340510	0.659566	0.666625
C58	C	0.664564	0.135993	-0.000056
C59	C	0.997897	0.469326	0.333277
C60	C	1.331230	0.802659	0.666611
C61	C	0.581828	0.140231	-0.000058
C62	C	0.915162	0.473564	0.333275
C63	C	1.248495	0.806898	0.666609
C64	C	0.545103	0.070804	-0.000062
C65	C	0.878436	0.404138	0.333272
C66	C	1.211769	0.737471	0.666605
C67	C	0.425637	0.009195	-0.000065
C68	C	0.758970	0.342528	0.333268
C69	C	1.092304	0.675862	0.666602
C70	C	0.460535	0.075145	-0.000072
C71	C	0.793868	0.408478	0.333261
C72	C	1.127202	0.741812	0.666595
C73	C	0.939234	-0.100508	-0.000050
C74	C	1.272567	0.232826	0.333283
C75	C	1.605901	0.566159	0.666617
C76	C	0.931821	-0.186793	-0.000050
C77	C	1.265154	0.146540	0.333283
C78	C	1.598488	0.479874	0.666617
C79	C	0.999879	-0.241568	-0.000052
C80	C	1.333213	0.091765	0.333281
C81	C	1.666546	0.425099	0.666614
C82	C	0.992910	-0.322641	-0.000061
C83	C	1.326243	0.010692	0.333273
C84	C	1.659576	0.344026	0.666606
C85	C	0.917881	-0.348938	-0.000060
C86	C	1.251214	-0.015605	0.333273
C87	C	1.584547	0.317729	0.666607
C88	C	0.849817	-0.294156	-0.000060
C89	C	1.183151	0.039177	0.333273
C90	C	1.516484	0.372510	0.666606
C91	C	0.856788	-0.213085	-0.000059
C92	C	1.190121	0.120249	0.333275
C93	C	1.523454	0.453582	0.666608
C94	C	0.893255	-0.593009	-0.000071
C95	C	1.226588	-0.259676	0.333262
C96	C	1.559921	0.073657	0.666595
C97	C	0.886289	-0.674088	-0.000070
C98	C	1.219623	-0.340754	0.333263
C99	C	1.552956	-0.007421	0.666596
C100	C	1.029382	-0.702567	-0.000073
C101	C	1.362716	-0.369234	0.333261
C102	C	1.696049	-0.035900	0.666594
C103	C	1.036346	-0.621493	-0.000065
C104	C	1.369680	-0.288159	0.333268
C105	C	1.703013	0.045174	0.666601
C106	C	0.968283	-0.566718	-0.000070
C107	C	1.301616	-0.233385	0.333263
C108	C	1.634950	0.099948	0.666596
C109	C	0.910755	-0.431807	-0.000066
C110	C	1.244088	-0.098474	0.333268
C111	C	1.577421	0.234859	0.666601
C112	C	0.975410	-0.483850	-0.000071
C113	C	1.308743	-0.150517	0.333262
C114	C	1.642076	0.182816	0.666595
C115	C	1.087545	0.026534	-0.000067
C116	C	1.420878	0.359867	0.333267
C117	C	1.754212	0.693201	0.666600
C118	C	1.175598	0.022024	-0.000077
C119	C	1.508931	0.355357	0.333256
C120	C	1.842265	0.688690	0.666589
C121	C	0.946935	0.184852	-0.000067
C122	C	1.280268	0.518185	0.333267
C123	C	1.613601	0.851519	0.666600
C124	C	0.954348	0.271137	-0.000073
C125	C	1.287681	0.604471	0.333260
C126	C	1.621014	0.937804	0.666594
N127	N	0.943078	0.042170	0.216937
N128	N	1.276411	0.375503	0.550271
N129	N	1.609745	0.708836	0.883604
N130	N	0.943097	0.042168	-0.217052
N131	N	1.276430	0.375501	0.116281
N132	N	1.609763	0.708835	0.449614
C133	C	0.993374	-0.014423	0.451945
C134	C	1.326708	0.318910	0.785278
C135	C	1.660041	0.652244	1.118611
C136	C	0.993376	-0.014425	0.547926
C137	C	1.326710	0.318908	0.881259
C138	C	1.660043	0.652242	1.214592
C139	C	0.892795	0.098764	0.547934
C140	C	1.226128	0.432097	0.881267
C141	C	1.559461	0.765430	1.214601
C142	C	0.892789	0.098761	0.451954
C143	C	1.226122	0.432095	0.785288
C144	C	1.559456	0.765428	1.118621
C145	C	0.943083	0.042169	0.403962
C146	C	1.276417	0.375502	0.737296
C147	C	1.609750	0.708836	1.070629
C148	C	0.943091	0.042169	0.595923
C149	C	1.276424	0.375502	0.929256
C150	C	1.609758	0.708836	1.262590
C151	C	0.943093	0.042167	0.699990
C152	C	1.276426	0.375500	1.033323
C153	C	1.609760	0.708834	1.366657
C154	C	0.943081	0.042169	0.299888
C155	C	1.276414	0.375503	0.633222
C156	C	1.609747	0.708836	0.966555
H157	H	0.711300	-0.067092	-0.000036
H158	H	1.044633	0.266242	0.333297
H159	H	1.377967	0.599575	0.666630
H160	H	1.034326	-0.060505	0.412872
H161	H	1.367659	0.272828	0.746205
H162	H	1.700992	0.606162	1.079538
N163	N	0.532208	0.219685	0.000051
N164	N	0.865542	0.553018	0.333384
N165	N	1.198875	0.886352	0.666717
H166	H	0.568030	0.263021	0.000087
H167	H	0.901363	0.596354	0.333421
H168	H	1.234697	0.929687	0.666754
H169	H	0.497641	0.224635	-0.056439
H170	H	0.830975	0.557968	0.276895
H171	H	1.164308	0.891301	0.610228
H172	H	0.561212	-0.059393	-0.000052
H173	H	0.894545	0.273940	0.333281
H174	H	1.227878	0.607274	0.666615
H175	H	0.463105	-0.050784	-0.000052
H176	H	0.796438	0.282549	0.333281
H177	H	1.129771	0.615882	0.666614
H178	H	0.341800	-0.115872	-0.000063
H179	H	0.675133	0.217461	0.333270
H180	H	1.008467	0.550794	0.666603
H181	H	0.191699	-0.108177	-0.000073
H182	H	0.525032	0.225156	0.333260
H183	H	0.858365	0.558489	0.666593
N184	N	0.704182	0.210866	-0.000067
N185	N	1.037515	0.544199	0.333267
N186	N	1.370849	0.877532	0.666600
H187	H	0.687764	0.242877	-0.056598
H188	H	1.021097	0.576210	0.276735
H189	H	1.354430	0.909543	0.610068
H190	H	0.687736	0.242827	0.056489
H191	H	1.021069	0.576160	0.389822
H192	H	1.354402	0.909494	0.723155
H193	H	0.423073	0.135124	-0.000086
H194	H	0.756406	0.468457	0.333248
H195	H	1.089740	0.801790	0.666581
H196	H	1.034327	-0.060508	0.586990
H197	H	1.367660	0.272826	0.920324
H198	H	1.700993	0.606159	1.253657
H199	H	0.851847	0.144841	0.587019
H200	H	1.185181	0.478174	0.920352
H201	H	1.518514	0.811508	1.253685
H202	H	1.060976	-0.220165	-0.000047
H203	H	1.394309	0.113169	0.333286
H204	H	1.727643	0.446502	0.666619
N205	N	0.838542	0.159807	0.400204
N206	N	1.171876	0.493141	0.733537
N207	N	1.505209	0.826474	1.066870
H208	H	0.871145	0.192199	0.360368
H209	H	1.204479	0.525533	0.693702
H210	H	1.537812	0.858866	1.027035
H211	H	0.801458	0.132401	0.360448
H212	H	1.134792	0.465735	0.693781
H213	H	1.468125	0.799068	1.027115
H214	H	1.097443	-0.600089	-0.000066
H215	H	1.430776	-0.266756	0.333268
H216	H	1.764109	0.066578	0.666601
N217	N	1.066315	-0.381721	-0.000058
N218	N	1.399648	-0.048387	0.333275
N219	N	1.732981	0.284946	0.666609
H220	H	1.114902	-0.352760	-0.000050
H221	H	1.448236	-0.019427	0.333283
H222	H	1.781569	0.313907	0.666617
H223	H	1.066529	-0.415980	0.056468
H224	H	1.399862	-0.082647	0.389802
H225	H	1.733196	0.250686	0.723135
H226	H	0.174873	0.151432	-0.000084
H227	H	0.508206	0.484765	0.333249
H228	H	0.841539	0.818099	0.666583
H229	H	1.084795	-0.747173	-0.000070
H230	H	1.418129	-0.413839	0.333263
H231	H	1.751462	-0.080506	0.666597
N232	N	0.805362	-0.702453	-0.000071
N233	N	1.138695	-0.369120	0.333262
N234	N	1.472028	-0.035786	0.666596
H235	H	0.763301	-0.655452	-0.000077
H236	H	1.096634	-0.322119	0.333257
H237	H	1.429967	0.011214	0.666590
H238	H	0.799365	-0.735470	-0.056597
H239	H	1.132698	-0.402136	0.276736
H240	H	1.466031	-0.068803	0.610070
H241	H	0.837832	-0.548421	-0.000075
H242	H	1.171166	-0.215088	0.333258
H243	H	1.504499	0.118246	0.666591
N244	N	0.334676	0.162076	-0.000100
N245	N	0.668009	0.495410	0.333233
N246	N	1.001342	0.828743	0.666566
H247	H	0.292976	0.209387	-0.000108
H248	H	0.626310	0.542720	0.333226
H249	H	0.959643	0.876054	0.666559
H250	H	0.368797	0.163440	0.056423
H251	H	0.702131	0.496773	0.389756
H252	H	1.035464	0.830107	0.723090
H253	H	0.801367	-0.168486	-0.000057
H254	H	1.134700	0.164847	0.333277
H255	H	1.468034	0.498180	0.666610
N256	N	0.768892	-0.322514	-0.000066
N257	N	1.102225	0.010819	0.333268
N258	N	1.435558	0.344152	0.666601
H259	H	0.774801	-0.382185	-0.000064
H260	H	1.108135	-0.048851	0.333269
H261	H	1.441468	0.284482	0.666603
H262	H	0.738864	-0.302126	0.056462
H263	H	1.072197	0.031207	0.389795
H264	H	1.405531	0.364541	0.723128
N265	N	1.056330	-0.455488	-0.000065
N266	N	1.389663	-0.122155	0.333269
N267	N	1.722997	0.211179	0.666602
H268	H	1.086386	-0.475825	0.056463
H269	H	1.419720	-0.142492	0.389796
H270	H	1.753053	0.190841	0.723129
H271	H	1.086343	-0.475821	-0.056624
H272	H	1.419677	-0.142488	0.276709
H273	H	1.753010	0.190846	0.610042
N274	N	0.829830	-0.460168	-0.000057
N275	N	1.163163	-0.126834	0.333276
N276	N	1.496497	0.206499	0.666610
H277	H	0.823753	-0.493166	-0.056582
H278	H	1.157086	-0.159832	0.276751
H279	H	1.490419	0.173501	0.610085
H280	H	0.823802	-0.493140	0.056505
H281	H	1.157136	-0.159807	0.389838
H282	H	1.490469	0.173527	0.723171
