data_functionalizedCrystal
_audit_creation_method	'MofGen! by Chris Wilmer'
_symmetry_space_group_name_H-M	'P1'
_symmetry_Int_Tables_number	1
_symmetry_cell_setting	triclinic
loop_
_symmetry_equiv_pos_as_xyz
  x,y,z
_cell_length_a	18.050590
_cell_length_b	16.625546
_cell_length_c	16.625539
_cell_angle_alpha	89.969603
_cell_angle_beta	90.004910
_cell_angle_gamma	89.988365
loop_
_atom_site_label
_atom_site_type_symbol
_atom_site_fract_x
_atom_site_fract_y
_atom_site_fract_z
Zn1	Zn	1.135364	0.321233	0.455561
Zn2	Zn	1.385364	0.571233	0.705561
Zn3	Zn	1.635364	0.821233	0.955561
Zn4	Zn	1.885364	1.071233	1.205561
Zn5	Zn	1.135275	0.456077	0.320723
Zn6	Zn	1.385275	0.706077	0.570723
Zn7	Zn	1.635275	0.956077	0.820723
Zn8	Zn	1.885275	1.206077	1.070723
Zn9	Zn	1.011171	0.321236	0.320778
Zn10	Zn	1.261171	0.571236	0.570778
Zn11	Zn	1.511171	0.821236	0.820778
Zn12	Zn	1.761171	1.071236	1.070778
Zn13	Zn	1.011143	0.456002	0.455550
Zn14	Zn	1.261143	0.706002	0.705550
Zn15	Zn	1.511143	0.956002	0.955550
Zn16	Zn	1.761143	1.206002	1.205550
O17	O	1.073238	0.388637	0.388153
O18	O	1.323238	0.638637	0.638153
O19	O	1.573238	0.888637	0.888153
O20	O	1.823238	1.138637	1.138153
O21	O	1.239276	0.339151	0.437656
O22	O	1.489276	0.589151	0.687656
O23	O	1.739276	0.839151	0.937656
O24	O	1.989276	1.089151	1.187656
O25	O	1.118786	0.438222	0.207898
O26	O	1.368786	0.688222	0.457898
O27	O	1.618786	0.938222	0.707898
O28	O	1.868786	1.188222	0.957898
O29	O	1.027694	0.208403	0.338685
O30	O	1.277694	0.458403	0.588685
O31	O	1.527694	0.708403	0.838685
O32	O	1.777694	0.958403	1.088685
O33	O	1.239211	0.438219	0.338591
O34	O	1.489211	0.688219	0.588591
O35	O	1.739211	0.938219	0.838591
O36	O	1.989211	1.188219	1.088591
O37	O	1.118938	0.208401	0.437709
O38	O	1.368938	0.458401	0.687709
O39	O	1.618938	0.708401	0.937709
O40	O	1.868938	0.958401	1.187709
O41	O	1.027607	0.339155	0.207938
O42	O	1.277607	0.589155	0.457938
O43	O	1.527607	0.839155	0.707938
O44	O	1.777607	1.089155	0.957938
O45	O	0.907242	0.339083	0.338674
O46	O	1.157242	0.589083	0.588674
O47	O	1.407242	0.839083	0.838674
O48	O	1.657242	1.089083	1.088674
O49	O	1.027647	0.438093	0.568384
O50	O	1.277647	0.688093	0.818384
O51	O	1.527647	0.938093	1.068384
O52	O	1.777647	1.188093	1.318384
O53	O	0.907222	0.438095	0.437690
O54	O	1.157222	0.688095	0.687690
O55	O	1.407222	0.938095	0.937690
O56	O	1.657222	1.188095	1.187690
O57	O	1.118912	0.339079	0.568392
O58	O	1.368912	0.589079	0.818392
O59	O	1.618912	0.839079	1.068392
O60	O	1.868912	1.089079	1.318392
O61	O	1.118760	0.568899	0.338580
O62	O	1.368760	0.818899	0.588580
O63	O	1.618760	1.068899	0.838580
O64	O	1.868760	1.318899	1.088580
O65	O	1.027561	0.568844	0.437637
O66	O	1.277561	0.818844	0.687637
O67	O	1.527561	1.068844	0.937637
O68	O	1.777561	1.318844	1.187637
C69	C	1.073168	0.598128	0.388119
C70	C	1.323168	0.848128	0.638119
C71	C	1.573168	1.098128	0.888119
C72	C	1.823168	1.348128	1.138119
C73	C	1.073206	0.687749	0.388132
C74	C	1.323206	0.937749	0.638132
C75	C	1.573206	1.187749	0.888132
C76	C	1.823206	1.437749	1.138132
C77	C	0.880286	0.388582	0.388188
C78	C	1.130286	0.638582	0.638188
C79	C	1.380286	0.888582	0.888188
C80	C	1.630286	1.138582	1.138188
C81	C	0.797740	0.388578	0.388222
C82	C	1.047740	0.638578	0.638222
C83	C	1.297740	0.888578	0.888222
C84	C	1.547740	1.138578	1.138222
C85	C	1.073286	0.388577	0.598462
C86	C	1.323286	0.638577	0.848462
C87	C	1.573286	0.888577	1.098462
C88	C	1.823286	1.138577	1.348462
C89	C	1.073307	0.388551	0.688083
C90	C	1.323307	0.638551	0.938083
C91	C	1.573307	0.888551	1.188083
C92	C	1.823307	1.138551	1.438083
C93	C	0.598300	0.442575	0.441939
C94	C	0.848300	0.692575	0.691939
C95	C	1.098300	0.942575	0.941939
C96	C	1.348300	1.192575	1.191939
C97	C	0.548902	0.369053	0.461782
C98	C	0.798902	0.619053	0.711782
C99	C	1.048902	0.869053	0.961782
C100	C	1.298902	1.119053	1.211782
C101	C	0.646610	0.388623	0.388182
C102	C	0.896610	0.638623	0.638182
C103	C	1.146610	0.888623	0.888182
C104	C	1.396610	1.138623	1.138182
C105	C	0.548926	0.462186	0.368338
C106	C	0.798926	0.712186	0.618338
C107	C	1.048926	0.962186	0.868338
C108	C	1.298926	1.212186	1.118338
C109	C	0.500625	0.388673	0.388146
C110	C	0.750625	0.638673	0.638146
C111	C	1.000625	0.888673	0.888146
C112	C	1.250625	1.138673	1.138146
C113	C	0.598299	0.315062	0.408064
C114	C	0.848299	0.565062	0.658064
C115	C	1.098299	0.815062	0.908064
C116	C	1.348299	1.065062	1.158064
C117	C	0.598327	0.408245	0.314586
C118	C	0.848327	0.658245	0.564586
C119	C	1.098327	0.908245	0.814586
C120	C	1.348327	1.158245	1.064586
C121	C	0.548952	0.334673	0.334401
C122	C	0.798952	0.584673	0.584401
C123	C	1.048952	0.834673	0.834401
C124	C	1.298952	1.084673	1.084401
C125	C	0.730708	0.388595	0.388205
C126	C	0.980708	0.638595	0.638205
C127	C	1.230708	0.888595	0.888205
C128	C	1.480708	1.138595	1.138205
C129	C	0.416528	0.388692	0.388122
C130	C	0.666528	0.638692	0.638122
C131	C	0.916528	0.888692	0.888122
C132	C	1.166528	1.138692	1.138122
C133	C	1.266944	0.388693	0.388118
C134	C	1.516944	0.638693	0.638118
C135	C	1.766944	0.888693	0.888118
C136	C	2.016944	1.138693	1.138118
C137	C	1.349489	0.388717	0.388104
C138	C	1.599489	0.638717	0.638104
C139	C	1.849489	0.888717	0.888104
C140	C	2.099489	1.138717	1.138104
C141	C	1.073329	0.178328	0.388204
C142	C	1.323329	0.428328	0.638204
C143	C	1.573329	0.678328	0.888204
C144	C	1.823329	0.928328	1.138204
C145	C	1.073368	0.088707	0.388226
C146	C	1.323368	0.338707	0.638226
C147	C	1.573368	0.588707	0.888226
C148	C	1.823368	0.838707	1.138226
C149	C	1.073335	1.015925	0.388216
C150	C	1.323335	1.265925	0.638216
C151	C	1.573335	1.515925	0.888216
C152	C	1.823335	1.765925	1.138216
C153	C	1.073297	0.924616	0.388194
C154	C	1.323297	1.174616	0.638194
C155	C	1.573297	1.424616	0.888194
C156	C	1.823297	1.674616	1.138194
C157	C	1.073270	0.851840	0.388173
C158	C	1.323270	1.101840	0.638173
C159	C	1.573270	1.351840	0.888173
C160	C	1.823270	1.601840	1.138173
C161	C	1.073233	0.760525	0.388153
C162	C	1.323233	1.010525	0.638153
C163	C	1.573233	1.260525	0.888153
C164	C	1.823233	1.510525	1.138153
C165	C	1.073233	0.388639	0.178662
C166	C	1.323233	0.638639	0.428662
C167	C	1.573233	0.888639	0.678662
C168	C	1.823233	1.138639	0.928662
C169	C	1.073356	0.388437	0.089041
C170	C	1.323356	0.638437	0.339041
C171	C	1.573356	0.888437	0.589041
C172	C	1.823356	1.138437	0.839041
C173	C	1.073341	0.388461	1.016259
C174	C	1.323341	0.638461	1.266259
C175	C	1.573341	0.888461	1.516259
C176	C	1.823341	1.138461	1.766259
C177	C	1.073330	0.388489	0.924950
C178	C	1.323330	0.638489	1.174950
C179	C	1.573330	0.888489	1.424950
C180	C	1.823330	1.138489	1.674950
C181	C	1.073324	0.388507	0.852174
C182	C	1.323324	0.638507	1.102174
C183	C	1.573324	0.888507	1.352174
C184	C	1.823324	1.138507	1.602174
C185	C	1.073312	0.388533	0.760859
C186	C	1.323312	0.638533	1.010859
C187	C	1.573312	0.888533	1.260859
C188	C	1.823312	1.138533	1.510859
H189	H	0.619970	0.488120	0.487450
H190	H	0.869970	0.738120	0.737450
H191	H	1.119970	0.988120	0.987450
H192	H	1.369970	1.238120	1.237450
H193	H	0.527192	0.352473	0.524005
H194	H	0.777192	0.602473	0.774005
H195	H	1.027192	0.852473	1.024005
H196	H	1.277192	1.102473	1.274005
Br197	Br	0.634289	0.211375	0.436130
Br198	Br	0.884289	0.461375	0.686130
Br199	Br	1.134289	0.711375	0.936130
Br200	Br	1.384289	0.961375	1.186130
Br201	Br	0.634512	0.435899	0.210887
Br202	Br	0.884512	0.685899	0.460887
Br203	Br	1.134512	0.935899	0.710887
Br204	Br	1.384512	1.185899	0.960887
H205	H	0.527420	0.289016	0.288926
H206	H	0.777420	0.539016	0.538926
H207	H	1.027420	0.789016	0.788926
H208	H	1.277420	1.039016	1.038926
Br209	Br	0.512775	0.565840	0.340388
Br210	Br	0.762775	0.815840	0.590388
Br211	Br	1.012775	1.065840	0.840388
Br212	Br	1.262775	1.315840	1.090388
