data_functionalizedCrystal
_audit_creation_method	'MofGen! by Chris Wilmer'
_symmetry_space_group_name_H-M	'P1'
_symmetry_Int_Tables_number	1
_symmetry_cell_setting	triclinic
loop_
_symmetry_equiv_pos_as_xyz
  x,y,z
_cell_length_a	27.732048
_cell_length_b	10.654550
_cell_length_c	9.730223
_cell_angle_alpha	90.004253
_cell_angle_beta	89.997790
_cell_angle_gamma	83.563793
loop_
_atom_site_label
_atom_site_type_symbol
_atom_site_fract_x
_atom_site_fract_y
_atom_site_fract_z
O1	O	-0.641857	-0.149416	-0.114113
O2	O	-0.501205	-0.172135	-0.114154
O3	O	-0.574765	0.022100	-0.114124
O4	O	-0.568297	-0.343651	-0.114143
O5	O	-0.574760	0.022105	0.114456
O6	O	-0.501200	-0.172130	0.114426
O7	O	-0.641852	-0.149411	0.114467
Zn8	Zn	-0.571525	-0.160770	0.150738
Zn9	Zn	-0.571532	-0.160776	-0.150425
O10	O	-0.568292	-0.343646	0.114437
C11	C	-0.483193	-0.171655	0.000130
C12	C	-0.429529	-0.170219	0.000115
C13	C	-0.574287	0.068880	0.000165
C14	C	-0.572867	0.208264	0.000163
C15	C	-0.659864	-0.149890	0.000179
C16	C	-0.713528	-0.151326	0.000186
C17	C	-0.091372	-0.275959	0.000169
C18	C	0.110321	-0.270631	0.000181
O19	O	0.140974	-0.367322	0.000236
N20	N	0.130162	-0.155458	0.000185
C21	C	0.099576	-0.041609	0.000194
O22	O	0.121080	0.056475	0.000212
C23	C	-0.102116	-0.046938	0.000192
C24	C	-0.121954	-0.162118	0.000174
C25	C	-0.111211	-0.391130	0.000153
C26	C	-0.161631	-0.392461	0.000142
C27	C	-0.192213	-0.278620	0.000148
C28	C	-0.172374	-0.163449	0.000164
C29	C	-0.132701	0.066910	0.000211
C30	C	-0.183126	0.065567	0.000214
C31	C	-0.202964	-0.049613	0.000196
C32	C	-0.253376	-0.050940	0.000158
N33	N	-0.273217	-0.166113	0.000155
C34	C	-0.242635	-0.279953	0.000149
C35	C	0.205467	-0.038819	0.000193
C36	C	0.255890	-0.037486	0.000191
C37	C	0.266631	-0.266509	0.000181
C38	C	0.216208	-0.267840	0.000173
C39	C	0.185626	-0.153992	0.000190
C40	C	-0.348522	-0.282739	0.000126
C41	C	-0.398947	-0.284060	0.000109
C42	C	-0.409684	-0.055038	0.000127
C43	C	-0.359263	-0.053716	0.000136
C44	C	-0.328683	-0.167577	0.000140
O45	O	-0.284058	0.045700	0.000119
O46	O	-0.264149	-0.378023	0.000162
C47	C	-0.040952	-0.274628	0.000179
C48	C	-0.021113	-0.159457	0.000195
C49	C	-0.051695	-0.045616	0.000201
C50	C	0.029309	-0.158124	0.000194
C51	C	0.059891	-0.271965	0.000188
C52	C	0.040050	-0.387138	0.000185
C53	C	-0.010370	-0.388468	0.000174
C54	C	-0.031854	0.069557	0.000204
C55	C	0.018567	0.070878	0.000213
C56	C	0.049148	-0.042962	0.000208
C57	C	-0.568769	-0.390426	0.000145
C58	C	-0.570190	-0.529810	0.000138
N59	N	-0.571525	-0.160764	0.356275
C60	C	-0.616177	0.289570	0.000175
C61	C	-0.614840	0.420535	0.000158
C62	C	-0.526876	0.388874	0.000122
C63	C	-0.528215	0.257912	0.000129
N64	N	-0.571536	-0.160772	-0.355962
C65	C	-0.604108	-0.074793	0.428214
C66	C	-0.604113	-0.074793	0.572097
C67	C	-0.538949	-0.246747	0.572089
C68	C	-0.538942	-0.246740	0.428208
H69	H	-0.415096	-0.377858	0.000094
C70	C	-0.503099	-0.341316	0.349062
C71	C	-0.467280	-0.435941	0.428177
C72	C	-0.431437	-0.530507	0.349030
C73	C	-0.431413	-0.530448	0.190767
C74	C	-0.467232	-0.435819	0.111643
C75	C	-0.503075	-0.341253	0.190791
H76	H	-0.467297	-0.435988	0.545341
H77	H	-0.404921	-0.600557	0.407603
H78	H	-0.404879	-0.600451	0.132177
H79	H	-0.467215	-0.435772	-0.005520
H80	H	-0.529592	-0.271203	0.132217
H81	H	-0.116558	0.160702	0.000226
H82	H	0.200059	-0.361630	0.000166
H83	H	-0.490522	0.429313	0.000097
H84	H	-0.323629	-0.375456	0.000133
C85	C	-0.337436	0.072977	0.000144
C86	C	-0.304256	0.105384	0.118857
C87	C	-0.282432	0.232078	0.118880
C88	C	-0.293788	0.326366	0.000191
C89	C	-0.326970	0.293962	-0.118530
C90	C	-0.348794	0.167268	-0.118554
H91	H	-0.295848	0.035584	0.206726
H92	H	-0.257869	0.256065	0.206766
H93	H	-0.277633	0.420153	0.000208
H94	H	-0.335378	0.363761	-0.206399
H95	H	-0.373357	0.143280	-0.206440
H96	H	-0.177778	-0.486253	0.000127
C97	C	-0.639944	0.019788	0.349087
C98	C	-0.638656	0.162771	0.368893
C99	C	-0.674492	0.257358	0.289770
C100	C	-0.711615	0.208961	0.190841
C101	C	-0.712904	0.065971	0.171031
C102	C	-0.677068	-0.028616	0.250153
H103	H	-0.611174	0.198604	0.442130
H104	H	-0.673537	0.363209	0.304436
H105	H	-0.738143	0.278980	0.132270
H106	H	-0.740386	0.030138	0.097793
H107	H	-0.678023	-0.134467	0.235487
C108	C	0.073696	-0.512364	0.000183
C109	C	0.109846	-0.542935	-0.118504
C110	C	0.143494	-0.668154	-0.118497
C111	C	0.140994	-0.762801	0.000196
C112	C	0.104843	-0.732232	0.118891
C113	C	0.071195	-0.607014	0.118885
H114	H	0.111698	-0.472869	-0.206375
H115	H	0.170255	-0.690782	-0.206363
H116	H	0.165903	-0.855495	0.000202
H117	H	0.102991	-0.802298	0.206763
H118	H	0.044433	-0.584386	0.206751
H119	H	-0.086316	-0.483838	0.000153
C120	C	-0.639957	0.019773	0.651232
C121	C	-0.675802	0.114321	0.572105
C122	C	-0.711646	0.208892	0.651240
C123	C	-0.711646	0.208917	0.809503
C124	C	-0.675799	0.114366	0.888639
C125	C	-0.639955	0.019794	0.809504
H126	H	-0.675803	0.114306	0.454941
H127	H	-0.738182	0.278885	0.592657
H128	H	-0.738180	0.278924	0.868084
H129	H	-0.675798	0.114381	1.005803
H130	H	-0.613419	-0.050199	0.868087
H131	H	-0.512422	-0.316749	0.630671
H132	H	-0.056749	0.162261	0.000212
H133	H	0.291540	-0.359202	0.000177
H134	H	-0.026517	-0.482260	0.000162
H135	H	-0.652536	0.249152	0.000199
H136	H	0.272038	0.056305	0.000184
H137	H	0.180572	0.053896	0.000207
H138	H	-0.434592	0.037648	0.000126
H139	H	-0.208024	0.158279	0.000228
H140	H	0.034713	0.164679	0.000217
H141	H	-0.650108	0.486730	0.000165
H142	H	-0.492943	0.191708	0.000115
