data_functionalizedCrystal
_audit_creation_method	'MofGen! by Chris Wilmer'
_symmetry_space_group_name_H-M	'P1'
_symmetry_Int_Tables_number	1
_symmetry_cell_setting	triclinic
loop_
_symmetry_equiv_pos_as_xyz
  x,y,z
_cell_length_a	10.967874
_cell_length_b	9.130307
_cell_length_c	10.908878
_cell_angle_alpha	90.002464
_cell_angle_beta	72.684121
_cell_angle_gamma	102.130220
loop_
_atom_site_label
_atom_site_type_symbol
_atom_site_fract_x
_atom_site_fract_y
_atom_site_fract_z
O1	O	1.618385	0.530268	0.179773
O2	O	1.251517	0.437675	0.196981
O3	O	1.483584	0.496241	0.001874
O4	O	1.386319	0.471703	0.374881
O5	O	1.483578	0.252640	0.001872
O6	O	1.251512	0.194075	0.196980
O7	O	1.618380	0.286668	0.179771
Cu8	Cu	1.434945	0.218129	0.188375
Cu9	Cu	1.434952	0.506214	0.188378
O10	O	1.386313	0.228102	0.374879
C11	C	1.205285	0.304207	0.195728
C12	C	1.067539	0.269442	0.191982
C13	C	1.006131	0.380135	0.190312
C14	C	0.863763	0.344206	0.186440
N15	N	1.434949	0.015507	0.188373
C16	C	1.640503	0.067391	0.015656
C17	C	1.743287	0.016669	-0.070699
C18	C	1.743300	-0.136662	-0.070700
C19	C	1.640515	-0.239276	0.015661
C20	C	1.537731	-0.188553	0.102016
C21	C	1.537731	-0.035216	0.102010
C22	C	1.332175	-0.240438	0.274725
C23	C	1.332165	-0.087107	0.274734
C24	C	1.229391	-0.343053	0.361085
C25	C	1.126609	-0.292329	0.447449
C26	C	1.126601	-0.138989	0.447447
C27	C	1.229381	-0.036385	0.361089
C28	C	1.664612	0.420139	0.181024
C29	C	1.802358	0.454914	0.184771
C30	C	1.492671	0.376736	-0.045889
C31	C	1.519742	0.383574	-0.188203
N32	N	1.434960	0.708839	0.188370
C33	C	1.420967	0.358647	-0.238082
C34	C	1.448943	0.365713	-0.385171
C35	C	1.377226	0.347610	0.422642
C36	C	1.350155	0.340782	0.564956
H37	H	0.855174	0.576290	0.186217
H38	H	1.826972	0.100230	-0.141016
H39	H	1.058954	0.501501	0.191757
C40	C	1.640512	-0.407939	0.015647
H41	H	1.564575	-0.461787	0.079438
H42	H	1.716460	-0.423468	0.033938
H43	H	1.640469	-0.442624	-0.066449
C44	C	1.856357	-0.192461	-0.165689
H45	H	1.917572	-0.109394	-0.217119
H46	H	1.822639	-0.260798	-0.219467
H47	H	1.898623	-0.241597	-0.119074
C48	C	1.278746	0.322752	-0.148675
H49	H	1.278601	0.322722	-0.061543
H50	H	1.234944	0.226752	-0.164662
H51	H	1.234956	0.396663	-0.164652
H52	H	1.229401	-0.467902	0.361076
H53	H	1.014712	0.148074	0.190551
H54	H	1.042924	-0.375887	0.517752
C55	C	1.229377	0.132276	0.361082
H56	H	1.305304	0.186117	0.297276
H57	H	1.229400	0.166985	0.443168
H58	H	1.153427	0.147781	0.342766
H59	H	1.640511	0.192246	0.015658
C60	C	1.591174	0.401611	-0.474568
H61	H	1.649517	0.416323	-0.424200
H62	H	1.605882	0.490270	-0.527321
H63	H	1.605874	0.320361	-0.527322
H64	H	1.244872	0.314196	-0.368859
H65	H	1.042898	-0.097702	0.517763
C66	C	1.661965	0.419470	-0.277604
H67	H	1.720308	0.434182	-0.227237
H68	H	1.676673	0.508129	-0.330357
H69	H	1.676665	0.338220	-0.330358
C70	C	0.792423	0.180235	0.184502
H71	H	0.849408	0.115446	0.186060
H72	H	0.766921	0.168351	0.108516
H73	H	0.716930	0.155744	0.257757
