data_functionalizedCrystal
_audit_creation_method	'MofGen! by Chris Wilmer'
_symmetry_space_group_name_H-M	'P1'
_symmetry_Int_Tables_number	1
_symmetry_cell_setting	triclinic
loop_
_symmetry_equiv_pos_as_xyz
  x,y,z
_cell_length_a	16.109301
_cell_length_b	10.723023
_cell_length_c	15.186229
_cell_angle_alpha	89.997261
_cell_angle_beta	89.999006
_cell_angle_gamma	83.964566
loop_
_atom_site_label
_atom_site_type_symbol
_atom_site_fract_x
_atom_site_fract_y
_atom_site_fract_z
O1	O	1.104074	0.160392	-0.073178
O2	O	0.862129	0.180352	-0.073190
O3	O	0.988683	-0.011278	-0.073180
O4	O	0.977521	0.352022	-0.073188
O5	O	0.988674	-0.011281	0.073277
O6	O	0.862121	0.180350	0.073267
O7	O	1.104065	0.160389	0.073279
Zn8	Zn	0.983092	0.170369	0.096526
Zn9	Zn	0.983103	0.170373	-0.096438
O10	O	0.977512	0.352020	0.073269
C11	C	0.831146	0.179542	0.000037
C12	C	0.738836	0.177118	0.000032
C13	C	0.430460	0.282903	0.000045
C14	C	0.517194	0.285193	0.000040
C15	C	0.535730	0.057830	0.000033
C16	C	0.448997	0.055542	0.000032
C17	C	0.396364	0.168082	0.000043
C18	C	0.569830	0.172660	0.000038
C19	C	0.663871	0.175141	0.000033
C20	C	0.302318	0.165601	0.000046
C21	C	0.987866	-0.057768	0.000047
C22	C	0.985436	-0.196290	0.000044
C23	C	0.984358	-0.258040	-0.075826
C24	C	0.981846	-0.401210	-0.075831
C25	C	1.135049	0.161199	0.000050
C26	C	1.227359	0.163624	0.000049
C27	C	0.978328	0.398510	0.000040
C28	C	0.980758	0.537032	0.000037
N29	N	0.983090	0.170366	0.228219
N30	N	0.983111	0.170366	-0.228130
C31	C	1.039147	0.085541	0.453946
C32	C	1.039150	0.085538	0.546136
C33	C	0.927048	0.255195	0.546136
C34	C	0.927042	0.255191	0.453948
C35	C	0.983096	0.170365	0.407856
C36	C	0.983105	0.170366	0.592233
C37	C	0.983107	0.170364	0.692189
C38	C	0.983093	0.170366	0.307893
H39	H	0.387608	0.374541	0.000053
Br40	Br	0.980310	-0.489713	-0.184102
H41	H	0.984496	-0.249416	0.064996
H42	H	0.881394	0.324266	0.416419
Br43	Br	0.607164	-0.094896	0.000026
Br44	Br	1.115219	-0.029582	0.391395
Br45	Br	0.563463	0.441028	0.000037
H46	H	1.084791	0.016464	0.583660
H47	H	0.421237	-0.037965	0.000027
H48	H	0.981690	-0.409873	0.064996
Br49	Br	0.985936	-0.169510	-0.184091
H50	H	0.881411	0.324260	0.583674
