data_functionalizedCrystal
_audit_creation_method	'MofGen! by Chris Wilmer'
_symmetry_space_group_name_H-M	'P1'
_symmetry_Int_Tables_number	1
_symmetry_cell_setting	triclinic
loop_
_symmetry_equiv_pos_as_xyz
  x,y,z
_cell_length_a	10.540535
_cell_length_b	10.540510
_cell_length_c	12.503572
_cell_angle_alpha	93.560801
_cell_angle_beta	86.448584
_cell_angle_gamma	84.518476
loop_
_atom_site_label
_atom_site_type_symbol
_atom_site_fract_x
_atom_site_fract_y
_atom_site_fract_z
O1	O	1.693121	0.171603	-0.089255
O2	O	2.193121	0.671603	0.410745
O3	O	1.323706	0.188464	-0.089270
O4	O	1.823706	0.688464	0.410730
O5	O	1.516861	-0.004676	-0.089262
O6	O	2.016861	0.495324	0.410738
O7	O	1.499966	0.364742	-0.089263
O8	O	1.999966	0.864742	0.410737
O9	O	1.502335	0.009874	0.089379
O10	O	2.002335	0.509874	0.589379
O11	O	1.309180	0.203013	0.089371
O12	O	1.809180	0.703013	0.589371
O13	O	1.678595	0.186152	0.089386
O14	O	2.178595	0.686152	0.589386
Cu15	Cu	1.492561	0.195911	0.105690
Cu16	Cu	1.992561	0.695911	0.605690
Cu17	Cu	1.509740	0.178705	-0.105574
Cu18	Cu	2.009740	0.678705	0.394426
O19	O	1.485440	0.379292	0.089378
O20	O	1.985440	0.879292	0.589378
C21	C	1.269141	0.194475	0.000049
C22	C	1.769141	0.694475	0.500049
C23	C	1.128193	0.190695	0.000043
C24	C	1.628193	0.690695	0.500043
C25	C	1.091537	0.049680	0.000048
C26	C	1.591537	0.549680	0.500048
C27	C	0.944903	0.045736	0.000464
C28	C	1.444903	0.545736	0.500464
C29	C	0.910570	0.263360	0.101870
C30	C	1.410570	0.763360	0.601870
C31	C	1.057329	0.266366	0.101945
C32	C	1.557329	0.766366	0.601945
C33	C	1.073733	0.251872	-0.101211
C34	C	1.573733	0.751872	0.398789
C35	C	0.927495	0.245242	-0.102538
C36	C	1.427495	0.745242	0.397462
C37	C	1.508339	-0.044705	0.000057
C38	C	2.008339	0.455295	0.500057
C39	C	1.504573	-0.185655	0.000050
C40	C	2.004573	0.314345	0.500050
C41	C	1.638724	-0.403079	0.000464
C42	C	2.138724	0.096921	0.500464
C43	C	1.642775	-0.256517	0.000056
C44	C	2.142775	0.243483	0.500056
C45	C	1.442122	-0.238721	-0.101964
C46	C	1.942122	0.261279	0.398036
C47	C	1.439089	-0.385488	-0.102044
C48	C	1.939089	0.114512	0.397956
C49	C	1.419692	-0.368751	0.101105
C50	C	1.919692	0.131249	0.601105
C51	C	1.426138	-0.222301	0.102448
C52	C	1.926138	0.277699	0.602448
C53	C	1.733161	0.180141	0.000065
C54	C	2.233161	0.680141	0.500065
C55	C	1.874109	0.183921	0.000063
C56	C	2.374109	0.683921	0.500063
C57	C	1.493962	0.419321	0.000057
C58	C	1.993962	0.919321	0.500057
C59	C	1.497729	0.560270	0.000057
C60	C	1.997729	1.060270	0.500057
N61	N	1.480488	0.208013	0.254282
N62	N	1.980488	0.708013	0.754282
N63	N	1.521823	0.166594	-0.254166
N64	N	2.021823	0.666594	0.245834
C65	C	1.462727	0.225825	0.473396
C66	C	1.962727	0.725825	0.973396
C67	C	1.539580	0.148785	0.526727
C68	C	2.039580	0.648785	1.026727
C69	C	1.529698	0.158696	0.648649
C70	C	2.029698	0.658696	1.148649
C71	C	1.472608	0.215916	0.351463
C72	C	1.972608	0.715916	0.851463
H73	H	1.139448	-0.010417	-0.072949
H74	H	1.639448	0.489583	0.427051
H75	H	0.921505	-0.015848	-0.072500
H76	H	1.421505	0.484152	0.427500
Br77	Br	1.530014	-0.462877	-0.229132
Br78	Br	2.030014	0.037123	0.270868
H79	H	1.389515	0.299220	0.519301
H80	H	1.889515	0.799220	1.019301
H81	H	0.878961	0.345590	-0.109003
H82	H	1.378961	0.845590	0.390997
H83	H	1.122473	0.201582	-0.178404
H84	H	1.622473	0.701582	0.321596
Br85	Br	1.154094	-0.029177	0.121553
Br86	Br	1.654094	0.470823	0.621553
H87	H	0.905023	0.187331	-0.177856
H88	H	1.405023	0.687331	0.322144
Br89	Br	1.257127	-0.139686	0.112713
Br90	Br	1.757127	0.360314	0.612713
Br91	Br	1.246655	-0.405572	0.102246
Br92	Br	1.746655	0.094428	0.602246
H93	H	0.910487	-0.003654	0.073875
H94	H	1.410487	0.496346	0.573875
H95	H	1.612798	0.075387	0.480817
H96	H	2.112798	0.575387	0.980817
H97	H	1.079995	0.370096	0.106295
H98	H	1.579995	0.870096	0.606295
Br99	Br	1.113946	0.196655	0.229274
Br100	Br	1.613946	0.696655	0.729274
H101	H	0.862918	0.365411	0.105369
H102	H	1.362918	0.865411	0.605369
H103	H	0.873489	0.220741	0.177927
H104	H	1.373489	0.720741	0.677927
H105	H	1.095986	0.355544	-0.102196
H106	H	1.595986	0.855544	0.397804
Br107	Br	1.725086	-0.197669	0.121958
Br108	Br	2.225086	0.302331	0.621958
H109	H	1.336098	-0.408859	-0.106669
H110	H	1.836098	0.091141	0.393331
H111	H	1.686617	-0.439076	0.073624
H112	H	2.186617	0.060924	0.573624
Br113	Br	1.737815	-0.485465	-0.120773
Br114	Br	2.237815	0.014535	0.379227
H115	H	1.340688	-0.191640	-0.105761
H116	H	1.840688	0.308360	0.394239
Br117	Br	1.745497	-0.219105	-0.122033
Br118	Br	2.245497	0.280895	0.377967
H119	H	1.497426	-0.214048	-0.177878
H120	H	1.997426	0.285952	0.322122
Br121	Br	1.481916	-0.429103	0.229980
Br122	Br	1.981916	0.070897	0.729980
Br123	Br	1.501697	-0.164360	0.228240
Br124	Br	2.001697	0.335640	0.728240
