data_functionalizedCrystal
_audit_creation_method	'MofGen! by Chris Wilmer'
_symmetry_space_group_name_H-M	'P1'
_symmetry_Int_Tables_number	1
_symmetry_cell_setting	triclinic
loop_
_symmetry_equiv_pos_as_xyz
  x,y,z
_cell_length_a	9.065215
_cell_length_b	17.699083
_cell_length_c	7.540329
_cell_angle_alpha	89.995522
_cell_angle_beta	89.997574
_cell_angle_gamma	84.148856
loop_
_atom_site_label
_atom_site_type_symbol
_atom_site_fract_x
_atom_site_fract_y
_atom_site_fract_z
O1	O	1.957112	0.110962	-0.147466
O2	O	2.457112	0.610962	0.352534
O3	O	1.527557	0.120067	-0.147474
O4	O	2.027557	0.620067	0.352526
O5	O	1.754471	0.005420	-0.147454
O6	O	2.254471	0.505420	0.352546
O7	O	1.730199	0.225609	-0.147486
O8	O	2.230199	0.725609	0.352514
O9	O	1.754457	0.005419	0.147511
O10	O	2.254457	0.505419	0.647511
O11	O	1.527544	0.120066	0.147491
O12	O	2.027544	0.620066	0.647491
O13	O	1.957099	0.110961	0.147499
O14	O	2.457099	0.610961	0.647499
Cu15	Cu	1.742320	0.115513	0.174427
Cu16	Cu	2.242320	0.615513	0.674427
Cu17	Cu	1.742336	0.115515	-0.174403
Cu18	Cu	2.242336	0.615515	0.325597
O19	O	1.730185	0.225608	0.147479
O20	O	2.230185	0.725608	0.647479
C21	C	1.472590	0.119192	0.000007
C22	C	1.972590	0.619192	0.500007
C23	C	1.308824	0.116577	0.000004
C24	C	1.808824	0.616577	0.500004
C25	C	1.753594	-0.022784	0.000028
C26	C	2.253594	0.477216	0.500028
C27	C	1.750985	-0.106823	0.000029
C28	C	2.250985	0.393177	0.500029
C29	C	1.884179	-0.154406	0.000034
C30	C	2.384179	0.345594	0.500034
C31	C	1.881718	-0.233368	0.000018
C32	C	2.381718	0.266632	0.500018
C33	C	1.746063	-0.264746	0.000010
C34	C	2.246063	0.235254	0.500010
C35	C	1.612859	-0.217157	-0.000000
C36	C	2.112859	0.282843	0.500000
C37	C	1.615321	-0.138196	0.000003
C38	C	2.115321	0.361804	0.500003
C39	C	1.602928	-0.535598	-0.000015
C40	C	2.102928	-0.035598	0.499985
C41	C	1.600476	-0.614565	-0.000012
C42	C	2.100476	-0.114565	0.499988
C43	C	1.869325	-0.630770	0.000001
C44	C	2.369325	-0.130770	0.500001
C45	C	1.871787	-0.551809	0.000004
C46	C	2.371787	-0.051809	0.500004
C47	C	1.738584	-0.504227	-0.000016
C48	C	2.238584	-0.004227	0.499984
C49	C	1.741253	-0.418607	-0.000002
C50	C	2.241253	0.081393	0.499998
C51	C	1.743392	-0.350365	0.000009
C52	C	2.243392	0.149635	0.500009
C53	C	2.012066	0.111836	0.000013
C54	C	2.512066	0.611836	0.500013
C55	C	2.175832	0.114451	0.000004
C56	C	2.675832	0.614451	0.500004
C57	C	1.731062	0.253812	-0.000008
C58	C	2.231062	0.753812	0.499992
C59	C	1.733671	0.337851	-0.000020
C60	C	2.233671	0.837851	0.499980
N61	N	1.742320	0.115511	0.419776
N62	N	2.242320	0.615511	0.919776
N63	N	1.742348	0.115511	-0.419751
N64	N	2.242348	0.615511	0.080249
H65	H	1.994645	-0.128864	0.000052
H66	H	2.494645	0.371136	0.500052
H67	H	1.490003	-0.640109	-0.000016
H68	H	1.990003	-0.140109	0.499984
C69	C	2.028242	-0.285707	0.000053
C70	C	2.528242	0.214293	0.500053
N71	N	2.138611	-0.325128	0.000087
N72	N	2.638611	0.174872	0.500087
H73	H	1.977785	-0.669521	0.000008
H74	H	2.477785	-0.169521	0.500008
H75	H	1.502406	-0.242711	-0.000018
H76	H	2.002406	0.257289	0.499982
C77	C	1.468798	-0.085855	0.000002
C78	C	1.968798	0.414145	0.500002
N79	N	1.358431	-0.046432	-0.000004
N80	N	1.858431	0.453568	0.499996
C81	C	2.021018	-0.517298	0.000013
C82	C	2.521018	-0.017298	0.500013
N83	N	2.133422	-0.491306	0.000011
N84	N	2.633422	0.008694	0.500011
H85	H	1.494465	-0.496865	-0.000030
H86	H	1.994465	0.003135	0.499970
