data_functionalizedCrystal
_audit_creation_method	'MofGen! by Chris Wilmer'
_symmetry_space_group_name_H-M	'P1'
_symmetry_Int_Tables_number	1
_symmetry_cell_setting	triclinic
loop_
_symmetry_equiv_pos_as_xyz
  x,y,z
_cell_length_a	11.026607
_cell_length_b	13.101039
_cell_length_c	11.026607
_cell_angle_alpha	85.898113
_cell_angle_beta	108.586017
_cell_angle_gamma	94.097295
loop_
_atom_site_label
_atom_site_type_symbol
_atom_site_fract_x
_atom_site_fract_y
_atom_site_fract_z
O1	O	1.732207	0.085212	0.528122
O2	O	2.232207	0.585212	1.028122
O3	O	1.365627	0.085214	0.467358
O4	O	1.865627	0.585214	0.967358
O5	O	1.518535	0.085209	0.314450
O6	O	2.018535	0.585209	0.814450
O7	O	1.579299	0.085217	0.681030
O8	O	2.079299	0.585217	1.181030
O9	O	1.507569	-0.085220	0.325444
O10	O	2.007569	0.414780	0.825444
O11	O	1.354661	-0.085216	0.478352
O12	O	1.854661	0.414784	0.978352
O13	O	1.721241	-0.085217	0.539116
O14	O	2.221241	0.414783	1.039116
Zn15	Zn	1.536210	-0.112276	0.510480
Zn16	Zn	2.036210	0.387724	1.010480
Zn17	Zn	1.550658	0.112272	0.495994
Zn18	Zn	2.050658	0.612272	0.995994
O19	O	1.568333	-0.085213	0.692024
O20	O	2.068333	0.414787	1.192024
C21	C	1.312485	-0.000001	0.461645
C22	C	1.812485	0.499999	0.961645
C23	C	1.170471	-0.000000	0.428228
C24	C	1.670471	0.500000	0.928228
N25	N	1.526359	-0.265524	0.520367
N26	N	2.026359	0.234476	1.020367
C27	C	1.116822	0.000002	0.520498
C28	C	1.616822	0.500002	1.020498
C29	C	0.970043	0.000003	0.485962
C30	C	1.470043	0.500003	0.985962
C31	C	1.512958	-0.474566	0.533830
C32	C	2.012958	0.025434	1.033830
C33	C	1.573915	-0.525444	0.472639
C34	C	2.073915	-0.025444	0.972639
C35	C	1.566458	-0.641762	0.480130
C36	C	2.066458	-0.141762	0.980130
C37	C	1.520413	-0.358238	0.526340
C38	C	2.020413	0.141762	1.026340
C39	C	1.774384	-0.000001	0.544829
C40	C	2.274384	0.499999	1.044829
C41	C	1.916398	0.000006	0.578245
C42	C	2.416398	0.500006	1.078245
C43	C	1.501842	-0.000004	0.272288
C44	C	2.001842	0.499996	0.772288
C45	C	1.468426	-0.000000	0.130273
C46	C	1.968426	0.500000	0.630273
N47	N	1.560517	0.265521	0.486099
N48	N	2.060517	0.765521	0.986099
C49	C	1.560695	0.000001	0.076624
C50	C	2.060695	0.500001	0.576624
C51	C	1.526160	0.000005	-0.070155
C52	C	2.026160	0.500005	0.429845
C53	C	1.585026	0.000003	0.734186
C54	C	2.085026	0.500003	1.234186
C55	C	1.618443	0.000006	0.876200
C56	C	2.118443	0.500006	1.376200
H57	H	1.179554	-0.000001	0.625061
H58	H	1.679554	0.499999	1.125061
Br59	Br	1.351869	0.000020	-0.174699
Br60	Br	1.851869	0.500020	0.325301
H61	H	1.723018	0.000082	-0.061077
H62	H	2.223018	0.500082	0.438923
H63	H	0.907315	0.000027	0.381391
H64	H	1.407315	0.500027	0.881391
H65	H	0.979125	0.000001	0.682816
H66	H	1.479125	0.500001	1.182816
H67	H	1.665258	-0.000006	0.139358
H68	H	2.165258	0.499994	0.639358
H69	H	1.631702	-0.481643	0.414627
H70	H	2.131702	0.018357	0.914627
Br71	Br	1.416650	-0.547563	0.630521
Br72	Br	1.916650	-0.047563	1.130521
Br73	Br	1.294142	0.000015	0.025726
Br74	Br	1.794142	0.500015	0.525726
H75	H	1.107739	0.000024	0.323664
H76	H	1.607739	0.500024	0.823664
