data_functionalizedCrystal
_audit_creation_method	'MofGen! by Chris Wilmer'
_symmetry_space_group_name_H-M	'P1'
_symmetry_Int_Tables_number	1
_symmetry_cell_setting	triclinic
loop_
_symmetry_equiv_pos_as_xyz
  x,y,z
_cell_length_a	16.109302
_cell_length_b	16.992695
_cell_length_c	14.586319
_cell_angle_alpha	89.995905
_cell_angle_beta	89.994552
_cell_angle_gamma	87.065002
loop_
_atom_site_label
_atom_site_type_symbol
_atom_site_fract_x
_atom_site_fract_y
_atom_site_fract_z
O1	O	1.109856	0.100786	-0.076283
O2	O	0.868631	0.113328	-0.076276
O3	O	0.988276	-0.007085	-0.076272
O4	O	0.990210	0.221200	-0.076287
O5	O	0.988267	-0.007087	0.076209
O6	O	0.868622	0.113326	0.076205
O7	O	1.109847	0.100785	0.076198
Cu8	Cu	0.989234	0.107055	0.090124
Cu9	Cu	0.989244	0.107058	-0.090202
O10	O	0.990201	0.221198	0.076194
C11	C	0.837618	0.112819	-0.000034
C12	C	0.745221	0.111296	-0.000031
C13	C	0.532640	0.107772	0.083077
C14	C	0.445824	0.106332	0.083074
C15	C	0.445844	0.106338	-0.083169
C16	C	0.532659	0.107773	-0.083165
C17	C	0.576054	0.108493	-0.000039
C18	C	0.402423	0.105619	-0.000046
C19	C	0.308293	0.104058	-0.000050
C20	C	0.670190	0.110053	-0.000035
C21	C	0.985784	-0.036298	-0.000032
C22	C	0.978360	-0.123340	-0.000032
C23	C	1.049986	-0.173599	-0.000033
C24	C	1.043006	-0.255384	-0.000041
C25	C	0.964400	-0.286908	-0.000042
C26	C	0.892768	-0.236643	-0.000044
C27	C	0.899749	-0.154860	-0.000042
C28	C	0.935467	-0.530499	-0.000054
C29	C	0.928491	-0.612288	-0.000053
C30	C	1.078730	-0.631023	-0.000052
C31	C	1.085704	-0.549237	-0.000045
C32	C	1.014073	-0.498980	-0.000051
N33	N	0.957263	-0.370505	-0.000048
N34	N	1.021210	-0.415384	-0.000052
C35	C	1.140860	0.101294	-0.000045
C36	C	1.233257	0.102817	-0.000054
C37	C	0.992694	0.250411	-0.000048
C38	C	1.000117	0.337453	-0.000054
N39	N	0.989232	0.107053	0.216956
N40	N	0.989252	0.107053	-0.217034
C41	C	1.042231	0.053752	0.451964
C42	C	1.042233	0.053750	0.547945
C43	C	0.936247	0.160357	0.547951
C44	C	0.936241	0.160355	0.451972
C45	C	0.989238	0.107053	0.403981
C46	C	0.989246	0.107054	0.595942
C47	C	0.989248	0.107052	0.700009
C48	C	0.989235	0.107054	0.299907
H49	H	0.410501	0.105752	-0.150847
H50	H	0.410479	0.105745	0.150755
H51	H	0.567970	0.108359	0.150763
H52	H	1.137048	-0.671951	-0.000049
H53	H	0.864477	-0.637952	-0.000039
H54	H	1.085383	0.010350	0.412892
C55	C	0.579649	0.108594	-0.173507
C56	C	0.523064	0.107684	-0.246306
C57	C	0.566320	0.108448	-0.329538
H58	H	0.616823	0.063470	-0.177088
H59	H	0.610192	0.154868	-0.177010
H60	H	0.492534	0.061415	-0.242806
H61	H	0.485888	0.152805	-0.242756
H62	H	0.596863	0.154721	-0.333040
H63	H	0.603492	0.063322	-0.333109
H64	H	0.527933	0.107837	-0.378941
C65	C	1.120701	-0.310046	0.000099
C66	C	1.121063	-0.357571	0.078529
C67	C	1.192618	-0.407944	0.078679
H68	H	1.168580	-0.279661	0.000150
H69	H	1.121106	-0.342378	-0.053051
H70	H	1.120666	-0.325243	0.131665
H71	H	1.073200	-0.387973	0.078494
H72	H	1.193023	-0.440276	0.025529
H73	H	1.240492	-0.377552	0.078728
H74	H	1.192870	-0.440201	0.131888
C75	C	1.135408	-0.139528	-0.000082
C76	C	1.196640	-0.201051	-0.000112
C77	C	1.275341	-0.169699	-0.000174
H78	H	1.141373	-0.108029	0.053077
H79	H	1.141298	-0.108033	-0.053277
H80	H	1.190752	-0.232533	0.053078
H81	H	1.190702	-0.232556	-0.053266
H82	H	1.281231	-0.138204	-0.053370
H83	H	1.281297	-0.138200	0.052985
H84	H	1.316896	-0.211437	-0.000203
C85	C	1.099820	-0.003993	0.600159
C86	C	1.153474	0.037789	0.655268
C87	C	1.206529	-0.015381	0.703388
H88	H	1.131459	-0.035758	0.557934
H89	H	1.067771	-0.036631	0.637661
H90	H	1.185521	0.070414	0.617769
H91	H	1.121859	0.069551	0.697510
H92	H	1.174479	-0.048020	0.740890
H93	H	1.238161	-0.047144	0.661157
H94	H	1.242934	0.012960	0.740791
C95	C	0.878840	0.218270	0.399753
C96	C	0.926313	0.266263	0.344619
C97	C	0.873464	0.319612	0.296493
H98	H	0.847264	0.250094	0.441975
H99	H	0.842369	0.190074	0.362268
H100	H	0.962769	0.294456	0.382100
H101	H	0.957886	0.234460	0.302379
H102	H	0.836993	0.291416	0.259008
H103	H	0.841891	0.351431	0.338722
H104	H	0.905666	0.352177	0.259073
H105	H	0.893099	0.203755	0.587035
C106	C	0.857599	-0.476071	0.000000
C107	C	0.787268	-0.521187	0.000030
C108	C	0.715518	-0.471071	0.000096
H109	H	0.857078	-0.443754	-0.053157
H110	H	0.857151	-0.443794	0.053197
H111	H	0.787715	-0.553450	-0.053161
H112	H	0.787761	-0.553501	0.053184
H113	H	0.715070	-0.438794	0.053293
H114	H	0.715005	-0.438757	-0.053062
H115	H	0.667790	-0.501674	0.000125
C116	C	0.807475	-0.270976	-0.000188
C117	C	0.799093	-0.317394	-0.078623
C118	C	0.720536	-0.349041	-0.078777
H119	H	0.765739	-0.229411	-0.000235
H120	H	0.801616	-0.302538	0.052959
H121	H	0.804944	-0.285834	-0.131756
H122	H	0.840811	-0.358971	-0.078592
H123	H	0.714676	-0.380602	-0.025630
H124	H	0.678806	-0.307471	-0.078822
H125	H	0.714841	-0.380544	-0.131990
C126	C	0.821884	-0.100420	0.000006
C127	C	0.751549	-0.145531	0.000028
C128	C	0.679803	-0.095409	0.000078
H129	H	0.821373	-0.068108	-0.053154
H130	H	0.821432	-0.068140	0.053199
H131	H	0.752000	-0.177797	-0.053160
H132	H	0.752032	-0.177841	0.053184
H133	H	0.679351	-0.063129	0.053272
H134	H	0.679301	-0.063099	-0.053082
H135	H	0.632072	-0.126009	0.000102
H136	H	1.149714	-0.523577	-0.000044
