data_functionalizedCrystal
_audit_creation_method	'MofGen! by Chris Wilmer'
_symmetry_space_group_name_H-M	'P1'
_symmetry_Int_Tables_number	1
_symmetry_cell_setting	triclinic
loop_
_symmetry_equiv_pos_as_xyz
  x,y,z
_cell_length_a	12.759401
_cell_length_b	16.120484
_cell_length_c	12.759393
_cell_angle_alpha	92.863430
_cell_angle_beta	89.979527
_cell_angle_gamma	92.926992
loop_
_atom_site_label
_atom_site_type_symbol
_atom_site_fract_x
_atom_site_fract_y
_atom_site_fract_z
Zn1	Zn	1.584980	-0.331827	-0.615182
Zn2	Zn	2.084980	0.168173	-0.115182
Zn3	Zn	1.575930	-0.471264	-0.448395
Zn4	Zn	2.075930	0.028736	0.051605
Zn5	Zn	1.409277	-0.331873	-0.439520
Zn6	Zn	1.909277	0.168127	0.060480
Zn7	Zn	1.400331	-0.471205	-0.624028
Zn8	Zn	1.900331	0.028795	-0.124028
O9	O	1.492629	-0.401542	-0.531782
O10	O	1.992629	0.098458	-0.031782
O11	O	1.730800	-0.350330	-0.593070
O12	O	2.230800	0.149670	-0.093070
O13	O	1.553779	-0.452818	-0.300199
O14	O	2.053779	0.047182	0.199801
O15	O	1.440116	-0.215202	-0.455406
O16	O	1.940116	0.284798	0.044594
O17	O	1.724151	-0.452773	-0.470532
O18	O	2.224151	0.047227	0.029468
O19	O	1.569204	-0.215168	-0.584464
O20	O	2.069204	0.284832	-0.084464
O21	O	1.431340	-0.350408	-0.293679
O22	O	1.931340	0.149592	0.206321
O23	O	1.261070	-0.350350	-0.463984
O24	O	1.761070	0.149650	0.036016
O25	O	1.424869	-0.452672	-0.769873
O26	O	1.924869	0.047328	-0.269873
O27	O	1.254497	-0.452716	-0.599541
O28	O	1.754497	0.047284	-0.099541
O29	O	1.560530	-0.350272	-0.763374
O30	O	2.060530	0.149728	-0.263374
O31	O	1.545105	-0.587922	-0.479109
O32	O	2.045105	-0.087922	0.020891
O33	O	1.416094	-0.587878	-0.608146
O34	O	1.916094	-0.087878	-0.108146
C35	C	1.219663	-0.401532	-0.531760
C36	C	1.719663	0.098468	-0.031760
C37	C	1.102885	-0.401548	-0.531777
C38	C	1.602885	0.098452	-0.031777
C39	C	1.044623	-0.454931	-0.602261
C40	C	1.544623	0.045069	-0.102261
C41	C	0.934899	-0.454934	-0.602282
C42	C	1.434899	0.045066	-0.102282
C43	C	0.941708	-0.348169	-0.461326
C44	C	1.441708	0.151831	0.038674
C45	C	1.051431	-0.348162	-0.461311
C46	C	1.551431	0.151838	0.038689
C47	C	1.478675	-0.618150	-0.545574
C48	C	1.978675	-0.118150	-0.045574
C49	C	1.472801	-0.710815	-0.551509
C50	C	1.972801	-0.210815	-0.051509
C51	C	1.462084	-0.880476	-0.562367
C52	C	1.962084	-0.380476	-0.062367
C53	C	1.523364	-0.921768	-0.501213
C54	C	2.023364	-0.421768	-0.001213
C55	C	1.517400	-1.016173	-0.507255
C56	C	2.017400	-0.516173	-0.007255
C57	C	1.468046	-0.786063	-0.556327
C58	C	1.968046	-0.286063	-0.056327
C59	C	1.766662	-0.401553	-0.531804
C60	C	2.266662	0.098447	-0.031804
C61	C	1.883438	-0.401558	-0.531813
C62	C	2.383438	0.098442	-0.031813
C63	C	1.492711	-0.401460	-0.805810
C64	C	1.992711	0.098540	-0.305810
C65	C	1.492746	-0.401425	-0.922584
C66	C	1.992746	0.098575	-0.422584
C67	C	1.506667	-0.184089	-0.517959
C68	C	2.006667	0.315911	-0.017959
C69	C	1.512649	-0.091423	-0.512068
C70	C	2.012649	0.408577	-0.012068
C71	C	1.563413	-0.348066	-1.083793
C72	C	2.063413	0.151934	-0.583793
C73	C	1.563391	-0.348098	-0.974070
C74	C	2.063391	0.151902	-0.474070
C75	C	1.422125	-0.454730	-0.980827
C76	C	1.922125	0.045270	-0.480827
C77	C	1.422153	-0.454701	-1.090547
C78	C	1.922153	0.045299	-0.590547
C79	C	1.492612	-0.401564	-0.258816
C80	C	1.992612	0.098436	0.241184
C81	C	1.492796	-0.401364	-0.142027
C82	C	1.992796	0.098636	0.357973
H83	H	1.580305	-0.886217	-0.444319
H84	H	2.080305	-0.386217	0.055681
H85	H	1.364647	-0.498107	-1.137963
H86	H	1.864647	0.001893	-0.637963
H87	H	1.405145	-0.916024	-0.619255
H88	H	1.905145	-0.416024	-0.119255
O89	O	1.639613	-0.290551	-1.139323
O90	O	2.139613	0.209449	-0.639323
H91	H	1.688721	-0.253501	-1.080392
H92	H	2.188721	0.246499	-0.580392
O93	O	1.639556	-0.290612	-0.911256
O94	O	2.139556	0.209388	-0.411256
H95	H	1.688675	-0.253518	-0.965491
H96	H	2.188675	0.246482	-0.465491
O97	O	0.886189	-0.290609	-0.385319
O98	O	1.386189	0.209391	0.114681
H99	H	0.911448	-0.225187	-0.399303
H100	H	1.411448	0.274813	0.100697
O101	O	1.345925	-0.512243	-0.925294
O102	O	1.845925	-0.012243	-0.425294
H103	H	1.264401	-0.497932	-0.945446
H104	H	1.764401	0.002068	-0.445446
O105	O	1.100127	-0.512498	-0.678271
O106	O	1.600127	-0.012498	-0.178271
H107	H	1.041176	-0.549612	-0.727295
H108	H	1.541176	-0.049612	-0.227295
O109	O	0.872049	-0.512604	-0.678192
O110	O	1.372049	-0.012604	-0.178192
H111	H	0.926264	-0.549759	-0.727141
H112	H	1.426264	-0.049759	-0.227141
H113	H	1.098869	-0.304686	-0.403914
H114	H	1.598869	0.195314	0.096086
