data_functionalizedCrystal
_audit_creation_method	'MofGen! by Chris Wilmer'
_symmetry_space_group_name_H-M	'P1'
_symmetry_Int_Tables_number	1
_symmetry_cell_setting	triclinic
loop_
_symmetry_equiv_pos_as_xyz
  x,y,z
_cell_length_a	20.919287
_cell_length_b	20.875641
_cell_length_c	20.875641
_cell_angle_alpha	60.089808
_cell_angle_beta	86.850091
_cell_angle_gamma	60.562186
loop_
_atom_site_label
_atom_site_type_symbol
_atom_site_fract_x
_atom_site_fract_y
_atom_site_fract_z
Zr1	Zr	0.647226	0.691825	-0.140167
O2	O	0.553235	0.818432	-0.238436
O3	O	0.672523	0.560471	-0.106580
O4	O	0.681968	0.684458	-0.240554
O5	O	0.540339	0.701912	-0.002720
O6	O	0.787515	0.684047	-0.246164
O7	O	0.543790	0.694445	-0.104462
O8	O	0.770619	0.462258	-0.006509
O9	O	0.557235	0.923701	-0.242375
O10	O	0.766329	0.615951	-0.100625
O11	O	0.684985	0.621830	-0.020510
O12	O	0.696106	0.767808	-0.178247
O13	O	0.614762	0.773687	-0.098131
Zr14	Zr	0.810059	0.703078	0.013154
Zr15	Zr	0.815562	0.691169	-0.149114
Zr16	Zr	0.641723	0.703734	0.022100
Zr17	Zr	0.653606	0.859718	-0.146449
Zr18	Zr	0.803679	0.535185	0.019436
O19	O	0.784762	0.834432	-0.020433
O20	O	0.792587	0.817499	-0.251157
O21	O	0.545411	0.835364	-0.007713
O22	O	0.904050	0.576472	0.111423
O23	O	0.911875	0.559539	-0.119301
O24	O	0.664698	0.577404	0.124143
O25	O	0.916946	0.692991	-0.124294
O26	O	0.775317	0.710445	0.113541
O27	O	0.669770	0.710857	0.119150
O28	O	0.913496	0.700458	-0.022551
O29	O	0.691040	0.923180	-0.249486
O30	O	0.766245	0.471723	0.122473
O31	O	0.900050	0.471202	0.115361
O32	O	0.904424	0.461736	-0.013620
O33	O	0.552861	0.933167	-0.113394
O34	O	0.686666	0.932646	-0.120505
O35	O	0.761179	0.627095	0.051233
O36	O	0.842523	0.621216	-0.028882
O37	O	0.772300	0.773073	-0.106504
O38	O	0.690956	0.778953	-0.026388
C39	C	0.720662	0.487443	-0.055649
C40	C	0.717953	0.416168	-0.052983
C41	C	0.518080	0.698272	-0.052316
C42	C	0.446617	0.698551	-0.048519
C43	C	0.759139	0.379614	-0.093549
C44	C	0.756596	0.312640	-0.091036
C45	C	0.712862	0.282225	-0.047961
C46	C	0.671675	0.318782	-0.007389
C47	C	0.674223	0.385751	-0.009898
C48	C	0.700692	0.082261	-0.035968
C49	C	0.698146	0.015289	-0.033464
C50	C	0.783068	0.009150	-0.117110
C51	C	0.785609	0.076124	-0.119619
C52	C	0.744425	0.112673	-0.079045
N53	N	0.710259	0.213768	-0.045393
N54	N	0.747032	0.181124	-0.081609
C55	C	0.414944	0.694570	-0.102787
C56	C	0.347799	0.694828	-0.099214
C57	C	0.312325	0.699071	-0.041377
C58	C	0.344004	0.703049	0.012897
C59	C	0.411151	0.702786	0.009327
C60	C	0.109493	0.700067	-0.027791
C61	C	0.042341	0.700333	-0.024227
C62	C	0.046141	0.692110	-0.136338
C63	C	0.113287	0.691852	-0.139905
C64	C	0.144962	0.695825	-0.085629
C65	C	0.243691	0.699337	-0.037725
C66	C	0.213598	0.695553	-0.089278
C67	C	0.939205	0.696631	-0.074697
C68	C	1.010668	0.696353	-0.078495
C69	C	0.735526	0.682556	-0.266479
C70	C	0.737862	0.677500	-0.335366
C71	C	0.736623	0.907460	-0.071364
C72	C	0.739332	0.978735	-0.074031
C73	C	0.702305	0.754391	-0.408247
C74	C	0.704510	0.749635	-0.472971
C75	C	0.742267	0.667988	-0.464812
C76	C	0.777829	0.591092	-0.391924
C77	C	0.775628	0.595848	-0.327201
C78	C	0.752784	0.645263	-0.654037
C79	C	0.754980	0.640513	-0.718767
C80	C	0.681662	0.799057	-0.799810
C81	C	0.679461	0.803806	-0.735082
C82	C	0.715026	0.726910	-0.662200
N83	N	0.744520	0.663125	-0.530970
N84	N	0.712777	0.731773	-0.596044
C85	C	0.721759	0.712348	0.139465
C86	C	0.719423	0.717403	0.208352
C87	C	0.931224	0.486623	-0.066840
C88	C	0.999979	0.415070	-0.067971
C89	C	0.713779	0.502339	0.147323
C90	C	0.708734	0.436120	0.218876
C91	C	0.924341	0.501519	0.136132
C92	C	0.990760	0.435021	0.203888
C93	C	0.532944	0.893384	-0.263146
C94	C	0.466526	0.959882	-0.330901
C95	C	0.526061	0.908280	-0.060174
C96	C	0.457306	0.979834	-0.059043
C97	C	0.743506	0.892564	-0.274336
C98	C	0.748551	0.958783	-0.345890
C99	C	0.992494	0.378718	-0.105958
C100	C	1.057091	0.311495	-0.107036
C101	C	1.129171	0.280619	-0.070122
C102	C	1.136654	0.316977	-0.032134
C103	C	1.072058	0.384204	-0.031061
C104	C	0.746137	0.407772	0.289934
C105	C	0.741394	0.345562	0.357173
C106	C	0.699253	0.311696	0.353351
C107	C	0.661845	0.340050	0.282285
C108	C	0.666584	0.402264	0.215048
C109	C	1.064418	0.400724	0.193887
C110	C	1.126832	0.338251	0.257543
C111	C	1.115586	0.310072	0.331201
C112	C	1.041920	0.344376	0.341201
C113	C	0.979508	0.406852	0.277544
C114	C	0.392868	0.994187	-0.320901
C115	C	0.330454	1.056681	-0.384558
C116	C	0.341700	1.084864	-0.458216
C117	C	0.415366	1.050556	-0.468215
C118	C	0.477778	0.988068	-0.404558
C119	C	0.464791	1.016191	-0.021062
C120	C	0.400196	1.083432	-0.020003
C121	C	0.328116	1.114310	-0.056919
C122	C	0.320633	1.077949	-0.094904
C123	C	0.385228	1.010714	-0.095968
C124	C	0.790699	0.992629	-0.342043
C125	C	0.795454	1.054841	-0.409270
C126	C	0.758056	1.083210	-0.480342
C127	C	0.715906	1.049357	-0.484186
C128	C	0.711156	0.987142	-0.416961
H129	H	0.794749	0.404377	-0.128630
H130	H	0.676831	0.959592	-0.420103
O131	O	0.626254	0.432752	0.138437
H132	H	0.584644	0.504496	0.106646
O133	O	0.408274	1.122633	0.020979
H134	H	0.469248	1.089849	0.046483
H135	H	0.290874	1.135745	-0.510042
O136	O	0.818565	0.503025	-0.383117
H137	H	0.792252	0.466087	-0.348945
H138	H	1.032774	0.321423	0.401181
O139	O	1.076557	0.431121	0.114445
H140	H	1.138267	0.396779	0.118197
O141	O	0.791589	0.444296	0.294066
H142	H	0.816789	0.414131	0.354779
O143	O	0.840918	1.091343	-0.405109
H144	H	0.803158	1.163357	-0.433266
H145	H	1.186809	0.310327	0.249388
H146	H	0.761929	1.133870	-0.535075
O147	O	1.049009	0.272288	-0.148011
H148	H	1.073477	0.201235	-0.106761
O149	O	0.675561	1.079967	-0.560844
H150	H	0.685941	1.128924	-0.606938
O151	O	0.377151	0.971493	-0.136926
H152	H	0.316175	1.004259	-0.162408
H153	H	0.636070	0.294009	0.027688
O154	O	1.214398	0.283665	0.007688
H155	H	1.258051	0.230804	0.000563
H156	H	0.214802	0.702795	0.009366
O157	O	0.694151	0.244591	0.425877
H158	H	0.658560	0.225803	0.411288
O159	O	0.832777	0.108932	-0.166082
H160	H	0.860992	0.072259	-0.193866
H161	H	0.785726	0.574022	-0.712115
O162	O	0.801009	0.273220	-0.134799
H163	H	0.831837	0.305631	-0.165184
H164	H	0.816600	-0.020614	-0.150144
H165	H	0.933810	0.403855	-0.136028
H166	H	1.181762	0.225878	-0.071001
O167	O	0.900060	0.443824	0.288336
H168	H	0.902733	0.413717	0.350250
H169	H	0.627533	0.312468	0.279185
O170	O	0.650985	-0.017531	0.013009
H171	H	0.622783	0.019125	0.040810
H172	H	0.667160	0.112008	-0.002927
H173	H	0.424514	1.073510	-0.528195
H174	H	0.640683	0.415515	0.023133
H175	H	0.436939	0.706025	0.053519
O176	O	0.453206	0.689992	-0.165169
H177	H	0.419902	0.687259	-0.202299
H178	H	1.166413	0.259199	0.383027
O179	O	1.080141	0.423393	0.009927
H180	H	1.023119	0.475331	0.004476
O181	O	0.251009	1.093660	-0.373754
H182	H	0.222187	1.165635	-0.402356
O183	O	0.313630	0.690547	-0.157752
H184	H	0.349571	0.687566	-0.198577
H185	H	0.652708	0.861662	-0.859156
O186	O	0.151548	0.687276	-0.202288
H187	H	0.118245	0.684546	-0.239423
H188	H	0.383696	0.971244	-0.260930
O189	O	0.781757	0.314971	0.433816
H190	H	0.811870	0.348960	0.425171
H191	H	0.523476	0.991057	0.009005
O192	O	0.011979	0.687825	-0.194877
H193	H	-0.040670	0.688718	-0.182680
H194	H	0.821154	0.969541	-0.284179
H195	H	0.675557	0.812248	-0.532312
H196	H	0.013460	0.703790	0.022874
H197	H	0.275525	1.169058	-0.056047
O198	O	0.143655	0.704350	0.030747
H199	H	0.107702	0.707352	0.071560
O200	O	0.791131	0.562329	-0.575433
H201	H	0.817746	0.504759	-0.580636
H202	H	0.315120	0.706499	0.059993
O203	O	0.251852	0.690987	-0.151664
H204	H	0.309946	0.631405	-0.125680
O205	O	0.557230	0.951057	-0.415334
H206	H	0.563962	0.918213	-0.445983
O207	O	0.661580	0.842454	-0.417047
H208	H	0.637232	0.895121	-0.478602
H209	H	0.648717	0.870292	-0.741734
H210	H	0.261937	1.103100	-0.124961
O211	O	0.813973	0.512917	-0.248589
H212	H	0.840592	0.455343	-0.253787
