data_functionalizedCrystal
_audit_creation_method	'MofGen! by Chris Wilmer'
_symmetry_space_group_name_H-M	'P1'
_symmetry_Int_Tables_number	1
_symmetry_cell_setting	triclinic
loop_
_symmetry_equiv_pos_as_xyz
  x,y,z
_cell_length_a	10.489741
_cell_length_b	17.699083
_cell_length_c	9.565339
_cell_angle_alpha	89.998823
_cell_angle_beta	90.007516
_cell_angle_gamma	96.088906
loop_
_atom_site_label
_atom_site_type_symbol
_atom_site_fract_x
_atom_site_fract_y
_atom_site_fract_z
O1	O	0.161298	-1.005134	0.116063
O2	O	0.182283	-0.784892	0.116109
O3	O	-0.013901	-0.900025	0.116077
O4	O	0.357481	-0.890002	0.116095
O5	O	-0.013917	-0.900009	-0.116444
O6	O	0.182266	-0.784877	-0.116411
O7	O	0.161281	-1.005118	-0.116457
Zn8	Zn	0.171771	-0.894995	-0.153352
Zn9	Zn	0.171793	-0.895015	0.153003
O10	O	0.357465	-0.889986	-0.116425
C11	C	0.181523	-0.756683	-0.000146
C12	C	0.179267	-0.672650	-0.000128
C13	C	-0.061427	-0.899260	-0.000183
C14	C	-0.203014	-0.896995	-0.000180
N15	N	0.171756	-0.894987	-0.362431
C16	C	-0.269793	-0.823740	-0.000154
C17	C	-0.362566	-0.858337	-0.114806
C18	C	-0.362525	-0.858370	0.114441
C19	C	-0.293923	-0.931623	-0.114926
C20	C	-0.293872	-0.931645	0.114424
C21	C	-0.386619	-0.966296	-0.000256
C22	C	0.404991	-0.890751	-0.000163
C23	C	0.546578	-0.893016	-0.000157
C24	C	0.162042	-1.033328	-0.000200
C25	C	0.164297	-1.117361	-0.000208
C26	C	0.294422	-0.624782	-0.000123
C27	C	0.292295	-0.545825	-0.000141
C28	C	0.175011	-0.514737	-0.000155
C29	C	0.059847	-0.562611	-0.000164
C30	C	0.061975	-0.641567	-0.000156
C31	C	0.051260	-0.244192	-0.000199
C32	C	0.049140	-0.165230	-0.000203
C33	C	0.281580	-0.148450	-0.000184
C34	C	0.283709	-0.227406	-0.000176
C35	C	0.168545	-0.275273	-0.000193
C36	C	0.170853	-0.360887	-0.000176
C37	C	0.172702	-0.429124	-0.000162
N38	N	0.171798	-0.895030	0.362083
C39	C	0.081209	-0.948361	0.546407
C40	C	0.056446	-0.879897	0.453158
C41	C	0.196505	-0.963488	0.453263
C42	C	0.146935	-0.826488	0.546371
C43	C	0.287045	-0.910123	0.546485
C44	C	0.262331	-0.841610	0.453277
H45	H	-0.219023	-0.763510	-0.000257
H46	H	0.004567	-0.993427	0.587299
F47	F	-0.254035	-0.972134	0.241108
H48	H	-0.392906	-0.827371	0.211379
H49	H	-0.393009	-0.827335	-0.211723
F50	F	-0.064976	-0.529523	-0.000188
F51	F	0.223842	-1.039182	0.399795
H52	H	0.375352	-0.109467	-0.000178
H53	H	-0.263673	-0.962585	-0.211964
F54	F	-0.070966	-0.863175	0.399587
H55	H	0.389929	-0.650088	-0.000111
F56	F	-0.071308	-0.295125	-0.000217
H57	H	-0.031796	-0.680540	-0.000160
F58	F	0.362449	-0.782575	0.400164
F59	F	0.119449	-0.750774	0.599601
H60	H	0.386067	-0.506854	-0.000135
F61	F	0.408538	-0.260487	-0.000153
F62	F	0.414416	-0.926869	0.600112
H63	H	-0.437163	-1.026580	-0.000332
F64	F	-0.075695	-0.132146	-0.000218
