data_functionalizedCrystal
_audit_creation_method	'MofGen! by Chris Wilmer'
_symmetry_space_group_name_H-M	'P1'
_symmetry_Int_Tables_number	1
_symmetry_cell_setting	triclinic
loop_
_symmetry_equiv_pos_as_xyz
  x,y,z
_cell_length_a	27.440280
_cell_length_b	27.440280
_cell_length_c	27.440280
_cell_angle_alpha	59.998992
_cell_angle_beta	90.008003
_cell_angle_gamma	59.999099
loop_
_atom_site_label
_atom_site_type_symbol
_atom_site_fract_x
_atom_site_fract_y
_atom_site_fract_z
Zr1	Zr	0.469480	0.533417	-0.063976
O2	O	0.391656	0.635096	-0.141812
O3	O	0.493340	0.431739	-0.040104
O4	O	0.493335	0.533405	-0.141783
O5	O	0.391663	0.533439	0.040061
O6	O	0.573538	0.533396	-0.141773
O7	O	0.391662	0.533429	-0.040133
O8	O	0.573547	0.351533	0.040112
O9	O	0.391653	0.715302	-0.141825
O10	O	0.563367	0.473554	-0.029929
O11	O	0.503514	0.473568	0.029911
O12	O	0.503508	0.593267	-0.089803
O13	O	0.443654	0.593281	-0.029963
Zr14	Zr	0.597396	0.533417	0.063939
Zr15	Zr	0.597395	0.533402	-0.063960
Zr16	Zr	0.469482	0.533432	0.063923
Zr17	Zr	0.469476	0.661337	-0.063996
Zr18	Zr	0.597401	0.405498	0.063960
O19	O	0.573537	0.635096	0.040067
O20	O	0.573534	0.635075	-0.141789
O21	O	0.391659	0.635118	0.040044
O22	O	0.675220	0.431739	0.141775
O23	O	0.675218	0.431717	-0.040081
O24	O	0.493343	0.431760	0.141752
O25	O	0.675214	0.533396	-0.040097
O26	O	0.573542	0.533429	0.141746
O27	O	0.493339	0.533439	0.141736
O28	O	0.675215	0.533405	0.040096
O29	O	0.493328	0.715290	-0.141812
O30	O	0.573549	0.351545	0.141775
O31	O	0.675223	0.351533	0.141788
O32	O	0.675222	0.351521	0.040125
O33	O	0.391655	0.715314	-0.040162
O34	O	0.493330	0.715302	-0.040149
O35	O	0.563369	0.473568	0.089766
O36	O	0.623223	0.473554	0.029926
O37	O	0.563363	0.593267	-0.029948
O38	O	0.503509	0.593281	0.029892
C39	C	0.533444	0.373410	0.000007
C40	C	0.533446	0.319105	0.000016
C41	C	0.373437	0.533436	-0.000038
C42	C	0.319134	0.533443	-0.000045
C43	C	0.489251	0.026606	-0.044227
C44	C	0.489250	-0.024411	-0.044234
O45	O	0.451684	-0.013218	-0.081831
N46	N	0.533436	-0.094115	-0.000042
C47	C	0.577629	-0.112802	0.044156
O48	O	0.615213	-0.176775	0.081743
C49	C	0.577631	-0.061785	0.044159
C50	C	0.533439	0.007919	-0.000032
C51	C	0.445062	0.096307	-0.088415
C52	C	0.445062	0.147321	-0.088408
C53	C	0.489251	0.128633	-0.044213
C54	C	0.533439	0.058932	-0.000025
C55	C	0.621826	-0.080473	0.088353
C56	C	0.621825	-0.029449	0.088353
C57	C	0.577632	0.040255	0.044161
C58	C	0.577627	0.091258	0.044177
N59	N	0.533441	0.160962	-0.000015
C60	C	0.489253	0.179650	-0.044210
C61	C	0.577621	-0.219937	0.044145
C62	C	0.577617	-0.270953	0.044145
C63	C	0.489239	-0.182558	-0.044245
C64	C	0.489241	-0.131542	-0.044242
C65	C	0.533435	-0.150233	-0.000047
C66	C	0.489256	0.286778	-0.044192
C67	C	0.489258	0.337792	-0.044179
C68	C	0.577638	0.249393	0.044209
C69	C	0.577634	0.198383	0.044199
C70	C	0.533440	0.217081	-0.000007
O71	O	0.615176	0.080117	0.081754
O72	O	0.451680	0.243623	-0.081796
C73	C	0.013683	0.470917	0.031252
C74	C	-0.037336	0.470913	0.031257
O75	O	-0.037150	0.417768	0.057855
N76	N	-0.094099	0.533402	0.000003
C77	C	-0.099842	0.595898	-0.031254
O78	O	-0.152808	0.649049	-0.057837
C79	C	-0.048824	0.595901	-0.031255
C80	C	0.007938	0.533408	-0.000004
C81	C	0.070443	0.408429	0.062501
C82	C	0.121457	0.408433	0.062495
C83	C	0.115712	0.470925	0.031239
C84	C	0.058953	0.533412	-0.000010
C85	C	-0.054569	0.658397	-0.062508
C86	C	-0.003545	0.658395	-0.062506
C87	C	0.053217	0.595902	-0.031255
C88	C	0.104222	0.595908	-0.031272
N89	N	0.160985	0.533420	-0.000018
C90	C	0.166730	0.470928	0.031238
C91	C	-0.206981	0.595887	-0.031248
C92	C	-0.257998	0.595884	-0.031250
C93	C	-0.195488	0.470899	0.031262
C94	C	-0.144470	0.470902	0.031260
C95	C	-0.150218	0.533398	0.000007
C96	C	0.273863	0.470941	0.031222
C97	C	0.324879	0.470951	0.031210
C98	C	0.262365	0.595936	-0.031299
C99	C	0.211352	0.595927	-0.031290
C100	C	0.217105	0.533424	-0.000026
O101	O	0.104083	0.649026	-0.057855
O102	O	0.219698	0.417786	0.057823
C103	C	0.693440	0.533399	0.000002
C104	C	0.747742	0.533392	0.000009
C105	C	0.533436	0.533399	-0.160001
C106	C	0.533435	0.533392	-0.214297
C107	C	0.533432	0.693425	-0.000044
C108	C	0.533430	0.747730	-0.000053
C109	C	0.502197	0.595918	-0.582285
C110	C	0.502199	0.595922	-0.633307
O111	O	0.475644	0.649067	-0.686275
N112	N	0.533444	0.533433	-0.627571
C113	C	0.564695	0.470937	-0.570808
O114	O	0.591272	0.417786	-0.570614
C115	C	0.564696	0.470934	-0.519787
C116	C	0.533444	0.533426	-0.525528
C117	C	0.470949	0.658406	-0.588023
C118	C	0.470946	0.658402	-0.537005
C119	C	0.502192	0.595910	-0.480247
C120	C	0.533441	0.533422	-0.474509
C121	C	0.595949	0.408438	-0.463025
C122	C	0.595949	0.408440	-0.412003
C123	C	0.564696	0.470933	-0.417744
C124	C	0.564685	0.470927	-0.366733
N125	N	0.533440	0.533415	-0.372469
C126	C	0.502194	0.595907	-0.429226
C127	C	0.564690	0.470948	-0.677958
C128	C	0.564686	0.470950	-0.728977
C129	C	0.502191	0.595936	-0.791474
C130	C	0.502192	0.595933	-0.740453
C131	C	0.533445	0.533437	-0.683694
C132	C	0.502191	0.595894	-0.322081
C133	C	0.502189	0.595884	-0.271055
C134	C	0.564686	0.470899	-0.208563
C135	C	0.564685	0.470908	-0.259585
C136	C	0.533436	0.533411	-0.316345
O137	O	0.591229	0.417809	-0.313746
O138	O	0.475628	0.649049	-0.429410
C139	C	0.533441	0.533436	0.159964
C140	C	0.533441	0.533443	0.214261
C141	C	0.693446	0.373391	0.000027
C142	C	0.747751	0.319080	0.000043
C143	C	0.533447	0.373429	0.159990
C144	C	0.533450	0.319130	0.214295
C145	C	0.693448	0.373410	0.160010
C146	C	0.747754	0.319105	0.214322
C147	C	0.373429	0.693425	-0.160046
C148	C	0.319123	0.747730	-0.214358
C149	C	0.373431	0.693444	-0.000064
C150	C	0.319126	0.747755	-0.000079
C151	C	0.533430	0.693406	-0.160026
C152	C	0.533427	0.747705	-0.214332
C153	C	0.742009	0.293574	-0.031199
C154	C	0.793029	0.242550	-0.031196
C155	C	0.849791	0.217028	0.000052
C156	C	0.855531	0.242539	0.031294
C157	C	0.804511	0.293566	0.031288
C158	C	0.564695	0.293631	0.271046
C159	C	0.564695	0.242618	0.322077
C160	C	0.533453	0.217103	0.316354
C161	C	0.502204	0.242607	0.259597
C162	C	0.502201	0.293622	0.208568
C163	C	0.804504	0.293595	0.208591
C164	C	0.855535	0.242577	0.259618
C165	C	0.849814	0.217066	0.316375
C166	C	0.793057	0.242580	0.322104
C167	C	0.742028	0.293601	0.271078
C168	C	0.262372	0.773246	-0.208628
C169	C	0.211341	0.824280	-0.259655
C170	C	0.217063	0.849794	-0.316412
C171	C	0.273819	0.824276	-0.322141
C172	C	0.324849	0.773246	-0.271115
C173	C	0.324868	0.773266	0.031157
C174	C	0.273847	0.824304	0.031140
C175	C	0.217086	0.849828	-0.000110
C176	C	0.211346	0.824315	-0.031350
C177	C	0.262365	0.773281	-0.031336
C178	C	0.564675	0.773204	-0.208590
C179	C	0.564684	0.824217	-0.259611
C180	C	0.533441	0.849733	-0.316372
C181	C	0.502193	0.824228	-0.322112
C182	C	0.502188	0.773213	-0.271092
H183	H	0.453268	0.394550	-0.080164
H184	H	0.278533	0.845068	0.056582
H185	H	0.809174	0.314359	0.162382
H186	H	0.476748	0.646820	-0.837696
H187	H	0.371081	0.752488	0.056608
C188	C	0.599159	0.402162	-0.146122
N189	N	0.625166	0.350388	-0.099090
C190	C	0.533452	0.905852	-0.372490
N191	N	0.533461	0.948123	-0.414757
C192	C	0.599080	0.214567	0.384504
N193	N	0.624980	0.193438	0.431523
H194	H	0.165133	0.646813	-0.056745
C195	C	0.917975	0.214452	0.065670
N196	N	0.965009	0.193292	0.091566
C197	C	0.467834	0.321658	0.146142
N198	N	0.441948	0.342771	0.099124
C199	C	0.160968	0.905964	-0.000115
N200	N	0.118702	0.948243	-0.000116
H201	H	0.613613	0.141625	0.080188
H202	H	0.809195	0.314325	0.056732
C203	C	0.599062	0.321692	0.277355
N204	N	0.624945	0.342828	0.282112
H205	H	0.278471	0.845056	-0.368358
C206	C	0.786701	0.214492	-0.065561
N207	N	0.781933	0.193359	-0.091443
H208	H	0.453253	-0.074788	-0.080223
C209	C	0.533470	0.160978	0.372494
N210	N	0.533487	0.118702	0.414781
H211	H	0.476768	0.221825	0.254947
H212	H	0.891371	0.175521	0.357919
C213	C	0.917962	0.214514	0.253303
N214	N	0.964981	0.193377	0.248544
H215	H	0.371057	0.752472	-0.275787
H216	H	0.613609	-0.235166	0.080139
H217	H	0.788408	0.221801	0.368322
H218	H	0.165124	0.845104	-0.056793
C219	C	0.256064	0.745194	-0.146200
N220	N	0.251308	0.724073	-0.099181
C221	C	0.148915	0.852339	-0.253340
N222	N	0.101896	0.873472	-0.248581
C223	C	0.160922	0.905923	-0.372537
N224	N	0.118635	0.948196	-0.414809
H225	H	0.371098	0.420060	0.056661
H226	H	0.257697	0.646815	-0.056748
C227	C	0.599051	0.745143	-0.146157
N228	N	0.624948	0.724007	-0.099134
C229	C	-0.213313	0.664642	-0.065642
N230	N	-0.218085	0.716428	-0.091548
C231	C	0.467853	0.852279	-0.384556
N232	N	0.441995	0.873401	-0.431590
C233	C	0.467801	0.745179	-0.277418
N234	N	0.441898	0.724067	-0.282187
C235	C	0.599058	0.852266	-0.253283
N236	N	0.624948	0.873391	-0.248516
H237	H	0.167672	0.357545	0.087940
H238	H	0.453270	0.302012	-0.080189
C239	C	-0.116999	0.727145	-0.096886
N240	N	-0.164023	0.778931	-0.122780
H241	H	0.409081	0.204074	-0.124398
C242	C	-0.189177	0.402156	0.065649
N243	N	-0.184427	0.350383	0.091549
C244	C	0.396442	0.116879	-0.137032
N245	N	0.359813	0.132381	-0.173649
H246	H	0.695820	0.314364	0.275752
H247	H	0.453260	-0.167350	-0.080234
H248	H	0.613597	-0.327707	0.080135
H249	H	0.445500	0.709290	-0.541687
C250	C	0.280200	0.402185	0.065609
N251	N	0.284974	0.350398	0.091506
H252	H	0.590126	0.420063	-0.724296
H253	H	0.657813	-0.137222	0.124338
H254	H	0.657814	-0.044676	0.124342
H255	H	0.613614	0.234188	0.080193
H256	H	-0.098255	0.420015	0.056713
C257	C	0.076776	0.339677	0.096881
N258	N	0.081551	0.287888	0.122773
C259	C	-0.009874	0.727147	-0.096892
N260	N	-0.014643	0.778931	-0.122792
H261	H	0.476737	0.646775	-0.275736
C262	C	0.467809	0.664650	-0.384511
N263	N	0.441908	0.716437	-0.431534
C264	C	0.436559	0.727158	-0.650454
N265	N	0.410646	0.778946	-0.697476
C266	C	0.467818	0.664679	-0.746774
N267	N	0.441928	0.716461	-0.751540
H268	H	-0.304213	0.646772	-0.056706
C269	C	0.599064	0.402193	-0.615523
N270	N	0.624954	0.350407	-0.568500
H271	H	0.257682	0.752512	-0.056771
H272	H	0.621399	0.357550	-0.458339
H273	H	0.891330	0.175478	0.000053
C274	C	0.630328	0.339688	-0.349569
N275	N	0.656220	0.287903	-0.302544
C276	C	0.599062	0.402164	-0.253269
N277	N	0.624962	0.350384	-0.248508
H278	H	0.695795	0.314354	-0.056652
