data_functionalizedCrystal
_audit_creation_method	'MofGen! by Chris Wilmer'
_symmetry_space_group_name_H-M	'P1'
_symmetry_Int_Tables_number	1
_symmetry_cell_setting	triclinic
loop_
_symmetry_equiv_pos_as_xyz
  x,y,z
_cell_length_a	14.908520
_cell_length_b	12.759401
_cell_length_c	12.759393
_cell_angle_alpha	90.019465
_cell_angle_beta	93.262420
_cell_angle_gamma	86.681195
loop_
_atom_site_label
_atom_site_type_symbol
_atom_site_fract_x
_atom_site_fract_y
_atom_site_fract_z
Zn1	Zn	-0.359146	-1.582064	-0.618114
Zn2	Zn	0.140854	-1.082064	-0.118114
Zn3	Zn	-0.510032	-1.571795	-0.452560
Zn4	Zn	-0.010032	-1.071795	0.047440
Zn5	Zn	-0.359188	-1.406363	-0.442453
Zn6	Zn	0.140812	-0.906363	0.057547
Zn7	Zn	-0.509958	-1.396196	-0.628194
Zn8	Zn	-0.009958	-0.896196	-0.128194
O9	O	-0.434581	-1.489104	-0.535330
O10	O	0.065419	-0.989104	-0.035330
O11	O	-0.379175	-1.727722	-0.596164
O12	O	0.120825	-1.227722	-0.096164
O13	O	-0.490071	-1.549807	-0.304202
O14	O	0.009929	-1.049807	0.195798
O15	O	-0.232939	-1.438223	-0.457306
O16	O	0.267061	-0.938223	0.042694
O17	O	-0.490030	-1.720177	-0.474533
O18	O	0.009970	-1.220177	0.025467
O19	O	-0.232908	-1.567309	-0.586363
O20	O	0.267092	-1.067309	-0.086363
O21	O	-0.379247	-1.428265	-0.296776
O22	O	0.120753	-0.928265	0.203224
O23	O	-0.379175	-1.257994	-0.467080
O24	O	0.120825	-0.757994	0.032920
O25	O	-0.489903	-1.420895	-0.773874
O26	O	0.010097	-0.920895	-0.273874
O27	O	-0.489944	-1.250525	-0.603543
O28	O	0.010056	-0.750525	-0.103543
O29	O	-0.379103	-1.557451	-0.766469
O30	O	0.120897	-1.057451	-0.266469
O31	O	-0.636266	-1.539949	-0.484307
O32	O	-0.136266	-1.039949	0.015693
O33	O	-0.636211	-1.410937	-0.613344
O34	O	-0.136211	-0.910937	-0.113344
C35	C	-0.434556	-1.216139	-0.535309
C36	C	0.065444	-0.716139	-0.035309
C37	C	-0.434568	-1.099361	-0.535327
C38	C	0.065432	-0.599361	-0.035327
C39	C	-0.376948	-1.048422	-0.598770
C40	C	0.123052	-0.548422	-0.098770
C41	C	-0.376953	-0.938697	-0.598776
C42	C	0.123047	-0.438697	-0.098776
C43	C	-0.492206	-0.930861	-0.471893
C44	C	0.007794	-0.430861	0.028107
C45	C	-0.492196	-1.040584	-0.471882
C46	C	0.007804	-0.540584	0.028118
C47	C	-0.668972	-1.473254	-0.551039
C48	C	-0.168972	-0.973254	-0.051039
C49	C	-0.769246	-1.466569	-0.557795
C50	C	-0.269246	-0.966569	-0.057795
C51	C	-0.957667	-1.588486	-0.436231
C52	C	-0.457667	-1.088486	0.063769
C53	C	-1.051883	-1.582209	-0.442575
C54	C	-0.551883	-1.082209	0.057425
C55	C	-1.051896	-1.447743	-0.576832
C56	C	-0.551896	-0.947743	-0.076832
C57	C	-0.957680	-1.454021	-0.570487
C58	C	-0.457680	-0.954021	-0.070487
C59	C	-0.910569	-1.524393	-0.500184
C60	C	-0.410569	-1.024393	-0.000184
C61	C	-0.816351	-1.530665	-0.493835
C62	C	-0.316351	-1.030665	0.006165
C63	C	-0.816365	-1.396205	-0.628096
C64	C	-0.316365	-0.896205	-0.128096
C65	C	-0.910581	-1.389928	-0.634440
C66	C	-0.410581	-0.889928	-0.134440
C67	C	-0.199274	-1.505045	-0.519583
C68	C	0.300726	-1.005045	-0.019583
C69	C	-0.099001	-1.511838	-0.512872
C70	C	0.400999	-1.011838	-0.012872
C71	C	-0.434490	-1.489184	-0.809357
C72	C	0.065510	-0.989184	-0.309357
C73	C	-0.434451	-1.489218	-0.926132
C74	C	0.065549	-0.989218	-0.426132
C75	C	-0.434598	-0.763137	-0.535347
C76	C	0.065402	-0.263137	-0.035347
C77	C	-0.434584	-0.879914	-0.535343
C78	C	0.065416	-0.379914	-0.035343
C79	C	-0.376734	-1.425956	-0.977126
C80	C	0.123266	-0.925956	-0.477126
C81	C	-0.376706	-1.425982	-1.086848
C82	C	0.123294	-0.925982	-0.586848
C83	C	-0.492115	-1.552542	-1.094573
C84	C	0.007885	-1.052542	-0.594573
C85	C	-0.492146	-1.552509	-0.984853
C86	C	0.007854	-1.052509	-0.484853
C87	C	-0.434607	-1.489090	-0.262364
C88	C	0.065393	-0.989090	0.237636
C89	C	-0.434392	-1.489277	-0.145574
C90	C	0.065608	-0.989277	0.354426
H91	H	-0.539126	-0.882992	-0.420239
H92	H	-0.039126	-0.382992	0.079761
O93	O	-0.554342	-1.620803	-1.157907
O94	O	-0.054342	-1.120803	-0.657907
H95	H	-0.538892	-1.704301	-1.135811
H96	H	-0.038892	-1.204301	-0.635811
H97	H	-0.777994	-1.587963	-0.436588
H98	H	-0.277994	-1.087963	0.063412
H99	H	-0.539118	-1.082060	-0.420214
H100	H	-0.039118	-0.582060	0.079786
O101	O	-0.906844	-1.664381	-0.360409
O102	O	-0.406844	-1.164381	0.139591
H103	H	-0.955424	-1.707899	-0.317006
H104	H	-0.455424	-1.207899	0.182994
O105	O	-0.314801	-0.883760	-0.667203
O106	O	0.185199	-0.383760	-0.167203
H107	H	-0.324479	-0.797588	-0.656545
H108	H	0.175521	-0.297588	-0.156545
O109	O	-0.961393	-1.314027	-0.710266
O110	O	-0.461393	-0.814027	-0.210266
H111	H	-0.943373	-1.232785	-0.690952
H112	H	-0.443373	-0.732785	-0.190952
H113	H	-0.330020	-1.096275	-0.650427
H114	H	0.169980	-0.596275	-0.150427
O115	O	-1.102686	-1.651330	-0.373593
O116	O	-0.602686	-1.151330	0.126407
H117	H	-1.054095	-1.701309	-0.323638
H118	H	-0.554095	-1.201309	0.176362
H119	H	-1.090270	-1.390456	-0.634076
H120	H	-0.590270	-0.890456	-0.134076
O121	O	-0.314449	-1.357758	-1.141853
O122	O	0.185551	-0.857758	-0.641853
H123	H	-0.274332	-1.313753	-1.082583
H124	H	0.225668	-0.813753	-0.582583
O125	O	-0.554401	-1.620755	-0.929853
O126	O	-0.054401	-1.120755	-0.429853
H127	H	-0.600316	-1.570607	-0.882938
H128	H	-0.100316	-1.070607	-0.382938
O129	O	-0.765569	-1.327072	-0.697085
O130	O	-0.265569	-0.827072	-0.197085
H131	H	-0.692140	-1.343261	-0.680869
H132	H	-0.192140	-0.843261	-0.180869
H133	H	-0.329755	-1.374420	-0.929318
H134	H	0.170245	-0.874420	-0.429318
