data_functionalizedCrystal
_audit_creation_method	'MofGen! by Chris Wilmer'
_symmetry_space_group_name_H-M	'P1'
_symmetry_Int_Tables_number	1
_symmetry_cell_setting	triclinic
loop_
_symmetry_equiv_pos_as_xyz
  x,y,z
_cell_length_a	16.625546
_cell_length_b	17.077404
_cell_length_c	17.077404
_cell_angle_alpha	89.992822
_cell_angle_beta	90.015228
_cell_angle_gamma	89.984053
loop_
_atom_site_label
_atom_site_type_symbol
_atom_site_fract_x
_atom_site_fract_y
_atom_site_fract_z
Zn1	Zn	-0.321261	-1.199950	0.443863
Zn2	Zn	0.178739	-0.699950	0.943863
Zn3	Zn	-0.456069	-1.199890	0.312593
Zn4	Zn	0.043931	-0.699890	0.812593
Zn5	Zn	-0.321238	-1.068714	0.312608
Zn6	Zn	0.178762	-0.568714	0.812608
Zn7	Zn	-0.456040	-1.068651	0.443813
Zn8	Zn	0.043960	-0.568651	0.943813
O9	O	-0.388652	-1.134301	0.378219
O10	O	0.111348	-0.634301	0.878219
O11	O	-0.339165	-1.309789	0.426465
O12	O	0.160835	-0.809789	0.926465
O13	O	-0.438185	-1.182490	0.202748
O14	O	0.061815	-0.682490	0.702748
O15	O	-0.208409	-1.086174	0.330046
O16	O	0.291591	-0.586174	0.830046
O17	O	-0.438208	-1.309745	0.330021
O18	O	0.061792	-0.809745	0.830021
O19	O	-0.208426	-1.182593	0.426479
O20	O	0.291574	-0.682593	0.926479
O21	O	-0.339126	-1.086115	0.202759
O22	O	0.160874	-0.586115	0.702759
O23	O	-0.339099	-0.958858	0.329998
O24	O	0.160901	-0.458858	0.829998
O25	O	-0.438159	-1.086067	0.553667
O26	O	0.061841	-0.586067	1.053667
O27	O	-0.438137	-0.958812	0.426394
O28	O	0.061863	-0.458812	0.926394
O29	O	-0.339138	-1.182532	0.553703
O30	O	0.160862	-0.682532	1.053703
O31	O	-0.568897	-1.182429	0.329973
O32	O	-0.068897	-0.682429	0.829973
O33	O	-0.568876	-1.086009	0.426380
O34	O	-0.068876	-0.586009	0.926380
C35	C	-0.388613	-0.930353	0.378193
C36	C	0.111387	-0.430353	0.878193
C37	C	-0.388615	-0.843103	0.378200
C38	C	0.111385	-0.343103	0.878200
C39	C	-0.440314	-0.467286	0.428343
C40	C	0.059686	0.032714	0.928343
C41	C	-0.440306	-0.549266	0.428333
C42	C	0.059694	-0.049266	0.928333
C43	C	-0.388655	-0.590255	0.378221
C44	C	0.111345	-0.090255	0.878221
C45	C	-0.337014	-0.549258	0.328111
C46	C	0.162986	-0.049258	0.828111
C47	C	-0.337026	-0.467279	0.328117
C48	C	0.162974	0.032721	0.828117
C49	C	-0.336990	-0.720128	0.328101
C50	C	0.163010	-0.220128	0.828101
C51	C	-0.336977	-0.802113	0.328095
C52	C	0.163023	-0.302113	0.828095
C53	C	-0.440270	-0.802115	0.428316
C54	C	0.059730	-0.302115	0.928316
C55	C	-0.440283	-0.720136	0.428323
C56	C	0.059717	-0.220136	0.928323
C57	C	-0.388640	-0.679146	0.378214
C58	C	0.111360	-0.179146	0.878214
C59	C	-0.598143	-1.134227	0.378187
C60	C	-0.098143	-0.634227	0.878187
C61	C	-0.687764	-1.134267	0.378199
C62	C	-0.187764	-0.634267	0.878199
C63	C	-1.015940	-1.134404	0.378281
C64	C	-0.515940	-0.634404	0.878281
C65	C	-0.924631	-1.134363	0.378260
C66	C	-0.424631	-0.634363	0.878260
C67	C	-0.851855	-1.134335	0.378239
C68	C	-0.351855	-0.634335	0.878239
C69	C	-0.760540	-1.134295	0.378219
C70	C	-0.260540	-0.634295	0.878219
C71	C	-0.178343	-1.134397	0.378270
C72	C	0.321657	-0.634397	0.878270
C73	C	-0.088722	-1.134438	0.378291
C74	C	0.411278	-0.634438	0.878291
C75	C	-0.388648	-1.134299	0.582964
C76	C	0.111352	-0.634299	1.082964
C77	C	-0.388646	-1.134299	0.670213
C78	C	0.111354	-0.634299	1.170213
C79	C	-0.388683	-0.339045	0.378242
C80	C	0.111317	0.160955	0.878242
C81	C	-0.388675	-0.426295	0.378238
C82	C	0.111325	0.073705	0.878238
C83	C	-0.440244	-1.184478	1.046025
C84	C	0.059756	-0.684478	1.546025
C85	C	-0.440243	-1.184474	0.964044
C86	C	0.059757	-0.684474	1.464044
C87	C	-0.388664	-1.134299	0.923062
C88	C	0.111336	-0.634299	1.423062
C89	C	-0.337089	-1.084119	0.964065
C90	C	0.162911	-0.584119	1.464065
C91	C	-0.337094	-1.084119	1.046044
C92	C	0.162906	-0.584119	1.546044
C93	C	-0.337079	-1.084123	0.793195
C94	C	0.162921	-0.584123	1.293195
C95	C	-0.337072	-1.084124	0.711211
C96	C	0.162928	-0.584124	1.211211
C97	C	-0.440228	-1.184478	0.711195
C98	C	0.059772	-0.684478	1.211195
C99	C	-0.440234	-1.184479	0.793174
C100	C	0.059766	-0.684479	1.293174
C101	C	-0.388657	-1.134299	0.834171
C102	C	0.111343	-0.634299	1.334171
C103	C	-0.388673	-1.134298	1.174272
C104	C	0.111327	-0.634298	1.674272
C105	C	-0.388670	-1.134303	1.087022
C106	C	0.111330	-0.634303	1.587022
H107	H	-0.294936	-0.686756	0.287298
H108	H	0.205064	-0.186756	0.787298
Cl109	Cl	-0.272232	-1.021043	0.659691
Cl110	Cl	0.227768	-0.521043	1.159691
Cl111	Cl	-0.505247	-0.415765	0.491348
Cl112	Cl	-0.005247	0.084235	0.991348
Cl113	Cl	-0.272252	-1.021043	1.097584
Cl114	Cl	0.227748	-0.521043	1.597584
Cl115	Cl	-0.272235	-1.021052	0.912545
Cl116	Cl	0.227765	-0.521052	1.412545
H117	H	-0.482358	-0.582637	0.469131
H118	H	0.017642	-0.082637	0.969131
Cl119	Cl	-0.505079	-1.247556	0.912508
Cl120	Cl	-0.005079	-0.747556	1.412508
Cl121	Cl	-0.505212	-0.668609	0.491326
Cl122	Cl	-0.005212	-0.168609	0.991326
H123	H	-0.294962	-0.582638	0.287305
H124	H	0.205038	-0.082638	0.787305
Cl125	Cl	-0.272226	-1.021051	0.844733
Cl126	Cl	0.227774	-0.521051	1.344733
H127	H	-0.294910	-0.835484	0.287297
H128	H	0.205090	-0.335484	0.787297
H129	H	-0.482317	-0.835494	0.469119
H130	H	0.017683	-0.335494	0.969119
H131	H	-0.294974	-0.433906	0.287319
H132	H	0.205026	0.066094	0.787319
Cl133	Cl	-0.505085	-1.247564	1.097537
Cl134	Cl	-0.005085	-0.747564	1.597537
Cl135	Cl	-0.505075	-1.247559	0.844693
Cl136	Cl	-0.005075	-0.747559	1.344693
H137	H	-0.482224	-1.225337	0.677811
H138	H	0.017776	-0.725337	1.177811
