data_functionalizedCrystal
_audit_creation_method	'MofGen! by Chris Wilmer'
_symmetry_space_group_name_H-M	'P1'
_symmetry_Int_Tables_number	1
_symmetry_cell_setting	triclinic
loop_
_symmetry_equiv_pos_as_xyz
  x,y,z
_cell_length_a	13.635800
_cell_length_b	23.752963
_cell_length_c	19.551833
_cell_angle_alpha	83.247516
_cell_angle_beta	101.663477
_cell_angle_gamma	79.933268
loop_
_atom_site_label
_atom_site_type_symbol
_atom_site_fract_x
_atom_site_fract_y
_atom_site_fract_z
V1	V	1.994707	-0.079763	0.218271
O2	O	1.997463	0.003216	0.213694
O3	O	1.962279	-0.157563	0.217184
O4	O	1.966155	-0.078807	0.313282
O5	O	1.993560	-0.076086	0.116931
V6	V	2.238151	-0.069806	0.206101
O7	O	2.121645	-0.101605	0.244968
O8	O	2.336311	-0.047964	0.179404
O9	O	2.158975	0.007994	0.207188
O10	O	2.294092	-0.152785	0.210678
O11	O	2.297995	-0.073483	0.307440
O12	O	2.155099	-0.070762	0.111090
V13	V	2.494707	-0.079763	0.218271
O14	O	2.497463	0.003216	0.213694
O15	O	2.462279	-0.157563	0.217184
O16	O	2.466155	-0.078807	0.313282
O17	O	2.493560	-0.076086	0.116931
V18	V	2.738151	-0.069806	0.206101
O19	O	2.621645	-0.101605	0.244968
O20	O	2.836311	-0.047964	0.179404
O21	O	2.658975	0.007994	0.207188
O22	O	2.794092	-0.152785	0.210678
O23	O	2.797995	-0.073483	0.307440
O24	O	2.655099	-0.070762	0.111090
C25	C	1.882918	-0.176521	0.213845
C26	C	1.897019	-0.240125	0.213590
C27	C	1.968304	-0.626186	0.147899
C28	C	1.981566	-0.685948	0.147650
O29	O	1.974649	-0.709760	0.093068
N30	N	2.004432	-0.724184	0.211557
C31	C	2.014047	-0.702656	0.275718
O32	O	2.034715	-0.740666	0.330053
C33	C	2.000793	-0.642895	0.275967
C34	C	1.977916	-0.604661	0.212056
C35	C	1.945430	-0.587953	0.083993
C36	C	1.932168	-0.528195	0.084243
C37	C	1.941780	-0.506670	0.148399
C38	C	1.964654	-0.544903	0.212306
C39	C	2.010415	-0.621368	0.340128
C40	C	1.997159	-0.561602	0.340372
C41	C	1.974283	-0.523368	0.276461
C42	C	1.961003	-0.463620	0.276712
N43	N	1.938137	-0.425384	0.212805
C44	C	1.928525	-0.446909	0.148649
C45	C	2.041882	-0.828157	0.275190
C46	C	2.055129	-0.887917	0.274941
C47	C	2.022649	-0.871205	0.146872
C48	C	2.009395	-0.811444	0.147122
C49	C	2.019016	-0.789921	0.211283
C50	C	1.900674	-0.321413	0.149178
C51	C	1.887408	-0.261650	0.149434
C52	C	1.919894	-0.278367	0.277502
C53	C	1.933154	-0.338125	0.277247
C54	C	1.923546	-0.359646	0.213079
O55	O	1.967909	-0.439767	0.331266
O56	O	1.907871	-0.408893	0.094323
C57	C	1.887862	-0.076059	0.336426
C58	C	1.905105	-0.075792	0.414101
C59	C	2.070006	0.026949	0.210524
C60	C	2.045524	0.090553	0.210785
C61	C	2.065063	-0.073512	0.087942
C62	C	2.037439	-0.073776	0.010267
C63	C	2.382918	-0.176521	0.213845
C64	C	2.397019	-0.240125	0.213590
C65	C	2.387862	-0.076059	0.336426
C66	C	2.405105	-0.075792	0.414101
C67	C	2.003789	-0.078538	0.454162
C68	C	2.019991	-0.078288	0.527145
C69	C	1.937507	-0.075302	0.560066
C70	C	1.838808	-0.072552	0.519995
C71	C	1.822607	-0.072797	0.447012
C72	C	1.902815	-0.106412	0.679539
C73	C	1.919020	-0.106171	0.752522
C74	C	1.987470	-0.074543	0.785169
C75	C	2.039732	-0.043165	0.744827
C76	C	2.023532	-0.043410	0.671845
C77	C	1.955063	-0.075035	0.639204
C78	C	2.103728	-0.077018	0.904368
C79	C	2.119926	-0.076763	0.977351
C80	C	1.938741	-0.071033	0.970200
C81	C	1.922545	-0.071281	0.897217
C82	C	2.005043	-0.074277	0.864306
C83	C	2.570006	0.026949	0.210524
C84	C	2.545524	0.090553	0.210785
C85	C	2.565063	-0.073512	0.087942
C86	C	2.537439	-0.073776	0.010267
C87	C	2.494233	-0.272922	0.216976
C88	C	2.507499	-0.332687	0.216747
C89	C	2.423549	-0.359653	0.213126
C90	C	2.326328	-0.326853	0.209742
C91	C	2.313064	-0.267090	0.209976
C92	C	2.503796	-0.078529	0.454154
C93	C	2.520010	-0.078271	0.527136
C94	C	2.437533	-0.075279	0.560064
C95	C	2.338833	-0.072540	0.520006
C96	C	2.322620	-0.072794	0.447024
C97	C	2.620804	0.123349	0.207400
C98	C	2.597809	0.183113	0.207633
C99	C	2.499537	0.210080	0.211255
C100	C	2.424251	0.177279	0.214638
C101	C	2.447244	0.117517	0.214400
C102	C	2.437686	-0.076761	-0.022644
C103	C	2.411714	-0.077002	-0.095628
C104	C	2.485498	-0.074263	-0.135700
C105	C	2.585259	-0.071276	-0.102785
C106	C	2.611228	-0.071031	-0.029803
H107	H	1.868776	-0.230522	0.097387
N108	N	2.664826	-0.068320	-0.146017
H109	H	2.674087	-0.103949	-0.169487
H110	H	2.731921	-0.066371	-0.114062
N111	N	2.007521	-0.538384	0.409573
H112	H	2.064343	-0.515944	0.414915
H113	H	2.023982	-0.571704	0.449978
H114	H	1.913548	-0.497069	0.032200
H115	H	2.344236	0.199245	0.217586
H116	H	2.562601	-0.250973	0.219920
H117	H	2.600383	-0.080504	0.559742
N118	N	2.079889	-0.009568	0.628332
H119	H	2.125712	0.010506	0.660082
H120	H	2.028863	0.020266	0.590984
H121	H	1.892848	-0.338927	0.096927
N122	N	1.935064	-0.611163	0.014790
H123	H	1.918563	-0.577866	-0.025649
H124	H	1.878250	-0.633606	0.009512
H125	H	1.951765	-0.369256	0.329288
H126	H	2.570966	-0.080966	0.427353
N127	N	2.455011	-0.075009	0.638781
H128	H	2.413779	-0.038171	0.647986
H129	H	2.530066	-0.077221	0.659113
H130	H	2.233899	-0.240391	0.207215
N131	N	2.366044	0.082146	0.218053
H132	H	2.300306	0.108302	0.220385
H133	H	2.389461	0.051549	0.261655
N134	N	2.718830	-0.067820	0.005683
H135	H	2.749655	-0.103244	0.042769
H136	H	2.717229	-0.031917	0.028795
N137	N	2.304115	-0.080231	-0.131112
H138	H	2.305654	-0.116112	-0.154267
H139	H	2.273336	-0.044783	-0.168165
N140	N	2.474754	0.274537	0.211524
H141	H	2.401077	0.286648	0.214335
H142	H	2.485691	0.295711	0.166660
N143	N	2.249881	-0.069314	0.555526
H144	H	2.275140	-0.069572	0.607837
H145	H	2.217064	-0.103763	0.548189
H146	H	2.029042	-0.652488	0.392172
H147	H	2.242254	-0.070567	0.414418
N148	N	2.726802	0.094271	0.203495
H149	H	2.770990	0.124123	0.201383
H150	H	2.722463	0.075279	0.159696
N151	N	2.679021	0.218481	0.203996
H152	H	2.744766	0.192325	0.201677
H153	H	2.690910	0.237725	0.247492
H154	H	2.377593	-0.078992	0.009974
H155	H	1.990767	-0.780318	0.095079
H156	H	2.464342	-0.074470	-0.195125
N157	N	2.126439	-0.081258	0.570366
H158	H	2.124181	-0.080650	0.621594
H159	H	2.153609	-0.046902	0.552207
H160	H	2.070967	-0.080975	0.427370
N161	N	2.012294	-0.894427	0.077673
H162	H	2.024170	-0.938087	0.087218
H163	H	2.064493	-0.882318	0.052141
N164	N	1.749835	-0.069344	0.555492
H165	H	1.697839	-0.032483	0.534264
H166	H	1.775149	-0.069634	0.607803
N167	N	2.079783	-0.929151	0.343873
H168	H	2.083856	-0.906441	0.384550
H169	H	2.147596	-0.956294	0.348946
N170	N	1.930247	-0.255145	0.346696
H171	H	1.918375	-0.211485	0.337151
H172	H	2.001260	-0.271219	0.376998
H173	H	2.049715	-0.810638	0.327441
N174	N	2.612343	-0.368071	0.220379
H175	H	2.660705	-0.364628	0.265489
H176	H	2.638488	-0.353255	0.178365
H177	H	2.170903	-0.079454	0.877569
N178	N	2.113569	-0.009053	0.780028
H179	H	2.115902	-0.013655	0.832383
H180	H	2.090167	0.033226	0.758688
H181	H	2.200287	-0.078996	1.009968
N182	N	1.716165	-0.069842	0.403801
H183	H	1.718420	-0.070453	0.352573
H184	H	1.669869	-0.032895	0.408026
N185	N	1.849752	-0.067817	1.005679
H186	H	1.842846	-0.031937	1.028834
H187	H	1.862051	-0.103267	1.042731
N188	N	1.816102	-0.068322	0.854009
H189	H	1.788885	-0.102678	0.872115
H190	H	1.818430	-0.068910	0.802790
H191	H	1.876470	-0.131724	0.785363
H192	H	2.434363	-0.408317	0.212936
N193	N	1.828982	-0.140527	0.644333
H194	H	1.852347	-0.182821	0.665616
H195	H	1.826675	-0.135874	0.591983
N196	N	2.235781	-0.355939	0.205818
H197	H	2.258944	-0.398774	0.206174
H198	H	2.182883	-0.338540	0.160775
