data_functionalizedCrystal
_audit_creation_method	'MofGen! by Chris Wilmer'
_symmetry_space_group_name_H-M	'P1'
_symmetry_Int_Tables_number	1
_symmetry_cell_setting	triclinic
loop_
_symmetry_equiv_pos_as_xyz
  x,y,z
_cell_length_a	16.992694
_cell_length_b	11.892095
_cell_length_c	16.992695
_cell_angle_alpha	94.154891
_cell_angle_beta	89.331777
_cell_angle_gamma	94.159293
loop_
_atom_site_label
_atom_site_type_symbol
_atom_site_fract_x
_atom_site_fract_y
_atom_site_fract_z
O1	O	1.055561	0.093862	-0.162207
O2	O	1.555561	0.593862	0.337793
O3	O	0.827163	0.093895	-0.160374
O4	O	1.327163	0.593895	0.339626
O5	O	0.940446	0.093870	-0.047091
O6	O	1.440446	0.593870	0.452909
O7	O	0.942278	0.093887	-0.275490
O8	O	1.442278	0.593887	0.224510
O9	O	0.931000	-0.094136	-0.056520
O10	O	1.431000	0.405864	0.443480
O11	O	0.817717	-0.094110	-0.169803
O12	O	1.317717	0.405890	0.330197
O13	O	1.046115	-0.094143	-0.171636
O14	O	1.546115	0.405857	0.328364
Zn15	Zn	0.930416	-0.123977	-0.172217
Zn16	Zn	1.430416	0.376023	0.327783
Zn17	Zn	0.942862	0.123729	-0.159793
Zn18	Zn	1.442862	0.623729	0.340207
O19	O	0.932832	-0.094118	-0.284920
O20	O	1.432832	0.405882	0.215080
C21	C	0.793080	-0.000103	-0.162733
C22	C	1.293080	0.499897	0.337267
C23	C	0.705596	-0.000091	-0.155703
C24	C	1.205596	0.499909	0.344297
N25	N	0.921928	-0.293029	-0.180696
N26	N	1.421928	0.206971	0.319304
C27	C	0.659605	-0.000086	-0.223521
C28	C	1.159605	0.499914	0.276479
C29	C	0.577404	-0.000102	-0.216913
C30	C	1.077404	0.499898	0.283087
C31	C	0.541195	-0.000115	-0.142486
C32	C	1.041195	0.499885	0.357514
C33	C	0.587191	-0.000123	-0.074663
C34	C	1.087191	0.499877	0.425337
C35	C	0.669391	-0.000115	-0.081272
C36	C	1.169391	0.499885	0.418728
C37	C	0.295879	-0.000147	-0.115093
C38	C	0.795879	0.499853	0.384907
C39	C	0.213673	-0.000152	-0.108489
C40	C	0.713673	0.499848	0.391511
C41	C	0.203891	-0.000134	-0.250739
C42	C	0.703891	0.499866	0.249261
C43	C	0.286093	-0.000119	-0.257341
C44	C	0.786093	0.499881	0.242659
C45	C	0.332082	-0.000133	-0.189519
C46	C	0.832082	0.499867	0.310481
N47	N	0.457172	-0.000128	-0.135729
N48	N	0.957172	0.499872	0.364271
N49	N	0.416103	-0.000128	-0.196277
N50	N	0.916103	0.499872	0.303723
C51	C	1.010419	-0.529697	-0.092262
C52	C	1.510419	-0.029697	0.407738
C53	C	1.004491	-0.648037	-0.098195
C54	C	1.504491	-0.148037	0.401805
C55	C	0.904143	-0.648053	-0.198490
C56	C	1.404143	-0.148053	0.301510
C57	C	0.910070	-0.529712	-0.192557
C58	C	1.410070	-0.029712	0.307443
C59	C	0.963210	-0.470538	-0.139442
C60	C	1.463210	0.029462	0.360558
C61	C	0.969141	-0.352195	-0.133514
C62	C	1.469141	0.147805	0.366486
C63	C	0.868789	-0.352213	-0.233805
C64	C	1.368789	0.147787	0.266195
C65	C	0.862862	-0.470554	-0.239738
C66	C	1.362862	0.029446	0.260262
C67	C	1.080198	-0.000142	-0.169277
C68	C	1.580198	0.499858	0.330723
C69	C	1.167683	-0.000147	-0.176306
C70	C	1.667683	0.499853	0.323694
C71	C	0.933367	-0.000132	-0.022445
C72	C	1.433367	0.499868	0.477555
C73	C	0.926339	-0.000131	0.065039
C74	C	1.426339	0.499869	0.565039
N75	N	0.951356	0.292781	-0.151308
N76	N	1.451356	0.792781	0.348692
C77	C	0.939911	-0.000113	-0.309565
C78	C	1.439911	0.499887	0.190435
C79	C	0.946940	-0.000107	-0.397049
C80	C	1.446940	0.499893	0.102951
C81	C	0.994156	-0.000142	0.111030
C82	C	1.494156	0.499858	0.611030
C83	C	0.987548	-0.000130	0.193231
C84	C	1.487548	0.499870	0.693231
C85	C	0.913121	-0.000116	0.229440
C86	C	1.413121	0.499884	0.729440
C87	C	0.845298	-0.000101	0.183444
C88	C	1.345298	0.499899	0.683444
C89	C	0.851908	-0.000105	0.101244
C90	C	1.351908	0.499895	0.601244
C91	C	0.885727	-0.000096	0.474755
C92	C	1.385727	0.499904	0.974755
C93	C	0.879123	-0.000096	0.556961
C94	C	1.379123	0.499904	1.056961
C95	C	1.021373	-0.000123	0.566742
C96	C	1.521373	0.499877	1.066742
C97	C	1.027975	-0.000133	0.484541
C98	C	1.527975	0.499867	0.984541
C99	C	0.960153	-0.000113	0.438552
C100	C	1.460153	0.499887	0.938552
N101	N	0.906364	-0.000107	0.313463
N102	N	1.406364	0.499893	0.813463
N103	N	0.966911	-0.000113	0.354531
N104	N	1.466911	0.499887	0.854531
H105	H	0.539961	-0.000098	-0.272137
H106	H	1.039961	0.499902	0.227863
H107	H	0.315569	-0.000096	-0.317947
H108	H	0.815569	0.499904	0.182053
H109	H	0.784699	-0.000082	0.212932
H110	H	1.284699	0.499918	0.712932
H111	H	0.166438	-0.000125	-0.305956
H112	H	0.666438	0.499875	0.194044
H113	H	0.689080	-0.000075	-0.284127
H114	H	1.189080	0.499925	0.215873
H115	H	1.088581	-0.000146	0.455065
H116	H	1.588581	0.499854	0.955065
C117	C	1.162642	-0.000147	0.568153
C118	C	1.662642	0.499853	1.068153
C119	C	1.095921	-0.000134	0.617294
C120	C	1.595921	0.499866	1.117294
H121	H	1.208666	-0.000157	0.599363
H122	H	1.708666	0.499843	1.099363
H123	H	1.165552	0.065409	0.539175
H124	H	1.665552	0.565409	1.039175
H125	H	1.158961	-0.065715	0.532603
H126	H	1.658961	0.434285	1.032603
H127	H	1.099598	0.065439	0.652842
H128	H	1.599598	0.565439	1.152842
H129	H	1.093010	-0.065696	0.646286
H130	H	1.593010	0.434304	1.146286
C131	C	0.781676	0.096557	0.007974
C132	C	1.281676	0.596557	0.507974
C133	C	0.777361	-0.000092	0.050689
C134	C	1.277361	0.499908	0.550689
H135	H	0.735650	0.096570	-0.023232
H136	H	1.235650	0.596570	0.476768
H137	H	0.826942	0.096539	-0.025350
H138	H	1.326942	0.596539	0.474650
H139	H	0.785350	0.162109	0.043540
H140	H	1.285350	0.662109	0.543540
H141	H	0.773693	-0.065645	0.015123
H142	H	1.273693	0.434355	0.515123
H143	H	0.732082	-0.000085	0.084016
H144	H	1.232082	0.499915	0.584016
C145	C	1.103885	-0.781102	-0.094550
C146	C	1.603885	-0.281102	0.405450
C147	C	1.056385	-0.713067	-0.046334
C148	C	1.556385	-0.213067	0.453666
H149	H	1.135919	-0.821253	-0.062529
H150	H	1.635919	-0.321253	0.437471
H151	H	1.136565	-0.734929	-0.126783
H152	H	1.636565	-0.234929	0.373217
H153	H	1.071384	-0.833280	-0.127027
H154	H	1.571384	-0.333280	0.372973
H155	H	1.088887	-0.660883	-0.013861
H156	H	1.588887	-0.160883	0.486139
H157	H	1.023702	-0.759244	-0.014087
H158	H	1.523702	-0.259244	0.485913
H159	H	0.557703	-0.000149	-0.014064
H160	H	1.057703	0.499851	0.485936
C161	C	1.134099	-0.000149	0.128964
C162	C	1.634099	0.499851	0.628964
C163	C	1.075970	-0.000150	0.071233
C164	C	1.575970	0.499850	0.571233
H165	H	1.184608	-0.000143	0.104396
H166	H	1.684608	0.499857	0.604396
H167	H	1.125272	-0.065706	0.157533
H168	H	1.625272	0.434294	0.657533
H169	H	1.131846	0.065417	0.164109
H170	H	1.631846	0.565417	0.664109
H171	H	1.078219	-0.065721	0.036092
H172	H	1.578219	0.434279	0.536092
H173	H	1.084800	0.065414	0.042651
H174	H	1.584800	0.565414	0.542651
C175	C	0.805526	-0.636196	-0.297015
C176	C	1.305526	-0.136196	0.202985
C177	C	0.845720	-0.713109	-0.256857
C178	C	1.345720	-0.213109	0.243143
H179	H	0.769453	-0.676361	-0.333041
H180	H	1.269453	-0.176361	0.166959
H181	H	0.842375	-0.590047	-0.325101
H182	H	1.342375	-0.090047	0.174899
H183	H	0.777482	-0.590029	-0.260134
H184	H	1.277482	-0.090029	0.239866
H185	H	0.873770	-0.759270	-0.293737
H186	H	1.373770	-0.259270	0.206263
H187	H	0.808867	-0.759276	-0.228770
H188	H	1.308867	-0.259276	0.271230
C189	C	0.739173	-0.000035	0.539041
C190	C	1.239173	0.499965	1.039041
C191	C	0.797307	-0.000062	0.596764
C192	C	1.297307	0.499938	1.096764
H193	H	0.688668	-0.000006	0.563617
H194	H	1.188668	0.499994	1.063617
H195	H	0.741403	-0.065595	0.503901
H196	H	1.241403	0.434405	1.003901
H197	H	0.748016	0.065529	0.510468
H198	H	1.248016	0.565529	1.010468
H199	H	0.788468	-0.065630	0.625334
H200	H	1.288468	0.434370	1.125334
H201	H	0.795074	0.065505	0.631919
H202	H	1.295074	0.565505	1.131919
H203	H	0.819593	-0.518747	-0.282981
H204	H	1.319593	-0.018747	0.217019
C205	C	0.201547	0.096469	0.019650
C206	C	0.701547	0.596469	0.519650
C207	C	0.173869	-0.000168	-0.026673
C208	C	0.673869	0.499832	0.473327
H209	H	0.176975	0.096455	0.070157
H210	H	0.676975	0.596455	0.570157
H211	H	0.189354	0.162023	-0.005201
H212	H	0.689354	0.662023	0.494799
H213	H	0.257084	0.096454	0.025420
H214	H	0.757084	0.596454	0.525420
H215	H	0.118333	-0.000149	-0.032448
H216	H	0.618333	0.499851	0.467552
H217	H	0.186056	-0.065739	-0.001816
H218	H	0.686056	0.434261	0.498184
C219	C	0.815480	0.096571	0.381502
C220	C	1.315480	0.596571	0.881502
C221	C	0.811174	-0.000079	0.424216
C222	C	1.311174	0.499921	0.924216
H223	H	0.769448	0.096582	0.350304
H224	H	1.269448	0.596582	0.850304
H225	H	0.860740	0.096556	0.348171
H226	H	1.360740	0.596556	0.848171
H227	H	0.819158	0.162123	0.417068
H228	H	1.319158	0.662123	0.917068
H229	H	0.807502	-0.065632	0.388649
H230	H	1.307502	0.434368	0.888649
H231	H	0.765901	-0.000074	0.457550
H232	H	1.265901	0.499926	0.957550
H233	H	0.706836	-0.000117	-0.026048
H234	H	1.206836	0.499883	0.473952
C235	C	0.398831	0.096502	-0.035149
C236	C	0.898831	0.596502	0.464851
C237	C	0.346423	-0.000147	-0.040541
C238	C	0.846423	0.499853	0.459459
H239	H	0.430039	0.096498	0.010877
H240	H	0.930039	0.596498	0.510877
H241	H	0.369846	0.162048	-0.032242
H242	H	0.869846	0.662048	0.467758
H243	H	0.432160	0.096492	-0.080421
H244	H	0.932160	0.596492	0.419579
H245	H	0.313090	-0.000133	0.004728
H246	H	0.813090	0.499867	0.504728
H247	H	0.375410	-0.065710	-0.043442
H248	H	0.875410	0.434290	0.456558
C249	C	1.067728	-0.364071	-0.034965
C250	C	1.567728	0.135929	0.465035
C251	C	1.027548	-0.287148	-0.075128
C252	C	1.527548	0.212852	0.424872
H253	H	1.103781	-0.323913	0.001085
H254	H	1.603781	0.176087	0.501085
H255	H	1.095786	-0.410218	-0.071834
H256	H	1.595786	0.089782	0.428166
H257	H	1.030863	-0.410238	-0.006898
H258	H	1.530863	0.089762	0.493102
H259	H	1.064413	-0.240986	-0.103200
H260	H	1.564413	0.259014	0.396800
H261	H	0.999489	-0.240982	-0.038253
H262	H	1.499489	0.259018	0.461747
C263	C	0.865091	-0.219141	-0.333195
C264	C	1.365091	0.280859	0.166805
C265	C	0.816896	-0.287186	-0.285676
C266	C	1.316896	0.212814	0.214324
H267	H	0.833057	-0.178993	-0.365215
H268	H	1.333057	0.321007	0.134785
H269	H	0.897314	-0.265307	-0.365887
H270	H	1.397314	0.234693	0.134113
H271	H	0.897580	-0.166961	-0.300706
H272	H	1.397580	0.333039	0.199294
H273	H	0.784411	-0.339372	-0.318165
H274	H	1.284411	0.160628	0.181835
H275	H	0.784659	-0.241016	-0.252980
H276	H	1.284659	0.258984	0.247020
C277	C	1.040581	-0.000112	0.323582
C278	C	1.540581	0.499888	0.823582
C279	C	1.062095	-0.000134	0.243785
C280	C	1.562095	0.499866	0.743785
H281	H	1.086607	-0.000103	0.354790
H282	H	1.586607	0.499897	0.854790
H283	H	1.006988	-0.065665	0.331759
H284	H	1.506988	0.434335	0.831759
H285	H	1.013567	0.065459	0.338314
H286	H	1.513567	0.565459	0.838314
H287	H	1.089103	-0.065710	0.229051
H288	H	1.589103	0.434290	0.729051
H289	H	1.095700	0.065425	0.235603
H290	H	1.595700	0.565425	0.735603
H291	H	1.053693	-0.481516	-0.049019
H292	H	1.553693	0.018484	0.450981
