data_functionalizedCrystal
_audit_creation_method	'MofGen! by Chris Wilmer'
_symmetry_space_group_name_H-M	'P1'
_symmetry_Int_Tables_number	1
_symmetry_cell_setting	triclinic
loop_
_symmetry_equiv_pos_as_xyz
  x,y,z
_cell_length_a	18.101395
_cell_length_b	12.759401
_cell_length_c	12.759393
_cell_angle_alpha	90.021396
_cell_angle_beta	89.966505
_cell_angle_gamma	89.968074
loop_
_atom_site_label
_atom_site_type_symbol
_atom_site_fract_x
_atom_site_fract_y
_atom_site_fract_z
Zn1	Zn	-0.294769	-1.606135	-0.594050
Zn2	Zn	-0.418631	-1.605979	-0.418364
Zn3	Zn	-0.294810	-1.430437	-0.418380
Zn4	Zn	-0.418575	-1.430376	-0.593997
O5	O	-0.356696	-1.518232	-0.506198
O6	O	-0.311206	-1.753136	-0.570761
O7	O	-0.402246	-1.582654	-0.271345
O8	O	-0.191171	-1.453835	-0.441712
O9	O	-0.402207	-1.753021	-0.441685
O10	O	-0.191142	-1.582920	-0.570776
O11	O	-0.311275	-1.453684	-0.271357
O12	O	-0.311221	-1.283408	-0.441661
O13	O	-0.402112	-1.453730	-0.741025
O14	O	-0.402151	-1.283363	-0.570685
O15	O	-0.311152	-1.582860	-0.741064
O16	O	-0.522257	-1.582594	-0.441633
O17	O	-0.522216	-1.453579	-0.570670
C18	C	-0.356685	-1.245265	-0.506170
C19	C	-0.356698	-1.128488	-0.506183
C20	C	-0.404117	-1.073630	-0.573258
C21	C	-0.404119	-0.963906	-0.573276
C22	C	-0.309281	-0.963908	-0.439133
C23	C	-0.309276	-1.073630	-0.439122
C24	C	-0.549107	-1.518091	-0.506167
C25	C	-0.631421	-1.518127	-0.506189
C26	C	-0.930512	-1.518358	-0.506246
C27	C	-0.899192	-1.437373	-0.587633
C28	C	-0.813574	-1.436988	-0.587379
C29	C	-0.782129	-1.518243	-0.506218
C30	C	-0.813289	-1.488263	-0.395492
C31	C	-0.898935	-1.487741	-0.395979
C32	C	-0.898852	-1.629500	-0.534610
C33	C	-0.813201	-1.628847	-0.537038
C34	C	-0.698270	-1.518181	-0.506196
C35	C	-1.014371	-1.518418	-0.506260
C36	C	-0.163534	-1.518402	-0.506252
C37	C	-0.081220	-1.518474	-0.506275
C38	C	-0.356621	-1.518305	-0.780231
C39	C	-0.356590	-1.518337	-0.897008
C40	C	-0.356706	-0.792265	-0.506220
C41	C	-0.356705	-0.909042	-0.506212
C42	C	-0.309212	-1.451206	-0.951876
C43	C	-0.309189	-1.451230	-1.061600
C44	C	-0.403923	-1.585525	-1.061579
C45	C	-0.403949	-1.585495	-0.951857
C46	C	-0.356717	-1.518219	-0.233231
C47	C	-0.356541	-1.518392	-0.116454
H48	H	-0.919733	-1.455945	-0.670002
H49	H	-0.919656	-1.544168	-0.333271
H50	H	-0.920780	-1.355493	-0.569082
H51	H	-0.442532	-1.640163	-0.907183
C52	C	-0.456279	-0.903561	-0.647056
H53	H	-0.449487	-0.830357	-0.637470
H54	H	-0.506024	-0.921498	-0.631553
H55	H	-0.445495	-0.921589	-0.717675
C56	C	-0.257123	-0.903565	-0.365365
H57	H	-0.228877	-0.951954	-0.325422
H58	H	-0.285415	-0.860720	-0.319521
H59	H	-0.224889	-0.860806	-0.405647
C60	C	-0.456272	-1.133971	-0.647032
H61	H	-0.484507	-1.085580	-0.686989
H62	H	-0.488505	-1.176733	-0.606762
H63	H	-0.427972	-1.176812	-0.692878
C64	C	-0.785775	-1.565429	-0.311333
H65	H	-0.754962	-1.616736	-0.343052
H66	H	-0.826887	-1.598830	-0.279325
H67	H	-0.758484	-1.528324	-0.259707
H68	H	-0.791907	-1.407879	-0.371034
C69	C	-0.257086	-1.377375	-1.121955
H70	H	-0.263860	-1.386996	-1.195158
H71	H	-0.207329	-1.392777	-1.104003
H72	H	-0.267938	-1.306772	-1.103950
C73	C	-0.257113	-1.133978	-0.365333
H74	H	-0.228879	-1.085593	-0.325385
H75	H	-0.224879	-1.176823	-0.405600
H76	H	-0.285408	-1.176738	-0.319478
C77	C	-0.785981	-1.325704	-0.561983
H78	H	-0.827116	-1.280558	-0.551772
H79	H	-0.756829	-1.300468	-0.618515
H80	H	-0.756986	-1.327431	-0.499971
C81	C	-0.257126	-1.377331	-0.891540
H82	H	-0.263920	-1.386932	-0.818335
H83	H	-0.267955	-1.306736	-0.909512
H84	H	-0.207361	-1.392763	-0.909543
C85	C	-0.785105	-1.462291	-0.698297
H86	H	-0.825883	-1.472896	-0.743920
H87	H	-0.755801	-1.524035	-0.696162
H88	H	-0.756080	-1.405522	-0.723254
H89	H	-0.919106	-1.689837	-0.475332
C90	C	-0.456006	-1.659409	-1.121911
H91	H	-0.484229	-1.699381	-1.073516
H92	H	-0.427665	-1.705221	-1.164724
H93	H	-0.488265	-1.619203	-1.164702
C94	C	-0.926022	-1.377989	-0.363532
H95	H	-0.978499	-1.376703	-0.363539
H96	H	-0.907905	-1.327465	-0.411777
H97	H	-0.908380	-1.362095	-0.295246
C98	C	-0.927946	-1.666424	-0.641827
H99	H	-0.959677	-1.614395	-0.670298
H100	H	-0.954581	-1.729985	-0.633323
H101	H	-0.887526	-1.677646	-0.688017
H102	H	-0.792832	-1.651455	-0.618527
H103	H	-0.791792	-1.692377	-0.482080
