data_functionalizedCrystal
_audit_creation_method	'MofGen! by Chris Wilmer'
_symmetry_space_group_name_H-M	'P1'
_symmetry_Int_Tables_number	1
_symmetry_cell_setting	triclinic
loop_
_symmetry_equiv_pos_as_xyz
  x,y,z
_cell_length_a	10.540539
_cell_length_b	10.065875
_cell_length_c	10.967829
_cell_angle_alpha	86.921207
_cell_angle_beta	84.620270
_cell_angle_gamma	81.165690
loop_
_atom_site_label
_atom_site_type_symbol
_atom_site_fract_x
_atom_site_fract_y
_atom_site_fract_z
O1	O	1.710001	-0.149168	0.151975
O2	O	1.341192	-0.152939	0.167941
O3	O	1.527437	-0.109894	-0.015024
O4	O	1.523756	-0.192212	0.334940
O5	O	1.491930	0.108853	0.020006
O6	O	1.305684	0.065808	0.202971
O7	O	1.674494	0.069580	0.187005
Zn8	Zn	1.484451	0.102425	0.200550
Zn9	Zn	1.531234	-0.185784	0.154396
O10	O	1.488248	0.026535	0.369971
C11	C	1.276090	-0.043286	0.184258
C12	C	1.135008	-0.042449	0.180675
N13	N	1.452532	0.299120	0.232048
C14	C	1.506733	0.010017	-0.042322
C15	C	1.497926	0.041417	-0.175851
C16	C	0.946330	-0.009646	0.043469
C17	C	1.093168	-0.011007	0.047020
C18	C	1.096033	-0.182489	0.224992
C19	C	0.949332	-0.181507	0.220416
C20	C	0.908567	0.066610	0.262971
C21	C	1.055329	0.067958	0.264464
C22	C	1.739596	-0.040076	0.170688
C23	C	1.880679	-0.040922	0.174270
N24	N	1.563163	-0.382477	0.122889
C25	C	1.520120	0.382591	0.165348
C26	C	1.495565	0.534053	0.189599
C27	C	1.512394	-0.057903	-0.253523
C28	C	1.503291	-0.025453	-0.391533
C29	C	1.508953	-0.093379	0.397268
C30	C	1.517762	-0.124787	0.530796
H31	H	1.119341	0.090439	0.010749
H32	H	1.596160	0.341927	0.090284
F33	F	1.396157	0.587198	0.287707
H34	H	1.639207	0.576863	0.047821
F35	F	0.887357	0.123677	-0.006796
F36	F	0.923153	-0.109907	-0.043907
H37	H	1.531513	-0.166959	-0.217848
F38	F	1.169220	-0.290263	0.147134
F39	F	1.478283	0.117101	-0.438148
H40	H	1.376484	0.339789	0.307103
H41	H	1.079522	0.171419	0.232274
F42	F	1.131098	-0.218764	0.352300
H43	H	1.536873	-0.233851	-0.433536
F44	F	0.851411	0.038034	0.389331
F45	F	1.164265	-0.112825	-0.038133
F46	F	0.929926	-0.288934	0.138735
F47	F	0.892561	-0.218471	0.344866
H48	H	1.478793	0.150472	-0.211525
H49	H	0.860023	0.171466	0.234879
F50	F	1.090181	0.047855	0.393413
