data_functionalizedCrystal
_audit_creation_method	'MofGen! by Chris Wilmer'
_symmetry_space_group_name_H-M	'P1'
_symmetry_Int_Tables_number	1
_symmetry_cell_setting	triclinic
loop_
_symmetry_equiv_pos_as_xyz
  x,y,z
_cell_length_a	12.759401
_cell_length_b	18.101395
_cell_length_c	18.101390
_cell_angle_alpha	89.968664
_cell_angle_beta	89.983835
_cell_angle_gamma	90.031265
loop_
_atom_site_label
_atom_site_type_symbol
_atom_site_fract_x
_atom_site_fract_y
_atom_site_fract_z
Zn1	Zn	1.606111	-0.294798	-0.418679
Zn2	Zn	2.106111	0.205202	0.081321
Zn3	Zn	1.605963	-0.418655	-0.294841
Zn4	Zn	2.105963	0.081345	0.205159
Zn5	Zn	1.430421	-0.294832	-0.294858
Zn6	Zn	1.930421	0.205168	0.205142
Zn7	Zn	1.430352	-0.418603	-0.418647
Zn8	Zn	1.930352	0.081397	0.081353
O9	O	1.518212	-0.356722	-0.356756
O10	O	2.018212	0.143278	0.143244
O11	O	1.753113	-0.311236	-0.402257
O12	O	2.253113	0.188764	0.097743
O13	O	1.582643	-0.402266	-0.191210
O14	O	2.082643	0.097734	0.308790
O15	O	1.453817	-0.191195	-0.311304
O16	O	1.953817	0.308805	0.188696
O17	O	1.753003	-0.402233	-0.311274
O18	O	2.253003	0.097767	0.188726
O19	O	1.582897	-0.191170	-0.402274
O20	O	2.082897	0.308830	0.097726
O21	O	1.453673	-0.311294	-0.191223
O22	O	1.953673	0.188706	0.308777
O23	O	1.283390	-0.311243	-0.311273
O24	O	1.783390	0.188757	0.188727
O25	O	1.453700	-0.402144	-0.522285
O26	O	1.953700	0.097856	-0.022285
O27	O	1.283340	-0.402177	-0.402221
O28	O	1.783340	0.097823	0.097779
O29	O	1.582830	-0.311185	-0.522307
O30	O	2.082830	0.188815	-0.022307
O31	O	1.582576	-0.522281	-0.311243
O32	O	2.082576	-0.022281	0.188757
O33	O	1.453556	-0.522243	-0.402204
O34	O	1.953556	-0.022243	0.097796
C35	C	1.245244	-0.356709	-0.356746
C36	C	1.745244	0.143291	0.143254
C37	C	1.128468	-0.356721	-0.356759
C38	C	1.628468	0.143279	0.143241
C39	C	1.073607	-0.404145	-0.404037
C40	C	1.573607	0.095855	0.095963
C41	C	0.963883	-0.404155	-0.404045
C42	C	1.463883	0.095845	0.095955
C43	C	0.963890	-0.309312	-0.309491
C44	C	1.463890	0.190688	0.190509
C45	C	1.073612	-0.309300	-0.309487
C46	C	1.573612	0.190700	0.190513
C47	C	1.073602	-0.458904	-0.458625
C48	C	1.573602	0.041096	0.041375
C49	C	0.963878	-0.458914	-0.458634
C50	C	1.463878	0.041086	0.041366
C51	C	1.518071	-0.549133	-0.356734
C52	C	2.018071	-0.049133	0.143266
C53	C	1.518107	-0.631447	-0.356750
C54	C	2.018107	-0.131447	0.143250
C55	C	1.518338	-0.930538	-0.356790
C56	C	2.018338	-0.430538	0.143210
C57	C	1.437350	-0.899219	-0.414162
C58	C	1.937350	-0.399219	0.085838
C59	C	1.436965	-0.813601	-0.413982
C60	C	1.936965	-0.313601	0.086018
C61	C	1.518223	-0.782155	-0.356771
C62	C	2.018223	-0.282155	0.143229
C63	C	1.488247	-0.813312	-0.278722
C64	C	1.988247	-0.313312	0.221278
C65	C	1.487725	-0.898957	-0.279066
C66	C	1.987725	-0.398957	0.220934
C67	C	1.629479	-0.898880	-0.376779
C68	C	2.129479	-0.398880	0.123221
C69	C	1.628825	-0.813229	-0.378491
C70	C	2.128825	-0.313229	0.121509
C71	C	1.518160	-0.698296	-0.356755
C72	C	2.018160	-0.198296	0.143245
C73	C	1.518398	-1.014397	-0.356800
C74	C	2.018398	-0.514397	0.143200
C75	C	1.792245	-0.356736	-0.356767
C76	C	2.292245	0.143264	0.143233
C77	C	1.909021	-0.356742	-0.356771
C78	C	2.409021	0.143258	0.143229
C79	C	1.518274	-0.356655	-0.549918
C80	C	2.018274	0.143345	-0.049918
C81	C	1.518301	-0.356626	-0.632232
C82	C	2.018301	0.143374	-0.132232
C83	C	1.518381	-0.163560	-0.356794
C84	C	2.018381	0.336440	0.143206
C85	C	1.518454	-0.081246	-0.356811
C86	C	2.018454	0.418754	0.143189
C87	C	1.518357	-0.356580	-0.931323
C88	C	2.018357	0.143420	-0.431323
C89	C	1.599870	-0.299552	-0.900013
C90	C	2.099870	0.200448	-0.400013
C91	C	1.599616	-0.299341	-0.814394
C92	C	2.099616	0.200659	-0.314394
C93	C	1.518330	-0.356602	-0.782941
C94	C	2.018330	0.143398	-0.282941
C95	C	1.407650	-0.335399	-0.814018
C96	C	1.907650	0.164601	-0.314018
C97	C	1.408138	-0.334972	-0.899664
C98	C	1.908138	0.165028	-0.399664
C99	C	1.546550	-0.434957	-0.899737
C100	C	2.046550	0.065043	-0.399737
C101	C	1.548979	-0.434557	-0.814087
C102	C	2.048979	0.065443	-0.314087
C103	C	1.518308	-0.356617	-0.699081
C104	C	2.018308	0.143383	-0.199081
C105	C	1.518372	-0.356564	-1.015183
C106	C	2.018372	0.143436	-0.515183
C107	C	1.518210	-0.356736	-0.164346
C108	C	2.018210	0.143264	0.335654
C109	C	1.518387	-0.356556	-0.082032
C110	C	2.018387	0.143444	0.417968
H111	H	0.929885	-0.438443	-0.513158
H112	H	1.429885	0.061557	-0.013158
H113	H	1.118276	-0.270677	-0.270994
H114	H	1.618276	0.229323	0.229006
Cl115	Cl	1.669022	-0.464733	-0.933088
Cl116	Cl	2.169022	0.035267	-0.433088
Cl117	Cl	0.917833	-0.547434	-0.434737
Cl118	Cl	1.417833	-0.047434	0.065263
Cl119	Cl	1.311169	-0.396297	-0.931644
Cl120	Cl	1.811169	0.103703	-0.431644
H121	H	1.455918	-0.919763	-0.472221
H122	H	1.955918	-0.419763	0.027779
Cl123	Cl	1.119636	-0.435294	-0.547217
Cl124	Cl	1.619636	0.064706	-0.047217
H125	H	1.692358	-0.791819	-0.339750
H126	H	2.192358	-0.291819	0.160250
H127	H	1.689818	-0.919132	-0.334993
H128	H	2.189818	-0.419132	0.165007
H129	H	1.406481	-0.919002	-0.262132
H130	H	1.906481	-0.419002	0.237868
Cl131	Cl	1.674737	-0.459242	-0.782732
Cl132	Cl	2.174737	0.040758	-0.282732
H133	H	1.384238	-0.277679	-0.919654
H134	H	1.884238	0.222321	-0.419654
H135	H	1.455719	-0.792533	-0.471854
H136	H	1.955719	-0.292533	0.028146
H137	H	1.681687	-0.312619	-0.793383
H138	H	2.181687	0.187381	-0.293383
Cl139	Cl	1.454886	-0.500558	-0.930995
Cl140	Cl	1.954886	-0.000558	-0.430995
H141	H	1.355470	-0.920807	-0.401088
H142	H	1.855470	-0.420807	0.098912
Cl143	Cl	1.309774	-0.782065	-0.393543
Cl144	Cl	1.809774	-0.282065	0.106457
H145	H	0.919213	-0.270703	-0.271005
H146	H	1.419213	0.229297	0.228995
H147	H	1.107595	-0.513357	-0.437981
H148	H	1.607595	-0.013357	0.062019
Cl149	Cl	1.574833	-0.930952	-0.210813
Cl150	Cl	2.074833	-0.430952	0.289187
Cl151	Cl	1.576451	-0.781869	-0.210922
Cl152	Cl	2.076451	-0.281869	0.289078
Cl153	Cl	1.364138	-0.780304	-0.252108
Cl154	Cl	1.864138	-0.280304	0.247892
H155	H	1.651430	-0.792861	-0.435930
H156	H	2.151430	-0.292861	0.064070
Cl157	Cl	1.671674	-0.932140	-0.463151
Cl158	Cl	2.171674	-0.432140	0.036849
Cl159	Cl	1.727001	-0.319792	-0.931819
Cl160	Cl	2.227001	0.180208	-0.431819
H161	H	1.581445	-0.241813	-0.921550
H162	H	2.081445	0.258187	-0.421550
Cl163	Cl	1.570802	-0.209695	-0.782779
Cl164	Cl	2.070802	0.290305	-0.282779
Cl165	Cl	1.311335	-0.397556	-0.782571
Cl166	Cl	1.811335	0.102444	-0.282571
Cl167	Cl	1.463975	-0.503685	-0.781035
Cl168	Cl	1.963975	-0.003685	-0.281035
Cl169	Cl	1.370079	-0.247922	-0.780928
Cl170	Cl	1.870079	0.252078	-0.280928
