data_functionalizedCrystal
_audit_creation_method	'MofGen! by Chris Wilmer'
_symmetry_space_group_name_H-M	'P1'
_symmetry_Int_Tables_number	1
_symmetry_cell_setting	triclinic
loop_
_symmetry_equiv_pos_as_xyz
  x,y,z
_cell_length_a	14.446369
_cell_length_b	14.628931
_cell_length_c	14.628931
_cell_angle_alpha	59.999836
_cell_angle_beta	90.000418
_cell_angle_gamma	59.998591
loop_
_atom_site_label
_atom_site_type_symbol
_atom_site_fract_x
_atom_site_fract_y
_atom_site_fract_z
Zr1	Zr	0.891772	1.000530	-0.119930
O2	O	0.743964	1.191244	-0.265896
O3	O	0.937084	0.809822	-0.075183
O4	O	0.937084	1.000528	-0.265889
O5	O	0.743963	1.000538	0.075242
O6	O	1.089421	1.000519	-0.265883
O7	O	0.743963	1.000538	-0.075190
O8	O	1.089420	0.659382	0.075255
O9	O	0.743964	1.341676	-0.265896
O10	O	1.070096	0.888255	-0.056095
O11	O	0.956408	0.888261	0.056166
O12	O	0.956409	1.112792	-0.168365
O13	O	0.842721	1.112798	-0.056104
Zr14	Zr	1.134732	1.000517	0.120001
Zr15	Zr	1.134733	1.000517	-0.119921
Zr16	Zr	0.891772	1.000530	0.119992
Zr17	Zr	0.891773	1.240452	-0.119930
Zr18	Zr	1.134732	0.760595	0.120001
O19	O	1.089421	1.191225	0.075254
O20	O	1.089422	1.191225	-0.265884
O21	O	0.743963	1.191244	0.075241
O22	O	1.282541	0.809803	0.265967
O23	O	1.282542	0.809803	-0.075171
O24	O	0.937083	0.809822	0.265954
O25	O	1.282542	1.000509	-0.075171
O26	O	1.089420	1.000519	0.265960
O27	O	0.937083	1.000528	0.265954
O28	O	1.282542	1.000509	0.075261
O29	O	0.937085	1.341665	-0.265889
O30	O	1.089420	0.659382	0.265960
O31	O	1.282541	0.659371	0.265967
O32	O	1.282541	0.659371	0.075262
O33	O	0.743963	1.341676	-0.075191
O34	O	0.937084	1.341665	-0.075184
O35	O	1.070096	0.888255	0.168436
O36	O	1.183783	0.888249	0.056175
O37	O	1.070096	1.112786	-0.056096
O38	O	0.956409	1.112792	0.056166
C39	C	1.013252	0.700418	0.000036
C40	C	1.013252	0.598565	0.000036
C41	C	0.709346	1.000540	0.000024
C42	C	0.606203	1.000546	0.000021
C43	C	1.069648	0.553153	-0.055653
C44	C	1.069650	0.447883	-0.055654
C45	C	0.387835	1.142146	-0.070431
C46	C	0.495067	1.142242	-0.070827
C47	C	0.602880	0.930204	-0.051626
C48	C	0.495111	0.931103	-0.052143
C49	C	0.496474	0.928187	0.122209
C50	C	0.602443	0.930856	0.122017
C51	C	1.317158	1.000507	0.000046
C52	C	1.420301	1.000502	0.000050
C53	C	1.013253	1.000524	-0.300070
C54	C	1.013253	1.000524	-0.401923
C55	C	1.013253	1.300629	0.000035
C56	C	1.013253	1.402482	0.000035
C57	C	0.933496	1.000528	-0.447335
C58	C	0.933495	1.000528	-0.552605
C59	C	1.013252	1.000524	0.300141
C60	C	1.013251	1.000524	0.401994
C61	C	1.317158	0.700402	0.000047
C62	C	1.420301	0.598543	0.000051
C63	C	1.013251	0.700418	0.300141
C64	C	1.013251	0.598565	0.401994
C65	C	1.317157	0.700402	0.300152
C66	C	1.420300	0.598543	0.402009
C67	C	0.709347	1.300645	-0.300081
C68	C	0.606205	1.402504	-0.401938
C69	C	0.709347	1.300645	0.000024
C70	C	0.606204	1.402504	0.000020
C71	C	1.013253	1.300629	-0.300070
C72	C	1.013254	1.402482	-0.401923
C73	C	1.409888	0.553135	-0.055641
C74	C	1.516491	0.447859	-0.055638
C75	C	1.069647	0.553153	0.503097
C76	C	1.069648	0.447883	0.608369
C77	C	1.522681	0.553129	0.391731
C78	C	1.629285	0.447852	0.497004
H79	H	1.117937	0.592202	-0.103326
H80	H	1.717113	0.408793	0.488377
F81	F	0.950131	0.453525	0.062351
F82	F	1.535105	0.547497	0.062370
F83	F	0.315969	1.214458	-0.187507
H84	H	1.081542	1.000513	-0.558956
F85	F	1.132767	0.396834	0.721733
F86	F	0.601787	0.997876	0.172459
F87	F	0.950147	0.547515	0.062362
H88	H	1.627612	0.441485	0.047747
H89	H	0.964972	0.441523	0.511351
H90	H	0.964964	0.559515	0.393372
F91	F	1.295084	0.604194	-0.117972
F92	F	0.844245	1.000523	-0.603643
F93	F	1.132755	0.396847	-0.117982
H94	H	0.493307	1.197712	-0.036454
F95	F	0.317306	1.214814	-0.025383
H96	H	0.446450	0.973508	0.165354
H97	H	1.531414	0.592189	0.304996
F98	F	1.132751	0.604204	0.514374
H99	H	1.081532	1.000527	-0.440981
F100	F	1.408882	0.547503	0.515377
F101	F	0.491865	1.214838	-0.188612
F102	F	0.529944	0.795272	0.010606
F103	F	0.429300	0.996451	-0.169639
F104	F	1.504074	0.453481	0.609387
F105	F	0.532356	0.791797	0.191169
F106	F	0.705179	0.794026	0.012240
F107	F	0.605669	0.994062	-0.168008
H108	H	0.681601	0.827479	0.178949
H109	H	0.865210	1.000539	-0.408285
H110	H	1.507753	0.408804	-0.103314
