data_functionalizedCrystal
_audit_creation_method	'MofGen! by Chris Wilmer'
_symmetry_space_group_name_H-M	'P1'
_symmetry_Int_Tables_number	1
_symmetry_cell_setting	triclinic
loop_
_symmetry_equiv_pos_as_xyz
  x,y,z
_cell_length_a	22.010155
_cell_length_b	15.944551
_cell_length_c	15.944551
_cell_angle_alpha	96.501262
_cell_angle_beta	89.996699
_cell_angle_gamma	89.996027
loop_
_atom_site_label
_atom_site_type_symbol
_atom_site_fract_x
_atom_site_fract_y
_atom_site_fract_z
O1	O	0.050463	-1.114530	0.108320
O2	O	0.050478	-0.869981	0.121677
O3	O	0.050465	-0.998934	-0.007276
O4	O	0.050477	-0.985577	0.237273
O5	O	-0.050585	-0.998910	-0.007257
O6	O	-0.050572	-0.869957	0.121696
O7	O	-0.050587	-1.114507	0.108340
Cu8	Cu	-0.059806	-0.992230	0.115020
Cu9	Cu	0.059697	-0.992258	0.114997
O10	O	-0.050574	-0.985554	0.237293
C11	C	-0.000045	-0.838675	0.121132
C12	C	-0.000039	-0.745429	0.119470
N13	N	-0.143859	-0.992217	0.115035
C14	C	-0.000060	-0.998367	-0.038561
C15	C	-0.000061	-0.996705	-0.131807
C16	C	-0.563644	-1.049361	0.057905
C17	C	-0.627252	-1.049365	0.057899
O18	O	-0.660148	-1.097918	0.009335
N19	N	-0.659066	-0.992257	0.114979
C20	C	-0.627269	-0.935136	0.172063
O21	O	-0.660170	-0.886561	0.220614
C22	C	-0.563663	-0.935128	0.172064
C23	C	-0.531852	-0.992246	0.114986
C24	C	-0.531833	-1.106474	0.000830
C25	C	-0.468230	-1.106471	0.000837
C26	C	-0.436438	-1.049355	0.057919
C27	C	-0.468249	-0.992243	0.114993
C28	C	-0.531867	-0.878004	0.229144
C29	C	-0.468256	-0.878001	0.229140
C30	C	-0.436445	-0.935118	0.172061
C31	C	-0.372853	-0.935125	0.172082
N32	N	-0.341039	-0.992233	0.115001
C33	C	-0.372831	-1.049348	0.057920
C34	C	-0.760847	-0.935154	0.172056
C35	C	-0.824452	-0.935165	0.172059
C36	C	-0.824430	-1.049394	0.057893
C37	C	-0.760824	-1.049386	0.057895
C38	C	-0.729033	-0.992262	0.114975
C39	C	-0.239260	-1.049338	0.057939
C40	C	-0.175651	-1.049332	0.057954
C41	C	-0.175678	-0.935101	0.172116
C42	C	-0.239282	-0.935109	0.172105
C43	C	-0.271071	-0.992231	0.115010
O44	O	-0.339916	-0.886594	0.220618
O45	O	-0.339922	-1.097907	0.009370
N46	N	0.143750	-0.992278	0.114975
C47	C	-0.000063	-1.145813	0.108885
C48	C	-0.000064	-1.239059	0.110547
C49	C	-0.000055	-0.530572	0.035565
C50	C	0.049770	-0.469564	0.074518
C51	C	-0.000047	-0.574703	0.116462
C52	C	-0.049858	-0.469563	0.074556
C53	C	-0.000056	-0.409790	0.113551
C54	C	0.049820	-0.514923	0.155437
C55	C	-0.049853	-0.514928	0.155464
C56	C	-0.000016	-0.453937	0.194476
C57	C	-0.000040	-0.669705	0.118137
C58	C	-0.000058	-0.314789	0.111883
C59	C	-0.000047	-0.912801	-0.346663
C60	C	-0.049873	-0.951752	-0.407671
C61	C	-0.000056	-0.993698	-0.302533
C62	C	0.049754	-0.951794	-0.407674
C63	C	-0.000048	-0.990787	-0.467445
C64	C	-0.049923	-1.032671	-0.362312
C65	C	0.049749	-1.032702	-0.362308
C66	C	-0.000089	-1.071711	-0.423298
C67	C	-0.000061	-0.995372	-0.207530
C68	C	-0.000048	-0.989119	-0.562446
C69	C	-0.000047	-0.986120	0.268577
C70	C	-0.000043	-0.987782	0.361823
H71	H	-0.149753	-1.095847	0.011474
H72	H	-0.265183	-0.888607	0.218592
H73	H	-0.092094	-1.066849	-0.342314
F74	F	0.000003	-0.574108	-0.052202
F75	F	-0.000130	-1.159555	-0.466641
H76	H	0.091890	-0.449463	0.040294
H77	H	-0.557759	-0.831493	0.275622
H78	H	0.091871	-1.066898	-0.342186
F79	F	0.104810	-0.907065	-0.433944
H80	H	-0.265136	-1.095850	0.011446
F81	F	-0.104928	-0.907018	-0.433944
F82	F	0.104938	-0.541057	0.200116
H83	H	0.000015	-0.420779	0.261683
F84	F	-0.104910	-0.541231	0.200161
F85	F	-0.727017	-0.874357	0.232819
H86	H	-0.850348	-0.888663	0.218547
H87	H	-0.000093	-0.845652	-0.313356
H88	H	-0.850327	-1.095899	0.011413
F89	F	-0.434380	-1.167258	-0.059917
H90	H	-0.557713	-1.152984	-0.045656
H91	H	-0.091979	-0.449467	0.040333
F92	F	-0.141833	-0.874318	0.232866
H93	H	-0.442375	-0.831481	0.275621
F94	F	-0.726974	-1.110177	-0.002857
