data_functionalizedCrystal
_audit_creation_method	'MofGen! by Chris Wilmer'
_symmetry_space_group_name_H-M	'P1'
_symmetry_Int_Tables_number	1
_symmetry_cell_setting	triclinic
loop_
_symmetry_equiv_pos_as_xyz
  x,y,z
_cell_length_a	12.759401
_cell_length_b	13.032721
_cell_length_c	13.033388
_cell_angle_alpha	76.692903
_cell_angle_beta	82.819069
_cell_angle_gamma	97.204304
loop_
_atom_site_label
_atom_site_type_symbol
_atom_site_fract_x
_atom_site_fract_y
_atom_site_fract_z
Zn1	Zn	1.458685	-0.499311	0.654163
Zn2	Zn	1.458623	-0.654338	0.499104
Zn3	Zn	1.308610	-0.476741	0.476582
Zn4	Zn	1.257403	-0.676879	0.676662
O5	O	1.370830	-0.576817	0.576628
O6	O	1.605695	-0.519887	0.633603
O7	O	1.460127	-0.611901	0.347490
O8	O	1.349974	-0.331098	0.481297
O9	O	1.605649	-0.633785	0.519683
O10	O	1.460234	-0.347679	0.611764
O11	O	1.349913	-0.481421	0.330943
O12	O	1.154799	-0.503278	0.503114
O13	O	1.262700	-0.672202	0.822304
O14	O	1.117177	-0.650318	0.650112
O15	O	1.410581	-0.541744	0.805774
O16	O	1.410474	-0.805966	0.541500
O17	O	1.262639	-0.822526	0.671951
C18	C	1.097868	-0.576796	0.576611
C19	C	0.981086	-0.576815	0.576632
C20	C	0.906662	-0.653473	0.653075
C21	C	0.796935	-0.653488	0.653089
C22	C	0.836065	-0.500183	0.500206
C23	C	0.945791	-0.500164	0.500198
C24	C	0.884070	-0.741986	0.741339
C25	C	0.774342	-0.742001	0.741352
C26	C	1.331018	-0.852789	0.611634
C27	C	1.314078	-0.970855	0.626645
C28	C	1.379720	-1.015271	0.568841
C29	C	1.362213	-1.137298	0.584354
C30	C	1.644858	-0.576839	0.576645
C31	C	1.761633	-0.576849	0.576653
C32	C	1.330935	-0.612005	0.853654
C33	C	1.313934	-0.627000	0.971706
C34	C	1.410823	-0.299771	0.541508
C35	C	1.427865	-0.181710	0.526542
C36	C	1.361966	-0.584640	1.138172
C37	C	1.379533	-0.569134	1.016158
C38	C	1.410558	-0.541787	1.300682
C39	C	1.427556	-0.526782	1.182628
H40	H	0.735900	-0.821422	0.729618
O41	O	1.279723	-1.199848	0.657024
C42	C	1.187134	-1.378513	0.738819
C43	C	1.280576	-1.307799	0.656469
H44	H	1.187806	-1.465808	0.738413
H45	H	1.108180	-1.354550	0.717367
H46	H	1.196284	-1.367529	0.821704
H47	H	1.271529	-1.318747	0.573554
H48	H	1.359494	-1.331780	0.678012
H49	H	0.911107	-0.816317	0.721646
H50	H	1.497034	-1.129400	0.465569
O51	O	1.462016	-0.496409	0.953662
C52	C	1.554652	-0.414561	0.775056
C53	C	1.461221	-0.496978	0.845711
H54	H	1.554026	-0.414978	0.687762
H55	H	1.633606	-0.435945	0.799079
H56	H	1.545447	-0.331681	0.786024
H57	H	1.470323	-0.579887	0.834780
H58	H	1.382302	-0.475502	0.821671
O59	O	0.725514	-0.718882	0.830278
C60	C	0.746192	-0.675266	0.997291
C61	C	0.801620	-0.701465	0.896655
H62	H	0.807703	-0.661154	1.050974
H63	H	0.681269	-0.744909	1.042399
H64	H	0.708574	-0.600256	0.972959
H65	H	0.839301	-0.776444	0.920893
H66	H	0.866488	-0.631762	0.851571
H67	H	1.244921	-1.023171	0.687622
O68	O	1.462103	-0.952806	0.495979
C69	C	1.514855	-0.809210	0.336814
C70	C	1.421455	-0.879891	0.419243
H71	H	1.482027	-0.750227	0.274765
H72	H	1.561558	-0.861569	0.295618
H73	H	1.570141	-0.763458	0.379089
H74	H	1.366094	-0.925655	0.377050
H75	H	1.374834	-0.827475	0.460435
O76	O	1.279535	-0.657417	1.200680
C77	C	1.186800	-0.739147	1.379270
C78	C	1.280213	-0.656708	1.308612
H79	H	1.187304	-0.738586	1.466546
H80	H	1.195980	-0.822087	1.368461
H81	H	1.107907	-0.717746	1.355094
H82	H	1.359149	-0.678010	1.332744
H83	H	1.270939	-0.573792	1.319429
H84	H	1.006384	-0.437736	0.437957
H85	H	1.244761	-0.688008	1.023970
H86	H	1.496711	-0.465763	1.130358
H87	H	0.807314	-0.437776	0.437977
H88	H	0.905160	-0.730533	0.820854
