data_functionalizedCrystal
_audit_creation_method	'MofGen! by Chris Wilmer'
_symmetry_space_group_name_H-M	'P1'
_symmetry_Int_Tables_number	1
_symmetry_cell_setting	triclinic
loop_
_symmetry_equiv_pos_as_xyz
  x,y,z
_cell_length_a	10.723024
_cell_length_b	23.532407
_cell_length_c	9.198806
_cell_angle_alpha	89.992171
_cell_angle_beta	89.996352
_cell_angle_gamma	83.658273
loop_
_atom_site_label
_atom_site_type_symbol
_atom_site_fract_x
_atom_site_fract_y
_atom_site_fract_z
O1	O	1.654700	0.079871	-0.120900
O2	O	1.291309	0.087516	-0.120906
O3	O	1.483962	0.000833	-0.120876
O4	O	1.462046	0.166554	-0.120930
O5	O	1.483947	0.000833	0.120909
O6	O	1.291294	0.087516	0.120879
O7	O	1.654684	0.079871	0.120885
Cu8	Cu	1.472988	0.083693	0.142959
Cu9	Cu	1.473006	0.083693	-0.142980
O10	O	1.462031	0.166554	0.120855
C11	C	1.244819	0.086960	-0.000014
C12	C	1.106317	0.085295	-0.000015
C13	C	1.029823	0.133798	-0.000032
C14	C	0.886673	0.132079	-0.000033
C15	C	1.483397	-0.020387	0.000020
C16	C	1.481719	-0.083615	0.000031
C17	C	1.585203	-0.482046	-0.000046
C18	C	1.583644	-0.541457	-0.000058
O19	O	1.679575	-0.577579	-0.000109
N20	N	1.469112	-0.564826	-0.000059
C21	C	1.356131	-0.528782	-0.000063
O22	O	1.258569	-0.554114	-0.000067
C23	C	1.357691	-0.469373	-0.000063
C24	C	1.472230	-0.446007	-0.000047
C25	C	1.699733	-0.458680	-0.000032
C26	C	1.701291	-0.399274	-0.000019
C27	C	1.588319	-0.363234	-0.000019
C28	C	1.473789	-0.386600	-0.000033
C29	C	1.244711	-0.433329	-0.000078
C30	C	1.246281	-0.373917	-0.000078
C31	C	1.360821	-0.350551	-0.000062
C32	C	1.362374	-0.291154	-0.000020
N33	N	1.476907	-0.267785	-0.000019
C34	C	1.589879	-0.303825	-0.000018
C35	C	1.352863	-0.653545	-0.000067
C36	C	1.351302	-0.712953	-0.000057
C37	C	1.578816	-0.725625	-0.000054
C38	C	1.580376	-0.666215	-0.000054
C39	C	1.467395	-0.630176	-0.000066
C40	C	1.593143	-0.179067	0.000012
C41	C	1.594691	-0.119655	0.000032
C42	C	1.367178	-0.106989	0.000021
C43	C	1.365629	-0.166396	0.000009
C44	C	1.478622	-0.202434	-0.000001
O45	O	1.266494	-0.254997	0.000026
O46	O	1.687425	-0.278484	-0.000034
C47	C	1.701174	0.080427	-0.000010
C48	C	1.839677	0.082092	-0.000018
C49	C	1.462597	0.187774	-0.000044
C50	C	1.464275	0.251001	-0.000065
N51	N	1.472984	0.083693	0.344073
N52	N	1.473019	0.083689	-0.344094
C53	C	1.553879	0.047136	0.416283
C54	C	1.553898	0.047134	0.583695
H55	H	1.065828	0.042497	-0.000039
C56	C	1.228567	-0.613907	-0.000062
N57	N	1.134948	-0.584054	-0.000059
H58	H	0.820947	0.173602	-0.000054
H59	H	1.151441	-0.452343	-0.000099
C60	C	0.928459	0.025992	0.000005
N61	N	0.995340	-0.016263	0.000026
H62	H	1.403763	0.114991	0.593818
C63	C	1.379433	0.125971	0.427986
N64	N	1.308967	0.157817	0.491187
C65	C	1.720699	-0.093957	0.000045
N66	N	1.815605	-0.074603	0.000051
H67	H	1.791734	-0.488018	-0.000037
C68	C	1.647405	0.004846	0.332370
N69	N	1.717845	-0.027011	0.269169
H70	H	1.623160	0.015839	0.645792
H71	H	1.258032	-0.731972	-0.000045
C72	C	1.717441	-0.218700	0.000015
N73	N	1.811062	-0.248552	0.000029
H74	H	1.070312	0.176597	-0.000038
H75	H	1.794561	-0.380255	-0.000012
H76	H	1.670804	-0.754979	-0.000060
C77	C	1.239630	-0.192099	0.000001
N78	N	1.144726	-0.211454	-0.000021
H79	H	1.673644	-0.647195	-0.000042
C80	C	1.242915	-0.067334	0.000010
N81	N	1.149319	-0.037464	-0.000012
H82	H	1.154276	-0.344576	-0.000090
