data_functionalizedCrystal
_audit_creation_method	'MofGen! by Chris Wilmer'
_symmetry_space_group_name_H-M	'P1'
_symmetry_Int_Tables_number	1
_symmetry_cell_setting	triclinic
loop_
_symmetry_equiv_pos_as_xyz
  x,y,z
_cell_length_a	6.817900
_cell_length_b	16.418049
_cell_length_c	11.168136
_cell_angle_alpha	93.914657
_cell_angle_beta	108.508683
_cell_angle_gamma	103.389670
loop_
_atom_site_label
_atom_site_type_symbol
_atom_site_fract_x
_atom_site_fract_y
_atom_site_fract_z
V1	V	-4.083883	-0.115899	-0.394144
O2	O	-4.070713	0.005556	-0.386183
O3	O	-4.034620	-0.229795	-0.391888
O4	O	-4.060572	-0.114122	-0.565843
O5	O	-4.044582	-0.110918	-0.211025
V6	V	-4.564371	-0.101371	-0.372188
O7	O	-4.351797	-0.147767	-0.442306
O8	O	-4.746654	-0.069502	-0.324026
O9	O	-4.390427	0.012526	-0.374443
O10	O	-4.694938	-0.222826	-0.380148
O11	O	-4.721069	-0.106351	-0.555307
O12	O	-4.364476	-0.103148	-0.200489
C13	C	-3.878599	-0.257560	-0.385784
C14	C	-3.919776	-0.350672	-0.385084
C15	C	-4.197499	-0.569162	-0.389814
C16	C	-4.236179	-0.656651	-0.389168
C17	C	-3.870114	-0.648107	-0.376526
C18	C	-3.831442	-0.560620	-0.377181
C19	C	-3.995138	-0.521149	-0.383819
C20	C	-4.072490	-0.696125	-0.382517
C21	C	-4.114427	-0.790985	-0.381816
C22	C	-3.953201	-0.426284	-0.384523
C23	C	-3.911702	-0.110006	-0.607679
C24	C	-3.973921	-0.109307	-0.748046
C25	C	-4.175608	-0.112968	-0.816752
C26	C	-4.239918	-0.112245	-0.961830
C27	C	-4.209790	0.040287	-0.380544
C28	C	-4.147853	0.133398	-0.381252
C29	C	-4.176687	-0.107266	-0.158646
C30	C	-4.093706	-0.107961	-0.018277
H31	H	-3.736842	-0.680254	-0.371118
O32	O	-4.341292	-0.117828	-0.752418
H33	H	-4.264782	-0.117638	-0.648565
O34	O	-3.613162	-0.508832	-0.370715
H35	H	-3.629488	-0.477723	-0.457218
O36	O	-4.374076	-0.526597	-0.397009
H37	H	-4.426614	-0.536500	-0.313432
H38	H	-3.920927	-0.104832	-0.959224
O39	O	-4.468784	-0.116385	-1.040052
H40	H	-4.577266	-0.175870	-1.031617
O41	O	-3.808022	-0.104540	-0.812202
H42	H	-3.793836	-0.046717	-0.858338
H43	H	-4.400959	-0.695740	-0.394052
