data_functionalizedCrystal
_audit_creation_method	'MofGen! by Chris Wilmer'
_symmetry_space_group_name_H-M	'P1'
_symmetry_Int_Tables_number	1
_symmetry_cell_setting	triclinic
loop_
_symmetry_equiv_pos_as_xyz
  x,y,z
_cell_length_a	18.101398
_cell_length_b	21.295417
_cell_length_c	18.101389
_cell_angle_alpha	90.021518
_cell_angle_beta	90.024327
_cell_angle_gamma	90.024968
loop_
_atom_site_label
_atom_site_type_symbol
_atom_site_fract_x
_atom_site_fract_y
_atom_site_fract_z
Zn1	Zn	1.132128	-0.250755	0.418823
Zn2	Zn	1.465462	0.082579	0.752156
Zn3	Zn	1.798795	0.415912	1.085489
Zn4	Zn	1.132027	-0.356008	0.294975
Zn5	Zn	1.465360	-0.022675	0.628308
Zn6	Zn	1.798694	0.310658	0.961641
Zn7	Zn	1.008287	-0.250748	0.294984
Zn8	Zn	1.341620	0.082585	0.628317
Zn9	Zn	1.674954	0.415919	0.961651
Zn10	Zn	1.008241	-0.355981	0.418763
Zn11	Zn	1.341574	-0.022648	0.752096
Zn12	Zn	1.674908	0.310685	1.085430
O13	O	1.070171	-0.303373	0.356886
O14	O	1.403504	0.029960	0.690219
O15	O	1.736838	0.363294	1.023553
O16	O	1.235748	-0.264731	0.402415
O17	O	1.569081	0.068603	0.735748
O18	O	1.902414	0.401936	1.069082
O19	O	1.115590	-0.342054	0.191343
O20	O	1.448923	-0.008720	0.524676
O21	O	1.782256	0.324613	0.858009
O22	O	1.024777	-0.162660	0.311440
O23	O	1.358110	0.170674	0.644774
O24	O	1.691443	0.504007	0.978107
O25	O	1.235673	-0.342060	0.311424
O26	O	1.569007	-0.008727	0.644758
O27	O	1.902340	0.324607	0.978091
O28	O	1.115762	-0.162664	0.402424
O29	O	1.449095	0.170669	0.735758
O30	O	1.782429	0.504002	1.069091
O31	O	1.024679	-0.264720	0.191350
O32	O	1.358012	0.068614	0.524683
O33	O	1.691345	0.401947	0.858016
O34	O	0.904648	-0.264694	0.311382
O35	O	1.237981	0.068640	0.644716
O36	O	1.571315	0.401973	0.978049
O37	O	1.024698	-0.342014	0.522404
O38	O	1.358031	-0.008681	0.855737
O39	O	1.691364	0.324652	1.189071
O40	O	0.904614	-0.342008	0.402322
O41	O	1.237947	-0.008675	0.735656
O42	O	1.571281	0.324659	1.068989
O43	O	1.115717	-0.264705	0.522448
O44	O	1.449051	0.068629	0.855781
O45	O	1.782384	0.401962	1.189114
O46	O	1.115545	-0.444094	0.311366
O47	O	1.448878	-0.110761	0.644700
O48	O	1.782212	0.222573	0.978033
O49	O	1.024600	-0.444074	0.402313
O50	O	1.357933	-0.110741	0.735647
O51	O	1.691266	0.222592	1.068980
C52	C	0.877760	-0.303348	0.356847
C53	C	1.211094	0.029986	0.690181
C54	C	1.544427	0.363319	1.023514
C55	C	0.795446	-0.303352	0.356848
C56	C	1.128780	0.029982	0.690182
C57	C	1.462113	0.363315	1.023515
C58	C	0.496355	-0.303391	0.356911
C59	C	0.829689	0.029942	0.690244
C60	C	1.163022	0.363276	1.023577
C61	C	0.527677	-0.254504	0.299973
C62	C	0.861010	0.078829	0.633306
C63	C	1.194344	0.412163	0.966640
C64	C	0.613295	-0.254635	0.299730
C65	C	0.946629	0.078698	0.633063
C66	C	1.279962	0.412032	0.966397
C67	C	0.644738	-0.303371	0.356880
C68	C	0.978071	0.029962	0.690213
C69	C	1.311404	0.363296	1.023546
C70	C	0.613622	-0.369679	0.335551
C71	C	0.946955	-0.036345	0.668884
C72	C	1.280288	0.296988	1.002218
C73	C	0.527976	-0.369407	0.335155
C74	C	0.861310	-0.036074	0.668489
C75	C	1.194643	0.297260	1.001822
C76	C	0.527969	-0.286547	0.435311
C77	C	0.861303	0.046786	0.768645
C78	C	1.194636	0.380120	1.101978
C79	C	0.613620	-0.285070	0.434883
C80	C	0.946953	0.048263	0.768217
C81	C	1.280287	0.381597	1.101550
C82	C	0.728597	-0.303364	0.356864
C83	C	1.061931	0.029970	0.690197
C84	C	1.395264	0.363303	1.023530
C85	C	0.412496	-0.303403	0.356925
C86	C	0.745829	0.029931	0.690258
C87	C	1.079162	0.363264	1.023592
C88	C	1.070076	-0.466925	0.356849
C89	C	1.403410	-0.133591	0.690182
C90	C	1.736743	0.199742	1.023515
C91	C	1.070104	-0.536893	0.356857
C92	C	1.403437	-0.203559	0.690191
C93	C	1.736771	0.129774	1.023524
C94	C	1.117453	-0.569705	0.404266
C95	C	1.450786	-0.236371	0.737600
C96	C	1.784120	0.096962	1.070933
C97	C	1.117479	-0.635447	0.404285
C98	C	1.450812	-0.302114	0.737618
C99	C	1.784146	0.031219	1.070951
C100	C	1.070164	-0.668375	0.356881
C101	C	1.403497	-0.335042	0.690214
C102	C	1.736831	-0.001709	1.023547
C103	C	1.022806	-0.635555	0.309468
C104	C	1.356139	-0.302222	0.642802
C105	C	1.689472	0.031111	0.976135
C106	C	1.022776	-0.569814	0.309456
C107	C	1.356109	-0.236481	0.642790
C108	C	1.689442	0.096853	0.976123
N109	N	1.064571	-0.771628	0.292068
N110	N	1.397904	-0.438295	0.625402
N111	N	1.731238	-0.104961	0.958735
N112	N	1.064604	-0.834080	0.292081
N113	N	1.397937	-0.500746	0.625415
N114	N	1.731270	-0.167413	0.958748
C115	C	1.070250	-0.866450	0.356914
C116	C	1.403584	-0.533117	0.690247
C117	C	1.736917	-0.199783	1.023581
N118	N	1.075877	-0.834010	0.421735
N119	N	1.409211	-0.500676	0.755068
N120	N	1.742544	-0.167343	1.088401
N121	N	1.075848	-0.771553	0.421721
N122	N	1.409182	-0.438219	0.755054
N123	N	1.742515	-0.104886	1.088387
C124	C	1.070191	-0.739661	0.356888
C125	C	1.403524	-0.406327	0.690222
C126	C	1.736858	-0.072994	1.023555
C127	C	1.117630	-0.970547	0.404347
C128	C	1.450964	-0.637214	0.737680
C129	C	1.784297	-0.303881	1.071014
C130	C	1.117651	-1.036291	0.404367
C131	C	1.450985	-0.702958	0.737700
C132	C	1.784318	-0.369625	1.071033
C133	C	1.022982	-1.036398	0.309543
C134	C	1.356315	-0.703065	0.642877
C135	C	1.689648	-0.369731	0.976210
C136	C	1.022957	-0.970656	0.309530
C137	C	1.356290	-0.637322	0.642864
C138	C	1.689624	-0.303989	0.976197
C139	C	1.070285	-0.937734	0.356931
C140	C	1.403618	-0.604401	0.690265
C141	C	1.736952	-0.271068	1.023598
C142	C	1.263333	-0.303399	0.356925
C143	C	1.596666	0.029934	0.690259
C144	C	1.929999	0.363267	1.023592
C145	C	1.345647	-0.303410	0.356942
C146	C	1.678980	0.029923	0.690275
C147	C	2.012313	0.363256	1.023609
C148	C	1.070214	-0.303357	0.550048
C149	C	1.403547	0.029976	0.883381
C150	C	1.736880	0.363310	1.216715
C151	C	1.070232	-0.303350	0.632362
C152	C	1.403565	0.029983	0.965696
C153	C	1.736899	0.363316	1.299029
C154	C	1.070286	-0.139183	0.356940
C155	C	1.403619	0.194151	0.690273
C156	C	1.736952	0.527484	1.023607
C157	C	1.070335	-0.069215	0.356963
C158	C	1.403668	0.264119	0.690296
C159	C	1.737001	0.597452	1.023630
C160	C	1.070171	-0.303344	0.164476
C161	C	1.403504	0.029990	0.497809
C162	C	1.736838	0.363323	0.831142
C163	C	1.070296	-0.303173	0.082162
C164	C	1.403629	0.030160	0.415495
C165	C	1.736963	0.363494	0.748829
C166	C	1.070275	-0.303232	0.931453
C167	C	1.403608	0.030101	1.264787
C168	C	1.736942	0.363434	1.598120
C169	C	1.012811	-0.351719	0.900101
C170	C	1.346144	-0.018385	1.233434
C171	C	1.679478	0.314948	1.566767
C172	C	1.012966	-0.351944	0.814482
C173	C	1.346300	-0.018610	1.147816
C174	C	1.679633	0.314723	1.481149
C175	C	1.070253	-0.303291	0.783071
C176	C	1.403586	0.030042	1.116404
C177	C	1.736920	0.363376	1.449737
C178	C	1.148279	-0.321303	0.814175
C179	C	1.481612	0.012030	1.147509
C180	C	1.814946	0.345364	1.480842
C181	C	1.147959	-0.321621	0.899820
C182	C	1.481292	0.011712	1.233154
C183	C	1.814625	0.345045	1.566487
C184	C	1.050392	-0.236626	0.899882
C185	C	1.383725	0.096707	1.233215
C186	C	1.717058	0.430041	1.566549
C187	C	1.048656	-0.237011	0.814231
C188	C	1.381989	0.096323	1.147564
C189	C	1.715322	0.429656	1.480898
C190	C	1.070245	-0.303323	0.699211
C191	C	1.403579	0.030010	1.032545
C192	C	1.736912	0.363344	1.365878
C193	C	1.070288	-0.303202	1.015313
C194	C	1.403621	0.030131	1.348646
C195	C	1.736955	0.363465	1.681980
H196	H	0.635026	-0.318083	0.479580
H197	H	0.968360	0.015250	0.812913
H198	H	1.301693	0.348584	1.146247
H199	H	1.165426	-0.369476	0.792730
H200	H	1.498759	-0.036143	1.126063
H201	H	1.832093	0.297191	1.459397
H202	H	0.984404	-0.943938	0.270922
H203	H	1.317737	-0.610605	0.604256
H204	H	1.651071	-0.277272	0.937589
H205	H	1.164815	-0.370312	0.919800
H206	H	1.498148	-0.036978	1.253134
H207	H	1.831481	0.296355	1.586467
H208	H	0.507714	-0.322155	0.477735
H209	H	0.841047	0.011179	0.811069
H210	H	1.174381	0.344512	1.144402
H211	H	1.026093	-0.401314	0.793997
H212	H	1.359427	-0.067981	1.127330
H213	H	1.692760	0.265352	1.460663
H214	H	1.155988	-0.542902	0.442865
H215	H	1.489322	-0.209569	0.776198
H216	H	1.822655	0.123765	1.109531
Br217	Br	1.221561	-0.264293	0.780274
Br218	Br	1.554894	0.069041	1.113607
Br219	Br	1.888228	0.402374	1.446940
H220	H	1.156030	-0.662168	0.442900
H221	H	1.489363	-0.328835	0.776233
H222	H	1.822697	0.004499	1.109566
H223	H	0.984452	-1.063207	0.270951
H224	H	1.317786	-0.729874	0.604284
H225	H	1.651119	-0.396541	0.937617
H226	H	0.635037	-0.384213	0.278855
H227	H	0.968370	-0.050880	0.612189
H228	H	1.301703	0.282454	0.945522
Br229	Br	0.958585	-0.680241	0.245140
Br230	Br	1.291918	-0.346908	0.578474
Br231	Br	1.625251	-0.013575	0.911807
H232	H	1.156166	-0.943742	0.442946
H233	H	1.489499	-0.610409	0.776279
H234	H	1.822832	-0.277075	1.109613
Br235	Br	1.181905	-1.080823	0.468725
Br236	Br	1.515238	-0.747490	0.802059
Br237	Br	1.848571	-0.414157	1.135392
H238	H	0.955107	-0.340671	0.793450
H239	H	1.288440	-0.007338	1.126784
H240	H	1.621774	0.325995	1.460117
H241	H	0.507965	-0.383693	0.277840
H242	H	0.841298	-0.050360	0.611174
H243	H	1.174632	0.282973	0.944507
H244	H	0.954777	-0.340562	0.920687
H245	H	1.288111	-0.007229	1.254020
H246	H	1.621444	0.326105	1.587354
H247	H	1.025808	-0.400788	0.921623
H248	H	1.359141	-0.067455	1.254956
H249	H	1.692474	0.265879	1.588290
H250	H	0.506396	-0.239037	0.454702
H251	H	0.839729	0.094296	0.788036
H252	H	1.173063	0.427629	1.121369
H253	H	0.994484	-0.220216	0.921469
H254	H	1.327817	0.113117	1.254802
H255	H	1.661151	0.446450	1.588135
Br256	Br	1.221693	-0.265276	0.934397
Br257	Br	1.555026	0.068057	1.267731
Br258	Br	1.888359	0.401390	1.601064
H259	H	0.506128	-0.265512	0.242217
H260	H	0.839461	0.067821	0.575550
H261	H	1.172795	0.401154	0.908884
Br262	Br	0.952945	-0.214373	0.780358
Br263	Br	1.286279	0.118961	1.113691
Br264	Br	1.619612	0.452294	1.447025
Br265	Br	0.958509	-0.525280	0.245113
Br266	Br	1.291842	-0.191947	0.578446
Br267	Br	1.625175	0.141386	0.911779
H268	H	1.087456	-0.198968	0.792849
H269	H	1.420789	0.134366	1.126182
H270	H	1.754122	0.467699	1.459516
H271	H	1.092246	-0.200501	0.920160
H272	H	1.425579	0.132832	1.253493
H273	H	1.758913	0.466165	1.586827
H274	H	0.634334	-0.205465	0.313100
H275	H	0.967668	0.127869	0.646433
H276	H	1.301001	0.461202	0.979766
H277	H	0.507256	-0.407065	0.374817
H278	H	0.840589	-0.073731	0.708151
H279	H	1.173922	0.259602	1.041484
Br280	Br	0.493392	-0.172295	0.322008
Br281	Br	0.826726	0.161038	0.655342
Br282	Br	1.160059	0.494371	0.988675
H283	H	0.633987	-0.407079	0.375724
H284	H	0.967320	-0.073746	0.709057
H285	H	1.300654	0.259588	1.042390
Br286	Br	0.647393	-0.273188	0.202901
Br287	Br	0.980727	0.060145	0.536234
Br288	Br	1.314060	0.393479	0.869568
H289	H	0.633963	-0.236275	0.450966
H290	H	0.967296	0.097058	0.784299
H291	H	1.300629	0.430392	1.117633
