data_functionalizedCrystal
_audit_creation_method	'MofGen! by Chris Wilmer'
_symmetry_space_group_name_H-M	'P1'
_symmetry_Int_Tables_number	1
_symmetry_cell_setting	triclinic
loop_
_symmetry_equiv_pos_as_xyz
  x,y,z
_cell_length_a	25.639242
_cell_length_b	16.959454
_cell_length_c	16.959447
_cell_angle_alpha	90.026818
_cell_angle_beta	89.973163
_cell_angle_gamma	89.984397
loop_
_atom_site_label
_atom_site_type_symbol
_atom_site_fract_x
_atom_site_fract_y
_atom_site_fract_z
Zn1	Zn	0.799317	0.314760	-0.447137
Zn2	Zn	0.799262	0.446952	-0.314967
Zn3	Zn	0.711886	0.314781	-0.314952
Zn4	Zn	0.711867	0.446890	-0.447082
O5	O	0.755583	0.380846	-0.381034
O6	O	0.872475	0.332312	-0.429633
O7	O	0.787656	0.429455	-0.204354
O8	O	0.723515	0.204167	-0.332503
O9	O	0.872434	0.429434	-0.332528
O10	O	0.787750	0.204152	-0.429619
O11	O	0.723462	0.332349	-0.204343
O12	O	0.638718	0.332289	-0.332450
O13	O	0.723482	0.429327	-0.557701
O14	O	0.638704	0.429348	-0.429526
O15	O	0.787731	0.332252	-0.557741
O16	O	0.787637	0.557555	-0.332476
O17	O	0.723429	0.557509	-0.429541
C18	C	0.755539	0.586212	-0.381021
C19	C	0.755568	0.674068	-0.381042
C20	C	0.619740	0.380814	-0.380981
C21	C	0.561626	0.380820	-0.380977
C22	C	0.755611	0.380780	-0.587203
C23	C	0.755623	0.380752	-0.675059
C24	C	0.201265	0.431469	-0.431534
C25	C	0.146660	0.431474	-0.431546
O26	O	0.118425	0.474499	-0.474487
N27	N	0.119344	0.380867	-0.381086
C28	C	0.146634	0.330247	-0.330616
O29	O	0.118385	0.287202	-0.287697
C30	C	0.201238	0.330239	-0.330608
C31	C	0.228551	0.380854	-0.381066
C32	C	0.228578	0.482080	-0.481989
C33	C	0.283179	0.482076	-0.481975
C34	C	0.310466	0.431461	-0.431507
C35	C	0.283152	0.380850	-0.381052
C36	C	0.228527	0.279615	-0.280142
C37	C	0.283134	0.279611	-0.280139
C38	C	0.310448	0.330226	-0.330597
C39	C	0.365039	0.330232	-0.330570
N40	N	0.392356	0.380838	-0.381030
C41	C	0.365069	0.431453	-0.431499
C42	C	0.031964	0.330267	-0.330637
C43	C	-0.022639	0.330279	-0.330640
C44	C	-0.022609	0.431505	-0.431572
C45	C	0.031994	0.431497	-0.431565
C46	C	0.059280	0.380874	-0.381097
C47	C	0.479734	0.431441	-0.431466
C48	C	0.534339	0.431435	-0.431445
C49	C	0.534305	0.330206	-0.330516
C50	C	0.479704	0.330215	-0.330533
C51	C	0.452420	0.380835	-0.381014
O52	O	0.393309	0.287227	-0.287654
O53	O	0.393325	0.474483	-0.474418
C54	C	0.891956	0.380877	-0.381089
C55	C	0.950070	0.380891	-0.381112
C56	C	0.755641	0.174677	-0.381065
C57	C	0.755666	0.086821	-0.381078
C58	C	0.722198	1.045550	-0.431571
C59	C	0.789113	1.045538	-0.330579
C60	C	0.789095	0.962992	-0.330571
C61	C	0.755627	0.921721	-0.381064
C62	C	0.722177	0.962997	-0.431563
C63	C	0.822540	0.921711	-0.280067
C64	C	0.822523	0.839160	-0.280057
C65	C	0.789057	0.797888	-0.330554
C66	C	0.755607	0.839168	-0.381056
C67	C	0.722139	0.797897	-0.431549
C68	C	0.688690	0.839176	-0.482056
C69	C	0.688712	0.921724	-0.482060
C70	C	0.789036	0.715339	-0.330549
C71	C	0.722118	0.715344	-0.431541
C72	C	0.722246	0.330110	-1.046536
C73	C	0.789092	0.431227	-1.046535
C74	C	0.789083	0.431245	-0.963989
C75	C	0.755654	0.380696	-0.922713
C76	C	0.722234	0.330129	-0.963982
C77	C	0.822498	0.481818	-0.922713
C78	C	0.822490	0.481839	-0.840162
C79	C	0.789063	0.431285	-0.798884
C80	C	0.755643	0.380715	-0.840159
C81	C	0.722214	0.330166	-0.798883
C82	C	0.688796	0.279591	-0.840156
C83	C	0.688808	0.279575	-0.922704
C84	C	0.789051	0.431301	-0.716336
C85	C	0.722203	0.330184	-0.716329
C86	C	0.755585	0.380854	-0.175668
C87	C	0.755674	0.380659	-0.087812
H88	H	0.556576	0.472655	-0.472535
H89	H	0.661576	0.238437	-0.806538
N90	N	0.688104	0.278453	-1.088677
N91	N	0.658259	0.233328	-1.051811
H92	H	0.634145	0.196845	-1.081573
N93	N	0.200703	0.533793	-0.533529
N94	N	0.151951	0.533812	-0.533535
H95	H	0.132266	0.570343	-0.569932
N96	N	0.059900	0.483195	-0.483099
N97	N	0.090354	0.533525	-0.455201
H98	H	0.110061	0.570039	-0.491599
H99	H	0.849784	0.955319	-0.238953
N100	N	0.856679	0.796994	-0.228459
N101	N	0.838287	0.750983	-0.178056
H102	H	0.862408	0.721203	-0.141610
H103	H	-0.044836	0.472716	-0.472669
H104	H	0.816264	0.472473	-0.682735
H105	H	0.816267	0.681734	-0.289424
N106	N	-0.050527	0.278584	-0.279081
N107	N	-0.026151	0.233402	-0.234023
H108	H	-0.045845	0.196888	-0.197609
N109	N	0.654512	0.797014	-0.533642
N110	N	0.657957	0.806178	-0.606586
H111	H	0.633820	0.776399	-0.643020
H112	H	0.054176	0.289045	-0.289535
H113	H	0.849701	0.523021	-0.806564
H114	H	0.694983	0.289017	-0.682728
H115	H	0.305413	0.523290	-0.523065
N116	N	0.451877	0.483150	-0.483037
N117	N	0.476280	0.528331	-0.528078
H118	H	0.456607	0.564853	-0.564498
H119	H	0.661479	0.955341	-0.523179
H120	H	0.661600	0.238401	-0.956316
H121	H	0.206298	0.238401	-0.239051
N122	N	0.310997	0.227887	-0.228588
N123	N	0.286599	0.182700	-0.183548
H124	H	0.306275	0.146169	-0.147140
N125	N	0.451809	0.278517	-0.278980
N126	N	0.476181	0.233332	-0.233921
H127	H	0.456484	0.196814	-0.197514
H128	H	0.694966	1.079163	-0.472694
N129	N	0.823228	0.482861	-1.088706
N130	N	0.823230	0.482842	-1.162410
H131	H	0.847340	0.519310	-1.192198
N132	N	0.823290	1.087704	-0.279003
N133	N	0.823300	1.161408	-0.279013
H134	H	0.847439	1.191191	-0.242586
N135	N	0.562194	0.278505	-0.278981
N136	N	0.592682	0.228178	-0.306888
H137	H	0.612381	0.191660	-0.270496
H138	H	0.849708	0.522981	-0.956326
H139	H	0.694866	0.681746	-0.472662
