data_functionalizedCrystal
_audit_creation_method	'MofGen! by Chris Wilmer'
_symmetry_space_group_name_H-M	'P1'
_symmetry_Int_Tables_number	1
_symmetry_cell_setting	triclinic
loop_
_symmetry_equiv_pos_as_xyz
  x,y,z
_cell_length_a	10.540539
_cell_length_b	9.065218
_cell_length_c	8.140239
_cell_angle_alpha	90.002802
_cell_angle_beta	89.998610
_cell_angle_gamma	95.229312
loop_
_atom_site_label
_atom_site_type_symbol
_atom_site_fract_x
_atom_site_fract_y
_atom_site_fract_z
O1	O	0.186143	-1.959468	-0.136609
O2	O	0.201412	-1.530107	-0.136611
O3	O	0.009107	-1.754583	-0.136608
O4	O	0.378448	-1.734992	-0.136612
O5	O	0.009105	-1.754571	0.136619
O6	O	0.201409	-1.530095	0.136616
O7	O	0.186141	-1.959456	0.136618
Zn8	Zn	0.193775	-1.744773	0.179998
Zn9	Zn	0.193778	-1.744790	-0.179991
O10	O	0.378446	-1.734980	0.136615
C11	C	0.199943	-1.475122	0.000003
C12	C	0.195556	-1.311301	0.000002
C13	C	-0.038202	-1.753108	0.000003
C14	C	-0.179167	-1.748712	-0.000006
N15	N	0.193772	-1.744773	0.425681
C16	C	-0.363216	-1.580278	-0.000620
C17	C	-0.216582	-1.584734	-0.000005
C18	C	-0.240534	-1.827619	0.156020
C19	C	-0.387099	-1.822022	0.156152
C20	C	-0.387602	-1.825372	-0.154558
C21	C	-0.240615	-1.826882	-0.156621
C22	C	0.425755	-1.736455	0.000001
C23	C	0.566719	-1.740851	-0.000001
C24	C	0.187610	-2.014441	0.000001
C25	C	0.191997	-2.178262	-0.000009
N26	N	0.193771	-1.744802	-0.425673
H27	H	-0.174207	-1.522646	-0.111851
H28	H	-0.392055	-1.515508	-0.112509
C29	C	-0.185589	-1.749023	-0.312563
H30	H	-0.223131	-1.796817	-0.406886
H31	H	-0.095978	-1.753938	-0.315429
H32	H	-0.203726	-1.648278	-0.311590
H33	H	-0.393663	-1.515761	0.110642
C34	C	-0.207340	-1.988404	-0.169337
H35	H	-0.245696	-2.032855	-0.265003
H36	H	-0.238292	-2.041847	-0.074977
H37	H	-0.117504	-1.990160	-0.175889
H38	H	-0.175058	-1.522200	0.112027
C39	C	-0.209730	-1.990292	0.163877
H40	H	-0.159043	-2.011580	0.071855
H41	H	-0.286756	-2.053450	0.162433
H42	H	-0.164360	-2.006195	0.262186
H43	H	-0.198138	-1.772796	0.272130
H44	H	-0.415515	-1.763696	0.272784
H45	H	-0.434390	-1.943812	-0.155607
C46	C	-0.430479	-1.753682	-0.314316
H47	H	-0.476643	-1.671524	-0.288245
H48	H	-0.483447	-1.824307	-0.375240
H49	H	-0.357786	-1.720950	-0.378008
H50	H	-0.434632	-1.939953	0.163231
