data_functionalizedCrystal
_audit_creation_method	'MofGen! by Chris Wilmer'
_symmetry_space_group_name_H-M	'P1'
_symmetry_Int_Tables_number	1
_symmetry_cell_setting	triclinic
loop_
_symmetry_equiv_pos_as_xyz
  x,y,z
_cell_length_a	9.065218
_cell_length_b	14.472310
_cell_length_c	9.065218
_cell_angle_alpha	90.000903
_cell_angle_beta	94.984115
_cell_angle_gamma	90.013153
loop_
_atom_site_label
_atom_site_type_symbol
_atom_site_fract_x
_atom_site_fract_y
_atom_site_fract_z
O1	O	1.960421	0.076839	-0.216347
O2	O	2.460421	0.576839	0.283653
O3	O	1.531136	0.076840	-0.234094
O4	O	2.031136	0.576840	0.265906
O5	O	1.754652	0.076838	-0.010578
O6	O	2.254652	0.576838	0.489422
O7	O	1.736905	0.076842	-0.439863
O8	O	2.236905	0.576842	0.060137
O9	O	1.754593	-0.076844	-0.010590
O10	O	2.254593	0.423156	0.489410
O11	O	1.531078	-0.076842	-0.234106
O12	O	2.031078	0.423158	0.265894
O13	O	1.960363	-0.076843	-0.216359
O14	O	2.460363	0.423157	0.283641
Cu15	Cu	1.745715	-0.090875	-0.225234
Cu16	Cu	2.245715	0.409125	0.274766
Cu17	Cu	1.745784	0.090872	-0.225219
Cu18	Cu	2.245784	0.590872	0.274781
O19	O	1.736847	-0.076840	-0.439875
O20	O	2.236847	0.423160	0.060125
C21	C	1.476120	-0.000001	-0.232394
C22	C	1.976120	0.499999	0.267606
C23	C	1.312277	-0.000000	-0.227294
C24	C	1.812277	0.500000	0.272706
N25	N	1.745677	-0.218706	-0.225243
N26	N	2.245677	0.281294	0.274757
C27	C	1.745782	-0.592797	-0.225213
C28	C	2.245782	-0.092797	0.274787
C29	C	1.625771	-0.553630	-0.344400
C30	C	2.125771	-0.053630	0.155600
C31	C	1.626057	-0.446542	-0.344844
C32	C	2.126057	0.053458	0.155156
C33	C	1.745729	-0.407206	-0.225228
C34	C	2.245729	0.092794	0.274772
C35	C	1.900138	-0.446043	-0.260913
C36	C	2.400138	0.053957	0.239087
C37	C	1.899466	-0.553164	-0.261762
C38	C	2.399466	-0.053164	0.238238
C39	C	1.712752	-0.553327	-0.070002
C40	C	2.212752	-0.053327	0.429998
C41	C	1.709234	-0.446200	-0.070987
C42	C	2.209234	0.053800	0.429013
C43	C	1.745708	-0.302318	-0.225234
C44	C	2.245708	0.197682	0.274766
C45	C	1.745812	-0.697685	-0.225211
C46	C	2.245812	-0.197685	0.274789
C47	C	2.015378	0.000000	-0.218059
C48	C	2.515378	0.500000	0.281941
C49	C	2.179221	0.000006	-0.223158
C50	C	2.679221	0.500006	0.276842
C51	C	1.752917	-0.000002	0.044403
C52	C	2.252917	0.499998	0.544403
C53	C	1.747817	0.000003	0.208245
C54	C	2.247817	0.500003	0.708245
N55	N	1.745833	0.218703	-0.225198
N56	N	2.245833	0.718703	0.274802
C57	C	1.738582	0.000001	-0.494855
C58	C	2.238582	0.500001	0.005145
C59	C	1.743681	0.000003	-0.658698
C60	C	2.243681	0.500003	-0.158698
H61	H	1.511348	-0.420286	-0.323280
H62	H	2.011348	0.079714	0.176720
C63	C	2.023909	-0.588166	-0.149130
C64	C	2.523909	-0.088166	0.350870
N65	N	2.117655	-0.614525	-0.064316
N66	N	2.617655	-0.114525	0.435684
C67	C	1.938335	-0.586906	-0.414777
C68	C	2.438335	-0.086906	0.085223
N69	N	1.967599	-0.612316	-0.530036
N70	N	2.467599	-0.112316	-0.030036
H71	H	1.991661	-0.420560	-0.176498
H72	H	2.491661	0.079440	0.323502
C73	C	1.939886	-0.409799	-0.412202
C74	C	2.439886	0.090201	0.087798
N75	N	1.969813	-0.382505	-0.526161
N76	N	2.469813	0.117495	-0.026161
H77	H	1.602489	-0.580395	-0.036199
H78	H	2.102489	-0.080395	0.463801
H79	H	1.595638	-0.420818	-0.043954
H80	H	2.095638	0.079182	0.456046
C81	C	1.819461	-0.410051	0.054662
C82	C	2.319461	0.089949	0.554662
N83	N	1.902505	-0.382831	0.149297
N84	N	2.402505	0.117169	0.649297
H85	H	1.800246	-0.578655	0.018717
H86	H	2.300246	-0.078655	0.518717
H87	H	1.510695	-0.579417	-0.323160
H88	H	2.010695	-0.079417	0.176840
H89	H	1.646796	-0.580538	-0.458886
H90	H	2.146796	-0.080538	0.041114
H91	H	1.647364	-0.420906	-0.459981
H92	H	2.147364	0.079094	0.040019
