data_functionalizedCrystal
_audit_creation_method	'MofGen! by Chris Wilmer'
_symmetry_space_group_name_H-M	'P1'
_symmetry_Int_Tables_number	1
_symmetry_cell_setting	triclinic
loop_
_symmetry_equiv_pos_as_xyz
  x,y,z
_cell_length_a	17.640280
_cell_length_b	19.077241
_cell_length_c	19.076919
_cell_angle_alpha	90.113904
_cell_angle_beta	81.491119
_cell_angle_gamma	99.396604
loop_
_atom_site_label
_atom_site_type_symbol
_atom_site_fract_x
_atom_site_fract_y
_atom_site_fract_z
Zn1	Zn	-0.282357	-1.111131	-0.391927
Zn2	Zn	-0.407003	-1.139098	-0.252949
Zn3	Zn	-0.281947	-0.998270	-0.269775
Zn4	Zn	-0.417377	-1.018858	-0.363898
O5	O	-0.347171	-1.066839	-0.319637
O6	O	-0.294721	-1.212394	-0.378180
O7	O	-0.385901	-1.123504	-0.157628
O8	O	-0.173159	-0.992921	-0.304751
O9	O	-0.386298	-1.232941	-0.276074
O10	O	-0.173460	-1.075840	-0.394495
O11	O	-0.294023	-1.020039	-0.169990
O12	O	-0.304082	-0.903448	-0.277572
O13	O	-0.403979	-1.028011	-0.465169
O14	O	-0.403582	-0.918574	-0.346723
O15	O	-0.304781	-1.095803	-0.485762
O16	O	-0.517221	-1.143468	-0.248895
O17	O	-0.524843	-1.055129	-0.330408
C18	C	-0.354914	-0.885717	-0.310932
C19	C	-0.358246	-0.808235	-0.307222
C20	C	-0.312215	-0.761149	-0.358694
C21	C	-0.315341	-0.688346	-0.355202
C22	C	-0.364504	-0.662630	-0.300240
C23	C	-0.410538	-0.709722	-0.248762
C24	C	-0.407406	-0.782523	-0.252252
C25	C	-0.378970	-0.446044	-0.284094
C26	C	-0.382099	-0.373238	-0.280609
C27	C	-0.286902	-0.351867	-0.387049
C28	C	-0.283778	-0.424671	-0.390536
C29	C	-0.329808	-0.471755	-0.339056
N30	N	-0.367703	-0.588214	-0.296671
N31	N	-0.326605	-0.546169	-0.342624
C32	C	-0.549254	-1.104586	-0.284800
C33	C	-0.635704	-1.120797	-0.269923
C34	C	-0.940003	-0.943964	-0.432924
C35	C	-1.021235	-0.959199	-0.418923
C36	C	-1.013235	-1.051239	-0.334136
C37	C	-0.932000	-1.036014	-0.348132
C38	C	-0.895391	-0.982375	-0.397527
C39	C	-0.887388	-1.074425	-0.312735
C40	C	-0.806161	-1.059199	-0.326728
C41	C	-0.769546	-1.005561	-0.376119
C42	C	-0.814164	-0.967149	-0.411520
C43	C	-0.923999	-1.128060	-0.263337
C44	C	-0.879387	-1.166472	-0.227940
C45	C	-0.798158	-1.151249	-0.241937
C46	C	-0.761543	-1.097612	-0.291327
C47	C	-0.753540	-1.189662	-0.206536
C48	C	-0.672313	-1.174435	-0.220529
C49	C	-0.680316	-1.082385	-0.305320
C50	C	-0.144299	-1.028964	-0.354627
C51	C	-0.057847	-1.012824	-0.369537
C52	C	-0.355583	-1.061084	-0.501467
C53	C	-0.359168	-1.058631	-0.578952
C54	C	-0.339394	-0.248669	-0.328372
C55	C	-0.336068	-0.326152	-0.332082
C56	C	-0.309207	-1.092773	-0.626077
C57	C	-0.312573	-1.090460	-0.698883
C58	C	-0.365904	-1.054008	-0.724562
C59	C	-0.415867	-1.019862	-0.677431
C60	C	-0.412497	-1.022172	-0.604627
C61	C	-0.381517	-1.043312	-0.941151
C62	C	-0.384885	-1.041007	-1.013961
C63	C	-0.281590	-1.111603	-1.035408
C64	C	-0.278227	-1.113913	-0.962601
C65	C	-0.328188	-1.079764	-0.915478
N66	N	-0.369347	-1.051645	-0.798980
N67	N	-0.324740	-1.082124	-0.841061
C68	C	-0.338734	-1.072602	-0.138526
C69	C	-0.334924	-1.075149	-0.061086
H70	H	-0.444889	-0.820860	-0.210337
Br71	Br	-0.659308	-0.985066	-0.395297
H72	H	-0.784355	-0.923476	-0.451747
Br73	Br	-0.244800	-1.136836	-0.762832
H74	H	-0.234802	-1.143598	-0.941700
H75	H	-0.650507	-1.038712	-0.345548
Br76	Br	-0.890311	-0.871176	-0.499969
Br77	Br	-1.081779	-0.907052	-0.466956
Br78	Br	-1.062926	-1.124032	-0.267103
H79	H	-0.428315	-1.011322	-1.034865
H80	H	-0.990140	-1.140457	-0.251948
H81	H	-0.909206	-1.210142	-0.187721
H82	H	-0.240914	-1.139405	-1.073784
Br83	Br	-0.803234	-1.262448	-0.139496
H84	H	-0.422209	-1.015518	-0.902790
H85	H	-0.635989	-1.205713	-0.191704
Br86	Br	-0.217062	-0.459566	-0.465136
H87	H	-0.422137	-0.352304	-0.235851
Br88	Br	-0.236832	-1.142252	-0.591235
H89	H	-0.459287	-0.990180	-0.698345
H90	H	-0.453173	-0.994361	-0.566259
H91	H	-0.416452	-0.484372	-0.242176
Br92	Br	-0.224435	-0.287964	-0.456910
Br93	Br	-0.252868	-0.624446	-0.425061
Br94	Br	-0.245496	-0.796042	-0.433293
Br95	Br	-0.477253	-0.674822	-0.174165
