data_functionalizedCrystal
_audit_creation_method	'MofGen! by Chris Wilmer'
_symmetry_space_group_name_H-M	'P1'
_symmetry_Int_Tables_number	1
_symmetry_cell_setting	triclinic
loop_
_symmetry_equiv_pos_as_xyz
  x,y,z
_cell_length_a	14.908571
_cell_length_b	12.759394
_cell_length_c	12.759387
_cell_angle_alpha	89.968595
_cell_angle_beta	86.687440
_cell_angle_gamma	86.711101
loop_
_atom_site_label
_atom_site_type_symbol
_atom_site_fract_x
_atom_site_fract_y
_atom_site_fract_z
Zn1	Zn	1.379261	-0.511036	-0.686587
Zn2	Zn	1.379175	-0.686747	-0.510899
Zn3	Zn	1.228396	-0.500935	-0.500796
Zn4	Zn	1.228380	-0.676520	-0.676415
O5	O	1.303803	-0.593810	-0.593674
O6	O	1.505496	-0.542852	-0.671766
O7	O	1.359145	-0.662151	-0.362536
O8	O	1.248451	-0.355257	-0.525471
O9	O	1.505433	-0.671946	-0.542689
O10	O	1.359291	-0.362678	-0.661970
O11	O	1.248368	-0.525636	-0.355113
O12	O	1.102148	-0.515719	-0.515608
O13	O	1.248424	-0.654516	-0.824788
O14	O	1.102136	-0.644721	-0.644634
O15	O	1.359276	-0.532936	-0.832261
O16	O	1.359130	-0.832408	-0.532826
O17	O	1.248341	-0.824895	-0.654430
C18	C	1.069408	-0.578015	-0.577922
C19	C	0.969133	-0.571283	-0.571207
C20	C	0.780741	-0.693171	-0.692766
C21	C	0.686524	-0.686849	-0.686461
C22	C	0.686478	-0.552313	-0.552299
C23	C	0.780696	-0.558635	-0.558604
C24	C	0.827824	-0.629068	-0.628838
C25	C	0.922043	-0.635394	-0.635137
C26	C	0.921996	-0.500853	-0.500981
C27	C	0.827779	-0.494531	-0.494676
C28	C	1.303749	-0.866773	-0.593645
C29	C	1.303808	-0.983554	-0.593674
C30	C	1.419259	-0.991331	-0.467154
C31	C	1.477008	-1.050081	-0.403908
C32	C	1.477061	-1.159806	-0.403940
C33	C	1.419361	-1.210783	-0.467227
C34	C	1.361612	-1.152032	-0.530473
C35	C	1.361563	-1.042305	-0.530432
C36	C	1.246167	-1.144256	-0.656997
C37	C	1.246108	-1.034531	-0.656961
C38	C	1.188467	-1.195233	-0.720284
C39	C	1.130712	-1.136482	-0.783526
C40	C	1.130661	-1.026750	-0.783491
C41	C	1.188359	-0.975780	-0.720207
C42	C	1.539114	-0.609667	-0.609489
C43	C	1.639389	-0.616424	-0.616229
C44	C	1.303858	-0.593711	-0.867712
C45	C	1.303881	-0.593670	-0.984490
C46	C	1.303882	-0.319781	-0.593728
C47	C	1.303916	-0.203007	-0.593751
C48	C	1.419297	-0.735754	-1.211648
C49	C	1.476956	-0.806851	-1.160640
C50	C	1.476926	-0.806889	-1.050917
C51	C	1.419229	-0.735825	-0.992198
C52	C	1.361570	-0.664728	-1.043206
C53	C	1.361608	-0.664696	-1.152932
C54	C	1.246222	-0.522573	-1.035498
C55	C	1.246255	-0.522528	-1.145222
C56	C	1.188525	-0.451509	-0.976779
C57	C	1.130869	-0.380406	-1.027787
C58	C	1.130902	-0.380370	-1.137518
C59	C	1.188596	-0.451432	-1.196230
C60	C	1.303801	-0.593835	-0.320707
C61	C	1.303952	-0.593593	-0.203941
H62	H	0.819114	-0.750526	-0.749948
H63	H	1.188317	-0.886436	-0.720165
H64	H	0.648192	-0.739047	-0.738519
Cl65	Cl	1.419351	-0.735698	-1.349589
Cl66	Cl	1.549480	-0.896189	-1.234462
H67	H	1.419417	-1.300128	-0.467257
H68	H	1.083638	-0.978921	-0.834998
Cl69	Cl	1.549406	-0.896274	-0.986789
Cl70	Cl	1.188646	-0.451389	-1.334170
H71	H	1.419210	-0.901986	-0.467107
H72	H	1.419202	-0.735871	-0.902855
Cl73	Cl	1.188488	-0.451557	-0.838840
H74	H	1.188518	-1.284578	-0.720311
H75	H	0.648090	-0.494964	-0.495124
Cl76	Cl	1.058349	-0.291073	-0.953966
H77	H	1.083741	-1.177997	-0.835055
H78	H	0.960414	-0.692745	-0.692324
Cl79	Cl	0.768523	-0.405989	-0.406391
Cl80	Cl	1.058410	-0.290987	-1.201632
H81	H	0.960341	-0.448657	-0.448925
H82	H	1.523989	-1.008567	-0.352382
H83	H	1.524089	-1.207642	-0.352445
