data_functionalizedCrystal
_audit_creation_method	'MofGen! by Chris Wilmer'
_symmetry_space_group_name_H-M	'P1'
_symmetry_Int_Tables_number	1
_symmetry_cell_setting	triclinic
loop_
_symmetry_equiv_pos_as_xyz
  x,y,z
_cell_length_a	18.050590
_cell_length_b	21.295417
_cell_length_c	18.050582
_cell_angle_alpha	89.974292
_cell_angle_beta	90.000767
_cell_angle_gamma	90.018869
loop_
_atom_site_label
_atom_site_type_symbol
_atom_site_fract_x
_atom_site_fract_y
_atom_site_fract_z
Zn1	Zn	1.135285	-0.250831	-0.419585
Zn2	Zn	1.635285	0.249169	0.080415
Zn3	Zn	1.135192	-0.356092	-0.295389
Zn4	Zn	1.635192	0.143908	0.204611
Zn5	Zn	1.011104	-0.250821	-0.295444
Zn6	Zn	1.511104	0.249179	0.204556
Zn7	Zn	1.011049	-0.356047	-0.419571
Zn8	Zn	1.511049	0.143953	0.080429
O9	O	1.073157	-0.303448	-0.357497
O10	O	1.573157	0.196552	0.142503
O11	O	1.239197	-0.264818	-0.403093
O12	O	1.739197	0.235182	0.096907
O13	O	1.118716	-0.342143	-0.191471
O14	O	1.618716	0.157857	0.308529
O15	O	1.027639	-0.162733	-0.311940
O16	O	1.527639	0.337267	0.188060
O17	O	1.239129	-0.342153	-0.311847
O18	O	1.739129	0.157847	0.188153
O19	O	1.118874	-0.162741	-0.403147
O20	O	1.618874	0.337259	0.096853
O21	O	1.027549	-0.264801	-0.191512
O22	O	1.527549	0.235199	0.308488
O23	O	0.907172	-0.264756	-0.311926
O24	O	1.407172	0.235244	0.188074
O25	O	1.027545	-0.342075	-0.523498
O26	O	1.527545	0.157925	-0.023498
O27	O	0.907132	-0.342065	-0.403122
O28	O	1.407132	0.157935	0.096878
O29	O	1.118820	-0.264773	-0.523508
O30	O	1.618820	0.235227	-0.023508
O31	O	1.118663	-0.444176	-0.311833
O32	O	1.618663	0.055824	0.188167
O33	O	1.027455	-0.444142	-0.403069
O34	O	1.527455	0.055858	0.096931
C35	C	0.880205	-0.303405	-0.357529
C36	C	1.380205	0.196595	0.142471
C37	C	0.797660	-0.303402	-0.357560
C38	C	1.297660	0.196598	0.142440
C39	C	0.598208	-0.345562	-0.407035
C40	C	1.098208	0.154438	0.092965
C41	C	0.548817	-0.288165	-0.425314
C42	C	1.048817	0.211835	0.074686
C43	C	0.646529	-0.303437	-0.357524
C44	C	1.146529	0.196563	0.142476
C45	C	0.548839	-0.360867	-0.339245
C46	C	1.048839	0.139133	0.160755
C47	C	0.500544	-0.303476	-0.357491
C48	C	1.000544	0.196524	0.142509
C49	C	0.598225	-0.246009	-0.375838
C50	C	1.098225	0.253991	0.124162
C51	C	0.598251	-0.318749	-0.289738
C52	C	1.098251	0.181251	0.210262
C53	C	0.548882	-0.261313	-0.307991
C54	C	1.048882	0.238687	0.192009
C55	C	0.730627	-0.303415	-0.357545
C56	C	1.230627	0.196585	0.142455
C57	C	0.416448	-0.303491	-0.357469
C58	C	0.916448	0.196509	0.142531
C59	C	1.073063	-0.467000	-0.357460
C60	C	1.573063	0.033000	0.142540
C61	C	1.073090	-0.536968	-0.357468
C62	C	1.573090	-0.036968	0.142532
C63	C	1.120569	-0.569781	-0.404994
C64	C	1.620569	-0.069781	0.095006
C65	C	1.120595	-0.635523	-0.405012
C66	C	1.620595	-0.135523	0.094988
C67	C	1.073150	-0.668450	-0.357492
C68	C	1.573150	-0.168450	0.142508
C69	C	1.025662	-0.635629	-0.309963
C70	C	1.525662	-0.135629	0.190037
C71	C	1.025632	-0.569888	-0.309952
C72	C	1.525632	-0.069888	0.190048
N73	N	1.067546	-0.771706	-0.292499
N74	N	1.567546	-0.271706	0.207501
N75	N	1.067579	-0.834158	-0.292512
N76	N	1.567579	-0.334158	0.207488
C77	C	1.073237	-0.866525	-0.357525
C78	C	1.573237	-0.366525	0.142475
N79	N	1.078875	-0.834081	-0.422526
N80	N	1.578875	-0.334081	0.077474
N81	N	1.078846	-0.771624	-0.422512
N82	N	1.578846	-0.271624	0.077488
C83	C	1.073178	-0.739735	-0.357499
C84	C	1.573178	-0.239735	0.142501
C85	C	1.120747	-0.970624	-0.405074
C86	C	1.620747	-0.470624	0.094926
C87	C	1.120768	-1.036367	-0.405094
C88	C	1.620768	-0.536367	0.094906
C89	C	1.025839	-1.036472	-0.310039
C90	C	1.525839	-0.536472	0.189961
C91	C	1.025814	-0.970729	-0.310026
C92	C	1.525814	-0.470729	0.189974
C93	C	1.073272	-0.937809	-0.357542
C94	C	1.573272	-0.437809	0.142458
C95	C	1.266863	-0.303492	-0.357465
C96	C	1.766863	0.196508	0.142535
C97	C	1.349409	-0.303510	-0.357452
C98	C	1.849409	0.196490	0.142548
C99	C	1.073187	-0.303420	-0.551203
C100	C	1.573187	0.196580	-0.051203
C101	C	1.073199	-0.303408	-0.633749
C102	C	1.573199	0.196592	-0.133749
C103	C	1.073273	-0.139258	-0.357551
C104	C	1.573273	0.360742	0.142449
C105	C	1.073322	-0.069290	-0.357574
C106	C	1.573322	0.430710	0.142426
C107	C	1.023601	-0.345387	-0.833194
C108	C	1.523601	0.154613	-0.333194
C109	C	1.091356	-0.360785	-0.882566
C110	C	1.591356	0.139215	-0.382566
C111	C	1.073236	-0.303360	-0.784879
C112	C	1.573236	0.196640	-0.284879
C113	C	1.005518	-0.287944	-0.882589
C114	C	1.505518	0.212056	-0.382589
C115	C	1.073265	-0.303315	-0.930864
C116	C	1.573265	0.196685	-0.430864
C117	C	1.141026	-0.318788	-0.833164
C118	C	1.641026	0.181212	-0.333164
C119	C	1.055142	-0.245921	-0.833183
C120	C	1.555142	0.254079	-0.333183
C121	C	1.122944	-0.261297	-0.882532
C122	C	1.622944	0.238703	-0.382532
C123	C	1.073218	-0.303388	-0.700781
C124	C	1.573218	0.196612	-0.200781
C125	C	1.073291	-0.303287	-1.014961
C126	C	1.573291	0.196713	-0.514961
C127	C	1.073171	-0.303430	-0.164545
C128	C	1.573171	0.196570	0.335455
C129	C	1.073303	-0.303265	-0.082000
C130	C	1.573303	0.196735	0.418000
H131	H	0.619981	-0.331705	-0.232443
H132	H	1.119981	0.168295	0.267557
H133	H	0.527142	-0.409418	-0.323800
H134	H	1.027142	0.090582	0.176200
O135	O	1.166689	-0.537901	-0.451223
O136	O	1.666689	-0.037901	0.048777
C137	C	1.260886	-0.544739	-0.545465
C138	C	1.760886	-0.044739	-0.045465
C139	C	1.208682	-0.580922	-0.493161
C140	C	1.708682	-0.080922	0.006839
H141	H	1.294862	-0.579506	-0.579374
H142	H	1.794862	-0.079506	-0.079374
H143	H	1.226790	-0.513979	-0.584322
H144	H	1.726790	-0.013979	-0.084322
H145	H	1.299693	-0.513937	-0.511374
H146	H	1.799693	-0.013937	-0.011374
H147	H	1.169864	-0.611758	-0.527192
H148	H	1.669864	-0.111758	-0.027192
H149	H	1.242824	-0.611643	-0.454301
H150	H	1.742824	-0.111643	0.045699
H151	H	1.198323	-0.331863	-0.811545
H152	H	1.698323	0.168137	-0.311545
H153	H	0.987031	-0.662442	-0.271274
H154	H	1.487031	-0.162442	0.228726
H155	H	0.986968	-0.543170	-0.271250
H156	H	1.486968	-0.043170	0.228750
O157	O	1.173145	-0.218868	-0.908093
O158	O	1.673145	0.281132	-0.408093
C159	C	1.265403	-0.141507	-0.876744
C160	C	1.765403	0.358493	-0.376744
C161	C	1.208586	-0.189542	-0.847698
C162	C	1.708586	0.310458	-0.347698
H163	H	1.294062	-0.117774	-0.827929
H164	H	1.794062	0.382226	-0.327929
H165	H	1.308428	-0.166571	-0.912263
H166	H	1.808428	0.333429	-0.412263
H167	H	1.235740	-0.104580	-0.911552
H168	H	1.735740	0.395420	-0.411552
H169	H	1.238185	-0.226481	-0.812859
H170	H	1.738185	0.273519	-0.312859
H171	H	1.165564	-0.164434	-0.812219
H172	H	1.665564	0.335566	-0.312219
O173	O	0.624090	-0.388060	-0.456934
O174	O	1.124090	0.111940	0.043066
C175	C	0.696404	-0.481673	-0.476611
C176	C	1.196404	0.018327	0.023389
C177	C	0.667127	-0.433603	-0.420019
C178	C	1.167127	0.066397	0.079981
H179	H	0.731219	-0.518499	-0.446789
H180	H	1.231219	-0.018499	0.053211
H181	H	0.647728	-0.505528	-0.505380
H182	H	1.147728	-0.005528	-0.005380
H183	H	0.731985	-0.456546	-0.519574
H184	H	1.231985	0.043454	-0.019574
H185	H	0.631558	-0.458683	-0.377011
H186	H	1.131558	0.041317	0.122989
H187	H	0.715837	-0.409750	-0.391306
H188	H	1.215837	0.090250	0.108694
O189	O	1.036713	-0.188031	-0.807311
O190	O	1.536713	0.311969	-0.307311
C191	C	0.944472	-0.106337	-0.803132
C192	C	1.444472	0.393663	-0.303132
C193	C	0.965254	-0.171907	-0.832470
C194	C	1.465254	0.328093	-0.332470
H195	H	0.886703	-0.093275	-0.823474
H196	H	1.386703	0.406725	-0.323474
H197	H	0.945122	-0.106793	-0.739979
H198	H	1.445122	0.393207	-0.239979
H199	H	0.986238	-0.070378	-0.824267
H200	H	1.486238	0.429622	-0.324267
H201	H	0.923508	-0.207902	-0.811389
H202	H	1.423508	0.292098	-0.311389
H203	H	0.964627	-0.171399	-0.895621
H204	H	1.464627	0.328601	-0.395621
H205	H	0.527103	-0.275226	-0.482625
H206	H	1.027103	0.224774	0.017375
H207	H	1.159252	-0.662245	-0.443721
H208	H	1.659252	-0.162245	0.056279
O209	O	0.973564	-0.387885	-0.807467
O210	O	1.473564	0.112115	-0.307467
C211	C	0.882229	-0.466118	-0.838507
C212	C	1.382229	0.033882	-0.338507
C213	C	0.938878	-0.418022	-0.867743
C214	C	1.438878	0.081978	-0.367743
H215	H	0.854158	-0.490487	-0.887225
H216	H	1.354158	0.009513	-0.387225
H217	H	0.911833	-0.502532	-0.802904
H218	H	1.411833	-0.002532	-0.302904
H219	H	0.838719	-0.440903	-0.803737
H220	H	1.338719	0.059097	-0.303737
H221	H	0.982403	-0.443183	-0.902544
H222	H	1.482403	0.056817	-0.402544
H223	H	0.909222	-0.381611	-0.903305
H224	H	1.409222	0.118389	-0.403305
O225	O	1.166786	-1.068271	-0.451342
O226	O	1.666786	-0.568271	0.048658
C227	C	1.176758	-1.142461	-0.551603
C228	C	1.676758	-0.642461	-0.051603
C229	C	1.124556	-1.106359	-0.499285
C230	C	1.624556	-0.606359	0.000715
H231	H	1.142637	-1.173274	-0.590368
H232	H	1.642637	-0.673274	-0.090368
H233	H	1.210657	-1.107663	-0.585612
H234	H	1.710657	-0.607663	-0.085612
H235	H	1.215637	-1.173207	-0.517520
H236	H	1.715637	-0.673207	-0.017520
H237	H	1.085632	-1.075612	-0.533311
H238	H	1.585632	-0.575612	-0.033311
H239	H	1.090710	-1.141190	-0.465274
H240	H	1.590710	-0.641190	0.034726
H241	H	0.948238	-0.274925	-0.904300
H242	H	1.448238	0.225075	-0.404300
O243	O	0.624114	-0.188115	-0.394370
O244	O	1.124114	0.311885	0.105630
C245	C	0.731444	-0.123133	-0.415132
C246	C	1.231444	0.376867	0.084868
C247	C	0.702223	-0.188728	-0.394150
C248	C	1.202223	0.311272	0.105850
H249	H	0.794597	-0.123604	-0.414946
H250	H	1.294597	0.376396	0.085054
H251	H	0.710694	-0.110000	-0.472743
H252	H	1.210694	0.390000	0.027257
H253	H	0.710662	-0.087219	-0.373186
H254	H	1.210662	0.412781	0.126814
H255	H	0.722992	-0.224686	-0.436046
H256	H	1.222992	0.275314	0.063954
H257	H	0.722966	-0.201809	-0.336521
H258	H	1.222966	0.298191	0.163479
H259	H	0.527360	-0.225664	-0.266107
H260	H	1.027360	0.274336	0.233893
H261	H	1.106677	-0.409341	-0.904257
H262	H	1.606677	0.090659	-0.404257
O263	O	1.166858	-0.938738	-0.451310
O264	O	1.666858	-0.438738	0.048690
C265	C	1.261035	-0.945572	-0.545573
C266	C	1.761035	-0.445572	-0.045573
C267	C	1.208843	-0.981757	-0.493259
C268	C	1.708843	-0.481757	0.006741
H269	H	1.295004	-0.980337	-0.579491
H270	H	1.795004	-0.480337	-0.079491
H271	H	1.226928	-0.914812	-0.584422
H272	H	1.726928	-0.414812	-0.084422
H273	H	1.299848	-0.914769	-0.511490
H274	H	1.799848	-0.414769	-0.011490
H275	H	1.170019	-1.012594	-0.527281
H276	H	1.670019	-0.512594	-0.027281
H277	H	1.242995	-1.012478	-0.454407
H278	H	1.742995	-0.512478	0.045593
H279	H	0.987204	-1.063280	-0.271351
H280	H	1.487204	-0.563280	0.228649
H281	H	0.987155	-0.944011	-0.271323
H282	H	1.487155	-0.444011	0.228677
