data_functionalizedCrystal
_audit_creation_method	'MofGen! by Chris Wilmer'
_symmetry_space_group_name_H-M	'P1'
_symmetry_Int_Tables_number	1
_symmetry_cell_setting	triclinic
loop_
_symmetry_equiv_pos_as_xyz
  x,y,z
_cell_length_a	16.109302
_cell_length_b	16.109301
_cell_length_c	18.366186
_cell_angle_alpha	89.993749
_cell_angle_beta	89.989012
_cell_angle_gamma	83.461682
loop_
_atom_site_label
_atom_site_type_symbol
_atom_site_fract_x
_atom_site_fract_y
_atom_site_fract_z
O1	O	1.103137	0.106871	-0.060582
O2	O	0.861075	0.120170	-0.060577
O3	O	0.988756	-0.007510	-0.060575
O4	O	0.975456	0.234552	-0.060584
O5	O	0.988734	-0.007517	0.060525
O6	O	0.861053	0.120164	0.060523
O7	O	1.103115	0.106865	0.060517
Zn8	Zn	0.982081	0.113513	0.079747
Zn9	Zn	0.982109	0.113522	-0.079807
O10	O	0.975435	0.234545	0.060515
C11	C	0.830089	0.119628	-0.000026
C12	C	0.737794	0.118013	-0.000024
C13	C	0.525441	0.114274	0.065980
C14	C	0.438721	0.112747	0.065978
C15	C	0.438755	0.112758	-0.066051
C16	C	0.525475	0.114279	-0.066048
C17	C	0.568815	0.115041	-0.000030
C18	C	0.395375	0.111994	-0.000036
C19	C	0.301350	0.110338	-0.000039
C20	C	0.662847	0.116695	-0.000027
C21	C	0.988206	-0.038488	-0.000025
C22	C	0.986591	-0.130784	-0.000026
C23	C	1.057074	-0.439782	-0.000041
C24	C	1.058599	-0.353062	-0.000036
C25	C	0.907111	-0.333189	-0.000023
C26	C	0.905586	-0.419907	-0.000022
C27	C	0.980570	-0.473202	-0.000035
C28	C	0.983620	-0.299763	-0.000031
C29	C	0.985273	-0.205737	-0.000027
C30	C	0.978917	-0.567234	-0.000038
C31	C	1.134101	0.107407	-0.000035
C32	C	1.226396	0.109022	-0.000042
C33	C	0.975984	0.265523	-0.000036
C34	C	0.977600	0.357819	-0.000040
N35	N	0.982067	0.113507	0.188638
N36	N	0.982129	0.113521	-0.188698
C37	C	1.038623	0.056998	0.226739
C38	C	1.038628	0.056994	0.302967
C39	C	0.982086	0.113514	0.341091
C40	C	0.925520	0.170027	0.302981
C41	C	0.925511	0.170024	0.226754
C42	C	0.971173	0.189236	0.461848
C43	C	0.971188	0.189241	0.538073
C44	C	0.982109	0.113524	0.576198
C45	C	0.993034	0.037800	0.538089
C46	C	0.993025	0.037797	0.461863
C47	C	0.982089	0.113524	0.423746
C48	C	1.038674	0.057007	0.696955
C49	C	1.038673	0.057002	0.773184
C50	C	0.925569	0.170042	0.773196
C51	C	0.925565	0.170040	0.696968
C52	C	0.982122	0.113523	0.658852
H53	H	0.403410	0.112123	0.119730
H54	H	0.560726	0.114894	0.119736
O55	O	0.392010	0.111949	-0.137255
H56	H	0.324420	0.110773	-0.126169
H57	H	1.001918	-0.023861	0.430837
O58	O	1.099640	-0.003953	0.344070
H59	H	1.064669	-0.044380	0.378812
H60	H	1.118131	-0.483172	-0.000051
H61	H	1.084723	0.010985	0.665919
H62	H	1.084673	0.010977	0.195708
H63	H	0.560791	0.114902	-0.119805
H64	H	0.846061	-0.289786	-0.000015
H65	H	1.120896	-0.325856	-0.000040
O66	O	0.864586	0.231021	0.814292
H67	H	0.824187	0.196027	0.849044
O68	O	0.823066	-0.455959	-0.000009
H69	H	0.818753	-0.494997	-0.049361
H70	H	1.001927	-0.023856	0.569129
O71	O	1.099684	-0.003941	0.814285
H72	H	1.139015	-0.043230	0.774971
H73	H	0.962298	0.250900	0.569096
H74	H	0.879516	0.216058	0.665944
O75	O	0.959398	0.270907	0.420729
H76	H	0.951819	0.323561	0.460033
O77	O	0.864537	0.230994	0.344093
H78	H	0.874051	0.221511	0.403500
H79	H	0.879455	0.216041	0.195731
