data_functionalizedCrystal
_audit_creation_method	'MofGen! by Chris Wilmer'
_symmetry_space_group_name_H-M	'P1'
_symmetry_Int_Tables_number	1
_symmetry_cell_setting	triclinic
loop_
_symmetry_equiv_pos_as_xyz
  x,y,z
_cell_length_a	6.817900
_cell_length_b	16.306198
_cell_length_c	19.453114
_cell_angle_alpha	95.863791
_cell_angle_beta	101.709288
_cell_angle_gamma	103.467075
loop_
_atom_site_label
_atom_site_type_symbol
_atom_site_fract_x
_atom_site_fract_y
_atom_site_fract_z
V1	V	-4.006756	-0.117598	-0.219249
O2	O	-3.994744	0.004747	-0.214820
O3	O	-3.958319	-0.232308	-0.217996
O4	O	-3.949671	-0.116186	-0.314759
O5	O	-4.003452	-0.112179	-0.117387
V6	V	-4.491514	-0.102917	-0.207036
O7	O	-4.265305	-0.149802	-0.246041
O8	O	-4.683162	-0.070714	-0.180245
O9	O	-4.316744	0.011793	-0.208289
O10	O	-4.620922	-0.225263	-0.211465
O11	O	-4.612215	-0.108337	-0.308899
O12	O	-4.325392	-0.104330	-0.111526
C13	C	-3.803591	-0.260259	-0.214600
C14	C	-3.845217	-0.354039	-0.214212
C15	C	-3.996297	-0.694784	-0.212792
C16	C	-4.200014	-0.664254	-0.216923
C17	C	-4.157018	-0.566765	-0.217598
C18	C	-3.921346	-0.525736	-0.213496
C19	C	-3.863973	-0.571442	-0.278650
C20	C	-3.908697	-0.669060	-0.278327
C21	C	-3.832494	-0.643390	-0.143994
C22	C	-3.792854	-0.545738	-0.143590
C23	C	-3.878976	-0.430198	-0.213896
C24	C	-4.038663	-0.790324	-0.212396
C25	C	-3.792560	-0.112133	-0.338031
C26	C	-3.827170	-0.111737	-0.416113
C27	C	-4.025211	-0.115786	-0.456378
C28	C	-4.057732	-0.115414	-0.529744
C29	C	-3.892209	-0.111011	-0.562844
C30	C	-3.694138	-0.106957	-0.522568
C31	C	-3.661618	-0.107320	-0.449202
N32	N	-3.832451	-0.155562	-0.681728
N33	N	-3.863356	-0.155219	-0.751423
C34	C	-3.990175	-0.109914	-0.783890
N35	N	-4.084957	-0.064976	-0.744031
N36	N	-4.054057	-0.065323	-0.674331
C37	C	-3.927450	-0.110616	-0.642396
C38	C	-4.223490	-0.113559	-0.903707
C39	C	-4.256001	-0.113182	-0.977074
C40	C	-3.892406	-0.104733	-0.969897
C41	C	-3.859896	-0.105101	-0.896531
C42	C	-4.025448	-0.109519	-0.863441
C43	C	-4.134814	0.039740	-0.211683
C44	C	-4.072425	0.133518	-0.212076
C45	C	-4.145845	-0.108385	-0.088250
C46	C	-4.090474	-0.108777	-0.010168
H47	H	-3.955713	-0.558396	-0.330384
H48	H	-3.835492	-0.514951	-0.095354
H49	H	-3.500344	-0.104017	-0.416417
N50	N	-4.291637	-0.550808	-0.284057
H51	H	-4.264236	-0.487340	-0.284772
H52	H	-4.442474	-0.575204	-0.284613
N53	N	-4.402031	-0.118319	-0.868010
H54	H	-4.532427	-0.120821	-0.904653
H55	H	-4.369780	-0.066090	-0.830793
N56	N	-3.563244	-0.507379	-0.134216
H57	H	-3.539153	-0.476355	-0.175337
H58	H	-3.489141	-0.554296	-0.132728
N59	N	-3.631350	-0.668757	-0.139114
H60	H	-3.646156	-0.713314	-0.181235
H61	H	-3.597004	-0.692953	-0.093737
N62	N	-4.060441	-0.714415	-0.346934
H63	H	-4.097709	-0.670932	-0.377102
H64	H	-4.189939	-0.749679	-0.336009
H65	H	-4.160018	-0.119379	-0.429441
H66	H	-4.322380	-0.699999	-0.266554
H67	H	-3.693421	-0.544888	-0.278128
H68	H	-4.417270	-0.116472	-1.009857
H69	H	-4.219008	-0.118715	-0.562536
H70	H	-3.759633	-0.689434	-0.278190
N71	N	-3.713862	-0.099974	-1.005585
H72	H	-3.764509	-0.100355	-1.058172
H73	H	-3.655465	-0.150759	-0.998127
N74	N	-3.903908	-0.665259	-0.077976
H75	H	-4.043183	-0.708711	-0.091999
H76	H	-3.916679	-0.611917	-0.049897
N77	N	-3.646298	-0.100754	-0.853101
H78	H	-3.650813	-0.101654	-0.801602
H79	H	-3.545913	-0.046280	-0.857427
N80	N	-4.222127	-0.525498	-0.155917
H81	H	-4.276388	-0.570445	-0.127465
H82	H	-4.334706	-0.497177	-0.174535
N83	N	-4.293813	-0.685791	-0.154964
H84	H	-4.205176	-0.715553	-0.123615
H85	H	-4.438348	-0.724641	-0.173306
N86	N	-3.515601	-0.102202	-0.558262
H87	H	-3.566252	-0.102588	-0.610850
H88	H	-3.457201	-0.152986	-0.550800
