data_functionalizedCrystal
_audit_creation_method	'MofGen! by Chris Wilmer'
_symmetry_space_group_name_H-M	'P1'
_symmetry_Int_Tables_number	1
_symmetry_cell_setting	triclinic
loop_
_symmetry_equiv_pos_as_xyz
  x,y,z
_cell_length_a	10.723023
_cell_length_b	10.723024
_cell_length_c	9.730223
_cell_angle_alpha	89.994907
_cell_angle_beta	89.994982
_cell_angle_gamma	84.467709
loop_
_atom_site_label
_atom_site_type_symbol
_atom_site_fract_x
_atom_site_fract_y
_atom_site_fract_z
O1	O	1.657190	0.175025	-0.114282
O2	O	1.294038	0.191780	-0.114286
O3	O	1.483990	0.001826	-0.114279
O4	O	1.467237	0.364979	-0.114289
O5	O	1.483972	0.001815	0.114301
O6	O	1.294019	0.191768	0.114294
O7	O	1.657172	0.175014	0.114298
Zn8	Zn	1.475592	0.183389	0.150588
Zn9	Zn	1.475617	0.183404	-0.150576
O10	O	1.467219	0.364967	0.114291
C11	C	1.247529	0.190555	0.000004
C12	C	1.108974	0.186908	0.000003
C13	C	1.047212	0.185287	-0.118409
C14	C	0.904009	0.181518	-0.118413
C15	C	1.482762	-0.044679	0.000010
C16	C	1.479114	-0.183233	0.000005
C17	C	1.585402	-0.258216	0.000004
C18	C	1.581634	-0.401420	-0.000001
C19	C	1.703680	0.176239	0.000005
C20	C	1.842235	0.179886	-0.000003
C21	C	1.468447	0.411473	-0.000001
C22	C	1.472095	0.550027	-0.000005
N23	N	1.475585	0.183378	0.356124
C24	C	1.399285	0.107020	0.571989
C25	C	1.399270	0.107003	0.428106
C26	C	1.551928	0.259767	0.428033
C27	C	1.551949	0.259777	0.571914
N28	N	1.475620	0.183406	0.643888
H29	H	1.100352	0.186698	-0.219782
H30	H	1.679188	-0.216394	0.000013
H31	H	0.850896	0.180121	-0.219790
H32	H	1.385328	-0.225055	-0.000005
H33	H	1.337112	0.044800	0.369572
H34	H	1.337134	0.044833	0.630586
H35	H	1.614116	0.321981	0.630455
N36	N	1.634244	0.342134	0.350392
H37	H	1.580424	0.402714	0.290701
H38	H	1.682598	0.390442	0.417858
N39	N	0.912561	0.181731	0.134302
H40	H	0.976034	0.105930	0.139787
H41	H	0.957048	0.260425	0.139699
N42	N	1.038806	0.184915	0.134414
H43	H	1.071029	0.108243	0.188756
H44	H	1.052032	0.262738	0.188855
N45	N	1.702171	-0.486755	0.000013
H46	H	1.682394	-0.576958	0.000012
H47	H	1.752396	-0.470131	-0.084722
N48	N	1.351562	-0.364632	0.000016
H49	H	1.347994	-0.309987	-0.084712
H50	H	1.278007	-0.416795	0.000069
