data_functionalizedCrystal
_audit_creation_method	'MofGen! by Chris Wilmer'
_symmetry_space_group_name_H-M	'P1'
_symmetry_Int_Tables_number	1
_symmetry_cell_setting	triclinic
loop_
_symmetry_equiv_pos_as_xyz
  x,y,z
_cell_length_a	12.996460
_cell_length_b	12.837943
_cell_length_c	12.837942
_cell_angle_alpha	85.171060
_cell_angle_beta	90.005421
_cell_angle_gamma	89.995743
loop_
_atom_site_label
_atom_site_type_symbol
_atom_site_fract_x
_atom_site_fract_y
_atom_site_fract_z
O1	O	0.085548	-1.402337	0.272142
O2	O	0.085554	-1.099204	0.258699
O3	O	0.085544	-1.244049	0.113854
O4	O	0.085557	-1.257492	0.416988
O5	O	-0.085589	-1.244031	0.113844
O6	O	-0.085580	-1.099186	0.258689
O7	O	-0.085586	-1.402320	0.272132
Cu8	Cu	-0.101209	-1.250751	0.265409
Cu9	Cu	0.101176	-1.250772	0.265422
O10	O	-0.085577	-1.257475	0.416977
C11	C	-0.000022	-1.239499	0.074780
C12	C	-0.000020	-1.225954	-0.041635
C13	C	-0.000013	-1.060126	0.254153
C14	C	-0.000010	-0.943711	0.240608
N15	N	-0.243556	-1.250744	0.265401
C16	C	-0.663370	-1.250771	0.265423
C17	C	-0.546565	-1.250761	0.265420
C18	C	-0.453467	-1.250758	0.265413
C19	C	-0.336654	-1.250747	0.265408
N20	N	0.243524	-1.250787	0.265423
C21	C	-0.000018	-1.441398	0.276679
C22	C	-0.000013	-1.557813	0.290223
C23	C	-0.000018	-0.718837	0.403437
C24	C	-0.000017	-0.609454	0.390716
C25	C	-0.000014	-0.615562	0.202445
C26	C	-0.000015	-0.724944	0.215166
C27	C	-0.000016	-0.776578	0.315666
C28	C	-0.000010	-0.885962	0.328386
C29	C	-0.000014	-0.892067	0.140116
C30	C	-0.000013	-0.782685	0.127395
C31	C	-0.000002	-1.388784	-0.266510
C32	C	0.000000	-1.376062	-0.375892
C33	C	-0.000007	-1.187791	-0.369785
C34	C	-0.000009	-1.200513	-0.260402
C35	C	-0.000008	-1.301012	-0.208769
C36	C	-0.000017	-1.313732	-0.099384
C37	C	-0.000017	-1.125462	-0.093279
C38	C	-0.000015	-1.112741	-0.202661
C39	C	-0.000008	-1.262025	0.456051
C40	C	-0.000004	-1.275569	0.572467
H41	H	-0.000012	-0.928000	0.410218
N42	N	0.000001	-1.079406	-0.425490
H43	H	-0.063439	-1.040455	-0.405135
H44	H	0.063482	-1.040559	-0.405087
H45	H	-0.000020	-1.395564	-0.057346
H46	H	-0.000011	-1.470614	-0.224469
H47	H	-0.000017	-0.760878	0.485268
N48	N	0.000009	-1.470729	-0.438172
H49	H	0.000009	-1.536321	-0.388861
H50	H	-0.063432	-1.469549	-0.483696
H51	H	-0.000011	-1.030917	-0.244717
N52	N	-0.000060	-0.547174	0.485383
H53	H	-0.000073	-0.596486	0.550975
H54	H	0.063370	-0.501648	0.484238
N55	N	-0.000020	-1.030791	-0.030994
H56	H	0.063417	-0.987424	-0.048685
H57	H	-0.063504	-0.987501	-0.048732
N58	N	-0.000042	-0.559862	0.094057
H59	H	-0.000052	-0.481808	0.099322
H60	H	0.063394	-0.580306	0.055164
H61	H	-0.000024	-0.740630	0.045571
H62	H	-0.000005	-0.939092	0.068646
