data_functionalizedCrystal
_audit_creation_method	'MofGen! by Chris Wilmer'
_symmetry_space_group_name_H-M	'P1'
_symmetry_Int_Tables_number	1
_symmetry_cell_setting	triclinic
loop_
_symmetry_equiv_pos_as_xyz
  x,y,z
_cell_length_a	14.044220
_cell_length_b	16.109301
_cell_length_c	15.186229
_cell_angle_alpha	89.994833
_cell_angle_beta	90.001537
_cell_angle_gamma	88.325179
loop_
_atom_site_label
_atom_site_type_symbol
_atom_site_fract_x
_atom_site_fract_y
_atom_site_fract_z
O1	O	1.257643	0.200436	-0.073140
O2	O	0.981676	0.193203	-0.073163
O3	O	1.127241	0.076352	-0.073142
O4	O	1.112079	0.317286	-0.073161
O5	O	1.127231	0.076350	0.073315
O6	O	0.981667	0.193200	0.073295
O7	O	1.257634	0.200433	0.073317
Zn8	Zn	1.119649	0.196816	0.096559
Zn9	Zn	1.119661	0.196820	-0.096405
O10	O	1.112069	0.317284	0.073296
C11	C	1.126622	0.045330	0.000087
C12	C	1.124781	-0.047102	0.000088
C13	C	0.946358	0.190036	0.000063
C14	C	0.841135	0.180592	0.000055
C15	C	1.206874	-0.263266	0.000081
C16	C	1.205137	-0.350116	0.000073
C17	C	1.032429	-0.343091	0.000063
C18	C	1.034168	-0.256243	0.000064
C19	C	1.121393	-0.216333	0.000078
C20	C	1.117917	-0.390031	0.000069
C21	C	1.116032	-0.484197	0.000061
C22	C	1.123278	-0.122161	0.000084
C23	C	0.648479	0.163326	0.000074
C24	C	0.590825	0.230306	0.000072
C25	C	0.483625	0.220699	0.000083
C26	C	0.755690	0.172932	0.000064
C27	C	1.292952	0.203600	0.000089
C28	C	1.398175	0.213044	0.000091
C29	C	1.112688	0.348306	0.000065
C30	C	1.114529	0.440738	0.000058
N31	N	1.119647	0.196814	0.228252
N32	N	1.119671	0.196816	-0.228097
C33	C	1.184125	0.145093	0.453984
C34	C	1.184128	0.145092	0.546173
C35	C	1.055186	0.248539	0.546164
C36	C	1.055179	0.248536	0.453976
C37	C	1.119654	0.196814	0.407888
C38	C	1.119664	0.196816	0.592266
C39	C	1.119666	0.196814	0.692222
C40	C	1.119650	0.196814	0.307926
H41	H	1.277898	-0.230774	0.000090
H42	H	0.621976	0.294863	0.000063
H43	H	0.617330	0.098774	0.000084
O44	O	0.947680	-0.381825	-0.000099
C45	C	0.799515	-0.402352	-0.075956
C46	C	0.895470	-0.358451	-0.075894
H47	H	0.757268	-0.383457	-0.137220
H48	H	0.812900	-0.472494	-0.076010
H49	H	0.757311	-0.383561	-0.014638
H50	H	0.937723	-0.377174	-0.137201
H51	H	0.882018	-0.288317	-0.075794
H52	H	1.236623	0.102977	0.416461
H53	H	1.236624	0.102975	0.583702
O54	O	0.992656	0.298760	0.591072
C55	C	0.935487	0.344581	0.733088
C56	C	1.006366	0.287675	0.682343
H57	H	0.946533	0.335626	0.806889
H58	H	0.947816	0.412110	0.715016
H59	H	0.859583	0.328090	0.714916
H60	H	1.082297	0.304091	0.700487
H61	H	0.993954	0.220161	0.700419
O62	O	0.992513	0.298859	0.409330
C63	C	0.864582	0.401428	0.419041
C64	C	0.935512	0.344500	0.469713
H65	H	0.818465	0.438330	0.467839
H66	H	0.905437	0.446067	0.375896
H67	H	0.817287	0.361981	0.375865
H68	H	0.982825	0.383880	0.512936
H69	H	0.894598	0.299857	0.512802
H70	H	1.274744	-0.388326	0.000074
H71	H	0.964554	-0.218029	0.000059
