data_functionalizedCrystal
_audit_creation_method	'MofGen! by Chris Wilmer'
_symmetry_space_group_name_H-M	'P1'
_symmetry_Int_Tables_number	1
_symmetry_cell_setting	triclinic
loop_
_symmetry_equiv_pos_as_xyz
  x,y,z
_cell_length_a	23.532407
_cell_length_b	22.610064
_cell_length_c	23.532407
_cell_angle_alpha	89.999397
_cell_angle_beta	97.151288
_cell_angle_gamma	90.005499
loop_
_atom_site_label
_atom_site_type_symbol
_atom_site_fract_x
_atom_site_fract_y
_atom_site_fract_z
O1	O	0.755263	0.049153	-0.069127
O2	O	0.589400	0.049163	-0.079131
O3	O	0.677333	0.049147	0.008803
O4	O	0.667330	0.049169	-0.157061
O5	O	0.677318	-0.049222	0.008790
O6	O	0.589385	-0.049206	-0.079143
O7	O	0.755248	-0.049216	-0.069140
Zn8	Zn	0.672314	-0.064829	-0.074144
Zn9	Zn	0.672334	0.064777	-0.074127
O10	O	0.667315	-0.049200	-0.157074
C11	C	0.568176	-0.000020	-0.078882
C12	C	0.504959	-0.000017	-0.078116
C13	C	0.238792	-0.000040	-0.022921
C14	C	0.298192	-0.000040	-0.023632
O15	O	0.334937	-0.000066	0.020153
N16	N	0.320818	-0.000029	-0.075909
C17	C	0.284041	-0.000024	-0.127477
O18	O	0.308740	-0.000015	-0.172007
C19	C	0.224642	-0.000029	-0.126765
C20	C	0.202019	-0.000034	-0.074485
C21	C	0.216168	-0.000046	0.029354
C22	C	0.156772	-0.000045	0.030066
C23	C	0.119999	-0.000038	-0.021499
C24	C	0.142623	-0.000033	-0.073774
C25	C	0.187865	-0.000028	-0.178333
C26	C	0.128463	-0.000033	-0.177616
C27	C	0.105840	-0.000038	-0.125336
C28	C	0.046454	-0.000025	-0.124627
N29	N	0.023828	-0.000036	-0.072351
C30	C	0.060600	-0.000043	-0.020787
C31	C	0.408783	-0.000016	-0.128968
C32	C	0.468181	-0.000007	-0.129681
C33	C	0.482328	-0.000024	-0.025836
C34	C	0.422929	-0.000028	-0.025124
C35	C	0.386157	-0.000027	-0.076692
C36	C	-0.064136	-0.000041	-0.019297
C37	C	-0.123538	-0.000037	-0.018590
C38	C	-0.137680	-0.000024	-0.122435
C39	C	-0.078284	-0.000024	-0.123142
C40	C	-0.041512	-0.000034	-0.071568
O41	O	0.009675	-0.000001	-0.168390
O42	O	0.035892	-0.000060	0.023737
N43	N	0.672304	-0.153282	-0.074155
C44	C	0.711273	-0.561930	-0.035196
C45	C	0.711276	-0.623850	-0.035192
O46	O	0.744384	-0.655875	-0.002076
N47	N	0.672334	-0.654819	-0.074115
C48	C	0.633383	-0.623864	-0.113041
O49	O	0.600259	-0.655891	-0.146148
C50	C	0.633377	-0.561945	-0.113042
C51	C	0.672326	-0.530980	-0.074120
C52	C	0.750217	-0.530965	0.003723
C53	C	0.750215	-0.469049	0.003718
C54	C	0.711268	-0.438099	-0.035206
C55	C	0.672323	-0.469064	-0.074125
C56	C	0.594424	-0.530992	-0.151965
C57	C	0.594422	-0.469069	-0.151963
C58	C	0.633370	-0.438104	-0.113041
C59	C	0.633374	-0.376199	-0.113055
N60	N	0.672316	-0.345230	-0.074131
C61	C	0.711263	-0.376180	-0.035207
C62	C	0.633396	-0.753898	-0.113036
C63	C	0.633403	-0.815816	-0.113038
C64	C	0.711296	-0.815797	-0.035188
C65	C	0.711291	-0.753878	-0.035189
C66	C	0.672338	-0.722929	-0.074112
C67	C	0.711255	-0.246153	-0.035221
C68	C	0.711251	-0.184232	-0.035231
C69	C	0.633357	-0.184256	-0.113079
C70	C	0.633363	-0.246171	-0.113071
C71	C	0.672314	-0.277118	-0.074137
O72	O	0.600281	-0.344134	-0.146152
O73	O	0.744376	-0.344146	-0.002101
C74	C	0.776472	-0.000031	-0.069389
C75	C	0.839689	-0.000031	-0.070155
C76	C	0.677071	-0.000039	0.030012
C77	C	0.676305	-0.000043	0.093229
N78	N	0.672349	0.153229	-0.074111
C79	C	0.667577	-0.000012	-0.178283
C80	C	0.668343	-0.000004	-0.241500
C81	C	0.723538	-0.000014	0.492332
C82	C	0.722827	-0.000009	0.551733
O83	O	0.766613	0.000010	0.588477
N84	N	0.670551	-0.000007	0.574359
C85	C	0.618982	-0.000002	0.537581
O86	O	0.574452	0.000001	0.562281
C87	C	0.619695	-0.000003	0.478182
C88	C	0.671974	-0.000011	0.455559
C89	C	0.775814	-0.000022	0.469709
C90	C	0.776525	-0.000028	0.410313
C91	C	0.724961	-0.000025	0.373540
C92	C	0.672685	-0.000017	0.396163
C93	C	0.568127	0.000006	0.441406
C94	C	0.568843	0.000006	0.382003
C95	C	0.621123	-0.000003	0.359381
C96	C	0.621832	-0.000020	0.299994
N97	N	0.674109	-0.000023	0.277368
C98	C	0.725673	-0.000025	0.314141
C99	C	0.617491	-0.000001	0.662324
C100	C	0.616778	-0.000005	0.721722
C101	C	0.720623	-0.000011	0.735869
C102	C	0.721335	-0.000011	0.676470
C103	C	0.669767	-0.000003	0.639698
C104	C	0.727163	-0.000038	0.189404
C105	C	0.727869	-0.000046	0.130002
C106	C	0.624025	-0.000037	0.115860
C107	C	0.623318	-0.000032	0.175257
C108	C	0.674891	-0.000030	0.212028
O109	O	0.578069	-0.000037	0.263215
O110	O	0.770196	-0.000021	0.289433
H111	H	-0.141954	-0.000040	0.023984
H112	H	0.486595	0.000005	-0.172252
H113	H	0.601694	-0.841023	-0.144738
Cl114	Cl	-0.049843	-0.000010	-0.188865
H115	H	0.819097	-0.000032	0.391900
H116	H	0.574207	-0.000008	0.740135
H117	H	0.098525	-0.000034	-0.219610
Cl118	Cl	0.760255	-0.714957	0.013745
Cl119	Cl	0.394496	-0.000038	0.040601
H120	H	0.575496	0.000000	0.632386
H121	H	0.525555	0.000017	0.459814
Cl122	Cl	0.216290	-0.000022	-0.244060
Cl123	Cl	-0.183920	-0.000013	-0.187255
H124	H	0.512280	-0.000029	0.016150
Cl125	Cl	0.584404	-0.285098	-0.162009
Cl126	Cl	0.760225	-0.285048	0.013724
H127	H	0.781929	-0.443841	0.035413
Cl128	Cl	-0.017919	-0.000052	0.045539
H129	H	0.601677	-0.728702	-0.144737
H130	H	0.763906	-0.000018	0.658055
H131	H	0.769159	-0.000034	0.219337
H132	H	0.601648	-0.159046	-0.144772
Cl133	Cl	0.760219	-0.145307	0.013702
Cl134	Cl	0.545457	-0.569908	-0.200896
Cl135	Cl	0.840647	-0.000026	0.515928
H136	H	0.580747	-0.000041	0.193677
Cl137	Cl	0.793597	-0.000056	0.101567
Cl138	Cl	0.504011	0.000016	0.335778
H139	H	0.743008	-0.841008	-0.003493
Cl140	Cl	0.559205	-0.000032	0.069621
Cl141	Cl	0.799186	-0.569863	0.052663
H142	H	0.138359	-0.000052	0.072637
H143	H	0.246104	-0.000053	0.071347
H144	H	0.378846	-0.000010	-0.170964
Cl145	Cl	0.545448	-0.430166	-0.200898
H146	H	0.762610	-0.000010	0.765821
