data_functionalizedCrystal
_audit_creation_method	'MofGen! by Chris Wilmer'
_symmetry_space_group_name_H-M	'P1'
_symmetry_Int_Tables_number	1
_symmetry_cell_setting	triclinic
loop_
_symmetry_equiv_pos_as_xyz
  x,y,z
_cell_length_a	25.639243
_cell_length_b	25.639234
_cell_length_c	19.077068
_cell_angle_alpha	87.726675
_cell_angle_beta	87.670128
_cell_angle_gamma	89.976852
loop_
_atom_site_label
_atom_site_type_symbol
_atom_site_fract_x
_atom_site_fract_y
_atom_site_fract_z
Zn1	Zn	0.790941	-0.304013	0.280195
Zn2	Zn	0.787358	-0.220087	0.397887
Zn3	Zn	0.703505	-0.216587	0.280212
Zn4	Zn	0.699967	-0.307486	0.397863
O5	O	0.745443	-0.262043	0.339039
O6	O	0.863631	-0.292891	0.295810
O7	O	0.776216	-0.146458	0.382294
O8	O	0.718084	-0.225265	0.181718
O9	O	0.860998	-0.231231	0.382277
O10	O	0.782322	-0.289497	0.181705
O11	O	0.714610	-0.143886	0.295839
O12	O	0.629871	-0.228633	0.295816
O13	O	0.712054	-0.380190	0.382236
O14	O	0.627272	-0.295416	0.382253
O15	O	0.778892	-0.377638	0.295786
O16	O	0.772785	-0.234599	0.496375
O17	O	0.708580	-0.298811	0.496357
C18	C	0.609600	-0.262022	0.339034
C19	C	0.551486	-0.262026	0.339049
C20	C	0.192486	-0.294207	0.294086
C21	C	0.137882	-0.294210	0.294085
O22	O	0.110805	-0.321546	0.255843
N23	N	0.109204	-0.262057	0.339037
C24	C	0.135133	-0.229895	0.383987
O25	O	0.105726	-0.202546	0.422221
C26	C	0.189736	-0.229890	0.383983
C27	C	0.218412	-0.262049	0.339034
C28	C	0.221161	-0.326363	0.249140
C29	C	0.275762	-0.326360	0.249141
C30	C	0.301687	-0.294202	0.294089
C31	C	0.273012	-0.262046	0.339036
C32	C	0.215665	-0.197725	0.428929
C33	C	0.270272	-0.197722	0.428922
C34	C	0.298947	-0.229881	0.383972
C35	C	0.353538	-0.229885	0.383985
N36	N	0.382216	-0.262038	0.339034
C37	C	0.356291	-0.294196	0.294086
C38	C	0.020462	-0.229909	0.383990
C39	C	-0.034140	-0.229917	0.383997
C40	C	-0.031388	-0.294231	0.294095
C41	C	0.023216	-0.294226	0.294091
C42	C	0.049140	-0.262062	0.339038
C43	C	0.470955	-0.294189	0.294093
C44	C	0.525561	-0.294185	0.294101
C45	C	0.522803	-0.229868	0.384001
C46	C	0.468203	-0.229874	0.383996
C47	C	0.442280	-0.262036	0.339036
O48	O	0.380651	-0.202562	0.422206
O49	O	0.385704	-0.321535	0.255851
C50	C	0.745478	-0.398415	0.339007
C51	C	0.745493	-0.456529	0.338993
C52	C	0.713432	-0.815556	0.293892
C53	C	0.713435	-0.870160	0.293879
O54	O	0.686147	-0.897263	0.255610
N55	N	0.745513	-0.898808	0.338883
C56	C	0.777587	-0.872850	0.383907
O57	O	0.804872	-0.902232	0.422185
C58	C	0.777581	-0.818247	0.383923
C59	C	0.745504	-0.789601	0.338911
C60	C	0.681357	-0.786910	0.248885
C61	C	0.681355	-0.732310	0.248897
C62	C	0.713427	-0.706355	0.293916
C63	C	0.745501	-0.735001	0.338923
C64	C	0.809651	-0.792290	0.428950
C65	C	0.809642	-0.737683	0.428962
C66	C	0.777565	-0.709038	0.383951
C67	C	0.777571	-0.654446	0.383954
N68	N	0.745493	-0.625798	0.338951
C69	C	0.713421	-0.651753	0.293932
C70	C	0.777597	-0.987520	0.383871
C71	C	0.777606	-1.042121	0.383852
C72	C	0.713454	-1.039427	0.293826
C73	C	0.713447	-0.984825	0.293841
C74	C	0.745518	-0.958871	0.338868
C75	C	0.713418	-0.537088	0.293960
C76	C	0.713421	-0.482483	0.293974
C77	C	0.777571	-0.485182	0.384003
C78	C	0.777571	-0.539782	0.383987
C79	C	0.745491	-0.565734	0.338963
O80	O	0.804844	-0.627308	0.422206
O81	O	0.686135	-0.622365	0.255667
C82	C	0.881816	-0.262064	0.339044
C83	C	0.939930	-0.262073	0.339046
C84	C	0.739924	-0.267473	0.521904
C85	C	0.737611	-0.269814	0.600134
C86	C	0.745440	-0.126200	0.339020
C87	C	0.745532	-0.068081	0.338835
C88	C	0.750998	-0.256603	0.155460
C89	C	0.753365	-0.254285	0.077229
C90	C	0.769978	-0.237509	0.636873
C91	C	0.767806	-0.239714	0.710379
C92	C	0.733263	-0.274220	0.747145
C93	C	0.700894	-0.306528	0.710401
C94	C	0.703069	-0.304326	0.636896
C95	C	0.723171	-0.284391	0.966981
C96	C	0.720997	-0.286589	1.040491
C97	C	0.787910	-0.219776	1.040464
C98	C	0.790080	-0.217574	0.966958
C99	C	0.757713	-0.249884	0.930220
N100	N	0.731040	-0.276473	0.822279
N101	N	0.759939	-0.247633	0.855087
H102	H	0.548906	-0.320374	0.257497
H103	H	0.687338	-1.060569	0.257169
H104	H	0.803697	-0.563107	0.420631
C105	C	0.844921	-0.709134	0.478491
C106	C	0.904533	-0.716492	0.472753
C107	C	0.939813	-0.687942	0.522280
C108	C	0.915481	-0.652035	0.577545
C109	C	0.855866	-0.644675	0.583286
C110	C	0.820586	-0.673224	0.533759
H111	H	0.922548	-0.743074	0.431840
H112	H	0.983944	-0.693390	0.518030
H113	H	0.941597	-0.630901	0.614208
H114	H	0.837851	-0.618093	0.624199
H115	H	0.776455	-0.667776	0.538009
H116	H	0.655232	-0.708991	0.212247
H117	H	0.798105	-0.209408	0.606943
C118	C	0.803408	-0.204179	0.750796
C119	C	0.842952	-0.228386	0.801259
C120	C	0.878555	-0.192850	0.841678
C121	C	0.874615	-0.133107	0.831633
C122	C	0.835070	-0.108897	0.781168
C123	C	0.799466	-0.144432	0.740749
H124	H	0.845870	-0.272614	0.808697
H125	H	0.907830	-0.210773	0.879036
H126	H	0.900971	-0.106802	0.861554
H127	H	0.832152	-0.064669	0.773730
H128	H	0.770192	-0.126510	0.703391
H129	H	0.803685	-0.464040	0.420654
H130	H	0.692874	-0.314698	1.070423
C131	C	0.298788	-0.162341	0.478368
C132	C	0.334663	-0.186566	0.533672
C133	C	0.363177	-0.151187	0.583119
C134	C	0.355816	-0.091584	0.577263
C135	C	0.319938	-0.067356	0.521957
C136	C	0.291424	-0.102735	0.472510
H137	H	0.340114	-0.230691	0.538009
H138	H	0.389736	-0.169123	0.624060
H139	H	0.376923	-0.065394	0.613867
H140	H	0.314487	-0.023231	0.517620
H141	H	0.264865	-0.084800	0.431569
C142	C	0.307296	-0.361734	0.199688
C143	C	0.299629	-0.421337	0.205538
C144	C	0.331158	-0.456712	0.156080
C145	C	0.370353	-0.432483	0.100771
C146	C	0.378021	-0.372876	0.094918
C147	C	0.346493	-0.337502	0.144377
H148	H	0.270613	-0.439276	0.246483
H149	H	0.325481	-0.500837	0.160412
H150	H	0.393692	-0.458670	0.064158
H151	H	0.407038	-0.354938	0.053973
H152	H	0.352170	-0.293377	0.140044
H153	H	0.818208	-0.189477	0.937024
C154	C	0.687563	-0.319928	0.926581
C155	C	0.648019	-0.295726	0.876115
C156	C	0.612408	-0.331266	0.835713
C157	C	0.616341	-0.391008	0.845778
C158	C	0.655888	-0.415213	0.896246
C159	C	0.691499	-0.379674	0.936648
H160	H	0.645105	-0.251499	0.868662
H161	H	0.583133	-0.313347	0.798353
H162	H	0.589980	-0.417317	0.815870
H163	H	0.658801	-0.459441	0.903699
H164	H	0.720774	-0.397592	0.974008
H165	H	0.672771	-0.334626	0.740341
C166	C	0.667464	-0.339859	0.596480
C167	C	0.627923	-0.315653	0.546011
C168	C	0.592319	-0.351190	0.505595
C169	C	0.596254	-0.410932	0.515648
C170	C	0.635796	-0.435142	0.566120
C171	C	0.671401	-0.399605	0.606536
H172	H	0.625009	-0.271425	0.538566
H173	H	0.563047	-0.333268	0.468232
H174	H	0.569898	-0.437239	0.485730
H175	H	0.638711	-0.479370	0.573564
H176	H	0.700673	-0.417527	0.643898
C177	C	0.192651	-0.361745	0.199694
C178	C	0.200024	-0.421346	0.205560
C179	C	0.171519	-0.456735	0.156116
C180	C	0.135641	-0.432522	0.100806
C181	C	0.128266	-0.372918	0.094939
C182	C	0.156771	-0.337529	0.144383
H183	H	0.226584	-0.439273	0.246505
H184	H	0.176978	-0.500859	0.160460
H185	H	0.114540	-0.458719	0.064205
H186	H	0.101706	-0.354991	0.053993
H187	H	0.151312	-0.293405	0.140039
C188	C	0.823516	-0.184241	1.080876
C189	C	0.821128	-0.186661	1.161728
C190	C	0.856738	-0.151127	1.202139
C191	C	0.894735	-0.113172	1.161698
C192	C	0.897125	-0.110750	1.080842
C193	C	0.861515	-0.146285	1.040430
H194	H	0.792999	-0.214759	1.191668
H195	H	0.854969	-0.152920	1.261994
H196	H	0.921096	-0.086867	1.191613
H197	H	0.925254	-0.082653	1.050901
H198	H	0.863284	-0.144492	0.980575
H199	H	0.449856	-0.320376	0.257481
H200	H	0.803733	-1.065440	0.420497
C201	C	0.646077	-0.815453	0.199354
C202	C	0.586465	-0.808090	0.205089
C203	C	0.551186	-0.836628	0.155549
C204	C	0.575518	-0.872529	0.100275
C205	C	0.635133	-0.879893	0.094539
C206	C	0.670412	-0.851355	0.144078
H207	H	0.568450	-0.781513	0.246008
H208	H	0.507055	-0.831176	0.159796
H209	H	0.549402	-0.893654	0.063603
H210	H	0.653147	-0.906470	0.053620
H211	H	0.714543	-0.856807	0.139831
H212	H	-0.052506	-0.320415	0.257494
C213	C	-0.065679	-0.194546	0.433449
C214	C	-0.058017	-0.134942	0.427595
C215	C	-0.089553	-0.099567	0.477045
C216	C	-0.128751	-0.123796	0.532349
C217	C	-0.136415	-0.183403	0.538206
C218	C	-0.104879	-0.218778	0.488756
H219	H	-0.028999	-0.117003	0.386653
H220	H	-0.083880	-0.055441	0.472709
H221	H	-0.152096	-0.097610	0.568956
H222	H	-0.165434	-0.201342	0.579148
H223	H	-0.110552	-0.262904	0.493091
H224	H	0.046560	-0.320411	0.257488
H225	H	0.444854	-0.203694	0.420605
C226	C	0.844947	-0.823783	0.478458
C227	C	0.838266	-0.818635	0.558471
C228	C	0.873570	-0.850123	0.607980
C229	C	0.915557	-0.886758	0.577476
C230	C	0.922240	-0.891907	0.497459
C231	C	0.886936	-0.860419	0.447950
H232	H	0.807183	-0.791514	0.581056
H233	H	0.868622	-0.846311	0.667213
H234	H	0.941691	-0.910068	0.614125
H235	H	0.953323	-0.919028	0.474874
H236	H	0.891884	-0.864231	0.388716
C237	C	0.048976	-0.194532	0.433445
C238	C	0.087416	-0.152603	0.402879
C239	C	0.115926	-0.117227	0.452333
C240	C	0.105997	-0.123778	0.532351
C241	C	0.067556	-0.165708	0.562921
C242	C	0.039045	-0.201085	0.513467
H243	H	0.094768	-0.147752	0.343641
H244	H	0.144383	-0.086187	0.429703
H245	H	0.127102	-0.097590	0.568960
H246	H	0.060204	-0.170560	0.622159
H247	H	0.010588	-0.232125	0.536097
C248	C	0.551328	-0.194494	0.433441
C249	C	0.611390	-0.194492	0.433432
C250	C	0.639916	-0.159114	0.482869
C251	C	0.608381	-0.123739	0.532313
C252	C	0.548316	-0.123740	0.532324
C253	C	0.519789	-0.159118	0.482887
H254	H	0.634737	-0.220680	0.396829
H255	H	0.684380	-0.159114	0.482861
H256	H	0.629498	-0.097551	0.568909
H257	H	0.524968	-0.097552	0.568927
H258	H	0.475325	-0.159118	0.482895
C259	C	0.678132	-0.450974	0.244461
C260	C	0.642851	-0.479528	0.194946
C261	C	0.607563	-0.448021	0.145436
C262	C	0.607556	-0.387959	0.145442
C263	C	0.642838	-0.359402	0.194959
C264	C	0.678126	-0.390909	0.244469
H265	H	0.642855	-0.523992	0.194940
H266	H	0.581445	-0.469161	0.108780
H267	H	0.581434	-0.364636	0.108792
H268	H	0.642834	-0.314938	0.194965
H269	H	0.704245	-0.369769	0.281125
C270	C	0.678133	-0.565630	0.244431
C271	C	0.636158	-0.604055	0.274906
C272	C	0.600877	-0.632597	0.225373
C273	C	0.607570	-0.622713	0.145365
C274	C	0.649547	-0.584286	0.114885
C275	C	0.684829	-0.555745	0.164418
H276	H	0.631201	-0.611373	0.334137
H277	H	0.569802	-0.661043	0.247937
H278	H	0.581453	-0.643841	0.108698
H279	H	0.654504	-0.576968	0.055655
H280	H	0.715903	-0.527298	0.141855
H281	H	0.687328	-0.961505	0.257189
H282	H	0.192327	-0.171537	0.465531
H283	H	0.803720	-0.966392	0.420533
