data_functionalizedCrystal
_audit_creation_method	'MofGen! by Chris Wilmer'
_symmetry_space_group_name_H-M	'P1'
_symmetry_Int_Tables_number	1
_symmetry_cell_setting	triclinic
loop_
_symmetry_equiv_pos_as_xyz
  x,y,z
_cell_length_a	10.654562
_cell_length_b	10.654550
_cell_length_c	14.586319
_cell_angle_alpha	90.011162
_cell_angle_beta	90.010995
_cell_angle_gamma	84.487503
loop_
_atom_site_label
_atom_site_type_symbol
_atom_site_fract_x
_atom_site_fract_y
_atom_site_fract_z
O1	O	1.667837	0.176488	0.076298
O2	O	1.302361	0.193277	0.076287
O3	O	1.493502	0.002144	0.076289
O4	O	1.476696	0.367622	0.076295
O5	O	1.493475	0.002111	-0.076192
O6	O	1.302333	0.193245	-0.076194
O7	O	1.667810	0.176455	-0.076183
Cu8	Cu	1.485069	0.184847	-0.090111
Cu9	Cu	1.485102	0.184886	0.090215
O10	O	1.476669	0.367589	-0.076185
C11	C	1.255549	0.192025	0.000045
C12	C	1.116107	0.188327	0.000040
C13	C	1.050561	0.186584	-0.083070
C14	C	0.919539	0.183119	-0.083055
C15	C	0.919619	0.183145	0.083188
C16	C	1.050640	0.186601	0.083172
C17	C	1.116028	0.188310	-0.166202
C18	C	1.050482	0.186568	-0.249319
C19	C	0.919460	0.183103	-0.249303
C20	C	0.853984	0.181380	-0.166171
C21	C	1.492254	-0.044670	0.000050
C22	C	1.488563	-0.184114	0.000053
C23	C	1.601103	-0.263595	0.000054
C24	C	1.597627	-0.394615	0.000060
C25	C	1.369059	-0.366662	0.000061
C26	C	1.372537	-0.235644	0.000061
C27	C	1.717129	-0.212064	0.000046
C28	C	1.829680	-0.291546	0.000045
C29	C	1.826203	-0.422567	0.000052
C30	C	1.710176	-0.474106	0.000058
C31	C	1.714621	0.177708	0.000061
C32	C	1.854064	0.181406	0.000072
C33	C	1.477916	0.414403	0.000056
C34	C	1.481608	0.553847	0.000059
N35	N	1.485055	0.184819	-0.216943
C36	C	1.408264	0.107991	-0.547976
C37	C	1.408254	0.107973	-0.451995
C38	C	1.561925	0.261735	-0.451927
C39	C	1.561941	0.261745	-0.547907
C40	C	1.485103	0.184875	-0.595928
C41	C	1.485077	0.184848	-0.403968
C42	C	1.485067	0.184829	-0.299901
C43	C	1.485115	0.184891	-0.700002
N44	N	1.485125	0.184904	0.217047
H45	H	0.866097	0.181675	-0.316981
C46	C	1.646442	0.346288	-0.399094
N47	N	1.710102	0.409975	-0.359301
C48	C	1.706359	-0.618235	0.000070
N49	N	1.703485	-0.726791	0.000075
H50	H	1.345699	0.045397	-0.587072
H51	H	1.103803	0.187962	-0.317002
H52	H	1.222712	0.191135	-0.166224
C53	C	0.709855	0.177562	-0.166159
N54	N	0.601298	0.174694	-0.166152
C55	C	1.122743	0.188529	0.174598
N56	N	1.177052	0.189980	0.243462
C57	C	1.241438	-0.423362	0.000053
N58	N	1.145312	-0.466067	0.000042
C59	C	0.847589	0.181260	0.174627
N60	N	0.793335	0.179846	0.243500
H61	H	1.719973	-0.105382	0.000038
H62	H	1.924144	-0.249574	0.000063
H63	H	1.345685	0.045365	-0.412956
C64	C	1.646456	0.346347	-0.600657
N65	N	1.710106	0.410071	-0.640390
C66	C	1.950009	-0.509994	0.000051
N67	N	2.043264	-0.575841	0.000044
C68	C	1.248736	-0.148211	0.000053
N69	N	1.155486	-0.082355	0.000048
