data_functionalizedCrystal
_audit_creation_method	'MofGen! by Chris Wilmer'
_symmetry_space_group_name_H-M	'P1'
_symmetry_Int_Tables_number	1
_symmetry_cell_setting	triclinic
loop_
_symmetry_equiv_pos_as_xyz
  x,y,z
_cell_length_a	17.699083
_cell_length_b	17.699083
_cell_length_c	14.586319
_cell_angle_alpha	90.001080
_cell_angle_beta	89.999815
_cell_angle_gamma	83.283015
loop_
_atom_site_label
_atom_site_type_symbol
_atom_site_fract_x
_atom_site_fract_y
_atom_site_fract_z
O1	O	1.004078	0.095706	0.076114
O2	O	0.783699	0.108158	0.076144
O3	O	0.900115	-0.008257	0.076120
O4	O	0.887662	0.212121	0.076138
O5	O	0.900101	-0.008250	-0.076361
O6	O	0.783685	0.108165	-0.076337
O7	O	1.004064	0.095713	-0.076367
Cu8	Cu	0.893873	0.101940	-0.090275
Cu9	Cu	0.893890	0.101932	0.090051
O10	O	0.887648	0.212128	-0.076343
C11	C	0.755495	0.107716	-0.000093
C12	C	0.671477	0.106377	-0.000081
C13	C	0.622856	0.174710	-0.000076
C14	C	0.543913	0.173448	-0.000088
C15	C	0.513592	0.103852	-0.000099
C16	C	0.562219	0.035513	-0.000107
C17	C	0.641161	0.036776	-0.000101
C18	C	0.243856	0.030418	-0.000130
C19	C	0.164908	0.029160	-0.000133
C20	C	0.146608	0.167090	-0.000117
C21	C	0.225550	0.168353	-0.000111
C22	C	0.274170	0.100015	-0.000124
C23	C	0.359769	0.101384	-0.000113
C24	C	0.427995	0.102481	-0.000103
C25	C	0.899662	-0.036451	-0.000121
C26	C	0.898323	-0.120469	-0.000121
C27	C	0.966656	-0.169090	-0.000132
C28	C	0.965394	-0.248033	-0.000123
C29	C	0.895798	-0.278354	-0.000111
C30	C	0.827459	-0.229727	-0.000097
C31	C	0.828722	-0.150785	-0.000099
C32	C	0.822364	-0.548090	-0.000089
C33	C	0.821106	-0.627038	-0.000090
C34	C	0.959036	-0.645338	-0.000113
C35	C	0.960299	-0.566396	-0.000115
C36	C	0.891961	-0.517776	-0.000097
C37	C	0.893330	-0.432177	-0.000104
C38	C	0.894427	-0.363951	-0.000110
C39	C	1.032268	0.096156	-0.000129
C40	C	1.116286	0.097494	-0.000134
C41	C	0.888102	0.240322	-0.000101
C42	C	0.889440	0.324340	-0.000094
N43	N	0.893867	0.101945	-0.217106
C44	C	0.939697	0.147780	-0.452116
C45	C	0.939705	0.147775	-0.548097
C46	C	0.848070	0.056080	-0.548101
C47	C	0.848067	0.056081	-0.452121
C48	C	0.893879	0.101936	-0.404131
C49	C	0.893890	0.101929	-0.596092
C50	C	0.893898	0.101923	-0.700159
C51	C	0.893872	0.101941	-0.300057
N52	N	0.893902	0.101920	0.216883
H53	H	0.250232	0.225025	-0.000098
O54	O	0.693609	-0.036925	-0.000110
H55	H	0.682853	-0.070242	0.062037
O56	O	0.989107	0.197236	-0.400353
H57	H	1.029844	0.160902	-0.356615
H58	H	0.107012	0.222734	-0.000111
O59	O	0.132201	-0.045908	-0.000160
H60	H	0.179271	-0.093216	-0.000180
O61	O	1.032745	-0.697782	-0.000124
H62	H	1.066043	-0.687024	-0.062286
O63	O	0.748661	-0.495652	-0.000074
H64	H	0.745935	-0.459244	-0.062218
O65	O	0.296287	-0.043290	-0.000137
H66	H	0.356275	-0.030725	-0.000142
H67	H	1.023330	-0.144409	-0.000147
H68	H	0.647537	0.231384	-0.000067
O69	O	0.529517	-0.039552	-0.000120
H70	H	0.549054	-0.072372	-0.062277
O71	O	1.039096	-0.300477	-0.000150
H72	H	1.087702	-0.266131	-0.000176
O73	O	0.989119	0.197224	-0.599855
H74	H	1.020968	0.229112	-0.550356
O75	O	0.752391	-0.262423	-0.000094
H76	H	0.762991	-0.325485	-0.000108
O77	O	0.746038	-0.659745	-0.000070
H78	H	0.698730	-0.612675	-0.000048
O79	O	0.798651	0.006632	-0.599860
H80	H	0.806343	0.014338	-0.674663
H81	H	1.016971	-0.541714	-0.000130
O82	O	0.798644	0.006637	-0.400356
H83	H	0.766779	-0.025240	-0.449849
O84	O	0.491469	0.247150	-0.000083
H85	H	0.525815	0.295756	-0.000064
O86	O	0.755021	-0.098338	-0.000097
H87	H	0.706413	-0.132682	-0.000099
