data_functionalizedCrystal
_audit_creation_method	'MofGen! by Chris Wilmer'
_symmetry_space_group_name_H-M	'P1'
_symmetry_Int_Tables_number	1
_symmetry_cell_setting	triclinic
loop_
_symmetry_equiv_pos_as_xyz
  x,y,z
_cell_length_a	17.077404
_cell_length_b	19.076808
_cell_length_c	17.077396
_cell_angle_alpha	92.329364
_cell_angle_beta	90.021444
_cell_angle_gamma	92.321597
loop_
_atom_site_label
_atom_site_type_symbol
_atom_site_fract_x
_atom_site_fract_y
_atom_site_fract_z
Zn1	Zn	1.187484	-0.280249	0.431310
Zn2	Zn	1.687484	0.219751	0.931310
Zn3	Zn	1.182111	-0.397960	0.294763
Zn4	Zn	1.682111	0.102040	0.794763
Zn5	Zn	1.056214	-0.280270	0.300053
Zn6	Zn	1.556214	0.219730	0.800053
Zn7	Zn	1.050905	-0.397914	0.425984
Zn8	Zn	1.550905	0.102086	0.925984
O9	O	1.119179	-0.339098	0.363027
O10	O	1.619179	0.160902	0.863027
O11	O	1.296617	-0.295875	0.413212
O12	O	1.796617	0.204125	0.913212
O13	O	1.165384	-0.382376	0.185616
O14	O	1.665384	0.117624	0.685616
O15	O	1.078098	-0.181771	0.321907
O16	O	1.578098	0.318229	0.821907
O17	O	1.292670	-0.382356	0.312891
O18	O	1.792670	0.117644	0.812891
O19	O	1.174541	-0.181756	0.418341
O20	O	1.674541	0.318244	0.918341
O21	O	1.072888	-0.295910	0.189503
O22	O	1.572888	0.204090	0.689503
O23	O	0.945664	-0.295865	0.316743
O24	O	1.445664	0.204135	0.816743
O25	O	1.069050	-0.382278	0.536539
O26	O	1.569050	0.117722	1.036539
O27	O	0.941763	-0.382298	0.409264
O28	O	1.441763	0.117702	0.909264
O29	O	1.169393	-0.295830	0.540452
O30	O	1.669393	0.204170	1.040452
O31	O	1.160235	-0.496450	0.307727
O32	O	1.660235	0.003550	0.807727
O33	O	1.063840	-0.496416	0.404135
O34	O	1.563840	0.003584	0.904135
C35	C	0.915232	-0.339079	0.363000
C36	C	1.415232	0.160921	0.863000
C37	C	0.827981	-0.339088	0.363006
C38	C	1.327981	0.160912	0.863006
C39	C	0.454215	-0.294168	0.415369
C40	C	0.954215	0.205832	0.915369
C41	C	0.536195	-0.294163	0.415360
C42	C	1.036195	0.205837	0.915360
C43	C	0.575131	-0.339113	0.363047
C44	C	1.075131	0.160887	0.863047
C45	C	0.532082	-0.384077	0.310743
C46	C	1.032082	0.115923	0.810743
C47	C	0.450103	-0.384085	0.310756
C48	C	0.950103	0.115915	0.810756
C49	C	0.702953	-0.384055	0.310719
C50	C	1.202953	0.115945	0.810719
C51	C	0.784938	-0.384046	0.310705
C52	C	1.284938	0.115954	0.810705
C53	C	0.789045	-0.294133	0.415323
C54	C	1.289045	0.205867	0.915323
C55	C	0.707066	-0.294142	0.415336
C56	C	1.207066	0.205858	0.915336
C57	C	0.664023	-0.339104	0.363031
C58	C	1.164023	0.160896	0.863031
C59	C	1.110900	-0.521972	0.354796
C60	C	1.610900	-0.021972	0.854796
C61	C	1.107430	-0.600206	0.351301
C62	C	1.607430	-0.100206	0.851301
C63	C	1.155975	-0.636893	0.399908
C64	C	1.655975	-0.136893	0.899908
C65	C	1.152711	-0.710402	0.396625
C66	C	1.652711	-0.210402	0.896625
C67	C	1.100906	-0.747224	0.344731
C68	C	1.600906	-0.247224	0.844731
C69	C	1.052356	-0.710532	0.296122
C70	C	1.552356	-0.210532	0.796122
C71	C	1.055616	-0.637024	0.299410
C72	C	1.555616	-0.137024	0.799410
C73	C	1.085772	-0.967077	0.329515
C74	C	1.585772	-0.467077	0.829515
C75	C	1.082517	-1.040590	0.326230
C76	C	1.582517	-0.540590	0.826230
C77	C	1.182872	-1.040454	0.426734
C78	C	1.682872	-0.540454	0.926734
C79	C	1.186130	-0.966945	0.430013
C80	C	1.686130	-0.466945	0.930013
C81	C	1.137577	-0.930260	0.381408
C82	C	1.637577	-0.430260	0.881408
N83	N	1.097571	-0.822362	0.341373
N84	N	1.597571	-0.322362	0.841373
N85	N	1.140909	-0.855123	0.384771
N86	N	1.640909	-0.355123	0.884771
C87	C	1.323922	-0.339118	0.363056
C88	C	1.823922	0.160882	0.863056
C89	C	1.411171	-0.339126	0.363068
C90	C	1.911171	0.160874	0.863068
C91	C	1.119228	-0.339046	0.567774
C92	C	1.619228	0.160954	1.067774
C93	C	1.119250	-0.339024	0.655025
C94	C	1.619250	0.160976	1.155025
C95	C	1.127511	-0.155510	0.371308
C96	C	1.627511	0.344490	0.871308
C97	C	1.131062	-0.077276	0.374837
C98	C	1.631062	0.422724	0.874837
C99	C	1.119176	-0.339099	0.159080
C100	C	1.619176	0.160901	0.659080
C101	C	1.119316	-0.338923	0.071838
C102	C	1.619316	0.161077	0.571838
C103	C	1.171500	-0.294007	0.698054
C104	C	1.671500	0.205993	1.198054
C105	C	1.171511	-0.293984	0.780036
C106	C	1.671511	0.206016	1.280036
C107	C	1.119274	-0.338982	0.818986
C108	C	1.619274	0.161018	1.318986
C109	C	1.067017	-0.384000	0.775952
C110	C	1.567017	0.116000	1.275952
C111	C	1.067004	-0.384020	0.693972
C112	C	1.567004	0.115980	1.193972
C113	C	1.067051	-0.383958	0.946824
C114	C	1.567051	0.116042	1.446824
C115	C	1.067065	-0.383940	1.028809
C116	C	1.567065	0.116060	1.528809
C117	C	1.171558	-0.293922	1.032887
C118	C	1.671558	0.206078	1.532887
C119	C	1.171544	-0.293942	0.950908
C120	C	1.671544	0.206058	1.450908
C121	C	1.119289	-0.338962	0.907878
C122	C	1.619289	0.161038	1.407878
H123	H	0.667909	-0.420672	0.268130
H124	H	1.167909	0.079328	0.768130
H125	H	1.214040	-0.257367	0.666346
H126	H	1.714040	0.242633	1.166346
H127	H	0.571237	-0.257555	0.457951
H128	H	1.071237	0.242445	0.957951
Br129	Br	0.847461	-0.233106	0.486301
Br130	Br	1.347461	0.266894	0.986301
H131	H	1.016085	-0.607155	0.259830
H132	H	1.516085	-0.107155	0.759830
Br133	Br	1.019868	-0.917299	0.263560
Br134	Br	1.519868	-0.417299	0.763560
H135	H	0.422519	-0.257560	0.457964
H136	H	0.922519	0.242440	0.957964
Br137	Br	0.982038	-0.760504	0.225704
Br138	Br	1.482038	-0.260504	0.725704
Br139	Br	0.584923	-0.445087	0.239750
Br140	Br	1.084923	0.054913	0.739750
Br141	Br	0.996164	-0.445002	1.081671
Br142	Br	1.496164	0.054998	1.581671
Br143	Br	0.654224	-0.233132	0.486329
Br144	Br	1.154224	0.266868	0.986329
H145	H	0.816637	-0.420651	0.268109
H146	H	1.316637	0.079349	0.768109
H147	H	1.192248	-0.740269	0.436200
H148	H	1.692248	-0.240269	0.936200
Br149	Br	0.391685	-0.445111	0.239782
Br150	Br	0.891685	0.054889	0.739782
Br151	Br	1.242461	-0.232920	0.838428
Br152	Br	1.742461	0.267080	1.338428
H153	H	1.024487	-0.420607	0.911792
H154	H	1.524487	0.079393	1.411792
H155	H	1.198163	-0.606917	0.442162
H156	H	1.698163	-0.106917	0.942162
Br157	Br	1.242445	-0.232879	0.898045
Br158	Br	1.742445	0.267121	1.398045
H159	H	1.214105	-0.257264	1.067926
H160	H	1.714105	0.242736	1.567926
H161	H	1.228314	-0.936966	0.472270
H162	H	1.728314	-0.436966	0.972270
Br163	Br	0.996118	-0.445065	0.828813
Br164	Br	1.496118	0.054935	1.328813
H165	H	1.024448	-0.420670	0.658939
H166	H	1.524448	0.079330	1.158939
Br167	Br	1.012211	-1.090562	0.255793
Br168	Br	1.512211	-0.590562	0.755793
Br169	Br	1.248759	-1.090244	0.492697
Br170	Br	1.748759	-0.590244	0.992697
