data_functionalizedCrystal
_audit_creation_method	'MofGen! by Chris Wilmer'
_symmetry_space_group_name_H-M	'P1'
_symmetry_Int_Tables_number	1
_symmetry_cell_setting	triclinic
loop_
_symmetry_equiv_pos_as_xyz
  x,y,z
_cell_length_a	17.000371
_cell_length_b	17.038272
_cell_length_c	14.185569
_cell_angle_alpha	75.875097
_cell_angle_beta	102.092178
_cell_angle_gamma	83.355402
loop_
_atom_site_label
_atom_site_type_symbol
_atom_site_fract_x
_atom_site_fract_y
_atom_site_fract_z
O1	O	1.041224	0.046924	-0.083423
O2	O	0.811403	0.075169	-0.083424
O3	O	0.924949	-0.052677	-0.083416
O4	O	0.927678	0.174770	-0.083432
O5	O	0.958492	-0.090441	0.083421
O6	O	0.844946	0.037406	0.083413
O7	O	1.074767	0.009160	0.083414
Cu8	Cu	0.962919	0.019835	0.098647
Cu9	Cu	0.923251	0.064494	-0.098657
O10	O	0.961221	0.137007	0.083405
C11	C	0.798624	0.057804	-0.000006
C12	C	0.710570	0.062316	-0.000006
C13	C	0.673846	-0.007108	0.000000
C14	C	0.591108	-0.002863	-0.000007
C15	C	0.545099	0.070805	-0.000014
C16	C	0.581829	0.140234	-0.000024
C17	C	0.664563	0.135990	-0.000023
C18	C	0.295062	0.087201	-0.000022
C19	C	0.212323	0.091439	-0.000019
C20	C	0.221607	-0.051658	-0.000005
C21	C	0.304344	-0.055897	0.000002
C22	C	0.341066	0.013533	-0.000013
C23	C	0.460529	0.075145	-0.000019
C24	C	0.425633	0.009194	-0.000016
C25	C	0.939236	-0.100517	0.000003
C26	C	0.931823	-0.186802	0.000002
C27	C	0.999882	-0.241578	0.000004
C28	C	0.992910	-0.322649	-0.000006
C29	C	0.917880	-0.348944	-0.000010
C30	C	0.849816	-0.294161	-0.000014
C31	C	0.856787	-0.213090	-0.000012
C32	C	0.893252	-0.593012	-0.000024
C33	C	0.886286	-0.674091	-0.000023
C34	C	1.029381	-0.702573	-0.000016
C35	C	1.036347	-0.621500	-0.000008
C36	C	0.968281	-0.566723	-0.000018
C37	C	0.910753	-0.431812	-0.000016
C38	C	0.975408	-0.483855	-0.000018
C39	C	1.087546	0.026525	-0.000007
C40	C	1.175598	0.022016	-0.000013
C41	C	0.946933	0.184847	-0.000015
C42	C	0.954345	0.271133	-0.000021
N43	N	0.990825	-0.011577	0.237420
N44	N	0.895351	0.095899	-0.237430
C45	C	0.813360	0.188153	0.605057
C46	C	0.834504	0.164364	0.710080
C47	C	0.935074	0.051194	0.710048
C48	C	0.913935	0.074971	0.605023
C49	C	0.853078	0.143452	0.552535
C50	C	0.953653	0.030270	0.552502
C51	C	0.932519	0.054049	0.447486
C52	C	0.871666	0.122528	0.394991
C53	C	0.831944	0.167230	0.447519
C54	C	1.014514	-0.038207	0.604992
C55	C	1.054232	-0.082908	0.552470
C56	C	1.033094	-0.059133	0.447452
C57	C	0.972241	0.009346	0.394957
C58	C	1.072816	-0.103836	0.394924
C59	C	1.051682	-0.080057	0.289908
C60	C	0.951107	0.033124	0.289941
H61	H	0.341801	-0.115886	0.000012
H62	H	0.849664	-0.453231	-0.000017
H63	H	0.463096	-0.050784	-0.000016
Br64	Br	0.171766	-0.145879	0.000012
Br65	Br	0.764416	-0.138747	-0.000022
H66	H	1.084026	-0.116458	0.247145
H67	H	0.174864	0.151430	-0.000020
H68	H	1.097444	-0.600098	-0.000005
Br69	Br	0.784455	-0.709778	-0.000018
Br70	Br	1.017667	-0.041738	0.781288
H71	H	0.694464	0.192521	-0.000024
Br72	Br	0.749339	0.260161	0.376281
Br73	Br	1.101716	-0.205904	0.000024
Br74	Br	0.541263	-0.097076	-0.000034
Br75	Br	0.398081	0.175121	-0.000033
Br76	Br	1.136825	-0.175840	0.623710
Br77	Br	0.519386	0.240216	-0.000047
H78	H	0.324949	0.143737	-0.000041
H79	H	1.048331	-0.367246	-0.000002
H80	H	0.711302	-0.067097	0.000010
Br81	Br	1.155416	-0.196761	0.466167
H82	H	1.036492	-0.462437	-0.000037
Br83	Br	0.730755	0.281084	0.533818
H84	H	0.901545	0.088883	0.247204
H85	H	1.084795	-0.747180	-0.000010
Br86	Br	0.780595	0.225045	0.781352
H87	H	0.837827	-0.548422	-0.000031
Br88	Br	0.747985	-0.329842	-0.000036
Br89	Br	0.842988	0.154805	0.252467
H90	H	1.031722	-0.057562	0.690502
