data_functionalizedCrystal
_audit_creation_method	'MofGen! by Chris Wilmer'
_symmetry_space_group_name_H-M	'P1'
_symmetry_Int_Tables_number	1
_symmetry_cell_setting	triclinic
loop_
_symmetry_equiv_pos_as_xyz
  x,y,z
_cell_length_a	13.635800
_cell_length_b	17.110486
_cell_length_c	18.882467
_cell_angle_alpha	86.244617
_cell_angle_beta	62.752304
_cell_angle_gamma	99.060439
loop_
_atom_site_label
_atom_site_type_symbol
_atom_site_fract_x
_atom_site_fract_y
_atom_site_fract_z
V1	V	-2.025842	-0.247447	0.110089
O2	O	-1.980807	-0.241987	-0.005535
O3	O	-2.038596	-0.246476	0.218524
O4	O	-1.990160	-0.355039	0.108289
O5	O	-2.029579	-0.132673	0.105464
V6	V	-2.264356	-0.233632	0.096272
O7	O	-2.163596	-0.277753	0.140399
O8	O	-2.351700	-0.203326	0.065963
O9	O	-2.139999	-0.234603	-0.012162
O10	O	-2.368090	-0.239092	0.211896
O11	O	-2.319318	-0.348406	0.100898
O12	O	-2.188435	-0.126041	0.098073
C13	C	-1.970458	-0.242759	0.244961
C14	C	-2.021453	-0.242682	0.333607
C15	C	-1.908672	-0.381240	0.104344
C16	C	-1.920383	-0.469201	0.103590
C17	C	-2.137447	-0.246627	0.379298
C18	C	-2.185379	-0.246567	0.462593
C19	C	-2.117314	-0.242557	0.500194
C20	C	-2.001310	-0.238614	0.454497
C21	C	-1.953381	-0.238680	0.371205
V22	V	-1.525842	-0.247447	0.110089
O23	O	-1.480807	-0.241987	-0.005535
O24	O	-1.538596	-0.246476	0.218524
O25	O	-1.490160	-0.355039	0.108289
O26	O	-1.529579	-0.132673	0.105464
V27	V	-1.764356	-0.233632	0.096272
O28	O	-1.663596	-0.277753	0.140399
O29	O	-1.851700	-0.203326	0.065963
O30	O	-1.639999	-0.234603	-0.012162
O31	O	-1.868090	-0.239092	0.211896
O32	O	-1.819318	-0.348406	0.100898
O33	O	-1.688435	-0.126041	0.098073
C34	C	-2.017885	-0.514583	0.107215
C35	C	-2.028883	-0.597231	0.106505
C36	C	-1.942382	-0.634498	0.102176
C37	C	-1.844871	-0.589109	0.098548
C38	C	-1.833870	-0.506461	0.099252
C39	C	-1.970990	-0.883837	0.099846
C40	C	-1.982000	-0.966492	0.099145
C41	C	-2.166011	-0.974608	0.107101
C42	C	-2.155005	-0.891959	0.107809
C43	C	-2.057493	-0.846577	0.104177
C44	C	-1.953623	-0.718978	0.101453
C45	C	-2.046250	-0.762097	0.104894
C46	C	-2.101596	-0.099835	0.102020
C47	C	-2.079502	-0.011873	0.102770
C48	C	-2.039809	-0.238318	-0.038595
C49	C	-1.978433	-0.238400	-0.127240
C50	C	-1.864280	-0.242412	-0.164831
C51	C	-1.806618	-0.242495	-0.248122
C52	C	-1.863110	-0.238559	-0.293821
C53	C	-1.977276	-0.234548	-0.256225
C54	C	-2.034937	-0.234472	-0.172935
C55	C	-1.693280	-0.238596	-0.545506
C56	C	-1.635607	-0.238670	-0.628802
C57	C	-1.464953	-0.246618	-0.620693
C58	C	-1.522622	-0.246536	-0.537403
C59	C	-1.636784	-0.242530	-0.499813
C60	C	-1.804172	-0.238640	-0.378959
C61	C	-1.695722	-0.242455	-0.414676
C62	C	-1.470458	-0.242759	0.244961
C63	C	-1.521453	-0.242682	0.333607
C64	C	-1.408672	-0.381240	0.104344
C65	C	-1.420383	-0.469201	0.103590
C66	C	-1.539809	-0.238318	-0.038595
C67	C	-1.478433	-0.238400	-0.127240
C68	C	-1.601596	-0.099835	0.102020
C69	C	-1.579502	-0.011873	0.102770
C70	C	-1.517889	-0.514568	0.107207
C71	C	-1.528901	-0.597216	0.106487
C72	C	-1.442410	-0.634496	0.102156
C73	C	-1.344895	-0.589122	0.098536
C74	C	-1.333881	-0.506475	0.099250
C75	C	-1.534933	-0.234458	-0.172931
C76	C	-1.477273	-0.234522	-0.256225
C77	C	-1.363115	-0.238534	-0.293826
C78	C	-1.306612	-0.242474	-0.248130
C79	C	-1.364270	-0.242404	-0.164838
C80	C	-1.483757	0.025386	0.107093
C81	C	-1.462977	0.108037	0.107788
C82	C	-1.537947	0.153425	0.104168
C83	C	-1.633698	0.116161	0.099843
C84	C	-1.654473	0.033513	0.099141
H85	H	-2.279836	-0.249775	0.499788
O86	O	-1.300947	-0.238619	-0.383662
H87	H	-1.229191	-0.186114	-0.412353
O88	O	-1.454310	-0.723641	0.101402
H89	H	-1.464228	-0.738372	0.048344
H90	H	-1.754463	-0.469509	0.096280
H91	H	-1.213658	-0.245739	-0.278757
H92	H	-1.521025	0.220721	0.104750
O93	O	-1.402876	-0.023537	0.111016
H94	H	-1.368246	-0.052592	0.056302
H95	H	-1.818273	-0.245628	-0.127626
H96	H	-1.476601	-0.249709	-0.500204
H97	H	-1.318254	-0.245621	-0.127641
O98	O	-1.634792	-0.246700	-0.365388
H99	H	-1.602536	-0.302863	-0.370960
O100	O	-1.611183	-0.474374	0.111869
H101	H	-1.643311	-0.445732	0.166979
H102	H	-1.385007	0.138366	0.111310
H103	H	-1.694731	0.153129	0.096893
O104	O	-2.210881	-0.250955	0.338759
H105	H	-2.158079	-0.250333	0.273161
O106	O	-1.683494	-0.246823	-0.288669
H107	H	-1.653896	-0.249537	-0.242900
O108	O	-1.696548	-0.234431	-0.678091
H109	H	-1.654647	-0.180030	-0.724690
O110	O	-1.634079	-0.646146	0.110392
H111	H	-1.692371	-0.606335	0.113536
H112	H	-1.732442	0.003182	0.095626
H113	H	-2.156355	-0.242504	0.568016
H114	H	-2.245402	-1.011566	0.110057
O115	O	-1.927901	-0.234291	0.495056
H116	H	-1.980727	-0.234901	0.560648
H117	H	-1.858928	-0.235464	0.334008
H118	H	-2.023270	-0.231349	-0.293439
H119	H	-2.088330	-0.484248	0.110745
O120	O	-2.158061	-0.230137	-0.132385
H121	H	-2.187655	-0.227404	-0.178155
H122	H	-2.108276	-0.634177	0.109453
H123	H	-1.274479	-0.619488	0.095010
H124	H	-2.225446	-0.861622	0.111334
H125	H	-1.254481	-0.469543	0.096306
O126	O	-1.888646	-1.006676	0.094387
H127	H	-1.818967	-0.961229	0.091941
H128	H	-1.891609	-0.846902	0.096917
O129	O	-1.341833	-0.250955	-0.661232
H130	H	-1.311226	-0.250357	-0.726825
H131	H	-2.116676	-0.731751	0.108416
H132	H	-1.774438	-0.619457	0.095019
H133	H	-1.850161	-0.235434	-0.416177
H134	H	-1.883197	-0.749330	0.097931
H135	H	-1.786228	-0.235332	-0.514911
H136	H	-1.627887	-0.231192	-0.142328
H137	H	-1.523299	-0.231314	-0.293420
