data_functionalizedCrystal
_audit_creation_method	'MofGen! by Chris Wilmer'
_symmetry_space_group_name_H-M	'P1'
_symmetry_Int_Tables_number	1
_symmetry_cell_setting	triclinic
loop_
_symmetry_equiv_pos_as_xyz
  x,y,z
_cell_length_a	16.959455
_cell_length_b	10.686285
_cell_length_c	10.685314
_cell_angle_alpha	90.303498
_cell_angle_beta	94.350385
_cell_angle_gamma	85.628621
loop_
_atom_site_label
_atom_site_type_symbol
_atom_site_fract_x
_atom_site_fract_y
_atom_site_fract_z
Zn1	Zn	1.202891	-0.553795	-0.671053
Zn2	Zn	1.222984	-0.747537	-0.445227
Zn3	Zn	1.080008	-0.537779	-0.461301
Zn4	Zn	1.081565	-0.763496	-0.654946
O5	O	1.146862	-0.650652	-0.558132
O6	O	1.316168	-0.579519	-0.641111
O7	O	1.211775	-0.706331	-0.271809
O8	O	1.087249	-0.364357	-0.502593
O9	O	1.330930	-0.721861	-0.475197
O10	O	1.177530	-0.376125	-0.656697
O11	O	1.106732	-0.552222	-0.283619
O12	O	0.969603	-0.567696	-0.486974
O13	O	1.089902	-0.749061	-0.832633
O14	O	0.970747	-0.733530	-0.629244
O15	O	1.179040	-0.594994	-0.844467
O16	O	1.213285	-0.925200	-0.459578
O17	O	1.109385	-0.936925	-0.613658
C18	C	1.163704	-0.976582	-0.533153
C19	C	1.170980	-1.116019	-0.522509
C20	C	0.941495	-0.650608	-0.558106
C21	C	0.853638	-0.650622	-0.558123
C22	C	0.481533	-0.564249	-0.484224
C23	C	0.482797	-0.737163	-0.632103
C24	C	0.565342	-0.737145	-0.632097
C25	C	0.605987	-0.650678	-0.558152
C26	C	0.564086	-0.564230	-0.484213
C27	C	0.607249	-0.823599	-0.706024
C28	C	0.689800	-0.823585	-0.706020
C29	C	0.730446	-0.737112	-0.632081
C30	C	0.688540	-0.650659	-0.558140
C31	C	0.729185	-0.564193	-0.484195
C32	C	0.687280	-0.477734	-0.410260
C33	C	0.604732	-0.477757	-0.410274
C34	C	0.812994	-0.737088	-0.632068
C35	C	0.811738	-0.564174	-0.484184
C36	C	1.353031	-0.650696	-0.558158
C37	C	1.440888	-0.650716	-0.558169
C38	C	1.132403	-0.675594	-0.885341
C39	C	1.126242	-0.686223	-1.024777
C40	C	1.129975	-0.323451	-0.583235
C41	C	1.122778	-0.184018	-0.593933
C42	C	1.161306	-0.625716	-0.232203
C43	C	1.167602	-0.614734	-0.092794
H44	H	1.075945	-1.135563	-0.663226
H45	H	1.217811	-1.164481	-0.453204
H46	H	0.844824	-0.493755	-0.423976
F47	F	0.563992	-0.915646	-0.784681
H48	H	0.723912	-0.893984	-0.766223
F49	F	0.857589	-0.829104	-0.710741
F50	F	1.073796	-0.776855	-1.088091
F51	F	0.730547	-0.385720	-0.331558
F52	F	0.560129	-0.385750	-0.331594
F53	F	0.436935	-0.472232	-0.405548
F54	F	1.220042	-0.524084	-1.029476
F55	F	0.439540	-0.829201	-0.710772
