data_functionalizedCrystal
_audit_creation_method	'MofGen! by Chris Wilmer'
_symmetry_space_group_name_H-M	'P1'
_symmetry_Int_Tables_number	1
_symmetry_cell_setting	triclinic
loop_
_symmetry_equiv_pos_as_xyz
  x,y,z
_cell_length_a	12.827885
_cell_length_b	19.077142
_cell_length_c	19.077068
_cell_angle_alpha	89.885450
_cell_angle_beta	92.262284
_cell_angle_gamma	92.320506
loop_
_atom_site_label
_atom_site_type_symbol
_atom_site_fract_x
_atom_site_fract_y
_atom_site_fract_z
Zn1	Zn	-0.673494	-1.063006	-0.322953
Zn2	Zn	-0.173494	-0.563006	0.177047
Zn3	Zn	-0.505454	-1.058189	-0.440473
Zn4	Zn	-0.005454	-0.558189	0.059527
Zn5	Zn	-0.491475	-0.945494	-0.318258
Zn6	Zn	0.008525	-0.445494	0.181742
Zn7	Zn	-0.672860	-0.940742	-0.435693
Zn8	Zn	-0.172860	-0.440742	0.064307
O9	O	-0.585821	-1.001858	-0.379344
O10	O	-0.085821	-0.501858	0.120656
O11	O	-0.657319	-1.160699	-0.342508
O12	O	-0.157319	-0.660699	0.157492
O13	O	-0.357364	-1.043213	-0.424296
O14	O	0.142636	-0.543213	0.075704
O15	O	-0.510035	-0.965087	-0.220551
O16	O	-0.010035	-0.465087	0.279449
O17	O	-0.533861	-1.157160	-0.428849
O18	O	-0.033861	-0.657160	0.071151
O19	O	-0.643764	-1.051423	-0.224001
O20	O	-0.143764	-0.551423	0.275999
O21	O	-0.347094	-0.960416	-0.334505
O22	O	0.152906	-0.460416	0.165495
O23	O	-0.509421	-0.846532	-0.329870
O24	O	-0.009421	-0.346532	0.170130
O25	O	-0.819180	-0.956987	-0.420703
O26	O	-0.319180	-0.456987	0.079297
O27	O	-0.642684	-0.843040	-0.416150
O28	O	-0.142684	-0.343040	0.083850
O29	O	-0.819646	-1.046815	-0.337873
O30	O	-0.319646	-0.546815	0.162127
O31	O	-0.533246	-1.038604	-0.538168
O32	O	-0.033246	-0.538604	-0.038168
O33	O	-0.656239	-0.952316	-0.534657
O34	O	-0.156239	-0.452316	-0.034657
C35	C	-0.574467	-0.819290	-0.371982
C36	C	-0.074467	-0.319290	0.128018
C37	C	-0.569636	-0.741186	-0.368850
C38	C	-0.069636	-0.241186	0.131150
C39	C	-0.858391	-1.001908	-0.379279
C40	C	-0.358391	-0.501908	0.120721
C41	C	-0.974543	-1.001930	-0.379251
C42	C	-0.474543	-0.501930	0.120749
C43	C	-0.636647	-0.702690	-0.412367
C44	C	-0.136647	-0.202690	0.087633
C45	C	-0.632112	-0.629304	-0.409414
C46	C	-0.132112	-0.129304	0.090586
C47	C	-0.560559	-0.594414	-0.362947
C48	C	-0.060559	-0.094414	0.137053
C49	C	-0.493545	-0.632915	-0.319425
C50	C	0.006455	-0.132915	0.180575
C51	C	-0.498086	-0.706300	-0.322375
C52	C	0.001914	-0.206300	0.177625
C53	C	-0.539554	-0.375129	-0.349298
C54	C	-0.039554	0.124871	0.150702
C55	C	-0.535016	-0.301738	-0.346353
C56	C	-0.035016	0.198262	0.153647
C57	C	-0.673585	-0.298132	-0.436341
C58	C	-0.173585	0.201868	0.063659
C59	C	-0.678115	-0.371519	-0.439290
C60	C	-0.178115	0.128481	0.060710
C61	C	-0.611105	-0.410013	-0.395765
C62	C	-0.111105	0.089987	0.104235
N63	N	-0.555920	-0.519401	-0.359930
N64	N	-0.055920	-0.019401	0.140070
N65	N	-0.615750	-0.485025	-0.398780
N66	N	-0.115750	0.014975	0.101220
C67	C	-1.026558	-1.046384	-0.338256
C68	C	-0.526558	-0.546384	0.161744
C69	C	-1.146608	-1.046408	-0.338226
C70	C	-0.646608	-0.546408	0.161774
C71	C	-0.314312	-1.001850	-0.379360
C72	C	0.185688	-0.501850	0.120640
C73	C	-0.198157	-1.001972	-0.379196
C74	C	0.301843	-0.501972	0.120804
C75	C	-0.596215	-0.994441	-0.561909
C76	C	-0.096215	-0.494441	-0.061909
C77	C	-0.600700	-0.991332	-0.640013
C78	C	-0.100700	-0.491332	-0.140013
C79	C	-0.597207	-0.185139	-0.386732
C80	C	-0.097207	0.314861	0.113268
C81	C	-0.602027	-0.263242	-0.389870
C82	C	-0.102027	0.236758	0.110130
C83	C	-0.538829	-1.034832	-0.678513
C84	C	-0.038829	-0.534832	-0.178513
C85	C	-0.543054	-1.031912	-0.751901
C86	C	-0.043054	-0.531912	-0.251901
C87	C	-0.609145	-0.985488	-0.786787
C88	C	-0.109145	-0.485488	-0.286787
C89	C	-0.671023	-0.941987	-0.748282
C90	C	-0.171023	-0.441987	-0.248282
C91	C	-0.666803	-0.944910	-0.674896
C92	C	-0.166803	-0.444910	-0.174896
C93	C	-0.628633	-0.971926	-1.006074
C94	C	-0.128633	-0.471926	-0.506074
C95	C	-0.632846	-0.969004	-1.079466
C96	C	-0.132846	-0.469004	-0.579466
C97	C	-0.504878	-1.058931	-1.083080
C98	C	-0.004878	-0.558931	-0.583080
C99	C	-0.500659	-1.061848	-1.009692
C100	C	-0.000659	-0.561848	-0.509692
C101	C	-0.562541	-1.018349	-0.971193
C102	C	-0.062541	-0.518349	-0.471193
N103	N	-0.613463	-0.982501	-0.861801
N104	N	-0.113463	-0.482501	-0.361801
N105	N	-0.558228	-1.021340	-0.896181
N106	N	-0.058228	-0.521340	-0.396181
C107	C	-0.575411	-1.009323	-0.196067
C108	C	-0.075411	-0.509323	0.303933
C109	C	-0.570975	-1.012504	-0.117966
C110	C	-0.070975	-0.512504	0.382034
H111	H	-0.686679	-0.597964	-0.444851
H112	H	-0.186679	-0.097964	0.055149
H113	H	-1.153433	-0.963914	-0.414298
H114	H	-0.653433	-0.463914	0.085702
H115	H	-0.717186	-0.909489	-0.643550
H116	H	-0.217186	-0.409489	-0.143550
C117	C	-0.467041	-1.085306	-0.640770
C118	C	0.032959	-0.585306	-0.140770
C119	C	-0.413782	-1.122789	-0.690199
C120	C	0.086218	-0.622789	-0.190199
C121	C	-0.347653	-1.169301	-0.655459
C122	C	0.152347	-0.669301	-0.155459
H123	H	-0.418073	-1.059660	-0.611109
H124	H	0.081927	-0.559660	-0.111109
H125	H	-0.507285	-1.117089	-0.613343
H126	H	-0.007285	-0.617089	-0.113343
H127	H	-0.373540	-1.091011	-0.717614
H128	H	0.126460	-0.591011	-0.217614
H129	H	-0.462724	-1.148450	-0.719862
H130	H	0.037276	-0.648450	-0.219862
H131	H	-0.387897	-1.201083	-0.628032
H132	H	0.112103	-0.701083	-0.128032
H133	H	-0.298691	-1.143649	-0.625799
H134	H	0.201309	-0.643649	-0.125799
H135	H	-0.311516	-1.194743	-0.688991
H136	H	0.188484	-0.694743	-0.188991
H137	H	-1.191340	-1.084469	-0.303131
H138	H	-0.691340	-0.584469	0.196869
H139	H	-0.492671	-1.067334	-0.783245
H140	H	0.007329	-0.567334	-0.283245
C141	C	-0.746230	-0.256372	-0.483705
C142	C	-0.246230	0.243628	0.016295
C143	C	-0.728359	-0.271380	-0.553929
C144	C	-0.228359	0.228620	-0.053929
C145	C	-0.795260	-0.232919	-0.597578
C146	C	-0.295260	0.267081	-0.097578
H147	H	-0.816669	-0.268807	-0.474047
H148	H	-0.316669	0.231193	0.025953
H149	H	-0.733280	-0.207660	-0.475343
H150	H	-0.233280	0.292340	0.024657
H151	H	-0.741317	-0.320081	-0.562287
H152	H	-0.241317	0.179919	-0.062287
H153	H	-0.657933	-0.258942	-0.563608
H154	H	-0.157933	0.241058	-0.063608
H155	H	-0.782309	-0.184207	-0.589216
H156	H	-0.282309	0.315793	-0.089216
H157	H	-0.865694	-0.245357	-0.587915
H158	H	-0.365694	0.254643	-0.087915
H159	H	-0.783137	-0.243091	-0.645230
H160	H	-0.283137	0.256909	-0.145230
H161	H	-0.446842	-1.099650	-0.981289
H162	H	0.053158	-0.599650	-0.481289
C163	C	-0.457505	-0.263780	-0.295835
C164	C	0.042495	0.236220	0.204165
C165	C	-0.511644	-0.223488	-0.249172
C166	C	-0.011644	0.276512	0.250828
C167	C	-0.440286	-0.188509	-0.202627
C168	C	0.059714	0.311491	0.297373
H169	H	-0.418229	-0.297146	-0.270265
H170	H	0.081771	0.202854	0.229735
H171	H	-0.411658	-0.234004	-0.321488
H172	H	0.088342	0.265996	0.178512
H173	H	-0.557473	-0.253262	-0.223522
H174	H	-0.057473	0.246738	0.276478
H175	H	-0.550916	-0.190110	-0.274722
H176	H	-0.050916	0.309890	0.225278
H177	H	-0.394438	-0.158734	-0.228280
H178	H	0.105562	0.341266	0.271720
H179	H	-0.401014	-0.221881	-0.177062
H180	H	0.098986	0.278119	0.322938
H181	H	-0.477008	-0.161163	-0.170965
H182	H	0.022992	0.338837	0.329035
H183	H	-0.484981	-0.406462	-0.313863
H184	H	0.015019	0.093538	0.186137
C185	C	-0.967296	-1.097002	-0.291442
C186	C	-0.467296	-0.597002	0.208558
C187	C	-0.899580	-1.059000	-0.244863
C188	C	-0.399580	-0.559000	0.255137
C189	C	-0.844964	-1.105607	-0.201734
C190	C	-0.344964	-0.605607	0.298266
H191	H	-1.015372	-1.124916	-0.265652
H192	H	-0.515372	-0.624916	0.234348
H193	H	-0.928086	-1.126475	-0.319575
H194	H	-0.428086	-0.626475	0.180425
H195	H	-0.938788	-1.029538	-0.216733
H196	H	-0.438788	-0.529538	0.283267
H197	H	-0.851484	-1.031088	-0.270634
H198	H	-0.351484	-0.531088	0.229366
H199	H	-0.805754	-1.135081	-0.229868
H200	H	-0.305754	-0.635081	0.270132
H201	H	-0.893047	-1.133519	-0.175949
H202	H	-0.393047	-0.633519	0.324051
H203	H	-0.799005	-1.079830	-0.170130
H204	H	-0.299005	-0.579830	0.329870
C205	C	-0.755707	-0.409525	-0.489710
C206	C	-0.255707	0.090475	0.010290
C207	C	-0.745325	-0.482032	-0.482989
C208	C	-0.245325	0.017968	0.017011
C209	C	-0.816777	-0.517065	-0.529431
C210	C	-0.316777	-0.017065	-0.029431
H211	H	-0.824669	-0.398017	-0.479043
H212	H	-0.324669	0.101983	0.020957
H213	H	-0.742242	-0.395620	-0.536446
H214	H	-0.242242	0.104380	-0.036446
H215	H	-0.758798	-0.495931	-0.436264
H216	H	-0.258798	0.004069	0.063736
H217	H	-0.676380	-0.493561	-0.493662
H218	H	-0.176380	0.006439	0.006338
H219	H	-0.803312	-0.503161	-0.576167
H220	H	-0.303312	-0.003161	-0.076167
H221	H	-0.885733	-0.505551	-0.518760
H222	H	-0.385733	-0.005551	-0.018760
H223	H	-0.809736	-0.566264	-0.524882
H224	H	-0.309736	-0.066264	-0.024882
H225	H	-0.435289	-0.604502	-0.281588
H226	H	0.064711	-0.104502	0.218412
H227	H	-0.443523	-0.737643	-0.286935
H228	H	0.056477	-0.237643	0.213065
C229	C	-1.033726	-0.951317	-0.426117
C230	C	-0.533726	-0.451317	0.073883
C231	C	-1.101400	-0.989324	-0.472718
C232	C	-0.601400	-0.489324	0.027282
C233	C	-1.155921	-0.942723	-0.515911
C234	C	-0.655921	-0.442723	-0.015911
H235	H	-1.072964	-0.921811	-0.398052
H236	H	-0.572964	-0.421811	0.101948
H237	H	-0.985559	-0.923436	-0.451883
H238	H	-0.485559	-0.423436	0.048117
H239	H	-1.149560	-1.017193	-0.446955
H240	H	-0.649560	-0.517193	0.053045
H241	H	-1.062188	-1.018828	-0.500799
H242	H	-0.562188	-0.518828	-0.000799
H243	H	-1.107754	-0.914842	-0.541677
H244	H	-0.607754	-0.414842	-0.041677
H245	H	-1.195153	-0.913219	-0.487840
H246	H	-0.695153	-0.413219	0.012160
H247	H	-1.201837	-0.968503	-0.547539
H248	H	-0.701837	-0.468503	-0.047539
H249	H	-0.454499	-1.094347	-1.114433
H250	H	0.045501	-0.594347	-0.614433
C251	C	-0.704720	-0.918582	-1.117216
C252	C	-0.204720	-0.418582	-0.617216
C253	C	-0.758035	-0.881127	-1.067795
C254	C	-0.258035	-0.381127	-0.567795
C255	C	-0.824260	-0.834682	-1.102545
C256	C	-0.324260	-0.334682	-0.602545
H257	H	-0.664570	-0.886773	-1.144659
H258	H	-0.164570	-0.386773	-0.644659
H259	H	-0.753646	-0.944297	-1.146864
H260	H	-0.253646	-0.444297	-0.646864
H261	H	-0.709116	-0.855413	-1.038159
H262	H	-0.209116	-0.355413	-0.538159
H263	H	-0.798205	-0.912918	-1.040350
H264	H	-0.298205	-0.412918	-0.540350
H265	H	-0.873185	-0.860398	-1.132193
H266	H	-0.373185	-0.360398	-0.632193
H267	H	-0.784102	-0.802878	-1.129986
H268	H	-0.284102	-0.302878	-0.629986
H269	H	-0.860449	-0.809268	-1.069018
H270	H	-0.360449	-0.309268	-0.569018
C271	C	-0.695944	-0.924810	-0.964253
C272	C	-0.195944	-0.424810	-0.464253
C273	C	-0.763048	-0.966246	-0.923669
C274	C	-0.263048	-0.466246	-0.423669
C275	C	-0.825083	-0.922863	-0.885140
C276	C	-0.325083	-0.422863	-0.385140
H277	H	-0.652506	-0.895333	-0.934382
H278	H	-0.152506	-0.395333	-0.434382
H279	H	-0.735962	-0.896757	-0.995524
H280	H	-0.235962	-0.396757	-0.495524
H281	H	-0.723034	-0.994287	-0.892401
H282	H	-0.223034	-0.494287	-0.392401
H283	H	-0.806509	-0.995722	-0.953523
H284	H	-0.306509	-0.495722	-0.453523
H285	H	-0.865100	-0.894810	-0.916411
H286	H	-0.365100	-0.394810	-0.416411
H287	H	-0.781636	-0.893388	-0.855273
H288	H	-0.281636	-0.393388	-0.355273
H289	H	-0.870626	-0.950971	-0.857604
H290	H	-0.370626	-0.450971	-0.357604
H291	H	-0.694910	-0.731092	-0.450207
H292	H	-0.194910	-0.231092	0.049793
H293	H	-0.724840	-0.904190	-0.776692
H294	H	-0.224840	-0.404190	-0.276692
