data_functionalizedCrystal
_audit_creation_method	'MofGen! by Chris Wilmer'
_symmetry_space_group_name_H-M	'P1'
_symmetry_Int_Tables_number	1
_symmetry_cell_setting	triclinic
loop_
_symmetry_equiv_pos_as_xyz
  x,y,z
_cell_length_a	27.732048
_cell_length_b	26.210047
_cell_length_c	27.732046
_cell_angle_alpha	89.998169
_cell_angle_beta	97.357683
_cell_angle_gamma	90.003465
loop_
_atom_site_label
_atom_site_type_symbol
_atom_site_fract_x
_atom_site_fract_y
_atom_site_fract_z
O1	O	0.640931	0.042370	-0.057510
O2	O	1.140931	0.542370	0.442490
O3	O	0.500137	0.042387	-0.066256
O4	O	1.000137	0.542387	0.433744
O5	O	0.574907	0.042366	0.008514
O6	O	1.074907	0.542366	0.508514
O7	O	0.566161	0.042390	-0.132280
O8	O	1.066161	0.542390	0.367720
O9	O	0.574893	-0.042492	0.008502
O10	O	1.074893	0.457508	0.508502
O11	O	0.500123	-0.042472	-0.066267
O12	O	1.000123	0.457528	0.433733
O13	O	0.640916	-0.042488	-0.057522
O14	O	1.140916	0.457512	0.442478
Cu15	Cu	0.570518	-0.050228	-0.061896
Cu16	Cu	1.070518	0.449772	0.438104
Cu17	Cu	0.570535	0.050127	-0.061882
Cu18	Cu	1.070535	0.550127	0.438118
O19	O	0.566146	-0.042468	-0.132291
O20	O	1.066146	0.457532	0.367709
C21	C	0.482123	-0.000041	-0.066078
C22	C	0.982123	0.499959	0.433922
C23	C	0.428468	-0.000035	-0.065525
C24	C	0.928468	0.499965	0.434475
C25	C	0.089653	-0.000050	-0.106229
C26	C	0.589653	0.499950	0.393771
C27	C	-0.112007	-0.000055	-0.104178
C28	C	0.387993	0.499945	0.395822
O29	O	-0.143263	-0.000071	-0.141399
O30	O	0.356737	0.499929	0.358601
N31	N	-0.131130	-0.000062	-0.059843
N32	N	0.368870	0.499938	0.440157
C33	C	-0.099835	-0.000070	-0.016017
C34	C	0.400165	0.499930	0.483983
O35	O	-0.120728	-0.000081	0.021740
O36	O	0.379272	0.499919	0.521740
C37	C	0.101823	-0.000069	-0.018069
C38	C	0.601823	0.499931	0.481931
C39	C	0.120944	-0.000057	-0.062407
C40	C	0.620944	0.499943	0.437593
C41	C	0.108774	-0.000039	-0.150563
C42	C	0.608774	0.499961	0.349437
C43	C	0.159186	-0.000035	-0.151076
C44	C	0.659186	0.499965	0.348924
C45	C	0.190477	-0.000042	-0.107253
C46	C	0.690477	0.499958	0.392747
C47	C	0.171356	-0.000053	-0.062919
C48	C	0.671356	0.499947	0.437081
C49	C	0.133117	-0.000081	0.025757
C50	C	0.633117	0.499919	0.525757
C51	C	0.183535	-0.000082	0.025240
C52	C	0.683535	0.499918	0.525240
C53	C	0.202655	-0.000071	-0.019098
C54	C	0.702655	0.499929	0.480902
C55	C	0.253059	-0.000056	-0.019609
C56	C	0.753059	0.499944	0.480391
N57	N	0.272182	-0.000050	-0.063944
N58	N	0.772182	0.499950	0.436056
C59	C	0.240891	-0.000043	-0.107766
C60	C	0.740891	0.499957	0.392234
C61	C	-0.205709	-0.000070	-0.014943
C62	C	0.294291	0.499930	0.485057
C63	C	-0.256124	-0.000069	-0.014430
C64	C	0.243876	0.499931	0.485570
C65	C	-0.268292	-0.000055	-0.102591
C66	C	0.231708	0.499945	0.397409
C67	C	-0.217876	-0.000052	-0.103104
C68	C	0.282124	0.499948	0.396896
C69	C	-0.186586	-0.000063	-0.059278
C70	C	0.313414	0.499937	0.440722
C71	C	0.346760	-0.000034	-0.108839
C72	C	0.846760	0.499966	0.391161
C73	C	0.397177	-0.000028	-0.109347
C74	C	0.897177	0.499972	0.390653
C75	C	0.409341	-0.000045	-0.021186
C76	C	0.909341	0.499955	0.478814
C77	C	0.358928	-0.000048	-0.020678
C78	C	0.858928	0.499952	0.479322
C79	C	0.327639	-0.000044	-0.064508
C80	C	0.827639	0.499956	0.435492
O81	O	0.284343	-0.000046	0.017592
O82	O	0.784343	0.499954	0.517592
O83	O	0.261794	-0.000043	-0.145518
O84	O	0.761794	0.499957	0.354482
C85	C	0.039241	-0.000054	-0.105717
C86	C	0.539241	0.499946	0.394283
C87	C	0.020120	-0.000065	-0.061382
C88	C	0.520120	0.499935	0.438618
C89	C	0.051411	-0.000072	-0.017560
C90	C	0.551411	0.499928	0.482440
C91	C	-0.030294	-0.000065	-0.060869
C92	C	0.469706	0.499935	0.439131
C93	C	-0.061585	-0.000057	-0.104691
C94	C	0.438415	0.499943	0.395309
C95	C	-0.042462	-0.000051	-0.149027
C96	C	0.457538	0.499949	0.350973
C97	C	0.007950	-0.000047	-0.149539
C98	C	0.507950	0.499953	0.350461
C99	C	0.032287	-0.000079	0.026775
C100	C	0.532287	0.499921	0.526775
C101	C	-0.018125	-0.000083	0.027284
C102	C	0.481875	0.499917	0.527284
C103	C	-0.049416	-0.000075	-0.016538
C104	C	0.450584	0.499925	0.483462
N105	N	0.570510	-0.120812	-0.061905
N106	N	1.070510	0.379188	0.438095
C107	C	0.603640	-0.473335	-0.028781
C108	C	1.103640	0.026665	0.471219
C109	C	0.603651	-0.686993	-0.028774
C110	C	1.103651	-0.186993	0.471226
O111	O	0.631801	-0.714623	-0.000614
O112	O	1.131801	-0.214623	0.499386
N113	N	0.570538	-0.713706	-0.061871
N114	N	1.070538	-0.213706	0.438129
C115	C	0.537418	-0.687000	-0.094970
C116	C	1.037418	-0.187000	0.405030
O117	O	0.509251	-0.714623	-0.123117
O118	O	1.009251	-0.214623	0.376883
C119	C	0.537406	-0.473343	-0.094974
C120	C	1.037406	0.026657	0.405026
C121	C	0.570524	-0.446633	-0.061878
C122	C	1.070524	0.053367	0.438122
C123	C	0.636755	-0.446625	0.004312
C124	C	1.136755	0.053375	0.504312
C125	C	0.636754	-0.393214	0.004308
C126	C	1.136754	0.106786	0.504308
C127	C	0.603638	-0.366512	-0.028789
C128	C	1.103638	0.133488	0.471211
C129	C	0.570522	-0.393222	-0.061882
C130	C	1.070522	0.106778	0.438118
C131	C	0.504284	-0.446638	-0.128070
C132	C	1.004284	0.053362	0.371930
C133	C	0.504283	-0.393220	-0.128067
C134	C	1.004283	0.106780	0.371933
C135	C	0.537401	-0.366511	-0.094971
C136	C	1.037401	0.133489	0.405029
C137	C	0.537405	-0.313108	-0.094983
C138	C	1.037405	0.186892	0.405017
N139	N	0.570518	-0.286396	-0.061886
N140	N	1.070518	0.213604	0.438114
C141	C	0.603634	-0.313098	-0.028789
C142	C	1.103634	0.186902	0.471211
C143	C	0.537428	-0.799174	-0.094966
C144	C	1.037428	-0.299174	0.405034
C145	C	0.537431	-0.852588	-0.094966
C146	C	1.037431	-0.352588	0.405034
C147	C	0.603664	-0.852577	-0.028770
C148	C	1.103664	-0.352577	0.471230
C149	C	0.603662	-0.799162	-0.028773
C150	C	1.103662	-0.299162	0.471227
C151	C	0.570540	-0.772461	-0.061869
C152	C	1.070540	-0.272461	0.438131
C153	C	0.603629	-0.200930	-0.028800
C154	C	1.103629	0.299070	0.471200
C155	C	0.603626	-0.147514	-0.028808
C156	C	1.103626	0.352486	0.471192
C157	C	0.537393	-0.147529	-0.095002
C158	C	1.037393	0.352471	0.404998
C159	C	0.537397	-0.200940	-0.094996
C160	C	1.037397	0.299060	0.405004
C161	C	0.570517	-0.227640	-0.061891
C162	C	1.070517	0.272360	0.438109
O163	O	0.509266	-0.285446	-0.123125
O164	O	1.009266	0.214554	0.376875
O165	O	0.631790	-0.285466	-0.000639
O166	O	1.131790	0.214534	0.499361
C167	C	0.603641	-0.526746	-0.028777
C168	C	1.103641	-0.026746	0.471223
C169	C	0.570526	-0.553456	-0.061871
C170	C	1.070526	-0.053456	0.438129
C171	C	0.537410	-0.526754	-0.094968
C172	C	1.037410	-0.026754	0.405032
C173	C	0.570530	-0.606870	-0.061870
C174	C	1.070530	-0.106870	0.438130
C175	C	0.603646	-0.633572	-0.028773
C176	C	1.103646	-0.133572	0.471227
C177	C	0.636759	-0.606860	0.004323
C178	C	1.136759	-0.106860	0.504323
C179	C	0.636758	-0.553448	0.004320
C180	C	1.136758	-0.053448	0.504320
C181	C	0.504297	-0.553466	-0.128064
C182	C	1.004297	-0.053466	0.371936
C183	C	0.504301	-0.606878	-0.128058
C184	C	1.004301	-0.106878	0.371942
C185	C	0.537418	-0.633580	-0.094961
C186	C	1.037418	-0.133580	0.405039
C187	C	0.658931	-0.000060	-0.057699
C188	C	1.158931	0.499940	0.442301
C189	C	0.712585	-0.000062	-0.058252
C190	C	1.212585	0.499938	0.441748
C191	C	0.574717	-0.000065	0.026515
C192	C	1.074717	0.499935	0.526515
C193	C	0.574164	-0.000070	0.080170
C194	C	1.074164	0.499930	0.580170
N195	N	0.570548	0.120710	-0.061869
N196	N	1.070548	0.620710	0.438131
C197	C	0.614870	-0.000057	0.418985
C198	C	1.114870	0.499943	0.918985
C199	C	0.612820	-0.000055	0.620645
C200	C	1.112820	0.499945	1.120645
O201	O	0.650041	-0.000037	0.651901
O202	O	1.150041	0.499963	1.151901
N203	N	0.568485	-0.000050	0.639769
N204	N	1.068485	0.499950	1.139769
C205	C	0.524659	-0.000044	0.608474
C206	C	1.024659	0.499956	1.108474
O207	O	0.486902	-0.000035	0.629367
O208	O	0.986902	0.499965	1.129367
C209	C	0.526710	-0.000042	0.406815
C210	C	1.026710	0.499958	0.906815
C211	C	0.571047	-0.000052	0.387695
C212	C	1.071047	0.499948	0.887695
C213	C	0.659204	-0.000066	0.399864
C214	C	1.159204	0.499934	0.899864
C215	C	0.659716	-0.000069	0.349452
C216	C	1.159716	0.499931	0.849452
C217	C	0.615894	-0.000064	0.318161
C218	C	1.115894	0.499936	0.818161
C219	C	0.571559	-0.000055	0.337283
C220	C	1.071559	0.499945	0.837283
C221	C	0.482884	-0.000032	0.375522
C222	C	0.982884	0.499968	0.875522
C223	C	0.483401	-0.000030	0.325104
C224	C	0.983401	0.499970	0.825104
C225	C	0.527739	-0.000039	0.305984
C226	C	1.027739	0.499961	0.805984
C227	C	0.528249	-0.000053	0.255580
C228	C	1.028249	0.499947	0.755580
N229	N	0.572584	-0.000057	0.236456
N230	N	1.072584	0.499943	0.736456
C231	C	0.616406	-0.000062	0.267747
C232	C	1.116406	0.499938	0.767747
C233	C	0.523586	-0.000045	0.714348
C234	C	1.023586	0.499955	1.214348
C235	C	0.523073	-0.000046	0.764763
C236	C	1.023073	0.499954	1.264763
C237	C	0.611234	-0.000057	0.776930
C238	C	1.111234	0.499943	1.276930
C239	C	0.611746	-0.000059	0.726515
C240	C	1.111746	0.499941	1.226515
C241	C	0.567921	-0.000049	0.695225
C242	C	1.067921	0.499951	1.195225
C243	C	0.617478	-0.000070	0.161878
C244	C	1.117478	0.499930	0.661878
C245	C	0.617986	-0.000075	0.111461
C246	C	1.117986	0.499925	0.611461
C247	C	0.529826	-0.000063	0.099298
C248	C	1.029826	0.499937	0.599298
C249	C	0.529317	-0.000060	0.149710
C250	C	1.029317	0.499940	0.649710
C251	C	0.573148	-0.000062	0.180999
C252	C	1.073148	0.499938	0.680999
O253	O	0.491048	-0.000064	0.224296
O254	O	0.991048	0.499936	0.724296
O255	O	0.654158	-0.000060	0.246844
O256	O	1.154158	0.499940	0.746844
C257	C	0.614358	-0.000054	0.469397
C258	C	1.114358	0.499946	0.969397
C259	C	0.570024	-0.000045	0.488519
C260	C	1.070024	0.499955	0.988519
C261	C	0.526201	-0.000039	0.457228
C262	C	1.026201	0.499961	0.957228
C263	C	0.569511	-0.000046	0.538933
C264	C	1.069511	0.499954	1.038933
C265	C	0.613333	-0.000051	0.570224
C266	C	1.113333	0.499949	1.070224
C267	C	0.657668	-0.000056	0.551100
C268	C	1.157668	0.499944	1.051100
C269	C	0.658180	-0.000059	0.500688
C270	C	1.158180	0.499941	1.000688
C271	C	0.481866	-0.000035	0.476352
C272	C	0.981866	0.499965	0.976352
C273	C	0.481358	-0.000032	0.526764
C274	C	0.981358	0.499968	1.026764
C275	C	0.525180	-0.000038	0.558055
C276	C	1.025180	0.499962	1.058055
C277	C	0.566339	-0.000042	0.849708
C278	C	1.066339	0.499958	1.349708
C279	C	0.566896	-0.000052	0.796054
C280	C	1.066896	0.499948	1.296054
H281	H	-0.293778	-0.000049	-0.138273
H282	H	0.206222	0.499951	0.361727
H283	H	0.486969	-0.000048	0.780326
H284	H	0.986969	0.499952	1.280326
H285	H	-0.271687	-0.000071	0.021674
H286	H	0.228313	0.499929	0.521674
H287	H	0.446180	-0.000030	0.450879
H288	H	0.946180	0.499970	0.950879
C289	C	0.443765	-0.000050	0.027015
C290	C	0.943765	0.499950	0.527015
H291	H	0.425160	-0.000052	0.053497
H292	H	0.925160	0.499948	0.553497
H293	H	0.463684	-0.029640	0.028641
H294	H	0.963684	0.470360	0.528641
H295	H	0.463684	0.029547	0.028649
H296	H	0.963684	0.529547	0.528649
H297	H	0.477310	-0.371483	-0.155018
H298	H	0.977310	0.128517	0.344982
H299	H	0.209010	-0.000092	0.060929
H300	H	0.709010	0.499908	0.560929
C301	C	0.467870	-0.524101	-0.164476
C302	C	0.967870	-0.024101	0.335524
H303	H	0.448155	-0.547664	-0.184187
H304	H	0.948155	-0.047664	0.315813
H305	H	0.447876	-0.503264	-0.147233
H306	H	0.947876	-0.003264	0.352767
H307	H	0.485110	-0.503267	-0.184483
H308	H	0.985110	-0.003267	0.315517
H309	H	0.663720	-0.371470	0.031259
H310	H	1.163720	0.128530	0.531259
H311	H	0.663726	-0.531705	0.031269
H312	H	1.163726	-0.031705	0.531269
H313	H	0.494147	-0.000060	0.073812
H314	H	0.994147	0.499940	0.573812
H315	H	0.663725	-0.628609	0.031271
H316	H	1.163725	-0.128609	0.531271
H317	H	0.493214	-0.000066	0.165279
H318	H	0.993214	0.499934	0.665279
H319	H	0.694892	-0.000068	0.425337
H320	H	1.194892	0.499932	0.925337
C321	C	0.418207	-0.000017	-0.158121
C322	C	0.918207	0.499983	0.341879
H323	H	0.392348	-0.000019	-0.184145
H324	H	0.892348	0.499981	0.315855
H325	H	0.437621	0.029575	-0.160152
H326	H	0.937621	0.529575	0.339848
H327	H	0.437619	-0.029612	-0.160157
H328	H	0.937619	0.470388	0.339843
H329	H	0.487896	-0.000038	0.688875
H330	H	0.987896	0.499962	1.188875
C331	C	0.640090	-0.881953	0.007639
C332	C	1.140090	-0.381953	0.507639
H333	H	0.659814	-0.858399	0.027352
H334	H	1.159814	-0.358399	0.527352
H335	H	0.622850	-0.902793	0.027638
H336	H	1.122850	-0.402793	0.527638
H337	H	0.660083	-0.902787	-0.009613
H338	H	1.160083	-0.402787	0.490387
C339	C	0.066701	-0.000083	0.074983
C340	C	0.566701	0.499917	0.574983
H341	H	0.048087	-0.000083	0.101457
H342	H	0.548087	0.499917	0.601457
H343	H	0.086623	-0.029672	0.076618
H344	H	0.586623	0.470328	0.576618
H345	H	0.086618	0.029516	0.076619
H346	H	0.586618	0.529516	0.576619
H347	H	-0.202312	-0.000045	-0.139208
H348	H	0.297688	0.499955	0.360792
C349	C	-0.076886	-0.000042	-0.197231
C350	C	0.423114	0.499958	0.302769
H351	H	-0.058282	-0.000032	-0.223713
H352	H	0.441718	0.499968	0.276287
H353	H	-0.096807	-0.029634	-0.198864
H354	H	0.403193	0.470366	0.301136
H355	H	-0.096803	0.029554	-0.198856
H356	H	0.403197	0.529554	0.301144
C357	C	0.180212	-0.000032	-0.199848
C358	C	0.680212	0.499968	0.300152
H359	H	0.154351	-0.000034	-0.225870
H360	H	0.654351	0.499966	0.274130
H361	H	0.199629	0.029558	-0.201885
H362	H	0.699629	0.529558	0.298115
H363	H	0.199621	-0.029629	-0.201883
H364	H	0.699621	0.470371	0.298117
C365	C	0.706952	-0.000064	0.479662
C366	C	1.206952	0.499936	0.979662
H367	H	0.732974	-0.000062	0.505523
H368	H	1.232974	0.499938	1.005523
H369	H	0.708985	-0.029655	0.460248
H370	H	1.208985	0.470345	0.960248
H371	H	0.708991	0.029532	0.460249
H372	H	1.208991	0.529532	0.960249
H373	H	0.446780	-0.000021	0.391081
H374	H	0.946780	0.499979	0.891081
C375	C	0.666760	-0.000083	0.090431
C376	C	1.166760	0.499917	0.590431
H377	H	0.692784	-0.000080	0.116290
H378	H	1.192784	0.499920	0.616290
H379	H	0.668790	-0.029675	0.071018
H380	H	1.168790	0.470325	0.571018
H381	H	0.668797	0.029512	0.071017
H382	H	1.168797	0.529512	0.571017
C383	C	0.659438	-0.000055	0.811356
C384	C	1.159438	0.499945	1.311356
H385	H	0.652778	-0.000049	0.844118
H386	H	1.152778	0.499951	1.344118
H387	H	0.677637	-0.029644	0.805601
H388	H	1.177637	0.470356	1.305601
H389	H	0.677631	0.029543	0.805594
H390	H	1.177631	0.529543	1.305594
C391	C	0.028976	-0.000039	-0.198311
C392	C	0.528976	0.499961	0.301689
H393	H	0.003115	-0.000040	-0.224333
H394	H	0.503115	0.499960	0.275667
H395	H	0.048392	0.029553	-0.200345
H396	H	0.548392	0.529553	0.299655
H397	H	0.048386	-0.029635	-0.200349
H398	H	0.548386	0.470365	0.299651
H399	H	0.447712	-0.000021	0.299630
H400	H	0.947712	0.499979	0.799630
H401	H	0.693350	-0.000062	0.576586
H402	H	1.193350	0.499938	1.076586
C403	C	0.500950	-0.230322	-0.131382
C404	C	1.000950	0.269678	0.368618
H405	H	0.481220	-0.206767	-0.151086
H406	H	0.981220	0.293233	0.348914
H407	H	0.518162	-0.251174	-0.151392
H408	H	1.018162	0.248826	0.348608
H409	H	0.480966	-0.251144	-0.114104
H410	H	0.980966	0.248856	0.385896
H411	H	-0.180236	-0.000079	0.020747
H412	H	0.319764	0.499921	0.520747
H413	H	0.653169	-0.000070	0.187348
H414	H	1.153169	0.499930	0.687348
C415	C	0.467867	-0.636253	-0.164464
C416	C	0.967867	-0.136253	0.335536
H417	H	0.448142	-0.612695	-0.184170
H418	H	0.948142	-0.112695	0.315830
H419	H	0.485095	-0.657092	-0.184469
H420	H	0.985095	-0.157092	0.315531
H421	H	0.447876	-0.657086	-0.147205
H422	H	0.947876	-0.157086	0.352795
C423	C	0.708487	-0.000076	0.328423
C424	C	1.208487	0.499924	0.828423
H425	H	0.702523	-0.000080	0.293916
H426	H	1.202523	0.499920	0.793916
H427	H	0.726519	0.029513	0.339188
H428	H	1.226519	0.529513	0.839188
H429	H	0.726507	-0.029674	0.339189
H430	H	1.226507	0.470326	0.839189
C431	C	0.312349	-0.000023	-0.157051
C432	C	0.812349	0.499977	0.342949
H433	H	0.330964	-0.000010	-0.183525
H434	H	0.830964	0.499990	0.316475
H435	H	0.292426	-0.029614	-0.158696
H436	H	0.792426	0.470386	0.341304
H437	H	0.292433	0.029574	-0.158678
H438	H	0.792433	0.529574	0.341322
H439	H	0.630598	-0.222662	-0.001842
H440	H	1.130598	0.277338	0.498158
H441	H	0.343360	-0.000050	0.015426
H442	H	0.843360	0.499950	0.515426
H443	H	0.083301	-0.000035	-0.186251
H444	H	0.583301	0.499965	0.313749
H445	H	0.663723	-0.468361	0.031266
H446	H	1.163723	0.031639	0.531266
H447	H	0.510456	-0.777437	-0.121918
H448	H	1.010456	-0.277437	0.378082
C449	C	0.640088	-0.769786	0.007636
C450	C	1.140088	-0.269786	0.507636
H451	H	0.659807	-0.793344	0.027347
H452	H	1.159807	-0.293344	0.527347
H453	H	0.660078	-0.748944	-0.009612
H454	H	1.160078	-0.248944	0.490388
H455	H	0.622847	-0.748956	0.027642
H456	H	1.122847	-0.248956	0.527642
H457	H	-0.033688	-0.000088	0.063392
H458	H	0.466312	0.499912	0.563392
C459	C	0.640055	-0.118136	0.007601
C460	C	1.140055	0.381864	0.507601
H461	H	0.659774	-0.141692	0.027315
H462	H	1.159774	0.358308	0.527315
H463	H	0.660047	-0.097297	-0.009649
H464	H	1.160047	0.402703	0.490351
H465	H	0.622815	-0.097302	0.027605
H466	H	1.122815	0.402698	0.527605
H467	H	0.510469	-0.874331	-0.121920
H468	H	1.010469	-0.374331	0.378080
C469	C	0.500964	-0.118150	-0.131402
C470	C	1.000964	0.381850	0.368598
H471	H	0.505705	-0.082514	-0.126657
H472	H	1.005705	0.417486	0.373343
H473	H	0.505963	-0.126899	-0.163631
H474	H	1.005963	0.373101	0.336369
H475	H	0.468744	-0.126907	-0.126366
H476	H	0.968744	0.373093	0.373634
C477	C	0.660517	-0.000064	0.705486
C478	C	1.160517	0.499936	1.205486
H479	H	0.686541	-0.000065	0.731347
H480	H	1.186541	0.499935	1.231347
H481	H	0.662548	-0.029655	0.686071
H482	H	1.162548	0.470345	1.186071
H483	H	0.662557	0.029533	0.686076
H484	H	1.162557	0.529533	1.186076
C485	C	0.432583	-0.000021	0.547791
C486	C	0.932583	0.499979	1.047791
H487	H	0.406559	-0.000012	0.521931
H488	H	0.906559	0.499988	1.021931
H489	H	0.430538	-0.029608	0.567209
H490	H	0.930538	0.470392	1.067209
H491	H	0.430558	0.029579	0.567200
H492	H	0.930558	0.529579	1.067200
H493	H	0.477316	-0.468377	-0.155019
H494	H	0.977316	0.031623	0.344981
H495	H	0.117559	-0.000091	0.061861
H496	H	0.617559	0.499909	0.561861
