data_functionalizedCrystal
_audit_creation_method	'MofGen! by Chris Wilmer'
_symmetry_space_group_name_H-M	'P1'
_symmetry_Int_Tables_number	1
_symmetry_cell_setting	triclinic
loop_
_symmetry_equiv_pos_as_xyz
  x,y,z
_cell_length_a	16.974800
_cell_length_b	15.944551
_cell_length_c	16.053802
_cell_angle_alpha	92.564789
_cell_angle_beta	91.074188
_cell_angle_gamma	83.444312
loop_
_atom_site_label
_atom_site_type_symbol
_atom_site_fract_x
_atom_site_fract_y
_atom_site_fract_z
O1	O	1.049083	0.107072	0.001480
O2	O	0.819622	0.119930	-0.014032
O3	O	0.940618	-0.008760	-0.005845
O4	O	0.928087	0.235762	-0.006707
O5	O	0.933958	-0.001705	0.132563
O6	O	0.812962	0.126985	0.124376
O7	O	1.042423	0.114126	0.139888
Zn8	Zn	0.926635	0.121676	0.154108
Zn9	Zn	0.935410	0.112381	-0.028251
O10	O	0.921427	0.242816	0.131701
C11	C	0.786929	0.122839	0.053187
C12	C	0.699436	0.120987	0.047273
C13	C	0.654706	0.123960	0.119942
C14	C	0.572499	0.122207	0.114388
C15	C	0.535023	0.117486	0.036162
C16	C	0.579759	0.114510	-0.036513
C17	C	0.661965	0.116258	-0.030957
C18	C	0.289552	0.111841	0.011457
C19	C	0.207339	0.110096	0.005906
C20	C	0.200085	0.117791	0.156807
C21	C	0.282293	0.119544	0.162356
C22	C	0.327023	0.116563	0.089681
N23	N	0.450993	0.115696	0.030483
N24	N	0.411051	0.118347	0.095362
C25	C	0.936768	-0.036527	0.063324
C26	C	0.935208	-0.129777	0.063219
C27	C	0.856481	-0.344805	0.057886
C28	C	0.889756	-0.402265	0.128601
C29	C	0.932387	-0.300509	0.063022
C30	C	0.896340	-0.409203	-0.007858
C31	C	0.929656	-0.465428	0.062828
C32	C	0.965680	-0.356738	0.133795
C33	C	0.972256	-0.363673	-0.002726
C34	C	1.005585	-0.421114	0.068010
C35	C	0.933958	-0.205503	0.063135
C36	C	0.928091	-0.560433	0.062721
C37	C	1.075116	0.111217	0.072667
C38	C	1.162609	0.113069	0.078576
C39	C	0.925277	0.270584	0.062530
C40	C	0.926837	0.363833	0.062630
N41	N	0.920652	0.128018	0.278563
N42	N	0.941399	0.106032	-0.152706
C43	C	0.972155	0.073280	0.325742
C44	C	0.967977	0.077725	0.412866
C45	C	0.912300	0.136912	0.452810
C46	C	0.860792	0.191653	0.405625
C47	C	0.864966	0.187203	0.318502
C48	C	0.894065	0.156323	0.712986
C49	C	0.889896	0.160770	0.800115
C50	C	0.997081	0.046841	0.807350
C51	C	1.001254	0.042400	0.720226
C52	C	0.949743	0.097138	0.673048
N53	N	0.908030	0.141458	0.541865
N54	N	0.954010	0.092587	0.583994
H55	H	0.312801	0.123384	0.226056
Cl56	Cl	0.800214	0.256018	0.259192
H57	H	1.007110	-0.346414	-0.058255
Cl58	Cl	0.851038	-0.444869	-0.100279
Cl59	Cl	0.516269	0.125960	0.205749
Cl60	Cl	0.143850	0.121534	0.248164
Cl61	Cl	0.345772	0.108096	-0.079907
Cl62	Cl	0.718198	0.112516	-0.122317
Cl63	Cl	1.042157	-0.001128	0.275536
Cl64	Cl	1.010917	-0.321228	0.226317
Cl65	Cl	0.701811	0.129900	0.218288
Cl66	Cl	1.102941	-0.472099	0.074647
Cl67	Cl	0.160227	0.104164	-0.092442
Cl68	Cl	0.532649	0.108544	-0.134854
Cl69	Cl	1.061831	-0.021971	0.866663
H70	H	0.793473	-0.311631	0.053695
H71	H	0.854875	-0.419502	0.184125
Cl72	Cl	1.032724	0.008909	0.472178
Cl73	Cl	1.071250	-0.032007	0.670010
Cl74	Cl	0.790793	0.266057	0.455837
H75	H	0.844555	0.208971	0.832633
H76	H	0.852124	0.200895	0.674580
