data_functionalizedCrystal
_audit_creation_method	'MofGen! by Chris Wilmer'
_symmetry_space_group_name_H-M	'P1'
_symmetry_Int_Tables_number	1
_symmetry_cell_setting	triclinic
loop_
_symmetry_equiv_pos_as_xyz
  x,y,z
_cell_length_a	10.685904
_cell_length_b	16.959453
_cell_length_c	10.686551
_cell_angle_alpha	85.591100
_cell_angle_beta	81.591549
_cell_angle_gamma	94.386675
loop_
_atom_site_label
_atom_site_type_symbol
_atom_site_fract_x
_atom_site_fract_y
_atom_site_fract_z
Zn1	Zn	1.995778	-0.177164	-0.866692
Zn2	Zn	1.979333	-0.320360	-0.654414
Zn3	Zn	1.767199	-0.199164	-0.638154
Zn4	Zn	1.783456	-0.320284	-0.850323
O5	O	1.881442	-0.254243	-0.752396
O6	O	2.171232	-0.186984	-0.852189
O7	O	1.937508	-0.313522	-0.474624
O8	O	1.797599	-0.085629	-0.668516
O9	O	2.159151	-0.292189	-0.696228
O10	O	1.965535	-0.069465	-0.836422
O11	O	1.781654	-0.224480	-0.462677
O12	O	1.591720	-0.224406	-0.652643
O13	O	1.825306	-0.292059	-1.030128
O14	O	1.603663	-0.313392	-0.808523
O15	O	1.981298	-0.186910	-1.042154
O16	O	1.953271	-0.430967	-0.680356
O17	O	1.809361	-0.430911	-0.824290
C18	C	1.551632	-0.271279	-0.727043
C19	C	1.410541	-0.278584	-0.716227
C20	C	1.881332	-0.459617	-0.752341
C21	C	1.881405	-0.547469	-0.752369
C22	C	1.969001	-0.910453	-0.839986
C23	C	1.794251	-0.927401	-0.665021
C24	C	1.794202	-0.844859	-0.664988
C25	C	1.881552	-0.795110	-0.752457
C26	C	1.968952	-0.827903	-0.839958
C27	C	1.706795	-0.812060	-0.577497
C28	C	1.706741	-0.729514	-0.577462
C29	C	1.794099	-0.679763	-0.664926
C30	C	1.881503	-0.712561	-0.752429
C31	C	1.968854	-0.662811	-0.839898
C32	C	2.056265	-0.695607	-0.927397
C33	C	2.056310	-0.778153	-0.927422
C34	C	1.794054	-0.597218	-0.664901
C35	C	1.968805	-0.580262	-0.839870
C36	C	2.212539	-0.237141	-0.777848
C37	C	2.353633	-0.229853	-0.788694
C38	C	1.906949	-0.237022	-1.083487
C39	C	1.917819	-0.229683	-1.224578
C40	C	1.881588	-0.048063	-0.752481
C41	C	1.881651	0.039798	-0.752517
C42	C	1.856106	-0.271336	-0.422598
C43	C	1.845482	-0.278439	-0.281526
H44	H	1.351323	-0.325891	-0.645910
H45	H	1.988076	-0.182327	-1.283769
H46	H	1.412857	-0.182539	-0.859008
N47	N	2.150463	-0.641940	-1.021740
H48	H	2.205331	-0.607312	-0.974714
H49	H	2.205762	-0.675288	-1.077155
N50	N	1.752407	-0.341158	-1.203137
H51	H	1.705674	-0.372648	-1.261181
H52	H	1.799848	-0.377903	-1.152079
N53	N	2.063026	-0.526605	-0.934207
H54	H	2.118402	-0.559909	-0.989635
H55	H	2.015809	-0.491988	-0.988926
H56	H	2.127474	-0.804863	-0.998660
H57	H	2.040173	-0.937159	-0.911222
H58	H	1.723129	-0.967912	-0.593813
N59	N	1.612596	-0.865715	-0.483153
H60	H	1.625902	-0.922982	-0.496440
H61	H	1.625448	-0.854981	-0.394038
H62	H	1.635568	-0.702817	-0.506215
N63	N	1.699780	-0.561843	-0.570548
H64	H	1.644447	-0.605884	-0.515147
H65	H	1.746951	-0.527967	-0.515804
