data_functionalizedCrystal
_audit_creation_method	'MofGen! by Chris Wilmer'
_symmetry_space_group_name_H-M	'P1'
_symmetry_Int_Tables_number	1
_symmetry_cell_setting	triclinic
loop_
_symmetry_equiv_pos_as_xyz
  x,y,z
_cell_length_a	8.559649
_cell_length_b	8.597299
_cell_length_c	7.681481
_cell_angle_alpha	103.491169
_cell_angle_beta	94.913240
_cell_angle_gamma	102.375623
loop_
_atom_site_label
_atom_site_type_symbol
_atom_site_fract_x
_atom_site_fract_y
_atom_site_fract_z
O1	O	2.105024	0.037138	-0.140767
O2	O	1.639817	-0.045183	-0.153263
O3	O	1.885145	0.229575	-0.111573
O4	O	1.859696	-0.237620	-0.182457
O5	O	1.915341	0.263461	0.186427
O6	O	1.670013	-0.011297	0.144736
O7	O	2.135220	0.071024	0.157232
Zn8	Zn	1.907411	0.035244	0.198298
Zn9	Zn	1.867626	-0.009403	-0.194329
O10	O	1.889892	-0.203734	0.115542
C11	C	1.595385	-0.034479	-0.005211
C12	C	1.418004	-0.053049	-0.008031
C13	C	1.899193	0.305775	0.046414
C14	C	1.896045	0.482340	0.073192
C15	C	2.179652	0.060319	0.009176
C16	C	2.357032	0.078888	0.011984
C17	C	1.875845	0.720066	-0.042449
C18	C	1.878995	0.543500	-0.069241
N19	N	1.934574	0.065717	0.466256
N20	N	1.840476	-0.039861	-0.462285
H21	H	1.440532	0.206050	0.031269
H22	H	1.744420	-0.147625	0.446167
H23	H	1.866800	0.460781	-0.211680
H24	H	2.030647	0.173478	0.557813
C25	C	1.305191	-0.224855	-0.034100
N26	N	1.220220	-0.354256	-0.053731
H27	H	1.908218	0.565062	0.215640
