data_functionalizedCrystal
_audit_creation_method	'MofGen! by Chris Wilmer'
_symmetry_space_group_name_H-M	'P1'
_symmetry_Int_Tables_number	1
_symmetry_cell_setting	triclinic
loop_
_symmetry_equiv_pos_as_xyz
  x,y,z
_cell_length_a	11.169417
_cell_length_b	13.897447
_cell_length_c	11.169409
_cell_angle_alpha	89.965755
_cell_angle_beta	89.979436
_cell_angle_gamma	90.020409
loop_
_atom_site_label
_atom_site_type_symbol
_atom_site_fract_x
_atom_site_fract_y
_atom_site_fract_z
Zn1	Zn	1.834894	-0.383915	-0.678526
Zn2	Zn	2.168228	-0.050581	-0.345193
Zn3	Zn	2.501561	0.282752	-0.011860
Zn4	Zn	1.834749	-0.545250	-0.477836
Zn5	Zn	2.168082	-0.211917	-0.144503
Zn6	Zn	2.501416	0.121416	0.188830
Zn7	Zn	1.634178	-0.383973	-0.477861
Zn8	Zn	1.967511	-0.050640	-0.144527
Zn9	Zn	2.300844	0.282693	0.188806
Zn10	Zn	1.634156	-0.545172	-0.678481
Zn11	Zn	1.967489	-0.211839	-0.345148
Zn12	Zn	2.300822	0.121495	-0.011815
O13	O	1.734494	-0.464578	-0.578176
O14	O	2.067828	-0.131244	-0.244843
O15	O	2.401161	0.202089	0.088491
O16	O	2.002825	-0.405324	-0.651913
O17	O	2.336158	-0.071991	-0.318580
O18	O	2.669492	0.261342	0.014754
O19	O	1.808091	-0.523914	-0.309890
O20	O	2.141425	-0.190581	0.023444
O21	O	2.474758	0.142753	0.356777
O22	O	1.660873	-0.248984	-0.504509
O23	O	1.994207	0.084349	-0.171175
O24	O	2.327540	0.417683	0.162158
O25	O	2.002718	-0.523857	-0.504467
O26	O	2.336051	-0.190524	-0.171134
O27	O	2.669385	0.142810	0.162200
O28	O	1.808339	-0.248941	-0.651937
O29	O	2.141672	0.084392	-0.318603
O30	O	2.475006	0.417726	0.014730
O31	O	1.660732	-0.405424	-0.309908
O32	O	1.994066	-0.072091	0.023426
O33	O	2.327399	0.261242	0.356759
O34	O	1.466225	-0.405348	-0.504465
O35	O	1.799558	-0.072015	-0.171131
O36	O	2.132892	0.261318	0.162202
O37	O	1.660836	-0.523723	-0.846437
O38	O	1.994169	-0.190390	-0.513104
O39	O	2.327502	0.142943	-0.179770
O40	O	1.466209	-0.523780	-0.651860
O41	O	1.799542	-0.190447	-0.318526
O42	O	2.132876	0.142886	0.014807
O43	O	1.808318	-0.405249	-0.846470
O44	O	2.141651	-0.071915	-0.513137
O45	O	2.474984	0.261418	-0.179804
O46	O	1.808070	-0.680222	-0.504423
O47	O	2.141403	-0.346888	-0.171090
O48	O	2.474736	-0.013555	0.162243
O49	O	1.660695	-0.680164	-0.651836
O50	O	1.994028	-0.346831	-0.318503
O51	O	2.327361	-0.013497	0.014830
C52	C	1.422670	-0.464563	-0.578161
C53	C	1.756003	-0.131230	-0.244827
C54	C	2.089336	0.202104	0.088506
C55	C	1.289270	-0.464580	-0.578183
C56	C	1.622603	-0.131247	-0.244849
C57	C	1.955936	0.202087	0.088484
C58	C	1.734397	-0.715192	-0.578148
C59	C	2.067730	-0.381859	-0.244815
C60	C	2.401063	-0.048525	0.088518
C61	C	1.734465	-0.822406	-0.578177
C62	C	2.067798	-0.489073	-0.244843
C63	C	2.401131	-0.155739	0.088490
C64	C	1.734523	-0.909476	-0.578204
C65	C	2.067856	-0.576142	-0.244871
C66	C	2.401189	-0.242809	0.088463
C67	C	1.734607	-1.018708	-0.578235
C68	C	2.067940	-0.685375	-0.244901
C69	C	2.401274	-0.352041	0.088432
C70	C	2.047537	-0.464593	-0.578192
C71	C	2.380870	-0.131260	-0.244859
C72	C	2.714203	0.202074	0.088474
C73	C	2.180936	-0.464600	-0.578199
C74	C	2.514270	-0.131266	-0.244866
C75	C	2.847603	0.202067	0.088467
C76	C	1.734590	-0.464471	-0.891219
C77	C	2.067924	-0.131137	-0.557885
C78	C	2.401257	0.202196	-0.224552
C79	C	1.734631	-0.464425	-1.024619
C80	C	2.067965	-0.131092	-0.691286
C81	C	2.401298	0.202241	-0.357952
C82	C	1.734625	-0.212985	-0.578230
C83	C	2.067958	0.120349	-0.244897
C84	C	2.401292	0.453682	0.088436
C85	C	1.734681	-0.105771	-0.578253
C86	C	2.068014	0.227563	-0.244920
C87	C	2.401347	0.560896	0.088413
C88	C	1.734467	-0.464614	-0.266351
C89	C	2.067801	-0.131281	0.066982
C90	C	2.401134	0.202052	0.400315
C91	C	1.734659	-0.464388	-0.132952
C92	C	2.067992	-0.131055	0.200381
C93	C	2.401326	0.202278	0.533715
