data_functionalizedCrystal
_audit_creation_method	'MofGen! by Chris Wilmer'
_symmetry_space_group_name_H-M	'P1'
_symmetry_Int_Tables_number	1
_symmetry_cell_setting	triclinic
loop_
_symmetry_equiv_pos_as_xyz
  x,y,z
_cell_length_a	14.908571
_cell_length_b	12.759400
_cell_length_c	12.759401
_cell_angle_alpha	90.007629
_cell_angle_beta	93.296001
_cell_angle_gamma	86.710990
loop_
_atom_site_label
_atom_site_type_symbol
_atom_site_fract_x
_atom_site_fract_y
_atom_site_fract_z
Zn1	Zn	1.379105	-0.511302	0.686582
Zn2	Zn	1.379060	-0.686944	0.510899
Zn3	Zn	1.228282	-0.501129	0.500794
Zn4	Zn	1.228227	-0.676781	0.676413
O5	O	1.303669	-0.594039	0.593672
O6	O	1.505343	-0.543112	0.671762
O7	O	1.359063	-0.662291	0.362538
O8	O	1.248331	-0.355460	0.525467
O9	O	1.505310	-0.672156	0.542689
O10	O	1.359140	-0.362934	0.661964
O11	O	1.248288	-0.525773	0.355114
O12	O	1.102031	-0.515919	0.515606
O13	O	1.248237	-0.654834	0.824782
O14	O	1.101990	-0.644970	0.644632
O15	O	1.359087	-0.533257	0.832254
O16	O	1.359010	-0.832614	0.532828
O17	O	1.248193	-0.825148	0.654430
C18	C	1.069277	-0.578238	0.577919
C19	C	0.969003	-0.571504	0.571205
C20	C	1.303615	-0.867003	0.593647
C21	C	1.303675	-0.983783	0.593676
C22	C	0.780584	-0.693439	0.692763
C23	C	0.686368	-0.687115	0.686458
C24	C	0.686353	-0.552527	0.552297
C25	C	0.780569	-0.558851	0.558602
C26	C	0.827682	-0.629311	0.628836
C27	C	0.921900	-0.635639	0.635135
C28	C	0.921883	-0.501047	0.500979
C29	C	0.827667	-0.494723	0.494675
C30	C	1.361441	-1.042503	0.530437
C31	C	1.361496	-1.152231	0.530473
C32	C	1.246012	-1.144509	0.656991
C33	C	1.245962	-1.034784	0.656959
C34	C	1.419154	-0.991502	0.467154
C35	C	1.476924	-1.050222	0.403908
C36	C	1.476980	-1.159950	0.403944
C37	C	1.419265	-1.210958	0.467226
C38	C	1.538976	-0.609902	0.609487
C39	C	1.639249	-0.616662	0.616226
C40	C	1.303661	-0.594047	0.867705
C41	C	1.303657	-0.594050	0.984481
C42	C	1.303747	-0.320011	0.593722
C43	C	1.303780	-0.203237	0.593744
C44	C	1.245944	-0.657346	1.035455
C45	C	1.245951	-0.657353	1.145180
C46	C	1.361386	-0.530758	1.152947
C47	C	1.361384	-0.530758	1.043225
C48	C	1.188218	-0.720639	0.976712
C49	C	1.130499	-0.783939	1.027685
C50	C	1.130506	-0.783945	1.137410
C51	C	1.188231	-0.720651	1.196161
C52	C	1.303668	-0.594056	1.320705
C53	C	1.303667	-0.594057	1.203928
H54	H	0.960257	-0.693013	0.692322
H55	H	1.408383	-0.479226	1.200790
C56	C	0.832410	-0.770948	0.770016
N57	N	0.871444	-0.829328	0.828206
C58	C	1.540409	-0.994111	0.334305
N59	N	1.588226	-0.951850	0.281877
C60	C	1.182522	-1.200622	0.726585
N61	N	1.134696	-1.242886	0.779000
H62	H	1.408377	-0.479215	1.001721
H63	H	0.648025	-0.739333	0.738516
C64	C	1.540528	-1.224538	0.334376
N65	N	1.588392	-1.273184	0.281969
H66	H	1.419322	-1.300306	0.467259
C67	C	1.182402	-0.970188	0.726510
N68	N	1.134526	-0.921534	0.778894
C69	C	1.188204	-0.720636	0.856012
N70	N	1.188194	-0.720632	0.765101
C71	C	0.634513	-0.475017	0.475056
N72	N	0.595467	-0.416634	0.416879
H73	H	1.083507	-0.835477	0.979843
C74	C	0.775832	-0.417221	0.417421
N75	N	0.736792	-0.358848	0.359230
H76	H	1.083515	-0.835495	1.178910
C77	C	0.973697	-0.430504	0.430651
N78	N	1.012725	-0.377376	0.377679
C79	C	1.188238	-0.720665	1.316861
N80	N	1.188238	-0.720673	1.407772
C81	C	1.419111	-0.870801	0.467124
N82	N	1.419082	-0.779889	0.467107
