data_functionalizedCrystal
_audit_creation_method	'MofGen! by Chris Wilmer'
_symmetry_space_group_name_H-M	'P1'
_symmetry_Int_Tables_number	1
_symmetry_cell_setting	triclinic
loop_
_symmetry_equiv_pos_as_xyz
  x,y,z
_cell_length_a	16.120530
_cell_length_b	12.645330
_cell_length_c	16.120297
_cell_angle_alpha	92.876762
_cell_angle_beta	90.128140
_cell_angle_gamma	87.113442
loop_
_atom_site_label
_atom_site_type_symbol
_atom_site_fract_x
_atom_site_fract_y
_atom_site_fract_z
Zn1	Zn	1.247482	-0.537081	-0.534595
Zn2	Zn	1.580815	-0.203748	-0.201262
Zn3	Zn	1.914148	0.129586	0.132071
Zn4	Zn	1.254445	-0.705843	-0.395547
Zn5	Zn	1.587779	-0.372509	-0.062214
Zn6	Zn	1.921112	-0.039176	0.271119
Zn7	Zn	1.115471	-0.519167	-0.388512
Zn8	Zn	1.448804	-0.185834	-0.055179
Zn9	Zn	1.782137	0.147500	0.278154
Zn10	Zn	1.108402	-0.704866	-0.527517
Zn11	Zn	1.441735	-0.371533	-0.194183
Zn12	Zn	1.775068	-0.038200	0.139150
O13	O	1.181450	-0.616739	-0.461543
O14	O	1.514783	-0.283406	-0.128210
O15	O	1.848116	0.049927	0.205124
O16	O	1.364772	-0.567373	-0.522057
O17	O	1.698106	-0.234040	-0.188724
O18	O	2.031439	0.099293	0.144610
O19	O	1.241883	-0.673991	-0.278248
O20	O	1.575216	-0.340658	0.055085
O21	O	1.908549	-0.007325	0.388418
O22	O	1.133026	-0.373200	-0.407909
O23	O	1.466359	-0.039867	-0.074575
O24	O	1.799693	0.293467	0.258758
O25	O	1.369888	-0.691362	-0.419899
O26	O	1.703222	-0.358028	-0.086566
O27	O	2.036555	-0.024695	0.246768
O28	O	1.230014	-0.386361	-0.515235
O29	O	1.563347	-0.053028	-0.181902
O30	O	1.896681	0.280305	0.151431
O31	O	1.139779	-0.536842	-0.273080
O32	O	1.473112	-0.203508	0.060254
O33	O	1.806445	0.129825	0.393587
O34	O	0.998166	-0.535895	-0.401045
O35	O	1.331499	-0.202562	-0.067711
O36	O	1.664833	0.130772	0.265622
O37	O	1.120978	-0.689698	-0.644821
O38	O	1.454312	-0.356364	-0.311488
O39	O	1.787645	-0.023031	0.021845
O40	O	0.992972	-0.672327	-0.503171
O41	O	1.326306	-0.338994	-0.169837
O42	O	1.659639	-0.005661	0.163496
O43	O	1.223160	-0.566427	-0.650022
O44	O	1.556493	-0.233093	-0.316689
O45	O	1.889826	0.100240	0.016645
O46	O	1.235028	-0.854056	-0.413035
O47	O	1.568362	-0.520723	-0.079702
O48	O	1.901695	-0.187390	0.253632
O49	O	1.127731	-0.853339	-0.509992
O50	O	1.461064	-0.520006	-0.176659
O51	O	1.794397	-0.186673	0.156674
C52	C	0.965397	-0.602062	-0.450577
C53	C	1.298730	-0.268729	-0.117243
C54	C	1.632063	0.064605	0.216090
C55	C	0.872967	-0.595810	-0.445905
C56	C	1.206300	-0.262477	-0.112572
C57	C	1.539634	0.070857	0.220762
C58	C	0.703737	-0.584371	-0.437383
C59	C	1.037070	-0.251037	-0.104050
C60	C	1.370403	0.082296	0.229284
C61	C	0.660000	-0.649190	-0.485763
C62	C	0.993334	-0.315856	-0.152430
C63	C	1.326667	0.017477	0.180903
C64	C	0.565835	-0.642825	-0.481022
C65	C	0.899168	-0.309492	-0.147688
C66	C	1.232501	0.023842	0.185645
C67	C	0.797911	-0.590734	-0.442124
C68	C	1.131244	-0.257401	-0.108790
C69	C	1.464577	0.075933	0.224543
C70	C	1.181390	-0.892164	-0.461528
C71	C	1.514723	-0.558831	-0.128195
C72	C	1.848056	-0.225498	0.205139
C73	C	1.181439	-1.009999	-0.461554
C74	C	1.514772	-0.676666	-0.128220
C75	C	1.848105	-0.343332	0.205113
C76	C	1.114193	-1.177186	-0.522761
C77	C	1.447526	-0.843853	-0.189428
C78	C	1.780859	-0.510519	0.143906
C79	C	1.113876	-1.054592	-0.522537
C80	C	1.447209	-0.721258	-0.189204
C81	C	1.780542	-0.387925	0.144130
C82	C	1.162161	-1.047614	-0.372717
C83	C	1.495494	-0.714281	-0.039383
C84	C	1.828828	-0.380947	0.293950
C85	C	1.161751	-1.170210	-0.373088
C86	C	1.495084	-0.836876	-0.039755
C87	C	1.828417	-0.503543	0.293578
C88	C	1.268390	-1.184441	-0.488492
C89	C	1.601723	-0.851108	-0.155159
C90	C	1.935056	-0.517774	0.178175
C91	C	1.267753	-1.061915	-0.490381
C92	C	1.601086	-0.728582	-0.157048
C93	C	1.934420	-0.395248	0.176286
C94	C	1.398347	-0.631475	-0.472552
C95	C	1.731680	-0.298141	-0.139219
C96	C	2.065013	0.035192	0.194114
C97	C	1.490775	-0.637754	-0.477244
C98	C	1.824108	-0.304421	-0.143911
C99	C	2.157442	0.028913	0.189423
C100	C	1.170504	-0.629952	-0.678438
C101	C	1.503837	-0.296618	-0.345104
C102	C	1.837170	0.036715	-0.011771
C103	C	1.165839	-0.635582	-0.770865
C104	C	1.499172	-0.302248	-0.437532
C105	C	1.832506	0.031085	-0.104199
C106	C	1.181532	-0.340242	-0.461577
C107	C	1.514865	-0.006908	-0.128244
C108	C	1.848198	0.326425	0.205090
C109	C	1.181567	-0.222415	-0.461592
C110	C	1.514900	0.110919	-0.128258
C111	C	1.848233	0.444252	0.205075
C112	C	1.157292	-0.645836	-0.940091
C113	C	1.490625	-0.312502	-0.606757
C114	C	1.823959	0.020831	-0.273424
C115	C	1.205771	-0.587337	-0.983855
C116	C	1.539105	-0.254003	-0.650522
C117	C	1.872438	0.079330	-0.317188
C118	C	1.201016	-0.593042	-1.078018
C119	C	1.534349	-0.259708	-0.744685
C120	C	1.867682	0.073625	-0.411351
C121	C	1.162047	-0.640132	-0.845919
C122	C	1.495380	-0.306798	-0.512586
C123	C	1.828713	0.026535	-0.179253
C124	C	1.192401	-0.603505	-0.245494
C125	C	1.525735	-0.270172	0.087839
C126	C	1.859068	0.063161	0.421173
C127	C	1.197227	-0.597587	-0.153075
C128	C	1.530560	-0.264254	0.180258
C129	C	1.863894	0.069079	0.513592
H130	H	1.125592	-1.211590	-0.588700
H131	H	1.458925	-0.878257	-0.255366
H132	H	1.792258	-0.544924	0.077967
N133	N	0.704074	-0.729046	-0.545334
N134	N	1.037407	-0.395712	-0.212001
N135	N	1.370741	-0.062379	0.121333
H136	H	0.661764	-0.771422	-0.576959
H137	H	0.995097	-0.438089	-0.243626
H138	H	1.328431	-0.104756	0.089708
H139	H	0.738193	-0.690718	-0.585658
H140	H	1.071526	-0.357385	-0.252324
H141	H	1.404860	-0.024052	0.081009
N142	N	1.129161	-1.021252	-0.609607
N143	N	1.462494	-0.687918	-0.276274
N144	N	1.795828	-0.354585	0.057059
H145	H	1.080347	-0.975109	-0.628229
H146	H	1.413680	-0.641775	-0.294896
H147	H	1.747013	-0.308442	0.038437
H148	H	1.181230	-0.980113	-0.610388
H149	H	1.514563	-0.646780	-0.277055
H150	H	1.847897	-0.313447	0.056278
H151	H	0.670462	-0.524103	-0.392405
H152	H	1.003795	-0.190769	-0.059072
H153	H	1.337128	0.142564	0.274262
N154	N	1.287122	-1.030121	-0.577004
N155	N	1.620456	-0.696788	-0.243671
N156	N	1.953789	-0.363455	0.089663
H157	H	1.340315	-0.991157	-0.576171
H158	H	1.673649	-0.657824	-0.242838
H159	H	2.006982	-0.324490	0.090495
H160	H	1.293797	-1.095650	-0.615339
H161	H	1.627131	-0.762317	-0.282006
H162	H	1.960464	-0.428984	0.051328
H163	H	1.050134	-1.202791	-0.504798
H164	H	1.383467	-0.869458	-0.171465
H165	H	1.716801	-0.536125	0.161868
H166	H	1.049419	-1.020022	-0.504364
H167	H	1.382753	-0.686689	-0.171031
H168	H	1.716086	-0.353356	0.162303
N169	N	1.077860	-1.200905	-0.343586
N170	N	1.411193	-0.867572	-0.010252
N171	N	1.744526	-0.534239	0.323081
H172	H	1.041493	-1.134828	-0.330463
H173	H	1.374826	-0.801495	0.002870
H174	H	1.708159	-0.468161	0.336203
H175	H	1.050952	-1.245913	-0.388573
H176	H	1.384286	-0.912579	-0.055240
H177	H	1.717619	-0.579246	0.278094
N178	N	1.265486	-0.515332	-0.939812
N179	N	1.598819	-0.181999	-0.606479
N180	N	1.932153	0.151334	-0.273145
H181	H	1.324148	-0.536736	-0.957901
H182	H	1.657481	-0.203403	-0.624568
H183	H	1.990814	0.129930	-0.291235
H184	H	1.251785	-0.439628	-0.954228
H185	H	1.585118	-0.106295	-0.620895
H186	H	1.918452	0.227038	-0.287561
N187	N	1.097584	-0.717833	-0.984139
N188	N	1.430917	-0.384500	-0.650805
N189	N	1.764250	-0.051167	-0.317472
H190	H	1.129580	-0.771389	-1.021901
H191	H	1.462914	-0.438056	-0.688567
H192	H	1.796247	-0.104722	-0.355234
H193	H	1.065896	-0.756014	-0.941770
H194	H	1.399230	-0.422681	-0.608437
H195	H	1.732563	-0.089348	-0.275104
N196	N	1.079170	-0.999799	-0.342808
N197	N	1.412503	-0.666466	-0.009475
N198	N	1.745837	-0.333132	0.323859
H199	H	1.067321	-1.024478	-0.285598
H200	H	1.400655	-0.691144	0.047736
H201	H	1.733988	-0.357811	0.381069
H202	H	1.080488	-0.919939	-0.340452
H203	H	1.413821	-0.586605	-0.007119
H204	H	1.747155	-0.253272	0.326214
H205	H	1.208935	-1.199856	-0.325719
H206	H	1.542268	-0.866522	0.007615
H207	H	1.875601	-0.533189	0.340948
N208	N	1.337282	-1.022302	-0.436141
N209	N	1.670615	-0.688969	-0.102808
N210	N	2.003948	-0.355636	0.230525
H211	H	1.313708	-0.969911	-0.391913
H212	H	1.647042	-0.636578	-0.058580
H213	H	1.980375	-0.303245	0.274753
H214	H	1.366445	-1.084101	-0.408968
H215	H	1.699778	-0.750767	-0.075635
H216	H	2.033112	-0.417434	0.257698
N217	N	1.225357	-1.009058	-0.310431
N218	N	1.558691	-0.675725	0.022902
N219	N	1.892024	-0.342391	0.356236
H220	H	1.267191	-0.966734	-0.339270
H221	H	1.600524	-0.633401	-0.005937
H222	H	1.933858	-0.300067	0.327396
H223	H	1.196298	-0.962786	-0.265401
H224	H	1.529632	-0.629453	0.067932
H225	H	1.862965	-0.296119	0.401266
N226	N	1.292850	-1.232364	-0.573140
N227	N	1.626184	-0.899031	-0.239807
N228	N	1.959517	-0.565698	0.093527
H229	H	1.348733	-1.206962	-0.589177
H230	H	1.682066	-0.873629	-0.255844
H231	H	2.015400	-0.540295	0.077489
H232	H	1.296238	-1.312201	-0.571497
H233	H	1.629572	-0.978867	-0.238164
H234	H	1.962905	-0.645534	0.095170
N235	N	1.334811	-1.223315	-0.429553
N236	N	1.668145	-0.889981	-0.096220
N237	N	2.001478	-0.556648	0.237113
H238	H	1.308836	-1.265320	-0.385639
H239	H	1.642169	-0.931987	-0.052306
H240	H	1.975503	-0.598653	0.281027
H241	H	1.377678	-1.269965	-0.461452
H242	H	1.711011	-0.936632	-0.128119
H243	H	2.044344	-0.603299	0.205214
