data_functionalizedCrystal
_audit_creation_method	'MofGen! by Chris Wilmer'
_symmetry_space_group_name_H-M	'P1'
_symmetry_Int_Tables_number	1
_symmetry_cell_setting	triclinic
loop_
_symmetry_equiv_pos_as_xyz
  x,y,z
_cell_length_a	13.897449
_cell_length_b	14.908520
_cell_length_c	14.908308
_cell_angle_alpha	96.360765
_cell_angle_beta	93.279088
_cell_angle_gamma	93.321930
loop_
_atom_site_label
_atom_site_type_symbol
_atom_site_fract_x
_atom_site_fract_y
_atom_site_fract_z
Zn1	Zn	1.417722	-0.389845	-0.532545
Zn2	Zn	1.417612	-0.532490	-0.389916
Zn3	Zn	1.266296	-0.381150	-0.381205
Zn4	Zn	1.246507	-0.541167	-0.541227
O5	O	1.337034	-0.461163	-0.461223
O6	O	1.552688	-0.408775	-0.513637
O7	O	1.405776	-0.505145	-0.262099
O8	O	1.294711	-0.255639	-0.394002
O9	O	1.552607	-0.513575	-0.408847
O10	O	1.405963	-0.262027	-0.505191
O11	O	1.294604	-0.393956	-0.255700
O12	O	1.128691	-0.402369	-0.402421
O13	O	1.260983	-0.528363	-0.666736
O14	O	1.114152	-0.519933	-0.519988
O15	O	1.386774	-0.417188	-0.660358
O16	O	1.386587	-0.660306	-0.417266
O17	O	1.260877	-0.666681	-0.528434
C18	C	1.321598	-0.696337	-0.474757
C19	C	1.315080	-0.796947	-0.480577
C20	C	1.086422	-0.461150	-0.461202
C21	C	0.979206	-0.461167	-0.461216
C22	C	1.433856	-0.979311	-0.375848
C23	C	1.427735	-1.073843	-0.381313
C24	C	1.296724	-1.080546	-0.496978
C25	C	1.302844	-0.986014	-0.491512
C26	C	1.371412	-0.935399	-0.430944
C27	C	1.377527	-0.840865	-0.425475
C28	C	1.246521	-0.847570	-0.541143
C29	C	1.240400	-0.942102	-0.546609
C30	C	0.782909	-0.461172	-0.461240
C31	C	0.892143	-0.461166	-0.461224
C32	C	1.588625	-0.461177	-0.461245
C33	C	1.695838	-0.461183	-0.461255
C34	C	1.321683	-0.474713	-0.697307
C35	C	1.315141	-0.480488	-0.797912
C36	C	1.352556	-0.225072	-0.447657
C37	C	1.359171	-0.124464	-0.441875
C38	C	1.433834	-0.375550	-0.980317
C39	C	1.427690	-0.380972	-1.074844
C40	C	1.296708	-0.496749	-1.081494
C41	C	1.302851	-0.491327	-0.986967
C42	C	1.371417	-0.430726	-0.936382
C43	C	1.377564	-0.425309	-0.841853
C44	C	1.246578	-0.541081	-0.848505
C45	C	1.240435	-0.546503	-0.943032
C46	C	1.352385	-0.447600	-0.226054
C47	C	1.359131	-0.441571	-0.125436
H48	H	1.489680	-0.938100	-0.326525
H49	H	1.433396	-0.375966	-0.800668
H50	H	1.184577	-0.983325	-0.595924
C51	C	1.562692	-0.261658	-0.983235
C52	C	1.509200	-0.308943	-0.924708
H53	H	1.609217	-0.220534	-0.948903
H54	H	1.594599	-0.303212	-1.022370
H55	H	1.520537	-0.229149	-1.018113
H56	H	1.551355	-0.341457	-0.889834
H57	H	1.477292	-0.267383	-0.885556
H58	H	1.478585	-1.109592	-0.336450
C59	C	1.197726	-0.705637	-0.584128
C60	C	1.177878	-0.799300	-0.601713
H61	H	1.155352	-0.675840	-0.621524
H62	H	1.188619	-0.686695	-0.522414
H63	H	1.262668	-0.690856	-0.596536
H64	H	1.112939	-0.814082	-0.589299
H65	H	1.186978	-0.818250	-0.663442
C66	C	1.229180	-1.228437	-0.556707
C67	C	1.221359	-1.136191	-0.563548
H68	H	1.182647	-1.262788	-0.597802
H69	H	1.292107	-1.244623	-0.570908
H70	H	1.218073	-1.240461	-0.496773
H71	H	1.232473	-1.124166	-0.623481
H72	H	1.158417	-1.120000	-0.549354
C73	C	1.445079	-0.692978	-0.365732
C74	C	1.452894	-0.785226	-0.358901
H75	H	1.491607	-0.658632	-0.324627
H76	H	1.456189	-0.680947	-0.425655
H77	H	1.382143	-0.676791	-0.351531
H78	H	1.515828	-0.801415	-0.373108
H79	H	1.441790	-0.797263	-0.298964
C80	C	1.442178	-0.265310	-1.174138
C81	C	1.496300	-0.320319	-1.123136
H82	H	1.484538	-0.227858	-1.203945
H83	H	1.400480	-0.302176	-1.217793
H84	H	1.404824	-0.228577	-1.135258
H85	H	1.533650	-0.357056	-1.162017
H86	H	1.538016	-0.283449	-1.079476
C87	C	1.072312	-0.592269	-0.974663
C88	C	1.165070	-0.613114	-0.998640
H89	H	1.025787	-0.633392	-1.008997
H90	H	1.067046	-0.596941	-0.912086
H91	H	1.061191	-0.532340	-0.986662
H92	H	1.176194	-0.673041	-0.986635
H93	H	1.170339	-0.608451	-1.061231
H94	H	1.240884	-0.546087	-1.122696
H95	H	1.195756	-0.586012	-0.812723
