data_functionalizedCrystal
_audit_creation_method	'MofGen! by Chris Wilmer'
_symmetry_space_group_name_H-M	'P1'
_symmetry_Int_Tables_number	1
_symmetry_cell_setting	triclinic
loop_
_symmetry_equiv_pos_as_xyz
  x,y,z
_cell_length_a	15.995350
_cell_length_b	9.065218
_cell_length_c	7.540329
_cell_angle_alpha	89.998628
_cell_angle_beta	90.002041
_cell_angle_gamma	84.254130
loop_
_atom_site_label
_atom_site_type_symbol
_atom_site_fract_x
_atom_site_fract_y
_atom_site_fract_z
O1	O	-1.112424	-0.190160	0.147325
O2	O	-0.612424	0.309840	0.647325
O3	O	-0.868827	-0.213642	0.147360
O4	O	-0.368827	0.286358	0.647360
O5	O	-0.995661	0.012860	0.147338
O6	O	-0.495661	0.512860	0.647338
O7	O	-0.985591	-0.416662	0.147347
O8	O	-0.485591	0.083338	0.647347
O9	O	-0.995656	0.012862	-0.147627
O10	O	-0.495656	0.512862	0.352373
O11	O	-0.868823	-0.213640	-0.147605
O12	O	-0.368823	0.286360	0.352395
O13	O	-1.112420	-0.190158	-0.147640
O14	O	-0.612420	0.309842	0.352360
Cu15	Cu	-0.990621	-0.201899	-0.174555
Cu16	Cu	-0.490621	0.298101	0.325445
Cu17	Cu	-0.990626	-0.201901	0.174275
Cu18	Cu	-0.490626	0.298099	0.674275
O19	O	-0.985586	-0.416660	-0.147618
O20	O	-0.485586	0.083340	0.352382
C21	C	-0.837623	-0.212670	-0.000117
C22	C	-0.337623	0.287330	0.499883
C23	C	-0.744650	-0.209760	-0.000104
C24	C	-0.244650	0.290240	0.499896
C25	C	-0.994691	0.067825	-0.000141
C26	C	-0.494691	0.567825	0.499859
C27	C	-0.991797	0.231600	-0.000132
C28	C	-0.491797	0.731600	0.499868
C29	C	-1.143624	-0.191129	-0.000158
C30	C	-0.643624	0.308871	0.499842
C31	C	-1.236597	-0.194040	-0.000161
C32	C	-0.736597	0.305960	0.499839
C33	C	-0.406824	-0.199308	-0.000141
C34	C	0.093176	0.300692	0.499859
C35	C	-0.453034	-0.037997	-0.000802
C36	C	0.046966	0.462003	0.499198
C37	C	-0.549747	-0.040908	-0.000125
C38	C	-0.049747	0.459092	0.499875
C39	C	-0.574423	-0.204492	-0.000123
C40	C	-0.074423	0.295508	0.499877
C41	C	-0.533942	-0.284057	0.168311
C42	C	-0.033942	0.215943	0.668311
C43	C	-0.437276	-0.280005	0.168439
C44	C	0.062724	0.219995	0.668439
C45	C	-0.436957	-0.283336	-0.166991
C46	C	0.063043	0.216664	0.333009
C47	C	-0.533902	-0.283298	-0.169205
C48	C	-0.033902	0.216702	0.330795
C49	C	-0.669143	-0.207431	-0.000108
C50	C	-0.169143	0.292569	0.499892
C51	C	-0.312103	-0.196374	-0.000145
C52	C	0.187897	0.303626	0.499855
C53	C	-0.986556	-0.471625	-0.000135
C54	C	-0.486556	0.028375	0.499865
C55	C	-0.989450	-0.635400	-0.000132
C56	C	-0.489450	-0.135400	0.499868
N57	N	-0.990623	-0.201897	-0.419904
N58	N	-0.490623	0.298103	0.080096
N59	N	-0.990630	-0.201892	0.419624
N60	N	-0.490630	0.298108	0.919624
H61	H	-0.577699	0.021634	-0.120866
H62	H	-0.077699	0.521634	0.379134
F63	F	-0.553615	-0.441131	0.176532
F64	F	-0.053615	0.058869	0.676532
H65	H	-0.577129	0.022055	0.120824
H66	H	-0.077129	0.522055	0.620824
F67	F	-0.428179	0.046284	-0.158686
F68	F	0.071821	0.546284	0.341314
F69	F	-0.570481	-0.211829	0.332157
F70	F	-0.070481	0.288171	0.832157
F71	F	-0.412770	-0.204167	0.333008
F72	F	0.087230	0.295833	0.833008
H73	H	-0.550172	-0.402588	-0.179378
H74	H	-0.050172	0.097412	0.320622
F75	F	-0.426786	0.045903	0.156196
F76	F	0.073214	0.545903	0.656196
F77	F	-0.396296	-0.434800	0.178433
F78	F	0.103704	0.065200	0.678433
H79	H	-0.416020	-0.230599	-0.294660
H80	H	0.083980	0.269401	0.205340
H81	H	-0.560776	-0.225216	-0.293812
H82	H	-0.060776	0.274784	0.206188
F83	F	-0.396623	-0.438790	-0.168480
F84	F	0.103377	0.061210	0.331520
