data_functionalizedCrystal
_audit_creation_method	'MofGen! by Chris Wilmer'
_symmetry_space_group_name_H-M	'P1'
_symmetry_Int_Tables_number	1
_symmetry_cell_setting	triclinic
loop_
_symmetry_equiv_pos_as_xyz
  x,y,z
_cell_length_a	16.109301
_cell_length_b	12.376897
_cell_length_c	16.109304
_cell_angle_alpha	77.326824
_cell_angle_beta	83.462059
_cell_angle_gamma	77.337599
loop_
_atom_site_label
_atom_site_type_symbol
_atom_site_fract_x
_atom_site_fract_y
_atom_site_fract_z
O1	O	1.088931	0.093922	0.092650
O2	O	0.846867	0.093939	0.105947
O3	O	0.974548	0.093930	-0.021732
O4	O	0.961251	0.093930	0.220330
O5	O	1.002963	-0.094070	0.006721
O6	O	0.875283	-0.094062	0.134400
O7	O	1.117347	-0.094079	0.121103
Zn8	Zn	1.000827	-0.123920	0.132269
Zn9	Zn	0.963388	0.123779	0.094781
O10	O	0.989667	-0.094071	0.248783
C11	C	0.830100	-0.000059	0.119635
C12	C	0.737803	-0.000053	0.118018
N13	N	1.026384	-0.292968	0.157854
C14	C	0.515534	-0.000066	0.190028
C15	C	0.428814	-0.000073	0.188505
C16	C	0.448686	-0.000068	0.037016
C17	C	0.535405	-0.000069	0.038541
C18	C	0.568825	-0.000062	0.115049
C19	C	0.395387	-0.000068	0.112001
C20	C	0.301362	-0.000076	0.110349
C21	C	0.662857	-0.000056	0.116701
C22	C	0.878480	-0.648012	0.009794
C23	C	0.860579	-0.529680	-0.008114
C24	C	0.902029	-0.470496	0.033377
C25	C	0.961382	-0.529656	0.092778
C26	C	0.979290	-0.648000	0.110684
C27	C	1.002838	-0.470484	0.134266
C28	C	1.062192	-0.529645	0.193667
C29	C	1.080096	-0.647977	0.211570
C30	C	1.038647	-0.707161	0.170080
C31	C	0.984931	-0.352140	0.116360
C32	C	1.085741	-0.352128	0.217250
C33	C	1.103642	-0.470461	0.235158
C34	C	1.134114	-0.000078	0.107416
C35	C	1.226409	-0.000078	0.109031
C36	C	0.988216	-0.000067	-0.038481
C37	C	0.986599	-0.000060	-0.130777
N38	N	0.937837	0.292827	0.069190
C39	C	0.967376	0.102416	-0.358624
C40	C	0.965851	0.102415	-0.445344
C41	C	0.996835	-0.102554	-0.414320
C42	C	0.998355	-0.102552	-0.327601
C43	C	0.983629	-0.000064	-0.299756
C44	C	0.980584	-0.000067	-0.473195
C45	C	0.978929	-0.000069	-0.567221
C46	C	0.985282	-0.000061	-0.205724
C47	C	0.975998	-0.000070	0.265531
C48	C	0.977614	-0.000071	0.357826
H49	H	0.385427	-0.000078	0.249561
H50	H	0.844744	-0.696210	-0.023986
N51	N	1.130454	-0.288304	0.261999
H52	H	1.086818	-0.239216	0.295256
H53	H	1.170779	-0.343806	0.302296
H54	H	0.578799	-0.000069	-0.022520
H55	H	0.936604	-0.303983	0.067996
N56	N	1.144111	-0.711785	0.275639
H57	H	1.149166	-0.795731	0.280685
H58	H	1.201450	-0.691087	0.256104
N59	N	1.012736	-0.213089	-0.444356
H60	H	0.961294	-0.217666	-0.472897
H61	H	1.064332	-0.217579	-0.486362
N62	N	0.551575	-0.000061	0.272547
H63	H	0.542677	-0.069755	0.315940
H64	H	0.614585	-0.000014	0.262065
N65	N	0.948374	0.212945	-0.508845
H66	H	0.939295	0.277866	-0.478045
H67	H	0.998603	0.217354	-0.552229
H68	H	0.421466	-0.000081	-0.025273
N69	N	0.882725	-0.342866	0.014063
H70	H	0.838835	-0.314368	-0.029862
H71	H	0.859780	-0.314459	0.068031
N72	N	0.796571	-0.465873	-0.072181
H73	H	0.773029	-0.521319	-0.095748
H74	H	0.748489	-0.416782	-0.043375
H75	H	1.011586	-0.186008	-0.279666
N76	N	0.951493	0.212950	-0.328588
H77	H	0.940964	0.277870	-0.379043
H78	H	0.899940	0.217417	-0.286529
N79	N	1.167656	-0.534274	0.299226
H80	H	1.172707	-0.618218	0.304270
H81	H	1.224996	-0.513580	0.279691
H82	H	1.053215	-0.803517	0.184662
