data_functionalizedCrystal
_audit_creation_method	'MofGen! by Chris Wilmer'
_symmetry_space_group_name_H-M	'P1'
_symmetry_Int_Tables_number	1
_symmetry_cell_setting	triclinic
loop_
_symmetry_equiv_pos_as_xyz
  x,y,z
_cell_length_a	19.805405
_cell_length_b	21.395362
_cell_length_c	21.395356
_cell_angle_alpha	90.042977
_cell_angle_beta	89.970920
_cell_angle_gamma	89.957712
loop_
_atom_site_label
_atom_site_type_symbol
_atom_site_fract_x
_atom_site_fract_y
_atom_site_fract_z
Zn1	Zn	-0.269193	-0.957872	-0.354580
Zn2	Zn	0.064140	-0.624539	-0.021246
Zn3	Zn	0.397473	-0.291206	0.312087
Zn4	Zn	-0.382381	-0.957784	-0.249800
Zn5	Zn	-0.049048	-0.624451	0.083534
Zn6	Zn	0.284285	-0.291118	0.416867
Zn7	Zn	-0.269243	-0.853089	-0.249781
Zn8	Zn	0.064090	-0.519756	0.083553
Zn9	Zn	0.397424	-0.186422	0.416886
Zn10	Zn	-0.382377	-0.853064	-0.354504
Zn11	Zn	-0.049044	-0.519731	-0.021171
Zn12	Zn	0.284289	-0.186398	0.312162
O13	O	-0.325799	-0.905452	-0.302166
O14	O	0.007535	-0.572119	0.031167
O15	O	0.340868	-0.238786	0.364501
O16	O	-0.284189	-1.045539	-0.340720
O17	O	0.049144	-0.712205	-0.007386
O18	O	0.382478	-0.378872	0.325947
O19	O	-0.367396	-0.943870	-0.162119
O20	O	-0.034063	-0.610537	0.171214
O21	O	0.299271	-0.277203	0.504548
O22	O	-0.174520	-0.867036	-0.263706
O23	O	0.158813	-0.533702	0.069627
O24	O	0.492147	-0.200369	0.402960
O25	O	-0.367348	-1.045474	-0.263738
O26	O	-0.034014	-0.712141	0.069595
O27	O	0.299319	-0.378807	0.402929
O28	O	-0.174483	-0.944020	-0.340701
O29	O	0.158850	-0.610686	-0.007368
O30	O	0.492183	-0.277353	0.325965
O31	O	-0.284274	-0.866951	-0.162105
O32	O	0.049060	-0.533617	0.171228
O33	O	0.382393	-0.200284	0.504561
O34	O	-0.284270	-0.765408	-0.263633
O35	O	0.049064	-0.432074	0.069700
O36	O	0.382397	-0.098741	0.403033
O37	O	-0.367341	-0.866994	-0.442192
O38	O	-0.034007	-0.533660	-0.108859
O39	O	0.299326	-0.200327	0.224475
O40	O	-0.367389	-0.765390	-0.340573
O41	O	-0.034055	-0.432056	-0.007240
O42	O	0.299278	-0.098723	0.326094
O43	O	-0.284185	-0.943996	-0.442247
O44	O	0.049148	-0.610662	-0.108914
O45	O	0.382482	-0.277329	0.224419
O46	O	-0.477097	-0.943846	-0.263665
O47	O	-0.143764	-0.610513	0.069668
O48	O	0.189569	-0.277179	0.403002
O49	O	-0.477094	-0.866908	-0.340591
O50	O	-0.143761	-0.533575	-0.007258
O51	O	0.189572	-0.200242	0.326075
C52	C	-0.325835	-0.742665	-0.302093
C53	C	0.007499	-0.409331	0.031240
C54	C	0.340832	-0.075998	0.364573
C55	C	-0.325866	-0.673024	-0.302077
C56	C	0.007467	-0.339690	0.031256
C57	C	0.340800	-0.006357	0.364590
C58	C	-0.501655	-0.905382	-0.302136
C59	C	-0.168322	-0.572049	0.031198
C60	C	0.165012	-0.238715	0.364531
C61	C	-0.576887	-0.905409	-0.302144
C62	C	-0.243553	-0.572076	0.031190
C63	C	0.089780	-0.238742	0.364523
C64	C	-0.325757	-0.905502	-0.465589
C65	C	0.007577	-0.572168	-0.132256
C66	C	0.340910	-0.238835	0.201077
C67	C	-0.325739	-0.905523	-0.535231
C68	C	0.007594	-0.572189	-0.201897
C69	C	0.340928	-0.238856	0.131436
C70	C	-0.612210	-0.945509	-0.262130
C71	C	-0.278877	-0.612176	0.071203
C72	C	0.054457	-0.278843	0.404536
C73	C	-0.682898	-0.945536	-0.262144
C74	C	-0.349565	-0.612203	0.071189
C75	C	-0.016232	-0.278869	0.404523
C76	C	-0.718262	-0.905459	-0.302169
C77	C	-0.384929	-0.572125	0.031165
C78	C	-0.051596	-0.238792	0.364498
C79	C	-0.682934	-0.865357	-0.342187
C80	C	-0.349601	-0.532023	-0.008853
C81	C	-0.016267	-0.198690	0.324480
C82	C	-0.612247	-0.865334	-0.342175
C83	C	-0.278914	-0.532000	-0.008842
C84	C	0.054420	-0.198667	0.324491
C85	C	-0.968007	-0.865449	-0.342233
C86	C	-0.634674	-0.532116	-0.008900
C87	C	-0.301341	-0.198782	0.324434
C88	C	-1.038699	-0.865474	-0.342240
C89	C	-0.705366	-0.532141	-0.008906
C90	C	-0.372033	-0.198807	0.324427
C91	C	-1.038659	-0.945651	-0.262202
C92	C	-0.705325	-0.612318	0.071132
C93	C	-0.371992	-0.278985	0.404465
C94	C	-0.967972	-0.945628	-0.262191
C95	C	-0.634638	-0.612295	0.071143
C96	C	-0.301305	-0.278962	0.404476
C97	C	-0.932650	-0.905529	-0.302210
C98	C	-0.599316	-0.572196	0.031123
C99	C	-0.265983	-0.238862	0.364456
C100	C	-0.856001	-0.905501	-0.302196
C101	C	-0.522668	-0.572168	0.031138
C102	C	-0.189335	-0.238835	0.364471
C103	C	-0.794909	-0.905483	-0.302181
C104	C	-0.461576	-0.572149	0.031153
C105	C	-0.128243	-0.238816	0.364486
C106	C	-0.149256	-0.905540	-0.302210
C107	C	0.184077	-0.572207	0.031123
C108	C	0.517411	-0.238874	0.364456
C109	C	-0.074024	-0.905578	-0.302229
C110	C	0.259309	-0.572244	0.031104
C111	C	0.592643	-0.238911	0.364438
C112	C	-0.325763	-1.068876	-0.302239
C113	C	0.007570	-0.735542	0.031094
C114	C	0.340903	-0.402209	0.364427
C115	C	-0.325748	-1.138517	-0.302271
C116	C	0.007585	-0.805184	0.031063
C117	C	0.340918	-0.471850	0.364396
C118	C	-0.369204	-0.640317	-0.342080
C119	C	-0.035870	-0.306984	-0.008746
C120	C	0.297463	0.026349	0.324587
C121	C	-0.369187	-0.574882	-0.342108
C122	C	-0.035854	-0.241549	-0.008774
C123	C	0.297480	0.091785	0.324559
C124	C	-0.325840	-0.542155	-0.302122
C125	C	0.007493	-0.208822	0.031212
C126	C	0.340827	0.124511	0.364545
C127	C	-0.282494	-0.574869	-0.262116
C128	C	0.050839	-0.241536	0.071217
C129	C	0.384173	0.091797	0.404550
C130	C	-0.282507	-0.640303	-0.262094
C131	C	0.050826	-0.306970	0.071239
C132	C	0.384159	0.026363	0.404573
C133	C	-0.320397	-0.438431	-0.245717
C134	C	0.012936	-0.105098	0.087617
C135	C	0.346269	0.228236	0.420950
C136	C	-0.320389	-0.372998	-0.245738
C137	C	0.012944	-0.039665	0.087595
C138	C	0.346278	0.293669	0.420929
C139	C	-0.325796	-0.340335	-0.302191
C140	C	0.007537	-0.007001	0.031142
C141	C	0.340871	0.326332	0.364476
C142	C	-0.331225	-0.373112	-0.358624
C143	C	0.002108	-0.039779	-0.025291
C144	C	0.335441	0.293555	0.308042
C145	C	-0.331239	-0.438546	-0.358602
C146	C	0.002095	-0.105213	-0.025269
C147	C	0.335428	0.228121	0.308065
C148	C	-0.325821	-0.471203	-0.302142
C149	C	0.007513	-0.137870	0.031192
C150	C	0.340846	0.195464	0.364525
C151	C	-0.369118	-0.236676	-0.342227
C152	C	-0.035784	0.096657	-0.008894
C153	C	0.297549	0.429991	0.324440
C154	C	-0.369096	-0.171239	-0.342256
C155	C	-0.035763	0.162094	-0.008923
C156	C	0.297570	0.495427	0.324411
C157	C	-0.282407	-0.171228	-0.262259
C158	C	0.050926	0.162105	0.071074
C159	C	0.384260	0.495439	0.404407
C160	C	-0.282425	-0.236663	-0.262236
C161	C	0.050909	0.096670	0.071097
C162	C	0.384242	0.430003	0.404431
C163	C	-0.325784	-0.269383	-0.302219
C164	C	0.007550	0.063950	0.031114
C165	C	0.340883	0.397283	0.364448
C166	C	-0.282452	-0.865482	-0.567927
C167	C	0.050881	-0.532148	-0.234593
C168	C	0.384214	-0.198815	0.098740
C169	C	-0.282440	-0.865479	-0.633362
C170	C	0.050894	-0.532146	-0.300029
C171	C	0.384227	-0.198813	0.033304
C172	C	-0.325707	-0.905530	-0.666099
C173	C	0.007627	-0.572196	-0.332766
C174	C	0.340960	-0.238863	0.000568
C175	C	-0.369002	-0.945574	-0.633395
C176	C	-0.035668	-0.612240	-0.300062
C177	C	0.297665	-0.278907	0.033272
C178	C	-0.369018	-0.945570	-0.567961
C179	C	-0.035685	-0.612237	-0.234628
C180	C	0.297649	-0.278903	0.098706
C181	C	-0.331011	-0.961982	-0.769804
C182	C	0.002322	-0.628649	-0.436471
C183	C	0.335655	-0.295315	-0.103138
C184	C	-0.330990	-0.961987	-0.835237
C185	C	0.002343	-0.628653	-0.501904
C186	C	0.335676	-0.295320	-0.168571
C187	C	-0.325661	-0.905540	-0.867920
C188	C	0.007672	-0.572207	-0.534587
C189	C	0.341006	-0.238873	-0.201253
C190	C	-0.320338	-0.849087	-0.835161
C191	C	0.012995	-0.515754	-0.501828
C192	C	0.346328	-0.182421	-0.168495
C193	C	-0.320354	-0.849084	-0.769727
C194	C	0.012979	-0.515750	-0.436394
C195	C	0.346312	-0.182417	-0.103061
C196	C	-0.325694	-0.905538	-0.737051
C197	C	0.007639	-0.572204	-0.403718
C198	C	0.340972	-0.238871	-0.070385
C199	C	-0.282358	-0.865493	-0.971569
C200	C	0.050975	-0.532160	-0.638235
C201	C	0.384308	-0.198826	-0.304902
C202	C	-0.282351	-0.865490	-1.037005
C203	C	0.050983	-0.532157	-0.703672
C204	C	0.384316	-0.198823	-0.370339
C205	C	-0.368909	-0.945590	-1.037037
C206	C	-0.035576	-0.612256	-0.703704
C207	C	0.297758	-0.278923	-0.370370
C208	C	-0.368920	-0.945587	-0.971601
C209	C	-0.035587	-0.612254	-0.638268
C210	C	0.297746	-0.278921	-0.304935
C211	C	-0.325642	-0.905540	-0.938871
C212	C	0.007692	-0.572207	-0.605538
C213	C	0.341025	-0.238873	-0.272205
C214	C	-0.325792	-0.905439	-0.139378
C215	C	0.007542	-0.572106	0.193955
C216	C	0.340875	-0.238773	0.527288
C217	C	-0.325619	-0.905540	-0.069738
C218	C	0.007714	-0.572207	0.263596
C219	C	0.341048	-0.238873	0.596929
H220	H	-0.583421	-0.978142	-0.229535
H221	H	-0.250088	-0.644809	0.103798
H222	H	0.083245	-0.311475	0.437132
Br223	Br	-0.313134	-0.772474	-0.725271
Br224	Br	0.020199	-0.439140	-0.391937
Br225	Br	0.353532	-0.105807	-0.058604
H226	H	-0.335345	-1.007951	-0.743200
H227	H	-0.002012	-0.674618	-0.409866
H228	H	0.331321	-0.341285	-0.076533
Br229	Br	-0.338562	-0.328792	-0.435245
Br230	Br	-0.005229	0.004542	-0.101912
Br231	Br	0.328105	0.337875	0.231421
H232	H	-0.711733	-0.832728	-0.374778
H233	H	-0.378400	-0.499395	-0.041445
H234	H	-0.045066	-0.166061	0.291889
H235	H	-0.247199	-0.548219	-0.229561
H236	H	0.086134	-0.214886	0.103773
H237	H	0.419467	0.118448	0.437106
H238	H	-0.315994	-0.803123	-0.861770
H239	H	0.017339	-0.469790	-0.528437
H240	H	0.350673	-0.136457	-0.195103
H241	H	-0.404477	-0.548247	-0.374685
H242	H	-0.071144	-0.214914	-0.041352
H243	H	0.262189	0.118419	0.291982
Br244	Br	-1.086693	-0.811079	-0.396562
Br245	Br	-0.753360	-0.477746	-0.063229
Br246	Br	-0.420027	-0.144413	0.270104
H247	H	-0.939254	-0.832798	-0.374817
H248	H	-0.605920	-0.499464	-0.041484
H249	H	-0.272587	-0.166131	0.291849
Br250	Br	-0.427957	-0.281086	-0.396491
Br251	Br	-0.094624	0.052248	-0.063158
Br252	Br	0.238709	0.385581	0.270176
Br253	Br	-0.427727	-0.999923	-0.677822
Br254	Br	-0.094394	-0.666590	-0.344488
Br255	Br	0.238939	-0.333256	-0.011155
Br256	Br	-0.730835	-0.999964	-0.207841
Br257	Br	-0.397502	-0.666631	0.125492
Br258	Br	-0.064168	-0.333297	0.458825
H259	H	-0.583487	-0.832681	-0.374759
H260	H	-0.250154	-0.499348	-0.041426
H261	H	0.083179	-0.166014	0.291907
H262	H	-0.404509	-0.666954	-0.374638
H263	H	-0.071176	-0.333621	-0.041305
H264	H	0.262158	-0.000287	0.292029
H265	H	-0.247104	-0.832879	-1.063625
H266	H	0.086230	-0.499546	-0.730292
H267	H	0.419563	-0.166212	-0.396959
Br268	Br	-0.223627	-0.811142	-0.927145
Br269	Br	0.109706	-0.477809	-0.593812
Br270	Br	0.443039	-0.144476	-0.260479
H271	H	-0.335657	-0.465231	-0.404552
H272	H	-0.002324	-0.131897	-0.071219
H273	H	0.331009	0.201436	0.262114
Br274	Br	-0.223571	-0.126820	-0.207997
Br275	Br	0.109762	0.206513	0.125336
Br276	Br	0.443095	0.539846	0.458669
Br277	Br	-0.427911	-0.126851	-0.396556
Br278	Br	-0.094578	0.206483	-0.063222
Br279	Br	0.238755	0.539816	0.270111
Br280	Br	-0.223719	-0.811130	-0.523510
Br281	Br	0.109614	-0.477797	-0.190177
Br282	Br	0.442948	-0.144463	0.143157
H283	H	-0.404168	-0.978195	-0.944980
H284	H	-0.070834	-0.644861	-0.611647
H285	H	0.262499	-0.311528	-0.278313
H286	H	-0.247138	-0.263293	-0.229658
H287	H	0.086195	0.070040	0.103675
H288	H	0.419529	0.403374	0.437008
Br289	Br	-0.313022	-0.328521	-0.169151
Br290	Br	0.020312	0.004812	0.164182
Br291	Br	0.353645	0.338146	0.497516
Br292	Br	-0.427769	-0.999916	-0.523584
Br293	Br	-0.094436	-0.666582	-0.190251
Br294	Br	0.238898	-0.333249	0.143082
Br295	Br	-0.223686	-0.684694	-0.207802
Br296	Br	0.109647	-0.351360	0.125532
Br297	Br	0.442981	-0.018027	0.458865
Br298	Br	-0.427637	-0.999939	-1.081458
Br299	Br	-0.094303	-0.666605	-0.748125
Br300	Br	0.239030	-0.333272	-0.414792
Br301	Br	-0.919981	-1.000020	-0.207869
Br302	Br	-0.586648	-0.666686	0.125465
Br303	Br	-0.253315	-0.333353	0.458798
Br304	Br	-1.086599	-1.000075	-0.207890
Br305	Br	-0.753266	-0.666742	0.125444
Br306	Br	-0.419933	-0.333409	0.458777
H307	H	-0.335321	-1.007954	-0.861904
H308	H	-0.001988	-0.674621	-0.528571
H309	H	0.331346	-0.341287	-0.195238
H310	H	-0.315991	-0.465020	-0.199743
H311	H	0.017342	-0.131687	0.133591
H312	H	0.350675	0.201646	0.466924
Br313	Br	-0.223674	-0.811148	-0.677746
Br314	Br	0.109659	-0.477815	-0.344412
Br315	Br	0.442992	-0.144481	-0.011079
