data_functionalizedCrystal
_audit_creation_method	'MofGen! by Chris Wilmer'
_symmetry_space_group_name_H-M	'P1'
_symmetry_Int_Tables_number	1
_symmetry_cell_setting	triclinic
loop_
_symmetry_equiv_pos_as_xyz
  x,y,z
_cell_length_a	12.645331
_cell_length_b	21.395362
_cell_length_c	21.395355
_cell_angle_alpha	90.017337
_cell_angle_beta	90.017800
_cell_angle_gamma	90.027616
loop_
_atom_site_label
_atom_site_type_symbol
_atom_site_fract_x
_atom_site_fract_y
_atom_site_fract_z
Zn1	Zn	1.620674	-0.249524	0.354154
Zn2	Zn	1.620516	-0.354284	0.249378
Zn3	Zn	1.443382	-0.249523	0.249403
Zn4	Zn	1.443337	-0.354266	0.354131
O5	O	1.531977	-0.301899	0.301766
O6	O	1.769000	-0.263428	0.340254
O7	O	1.596972	-0.340394	0.161704
O8	O	1.466985	-0.161845	0.263318
O9	O	1.768884	-0.340395	0.263276
O10	O	1.597241	-0.161846	0.340278
O11	O	1.466832	-0.263426	0.161722
O12	O	1.295029	-0.263409	0.263296
O13	O	1.466909	-0.340365	0.441812
O14	O	1.294996	-0.340364	0.340239
O15	O	1.597197	-0.263411	0.441829
O16	O	1.596928	-0.441959	0.263254
O17	O	1.466756	-0.441946	0.340215
C18	C	1.531849	-0.464687	0.301743
C19	C	1.531891	-0.534328	0.301754
C20	C	1.256548	-0.301885	0.301768
C21	C	1.138718	-0.301894	0.301784
C22	C	1.599933	-1.036072	0.341920
C23	C	1.599902	-0.970636	0.341910
C24	C	1.532122	-0.937966	0.301806
C25	C	1.464386	-0.970737	0.261697
C26	C	1.464427	-1.036171	0.261703
C27	C	1.436552	-0.834349	0.296802
C28	C	1.436509	-0.768916	0.296800
C29	C	1.531997	-0.736146	0.301782
C30	C	1.627530	-0.768816	0.306779
C31	C	1.627571	-0.834250	0.306785
C32	C	1.532071	-0.867014	0.301794
C33	C	1.599700	-0.632430	0.341874
C34	C	1.599670	-0.566993	0.341860
C35	C	1.464145	-0.567096	0.261650
C36	C	1.464184	-0.632531	0.261661
C37	C	1.531960	-0.665194	0.301776
C38	C	0.971168	-0.350571	0.349936
C39	C	1.093728	-0.350414	0.350138
C40	C	1.094261	-0.235906	0.319828
C41	C	0.971663	-0.236203	0.320168
C42	C	0.971463	-0.318673	0.235433
C43	C	1.094068	-0.320116	0.235791
C44	C	1.808483	-0.301914	0.301765
C45	C	1.926313	-0.301920	0.301765
C46	C	1.532065	-0.301886	0.465190
C47	C	1.532103	-0.301881	0.534831
C48	C	1.532135	-0.138476	0.301803
C49	C	1.532203	-0.068835	0.301819
C50	C	1.531951	-0.301867	0.138979
C51	C	1.532119	-0.301695	0.069338
C52	C	1.599941	-0.261810	0.567554
C53	C	1.599940	-0.261783	0.632989
C54	C	1.532111	-0.301838	0.665699
C55	C	1.464260	-0.341913	0.632969
C56	C	1.464255	-0.341934	0.567534
C57	C	1.523696	-0.358254	0.769367
C58	C	1.523707	-0.358233	0.834800
C59	C	1.532118	-0.301772	0.867520
C60	C	1.540539	-0.245330	0.834800
C61	C	1.540534	-0.245351	0.769366
C62	C	1.532108	-0.301819	0.736652
C63	C	1.599958	-0.261668	0.971196
C64	C	1.599949	-0.261640	1.036632
C65	C	1.464275	-0.341776	1.036610
C66	C	1.464278	-0.341798	0.971175
C67	C	1.532125	-0.301745	0.938472
H68	H	1.655130	-1.062662	0.374580
F69	F	0.934320	-0.217630	0.383549
H70	H	1.123135	-0.368673	0.222182
H71	H	1.409036	-0.374383	1.063242
H72	H	1.124693	-0.287250	0.197974
F73	F	1.671841	-0.667195	0.384562
H74	H	1.654831	-0.540317	0.374513
H75	H	1.409030	-0.374524	0.659605
H76	H	1.655059	-0.943956	0.374566
H77	H	1.547389	-0.199353	0.861439
F78	F	1.392015	-0.532330	0.218963
H79	H	1.123404	-0.198673	0.285839
F80	F	1.392089	-0.667401	0.218983
H81	H	1.124994	-0.221436	0.367794
H82	H	1.409271	-1.062846	0.229047
F83	F	0.933545	-0.272355	0.188519
H84	H	1.705357	-0.860848	0.310853
H85	H	1.123784	-0.399348	0.338828
H86	H	1.655187	-0.229195	0.540931
F87	F	1.514768	-0.418353	0.734549
F88	F	1.672162	-0.219038	0.936388
F89	F	1.672128	-0.219121	0.667822
F90	F	0.932594	-0.414745	0.335321
F91	F	0.932877	-0.187219	0.276310
H92	H	1.358723	-0.742318	0.292735
H93	H	1.655190	-0.229005	1.063274
H94	H	1.547388	-0.199393	0.742727
H95	H	1.358788	-0.861025	0.292748
F96	F	1.392253	-0.935967	0.219013
H97	H	1.409043	-0.374432	0.944532
H98	H	1.516857	-0.404192	0.861436
F99	F	0.930913	-0.336280	0.413802
F100	F	1.132103	-0.335925	0.414379
F101	F	1.392049	-0.384585	0.532707
H102	H	0.940525	-0.365969	0.219033
H103	H	1.705285	-0.742135	0.310837
