data_functionalizedCrystal
_audit_creation_method	'MofGen! by Chris Wilmer'
_symmetry_space_group_name_H-M	'P1'
_symmetry_Int_Tables_number	1
_symmetry_cell_setting	triclinic
loop_
_symmetry_equiv_pos_as_xyz
  x,y,z
_cell_length_a	17.077404
_cell_length_b	12.827892
_cell_length_c	17.077396
_cell_angle_alpha	89.973519
_cell_angle_beta	89.984079
_cell_angle_gamma	90.013362
loop_
_atom_site_label
_atom_site_type_symbol
_atom_site_fract_x
_atom_site_fract_y
_atom_site_fract_z
Zn1	Zn	1.200077	-0.416073	-0.443839
Zn2	Zn	1.200006	-0.590840	-0.312581
Zn3	Zn	1.068814	-0.416108	-0.312589
Zn4	Zn	1.068794	-0.590767	-0.443807
O5	O	1.134423	-0.503447	-0.378204
O6	O	1.309914	-0.439273	-0.426437
O7	O	1.182583	-0.567707	-0.202735
O8	O	1.086264	-0.269867	-0.330016
O9	O	1.309863	-0.567674	-0.330002
O10	O	1.182702	-0.269842	-0.426445
O11	O	1.086196	-0.439332	-0.202741
O12	O	0.958964	-0.439260	-0.329986
O13	O	1.086229	-0.567548	-0.553658
O14	O	0.958949	-0.567581	-0.426391
O15	O	1.182682	-0.439201	-0.553681
O16	O	1.182563	-0.737067	-0.329972
O17	O	1.086161	-0.737012	-0.426383
C18	C	0.930475	-0.503417	-0.378186
C19	C	0.843225	-0.503430	-0.378197
C20	C	0.802262	-0.436690	-0.428487
C21	C	0.720282	-0.436697	-0.428491
C22	C	0.679266	-0.503449	-0.378208
C23	C	0.720234	-0.570192	-0.327912
C24	C	0.802213	-0.570179	-0.327905
C25	C	0.549364	-0.570215	-0.327932
C26	C	0.467379	-0.570230	-0.327940
C27	C	0.467433	-0.436734	-0.428518
C28	C	0.549412	-0.436721	-0.428511
C29	C	0.590375	-0.503465	-0.378216
C30	C	1.134374	-0.774957	-0.378190
C31	C	1.134424	-0.891110	-0.378210
C32	C	1.182184	-0.942887	-0.330556
C33	C	1.182237	-1.062937	-0.330576
C34	C	1.339167	-0.503477	-0.378222
C35	C	1.426417	-0.503490	-0.378230
C36	C	1.134461	-0.503362	-0.582948
C37	C	1.134478	-0.503326	-0.670198
C38	C	1.134493	-0.230877	-0.378235
C39	C	1.134523	-0.114724	-0.378248
C40	C	1.184738	-0.570050	-1.046012
C41	C	1.184718	-0.570080	-0.964031
C42	C	1.134528	-0.503253	-0.923047
C43	C	1.084350	-0.436398	-0.964048
C44	C	1.084366	-0.436373	-1.046027
C45	C	1.084321	-0.436451	-0.793177
C46	C	1.084305	-0.436474	-0.711193
C47	C	1.184672	-0.570158	-0.711182
C48	C	1.184688	-0.570134	-0.793161
C49	C	1.134511	-0.503277	-0.834156
C50	C	1.134429	-0.503456	-0.174256
C51	C	1.134565	-0.503198	-0.087007
H52	H	0.686934	-0.382353	-0.469444
H53	H	1.223123	-1.107464	-0.289775
C54	C	1.079236	-0.951288	-0.433348
N55	N	1.037666	-0.996613	-0.474879
C56	C	1.239900	-0.643647	-0.838242
N57	N	1.281484	-0.699021	-0.872197
C58	C	1.239865	-0.643706	-0.666086
N59	N	1.281435	-0.699099	-0.632117
H60	H	1.043481	-0.381990	-0.930672
H61	H	1.225564	-0.624530	-0.930657
C62	C	0.422373	-0.363318	-0.483845
N63	N	0.388429	-0.308028	-0.525520
C64	C	0.594528	-0.363288	-0.483823
N65	N	0.628510	-0.307974	-0.525482
H66	H	0.433986	-0.624586	-0.286995
C67	C	1.239951	-0.643567	-1.091087
N68	N	1.281536	-0.698946	-1.125035
H69	H	1.223036	-0.898341	-0.289745
H70	H	0.582713	-0.624563	-0.286974
C71	C	1.029088	-0.362969	-0.666112
N72	N	0.987495	-0.307607	-0.632157
C73	C	1.029123	-0.362904	-0.838270
N74	N	0.987553	-0.307504	-0.872233
H75	H	0.835652	-0.382336	-0.469436
C76	C	0.675113	-0.643619	-0.272599
N77	N	0.641128	-0.698928	-0.230938
H78	H	1.093630	-1.070204	-0.419046
C79	C	1.029174	-0.362828	-1.091120
N80	N	0.987601	-0.307433	-1.125084
C81	C	0.847271	-0.643600	-0.272584
N82	N	0.881208	-0.698901	-0.230913
