data_functionalizedCrystal
_audit_creation_method	'MofGen! by Chris Wilmer'
_symmetry_space_group_name_H-M	'P1'
_symmetry_Int_Tables_number	1
_symmetry_cell_setting	triclinic
loop_
_symmetry_equiv_pos_as_xyz
  x,y,z
_cell_length_a	10.654554
_cell_length_b	9.730223
_cell_length_c	16.992695
_cell_angle_alpha	89.999649
_cell_angle_beta	92.422516
_cell_angle_gamma	90.001492
loop_
_atom_site_label
_atom_site_type_symbol
_atom_site_fract_x
_atom_site_fract_y
_atom_site_fract_z
O1	O	1.677359	0.114249	-0.110202
O2	O	1.312788	0.114261	-0.120696
O3	O	1.493612	0.114244	-0.001298
O4	O	1.496535	0.114266	-0.229599
O5	O	1.493600	-0.114336	-0.001305
O6	O	1.312776	-0.114319	-0.120703
O7	O	1.677347	-0.114331	-0.110208
Zn8	Zn	1.495060	-0.150617	-0.115457
Zn9	Zn	1.495075	0.150547	-0.115448
O10	O	1.496523	-0.114314	-0.229606
C11	C	1.265918	-0.000028	-0.119928
C12	C	1.126275	-0.000023	-0.117620
C13	C	0.921655	-0.000029	-0.185754
C14	C	1.052864	-0.000018	-0.187923
C15	C	1.068472	-0.000025	-0.045144
C16	C	0.937266	-0.000026	-0.042976
C17	C	0.848249	-0.000038	-0.256062
C18	C	0.906044	-0.000034	-0.328539
C19	C	1.037252	-0.000023	-0.330707
C20	C	1.110667	-0.000017	-0.260400
N21	N	1.495059	-0.356153	-0.115462
C22	C	1.576038	-0.428091	-0.163484
C23	C	1.576055	-0.571974	-0.163469
C24	C	1.414103	-0.571970	-0.067409
C25	C	1.414093	-0.428089	-0.067420
C26	C	1.657003	-0.356155	-0.211526
C27	C	1.737988	-0.428092	-0.259552
C28	C	1.738006	-0.571975	-0.259537
C29	C	1.657038	-0.643921	-0.211496
C30	C	1.724218	-0.000040	-0.110976
C31	C	1.863860	-0.000035	-0.113284
C32	C	1.489846	-0.000046	0.027932
C33	C	1.478627	-0.000045	0.115037
N34	N	1.495086	0.356083	-0.115436
C35	C	1.500289	-0.000021	-0.258836
C36	C	1.511509	-0.000013	-0.345941
C37	C	1.586877	-0.000050	0.164688
C38	C	1.576328	-0.000037	0.246532
C39	C	1.457527	-0.000028	0.278723
C40	C	1.349269	-0.000019	0.229066
C41	C	1.359819	-0.000022	0.147224
C42	C	1.413800	-0.000008	0.522559
C43	C	1.403258	-0.000008	0.604408
C44	C	1.630319	-0.000023	0.621868
C45	C	1.640859	-0.000035	0.540023
C46	C	1.532600	-0.000019	0.490373
N47	N	1.446742	-0.000019	0.362381
N48	N	1.543387	-0.000018	0.406717
H49	H	1.084305	-0.000007	-0.389721
H50	H	1.803916	-0.369504	-0.298660
F51	F	1.244603	-0.000013	0.094382
F52	F	0.708605	-0.000055	-0.253760
F53	F	0.827910	-0.000024	-0.403360
H54	H	1.656995	-0.238998	-0.211545
F55	F	0.875752	-0.000043	0.034155
F56	F	1.250312	0.000011	-0.262712
H57	H	1.803956	-0.630542	-0.298636
H58	H	1.657070	-0.761080	-0.211480
F59	F	1.327935	-0.648544	-0.016287
F60	F	1.298580	0.000013	0.469728
F61	F	1.276808	-0.000006	0.638667
H62	H	1.128256	-0.000021	0.012097
F63	F	1.327925	-0.351524	-0.016297
H64	H	1.683618	-0.000065	0.138484
H65	H	1.718457	-0.000034	0.662301
F66	F	1.691544	-0.000045	0.299371
H67	H	1.737599	-0.000042	0.513819
H68	H	1.252538	-0.000003	0.255283
