data_functionalizedCrystal
_audit_creation_method	'MofGen! by Chris Wilmer'
_symmetry_space_group_name_H-M	'P1'
_symmetry_Int_Tables_number	1
_symmetry_cell_setting	triclinic
loop_
_symmetry_equiv_pos_as_xyz
  x,y,z
_cell_length_a	11.792241
_cell_length_b	14.853566
_cell_length_c	13.330367
_cell_angle_alpha	89.995295
_cell_angle_beta	89.999638
_cell_angle_gamma	96.086085
loop_
_atom_site_label
_atom_site_type_symbol
_atom_site_fract_x
_atom_site_fract_y
_atom_site_fract_z
O1	O	-0.148174	1.196946	-0.083346
O2	O	-0.165828	0.934555	-0.083361
O3	O	0.008209	1.072118	-0.083359
O4	O	-0.322211	1.059383	-0.083348
O5	O	0.008213	1.072098	0.083488
O6	O	-0.165824	0.934535	0.083486
O7	O	-0.148171	1.196926	0.083501
Cu8	Cu	-0.156997	1.065729	0.098728
Cu9	Cu	-0.157002	1.065753	-0.098588
O10	O	-0.322207	1.059363	0.083499
C11	C	-0.165026	0.900954	0.000060
C12	C	-0.162630	0.800860	0.000054
C13	C	-0.152497	0.377647	-0.090877
C14	C	-0.152493	0.377647	0.091026
C15	C	-0.154744	0.471689	0.091023
C16	C	-0.155872	0.518715	0.000069
C17	C	-0.154751	0.471698	-0.090883
C18	C	-0.155877	0.518712	0.181973
C19	C	-0.158129	0.612761	0.181974
C20	C	-0.159249	0.659789	0.091018
C21	C	-0.158126	0.612766	0.000063
C22	C	-0.159255	0.659792	-0.090892
C23	C	-0.158124	0.612772	-0.181848
C24	C	-0.155871	0.518727	-0.181839
C25	C	-0.161501	0.753835	0.091009
C26	C	-0.161509	0.753844	-0.090897
C27	C	-0.364495	1.060173	0.000077
C28	C	-0.490494	1.062568	0.000082
C29	C	-0.721179	1.066970	0.000057
C30	C	-0.592809	1.064524	0.000071
C31	C	0.050497	1.071308	0.000061
C32	C	0.176496	1.068914	0.000050
C33	C	-0.148972	1.230528	0.000078
C34	C	-0.151368	1.330621	0.000077
N35	N	-0.156993	1.065719	0.237510
N36	N	-0.156996	1.065770	-0.237369
C37	C	-0.234035	1.004837	0.710132
C38	C	-0.079960	1.126693	0.710101
C39	C	-0.079956	1.126682	0.605083
C40	C	-0.156994	1.065750	0.552584
C41	C	-0.234036	1.004827	0.605104
C42	C	-0.002924	1.187610	0.552556
C43	C	-0.002918	1.187603	0.447531
C44	C	-0.079951	1.126665	0.395030
C45	C	-0.156995	1.065739	0.447556
C46	C	-0.234033	1.004806	0.395057
C47	C	-0.311073	0.943875	0.447581
C48	C	-0.311069	0.943889	0.552603
C49	C	-0.079955	1.126652	0.290009
C50	C	-0.234035	1.004796	0.290029
H51	H	-0.159047	0.651037	0.256036
Br52	Br	-0.154284	0.454914	-0.305267
Br53	Br	-0.338583	0.922090	0.218788
Br54	Br	0.024579	1.209393	0.781346
H55	H	-0.151582	0.339352	0.165077
Br56	Br	0.024580	1.209345	0.218732
Br57	Br	0.101615	1.270311	0.623800
Br58	Br	-0.163049	0.817643	0.214438
Br59	Br	-0.163027	0.817659	-0.214343
H60	H	-0.159051	0.651072	-0.255903
Br61	Br	-0.150922	0.313843	-0.214312
H62	H	-0.154966	0.480416	0.256023
H63	H	-0.373803	0.894267	0.404824
H64	H	-0.373793	0.894282	0.595374
Br65	Br	0.101633	1.270290	0.376254
Br66	Br	-0.338577	0.922142	0.781407
