data_functionalizedCrystal
_audit_creation_method	'MofGen! by Chris Wilmer'
_symmetry_space_group_name_H-M	'P1'
_symmetry_Int_Tables_number	1
_symmetry_cell_setting	triclinic
loop_
_symmetry_equiv_pos_as_xyz
  x,y,z
_cell_length_a	15.297327
_cell_length_b	17.077404
_cell_length_c	17.077404
_cell_angle_alpha	89.994264
_cell_angle_beta	80.340314
_cell_angle_gamma	80.292864
loop_
_atom_site_label
_atom_site_type_symbol
_atom_site_fract_x
_atom_site_fract_y
_atom_site_fract_z
Zn1	Zn	-0.359310	-1.145810	0.497917
Zn2	Zn	-0.510152	-1.123022	0.389352
Zn3	Zn	-0.359303	-1.014575	0.366664
Zn4	Zn	-0.510138	-0.991785	0.520573
O5	O	-0.434726	-1.068798	0.443627
O6	O	-0.379329	-1.252633	0.483529
O7	O	-0.490144	-1.108636	0.276496
O8	O	-0.233051	-1.051058	0.365098
O9	O	-0.490152	-1.235890	0.403767
O10	O	-0.233056	-1.147477	0.461529
O11	O	-0.379316	-1.028961	0.259827
O12	O	-0.379302	-0.901706	0.387067
O13	O	-0.490128	-1.012216	0.627414
O14	O	-0.490120	-0.884963	0.500144
O15	O	-0.379315	-1.125378	0.610769
O16	O	-0.636403	-1.086538	0.425736
O17	O	-0.636393	-0.990119	0.522143
C18	C	-0.434709	-0.864853	0.443602
C19	C	-0.434724	-0.777601	0.443614
C20	C	-0.669134	-1.033404	0.478877
C21	C	-0.769415	-1.018334	0.493984
C22	C	-0.434721	-1.068797	0.648370
C23	C	-0.434719	-1.068797	0.735620
C24	C	-1.051986	-1.176829	0.335925
C25	C	-0.957767	-1.190988	0.321728
C26	C	-0.910674	-1.147826	0.364790
C27	C	-0.957810	-1.090502	0.422053
C28	C	-1.052038	-1.076338	0.436248
C29	C	-0.910726	-1.047334	0.465113
C30	C	-0.957862	-0.990011	0.522376
C31	C	-1.052080	-0.975849	0.536568
C32	C	-1.099173	-1.019011	0.493505
C33	C	-0.816498	-1.061499	0.450919
C34	C	-0.816550	-0.961007	0.551241
C35	C	-0.910769	-0.946849	0.565439
C36	C	-0.199402	-1.104352	0.408255
C37	C	-0.099121	-1.119503	0.393182
C38	C	-0.434743	-1.273540	0.443651
C39	C	-0.434750	-1.360788	0.443662
C40	C	-0.492514	-0.727899	0.502426
C41	C	-0.492516	-0.645919	0.502438
C42	C	-0.434732	-0.613640	0.443636
C43	C	-0.376936	-0.663348	0.384821
C44	C	-0.376930	-0.745328	0.384812
C45	C	-0.376953	-0.492475	0.384842
C46	C	-0.376960	-0.410489	0.384850
C47	C	-0.492540	-0.393066	0.502469
C48	C	-0.492534	-0.475046	0.502460
C49	C	-0.434738	-0.524748	0.443644
C50	C	-0.492447	-1.110277	1.120119
C51	C	-0.492446	-1.110274	1.038138
C52	C	-0.434739	-1.068794	0.988472
C53	C	-0.377036	-1.027308	1.020790
C54	C	-0.377042	-1.027308	1.102770
C55	C	-0.377026	-1.027314	0.849918
C56	C	-0.377018	-1.027316	0.767933
C57	C	-0.492430	-1.110281	0.785287
C58	C	-0.492436	-1.110280	0.867267
C59	C	-0.434731	-1.068795	0.899579
C60	C	-0.434749	-1.068792	1.239682
C61	C	-0.434746	-1.068797	1.152432
H62	H	-0.778129	-1.108172	0.404295
H63	H	-0.330025	-0.993542	0.727495
H64	H	-0.833957	-1.159356	0.353227
H65	H	-1.090337	-1.211960	0.300865
H66	H	-0.539592	-0.501323	0.550339
H67	H	-0.329866	-0.785795	0.336925
C68	C	-0.313549	-0.981685	0.885461
H69	H	-0.279172	-0.956988	0.844140
H70	H	-0.348054	-0.942267	0.922624
H71	H	-0.274243	-1.017661	0.911536
H72	H	-0.329883	-0.637061	0.336946
H73	H	-0.919393	-1.237659	0.275104
C74	C	-0.555911	-1.155906	0.749747
H75	H	-0.547653	-1.149958	0.693812
H76	H	-0.542716	-1.210642	0.761202
H77	H	-0.616531	-1.135251	0.772293
H78	H	-1.175894	-1.007488	0.505063
H79	H	-0.539435	-1.144060	1.160552
C80	C	-0.313376	-0.547146	0.320149
H81	H	-0.278968	-0.516182	0.285125
H82	H	-0.274118	-0.585058	0.344327
H83	H	-0.347830	-0.573918	0.291072
H84	H	-0.539443	-1.144041	1.011835
C85	C	-0.556108	-0.338399	0.567169
H86	H	-0.547830	-0.284952	0.558760
H87	H	-0.616706	-0.342681	0.564705
H88	H	-0.542992	-0.353828	0.617958
H89	H	-0.330054	-0.993530	0.980345
C90	C	-0.555914	-1.155904	0.921899
H91	H	-0.590287	-1.180604	0.890916
H92	H	-0.521411	-1.195319	0.948702
H93	H	-0.595223	-1.119926	0.959779
C94	C	-1.103932	-0.912796	0.599553
H95	H	-1.166791	-0.910539	0.601835
H96	H	-1.088454	-0.926571	0.649972
H97	H	-1.088547	-0.862371	0.585699
C98	C	-0.313576	-0.981677	1.138319
H99	H	-0.321851	-0.987610	1.194257
H100	H	-0.252955	-1.002321	1.115781
H101	H	-0.326783	-0.926939	1.126860
H102	H	-0.949160	-0.900175	0.612062
H103	H	-0.778208	-0.925860	0.586305
C104	C	-0.556082	-0.763402	0.567104
H105	H	-0.547811	-0.819343	0.558672
H106	H	-0.542978	-0.751958	0.617896
H107	H	-0.616683	-0.740812	0.564634
C108	C	-0.313390	-0.374985	0.320176
H109	H	-0.278958	-0.416327	0.285153
H110	H	-0.347838	-0.337796	0.291105
H111	H	-0.274140	-0.348938	0.344373
C112	C	-0.556140	-0.591242	0.567091
H113	H	-0.590577	-0.622204	0.602093
H114	H	-0.521744	-0.564439	0.596192
H115	H	-0.595383	-0.553356	0.542863
