data_functionalizedCrystal
_audit_creation_method	'MofGen! by Chris Wilmer'
_symmetry_space_group_name_H-M	'P1'
_symmetry_Int_Tables_number	1
_symmetry_cell_setting	triclinic
loop_
_symmetry_equiv_pos_as_xyz
  x,y,z
_cell_length_a	10.654562
_cell_length_b	10.489716
_cell_length_c	9.130313
_cell_angle_alpha	90.002761
_cell_angle_beta	89.996930
_cell_angle_gamma	84.509620
loop_
_atom_site_label
_atom_site_type_symbol
_atom_site_fract_x
_atom_site_fract_y
_atom_site_fract_z
O1	O	1.667893	0.179235	-0.121881
O2	O	1.302423	0.196288	-0.121862
O3	O	1.493490	0.002158	-0.121877
O4	O	1.476826	0.373365	-0.121866
O5	O	1.493488	0.002163	0.121722
O6	O	1.302421	0.196293	0.121737
O7	O	1.667891	0.179241	0.121717
Cu8	Cu	1.485156	0.187767	0.143970
Cu9	Cu	1.485158	0.187761	-0.144114
O10	O	1.476824	0.373370	0.121733
C11	C	1.255624	0.195035	-0.000060
C12	C	1.116180	0.191279	-0.000053
C13	C	1.050647	0.189530	0.132721
C14	C	0.919624	0.186011	0.132696
C15	C	0.919676	0.185995	-0.132888
C16	C	1.050699	0.189505	-0.132862
C17	C	1.050615	0.189544	0.286054
C18	C	0.919592	0.186025	0.286030
C19	C	1.492237	-0.045371	-0.000082
C20	C	1.488491	-0.187000	-0.000095
C21	C	1.605659	-0.284725	-0.000088
C22	C	1.543746	-0.362061	-0.120188
C23	C	1.543717	-0.362020	0.119981
C24	C	1.426627	-0.262471	-0.120294
C25	C	1.426615	-0.262424	0.119983
C26	C	1.364615	-0.339711	-0.000146
C27	C	1.714690	0.180493	-0.000088
C28	C	1.854134	0.184250	-0.000104
C29	C	1.478077	0.420899	-0.000065
C30	C	1.481823	0.562529	-0.000062
N31	N	1.485163	0.187771	0.346592
N32	N	1.485161	0.187748	-0.346737
C33	C	1.569789	0.101840	0.423237
C34	C	1.569786	0.101825	0.576574
C35	C	1.400526	0.273683	0.576607
C36	C	1.400524	0.273691	0.423273
C37	C	1.667514	0.002622	0.423220
C38	C	1.667511	0.002607	0.576556
H39	H	0.873339	0.274183	0.344898
H40	H	1.104053	0.190910	-0.240980
H41	H	0.866345	0.184551	-0.241017
H42	H	1.593202	-0.405512	0.221514
H43	H	1.377195	-0.218882	0.221530
F44	F	1.089324	0.311142	0.348245
H45	H	1.331614	0.343636	0.639058
F46	F	0.880852	0.064531	0.348462
F47	F	1.627574	-0.118491	0.638710
F48	F	1.111041	0.074325	0.363015
F49	F	1.738870	-0.252526	-0.000250
H50	H	1.593208	-0.405580	-0.221732
H51	H	1.331604	0.343652	0.360870
F52	F	1.639438	-0.125529	0.368810
H53	H	1.377193	-0.219148	-0.221942
F54	F	1.231304	-0.371590	-0.000220
H55	H	1.758709	0.033694	0.375657
F56	F	1.793668	0.031170	0.630954
