data_functionalizedCrystal
_audit_creation_method	'MofGen! by Chris Wilmer'
_symmetry_space_group_name_H-M	'P1'
_symmetry_Int_Tables_number	1
_symmetry_cell_setting	triclinic
loop_
_symmetry_equiv_pos_as_xyz
  x,y,z
_cell_length_a	12.827892
_cell_length_b	12.827893
_cell_length_c	12.827885
_cell_angle_alpha	90.021189
_cell_angle_beta	89.970214
_cell_angle_gamma	89.986399
loop_
_atom_site_label
_atom_site_type_symbol
_atom_site_fract_x
_atom_site_fract_y
_atom_site_fract_z
Zn1	Zn	-0.416032	-1.597670	-0.590902
Zn2	Zn	-0.590810	-1.597564	-0.416162
Zn3	Zn	-0.416078	-1.422911	-0.416170
Zn4	Zn	-0.590727	-1.422896	-0.590857
O5	O	-0.503412	-1.510260	-0.503523
O6	O	-0.439233	-1.743892	-0.567738
O7	O	-0.567685	-1.574358	-0.269927
O8	O	-0.269836	-1.446144	-0.439371
O9	O	-0.567641	-1.743814	-0.439358
O10	O	-0.269802	-1.574538	-0.567746
O11	O	-0.439310	-1.446041	-0.269933
O12	O	-0.439230	-1.276673	-0.439327
O13	O	-0.567499	-1.446118	-0.737099
O14	O	-0.567543	-1.276662	-0.567668
O15	O	-0.439152	-1.574524	-0.737132
O16	O	-0.737035	-1.574343	-0.439314
O17	O	-0.736974	-1.446016	-0.567661
C18	C	-0.503383	-1.238750	-0.503494
C19	C	-0.503396	-1.122597	-0.503506
C20	C	-0.566849	-0.950730	-0.439908
C21	C	-0.566837	-1.070780	-0.439893
C22	C	-0.774922	-1.510195	-0.503504
C23	C	-0.891075	-1.510262	-0.503531
C24	C	-0.942855	-1.573838	-0.440092
C25	C	-1.062905	-1.573910	-0.440118
C26	C	-0.230841	-1.510354	-0.503564
C27	C	-0.114688	-1.510394	-0.503582
C28	C	-0.503311	-1.510331	-0.776093
C29	C	-0.503269	-1.510362	-0.892246
C30	C	-0.503432	-0.782830	-0.503544
C31	C	-0.503419	-0.898983	-0.503532
C32	C	-0.566707	-1.446876	-1.064059
C33	C	-0.566753	-1.446843	-0.944008
C34	C	-0.503436	-1.510249	-0.232013
C35	C	-0.503185	-1.510422	-0.115860
H36	H	-0.449092	-1.078103	-0.557983
O37	O	-0.631759	-0.897515	-0.375083
C38	C	-0.699253	-0.834377	-0.434528
H39	H	-0.705833	-0.867374	-0.516788
H40	H	-0.666877	-0.751704	-0.438267
C41	C	-0.799746	-0.791984	-0.282259
C42	C	-0.807835	-0.832516	-0.383289
H43	H	-0.866723	-0.790831	-0.250651
H44	H	-0.754272	-0.834518	-0.242208
H45	H	-0.772762	-0.723094	-0.285389
H46	H	-0.834805	-0.901409	-0.380157
H47	H	-0.853316	-0.789994	-0.423339
H48	H	-0.449102	-0.943558	-0.557987
H49	H	-0.898312	-1.628220	-0.385762
H50	H	-0.621147	-1.115281	-0.385428
H51	H	-1.070166	-1.455957	-0.557894
H52	H	-0.448830	-1.564796	-1.071332
H53	H	-0.935620	-1.455890	-0.557868
O54	O	-0.631514	-1.382094	-1.117331
C55	C	-0.617026	-1.396534	-1.225336
H56	H	-0.582793	-1.477210	-1.240152
H57	H	-0.561327	-1.334605	-1.256311
C58	C	-0.764732	-1.287894	-1.263264
C59	C	-0.722694	-1.386986	-1.281461
H60	H	-0.829910	-1.281999	-1.297886
H61	H	-0.774491	-1.278161	-1.190499
H62	H	-0.718306	-1.236297	-1.289076
H63	H	-0.769113	-1.438579	-1.255637
H64	H	-0.712945	-1.396727	-1.354223
O65	O	-0.631688	-1.382084	-0.890754
C66	C	-0.699172	-1.441603	-0.827637
H67	H	-0.662314	-1.520821	-0.811411
H68	H	-0.776638	-1.453030	-0.869628
C69	C	-0.763302	-1.286876	-0.743816
C70	C	-0.718028	-1.384169	-0.723880
H71	H	-0.774938	-1.251447	-0.679815
H72	H	-0.717840	-1.246775	-0.786341
H73	H	-0.827852	-1.296412	-0.778811
H74	H	-0.653473	-1.374632	-0.688898
H75	H	-0.763479	-1.424267	-0.681346
O76	O	-0.438348	-1.575370	-0.945214
C77	C	-0.379310	-1.634401	-0.873768
H78	H	-0.422071	-1.638055	-0.795931
H79	H	-0.299933	-1.596166	-0.862207
C80	C	-0.311759	-1.741113	-1.012090
C81	C	-0.364284	-1.745608	-0.916490
H82	H	-0.302485	-1.809709	-1.038443
H83	H	-0.351530	-1.701341	-1.060225
H84	H	-0.245618	-1.709246	-1.002442
H85	H	-0.430428	-1.777463	-0.926141
H86	H	-0.324523	-1.785388	-0.868357
H87	H	-1.107435	-1.628336	-0.385802
