data_functionalizedCrystal
_audit_creation_method	'MofGen! by Chris Wilmer'
_symmetry_space_group_name_H-M	'P1'
_symmetry_Int_Tables_number	1
_symmetry_cell_setting	triclinic
loop_
_symmetry_equiv_pos_as_xyz
  x,y,z
_cell_length_a	18.215407
_cell_length_b	12.645330
_cell_length_c	18.215398
_cell_angle_alpha	89.979496
_cell_angle_beta	89.983470
_cell_angle_gamma	90.015151
loop_
_atom_site_label
_atom_site_type_symbol
_atom_site_fract_x
_atom_site_fract_y
_atom_site_fract_z
Zn1	Zn	1.125106	-0.422149	-0.416083
Zn2	Zn	1.125031	-0.599423	-0.293028
Zn3	Zn	1.002039	-0.422166	-0.293037
Zn4	Zn	1.002020	-0.599363	-0.416059
O5	O	1.063549	-0.510775	-0.354552
O6	O	1.228080	-0.445682	-0.399766
O7	O	1.108692	-0.575942	-0.190045
O8	O	1.018404	-0.273817	-0.309374
O9	O	1.228025	-0.575925	-0.309358
O10	O	1.108821	-0.273804	-0.399775
O11	O	1.018331	-0.445712	-0.190052
O12	O	0.899053	-0.445654	-0.309350
O13	O	1.018371	-0.575822	-0.519046
O14	O	0.899038	-0.575839	-0.399733
O15	O	1.108802	-0.445624	-0.519064
O16	O	1.108673	-0.747762	-0.309334
O17	O	1.018298	-0.747718	-0.399724
C18	C	0.872343	-0.510743	-0.354540
C19	C	0.790544	-0.510754	-0.354553
C20	C	0.525498	-0.578674	-0.401550
C21	C	0.602357	-0.578665	-0.401546
C22	C	0.602341	-0.442900	-0.307567
C23	C	0.525484	-0.442915	-0.307567
C24	C	0.487064	-0.510801	-0.354563
C25	C	0.640780	-0.510776	-0.354559
C26	C	0.724114	-0.510766	-0.354555
C27	C	0.403725	-0.510813	-0.354566
C28	C	1.063495	-0.786205	-0.354541
C29	C	1.063540	-0.904035	-0.354562
C30	C	1.006919	-1.071615	-0.411602
C31	C	1.006629	-0.949056	-0.411418
C32	C	1.042547	-0.948619	-0.277004
C33	C	1.042202	-1.071217	-0.277350
C34	C	1.141499	-1.071131	-0.374450
C35	C	1.141021	-0.948525	-0.376146
C36	C	1.255502	-0.510808	-0.354564
C37	C	1.337301	-0.510823	-0.354569
C38	C	1.063593	-0.510714	-0.546505
C39	C	1.063611	-0.510688	-0.628304
C40	C	1.063623	-0.234270	-0.354578
C41	C	1.063654	-0.116440	-0.354589
C42	C	1.110696	-0.578368	-0.893362
C43	C	1.110685	-0.578405	-0.816503
C44	C	1.016582	-0.442804	-0.816494
C45	C	1.016590	-0.442773	-0.893351
C46	C	1.063651	-0.510554	-0.931783
C47	C	1.063632	-0.510621	-0.778067
C48	C	1.063619	-0.510660	-0.694734
C49	C	1.063663	-0.510516	-1.015122
C50	C	1.063548	-0.510759	-0.163346
C51	C	1.063672	-0.510487	-0.081547
H52	H	0.633646	-0.633935	-0.439807
H53	H	0.494190	-0.387643	-0.269301
H54	H	0.978268	-0.387618	-0.785193
H55	H	1.148993	-0.633626	-0.785224
H56	H	0.494219	-0.633951	-0.439817
H57	H	0.633632	-0.387629	-0.269305
H58	H	1.019763	-0.918909	-0.468927
H59	H	0.948919	-0.919816	-0.398261
H60	H	1.019932	-1.101034	-0.469299
H61	H	1.081732	-1.100872	-0.233424
H62	H	0.986236	-0.918002	-0.259875
H63	H	1.149015	-0.633560	-0.924651
H64	H	0.978277	-0.387549	-0.924635
H65	H	1.156852	-0.919381	-0.433224
H66	H	0.949569	-1.102511	-0.398612
H67	H	0.985297	-1.099903	-0.260525
H68	H	1.082561	-0.919458	-0.233365
H69	H	1.160649	-1.101982	-0.430044
H70	H	1.185518	-0.917873	-0.337645
H71	H	1.183768	-1.100117	-0.332926
