data_functionalizedCrystal
_audit_creation_method	'MofGen! by Chris Wilmer'
_symmetry_space_group_name_H-M	'P1'
_symmetry_Int_Tables_number	1
_symmetry_cell_setting	triclinic
loop_
_symmetry_equiv_pos_as_xyz
  x,y,z
_cell_length_a	18.050582
_cell_length_b	16.959455
_cell_length_c	16.959453
_cell_angle_alpha	89.983065
_cell_angle_beta	89.976667
_cell_angle_gamma	90.014681
loop_
_atom_site_label
_atom_site_type_symbol
_atom_site_fract_x
_atom_site_fract_y
_atom_site_fract_z
Zn1	Zn	-0.419890	-1.208387	-0.314791
Zn2	Zn	-0.295700	-1.208309	-0.446965
Zn3	Zn	-0.295716	-1.076215	-0.314798
Zn4	Zn	-0.419851	-1.076180	-0.446924
O5	O	-0.357789	-1.142273	-0.380869
O6	O	-0.403425	-1.318988	-0.332338
O7	O	-0.191777	-1.190768	-0.429453
O8	O	-0.312212	-1.093795	-0.204186
O9	O	-0.312183	-1.318930	-0.429446
O10	O	-0.403441	-1.190901	-0.204181
O11	O	-0.191789	-1.093719	-0.332350
O12	O	-0.312174	-0.965599	-0.332310
O13	O	-0.523780	-1.093736	-0.429376
O14	O	-0.403375	-0.965574	-0.429383
O15	O	-0.523809	-1.190868	-0.332298
O16	O	-0.312145	-1.190735	-0.557571
O17	O	-0.403358	-1.093660	-0.557540
C18	C	-0.357772	-0.936906	-0.380843
C19	C	-0.357782	-0.849050	-0.380851
C20	C	-0.357762	-1.142207	-0.586236
C21	C	-0.357775	-1.142251	-0.674092
C22	C	-0.551495	-1.142307	-0.380832
C23	C	-0.634041	-1.142321	-0.380816
C24	C	-0.882851	-1.089551	-0.433521
C25	C	-0.833463	-1.070233	-0.361424
C26	C	-0.931161	-1.142388	-0.380700
C27	C	-0.833467	-1.161636	-0.452849
C28	C	-0.785176	-1.142354	-0.380760
C29	C	-0.882861	-1.123034	-0.308565
C30	C	-0.882869	-1.214470	-0.400038
C31	C	-0.833504	-1.195180	-0.327892
C32	C	-1.015259	-1.142406	-0.380666
C33	C	-0.701079	-1.142336	-0.380786
C34	C	-0.164837	-1.142284	-0.380850
C35	C	-0.082292	-1.142423	-0.380643
C36	C	-0.357807	-1.348441	-0.380896
C37	C	-0.357814	-1.436298	-0.380908
C38	C	-0.310400	-0.477563	-0.330282
C39	C	-0.405221	-0.477586	-0.431522
C40	C	-0.405216	-0.560131	-0.431510
C41	C	-0.357802	-0.601397	-0.380885
C42	C	-0.310392	-0.560117	-0.330271
C43	C	-0.452620	-0.601418	-0.482129
C44	C	-0.452616	-0.683969	-0.482120
C45	C	-0.405205	-0.725236	-0.431490
C46	C	-0.357794	-0.683950	-0.380874
C47	C	-0.310380	-0.725216	-0.330248
C48	C	-0.262972	-0.683932	-0.279627
C49	C	-0.262981	-0.601383	-0.279641
C50	C	-0.405197	-0.807784	-0.431476
C51	C	-0.310373	-0.807769	-0.330237
C52	C	-0.405382	-1.192901	-1.045507
C53	C	-0.310306	-1.091865	-1.045629
C54	C	-0.310289	-1.091836	-0.963083
C55	C	-0.357820	-1.142339	-0.921745
C56	C	-0.405368	-1.192871	-0.962953
C57	C	-0.262748	-1.041299	-0.921869
C58	C	-0.262729	-1.041267	-0.839318
C59	C	-0.310257	-1.091775	-0.797979
C60	C	-0.357806	-1.142310	-0.839192
C61	C	-0.405337	-1.192813	-0.797854
C62	C	-0.452883	-1.243352	-0.839065
C63	C	-0.452896	-1.243379	-0.921614
C64	C	-0.310244	-1.091748	-0.715430
C65	C	-0.405323	-1.192783	-0.715300
C66	C	-0.357833	-1.142360	-0.174701
C67	C	-0.357851	-1.142398	-0.086845
H68	H	-0.904519	-1.044848	-0.478107
H69	H	-0.224365	-0.717541	-0.238412
H70	H	-0.444026	-1.233912	-0.681648
H71	H	-0.904467	-1.106670	-0.247556
H72	H	-0.491586	-1.284469	-0.805398
H73	H	-0.811974	-1.239848	-0.283198
F74	F	-0.805100	-1.182929	-0.532566
F75	F	-0.911258	-1.294143	-0.421419
H76	H	-0.271612	-1.050745	-1.079291
F77	F	-0.503058	-0.557497	-0.536024
F78	F	-0.212129	-0.987478	-0.795465
F79	F	-0.805098	-0.990538	-0.340069
F80	F	-0.212531	-0.557441	-0.225772
F81	F	-0.503072	-0.727899	-0.535994
F82	F	-0.212178	-0.987541	-0.965867
H83	H	-0.443793	-0.841394	-0.472694
F84	F	-0.503495	-1.297159	-0.965479
H85	H	-0.271766	-0.841362	-0.289007
H86	H	-0.444091	-1.234051	-1.079065
F87	F	-0.259951	-0.433626	-0.276406
F88	F	-0.259648	-1.037962	-0.671574
H89	H	-0.443819	-0.443982	-0.472743
