data_functionalizedCrystal
_audit_creation_method	'MofGen! by Chris Wilmer'
_symmetry_space_group_name_H-M	'P1'
_symmetry_Int_Tables_number	1
_symmetry_cell_setting	triclinic
loop_
_symmetry_equiv_pos_as_xyz
  x,y,z
_cell_length_a	15.944551
_cell_length_b	11.792241
_cell_length_c	10.868271
_cell_angle_alpha	90.000107
_cell_angle_beta	89.993912
_cell_angle_gamma	96.153923
loop_
_atom_site_label
_atom_site_type_symbol
_atom_site_fract_x
_atom_site_fract_y
_atom_site_fract_z
O1	O	0.115128	-1.505960	-0.102206
O2	O	0.365128	-1.255960	0.147794
O3	O	0.615128	-1.005960	0.397794
O4	O	0.865128	-0.755960	0.647794
O5	O	0.126993	-1.175521	-0.102235
O6	O	0.376993	-0.925521	0.147765
O7	O	0.626993	-0.675521	0.397765
O8	O	0.876993	-0.425521	0.647765
O9	O	-0.001173	-1.349764	-0.102208
O10	O	0.248827	-1.099764	0.147792
O11	O	0.498827	-0.849764	0.397792
O12	O	0.748827	-0.599764	0.647792
O13	O	0.243295	-1.331717	-0.102232
O14	O	0.493295	-1.081717	0.147768
O15	O	0.743295	-0.831717	0.397768
O16	O	0.993295	-0.581717	0.647768
O17	O	-0.001178	-1.349750	0.102436
O18	O	0.248822	-1.099750	0.352436
O19	O	0.498822	-0.849750	0.602436
O20	O	0.748822	-0.599750	0.852436
O21	O	0.126988	-1.175507	0.102410
O22	O	0.376988	-0.925507	0.352410
O23	O	0.626988	-0.675507	0.602410
O24	O	0.876988	-0.425507	0.852410
O25	O	0.115123	-1.505946	0.102439
O26	O	0.365123	-1.255946	0.352439
O27	O	0.615123	-1.005946	0.602439
O28	O	0.865123	-0.755946	0.852439
Zn29	Zn	0.121055	-1.340724	0.134916
Zn30	Zn	0.371055	-1.090724	0.384916
Zn31	Zn	0.621055	-0.840724	0.634916
Zn32	Zn	0.871055	-0.590724	0.884916
Zn33	Zn	0.121062	-1.340743	-0.134712
Zn34	Zn	0.371062	-1.090743	0.115288
Zn35	Zn	0.621062	-0.840743	0.365288
Zn36	Zn	0.871062	-0.590743	0.615288
O37	O	0.243290	-1.331703	0.102413
O38	O	0.493290	-1.081703	0.352413
O39	O	0.743290	-0.831703	0.602413
O40	O	0.993290	-0.581703	0.852413
C41	C	0.126245	-1.133229	0.000084
C42	C	0.376245	-0.883229	0.250084
C43	C	0.626245	-0.633229	0.500084
C44	C	0.876245	-0.383229	0.750084
C45	C	0.124015	-1.007234	0.000073
C46	C	0.374015	-0.757234	0.250073
C47	C	0.624015	-0.507234	0.500073
C48	C	0.874015	-0.257234	0.750073
C49	C	-0.032473	-1.349008	0.000114
C50	C	0.217527	-1.099008	0.250114
C51	C	0.467527	-0.849008	0.500114
C52	C	0.717527	-0.599008	0.750114
C53	C	-0.125729	-1.346761	0.000115
C54	C	0.124271	-1.096761	0.250115
C55	C	0.374271	-0.846761	0.500115
C56	C	0.624271	-0.596761	0.750115
N57	N	0.121050	-1.340719	0.318930
N58	N	0.371050	-1.090719	0.568930
N59	N	0.621050	-0.840719	0.818930
N60	N	0.871050	-0.590719	1.068930
C61	C	-0.341098	-1.233389	0.000088
C62	C	-0.091098	-0.983389	0.250088
C63	C	0.158902	-0.733389	0.500088
C64	C	0.408902	-0.483389	0.750088
C65	C	-0.401880	-1.286028	0.100995
C66	C	-0.151880	-1.036028	0.350995
C67	C	0.098120	-0.786028	0.600995
C68	C	0.348120	-0.536028	0.850995
C69	C	-0.296474	-1.342698	0.000105
C70	C	-0.046474	-1.092698	0.250105
C71	C	0.203526	-0.842698	0.500105
C72	C	0.453526	-0.592698	0.750105
C73	C	-0.401858	-1.286068	-0.100769
C74	C	-0.151858	-1.036068	0.149231
C75	C	0.098142	-0.786068	0.399231
C76	C	0.348142	-0.536068	0.649231
C77	C	-0.461404	-1.338765	0.000090
C78	C	-0.211404	-1.088765	0.250090
C79	C	0.038596	-0.838765	0.500090
C80	C	0.288596	-0.588765	0.750090
C81	C	-0.356028	-1.395368	0.101095
C82	C	-0.106028	-1.145368	0.351095
C83	C	0.143972	-0.895368	0.601095
C84	C	0.393972	-0.645368	0.851095
C85	C	-0.356000	-1.395392	-0.100759
C86	C	-0.106000	-1.145392	0.149241
C87	C	0.144000	-0.895392	0.399241
C88	C	0.394000	-0.645392	0.649241
C89	C	-0.416764	-1.448111	0.000172
C90	C	-0.166764	-1.198111	0.250172
C91	C	0.083236	-0.948111	0.500172
C92	C	0.333236	-0.698111	0.750172
C93	C	-0.201461	-1.344961	0.000114
C94	C	0.048539	-1.094961	0.250114
C95	C	0.298539	-0.844961	0.500114
C96	C	0.548539	-0.594961	0.750114
C97	C	-0.556415	-1.336511	0.000089
C98	C	-0.306415	-1.086511	0.250089
C99	C	-0.056415	-0.836511	0.500089
C100	C	0.193585	-0.586511	0.750089
C101	C	0.274590	-1.332459	0.000087
C102	C	0.524590	-1.082459	0.250087
C103	C	0.774590	-0.832459	0.500087
C104	C	1.024590	-0.582459	0.750087
C105	C	0.367846	-1.334705	0.000079
C106	C	0.617846	-1.084705	0.250079
C107	C	0.867846	-0.834705	0.500079
C108	C	1.117846	-0.584705	0.750079
C109	C	0.115871	-1.548237	0.000118
C110	C	0.365871	-1.298237	0.250118
C111	C	0.615871	-1.048237	0.500118
C112	C	0.865871	-0.798237	0.750118
C113	C	0.118102	-1.674233	0.000120
C114	C	0.368102	-1.424233	0.250120
C115	C	0.618102	-1.174233	0.500120
C116	C	0.868102	-0.924233	0.750120
C117	C	0.119913	-0.776555	0.000109
C118	C	0.369913	-0.526555	0.250109
C119	C	0.619913	-0.276555	0.500109
C120	C	0.869913	-0.026555	0.750109
C121	C	0.122192	-0.904922	0.000090
C122	C	0.372192	-0.654922	0.250090
C123	C	0.622192	-0.404922	0.500090
C124	C	0.872192	-0.154922	0.750090
N125	N	0.121060	-1.340756	-0.318726
N126	N	0.371060	-1.090756	-0.068726
N127	N	0.621060	-0.840756	0.181274
N128	N	0.871060	-0.590756	0.431274
C129	C	0.121060	-1.340737	0.569936
C130	C	0.371060	-1.090737	0.819936
C131	C	0.621060	-0.840737	1.069936
C132	C	0.871060	-0.590737	1.319936
C133	C	0.121057	-1.340723	0.430259
C134	C	0.371057	-1.090723	0.680259
C135	C	0.621057	-0.840723	0.930259
C136	C	0.871057	-0.590723	1.180259
H137	H	-0.308200	-1.142657	0.000181
H138	H	-0.058200	-0.892657	0.250181
H139	H	0.191800	-0.642657	0.500181
H140	H	0.441800	-0.392657	0.750181
Br141	Br	-0.435746	-1.208965	0.243171
Br142	Br	-0.185746	-0.958965	0.493171
Br143	Br	0.064254	-0.708965	0.743171
Br144	Br	0.314254	-0.458965	0.993171
Br145	Br	-0.322094	-1.472399	-0.242941
Br146	Br	-0.072094	-1.222399	0.007059
Br147	Br	0.177906	-0.972399	0.257059
Br148	Br	0.427906	-0.722399	0.507059
H149	H	-0.422142	-1.239826	-0.186084
H150	H	-0.172142	-0.989826	0.063916
H151	H	0.077858	-0.739826	0.313916
H152	H	0.327858	-0.489826	0.563916
H153	H	-0.449513	-1.538922	0.000237
H154	H	-0.199513	-1.288922	0.250237
H155	H	0.050487	-1.038922	0.500237
H156	H	0.300487	-0.788922	0.750237
H157	H	-0.335831	-1.441556	0.186497
H158	H	-0.085831	-1.191556	0.436497
H159	H	0.164169	-0.941556	0.686497
H160	H	0.414169	-0.691556	0.936497
