data_functionalizedCrystal
_audit_creation_method	'MofGen! by Chris Wilmer'
_symmetry_space_group_name_H-M	'P1'
_symmetry_Int_Tables_number	1
_symmetry_cell_setting	triclinic
loop_
_symmetry_equiv_pos_as_xyz
  x,y,z
_cell_length_a	6.817900
_cell_length_b	16.418055
_cell_length_c	12.200875
_cell_angle_alpha	94.312575
_cell_angle_beta	107.143593
_cell_angle_gamma	103.389726
loop_
_atom_site_label
_atom_site_type_symbol
_atom_site_fract_x
_atom_site_fract_y
_atom_site_fract_z
V1	V	-4.067902	-0.116076	-0.358060
O2	O	-4.055059	0.005382	-0.350834
O3	O	-4.018728	-0.229971	-0.356005
O4	O	-4.037632	-0.114376	-0.514042
O5	O	-4.036024	-0.111012	-0.191703
V6	V	-4.549282	-0.101538	-0.338114
O7	O	-4.333864	-0.147966	-0.401812
O8	O	-4.733518	-0.069648	-0.294362
O9	O	-4.375249	0.012357	-0.340169
O10	O	-4.679522	-0.222996	-0.345340
O11	O	-4.698556	-0.106601	-0.504471
O12	O	-4.356346	-0.103237	-0.182132
C13	C	-3.862954	-0.257733	-0.350458
C14	C	-3.904156	-0.350844	-0.349818
C15	C	-4.220403	-0.656832	-0.353543
C16	C	-4.181699	-0.569343	-0.354126
C17	C	-3.816142	-0.560792	-0.342631
C18	C	-3.854844	-0.648279	-0.342040
C19	C	-4.056982	-0.696298	-0.347502
C20	C	-3.979576	-0.521321	-0.348676
C21	C	-3.937609	-0.426461	-0.349309
C22	C	-4.098951	-0.791163	-0.346867
C23	C	-3.887066	-0.110280	-0.552049
C24	C	-3.943595	-0.109644	-0.679568
C25	C	-4.047051	-0.108481	-0.913038
C26	C	-3.989472	-0.109128	-0.783118
C27	C	-4.194365	0.040115	-0.345713
C28	C	-4.132402	0.133225	-0.346361
C29	C	-4.170253	-0.107337	-0.144119
C30	C	-4.092962	-0.107968	-0.016599
H31	H	-3.721755	-0.680412	-0.337118
H32	H	-4.314775	-0.537214	-0.359043
F33	F	-4.435533	-0.707934	-0.359353
F34	F	-3.601018	-0.509680	-0.336815
