data_functionalizedCrystal
_audit_creation_method	'MofGen! by Chris Wilmer'
_symmetry_space_group_name_H-M	'P1'
_symmetry_Int_Tables_number	1
_symmetry_cell_setting	triclinic
loop_
_symmetry_equiv_pos_as_xyz
  x,y,z
_cell_length_a	10.489741
_cell_length_b	19.288865
_cell_length_c	17.766277
_cell_angle_alpha	90.011603
_cell_angle_beta	90.006652
_cell_angle_gamma	83.837711
loop_
_atom_site_label
_atom_site_type_symbol
_atom_site_fract_x
_atom_site_fract_y
_atom_site_fract_z
O1	O	-1.691846	-0.097994	-0.062557
O2	O	-1.191846	0.402006	0.437443
O3	O	-1.320443	-0.107192	-0.062570
O4	O	-0.820443	0.392808	0.437430
O5	O	-1.516876	-0.001535	-0.062548
O6	O	-1.016876	0.498465	0.437452
O7	O	-1.495413	-0.203651	-0.062579
O8	O	-0.995413	0.296349	0.437421
O9	O	-1.516842	-0.001529	0.062640
O10	O	-1.016842	0.498471	0.562640
O11	O	-1.320408	-0.107187	0.062618
O12	O	-0.820408	0.392813	0.562618
O13	O	-1.691812	-0.097988	0.062631
O14	O	-1.191812	0.402012	0.562631
Cu15	Cu	-1.506107	-0.102587	0.074055
Cu16	Cu	-1.006107	0.397413	0.574055
Cu17	Cu	-1.506148	-0.102594	-0.073994
Cu18	Cu	-1.006148	0.397406	0.426006
O19	O	-1.495378	-0.203646	0.062609
O20	O	-0.995378	0.296354	0.562609
C21	C	-1.516169	0.024349	0.000048
C22	C	-1.016169	0.524349	0.500048
C23	C	-1.514095	0.101467	0.000055
C24	C	-1.014095	0.601467	0.500055
C25	C	-1.272910	-0.106495	0.000023
C26	C	-0.772910	0.393505	0.500023
C27	C	-1.131327	-0.104416	0.000019
C28	C	-0.631327	0.395584	0.500019
C29	C	-1.739345	-0.098686	0.000037
C30	C	-1.239345	0.401314	0.500037
C31	C	-1.880928	-0.100764	0.000036
C32	C	-1.380928	0.399236	0.500036
C33	C	-1.064707	-0.037189	0.000036
C34	C	-0.564707	0.462811	0.500036
C35	C	-0.971879	-0.068949	-0.061692
C36	C	-0.471879	0.431051	0.438308
C37	C	-0.971879	-0.068960	0.061734
C38	C	-0.471879	0.431040	0.561734
C39	C	-1.040364	-0.136204	-0.061760
C40	C	-0.540364	0.363796	0.438240
C41	C	-1.040373	-0.136205	0.061721
C42	C	-0.540373	0.363795	0.561721
C43	C	-0.947572	-0.168014	-0.000021
C44	C	-0.447572	0.331986	0.499979
C45	C	-1.496086	-0.229530	0.000011
C46	C	-0.996086	0.270470	0.500011
C47	C	-1.498159	-0.306647	-0.000000
C48	C	-0.998159	0.193353	0.500000
N49	N	-1.506088	-0.102582	0.178186
N50	N	-1.006088	0.397418	0.678186
C51	C	-1.629354	0.145390	0.000062
C52	C	-1.129354	0.645390	0.500062
C53	C	-1.627406	0.217850	0.000050
C54	C	-1.127406	0.717850	0.500050
C55	C	-1.510193	0.246384	0.000046
C56	C	-1.010193	0.746384	0.500046
C57	C	-1.394920	0.202451	0.000034
C58	C	-0.894920	0.702451	0.500034
C59	C	-1.396871	0.129992	0.000038
C60	C	-0.896871	0.629992	0.500038
C61	C	-1.418039	0.355291	0.043893
C62	C	-0.918039	0.855291	0.543893
C63	C	-1.416092	0.427749	0.043894
C64	C	-0.916092	0.927749	0.543894
C65	C	-1.504171	0.469870	0.000029
C66	C	-1.004171	0.969870	0.500029
C67	C	-1.594218	0.439526	-0.043827
C68	C	-1.094218	0.939526	0.456173
C69	C	-1.596169	0.367067	-0.043822
C70	C	-1.096169	0.867067	0.456178
C71	C	-1.508065	0.324952	0.000040
C72	C	-1.008065	0.824952	0.500040
C73	C	-1.617326	0.592363	0.000022
C74	C	-1.117326	1.092363	0.500022
C75	C	-1.615373	0.664824	0.000006
C76	C	-1.115373	1.164824	0.500006
C77	C	-1.382884	0.649423	-0.000003
C78	C	-0.882884	1.149423	0.499997
C79	C	-1.384839	0.576964	0.000006
C80	C	-0.884839	1.076964	0.500006
C81	C	-1.502064	0.548438	0.000022
C82	C	-1.002064	1.048438	0.500022
N83	N	-1.506177	-0.102593	-0.178125
N84	N	-1.006177	0.397407	0.321875
C85	C	-1.593096	-0.055820	0.217582
C86	C	-1.093096	0.444180	0.717582
C87	C	-1.593104	-0.055817	0.296384
C88	C	-1.093104	0.444183	0.796384
C89	C	-1.506115	-0.102588	0.335786
C90	C	-1.006115	0.397412	0.835786
C91	C	-1.419089	-0.149353	0.296380
C92	C	-0.919089	0.350647	0.796380
C93	C	-1.419076	-0.149350	0.217580
C94	C	-0.919076	0.350650	0.717580
C95	C	-1.489040	-0.165761	0.460614
C96	C	-0.989040	0.334239	0.960614
C97	C	-1.489062	-0.165765	0.539413
C98	C	-0.989062	0.334235	1.039413
C99	C	-1.506149	-0.102596	0.578833
C100	C	-1.006149	0.397404	1.078833
C101	C	-1.523240	-0.039421	0.539444
C102	C	-1.023240	0.460579	1.039444
C103	C	-1.523227	-0.039418	0.460643
C104	C	-1.023227	0.460582	0.960643
C105	C	-1.506119	-0.102596	0.421232
C106	C	-1.006119	0.397404	0.921232
C107	C	-1.593170	-0.055827	0.703675
C108	C	-1.093170	0.444173	1.203675
C109	C	-1.593169	-0.055823	0.782478
C110	C	-1.093169	0.444177	1.282478
C111	C	-1.419160	-0.149365	0.782473
C112	C	-0.919160	0.350635	1.282473
C113	C	-1.419156	-0.149363	0.703671
C114	C	-0.919156	0.350637	1.203671
C115	C	-1.506167	-0.102595	0.664277
C116	C	-1.006167	0.397405	1.164277
H117	H	-1.115647	0.018075	-0.000033
H118	H	-0.615647	0.518075	0.499967
H119	H	-0.896897	-0.223337	-0.000063
H120	H	-0.396897	0.276663	0.499937
Br121	Br	-1.771810	0.724437	0.000008
Br122	Br	-1.271810	1.224437	0.500008
Br123	Br	-1.301089	-0.212832	0.835941
Br124	Br	-0.801089	0.287168	1.335941
Br125	Br	-0.921287	-0.021547	-0.148663
Br126	Br	-0.421287	0.478453	0.351337
Br127	Br	-1.711250	0.007651	0.835950
Br128	Br	-1.211250	0.507651	1.335950
Br129	Br	-1.091028	-0.183575	0.148694
Br130	Br	-0.591028	0.316425	0.648694
Br131	Br	-1.713764	0.496681	-0.103362
Br132	Br	-1.213764	0.996681	0.396638
H133	H	-1.348221	-0.187430	0.185503
H134	H	-0.848221	0.312570	0.685503
H135	H	-1.303011	0.094229	0.000032
H136	H	-0.803011	0.594229	0.500032
H137	H	-1.070563	-0.164629	-0.114005
H138	H	-0.570563	0.335371	0.385995
Br139	Br	-1.465977	-0.251500	0.407125
Br140	Br	-0.965977	0.248500	0.907125
H141	H	-1.342766	0.452448	0.079599
H142	H	-0.842766	0.952448	0.579599
Br143	Br	-0.921294	-0.021528	0.148715
Br144	Br	-0.421294	0.478472	0.648715
H145	H	-1.724807	0.122170	0.000073
H146	H	-1.224807	0.622170	0.500073
H147	H	-1.663943	-0.017737	0.185510
H148	H	-1.163943	0.482263	0.685510
H149	H	-1.721266	0.253619	0.000053
H150	H	-1.221266	0.753619	0.500053
H151	H	-1.669485	0.342364	-0.079532
H152	H	-1.169485	0.842364	0.420468
H153	H	-1.475153	-0.217205	0.571478
H154	H	-0.975153	0.282795	1.071478
H155	H	-1.290983	0.541200	0.000004
H156	H	-0.790983	1.041200	0.500004
H157	H	-1.348310	-0.187444	0.671593
H158	H	-0.848310	0.312556	1.171593
H159	H	-1.537140	0.012021	0.428576
H160	H	-1.037140	0.512021	0.928576
Br161	Br	-1.711196	0.007652	0.349860
Br162	Br	-1.211196	0.507652	0.849860
H163	H	-1.712777	0.569137	0.000032
H164	H	-1.212777	1.069137	0.500032
Br165	Br	-1.223806	0.688139	-0.000017
Br166	Br	-0.723806	1.188139	0.499983
H167	H	-1.664017	-0.017743	0.671599
H168	H	-1.164017	0.482257	1.171599
H169	H	-1.348259	-0.187433	0.328466
H170	H	-0.848259	0.312567	0.828466
H171	H	-1.346311	0.321001	0.079618
H172	H	-0.846311	0.821001	0.579618
H173	H	-1.537153	0.012017	0.571537
H174	H	-1.037153	0.512017	1.071537
Br175	Br	-1.235844	0.241172	0.000018
Br176	Br	-0.735844	0.741172	0.500018
