data_functionalizedCrystal
_audit_creation_method	'MofGen! by Chris Wilmer'
_symmetry_space_group_name_H-M	'P1'
_symmetry_Int_Tables_number	1
_symmetry_cell_setting	triclinic
loop_
_symmetry_equiv_pos_as_xyz
  x,y,z
_cell_length_a	19.288864
_cell_length_b	15.500227
_cell_length_c	19.288857
_cell_angle_alpha	87.183980
_cell_angle_beta	83.134677
_cell_angle_gamma	92.848448
loop_
_atom_site_label
_atom_site_type_symbol
_atom_site_fract_x
_atom_site_fract_y
_atom_site_fract_z
O1	O	0.924600	0.072226	0.083401
O2	O	1.424600	0.572226	0.583401
O3	O	0.722336	0.072168	0.095092
O4	O	1.222336	0.572168	0.595092
O5	O	0.829315	0.072188	-0.011884
O6	O	1.329315	0.572188	0.488116
O7	O	0.817621	0.072206	0.190377
O8	O	1.317621	0.572206	0.690377
O9	O	0.822823	-0.071702	-0.005418
O10	O	1.322823	0.428298	0.494582
O11	O	0.715845	-0.071722	0.101558
O12	O	1.215845	0.428278	0.601558
O13	O	0.918108	-0.071664	0.089867
O14	O	1.418108	0.428336	0.589867
Cu15	Cu	0.816384	-0.084831	0.096303
Cu16	Cu	1.316384	0.415169	0.596303
Cu17	Cu	0.824061	0.085335	0.088656
Cu18	Cu	1.324061	0.585335	0.588656
O19	O	0.811130	-0.071684	0.196843
O20	O	1.311130	0.428316	0.696843
C21	C	0.693214	0.000215	0.097949
C22	C	1.193214	0.500215	0.597949
C23	C	0.616109	0.000192	0.096821
C24	C	1.116109	0.500192	0.596821
N25	N	0.810989	-0.204517	0.101681
N26	N	1.310989	0.295483	0.601681
C27	C	0.571412	0.000211	0.159589
C28	C	1.071412	0.500211	0.659589
C29	C	0.498965	0.000221	0.158528
C30	C	0.998965	0.500221	0.658528
C31	C	0.471220	0.000229	0.094695
C32	C	0.971220	0.500229	0.594695
C33	C	0.515927	0.000205	0.031919
C34	C	1.015927	0.500205	0.531919
C35	C	0.588371	0.000187	0.032983
C36	C	1.088371	0.500187	0.532983
C37	C	0.365235	0.050665	0.042249
C38	C	0.865235	0.550665	0.542249
C39	C	0.292791	0.050688	0.041188
C40	C	0.792791	0.550688	0.541188
C41	C	0.247777	0.000281	0.091413
C42	C	0.747777	0.500281	0.591413
C43	C	0.275213	-0.050139	0.142710
C44	C	0.775213	0.449861	0.642710
C45	C	0.347658	-0.050157	0.143773
C46	C	0.847658	0.449843	0.643773
C47	C	0.392667	0.000248	0.093535
C48	C	0.892667	0.500248	0.593535
C49	C	0.124524	0.000309	0.153034
C50	C	0.624524	0.500309	0.653034
C51	C	0.052076	0.000313	0.151970
C52	C	0.552076	0.500313	0.651970
C53	C	0.069039	0.000306	0.025360
C54	C	0.569039	0.500306	0.525360
C55	C	0.141485	0.000293	0.026426
C56	C	0.641485	0.500293	0.526426
C57	C	0.169223	0.000299	0.090264
C58	C	0.669223	0.500299	0.590264
C59	C	0.856335	-0.249785	0.056368
C60	C	1.356335	0.250215	0.556368
C61	C	0.852262	-0.340359	0.060442
C62	C	1.352262	0.159641	0.560442
C63	C	0.802845	-0.385663	0.109832
C64	C	1.302845	0.114337	0.609832
C65	C	0.757494	-0.340388	0.155147
C66	C	1.257494	0.159612	0.655147
C67	C	0.761565	-0.249817	0.151070
C68	C	1.261565	0.250183	0.651070
C69	C	0.788181	-0.659132	0.124510
C70	C	1.288181	-0.159132	0.624510
C71	C	0.784115	-0.749711	0.128585
C72	C	1.284115	-0.249711	0.628585
C73	C	0.878882	-0.749675	0.033879
C74	C	1.378882	-0.249675	0.533879
C75	C	0.882951	-0.659101	0.029808
C76	C	1.382951	-0.159101	0.529808
C77	C	0.837598	-0.613835	0.075121
C78	C	1.337598	-0.113835	0.575121
C79	C	0.798681	-0.478244	0.113999
C80	C	1.298681	0.021756	0.613999
C81	C	0.841758	-0.521255	0.070950
C82	C	1.341758	-0.021255	0.570950
C83	C	0.947231	0.000291	0.087009
C84	C	1.447231	0.500291	0.587009
C85	C	1.024336	0.000319	0.088137
C86	C	1.524336	0.500319	0.588137
C87	C	0.825694	0.000242	-0.034527
C88	C	1.325694	0.500242	0.465473
C89	C	0.824567	0.000240	-0.111631
C90	C	1.324567	0.500240	0.388369
N91	N	0.829461	0.205021	0.083272
N92	N	1.329461	0.705021	0.583272
C93	C	0.827579	0.078674	-0.151366
C94	C	1.327579	0.578674	0.348634
C95	C	0.826511	0.078680	-0.223813
C96	C	1.326511	0.578680	0.276187
C97	C	0.822443	0.000247	-0.256523
C98	C	1.322443	0.500247	0.243477
C99	C	0.819426	-0.078197	-0.216778
C100	C	1.319426	0.421803	0.283222
C101	C	0.820488	-0.078201	-0.144332
C102	C	1.320488	0.421799	0.355668
C103	C	0.858735	-0.059825	-0.374054
C104	C	1.358735	0.440175	0.125946
C105	C	0.857678	-0.059818	-0.446500
C106	C	1.357678	0.440182	0.053500
C107	C	0.819166	0.000256	-0.479969
C108	C	1.319166	0.500256	0.020031
C109	C	0.781721	0.060338	-0.440986
C110	C	1.281721	0.560338	0.059014
C111	C	0.782783	0.060334	-0.368540
C112	C	1.282783	0.560334	0.131460
C113	C	0.821292	0.000243	-0.335077
C114	C	1.321292	0.500243	0.164923
C115	C	0.821020	0.078703	-0.598259
C116	C	1.321020	0.578703	-0.098259
C117	C	0.819947	0.078706	-0.670706
C118	C	1.319947	0.578706	-0.170706
C119	C	0.812869	-0.078174	-0.663670
C120	C	1.312869	0.421826	-0.163670
C121	C	0.813935	-0.078175	-0.591224
C122	C	1.313935	0.421825	-0.091224
C123	C	0.818014	0.000266	-0.558523
C124	C	1.318014	0.500266	-0.058523
C125	C	0.814751	0.000264	0.219486
C126	C	1.314751	0.500264	0.719486
C127	C	0.815878	0.000272	0.296590
C128	C	1.315878	0.500272	0.796590
H129	H	0.593991	0.000218	0.211571
H130	H	1.093991	0.500218	0.711571
H131	H	0.177879	0.000282	-0.024686
H132	H	0.677879	0.500282	0.475314
N133	N	0.933538	-0.612922	-0.020593
N134	N	1.433538	-0.112922	0.479407
N135	N	0.932471	-0.623056	-0.084354
N136	N	1.432471	-0.123056	0.415646
H137	H	0.968242	-0.590474	-0.119927
H138	H	1.468242	-0.090474	0.380073
N139	N	0.453295	0.000228	0.222645
N140	N	0.953295	0.500228	0.722645
N141	N	0.452942	-0.060420	0.267880
N142	N	0.952942	0.439580	0.767880
H143	H	0.420688	-0.060415	0.313163
H144	H	0.920688	0.439585	0.813163
H145	H	0.881991	-0.484366	0.030734
H146	H	1.381991	0.015634	0.530734
N147	N	0.040695	0.000298	-0.039838
N148	N	0.540695	0.500298	0.460162
N149	N	-0.023988	0.000305	-0.040780
N150	N	0.476012	0.500305	0.459220
H151	H	-0.044010	0.000294	-0.086827
H152	H	0.455990	0.500294	0.413173
H153	H	0.824336	0.142574	-0.571632
H154	H	1.324336	0.642574	-0.071632
N155	N	0.742362	0.121688	-0.475165
N156	N	1.242362	0.621688	0.024835
N157	N	0.694031	0.096081	-0.508189
N158	N	1.194031	0.596081	-0.008189
H159	H	0.666231	0.139406	-0.532329
H160	H	1.166231	0.639406	-0.032329
N161	N	0.898584	-0.386585	0.014148
N162	N	1.398584	0.113415	0.514148
N163	N	0.942705	-0.346125	-0.029946
N164	N	1.442705	0.153875	0.470054
H165	H	0.975423	-0.378771	-0.062645
H166	H	1.475423	0.121229	0.437355
N167	N	0.748197	-0.524513	0.164447
N168	N	1.248197	-0.024513	0.664447
N169	N	0.684455	-0.514437	0.163204
N170	N	1.184455	-0.014437	0.663204
H171	H	0.648797	-0.547117	0.198830
H172	H	1.148797	-0.047117	0.698830
H173	H	0.890095	-0.108752	-0.346810
H174	H	1.390095	0.391248	0.153190
H175	H	0.369994	-0.091213	0.185539
H176	H	0.869994	0.408787	0.685539
H177	H	0.830898	0.142547	-0.124746
H178	H	1.330898	0.642547	0.375254
N179	N	0.925201	-0.795927	-0.012399
N180	N	1.425201	-0.295927	0.487601
N181	N	0.921563	-0.876794	-0.008754
N182	N	1.421563	-0.376794	0.491246
H183	H	0.954277	-0.909461	-0.041440
H184	H	1.454277	-0.409461	0.458560
N185	N	0.733625	-0.795976	0.179039
N186	N	1.233625	-0.295976	0.679039
N187	N	0.693132	-0.755551	0.219488
N188	N	1.193132	-0.255551	0.719488
H189	H	0.657473	-0.788225	0.255118
H190	H	1.157473	-0.288225	0.755118
H191	H	0.751253	-0.622284	0.161406
H192	H	1.251253	-0.122284	0.661406
N193	N	0.707014	-0.386676	0.205589
N194	N	1.207014	0.113324	0.705589
N195	N	0.703385	-0.467543	0.209225
N196	N	1.203385	0.032457	0.709225
H197	H	0.667734	-0.500233	0.244851
H198	H	1.167734	-0.000233	0.744851
N199	N	0.829586	0.158810	-0.264401
N200	N	1.329586	0.658810	0.235599
N201	N	0.833224	0.228838	-0.235195
N202	N	1.333224	0.728838	0.264805
H203	H	0.835397	0.285431	-0.263858
H204	H	1.335397	0.785431	0.236142
H205	H	0.724638	-0.212960	0.187967
H206	H	1.224638	0.287040	0.687967
N207	N	0.744533	0.121707	-0.328731
N208	N	1.244533	0.621707	0.171269
N209	N	0.710151	0.175345	-0.358615
N210	N	1.210151	0.675345	0.141385
H211	H	0.683135	0.218690	-0.330499
H212	H	1.183135	0.718690	0.169501
N213	N	0.634022	0.000163	-0.031142
N214	N	1.134022	0.500163	0.468858
N215	N	0.609245	0.000161	-0.088132
N216	N	1.109245	0.500161	0.411868
H217	H	0.641487	0.000145	-0.133422
H218	H	1.141487	0.500145	0.366578
N219	N	0.823016	0.158837	-0.711286
N220	N	1.323016	0.658837	-0.211286
N221	N	0.826655	0.228862	-0.682076
N222	N	1.326655	0.728862	-0.182076
H223	H	0.828822	0.285457	-0.710735
H224	H	1.328822	0.785457	-0.210735
N225	N	0.229231	-0.101603	0.194029
N226	N	0.729231	0.398397	0.694029
N227	N	0.164549	-0.101572	0.193081
N228	N	0.664549	0.398428	0.693081
H229	H	0.132070	-0.137907	0.229330
H230	H	0.632070	0.362093	0.729330
N231	N	0.808705	-0.158285	-0.697083
N232	N	1.308705	0.341715	-0.197083
N233	N	0.807752	-0.158273	-0.761765
N234	N	1.307752	0.341727	-0.261765
H235	H	0.804806	-0.214853	-0.785367
H236	H	1.304806	0.285147	-0.285367
H237	H	0.896578	-0.212904	0.016152
H238	H	1.396578	0.287096	0.516152
N239	N	0.810859	-0.158303	-0.550641
N240	N	1.310859	0.341697	-0.050641
N241	N	0.807225	-0.228328	-0.579851
N242	N	1.307225	0.271672	-0.079851
H243	H	0.805050	-0.284923	-0.551191
H244	H	1.305050	0.215077	-0.051191
N245	N	0.895938	-0.121184	-0.486307
N246	N	1.395938	0.378816	0.013693
N247	N	0.930315	-0.174822	-0.456417
N248	N	1.430315	0.325178	0.043583
H249	H	0.957339	-0.218163	-0.484530
H250	H	1.457339	0.281837	0.015470
H251	H	0.816113	-0.142058	-0.243414
H252	H	1.316113	0.357942	0.256586
N253	N	0.817400	-0.158324	-0.103738
N254	N	1.317400	0.341676	0.396262
N255	N	0.765957	-0.210853	-0.102911
N256	N	1.265957	0.289147	0.397089
H257	H	0.763776	-0.267441	-0.074240
H258	H	1.263776	0.232559	0.425760
N259	N	0.152852	0.000292	0.218246
N260	N	0.652852	0.500292	0.718246
N261	N	0.136326	-0.060361	0.263235
N262	N	0.636326	0.439639	0.763235
H263	H	0.156330	-0.060376	0.309292
H264	H	0.656330	0.439624	0.809292
N265	N	0.006425	0.000322	0.216096
N266	N	0.506425	0.500322	0.716096
N267	N	0.031205	0.000324	0.273086
N268	N	0.531205	0.500324	0.773086
H269	H	-0.001036	0.000330	0.318377
H270	H	0.498964	0.500330	0.818377
H271	H	0.270458	0.091746	-0.000578
H272	H	0.770458	0.591746	0.499422
N273	N	0.411216	0.102143	-0.009066
N274	N	0.911216	0.602143	0.490934
N275	N	0.411115	0.089433	-0.072548
N276	N	0.911115	0.589433	0.427452
H277	H	0.443590	0.125786	-0.108789
H278	H	0.943590	0.625786	0.391211
N279	N	0.487577	0.000204	-0.033278
N280	N	0.987577	0.500204	0.466722
N281	N	0.422894	0.000221	-0.034219
N282	N	0.922894	0.500221	0.465781
H283	H	0.402871	0.000216	-0.080267
H284	H	0.902871	0.500216	0.419733
