data_functionalizedCrystal
_audit_creation_method	'MofGen! by Chris Wilmer'
_symmetry_space_group_name_H-M	'P1'
_symmetry_Int_Tables_number	1
_symmetry_cell_setting	triclinic
loop_
_symmetry_equiv_pos_as_xyz
  x,y,z
_cell_length_a	19.188930
_cell_length_b	15.538191
_cell_length_c	14.185569
_cell_angle_alpha	97.872928
_cell_angle_beta	76.904313
_cell_angle_gamma	65.208439
loop_
_atom_site_label
_atom_site_type_symbol
_atom_site_fract_x
_atom_site_fract_y
_atom_site_fract_z
O1	O	-0.875228	-0.139249	-0.083712
O2	O	-0.375228	0.360751	0.416288
O3	O	-0.667954	-0.155079	-0.083640
O4	O	-0.167954	0.344921	0.416360
O5	O	-0.811938	-0.009873	-0.083695
O6	O	-0.311938	0.490127	0.416305
O7	O	-0.731245	-0.284455	-0.083657
O8	O	-0.231245	0.215545	0.416343
O9	O	-0.854470	0.033017	0.083124
O10	O	-0.354470	0.533017	0.583124
O11	O	-0.710487	-0.112188	0.083178
O12	O	-0.210487	0.387812	0.583178
O13	O	-0.917761	-0.096359	0.083107
O14	O	-0.417761	0.403641	0.583107
Cu15	Cu	-0.818007	-0.100357	0.098374
Cu16	Cu	-0.318007	0.399643	0.598374
Cu17	Cu	-0.767708	-0.151080	-0.098908
Cu18	Cu	-0.267708	0.348920	0.401092
O19	O	-0.773778	-0.241564	0.083161
O20	O	-0.273778	0.258436	0.583161
C21	C	-0.841646	0.046701	-0.000292
C22	C	-0.341646	0.546701	0.499708
C23	C	-0.866792	0.151373	-0.000310
C24	C	-0.366792	0.651373	0.499690
C25	C	-0.663341	-0.133118	-0.000222
C26	C	-0.163341	0.366882	0.499778
C27	C	-0.586230	-0.131571	-0.000196
C28	C	-0.086230	0.368429	0.499804
C29	C	-0.922374	-0.118320	-0.000313
C30	C	-0.422374	0.381680	0.499687
C31	C	-0.999483	-0.119869	-0.000346
C32	C	-0.499483	0.380131	0.499654
C33	C	-0.519903	-0.216782	-0.000200
C34	C	-0.019903	0.283218	0.499800
C35	C	-0.447440	-0.215338	-0.000212
C36	C	0.052560	0.284662	0.499788
C37	C	-0.441303	-0.128682	-0.000239
C38	C	0.058697	0.371318	0.499761
C39	C	-0.507644	-0.043458	-0.000229
C40	C	-0.007644	0.456542	0.499771
C41	C	-0.580108	-0.044903	-0.000208
C42	C	-0.080108	0.455097	0.499792
N43	N	-0.335472	-0.077050	-0.057064
N44	N	0.164528	0.422950	0.442936
N45	N	-0.266633	-0.075684	-0.057086
N46	N	0.233367	0.424316	0.442914
C47	C	-0.222977	-0.124325	-0.000301
C48	C	0.277023	0.375675	0.499699
N49	N	-0.250754	-0.174400	0.056495
N50	N	0.249246	0.325600	0.556495
N51	N	-0.319598	-0.175770	0.056513
N52	N	0.180402	0.324230	0.556513
C53	C	-0.362732	-0.127106	-0.000261
C54	C	0.137268	0.372894	0.499739
C55	C	-0.078076	-0.207975	-0.000316
C56	C	0.421924	0.292025	0.499684
C57	C	-0.005614	-0.206526	-0.000321
C58	C	0.494386	0.293474	0.499679
C59	C	-0.065818	-0.034646	-0.000348
C60	C	0.434182	0.465354	0.499652
C61	C	-0.138280	-0.036096	-0.000333
C62	C	0.361720	0.463904	0.499667
C63	C	-0.144402	-0.122764	-0.000321
C64	C	0.355598	0.377236	0.499679
C65	C	-0.744069	-0.298139	-0.000244
C66	C	-0.244069	0.201861	0.499756
C67	C	-0.718921	-0.402813	-0.000232
C68	C	-0.218921	0.097187	0.499768
N69	N	-0.853391	-0.064681	0.237132
N70	N	-0.353391	0.435319	0.737132
C71	C	-0.616954	0.438162	-0.000203
C72	C	-0.116954	0.938162	0.499797
C73	C	-0.640603	0.536524	-0.000209
C74	C	-0.140603	1.036524	0.499791
C75	C	-0.773620	0.559503	-0.000255
C76	C	-0.273620	1.059503	0.499745
C77	C	-0.749981	0.461140	-0.000254
C78	C	-0.249981	0.961140	0.499746
C79	C	-0.671647	0.400477	-0.000227
C80	C	-0.171647	0.900477	0.499773
C81	C	-0.804674	0.423455	-0.000278
C82	C	-0.304674	0.923455	0.499722
C83	C	-0.781038	0.325102	-0.000272
C84	C	-0.281038	0.825102	0.499728
C85	C	-0.702708	0.264434	-0.000241
C86	C	-0.202708	0.764434	0.499759
C87	C	-0.648011	0.302124	-0.000220
C88	C	-0.148011	0.802124	0.499780
C89	C	-0.883009	0.484121	-0.000298
C90	C	-0.383009	0.984121	0.499702
C91	C	-0.937702	0.446436	-0.000322
C92	C	-0.437702	0.946436	0.499678
C93	C	-0.914064	0.348080	-0.000323
C94	C	-0.414064	0.848080	0.499677
C95	C	-0.835735	0.287412	-0.000293
C96	C	-0.335735	0.787412	0.499707
C97	C	-0.968761	0.310389	-0.000344
C98	C	-0.468761	0.810389	0.499656
C99	C	-0.945125	0.212036	-0.000338
C100	C	-0.445125	0.712036	0.499662
C101	C	-0.812099	0.189058	-0.000286
C102	C	-0.312099	0.689058	0.499714
N103	N	-0.732332	-0.186749	-0.237666
N104	N	-0.232332	0.313251	0.262334
C105	C	-0.628385	-0.291525	0.604867
C106	C	-0.128385	0.208475	1.104867
C107	C	-0.655191	-0.264507	0.709878
C108	C	-0.155191	0.235493	1.209878
C109	C	-0.782695	-0.135975	0.709791
C110	C	-0.282695	0.364025	1.209791
C111	C	-0.755899	-0.162979	0.604778
C112	C	-0.255899	0.337021	1.104778
C113	C	-0.678743	-0.240756	0.552324
C114	C	-0.178743	0.259244	1.052324
C115	C	-0.806257	-0.112210	0.552235
C116	C	-0.306257	0.387790	1.052235
C117	C	-0.779464	-0.139215	0.447230
C118	C	-0.279464	0.360785	0.947230
C119	C	-0.702312	-0.216991	0.394769
C120	C	-0.202312	0.283009	0.894769
C121	C	-0.651950	-0.267761	0.447319
C122	C	-0.151950	0.232239	0.947319
C123	C	-0.883414	-0.034438	0.604690
C124	C	-0.383414	0.465562	1.104690
C125	C	-0.933772	0.016332	0.552147
C126	C	-0.433772	0.516332	1.052147
C127	C	-0.906977	-0.010669	0.447141
C128	C	-0.406977	0.489331	0.947141
C129	C	-0.829826	-0.088445	0.394680
C130	C	-0.329826	0.411555	0.894680
C131	C	-0.957339	0.040101	0.394590
C132	C	-0.457339	0.540101	0.894590
C133	C	-0.930546	0.013096	0.289586
C134	C	-0.430546	0.513096	0.789586
C135	C	-0.803033	-0.115450	0.289675
C136	C	-0.303033	0.384550	0.789675
H137	H	-0.524881	-0.287355	-0.000193
H138	H	-0.024881	0.212645	0.499807
H139	H	-0.596063	0.567205	-0.000174
H140	H	-0.096063	1.067205	0.499826
Cl141	Cl	-1.030766	0.114103	0.618096
Cl142	Cl	-0.530766	0.614103	1.118096
H143	H	-0.060807	0.035894	-0.000432
H144	H	0.439193	0.535894	0.499568
Cl145	Cl	-0.706030	-0.213220	0.223729
Cl146	Cl	-0.206030	0.286780	0.723729
Cl147	Cl	-0.663495	0.062229	-0.000203
Cl148	Cl	-0.163495	0.562229	0.499797
H149	H	-0.683467	0.184350	-0.000231
H150	H	-0.183467	0.684350	0.499769
H151	H	-0.905227	-0.012456	0.690192
H152	H	-0.405227	0.487544	1.190192
H153	H	-0.393427	-0.284728	-0.000212
H154	H	0.106573	0.215272	0.499788
H155	H	-0.902248	0.564204	-0.000312
H156	H	-0.402248	1.064204	0.499688
H157	H	-0.989662	0.181354	-0.000356
H158	H	-0.489662	0.681354	0.499644
H159	H	-0.502639	0.027094	-0.000265
H160	H	-0.002639	0.527094	0.499735
Cl161	Cl	-0.085779	-0.316925	-0.000291
Cl162	Cl	0.414221	0.183075	0.499709
H163	H	0.048391	-0.275916	-0.000318
H164	H	0.548391	0.224084	0.499682
Cl165	Cl	-0.221666	0.071032	-0.000334
Cl166	Cl	0.278334	0.571032	0.499666
Cl167	Cl	-0.668631	-0.250945	0.262761
Cl168	Cl	-0.168631	0.249055	0.762761
Cl169	Cl	-0.554948	-0.365531	0.381373
Cl170	Cl	-0.054948	0.134469	0.881373
Cl171	Cl	-0.993857	0.076920	0.223530
Cl172	Cl	-0.493857	0.576920	0.723530
Cl173	Cl	-0.591872	-0.328346	0.775925
Cl174	Cl	-0.091872	0.171654	1.275925
Cl175	Cl	-0.549530	0.225852	-0.000196
Cl176	Cl	-0.049530	0.725852	0.499804
H177	H	-0.565555	-0.354852	0.562157
H178	H	-0.065555	0.145148	1.062157
Cl179	Cl	-0.879689	-0.038204	0.775740
Cl180	Cl	-0.379689	0.461796	1.275740
Cl181	Cl	-1.054336	0.137865	0.460543
Cl182	Cl	-0.554336	0.637865	0.960543
Cl183	Cl	-1.067238	0.386667	-0.000359
Cl184	Cl	-0.567238	0.886667	0.499641
H185	H	-0.553166	0.388764	-0.000188
H186	H	-0.053166	0.888764	0.499812
Cl187	Cl	-0.872094	0.635775	-0.000281
Cl188	Cl	-0.372094	1.135775	0.499719
H189	H	-0.748310	0.139661	-0.000272
H190	H	-0.248310	0.639661	0.499728
H191	H	-1.001482	0.495842	-0.000340
H192	H	-0.501482	0.995842	0.499660
