data_functionalizedCrystal
_audit_creation_method	'MofGen! by Chris Wilmer'
_symmetry_space_group_name_H-M	'P1'
_symmetry_Int_Tables_number	1
_symmetry_cell_setting	triclinic
loop_
_symmetry_equiv_pos_as_xyz
  x,y,z
_cell_length_a	18.050591
_cell_length_b	19.121063
_cell_length_c	18.050591
_cell_angle_alpha	87.585417
_cell_angle_beta	90.011897
_cell_angle_gamma	92.465257
loop_
_atom_site_label
_atom_site_type_symbol
_atom_site_fract_x
_atom_site_fract_y
_atom_site_fract_z
Zn1	Zn	1.122608	-0.279733	0.432629
Zn2	Zn	1.622608	0.220267	0.932629
Zn3	Zn	1.117241	-0.397178	0.313729
Zn4	Zn	1.617241	0.102822	0.813729
Zn5	Zn	0.998447	-0.279736	0.308441
Zn6	Zn	1.498447	0.220264	0.808441
Zn7	Zn	0.993079	-0.397140	0.437863
Zn8	Zn	1.493079	0.102860	0.937863
O9	O	1.057844	-0.338447	0.373165
O10	O	1.557844	0.161553	0.873165
O11	O	1.225820	-0.295327	0.416880
O12	O	1.725820	0.204673	0.916880
O13	O	1.101482	-0.381616	0.209104
O14	O	1.601482	0.118384	0.709104
O15	O	1.019410	-0.181451	0.320512
O16	O	1.519410	0.318549	0.820512
O17	O	1.221877	-0.381613	0.329524
O18	O	1.721877	0.118387	0.829524
O19	O	1.110630	-0.181449	0.411752
O20	O	1.610630	0.318551	0.911752
O21	O	1.014205	-0.295332	0.205218
O22	O	1.514205	0.204668	0.705218
O23	O	0.893811	-0.295296	0.325586
O24	O	1.393811	0.204704	0.825586
O25	O	1.010262	-0.381549	0.541092
O26	O	1.510262	0.118451	1.041092
O27	O	0.889867	-0.381552	0.420672
O28	O	1.389867	0.118448	0.920672
O29	O	1.105426	-0.295291	0.537247
O30	O	1.605426	0.204709	1.037247
O31	O	1.096278	-0.495457	0.334599
O32	O	1.596278	0.004543	0.834599
O33	O	1.005057	-0.495430	0.425799
O34	O	1.505057	0.004570	0.925799
C35	C	0.864893	-0.338421	0.373123
C36	C	1.364893	0.161579	0.873123
C37	C	0.782347	-0.338426	0.373123
C38	C	1.282347	0.161574	0.873123
C39	C	1.049523	-0.520928	0.381357
C40	C	1.549523	-0.020928	0.881357
C41	C	1.046031	-0.598994	0.384886
C42	C	1.546031	-0.098994	0.884886
C43	C	0.585021	-0.291466	0.321528
C44	C	1.085021	0.208534	0.821528
C45	C	0.532715	-0.355526	0.306137
C46	C	1.032715	0.144474	0.806137
C47	C	0.631215	-0.338448	0.373158
C48	C	1.131215	0.161552	0.873158
C49	C	0.536439	-0.274410	0.388548
C50	C	1.036439	0.225590	0.888548
C51	C	0.485230	-0.338463	0.373190
C52	C	0.985230	0.161537	0.873190
C53	C	0.579995	-0.402541	0.357733
C54	C	1.079995	0.097459	0.857733
C55	C	0.583725	-0.321382	0.440174
C56	C	1.083725	0.178618	0.940174
C57	C	0.531439	-0.385487	0.424811
C58	C	1.031439	0.114513	0.924811
C59	C	0.715314	-0.338438	0.373138
C60	C	1.215314	0.161562	0.873138
C61	C	0.401132	-0.338479	0.373210
C62	C	0.901132	0.161521	0.873210
C63	C	1.091921	-0.635660	0.339100
C64	C	1.591921	-0.135660	0.839100
C65	C	1.088642	-0.709012	0.342423
C66	C	1.588642	-0.209012	0.842423
C67	C	1.039467	-0.745695	0.391530
C68	C	1.539467	-0.245695	0.891530
C69	C	0.993575	-0.709024	0.437321
C70	C	1.493575	-0.209024	0.937321
C71	C	0.996859	-0.635674	0.434000
C72	C	1.496859	-0.135674	0.934000
C73	C	1.027178	-0.967166	0.403932
C74	C	1.527178	-0.467166	0.903932
C75	C	1.023896	-1.040521	0.407247
C76	C	1.523896	-0.540521	0.907247
C77	C	1.118963	-1.040504	0.312350
C78	C	1.618963	-0.540504	0.812350
C79	C	1.122240	-0.967152	0.309031
C80	C	1.622240	-0.467152	0.809031
C81	C	1.076350	-0.930487	0.354825
C82	C	1.576350	-0.430487	0.854825
C83	C	1.036112	-0.820672	0.394926
C84	C	1.536112	-0.320672	0.894926
C85	C	1.079710	-0.855512	0.351432
C86	C	1.579710	-0.355512	0.851432
C87	C	1.251548	-0.338474	0.373208
C88	C	1.751548	0.161526	0.873208
C89	C	1.334093	-0.338485	0.373227
C90	C	1.834093	0.161515	0.873227
C91	C	1.057844	-0.338416	0.566870
C92	C	1.557844	0.161584	1.066870
C93	C	1.057844	-0.338402	0.649415
C94	C	1.557844	0.161598	1.149415
C95	C	1.066217	-0.155253	0.364958
C96	C	1.566217	0.344747	0.864958
C97	C	1.069786	-0.077187	0.361461
C98	C	1.569786	0.422813	0.861461
C99	C	1.109607	-0.291517	0.846776
C100	C	1.609607	0.208483	1.346776
C101	C	1.042640	-0.274334	0.895389
C102	C	1.542640	0.225666	1.395389
C103	C	1.057846	-0.338424	0.800546
C104	C	1.557846	0.161576	1.300546
C105	C	1.124815	-0.355596	0.899013
C106	C	1.624815	0.144404	1.399013
C107	C	1.057854	-0.338444	0.946532
C108	C	1.557854	0.161556	1.446532
C109	C	0.990844	-0.321208	0.848071
C110	C	1.490844	0.178792	1.348071
C111	C	1.073063	-0.402499	0.851692
C112	C	1.573063	0.097501	1.351692
C113	C	1.006048	-0.385341	0.900285
C114	C	1.506048	0.114659	1.400285
C115	C	1.057842	-0.338411	0.716447
C116	C	1.557842	0.161589	1.216447
C117	C	1.057850	-0.338457	1.030629
C118	C	1.557850	0.161543	1.530629
C119	C	1.057842	-0.338484	1.180215
C120	C	1.557842	0.161516	1.680215
C121	C	1.057855	-0.338468	1.097668
C122	C	1.557855	0.161532	1.597668
H123	H	0.608476	-0.251778	0.277822
H124	H	1.108476	0.248222	0.777822
H125	H	0.983861	-1.070386	0.447248
H126	H	1.483861	-0.570386	0.947248
O127	O	0.510970	-0.202669	0.405785
O128	O	1.010970	0.297331	0.905785
H129	H	0.532496	-0.163765	0.362838
H130	H	1.032496	0.336235	0.862838
H131	H	0.962230	-0.425017	0.923575
H132	H	1.462230	0.074983	1.423575
O133	O	0.503059	-0.374664	0.231089
O134	O	1.003059	0.125336	0.731089
H135	H	0.524576	-0.335584	0.188312
H136	H	1.024576	0.164416	0.688312
O137	O	1.175270	-0.927583	0.256062
O138	O	1.675270	-0.427583	0.756062
H139	H	1.214520	-0.894110	0.287821
H140	H	1.714520	-0.394110	0.787821
O141	O	1.167523	-0.238941	0.815717
O142	O	1.667523	0.261059	1.315717
H143	H	1.167349	-0.239768	0.754270
H144	H	1.667349	0.260232	1.254270
H145	H	1.156325	-1.070365	0.275069
H146	H	1.656325	-0.570365	0.775069
O147	O	1.090142	-0.474239	0.826100
O148	O	1.590142	0.025761	1.326100
H149	H	1.145787	-0.488366	0.846479
H150	H	1.645787	0.011634	1.346479
O151	O	1.199830	-0.374824	0.928618
O152	O	1.699830	0.125176	1.428618
H153	H	1.198991	-0.375137	0.990116
H154	H	1.698991	0.124863	1.490116
O155	O	0.977663	-0.927623	0.453298
O156	O	1.477663	-0.427623	0.953298
H157	H	0.942906	-0.965456	0.487988
H158	H	1.442906	-0.465456	0.987988
O159	O	0.605333	-0.474306	0.340409
O160	O	1.105333	0.025694	0.840409
H161	H	0.666847	-0.473728	0.340500
H162	H	1.166847	0.026272	0.840500
H163	H	0.953540	-0.738897	0.477307
H164	H	1.453540	-0.238897	0.977307
H165	H	1.029768	-0.220156	0.914679
H166	H	1.529768	0.279844	1.414679
O167	O	0.915811	-0.301887	0.818593
O168	O	1.415811	0.198113	1.318593
H169	H	0.916407	-0.302002	0.757110
H170	H	1.416407	0.197998	1.257110
O171	O	0.500526	-0.438178	0.482662
O172	O	1.000526	0.061822	0.982662
H173	H	0.517993	-0.491267	0.469719
H174	H	1.017993	0.008733	0.969719
O175	O	0.613407	-0.302226	0.515201
O176	O	1.113407	0.197774	1.015201
H177	H	0.596087	-0.249014	0.527837
H178	H	1.096087	0.250986	1.027837
H179	H	1.126010	-0.738863	0.305139
H180	H	1.626010	-0.238863	0.805139
O181	O	1.144966	-0.596093	0.286143
O182	O	1.644966	-0.096093	0.786143
H183	H	1.131656	-0.610213	0.228480
H184	H	1.631656	-0.110213	0.728480
O185	O	0.947356	-0.596120	0.483374
O186	O	1.447356	-0.096120	0.983374
H187	H	0.912602	-0.633950	0.518072
H188	H	1.412602	-0.133950	1.018072
H189	H	1.119750	-0.825642	0.311452
H190	H	1.619750	-0.325642	0.811452
H191	H	0.996073	-0.850548	0.434907
H192	H	1.496073	-0.350548	0.934907
