data_functionalizedCrystal
_audit_creation_method	'MofGen! by Chris Wilmer'
_symmetry_space_group_name_H-M	'P1'
_symmetry_Int_Tables_number	1
_symmetry_cell_setting	triclinic
loop_
_symmetry_equiv_pos_as_xyz
  x,y,z
_cell_length_a	23.532355
_cell_length_b	15.944499
_cell_length_c	15.021413
_cell_angle_alpha	90.007263
_cell_angle_beta	89.998558
_cell_angle_gamma	83.152554
loop_
_atom_site_label
_atom_site_type_symbol
_atom_site_fract_x
_atom_site_fract_y
_atom_site_fract_z
O1	O	0.755663	0.101748	-0.073905
O2	O	0.589851	0.116548	-0.073932
O3	O	0.677301	-0.013169	-0.073919
O4	O	0.668214	0.231465	-0.073918
O5	O	0.677287	-0.013151	0.074145
O6	O	0.589837	0.116566	0.074132
O7	O	0.755649	0.101767	0.074159
Zn8	Zn	0.672741	0.109169	0.097654
Zn9	Zn	0.672759	0.109145	-0.097427
O10	O	0.668200	0.231484	0.074146
C11	C	0.568626	0.116187	0.000096
C12	C	0.505403	0.115075	0.000085
C13	C	0.676922	-0.044452	0.000110
C14	C	0.675806	-0.137690	0.000103
C15	C	0.726612	-0.429668	0.000117
C16	C	0.700195	-0.368404	0.073119
C17	C	0.671754	-0.473292	0.000113
C18	C	0.700194	-0.368429	-0.072861
C19	C	0.673748	-0.308400	0.000107
C20	C	0.645322	-0.413255	0.073176
C21	C	0.645329	-0.413286	-0.072870
C22	C	0.618872	-0.352039	0.000150
C23	C	0.670607	-0.568282	0.000117
C24	C	0.674891	-0.213411	0.000109
C25	C	0.113356	0.108097	0.080832
C26	C	0.053952	0.107038	0.080836
O27	O	0.023225	0.106471	0.149475
N28	N	0.024250	0.106504	0.000126
C29	C	0.053954	0.107018	-0.080592
O30	O	0.023235	0.106466	-0.149241
C31	C	0.113357	0.108071	-0.080594
C32	C	0.143056	0.108614	0.000120
C33	C	0.143055	0.108639	0.161541
C34	C	0.202454	0.109699	0.161537
C35	C	0.232154	0.110216	0.080825
C36	C	0.202455	0.109674	0.000117
C37	C	0.143061	0.108579	-0.161312
C38	C	0.202468	0.109631	-0.161307
C39	C	0.232167	0.110174	-0.080593
C40	C	0.291554	0.111251	-0.080599
N41	N	0.321257	0.111785	0.000110
C42	C	0.291557	0.111268	0.080822
C43	C	-0.070796	0.104807	-0.080581
C44	C	-0.130198	0.103761	-0.080579
C45	C	-0.130195	0.103780	0.080849
C46	C	-0.070793	0.104832	0.080847
C47	C	-0.041093	0.105342	0.000129
C48	C	0.416299	0.113494	0.080808
C49	C	0.475703	0.114557	0.080797
C50	C	0.475696	0.114534	-0.080630
C51	C	0.416297	0.113476	-0.080620
C52	C	0.386600	0.112953	0.000107
O53	O	0.322319	0.111815	-0.149204
O54	O	0.322284	0.111810	0.149460
C55	C	0.776874	0.102127	0.000129
C56	C	0.840097	0.103240	0.000134
C57	C	0.668579	0.262766	0.000114
C58	C	0.669694	0.356005	0.000116
N59	N	0.672733	0.109185	0.230791
N60	N	0.672772	0.109122	-0.230565
C61	C	0.632290	0.169139	0.470469
C62	C	0.683750	0.184998	0.529812
C63	C	0.672747	0.109164	0.412398
C64	C	0.621301	0.093323	0.529797
C65	C	0.672757	0.109146	0.587822
C66	C	0.724233	0.125062	0.470435
C67	C	0.661751	0.033354	0.470415
C68	C	0.713248	0.049181	0.529731
C69	C	0.672741	0.109177	0.311341
C70	C	0.672769	0.109132	0.688878
H71	H	0.772139	-0.463394	0.000194
Cl72	Cl	0.736040	-0.337748	-0.168138
Cl73	Cl	0.239801	0.110271	-0.262788
H74	H	-0.154375	0.103333	-0.146305
H75	H	-0.154388	0.103357	0.146569
H76	H	0.767754	0.138529	0.444470
Cl77	Cl	0.554124	0.072647	0.570057
Cl78	Cl	0.513035	0.115243	0.182275
H79	H	0.723393	-0.348508	0.134843
Cl80	Cl	0.609521	-0.443777	0.168566
H81	H	0.118890	0.108136	-0.227039
Cl82	Cl	0.378976	0.112837	0.182294
H83	H	0.392113	0.113047	-0.146344
Cl84	Cl	0.239782	0.110375	0.263013
Cl85	Cl	0.609543	-0.444044	-0.168171
Cl86	Cl	0.548520	-0.300201	0.000195
Cl87	Cl	0.105728	0.107994	0.263021
Cl88	Cl	0.766132	-0.029140	0.569661
H89	H	-0.046619	0.105231	-0.146315
Cl90	Cl	-0.033463	0.105512	0.182320
Cl91	Cl	0.513045	0.115180	-0.182091
H92	H	0.652425	-0.030728	0.444305
H93	H	0.598111	0.219897	0.444448
Cl94	Cl	0.698125	0.283966	0.570094
