data_functionalizedCrystal
_audit_creation_method	'MofGen! by Chris Wilmer'
_symmetry_space_group_name_H-M	'P1'
_symmetry_Int_Tables_number	1
_symmetry_cell_setting	triclinic
loop_
_symmetry_equiv_pos_as_xyz
  x,y,z
_cell_length_a	14.044220
_cell_length_b	14.044190
_cell_length_c	13.101039
_cell_angle_alpha	93.663707
_cell_angle_beta	86.340132
_cell_angle_gamma	93.190328
loop_
_atom_site_label
_atom_site_type_symbol
_atom_site_fract_x
_atom_site_fract_y
_atom_site_fract_z
O1	O	1.281975	0.225348	-0.085126
O2	O	1.781975	0.725348	0.414874
O3	O	1.005305	0.217041	-0.085151
O4	O	1.505305	0.717041	0.414849
O5	O	1.139483	0.082859	-0.085118
O6	O	1.639483	0.582859	0.414882
O7	O	1.147797	0.359530	-0.085158
O8	O	1.647797	0.859530	0.414842
O9	O	1.129857	0.092504	0.085309
O10	O	1.629857	0.592504	0.585309
O11	O	0.995679	0.226686	0.085277
O12	O	1.495679	0.726686	0.585277
O13	O	1.272349	0.234993	0.085302
O14	O	1.772349	0.734993	0.585302
Zn15	Zn	1.132486	0.232371	0.112348
Zn16	Zn	1.632486	0.732371	0.612348
Zn17	Zn	1.145168	0.219663	-0.112197
Zn18	Zn	1.645168	0.719663	0.387803
O19	O	1.138172	0.369174	0.085270
O20	O	1.638172	0.869174	0.585270
C21	C	0.964870	0.218228	0.000060
C22	C	1.464870	0.718228	0.500060
C23	C	0.858728	0.207382	0.000051
C24	C	1.358728	0.707382	0.500051
C25	C	0.664388	0.187557	0.000075
C26	C	1.164388	0.687557	0.500075
C27	C	0.613261	0.264472	0.000068
C28	C	1.113261	0.764472	0.500068
C29	C	0.505123	0.253441	0.000081
C30	C	1.005123	0.753441	0.500081
C31	C	0.772535	0.198587	0.000062
C32	C	1.272535	0.698587	0.500062
C33	C	1.131033	0.052060	0.000098
C34	C	1.631033	0.552060	0.500098
C35	C	1.120185	-0.054083	0.000106
C36	C	1.620185	0.445917	0.500106
C37	C	1.177288	-0.299543	0.000071
C38	C	1.677288	0.200457	0.500071
C39	C	1.100371	-0.248418	0.000071
C40	C	1.600371	0.251582	0.500071
C41	C	1.111398	-0.140280	0.000091
C42	C	1.611398	0.359720	0.500091
C43	C	1.166262	-0.407691	0.000052
C44	C	1.666262	0.092309	0.500052
C45	C	1.312784	0.233806	0.000089
C46	C	1.812784	0.733806	0.500089
C47	C	1.418927	0.244651	0.000091
C48	C	1.918927	0.744651	0.500091
C49	C	1.146621	0.399974	0.000051
C50	C	1.646621	0.899974	0.500051
C51	C	1.157470	0.506116	0.000036
C52	C	1.657470	1.006116	0.500036
N53	N	1.123838	0.241043	0.265595
N54	N	1.623838	0.741043	0.765595
N55	N	1.153824	0.210984	-0.265444
N56	N	1.653824	0.710984	0.234556
C57	C	1.112072	0.252851	0.474635
C58	C	1.612072	0.752851	0.974635
C59	C	1.165586	0.199179	0.525523
C60	C	1.665586	0.699179	1.025523
C61	C	1.159040	0.205749	0.641840
C62	C	1.659040	0.705749	1.141840
C63	C	1.118618	0.246282	0.358307
C64	C	1.618618	0.746282	0.858307
H65	H	0.626948	0.113431	0.000091
H66	H	1.126948	0.613431	0.500091
O67	O	1.051419	0.313448	0.526822
O68	O	1.551419	0.813448	1.026822
C69	C	0.888411	0.357425	0.559867
C70	C	1.388411	0.857425	1.059867
C71	C	0.956987	0.288720	0.500702
C72	C	1.456987	0.788720	1.000702
H73	H	0.812051	0.337470	0.538755
H74	H	1.312051	0.837470	1.038755
H75	H	0.893769	0.351966	0.645740
H76	H	1.393769	0.851966	1.145740
H77	H	0.908663	0.433755	0.538852
H78	H	1.408663	0.933755	1.038852
H79	H	0.936781	0.212361	0.521631
H80	H	1.436781	0.712361	1.021631
H81	H	0.951618	0.294262	0.414844
H82	H	1.451618	0.794262	0.914844
O83	O	0.658076	0.352840	-0.000022
O84	O	1.158076	0.852840	0.499978
C85	C	0.808282	0.444549	-0.000049
C86	C	1.308282	0.944549	0.499951
C87	C	0.757647	0.344422	0.000046
C88	C	1.257647	0.844422	0.500046
H89	H	0.888792	0.437778	0.000028
H90	H	1.388792	0.937778	0.500028
H91	H	0.790832	0.480954	-0.071406
H92	H	1.290832	0.980954	0.428594
H93	H	0.782694	0.489052	0.071241
H94	H	1.282694	0.989052	0.571241
H95	H	0.783206	0.299842	-0.071196
H96	H	1.283206	0.799842	0.428804
H97	H	0.775095	0.308092	0.071450
H98	H	1.275095	0.808092	0.571450
H99	H	1.026240	-0.285862	0.000059
H100	H	1.526240	0.214138	0.500059
H101	H	1.251413	-0.262101	0.000088
H102	H	1.751413	0.237899	0.500088
H103	H	1.216319	0.148295	0.481733
H104	H	1.716319	0.648295	0.981733
