data_functionalizedCrystal
_audit_creation_method	'MofGen! by Chris Wilmer'
_symmetry_space_group_name_H-M	'P1'
_symmetry_Int_Tables_number	1
_symmetry_cell_setting	triclinic
loop_
_symmetry_equiv_pos_as_xyz
  x,y,z
_cell_length_a	19.188930
_cell_length_b	19.188925
_cell_length_c	9.198806
_cell_angle_alpha	90.001285
_cell_angle_beta	90.011901
_cell_angle_gamma	83.143665
loop_
_atom_site_label
_atom_site_type_symbol
_atom_site_fract_x
_atom_site_fract_y
_atom_site_fract_z
O1	O	-0.087152	-0.926143	-0.120940
O2	O	-0.098890	-0.722831	-0.120938
O3	O	0.008635	-0.830354	-0.120911
O4	O	-0.194677	-0.818620	-0.120967
O5	O	0.008643	-0.830354	0.120874
O6	O	-0.098882	-0.722831	0.120847
O7	O	-0.087144	-0.926142	0.120845
Cu8	Cu	-0.093012	-0.824487	0.142923
Cu9	Cu	-0.093022	-0.824487	-0.143016
O10	O	-0.194668	-0.818619	0.120818
C11	C	0.034650	-0.829974	-0.000014
C12	C	0.112154	-0.828833	-0.000002
C13	C	-0.098507	-0.696820	-0.000045
C14	C	-0.097367	-0.619315	-0.000043
C15	C	-0.220684	-0.819000	-0.000082
C16	C	-0.298188	-0.820140	-0.000104
C17	C	0.157079	-0.891924	0.000005
C18	C	0.229903	-0.890852	-0.000018
C19	C	0.257799	-0.826686	-0.000019
C20	C	0.212864	-0.763587	-0.000033
C21	C	0.140041	-0.764660	-0.000025
N22	N	0.365806	-0.777639	0.082266
N23	N	0.434984	-0.776623	0.082260
C24	C	0.477207	-0.823448	-0.000048
N25	N	0.447640	-0.871337	-0.082333
N26	N	0.378455	-0.872355	-0.082322
C27	C	0.336761	-0.825515	-0.000029
C28	C	0.601097	-0.885381	-0.000069
C29	C	0.673922	-0.884307	-0.000101
C30	C	0.656880	-0.757040	-0.000102
C31	C	0.584057	-0.758116	-0.000084
C32	C	0.556170	-0.822289	-0.000061
C33	C	-0.087527	-0.952154	-0.000051
C34	C	-0.088666	-1.029658	-0.000063
C35	C	-0.152831	-0.057545	-0.000062
C36	C	-0.153908	-0.130368	-0.000070
C37	C	-0.090816	-0.175302	-0.000050
C38	C	-0.026642	-0.147408	-0.000059
C39	C	-0.025568	-0.074586	-0.000065
N40	N	-0.045137	-0.295979	0.082268
N41	N	-0.046162	-0.365157	0.082277
C42	C	-0.094050	-0.394712	-0.000034
N43	N	-0.140884	-0.352474	-0.082336
N44	N	-0.139861	-0.283290	-0.082339
C45	C	-0.091974	-0.254267	-0.000044
C46	C	-0.159386	-0.501561	-0.000044
C47	C	-0.160460	-0.574385	-0.000061
C48	C	-0.033193	-0.591425	-0.000035
C49	C	-0.032121	-0.518601	-0.000033
C50	C	-0.095220	-0.473673	-0.000030
N51	N	-0.093024	-0.824487	-0.344130
C52	C	-0.138164	-0.779160	-0.583778
C53	C	-0.138175	-0.779157	-0.416365
N54	N	-0.093004	-0.824491	0.344037
H55	H	0.134379	-0.944179	0.000019
H56	H	0.266488	-0.942230	-0.000019
F57	F	0.536242	-0.690965	-0.000085
F58	F	0.242553	-0.695297	-0.000043
F59	F	0.092227	-0.697507	-0.000032
H60	H	-0.054352	-0.863303	-0.593825
F61	F	-0.042476	-0.875210	-0.425255
H62	H	0.578390	-0.937635	-0.000057
H63	H	-0.204211	-0.020968	-0.000067
F64	F	0.040505	-0.195232	-0.000043
H65	H	-0.206160	-0.153078	-0.000056
H66	H	0.710500	-0.935686	-0.000104
H67	H	0.679592	-0.704794	-0.000110
H68	H	0.026685	-0.051883	-0.000066
H69	H	0.020129	-0.495896	-0.000024
H70	H	-0.210765	-0.464978	-0.000044
H71	H	-0.212713	-0.597088	-0.000072
H72	H	-0.176822	-0.740353	-0.645914
F73	F	0.033955	-0.639242	-0.000032
H74	H	-0.176835	-0.740344	-0.354289
