data_functionalizedCrystal
_audit_creation_method	'MofGen! by Chris Wilmer'
_symmetry_space_group_name_H-M	'P1'
_symmetry_Int_Tables_number	1
_symmetry_cell_setting	triclinic
loop_
_symmetry_equiv_pos_as_xyz
  x,y,z
_cell_length_a	16.956995
_cell_length_b	15.944551
_cell_length_c	15.455301
_cell_angle_alpha	86.999247
_cell_angle_beta	86.829328
_cell_angle_gamma	79.776605
loop_
_atom_site_label
_atom_site_type_symbol
_atom_site_fract_x
_atom_site_fract_y
_atom_site_fract_z
O1	O	1.061157	0.037880	-0.072192
O2	O	0.829001	0.067367	-0.072181
O3	O	0.951419	-0.070092	-0.072179
O4	O	0.938740	0.175339	-0.072194
O5	O	0.945176	-0.076225	0.072084
O6	O	0.822759	0.061234	0.072082
O7	O	1.054915	0.031747	0.072072
Cu8	Cu	0.938267	0.045930	0.085249
Cu9	Cu	0.945649	0.053184	-0.085359
O10	O	0.932498	0.169206	0.072069
C11	C	0.796172	0.065811	-0.000048
C12	C	0.707652	0.070299	-0.000043
C13	C	0.208355	0.103881	-0.000078
C14	C	0.291530	0.099657	-0.000077
C15	C	0.342613	0.020366	-0.000065
C16	C	0.310518	-0.054706	-0.000064
C17	C	0.227345	-0.050480	-0.000071
C18	C	0.592384	-0.000547	-0.000049
C19	C	0.675562	-0.004767	-0.000039
C20	C	0.656567	0.149596	-0.000054
C21	C	0.573393	0.153814	-0.000056
C22	C	0.541306	0.078743	-0.000059
N23	N	0.427631	0.016046	-0.000062
N24	N	0.456289	0.083064	-0.000069
C25	C	0.947771	-0.104416	-0.000047
C26	C	0.946193	-0.197552	-0.000046
C27	C	0.866541	-0.406874	-0.000055
C28	C	0.900451	-0.473485	0.071074
C29	C	0.943338	-0.368080	-0.000053
C30	C	0.906624	-0.467423	-0.071158
C31	C	0.940576	-0.532800	-0.000063
C32	C	0.977267	-0.433467	0.071135
C33	C	0.983432	-0.427395	-0.071162
C34	C	1.017397	-0.493993	-0.000016
C35	C	0.944928	-0.273188	-0.000046
C36	C	0.938992	-0.627691	-0.000063
C37	C	1.087744	0.033304	-0.000064
C38	C	1.176265	0.028815	-0.000074
C39	C	0.936145	0.203530	-0.000064
C40	C	0.937724	0.296667	-0.000071
N41	N	0.933080	0.040828	0.205246
N42	N	0.950842	0.058279	-0.205355
C43	C	0.979481	0.086517	0.250631
C44	C	0.975569	0.082652	0.341440
C45	C	0.925252	0.033102	0.386862
C46	C	0.878850	-0.012592	0.341470
C47	C	0.882766	-0.008732	0.250663
C48	C	0.908357	0.016445	0.658446
C49	C	0.904442	0.012590	0.749260
C50	C	1.001163	0.107834	0.749223
C51	C	1.005071	0.111694	0.658414
C52	C	0.958672	0.065996	0.613031
N53	N	0.921250	0.029153	0.479683
N54	N	0.962679	0.069941	0.520211
H55	H	0.352118	-0.119266	-0.000060
C56	C	1.059786	0.165500	0.609258
C57	C	1.099603	0.204669	0.668442
C58	C	1.150019	0.254234	0.623191
H59	H	1.028726	0.207976	0.573834
H60	H	1.098051	0.130070	0.573849
H61	H	1.061343	0.240097	0.703836
H62	H	1.130678	0.162213	0.703868
H63	H	1.188284	0.218804	0.587782
H64	H	1.118952	0.296705	0.587768
H65	H	1.177046	0.280810	0.663340
H66	H	1.038939	0.145037	0.786184
H67	H	0.531806	0.218382	-0.000068
H68	H	0.201220	-0.111607	-0.000069
H69	H	0.865367	-0.493893	0.131211
H70	H	1.007117	-0.418291	0.131334
C71	C	0.866643	-0.487647	-0.151310
C72	C	0.787699	-0.442984	-0.150971
C73	C	0.750842	-0.461579	-0.224795
H74	H	0.866280	-0.547163	-0.151089
H75	H	0.895550	-0.471025	-0.201845
H76	H	0.758799	-0.459612	-0.100450
H77	H	0.788038	-0.383467	-0.151205
H78	H	0.779750	-0.444957	-0.275329
H79	H	0.750486	-0.521096	-0.224567
H80	H	0.697278	-0.431273	-0.224578
C81	C	1.102465	-0.544136	-0.000167
C82	C	1.117716	-0.591729	-0.074749
C83	C	1.196079	-0.637911	-0.074929
H84	H	1.108385	-0.581547	0.049840
H85	H	1.139359	-0.505762	0.000280
H86	H	1.080833	-0.630099	-0.075189
H87	H	1.111813	-0.554339	-0.124769
H88	H	1.232973	-0.599537	-0.074481
H89	H	1.201992	-0.675317	-0.024918
H90	H	1.206440	-0.670202	-0.125535
H91	H	0.844982	-0.045936	0.213712
H92	H	1.018488	-0.406963	-0.131302
C93	C	0.781519	-0.356604	0.000217
C94	C	0.738448	-0.379863	0.074871
C95	C	0.660129	-0.333564	0.075161
H96	H	0.756028	-0.368698	-0.049740
H97	H	0.783102	-0.297318	-0.000253
H98	H	0.736861	-0.439136	0.075333
H99	H	0.763914	-0.367766	0.124841
H100	H	0.661712	-0.274278	0.074691
H101	H	0.634645	-0.345662	0.025200
H102	H	0.630897	-0.349333	0.125816
H103	H	1.020450	0.126871	0.213655
C104	C	0.849791	-0.041296	0.798418
C105	C	0.810013	-0.080507	0.739235
C106	C	0.759672	-0.130158	0.784486
H107	H	0.811499	-0.005942	0.833847
H108	H	0.880926	-0.083747	0.833822
H109	H	0.778880	-0.038062	0.703846
H110	H	0.848285	-0.115876	0.703803
H111	H	0.790807	-0.172608	0.819890
H112	H	0.721384	-0.094797	0.819914
H113	H	0.732682	-0.156774	0.744338
C114	C	1.025975	0.132359	0.390558
C115	C	1.070857	0.176602	0.331344
C116	C	1.117294	0.222413	0.376559
H117	H	1.061213	0.093997	0.425980
H118	H	0.991784	0.171800	0.425967
H119	H	1.105044	0.137165	0.295950
H120	H	1.035639	0.214979	0.295920
H121	H	1.083103	0.261854	0.411968
H122	H	1.152527	0.184044	0.411979
H123	H	1.147746	0.252443	0.336389
H124	H	0.682702	0.210715	-0.000053
C125	C	0.857900	-0.032996	0.609084
C126	C	0.806164	0.023880	0.556958
C127	C	0.759665	-0.021629	0.511468
H128	H	0.827299	-0.063047	0.649056
H129	H	0.892057	-0.072391	0.573598
H130	H	0.772011	0.063260	0.592441
H131	H	0.836744	0.053933	0.516970
H132	H	0.793822	-0.061023	0.475981
H133	H	0.729069	-0.051678	0.551446
H134	H	0.724562	0.016954	0.476089
H135	H	0.566269	-0.061675	-0.000049
H136	H	0.837884	-0.052941	0.378460
H137	H	0.717154	-0.069338	-0.000034
H138	H	0.317653	0.160784	-0.000088
C139	C	0.152850	0.189940	0.000087
C140	C	0.101338	0.193738	0.074313
C141	C	0.050206	0.273008	0.074497
H142	H	0.122115	0.197015	-0.050165
H143	H	0.183847	0.234064	0.000129
H144	H	0.070343	0.149626	0.074263
H145	H	0.132050	0.186678	0.124578
H146	H	0.081203	0.317133	0.074539
H147	H	0.019476	0.280076	0.024241
H148	H	0.015254	0.275599	0.124862
