data_functionalizedCrystal
_audit_creation_method	'MofGen! by Chris Wilmer'
_symmetry_space_group_name_H-M	'P1'
_symmetry_Int_Tables_number	1
_symmetry_cell_setting	triclinic
loop_
_symmetry_equiv_pos_as_xyz
  x,y,z
_cell_length_a	10.654559
_cell_length_b	19.288864
_cell_length_c	9.730223
_cell_angle_alpha	90.016651
_cell_angle_beta	89.999562
_cell_angle_gamma	96.187555
loop_
_atom_site_label
_atom_site_type_symbol
_atom_site_fract_x
_atom_site_fract_y
_atom_site_fract_z
O1	O	0.156646	-0.922376	-0.114732
O2	O	0.177778	-0.720254	-0.114639
O3	O	-0.015626	-0.825959	-0.114677
O4	O	0.350050	-0.816671	-0.114694
O5	O	-0.015615	-0.825952	0.113903
O6	O	0.177789	-0.720247	0.113941
O7	O	0.156657	-0.922369	0.113848
Zn8	Zn	0.167225	-0.821307	0.150186
Zn9	Zn	0.167210	-0.821316	-0.150978
O10	O	0.350061	-0.816664	0.113886
C11	C	0.177104	-0.694369	-0.000337
C12	C	0.175063	-0.617252	-0.000301
N13	N	0.167233	-0.821306	0.355723
C14	C	-0.062404	-0.825272	-0.000387
C15	C	-0.201803	-0.823228	-0.000387
C16	C	-0.398264	-0.820355	-0.125009
C17	C	-0.267283	-0.822274	-0.124995
C18	C	-0.267311	-0.822270	0.124215
C19	C	-0.398290	-0.820356	0.124200
C20	C	-0.398246	-0.820354	-0.268889
C21	C	-0.267266	-0.822273	-0.268875
C22	C	0.396838	-0.817351	-0.000407
C23	C	0.536237	-0.819395	-0.000417
C24	C	0.157331	-0.948253	-0.000458
C25	C	0.159372	-1.025370	-0.000503
C26	C	0.288543	-0.573301	-0.000327
C27	C	0.286626	-0.500842	-0.000343
C28	C	0.171221	-0.472336	-0.000358
C29	C	0.057725	-0.516297	-0.000324
C30	C	0.059646	-0.588755	-0.000295
C31	C	0.080496	-0.363481	-0.080482
C32	C	0.078580	-0.291024	-0.080519
C33	C	0.165291	-0.248852	-0.000441
C34	C	0.253940	-0.279144	0.079657
C35	C	0.255861	-0.351602	0.079685
C36	C	0.169125	-0.393769	-0.000389
C37	C	0.276701	-0.126331	-0.000483
C38	C	0.274778	-0.053870	-0.000489
C39	C	0.045874	-0.069328	-0.000484
C40	C	0.047800	-0.141787	-0.000464
C41	C	0.163217	-0.170284	-0.000469
N42	N	0.167191	-0.821322	-0.356514
C43	C	0.243198	-0.863797	0.427638
C44	C	0.243174	-0.863807	0.571521
C45	C	0.091218	-0.778830	0.571561
C46	C	0.091236	-0.778824	0.427681
C47	C	0.330933	-0.912855	0.427615
C48	C	0.330909	-0.912866	0.571498
H49	H	-0.213987	-0.823053	0.225674
H50	H	0.290312	-0.965177	0.616079
H51	H	0.430309	-0.895761	0.610574
O52	O	0.338302	-0.238287	0.157489
C53	C	0.512385	-0.234159	0.316433
C54	C	0.416939	-0.280513	0.228337
H55	H	0.575970	-0.268281	0.373760
H56	H	0.572422	-0.196154	0.247192
H57	H	0.459353	-0.203722	0.393646
H58	H	0.469869	-0.310995	0.151115
H59	H	0.356904	-0.318474	0.297664
O60	O	-0.050561	-0.631482	-0.000037
C61	C	-0.181193	-0.722266	0.118362
C62	C	-0.056351	-0.673905	0.118263
H63	H	-0.185904	-0.756587	0.213982
H64	H	-0.264059	-0.689484	0.118440
H65	H	-0.186000	-0.756563	0.022666
H66	H	-0.051421	-0.639598	0.213942
H67	H	0.026456	-0.706728	0.118113
O68	O	0.385136	-0.011273	-0.000573
C69	C	0.612375	-0.003592	-0.000515
C70	C	0.487489	-0.051914	-0.000453
H71	H	0.695160	-0.036430	-0.000389
H72	H	0.617275	0.030683	-0.096207
H73	H	0.617140	0.030753	0.095114
H74	H	0.482641	-0.086302	-0.096016
H75	H	0.482642	-0.086142	0.095303
H76	H	-0.445543	-0.868355	-0.324163
H77	H	0.006401	-0.266366	-0.145745
H78	H	-0.238771	-0.872931	-0.313545
O79	O	-0.054411	-0.488644	-0.000102
C80	C	-0.250667	-0.479685	0.118270
C81	C	-0.123700	-0.511033	0.118199
H82	H	-0.306734	-0.497786	0.213890
H83	H	-0.232623	-0.420343	0.118327
H84	H	-0.306677	-0.497757	0.022574
H85	H	-0.067625	-0.493014	0.213878
H86	H	-0.141833	-0.570370	0.118070
O87	O	-0.432033	-0.759901	-0.322219
C88	C	-0.361335	-0.648217	-0.422226
C89	C	-0.322898	-0.716655	-0.361898
H90	H	-0.273120	-0.613228	-0.454297
H91	H	-0.424459	-0.660330	-0.515673
H92	H	-0.414893	-0.620406	-0.341268
H93	H	-0.269292	-0.744500	-0.442755
H94	H	-0.259834	-0.704496	-0.268422
O95	O	-0.210611	-0.765064	-0.334741
C96	C	-0.014705	-0.702193	-0.409153
C97	C	-0.078704	-0.767019	-0.334565
H98	H	0.091954	-0.703745	-0.409010
H99	H	-0.050139	-0.701656	-0.519661
H100	H	-0.038558	-0.653156	-0.353917
H101	H	-0.054878	-0.816091	-0.389686
H102	H	-0.043266	-0.767495	-0.224054
H103	H	0.370680	-0.149535	-0.000467
O104	O	0.400741	-0.600893	-0.000509
C105	C	0.596929	-0.609895	-0.118985
C106	C	0.469920	-0.578591	-0.118934
H107	H	0.652885	-0.591888	-0.214735
H108	H	0.653082	-0.591788	-0.023402
H109	H	0.578802	-0.669232	-0.118895
H110	H	0.487932	-0.519252	-0.119073
H111	H	0.413807	-0.596753	-0.214509
H112	H	0.298904	-0.967633	0.388526
O113	O	-0.461716	-0.819402	0.245352
C114	C	-0.447929	-0.819655	0.492535
C115	C	-0.375940	-0.820720	0.355425
H116	H	-0.378614	-0.820735	0.581566
H117	H	-0.497458	-0.770228	0.498889
H118	H	-0.521040	-0.867270	0.498648
H119	H	-0.302770	-0.773139	0.349221
H120	H	-0.326498	-0.870179	0.349130
O121	O	0.396782	-0.458065	-0.000560
C122	C	0.527457	-0.367346	-0.119087
C123	C	0.402649	-0.415736	-0.118992
H124	H	0.532253	-0.333121	-0.214843
H125	H	0.532308	-0.332962	-0.023510
H126	H	0.610257	-0.400174	-0.119017
H127	H	0.319778	-0.382963	-0.119110
H128	H	0.397908	-0.450123	-0.214561
H129	H	0.328039	-0.376263	0.144908
O130	O	-0.066122	-0.041532	-0.000563
C131	C	-0.170529	0.063243	-0.000523
C132	C	-0.043603	0.031854	-0.000470
H133	H	-0.152367	0.122579	-0.000419
H134	H	-0.226610	0.045213	-0.096201
H135	H	-0.226587	0.045168	0.095120
H136	H	0.012557	0.049915	-0.096049
H137	H	0.012382	0.049881	0.095271
H138	H	-0.044609	-0.177573	-0.000449
O139	O	-0.003616	-0.404407	-0.158491
C140	C	-0.083017	-0.432007	-0.386108
C141	C	0.012315	-0.385622	-0.297934
H142	H	-0.070187	-0.416826	-0.498861
H143	H	-0.066418	-0.489005	-0.372446
H144	H	-0.183096	-0.424496	-0.352268
H145	H	0.112431	-0.393072	-0.331717
H146	H	-0.004394	-0.328641	-0.311603
H147	H	0.029365	-0.744231	0.369133
H148	H	0.029344	-0.744242	0.630167
H149	H	0.425970	-0.890995	0.383016
