data_functionalizedCrystal
_audit_creation_method	'MofGen! by Chris Wilmer'
_symmetry_space_group_name_H-M	'P1'
_symmetry_Int_Tables_number	1
_symmetry_cell_setting	triclinic
loop_
_symmetry_equiv_pos_as_xyz
  x,y,z
_cell_length_a	12.645331
_cell_length_b	25.639240
_cell_length_c	12.645323
_cell_angle_alpha	89.960943
_cell_angle_beta	89.977324
_cell_angle_gamma	90.031736
loop_
_atom_site_label
_atom_site_type_symbol
_atom_site_fract_x
_atom_site_fract_y
_atom_site_fract_z
Zn1	Zn	1.620620	-0.208161	-0.599342
Zn2	Zn	2.120620	0.291839	-0.099342
Zn3	Zn	1.620455	-0.295600	-0.422038
Zn4	Zn	2.120455	0.204400	0.077962
Zn5	Zn	1.443335	-0.208179	-0.422086
Zn6	Zn	1.943335	0.291821	0.077914
Zn7	Zn	1.443270	-0.295566	-0.599253
Zn8	Zn	1.943270	0.204434	-0.099253
O9	O	1.531920	-0.251876	-0.510680
O10	O	2.031920	0.248124	-0.010680
O11	O	1.768946	-0.219767	-0.575839
O12	O	2.268946	0.280233	-0.075839
O13	O	1.596918	-0.284025	-0.273697
O14	O	2.096918	0.215975	0.226303
O15	O	1.466948	-0.135011	-0.445657
O16	O	1.966948	0.364989	0.054343
O17	O	1.768824	-0.284008	-0.445574
O18	O	2.268824	0.215992	0.054426
O19	O	1.597199	-0.134998	-0.575886
O20	O	2.097199	0.365002	-0.075886
O21	O	1.466788	-0.219797	-0.273732
O22	O	1.966788	0.280203	0.226268
O23	O	1.294979	-0.219764	-0.445571
O24	O	1.794979	0.280236	0.054429
O25	O	1.466838	-0.283949	-0.747612
O26	O	1.966838	0.216051	-0.247612
O27	O	1.294931	-0.283967	-0.575735
O28	O	1.794931	0.216033	-0.075735
O29	O	1.597136	-0.219734	-0.747677
O30	O	2.097136	0.280266	-0.247677
O31	O	1.596855	-0.368760	-0.445489
O32	O	2.096855	0.131240	0.054511
O33	O	1.466678	-0.368735	-0.575688
O34	O	1.966678	0.131265	-0.075688
C35	C	1.256490	-0.251864	-0.510649
C36	C	1.756490	0.248136	-0.010649
C37	C	1.138660	-0.251871	-0.510661
C38	C	1.638660	0.248129	-0.010661
C39	C	1.531770	-0.387719	-0.510597
C40	C	2.031770	0.112281	-0.010597
C41	C	1.531803	-0.445833	-0.510597
C42	C	2.031803	0.054167	-0.010597
C43	C	0.971091	-0.211295	-0.429227
C44	C	1.471091	0.288705	0.070773
C45	C	1.093651	-0.211400	-0.428868
C46	C	1.593651	0.288600	0.071132
C47	C	1.094111	-0.306949	-0.480119
C48	C	1.594111	0.193051	0.019881
C49	C	0.971512	-0.306727	-0.479563
C50	C	1.471512	0.193273	0.020437
C51	C	0.971518	-0.237893	-0.622952
C52	C	1.471518	0.262107	-0.122952
C53	C	1.094125	-0.236663	-0.622329
C54	C	1.594125	0.263337	-0.122329
C55	C	1.599775	-0.806151	-0.578612
C56	C	2.099775	-0.306151	-0.078612
C57	C	1.599807	-0.860755	-0.578634
C58	C	2.099807	-0.360755	-0.078634
O59	O	1.657421	-0.888953	-0.636378
O60	O	2.157421	-0.388953	-0.136378
N61	N	1.532067	-0.888115	-0.510782
N62	N	2.032067	-0.388115	-0.010782
C63	C	1.464284	-0.860868	-0.442912
C64	C	1.964284	-0.360868	0.057088
O65	O	1.406669	-0.889154	-0.385202
O66	O	1.906669	-0.389154	0.114798
C67	C	1.464249	-0.806265	-0.442897
C68	C	1.964249	-0.306265	0.057103
C69	C	1.532000	-0.778908	-0.510745
C70	C	2.032000	-0.278908	-0.010745
C71	C	1.667521	-0.778793	-0.646456
C72	C	2.167521	-0.278793	-0.146456
C73	C	1.667490	-0.724193	-0.646433
C74	C	2.167490	-0.224193	-0.146433
C75	C	1.599715	-0.696950	-0.578566
C76	C	2.099715	-0.196950	-0.078566
C77	C	1.531970	-0.724307	-0.510722
C78	C	2.031970	-0.224307	-0.010722
C79	C	1.396461	-0.779019	-0.375033
C80	C	1.896461	-0.279019	0.124967
C81	C	1.396431	-0.724412	-0.375024
C82	C	1.896431	-0.224412	0.124976
C83	C	1.464182	-0.697055	-0.442872
C84	C	1.964182	-0.197055	0.057128
C85	C	1.464165	-0.642464	-0.442832
C86	C	1.964165	-0.142464	0.057168
N87	N	1.531904	-0.615103	-0.510683
N88	N	2.031904	-0.115103	-0.010683
C89	C	1.599679	-0.642346	-0.578550
C90	C	2.099679	-0.142346	-0.078550
C91	C	1.464364	-0.975539	-0.442951
C92	C	1.964364	-0.475539	0.057049
C93	C	1.464404	-1.030141	-0.442960
C94	C	1.964404	-0.530141	0.057040
C95	C	1.599925	-1.030024	-0.578684
C96	C	2.099925	-0.530024	-0.078684
C97	C	1.599889	-0.975421	-0.578668
C98	C	2.099889	-0.475421	-0.078668
C99	C	1.532103	-0.948179	-0.510803
C100	C	2.032103	-0.448179	-0.010803
C101	C	1.599612	-0.527681	-0.578496
C102	C	2.099612	-0.027681	-0.078496
C103	C	1.599578	-0.473076	-0.578464
C104	C	2.099578	0.026924	-0.078464
C105	C	1.464054	-0.473198	-0.442745
C106	C	1.964054	0.026802	0.057255
C107	C	1.464090	-0.527798	-0.442773
C108	C	1.964090	-0.027798	0.057227
C109	C	1.531873	-0.555039	-0.510657
C110	C	2.031873	-0.055039	-0.010657
O111	O	1.406577	-0.614231	-0.385120
O112	O	1.906577	-0.114231	0.114880
O113	O	1.657275	-0.614054	-0.636261
O114	O	2.157275	-0.114054	-0.136261
C115	C	1.808425	-0.251889	-0.510711
C116	C	2.308425	0.248111	-0.010711
C117	C	1.926255	-0.251895	-0.510724
C118	C	2.426255	0.248105	-0.010724
C119	C	1.531998	-0.251836	-0.787185
C120	C	2.031998	0.248164	-0.287185
C121	C	1.532031	-0.251819	-0.905015
C122	C	2.032031	0.248181	-0.405015
C123	C	1.532099	-0.115503	-0.510786
C124	C	2.032099	0.384497	-0.010786
C125	C	1.532176	-0.057389	-0.510832
C126	C	2.032176	0.442611	-0.010832
C127	C	1.449808	-0.292026	-1.072539
C128	C	1.949808	0.207974	-0.572539
C129	C	1.450023	-0.292225	-0.949979
C130	C	1.950023	0.207775	-0.449979
C131	C	1.643723	-0.266773	-0.949528
C132	C	2.143723	0.233227	-0.449528
C133	C	1.643272	-0.267025	-1.072126
C134	C	2.143272	0.232975	-0.572126
C135	C	1.503620	-0.196432	-1.072241
C136	C	2.003620	0.303568	-0.572241
C137	C	1.501127	-0.196764	-0.949634
C138	C	2.001127	0.303236	-0.449634
C139	C	1.531903	-0.251879	-0.235250
C140	C	2.031903	0.248121	0.264750
C141	C	1.532075	-0.251749	-0.117421
C142	C	2.032075	0.248251	0.382579
H143	H	1.123773	-0.170558	-0.448015
H144	H	1.623773	0.329442	0.051985
H145	H	0.942524	-0.267464	-0.683675
H146	H	1.442524	0.232536	-0.183675
H147	H	0.941649	-0.170330	-0.448169
H148	H	1.441649	0.329670	0.051831
H149	H	1.655058	-0.953149	-0.633917
H150	H	2.155058	-0.453149	-0.133917
Br151	Br	1.481391	-0.360570	-0.901076
Br152	Br	1.981391	0.139430	-0.401076
H153	H	1.563540	-0.166423	-1.101270
H154	H	2.063540	0.333577	-0.601270
H155	H	1.122924	-0.220654	-0.345703
H156	H	1.622924	0.279346	0.154297
Br157	Br	1.683479	-0.334423	-1.119785
Br158	Br	2.183479	0.165577	-0.619785
Br159	Br	1.691908	-1.067007	-0.670789
Br160	Br	2.191908	-0.567007	-0.170789
Br161	Br	1.142687	-0.169113	-0.660731
Br162	Br	1.642687	0.330887	-0.160731
Br163	Br	1.759508	-0.815755	-0.738580
Br164	Br	2.259508	-0.315755	-0.238580
Br165	Br	1.748831	-0.220219	-1.121622
Br166	Br	2.248831	0.279781	-0.621622
H167	H	1.654754	-0.450803	-0.633714
H168	H	2.154754	0.049197	-0.133714
Br169	Br	0.923751	-0.326517	-0.342817
Br170	Br	1.423751	0.173483	0.157183
Br171	Br	1.593716	-0.144100	-0.898641
Br172	Br	2.093716	0.355900	-0.398641
H173	H	1.706661	-0.238364	-0.920407
H174	H	2.206661	0.261636	-0.420407
H175	H	1.341291	-0.801284	-0.319783
H176	H	1.841291	-0.301284	0.180217
Br177	Br	1.145190	-0.282355	-0.728958
Br178	Br	1.645190	0.217645	-0.228958
H179	H	0.940238	-0.220447	-0.346551
H180	H	1.440238	0.279553	0.153449
H181	H	1.409245	-1.052411	-0.387700
H182	H	1.909245	-0.552411	0.112300
H183	H	1.409167	-0.953361	-0.387678
H184	H	1.909167	-0.453361	0.112322
Br185	Br	1.684627	-0.333465	-0.898347
Br186	Br	2.184627	0.166535	-0.398347
H187	H	1.124760	-0.319027	-0.398954
H188	H	1.624760	0.180973	0.101046
Br189	Br	0.922068	-0.358853	-0.574173
Br190	Br	1.422068	0.141147	-0.074173
Br191	Br	1.691604	-0.564642	-0.670624
Br192	Br	2.191604	-0.064642	-0.170624
Br193	Br	1.759437	-0.687073	-0.738525
Br194	Br	2.259437	-0.187073	-0.238525
H195	H	1.341228	-0.702234	-0.319761
H196	H	1.841228	-0.202234	0.180239
Br197	Br	1.370236	-0.173712	-1.123757
Br198	Br	1.870236	0.326288	-0.623757
H199	H	1.408930	-0.550074	-0.387517
H200	H	1.908930	-0.050074	0.112483
Br201	Br	1.372079	-0.436215	-0.350642
Br202	Br	1.872079	0.063785	0.149358
Br203	Br	1.311979	-0.276624	-0.899808
Br204	Br	1.811979	0.223376	-0.399808
H205	H	1.366738	-0.282758	-1.102017
H206	H	1.866738	0.217242	-0.602017
Br207	Br	1.364121	-0.177968	-0.901162
Br208	Br	1.864121	0.322032	-0.401162
Br209	Br	1.142680	-0.358716	-0.575955
Br210	Br	1.642680	0.141284	-0.075955
Br211	Br	1.480734	-0.359943	-1.123958
Br212	Br	1.980734	0.140057	-0.623958
Br213	Br	0.920062	-0.172120	-0.669240
Br214	Br	1.420062	0.327880	-0.169240
