data_functionalizedCrystal
_audit_creation_method	'MofGen! by Chris Wilmer'
_symmetry_space_group_name_H-M	'P1'
_symmetry_Int_Tables_number	1
_symmetry_cell_setting	triclinic
loop_
_symmetry_equiv_pos_as_xyz
  x,y,z
_cell_length_a	13.897448
_cell_length_b	12.759401
_cell_length_c	12.759393
_cell_angle_alpha	90.018496
_cell_angle_beta	89.966654
_cell_angle_gamma	89.982147
loop_
_atom_site_label
_atom_site_type_symbol
_atom_site_fract_x
_atom_site_fract_y
_atom_site_fract_z
Zn1	Zn	-0.383954	-1.606234	-0.593968
Zn2	Zn	-0.545283	-1.606119	-0.418283
Zn3	Zn	-0.384004	-1.430536	-0.418308
Zn4	Zn	-0.545209	-1.430515	-0.593924
O5	O	-0.464613	-1.518351	-0.506121
O6	O	-0.405365	-1.753239	-0.570671
O7	O	-0.523942	-1.582788	-0.271265
O8	O	-0.249016	-1.453899	-0.441638
O9	O	-0.523893	-1.753155	-0.441596
O10	O	-0.248979	-1.582983	-0.570695
O11	O	-0.405451	-1.453788	-0.271283
O12	O	-0.405379	-1.283512	-0.441596
O13	O	-0.523766	-1.453864	-0.740951
O14	O	-0.523815	-1.283497	-0.570621
O15	O	-0.405293	-1.582964	-0.740984
O16	O	-0.680255	-1.582768	-0.441554
O17	O	-0.680201	-1.453753	-0.570597
C18	C	-0.464595	-1.245383	-0.506107
C19	C	-0.464611	-1.128607	-0.506125
C20	C	-0.715227	-1.518274	-0.506090
C21	C	-0.822441	-1.518337	-0.506113
C22	C	-0.464515	-1.518424	-0.780154
C23	C	-0.464474	-1.518456	-0.896931
C24	C	-1.018736	-1.518448	-0.506178
C25	C	-0.909503	-1.518383	-0.506145
C26	C	-0.213020	-1.518456	-0.506174
C27	C	-0.105806	-1.518501	-0.506197
C28	C	-0.464631	-1.792384	-0.506136
C29	C	-0.464639	-1.909161	-0.506142
C30	C	-0.526379	-1.073764	-0.573198
C31	C	-0.526391	-0.964040	-0.573209
C32	C	-0.402864	-0.964011	-0.439067
C33	C	-0.402847	-1.073733	-0.439062
C34	C	-0.588142	-1.128638	-0.640261
C35	C	-0.649917	-1.073796	-0.707338
C36	C	-0.649929	-0.964072	-0.707349
C37	C	-0.588167	-0.909190	-0.640284
C38	C	-0.402779	-1.585687	-0.951812
C39	C	-0.402744	-1.585712	-1.061536
C40	C	-0.526107	-1.451271	-1.061489
C41	C	-0.526137	-1.451242	-0.951767
C42	C	-0.341116	-1.652901	-0.896976
C43	C	-0.279417	-1.720139	-0.951856
C44	C	-0.279382	-1.720164	-1.061580
C45	C	-0.341046	-1.652951	-1.116424
C46	C	-0.464640	-1.518338	-0.233154
C47	C	-0.464410	-1.518510	-0.116377
H48	H	-0.700195	-1.118488	-0.761947
C49	C	-0.335929	-0.904239	-0.366284
C50	C	-0.349186	-0.796410	-0.380622
C51	C	-0.287556	-0.741318	-0.313576
H52	H	-0.271091	-0.922104	-0.381709
H53	H	-0.349983	-0.922135	-0.295645
H54	H	-0.335125	-0.778521	-0.451245
H55	H	-0.414012	-0.778514	-0.365189
H56	H	-0.301610	-0.759214	-0.242937
H57	H	-0.222722	-0.759191	-0.329006
H58	H	-0.296549	-0.668151	-0.323288
H59	H	-0.700221	-0.919422	-0.761974
C60	C	-0.335759	-1.133095	-0.366115
C61	C	-0.281700	-1.061557	-0.307354
C62	C	-0.219897	-1.116203	-0.240134
H63	H	-0.293681	-1.175928	-0.406261
H64	H	-0.372589	-1.175848	-0.320213
H65	H	-0.244873	-1.018822	-0.353250
H66	H	-0.323752	-1.018722	-0.267187
H67	H	-0.256727	-1.158956	-0.194232
H68	H	-0.177826	-1.159034	-0.280287
H69	H	-0.183218	-1.067673	-0.200250
C70	C	-0.588320	-0.790060	-0.640451
C71	C	-0.655632	-0.753773	-0.713547
C72	C	-0.655799	-0.644039	-0.713732
H73	H	-0.526143	-0.765165	-0.658788
H74	H	-0.604968	-0.765131	-0.572651
H75	H	-0.638979	-0.778691	-0.781331
H76	H	-0.717819	-0.778639	-0.695226
H77	H	-0.672447	-0.619111	-0.645933
H78	H	-0.593619	-0.619155	-0.732068
H79	H	-0.701475	-0.619405	-0.763320
H80	H	-0.576359	-1.396480	-0.907082
C81	C	-0.592942	-1.378135	-1.120976
C82	C	-0.571924	-1.274184	-1.094314
C83	C	-0.633467	-1.206784	-1.149102
H84	H	-0.657792	-1.393340	-1.103019
H85	H	-0.584081	-1.387714	-1.194193
H86	H	-0.580793	-1.264610	-1.021114
H87	H	-0.507085	-1.258946	-1.112274
H88	H	-0.624607	-1.216363	-1.222318
H89	H	-0.698314	-1.221999	-1.131140
H90	H	-0.619210	-1.136246	-1.131026
H91	H	-0.229136	-1.774904	-1.106261
H92	H	-0.341139	-1.652890	-0.807633
H93	H	-0.229206	-1.774854	-0.907196
H94	H	-0.588141	-1.217981	-0.640258
H95	H	-0.341002	-1.652964	-1.205769
