data_functionalizedCrystal
_audit_creation_method	'MofGen! by Chris Wilmer'
_symmetry_space_group_name_H-M	'P1'
_symmetry_Int_Tables_number	1
_symmetry_cell_setting	triclinic
loop_
_symmetry_equiv_pos_as_xyz
  x,y,z
_cell_length_a	6.817900
_cell_length_b	14.712618
_cell_length_c	14.858329
_cell_angle_alpha	84.596690
_cell_angle_beta	104.519616
_cell_angle_gamma	77.863674
loop_
_atom_site_label
_atom_site_type_symbol
_atom_site_fract_x
_atom_site_fract_y
_atom_site_fract_z
V1	V	-4.016599	0.290227	-0.129269
O2	O	-3.998979	0.284430	0.005596
O3	O	-3.973308	0.288505	-0.255727
O4	O	-3.961428	0.416686	-0.127551
O5	O	-4.010941	0.155361	-0.123467
V6	V	-4.500442	0.274064	-0.113106
O7	O	-4.277155	0.325682	-0.164725
O8	O	-4.690083	0.238610	-0.077650
O9	O	-4.320526	0.275787	0.013352
O10	O	-4.635458	0.279862	-0.247972
O11	O	-4.623497	0.408930	-0.118908
O12	O	-4.332405	0.147606	-0.114824
C13	C	-3.819770	0.283994	-0.286547
C14	C	-3.865616	0.283428	-0.389929
C15	C	-3.902843	0.282960	-0.473886
C16	C	-3.949565	0.282378	-0.579215
C17	C	-3.986819	0.281914	-0.663166
C18	C	-4.033543	0.281330	-0.768501
C19	C	-4.152560	0.116786	-0.119334
C20	C	-4.095589	0.013403	-0.119898
C21	C	-3.887085	-0.365161	-0.122005
C22	C	-3.945105	-0.259833	-0.121419
C23	C	-3.991336	-0.175882	-0.120952
C24	C	-4.049358	-0.070548	-0.120364
C25	C	-3.804616	0.447500	-0.123044
C26	C	-3.840826	0.550883	-0.122476
C27	C	-4.137406	0.280295	0.044166
C28	C	-4.070797	0.280867	0.147548
