data_functionalizedCrystal
_audit_creation_method	'MofGen! by Chris Wilmer'
_symmetry_space_group_name_H-M	'P1'
_symmetry_Int_Tables_number	1
_symmetry_cell_setting	triclinic
loop_
_symmetry_equiv_pos_as_xyz
  x,y,z
_cell_length_a	17.666332
_cell_length_b	14.519709
_cell_length_c	14.519709
_cell_angle_alpha	83.680145
_cell_angle_beta	89.991285
_cell_angle_gamma	90.006446
loop_
_atom_site_label
_atom_site_type_symbol
_atom_site_fract_x
_atom_site_fract_y
_atom_site_fract_z
O1	O	0.062851	-1.223860	-0.120896
O2	O	0.396185	-0.890527	0.212437
O3	O	0.729518	-0.557193	0.545771
O4	O	0.062875	-0.955383	-0.135133
O5	O	0.396208	-0.622050	0.198201
O6	O	0.729541	-0.288716	0.531534
O7	O	0.062856	-1.096740	0.006224
O8	O	0.396189	-0.763406	0.339557
O9	O	0.729522	-0.430073	0.672891
O10	O	0.062871	-1.082503	-0.262253
O11	O	0.396204	-0.749170	0.071081
O12	O	0.729537	-0.415836	0.404414
O13	O	-0.063041	-1.096743	0.006238
O14	O	0.270292	-0.763409	0.339572
O15	O	0.603626	-0.430076	0.672905
O16	O	-0.063022	-0.955386	-0.135118
O17	O	0.270311	-0.622053	0.198215
O18	O	0.603645	-0.288719	0.531548
O19	O	-0.063045	-1.223863	-0.120882
O20	O	0.270288	-0.890530	0.212451
O21	O	0.603621	-0.557196	0.545785
Cu22	Cu	-0.074529	-1.089625	-0.127999
Cu23	Cu	0.258804	-0.756291	0.205334
Cu24	Cu	0.592138	-0.422958	0.538668
Cu25	Cu	0.074358	-1.089621	-0.128016
Cu26	Cu	0.407692	-0.756288	0.205318
Cu27	Cu	0.741025	-0.422954	0.538651
O28	O	-0.063026	-1.082506	-0.262239
O29	O	0.270307	-0.749173	0.071095
O30	O	0.603640	-0.415840	0.404428
C31	C	-0.000071	-0.921025	-0.134462
C32	C	0.333263	-0.587691	0.198871
C33	C	0.666596	-0.254358	0.532205
C34	C	-0.000062	-0.818643	-0.132474
C35	C	0.333271	-0.485310	0.200859
C36	C	0.666605	-0.151977	0.534193
N37	N	-0.179248	-1.089634	-0.127987
N38	N	0.154085	-0.756301	0.205347
N39	N	0.487418	-0.422967	0.538680
N40	N	0.179078	-1.089619	-0.128021
N41	N	0.512411	-0.756286	0.205313
N42	N	0.845745	-0.422952	0.538646
C43	C	0.218679	-1.152324	-0.065551
C44	C	0.552013	-0.818991	0.267782
C45	C	0.885346	-0.485658	0.601116
C46	C	0.297927	-1.152332	-0.065549
C47	C	0.631260	-0.818999	0.267784
C48	C	0.964593	-0.485666	0.601117
C49	C	0.337570	-1.089620	-0.128009
C50	C	0.670903	-0.756286	0.205325
C51	C	1.004237	-0.422953	0.538658
C52	C	0.297959	-1.026910	-0.190490
C53	C	0.631293	-0.693576	0.142843
C54	C	0.964626	-0.360243	0.476176
C55	C	0.218713	-1.026909	-0.190496
C56	C	0.552046	-0.693576	0.142837
C57	C	0.885380	-0.360243	0.476170
N58	N	0.462003	-1.008035	-0.139415
N59	N	0.795336	-0.674702	0.193918
N60	N	1.128670	-0.341369	0.527251
N61	N	0.537283	-1.008039	-0.139404
N62	N	0.870617	-0.674705	0.193929
N63	N	1.203950	-0.341372	0.527263
C64	C	0.576334	-1.089618	-0.127996
C65	C	0.909667	-0.756285	0.205338
C66	C	1.243001	-0.422951	0.538671
N67	N	0.537260	-1.171197	-0.116581
N68	N	0.870594	-0.837863	0.216753
N69	N	1.203927	-0.504530	0.550086
N70	N	0.461973	-1.171193	-0.116587
N71	N	0.795306	-0.837859	0.216746
N72	N	1.128640	-0.504526	0.550080
C73	C	0.423499	-1.089613	-0.128009
C74	C	0.756832	-0.756280	0.205324
C75	C	1.090166	-0.422947	0.538657
C76	C	0.701865	-1.152337	-0.065521
C77	C	1.035198	-0.819004	0.267813
C78	C	1.368531	-0.485670	0.601146
C79	C	0.781114	-1.152347	-0.065526
C80	C	1.114447	-0.819013	0.267808
C81	C	1.447780	-0.485680	0.601141
C82	C	0.781145	-1.026916	-0.190462
C83	C	1.114478	-0.693582	0.142871
C84	C	1.447811	-0.360249	0.476205
C85	C	0.701897	-1.026914	-0.190462
C86	C	1.035230	-0.693581	0.142872
C87	C	1.368564	-0.360248	0.476205
C88	C	0.662262	-1.089624	-0.127986
C89	C	0.995595	-0.756291	0.205347
C90	C	1.328929	-0.422957	0.538681
C91	C	-0.000093	-1.096078	0.040591
C92	C	0.333241	-0.762744	0.373924
C93	C	0.666574	-0.429411	0.707258
C94	C	-0.000093	-1.094090	0.142972
C95	C	0.333240	-0.760756	0.476306
C96	C	0.666574	-0.427423	0.809639
C97	C	-0.000098	-1.258221	-0.121553
C98	C	0.333235	-0.924888	0.211781
C99	C	0.666568	-0.591554	0.545114
C100	C	-0.000102	-1.360602	-0.123541
C101	C	0.333231	-1.027269	0.209793
C102	C	0.666565	-0.693936	0.543126
C103	C	-0.000097	-0.443748	-0.125154
C104	C	0.333236	-0.110414	0.208179
C105	C	0.666570	0.222919	0.541512
C106	C	-0.000087	-0.548056	-0.127187
C107	C	0.333246	-0.214722	0.206146
C108	C	0.666580	0.118611	0.539480
C109	C	-0.000079	-0.631192	-0.128814
C110	C	0.333255	-0.297859	0.204519
C111	C	0.666588	0.035474	0.537853
C112	C	-0.000070	-0.735507	-0.130847
C113	C	0.333263	-0.402173	0.202486
C114	C	0.666596	-0.068840	0.535820
C115	C	-0.000076	-1.083168	-0.296605
C116	C	0.333257	-0.749835	0.036728
C117	C	0.666591	-0.416502	0.370061
C118	C	-0.000071	-1.085156	-0.398987
C119	C	0.333262	-0.751823	-0.065653
C120	C	0.666596	-0.418490	0.267680
C121	C	-0.000073	-1.086770	0.517868
C122	C	0.333261	-0.753437	0.851201
C123	C	0.666594	-0.420103	1.184535
C124	C	-0.000079	-1.088803	0.413560
C125	C	0.333255	-0.755469	0.746893
C126	C	0.666588	-0.422136	1.080227
C127	C	-0.000084	-1.090430	0.330423
C128	C	0.333250	-0.757096	0.663757
C129	C	0.666583	-0.423763	0.997090
C130	C	-0.000088	-1.092463	0.226109
C131	C	0.333245	-0.759129	0.559442
C132	C	0.666579	-0.425796	0.892776
H133	H	0.330176	-1.203396	-0.014677
H134	H	0.663509	-0.870063	0.318656
H135	H	0.996843	-0.536730	0.651989
O136	O	0.340710	-0.959250	-0.257843
O137	O	0.674044	-0.625917	0.075490
O138	O	1.007377	-0.292584	0.408824
H139	H	0.402469	-0.969772	-0.247332
H140	H	0.735802	-0.636439	0.086001
H141	H	1.069136	-0.303106	0.419334
O142	O	0.175988	-0.959278	-0.257875
O143	O	0.509322	-0.625945	0.075458
O144	O	0.842655	-0.292611	0.408791
H145	H	0.139893	-0.998090	-0.302863
H146	H	0.473227	-0.664757	0.030470
H147	H	0.806560	-0.331424	0.363803
O148	O	0.659106	-1.219982	0.001846
O149	O	0.992439	-0.886648	0.335179
O150	O	1.325773	-0.553315	0.668512
H151	H	0.699961	-1.263600	0.045275
H152	H	1.033294	-0.930266	0.378608
H153	H	1.366627	-0.596933	0.711942
H154	H	0.186410	-1.203388	-0.014682
H155	H	0.519744	-0.870055	0.318651
H156	H	0.853077	-0.536722	0.651985
H157	H	0.813358	-1.203413	-0.014658
H158	H	1.146691	-0.870080	0.318675
H159	H	1.480024	-0.536747	0.652009
H160	H	0.813422	-0.975857	-0.241321
H161	H	1.146755	-0.642524	0.092012
H162	H	1.480088	-0.309191	0.425346
O163	O	0.659176	-0.959304	-0.257861
O164	O	0.992509	-0.625970	0.075472
O165	O	1.325843	-0.292637	0.408805
H166	H	0.700053	-0.915701	-0.301301
H167	H	1.033387	-0.582368	0.032033
H168	H	1.366720	-0.249035	0.365366
