data_functionalizedCrystal
_audit_creation_method	'MofGen! by Chris Wilmer'
_symmetry_space_group_name_H-M	'P1'
_symmetry_Int_Tables_number	1
_symmetry_cell_setting	triclinic
loop_
_symmetry_equiv_pos_as_xyz
  x,y,z
_cell_length_a	8.634740
_cell_length_b	23.532357
_cell_length_c	7.088929
_cell_angle_alpha	83.811313
_cell_angle_beta	97.174675
_cell_angle_gamma	91.699299
loop_
_atom_site_label
_atom_site_type_symbol
_atom_site_fract_x
_atom_site_fract_y
_atom_site_fract_z
O1	O	2.027213	0.190506	-0.159061
O2	O	1.578508	0.174949	-0.159057
O3	O	1.816435	0.100566	-0.159020
O4	O	1.789286	0.264889	-0.159098
O5	O	1.848232	0.090599	0.158960
O6	O	1.610305	0.164982	0.158923
O7	O	2.059010	0.180539	0.158919
Cu8	Cu	1.837561	0.171850	0.187955
Cu9	Cu	1.799957	0.183638	-0.188093
O10	O	1.821083	0.254922	0.158882
C11	C	1.537012	0.166441	-0.000066
C12	C	1.365995	0.155933	-0.000063
C13	C	1.831656	0.074327	-0.000024
C14	C	1.829616	0.010991	-0.000006
C15	C	1.799459	-0.376314	-0.173440
C16	C	1.797518	-0.435823	-0.173451
O17	O	1.781721	-0.461979	-0.320862
N18	N	1.813888	-0.471022	-0.000122
C19	C	1.832185	-0.446709	0.173229
O20	O	1.845929	-0.482113	0.320657
C21	C	1.834115	-0.387200	0.173238
C22	C	1.817759	-0.352004	-0.000102
C23	C	1.783103	-0.341118	-0.346766
C24	C	1.785047	-0.281612	-0.346754
C25	C	1.803348	-0.257303	-0.173417
C26	C	1.819704	-0.292499	-0.000091
C27	C	1.852401	-0.362888	0.346586
C28	C	1.854328	-0.303375	0.346580
C29	C	1.837973	-0.268179	0.173240
C30	C	1.839948	-0.208683	0.173258
N31	N	1.823578	-0.173485	-0.000070
C32	C	1.805278	-0.197794	-0.173408
C33	C	1.828128	-0.571681	0.173197
C34	C	1.826209	-0.631188	0.173190
C35	C	1.791539	-0.620298	-0.173490
C36	C	1.793469	-0.560790	-0.173481
C37	C	1.811757	-0.536482	-0.000132
C38	C	1.809363	-0.072829	-0.173370
C39	C	1.811316	-0.013318	-0.173343
C40	C	1.845977	-0.024213	0.173336
C41	C	1.844034	-0.083718	0.173310
C42	C	1.825720	-0.108024	-0.000058
O43	O	1.855732	-0.182487	0.320594
O44	O	1.791516	-0.162384	-0.320811
C45	C	2.100506	0.189047	-0.000076
C46	C	2.271521	0.199555	-0.000091
C47	C	1.805862	0.281161	-0.000118
C48	C	1.807900	0.344497	-0.000149
N49	N	1.864020	0.163560	0.452448
N50	N	1.773510	0.191924	-0.452585
H51	H	1.321474	0.244940	-0.000096
H52	H	1.843026	-0.551893	0.314368
H53	H	1.776632	-0.640102	-0.314631
H54	H	1.316032	0.110547	-0.000096
Cl55	Cl	2.008874	0.118184	0.578530
H56	H	1.798000	0.015337	-0.314504
Cl57	Cl	1.786343	-0.103375	-0.391322
Cl58	Cl	1.864624	-0.127966	0.391225
H59	H	1.771723	-0.252960	-0.487905
H60	H	1.679706	0.221316	0.465754
H61	H	1.860884	-0.004409	0.314463
H62	H	1.768195	-0.360904	-0.487926
H63	H	1.839551	-0.659840	0.314341
Cl64	Cl	1.772901	-0.516549	-0.391402
H65	H	1.865722	-0.391535	0.487739
H66	H	1.869198	-0.283588	0.487746
