data_functionalizedCrystal
_audit_creation_method	'MofGen! by Chris Wilmer'
_symmetry_space_group_name_H-M	'P1'
_symmetry_Int_Tables_number	1
_symmetry_cell_setting	triclinic
loop_
_symmetry_equiv_pos_as_xyz
  x,y,z
_cell_length_a	14.971482
_cell_length_b	14.044190
_cell_length_c	13.448316
_cell_angle_alpha	89.988796
_cell_angle_beta	89.993798
_cell_angle_gamma	88.402193
loop_
_atom_site_label
_atom_site_type_symbol
_atom_site_fract_x
_atom_site_fract_y
_atom_site_fract_z
O1	O	1.196683	0.123521	-0.082690
O2	O	0.937449	0.138319	-0.082697
O3	O	1.063171	-0.007069	-0.082674
O4	O	1.070960	0.268909	-0.082713
O5	O	1.063154	-0.007078	0.082710
O6	O	0.937431	0.138310	0.082687
O7	O	1.196665	0.123512	0.082693
Cu8	Cu	1.067046	0.130910	0.097791
Cu9	Cu	1.067068	0.130921	-0.097794
O10	O	1.070942	0.268900	0.082671
C11	C	0.904063	0.137653	-0.000005
C12	C	0.804609	0.135672	-0.000007
C13	C	0.757881	0.134734	0.090145
C14	C	0.664435	0.132857	0.090147
C15	C	0.617718	0.131925	-0.000005
C16	C	0.664453	0.132861	-0.090164
C17	C	0.757898	0.134730	-0.090164
C18	C	0.469684	0.128965	-0.090157
C19	C	0.376232	0.127097	-0.090157
C20	C	0.376221	0.127092	0.090154
C21	C	0.469666	0.128962	0.090153
C22	C	0.516394	0.129899	-0.000006
C23	C	1.059755	-0.042392	0.000021
C24	C	1.049591	-0.147629	0.000029
C25	C	1.103093	-0.397856	-0.000009
C26	C	1.031025	-0.340307	-0.000003
C27	C	1.041358	-0.233092	0.000015
C28	C	1.092761	-0.505082	-0.000027
C29	C	1.230051	0.124178	-0.000000
C30	C	1.329504	0.126159	-0.000005
C31	C	1.074359	0.304223	-0.000026
C32	C	1.084522	0.409460	-0.000041
N33	N	1.067038	0.130902	0.235355
N34	N	1.067082	0.130921	-0.235359
C35	C	1.122729	0.066551	0.287406
C36	C	1.122734	0.066550	0.391509
C37	C	1.067053	0.130906	0.443560
C38	C	1.011356	0.195260	0.391502
C39	C	1.011346	0.195256	0.287401
C40	C	1.011381	0.195267	0.608482
C41	C	1.011391	0.195273	0.712591
C42	C	1.122769	0.066561	0.712590
C43	C	1.122760	0.066557	0.608489
C44	C	1.067063	0.130912	0.556439
H45	H	0.626394	0.132078	0.163557
H46	H	1.168082	0.014150	0.433888
H47	H	0.507727	0.129729	-0.163574
N48	N	0.808266	0.135749	0.187381
H49	H	0.764480	0.134869	0.244491
H50	H	0.849606	0.077805	0.191319
H51	H	0.626409	0.132095	-0.163567
H52	H	0.507700	0.129727	0.163563
N53	N	0.325824	0.126085	0.187396
H54	H	0.259491	0.126093	0.173721
H55	H	0.343805	0.067015	0.226172
N56	N	0.951331	0.264669	0.768746
H57	H	0.988867	0.306705	0.811917
H58	H	0.916047	0.305373	0.719924
H59	H	0.961564	-0.371561	-0.000011
N60	N	0.325854	0.126078	-0.187397
H61	H	0.289653	0.066582	-0.191396
H62	H	0.284566	0.184061	-0.191379
N63	N	1.195098	-0.356468	0.000022
H64	H	1.189529	-0.284632	0.000041
H65	H	1.228630	-0.378613	0.061339
H66	H	0.795942	0.135496	-0.163575
H67	H	0.965996	0.247656	0.245023
N68	N	1.182792	-0.002857	0.231269
H69	H	1.218071	-0.043624	0.280043
H70	H	1.145200	-0.044828	0.188095
H71	H	0.966014	0.247657	0.433888
H72	H	1.168104	0.014158	0.566109
N73	N	1.182845	-0.002851	0.768723
H74	H	1.174402	0.006912	0.842569
H75	H	1.167152	-0.070121	0.750544
H76	H	0.966024	0.247669	0.566106
