data_functionalizedCrystal
_audit_creation_method	'MofGen! by Chris Wilmer'
_symmetry_space_group_name_H-M	'P1'
_symmetry_Int_Tables_number	1
_symmetry_cell_setting	triclinic
loop_
_symmetry_equiv_pos_as_xyz
  x,y,z
_cell_length_a	16.120530
_cell_length_b	18.101395
_cell_length_c	16.120297
_cell_angle_alpha	92.872690
_cell_angle_beta	90.128140
_cell_angle_gamma	87.126665
loop_
_atom_site_label
_atom_site_type_symbol
_atom_site_fract_x
_atom_site_fract_y
_atom_site_fract_z
Zn1	Zn	1.247384	-0.375190	-0.534565
Zn2	Zn	1.254317	-0.493082	-0.395508
Zn3	Zn	1.115376	-0.362676	-0.388483
Zn4	Zn	1.108274	-0.492400	-0.527477
O5	O	1.181338	-0.430837	-0.461508
O6	O	1.364669	-0.396351	-0.522025
O7	O	1.241761	-0.470832	-0.278211
O8	O	1.132958	-0.260707	-0.407888
O9	O	1.369763	-0.482966	-0.419860
O10	O	1.229944	-0.269901	-0.515214
O11	O	1.139681	-0.375023	-0.273050
O12	O	0.998069	-0.374361	-0.401015
O13	O	1.120853	-0.481804	-0.644783
O14	O	0.992851	-0.469669	-0.503133
O15	O	1.223057	-0.395690	-0.649990
O16	O	1.234873	-0.596620	-0.412987
O17	O	1.127576	-0.596119	-0.509945
C18	C	0.965287	-0.420584	-0.450543
C19	C	0.872859	-0.416216	-0.445872
C20	C	0.703631	-0.408225	-0.437350
C21	C	0.659883	-0.453506	-0.485727
C22	C	0.565718	-0.449060	-0.480986
C23	C	0.797804	-0.412671	-0.442091
C24	C	1.181228	-0.623241	-0.461478
C25	C	1.181256	-0.705558	-0.461497
C26	C	1.181436	-1.004659	-0.461551
C27	C	1.114068	-0.973063	-0.522721
C28	C	1.113774	-0.887422	-0.522504
C29	C	1.181346	-0.856271	-0.461525
C30	C	1.162064	-0.882548	-0.372686
C31	C	1.161632	-0.968190	-0.373050
C32	C	1.268265	-0.978132	-0.488456
C33	C	1.267650	-0.892539	-0.490352
C34	C	1.181297	-0.772409	-0.461505
C35	C	1.181483	-1.088521	-0.461565
C36	C	1.398232	-0.441131	-0.472517
C37	C	1.490660	-0.445517	-0.477208
C38	C	1.170389	-0.440067	-0.678403
C39	C	1.165724	-0.444000	-0.770830
C40	C	1.181470	-0.237683	-0.461558
C41	C	1.181526	-0.155373	-0.461579
C42	C	1.157175	-0.451163	-0.940055
C43	C	1.205665	-0.410297	-0.983822
C44	C	1.200908	-0.414283	-1.077985
C45	C	1.161931	-0.447178	-0.845884
C46	C	1.192292	-0.421592	-0.245460
C47	C	1.197119	-0.417458	-0.153042
H48	H	0.670367	-0.366124	-0.392376
H49	H	1.125459	-0.997097	-0.588658
H50	H	1.098292	-0.984372	-0.350776
O51	O	1.103441	-0.496576	-0.979622
C52	C	1.122631	-0.570370	-0.959408
H53	H	1.157714	-0.570803	-0.897941
H54	H	1.162956	-0.599362	-1.010442
C55	C	0.998642	-0.610697	-1.026917
C56	C	1.041725	-0.611229	-0.951418
H57	H	0.948737	-0.635902	-1.021992
H58	H	0.985714	-0.560981	-1.040539
H59	H	1.032255	-0.634856	-1.069437
H60	H	1.008117	-0.587062	-0.908902
H61	H	1.054645	-0.660942	-0.937789
H62	H	1.320141	-0.871648	-0.449401
O63	O	0.699517	-0.503668	-0.539500
C64	C	0.674200	-0.490169	-0.621368
H65	H	0.650075	-0.430089	-0.624512
H66	H	0.622751	-0.528494	-0.640536
C67	C	0.778266	-0.578600	-0.676798
C68	C	0.748641	-0.504807	-0.680660
H69	H	0.824183	-0.587632	-0.713373
H70	H	0.795321	-0.587697	-0.621642
H71	H	0.735384	-0.610529	-0.692769
H72	H	0.791519	-0.472880	-0.664679
H73	H	0.731595	-0.495705	-0.735815
H74	H	1.250750	-0.372317	-0.950575
H75	H	1.208812	-0.988900	-0.325680
O76	O	1.127655	-0.866541	-0.600941
C77	C	1.205354	-0.897079	-0.629059
H78	H	1.223345	-0.947954	-0.592834
H79	H	1.254321	-0.854205	-0.619062
C80	C	1.177682	-0.857146	-0.766708
C81	C	1.199776	-0.919635	-0.722219
H82	H	1.174244	-0.871056	-0.824174
H83	H	1.125336	-0.836569	-0.747764
H84	H	1.218491	-0.821423	-0.758367
H85	H	1.158962	-0.955352	-0.730551
H86	H	1.252115	-0.940218	-0.741167
H87	H	1.050005	-0.990950	-0.504755
O88	O	1.087364	-0.852498	-0.345603
C89	C	1.070984	-0.876675	-0.265748
H90	H	1.131961	-0.893958	-0.234565
H91	H	1.029584	-0.925931	-0.271259
C92	C	0.951749	-0.791976	-0.251500
C93	C	1.026644	-0.813196	-0.213197
H94	H	0.924395	-0.752821	-0.219084
H95	H	0.962783	-0.775689	-0.305301
H96	H	0.917260	-0.833028	-0.256090
H97	H	1.061136	-0.772147	-0.208617
H98	H	1.015615	-0.829475	-0.159394
O99	O	1.036826	-0.858698	-0.500913
C100	C	0.978072	-0.884905	-0.558742
H101	H	1.003455	-0.938908	-0.590751
H102	H	0.965365	-0.841936	-0.607137
C103	C	0.865592	-0.832298	-0.473980
C104	C	0.896765	-0.898629	-0.513290
H105	H	0.815437	-0.840761	-0.445945
H106	H	0.905176	-0.814639	-0.435021
H107	H	0.855010	-0.796497	-0.514317
H108	H	0.907357	-0.934425	-0.472952
H109	H	0.857181	-0.916294	-0.552241
H110	H	1.209784	-0.862211	-0.325672
H111	H	1.286711	-1.003393	-0.552368
O112	O	1.285195	-0.872677	-0.568402
C113	C	1.362799	-0.905550	-0.593634
H114	H	1.377548	-0.956536	-0.556493
H115	H	1.413054	-0.864099	-0.582200
C116	C	1.341642	-0.865953	-0.732433
C117	C	1.359754	-0.928580	-0.686820
H118	H	1.339767	-0.880157	-0.789915
H119	H	1.289361	-0.843804	-0.715433
H120	H	1.383525	-0.831417	-0.722895
H121	H	1.317867	-0.963111	-0.696350
H122	H	1.412029	-0.950736	-0.703824
H123	H	1.318402	-0.998637	-0.443958
