data_functionalizedCrystal
_audit_creation_method	'MofGen! by Chris Wilmer'
_symmetry_space_group_name_H-M	'P1'
_symmetry_Int_Tables_number	1
_symmetry_cell_setting	triclinic
loop_
_symmetry_equiv_pos_as_xyz
  x,y,z
_cell_length_a	15.538191
_cell_length_b	12.996460
_cell_length_c	15.625429
_cell_angle_alpha	108.083293
_cell_angle_beta	66.736792
_cell_angle_gamma	90.007459
loop_
_atom_site_label
_atom_site_type_symbol
_atom_site_fract_x
_atom_site_fract_y
_atom_site_fract_z
O1	O	1.249532	-0.023611	-0.292681
O2	O	0.975408	0.015207	-0.188628
O3	O	1.119793	-0.054063	-0.374289
O4	O	1.105147	0.045659	-0.107020
O5	O	1.119778	-0.225198	-0.374292
O6	O	0.975393	-0.155928	-0.188631
O7	O	1.249517	-0.194746	-0.292683
Cu8	Cu	1.112454	-0.190963	-0.240658
Cu9	Cu	1.112471	0.011424	-0.240654
O10	O	1.105132	-0.125476	-0.107023
C11	C	0.940319	-0.066299	-0.177743
C12	C	0.835788	-0.054202	-0.145316
N13	N	1.112448	-0.333312	-0.240663
C14	C	0.547577	-0.174389	-0.467475
C15	C	0.449351	-0.163011	-0.436982
C16	C	0.427132	-0.099015	-0.265464
C17	C	0.525358	-0.110393	-0.295943
C18	C	0.585574	-0.148079	-0.396950
C19	C	0.563354	-0.084083	-0.225417
C20	C	0.661572	-0.095455	-0.255894
C21	C	0.721793	-0.133136	-0.356897
C22	C	0.683791	-0.159451	-0.427427
C23	C	0.503137	-0.046389	-0.124411
C24	C	0.541134	-0.020079	-0.053885
C25	C	0.639353	-0.031458	-0.084362
C26	C	0.699574	-0.069140	-0.185364
C27	C	0.677355	-0.005144	-0.013832
C28	C	0.775573	-0.016516	-0.044309
C29	C	0.797792	-0.080512	-0.215841
C30	C	1.112470	-0.753123	-0.240653
C31	C	1.112461	-0.636317	-0.240652
C32	C	1.112459	-0.543221	-0.240657
C33	C	1.112450	-0.426408	-0.240657
C34	C	1.284605	-0.113238	-0.303569
C35	C	1.389137	-0.125328	-0.335996
C36	C	1.119122	-0.152080	-0.407661
C37	C	1.117134	-0.189172	-0.507091
N38	N	1.112484	0.153769	-0.240659
C39	C	1.110610	0.155228	-0.834090
C40	C	1.108738	0.120342	-0.927518
C41	C	1.108721	-0.066217	-0.927508
C42	C	1.110598	-0.031348	-0.834080
C43	C	1.111541	0.079376	-0.787378
C44	C	1.111530	-0.107200	-0.787368
C45	C	1.113402	-0.072332	-0.693946
C46	C	1.114342	0.038387	-0.647236
C47	C	1.113413	0.114243	-0.693956
C48	C	1.110580	-0.217922	-0.834068
C49	C	1.111512	-0.293774	-0.787356
C50	C	1.113390	-0.258908	-0.693935
C51	C	1.114331	-0.148188	-0.647226
C52	C	1.114319	-0.334764	-0.647215
C53	C	1.116191	-0.299896	-0.553793
C54	C	1.116202	-0.113321	-0.553804
C55	C	1.105803	-0.027457	-0.073651
C56	C	1.107791	0.009642	0.025779
H57	H	0.801768	-0.142381	-0.381709
O58	O	0.606043	-0.210822	-0.565605
C59	C	0.655071	-0.180379	-0.721550
C60	C	0.588820	-0.138990	-0.610438
H61	H	0.641156	-0.122335	-0.757835
H62	H	0.731812	-0.183937	-0.731268
H63	H	0.641245	-0.265565	-0.757820
H64	H	0.602562	-0.053789	-0.574096
H65	H	0.512101	-0.135512	-0.600791
O66	O	0.482675	0.016713	0.044240
C67	C	0.433681	0.163517	0.200190
C68	C	0.499921	0.121998	0.089075
H69	H	0.447615	0.248635	0.236477
H70	H	0.356937	0.167216	0.209918
H71	H	0.447499	0.105391	0.236451
H72	H	0.486189	0.180086	0.052743
H73	H	0.576644	0.118272	0.079418
H74	H	0.418420	-0.184436	-0.494420
H75	H	1.107971	0.182120	-0.965544
O76	O	1.113359	-0.442348	-0.692427
C77	C	1.113597	-0.623736	-0.682585
C78	C	1.114666	-0.501926	-0.631264
H79	H	1.114674	-0.671944	-0.633166
H80	H	1.046857	-0.633662	-0.696484
H81	H	1.178544	-0.655792	-0.756142
H82	H	1.049765	-0.469791	-0.557678
H83	H	1.181448	-0.492072	-0.617440
H84	H	1.109046	-0.246306	-0.910134
O85	O	1.110641	-0.401294	-0.832885
C86	C	1.107706	-0.537691	-0.976781
C87	C	1.108706	-0.415895	-0.925340
H88	H	1.106121	-0.549532	-1.051531
H89	H	1.173934	-0.587987	-0.988284
H90	H	1.042249	-0.565715	-0.928567
H91	H	1.174119	-0.387770	-0.973506
H92	H	1.042434	-0.365671	-0.913822
O93	O	0.742158	-0.196030	-0.525586
C94	C	0.753845	-0.258371	-0.692511
C95	C	0.687637	-0.216941	-0.581386
H96	H	0.709791	-0.275312	-0.737657
H97	H	0.800370	-0.193675	-0.711118
H98	H	0.800398	-0.336878	-0.711022
H99	H	0.641025	-0.138454	-0.562795
H100	H	0.641177	-0.281707	-0.562837
O101	O	1.116928	-0.373497	-0.508287
C102	C	1.037543	-0.428574	-0.365867
C103	C	1.036589	-0.345164	-0.417313
H104	H	0.972606	-0.405683	-0.292296
H105	H	1.036489	-0.513720	-0.415217
H106	H	1.104289	-0.428026	-0.351975
H107	H	0.969854	-0.345614	-0.431211
H108	H	1.037693	-0.260056	-0.367938
H109	H	1.107950	-0.156368	-0.965544
H110	H	0.846823	-0.111206	-0.298091
O111	O	0.368539	-0.062284	-0.167378
C112	C	0.244803	0.076388	-0.033400
C113	C	0.311087	0.034904	-0.144502
H114	H	0.198349	0.154982	-0.014866
H115	H	0.198191	0.011752	-0.014817
H116	H	0.288852	0.093178	0.011750
H117	H	0.267112	0.018122	-0.189728
H118	H	0.357702	0.099563	-0.163007
H119	H	0.423163	-0.037128	-0.099600
O120	O	0.618895	0.031656	0.084293
C121	C	0.569904	0.178476	0.240234
C122	C	0.636147	0.136942	0.129119
H123	H	0.583843	0.263595	0.276513
H124	H	0.493161	0.182179	0.249959
H125	H	0.583714	0.120356	0.276503
H126	H	0.622422	0.195023	0.092778
H127	H	0.712869	0.133212	0.119465
H128	H	0.806509	0.004899	0.013120
H129	H	1.116979	-0.023160	-0.515780
O130	O	1.116032	0.072156	-0.556428
C131	C	1.037171	0.084844	-0.385454
C132	C	1.035152	0.046522	-0.488244
H133	H	0.971777	0.064154	-0.330295
H134	H	1.103476	0.041829	-0.389811
H135	H	1.037730	0.177001	-0.360145
H136	H	1.034558	-0.045622	-0.513614
H137	H	0.968854	0.089617	-0.483829
O138	O	1.114248	0.221782	-0.648428
C139	C	1.034923	0.383215	-0.506077
C140	C	1.033849	0.261441	-0.557518
H141	H	0.969918	0.415322	-0.432577
H142	H	1.101616	0.393059	-0.492081
H143	H	1.034005	0.431438	-0.555537
H144	H	1.034733	0.213142	-0.508108
H145	H	0.967161	0.251681	-0.571530
H146	H	1.111386	0.245389	-0.796067
