data_functionalizedCrystal
_audit_creation_method	'MofGen! by Chris Wilmer'
_symmetry_space_group_name_H-M	'P1'
_symmetry_Int_Tables_number	1
_symmetry_cell_setting	triclinic
loop_
_symmetry_equiv_pos_as_xyz
  x,y,z
_cell_length_a	12.811457
_cell_length_b	15.995350
_cell_length_c	11.295483
_cell_angle_alpha	94.097343
_cell_angle_beta	91.289320
_cell_angle_gamma	83.769027
loop_
_atom_site_label
_atom_site_type_symbol
_atom_site_fract_x
_atom_site_fract_y
_atom_site_fract_z
O1	O	1.389018	0.115659	0.050985
O2	O	1.085776	0.126068	0.018235
O3	O	1.245686	-0.000944	0.035507
O4	O	1.229108	0.242671	0.033714
O5	O	1.231641	0.010194	0.232040
O6	O	1.071731	0.137206	0.214769
O7	O	1.374973	0.126798	0.247519
Cu8	Cu	1.222069	0.133019	0.249089
Cu9	Cu	1.238679	0.119847	0.016665
O10	O	1.215063	0.253810	0.230248
C11	C	1.039949	0.130712	0.112311
C12	C	0.924324	0.127947	0.099824
C13	C	0.691739	0.134880	0.290644
C14	C	0.583099	0.132282	0.278917
C15	C	0.598402	0.120148	0.064643
C16	C	0.707042	0.122746	0.076371
C17	C	0.753706	0.130113	0.189374
C18	C	0.862348	0.132717	0.201101
C19	C	0.877650	0.120577	-0.013171
C20	C	0.769009	0.117979	-0.024899
C21	C	1.237978	-0.026576	0.133697
C22	C	1.235924	-0.119547	0.133469
C23	C	1.228545	-0.457365	0.132676
C24	C	1.114691	-0.411053	0.119935
C25	C	1.116714	-0.314318	0.120600
C26	C	1.232205	-0.289770	0.133068
C27	C	1.280357	-0.323946	0.251363
C28	C	1.277489	-0.420604	0.251148
C29	C	1.295814	-0.433606	0.027907
C30	C	1.295893	-0.336745	0.026420
C31	C	1.234280	-0.195052	0.133295
C32	C	1.226473	-0.552083	0.132457
C33	C	1.420800	0.122153	0.153440
C34	C	1.536426	0.124918	0.165920
C35	C	1.222771	0.279442	0.132055
C36	C	1.224825	0.372412	0.132275
N37	N	1.210394	0.142283	0.412565
N38	N	1.250363	0.110576	-0.146809
C39	C	1.334407	0.043839	0.675248
C40	C	1.325591	0.050846	0.798960
C41	C	1.183943	0.163300	0.783701
C42	C	1.192759	0.156293	0.659989
C43	C	1.267994	0.096562	0.605768
C44	C	1.276814	0.089559	0.482054
C45	C	1.135162	0.202008	0.466798
C46	C	1.126346	0.209015	0.590509
H47	H	0.729732	0.140890	0.382656
H48	H	1.081087	0.244940	0.410212
N49	N	1.045213	0.273442	0.648999
H50	H	1.004481	0.305780	0.586208
H51	H	0.995506	0.243836	0.695366
N52	N	1.407111	-0.474658	0.038906
H53	H	1.413973	-0.508487	0.111364
H54	H	1.424875	-0.513203	-0.034253
H55	H	1.078308	-0.290880	0.035382
N56	N	0.516263	0.137420	0.388143
H57	H	0.562407	0.141906	0.461511
H58	H	0.462871	0.188716	0.387443
N59	N	1.357948	0.025139	0.423551
H60	H	1.430338	0.036735	0.453040
H61	H	1.344320	-0.033161	0.443798
N62	N	0.548065	0.112183	-0.057230
H63	H	0.469840	0.111255	-0.049286
H64	H	0.561941	0.161777	-0.102885
H65	H	0.731000	0.111976	-0.116903
H66	H	0.928115	0.116700	-0.095632
N67	N	1.415529	-0.020598	0.616758
H68	H	1.411029	-0.017042	0.527844
H69	H	1.487883	-0.008972	0.646329
N70	N	1.062001	-0.442219	0.006823
H71	H	1.111418	-0.486665	-0.037262
H72	H	0.996049	-0.467250	0.026790
H73	H	1.230533	-0.434545	0.330620
N74	N	1.387755	-0.461880	0.269857
H75	H	1.438007	-0.417263	0.278214
H76	H	1.390833	-0.493516	0.344318
N77	N	1.249423	-0.307354	-0.089431
H78	H	1.187377	-0.263789	-0.072914
H79	H	1.304262	-0.281683	-0.133700
N80	N	0.912683	0.140669	0.322976
H81	H	0.856938	0.143293	0.385349
H82	H	0.965870	0.090221	0.333417
H83	H	1.063654	-0.426547	0.195074
H84	H	1.066503	-0.282314	0.196387
N85	N	1.392366	-0.303875	0.269014
H86	H	1.413021	-0.272354	0.200337
H87	H	1.398586	-0.267852	0.345475
N88	N	1.220792	-0.280574	0.356422
H89	H	1.162609	-0.238784	0.327647
H90	H	1.189707	-0.323975	0.401545
H91	H	1.379670	0.007914	0.855528
H92	H	1.264658	-0.459325	-0.061177
N93	N	1.408098	-0.315839	0.029479
H94	H	1.419287	-0.275443	0.100360
H95	H	1.457158	-0.369250	0.035747
H96	H	1.122681	0.211926	0.827864
