data_functionalizedCrystal
_audit_creation_method	'MofGen! by Chris Wilmer'
_symmetry_space_group_name_H-M	'P1'
_symmetry_Int_Tables_number	1
_symmetry_cell_setting	triclinic
loop_
_symmetry_equiv_pos_as_xyz
  x,y,z
_cell_length_a	14.971486
_cell_length_b	14.853559
_cell_length_c	13.448316
_cell_angle_alpha	89.995590
_cell_angle_beta	89.998199
_cell_angle_gamma	83.622791
loop_
_atom_site_label
_atom_site_type_symbol
_atom_site_fract_x
_atom_site_fract_y
_atom_site_fract_z
O1	O	1.186965	0.117488	-0.082573
O2	O	1.686965	0.617488	0.417427
O3	O	0.926567	0.131558	-0.082599
O4	O	1.426567	0.631558	0.417401
O5	O	1.063726	-0.006709	-0.082584
O6	O	1.563726	0.493291	0.417416
O7	O	1.049807	0.255754	-0.082588
O8	O	1.549807	0.755754	0.417412
O9	O	1.063708	-0.006717	0.082800
O10	O	1.563708	0.493283	0.582800
O11	O	0.926550	0.131549	0.082785
O12	O	1.426550	0.631549	0.582785
O13	O	1.186948	0.117480	0.082811
O14	O	1.686948	0.617480	0.582811
Cu15	Cu	1.056747	0.124514	0.097899
Cu16	Cu	1.556747	0.624514	0.597899
Cu17	Cu	1.056768	0.124524	-0.097687
Cu18	Cu	1.556768	0.624524	0.402313
O19	O	1.049789	0.255746	0.082796
O20	O	1.549789	0.755746	0.582796
C21	C	0.893234	0.130924	0.000089
C22	C	1.393234	0.630924	0.500089
C23	C	0.793936	0.129039	0.000079
C24	C	1.293936	0.629039	0.500079
C25	C	1.063088	-0.040302	0.000106
C26	C	1.563088	0.459698	0.500106
C27	C	1.061202	-0.140385	0.000100
C28	C	1.561202	0.359615	0.500100
C29	C	0.736723	0.210266	0.000079
C30	C	1.236723	0.710266	0.500079
C31	C	0.643424	0.208489	0.000094
C32	C	1.143424	0.708489	0.500094
C33	C	0.607339	0.125484	0.000102
C34	C	1.107339	0.625484	0.500102
C35	C	0.664559	0.044250	0.000104
C36	C	1.164559	0.544250	0.500104
C37	C	0.757857	0.046028	0.000097
C38	C	1.257857	0.546028	0.500097
C39	C	0.470096	0.040550	0.000118
C40	C	0.970096	0.540550	0.500118
C41	C	0.376792	0.038771	0.000124
C42	C	0.876792	0.538771	0.500124
C43	C	0.355663	0.203011	0.000116
C44	C	0.855663	0.703011	0.500116
C45	C	0.448960	0.204789	0.000108
C46	C	0.948960	0.704789	0.500108
C47	C	0.506174	0.123555	0.000109
C48	C	1.006174	0.623555	0.500109
C49	C	1.053211	-0.563554	-0.090051
C50	C	1.553211	-0.063554	0.409949
C51	C	1.053192	-0.563558	0.090256
C52	C	1.553192	-0.063558	0.590256
C53	C	1.054971	-0.469525	0.090257
C54	C	1.554971	0.030475	0.590257
C55	C	1.055869	-0.422502	0.000103
C56	C	1.555869	0.077498	0.500103
C57	C	1.054988	-0.469512	-0.090053
C58	C	1.554988	0.030488	0.409947
C59	C	1.055844	-0.422507	0.180412
C60	C	1.555844	0.077493	0.680412
C61	C	1.057622	-0.328468	0.180416
C62	C	1.557622	0.171532	0.680416
C63	C	1.058526	-0.281444	0.090260
C64	C	1.558526	0.218556	0.590260
C65	C	1.057646	-0.328460	0.000101
C66	C	1.557646	0.171540	0.500101
C67	C	1.058544	-0.281437	-0.090054
C68	C	1.558544	0.218563	0.409946
C69	C	1.057670	-0.328452	-0.180214
C70	C	1.557670	0.171548	0.319786
C71	C	1.055892	-0.422488	-0.180209
C72	C	1.555892	0.077512	0.319791
C73	C	1.060304	-0.187408	0.090255
C74	C	1.560304	0.312592	0.590255
C75	C	1.060320	-0.187395	-0.090056
C76	C	1.560320	0.312605	0.409944
C77	C	1.220281	0.118113	0.000121
C78	C	1.720281	0.618113	0.500121
C79	C	1.319579	0.119999	0.000124
C80	C	1.819579	0.619999	0.500124
C81	C	1.050427	0.289339	0.000104
C82	C	1.550427	0.789339	0.500104
C83	C	1.052313	0.389423	0.000103
C84	C	1.552313	0.889423	0.500103
N85	N	1.056739	0.124506	0.235463
N86	N	1.556739	0.624506	0.735463
N87	N	1.056783	0.124524	-0.235251
N88	N	1.556783	0.624524	0.264749
C89	C	1.117492	0.063307	0.287510
C90	C	1.617492	0.563307	0.787510
C91	C	1.117498	0.063306	0.391613
C92	C	1.617498	0.563306	0.891613
C93	C	1.056754	0.124510	0.443668
C94	C	1.556754	0.624510	0.943668
C95	C	0.995995	0.185712	0.391613
C96	C	1.495995	0.685712	0.891613
C97	C	0.995986	0.185707	0.287512
C98	C	1.495986	0.685707	0.787512
C99	C	0.996020	0.185718	0.608594
C100	C	1.496020	0.685718	1.108594
C101	C	0.996030	0.185723	0.712702
C102	C	1.496030	0.685723	1.212702
C103	C	1.117532	0.063317	0.712695
C104	C	1.617532	0.563317	1.212695
C105	C	1.117523	0.063312	0.608593
C106	C	1.617523	0.563312	1.108593
C107	C	1.056764	0.124516	0.556546
C108	C	1.556764	0.624516	1.056546
H109	H	0.766096	0.277859	0.000073
H110	H	1.266096	0.777859	0.500073
H111	H	0.946565	0.235561	0.755079
H112	H	1.446565	0.735561	1.255079
H113	H	0.596844	0.274633	0.000093
H114	H	1.096844	0.774633	0.500093
H115	H	0.635172	-0.023335	0.000125
H116	H	1.135172	0.476665	0.500125
H117	H	0.804440	-0.020116	0.000096
H118	H	1.304440	0.479884	0.500096
H119	H	1.166989	0.013480	0.566211
H120	H	1.666989	0.513480	1.066211
H121	H	0.309074	0.269155	0.000120
H122	H	0.809074	0.769155	0.500120
H123	H	1.055108	-0.460800	0.253811
H124	H	1.555108	0.039200	0.753811
H125	H	1.060996	-0.149130	0.163662
H126	H	1.560996	0.350870	0.663662
H127	H	1.166960	0.013472	0.245134
H128	H	1.666960	0.513472	0.745134
H129	H	1.055179	-0.460776	-0.253613
H130	H	1.555179	0.039224	0.246387
H131	H	0.478337	0.272380	0.000093
H132	H	0.978337	0.772380	0.500093
H133	H	0.347415	-0.028819	0.000131
H134	H	0.847415	0.471181	0.500131
H135	H	0.946514	0.235541	0.245136
H136	H	1.446514	0.735541	0.745136
H137	H	1.061056	-0.149116	-0.163472
H138	H	1.561056	0.350884	0.336528
H139	H	1.052503	-0.601839	-0.163458
H140	H	1.552503	-0.101839	0.336542
H141	H	0.946532	0.235542	0.434002
H142	H	1.446532	0.735542	0.934002
H143	H	1.167003	0.013483	0.755078
H144	H	1.667003	0.513483	1.255078
H145	H	0.946541	0.235553	0.566220
H146	H	1.446541	0.735553	1.066220
H147	H	1.058337	-0.290197	0.253830
H148	H	1.558337	0.209803	0.753830
H149	H	0.516678	-0.025600	0.000120
H150	H	1.016678	0.474400	0.500120
H151	H	1.166967	0.013473	0.433990
H152	H	1.666967	0.513473	0.933990
H153	H	1.058394	-0.290153	-0.253618
H154	H	1.558394	0.209847	0.246382
H155	H	1.052455	-0.601849	0.163656
H156	H	1.552455	-0.101849	0.663656
