data_functionalizedCrystal
_audit_creation_method	'MofGen! by Chris Wilmer'
_symmetry_space_group_name_H-M	'P1'
_symmetry_Int_Tables_number	1
_symmetry_cell_setting	triclinic
loop_
_symmetry_equiv_pos_as_xyz
  x,y,z
_cell_length_a	19.805407
_cell_length_b	19.805405
_cell_length_c	19.805399
_cell_angle_alpha	90.028022
_cell_angle_beta	90.015116
_cell_angle_gamma	90.024042
loop_
_atom_site_label
_atom_site_type_symbol
_atom_site_fract_x
_atom_site_fract_y
_atom_site_fract_z
Zn1	Zn	1.034716	-0.269518	0.382692
Zn2	Zn	1.284716	-0.019518	0.632692
Zn3	Zn	1.534716	0.230482	0.882692
Zn4	Zn	1.784716	0.480482	1.132692
Zn5	Zn	1.034636	-0.382709	0.269506
Zn6	Zn	1.284636	-0.132709	0.519506
Zn7	Zn	1.534636	0.117291	0.769506
Zn8	Zn	1.784636	0.367291	1.019506
Zn9	Zn	0.921536	-0.269534	0.269520
Zn10	Zn	1.171536	-0.019534	0.519520
Zn11	Zn	1.421536	0.230466	0.769520
Zn12	Zn	1.671536	0.480466	1.019520
Zn13	Zn	0.921494	-0.382665	0.382656
Zn14	Zn	1.171494	-0.132665	0.632656
Zn15	Zn	1.421494	0.117335	0.882656
Zn16	Zn	1.671494	0.367335	1.132656
O17	O	0.978095	-0.326107	0.326094
O18	O	1.228095	-0.076107	0.576094
O19	O	1.478095	0.173893	0.826094
O20	O	1.728095	0.423893	1.076094
O21	O	1.129422	-0.284545	0.367687
O22	O	1.379422	-0.034545	0.617687
O23	O	1.629422	0.215455	0.867687
O24	O	1.879422	0.465455	1.117687
O25	O	1.019617	-0.367721	0.174791
O26	O	1.269617	-0.117721	0.424791
O27	O	1.519617	0.132279	0.674791
O28	O	1.769617	0.382279	0.924791
O29	O	0.936601	-0.174815	0.284554
O30	O	1.186601	0.075185	0.534554
O31	O	1.436601	0.325185	0.784554
O32	O	1.686601	0.575185	1.034554
O33	O	1.129363	-0.367706	0.284529
O34	O	1.379363	-0.117706	0.534529
O35	O	1.629363	0.132294	0.784529
O36	O	1.879363	0.382294	1.034529
O37	O	1.019754	-0.174803	0.367701
O38	O	1.269754	0.075197	0.617701
O39	O	1.519754	0.325197	0.867701
O40	O	1.769754	0.575197	1.117701
O41	O	0.936523	-0.284572	0.174802
O42	O	1.186523	-0.034572	0.424802
O43	O	1.436523	0.215428	0.674802
O44	O	1.686523	0.465428	0.924802
O45	O	0.826814	-0.284529	0.284519
O46	O	1.076814	-0.034529	0.534519
O47	O	1.326814	0.215471	0.784519
O48	O	1.576814	0.465471	1.034519
O49	O	0.936529	-0.367631	0.477378
O50	O	1.186529	-0.117631	0.727378
O51	O	1.436529	0.132369	0.977378
O52	O	1.686529	0.382369	1.227378
O53	O	0.826783	-0.367646	0.367639
O54	O	1.076783	-0.117646	0.617639
O55	O	1.326783	0.132354	0.867639
O56	O	1.576783	0.382354	1.117639
O57	O	1.019713	-0.284502	0.477404
O58	O	1.269713	-0.034502	0.727404
O59	O	1.519713	0.215498	0.977404
O60	O	1.769713	0.465498	1.227404
O61	O	1.019576	-0.477420	0.284494
O62	O	1.269576	-0.227420	0.534494
O63	O	1.519576	0.022580	0.784494
O64	O	1.769576	0.272580	1.034494
O65	O	0.936451	-0.477387	0.367625
O66	O	1.186451	-0.227387	0.617625
O67	O	1.436451	0.022613	0.867625
O68	O	1.686451	0.272613	1.117625
C69	C	0.802239	-0.326085	0.326077
C70	C	1.052239	-0.076085	0.576077
C71	C	1.302239	0.173915	0.826077
C72	C	1.552239	0.423915	1.076077
C73	C	0.727007	-0.326093	0.326086
C74	C	0.977007	-0.076093	0.576086
C75	C	1.227007	0.173907	0.826086
C76	C	1.477007	0.423907	1.076086
C77	C	0.691695	-0.282867	0.369452
C78	C	0.941695	-0.032867	0.619452
C79	C	1.191695	0.217133	0.869452
C80	C	1.441695	0.467133	1.119452
C81	C	0.621006	-0.282871	0.369455
C82	C	0.871006	-0.032871	0.619455
C83	C	1.121006	0.217129	0.869455
C84	C	1.371006	0.467129	1.119455
C85	C	0.585632	-0.326104	0.326094
C86	C	0.835632	-0.076104	0.576094
C87	C	1.085632	0.173896	0.826094
C88	C	1.335632	0.423896	1.076094
C89	C	0.620950	-0.369331	0.282724
C90	C	0.870950	-0.119331	0.532724
C91	C	1.120950	0.130669	0.782724
C92	C	1.370950	0.380669	1.032724
C93	C	0.691637	-0.369323	0.282718
C94	C	0.941637	-0.119323	0.532718
C95	C	1.191637	0.130677	0.782718
C96	C	1.441637	0.380677	1.032718
C97	C	0.335876	-0.369361	0.282744
C98	C	0.585876	-0.119361	0.532744
C99	C	0.835876	0.130639	0.782744
C100	C	1.085876	0.380639	1.032744
C101	C	0.265184	-0.369367	0.282755
C102	C	0.515184	-0.119367	0.532755
C103	C	0.765184	0.130633	0.782755
C104	C	1.015184	0.380633	1.032755
C105	C	0.265246	-0.282909	0.369481
C106	C	0.515246	-0.032909	0.619481
C107	C	0.765246	0.217091	0.869481
C108	C	1.015246	0.467091	1.119481
C109	C	0.335933	-0.282901	0.369476
C110	C	0.585933	-0.032901	0.619476
C111	C	0.835933	0.217099	0.869476
C112	C	1.085933	0.467099	1.119476
C113	C	0.371245	-0.326126	0.326103
C114	C	0.621245	-0.076126	0.576103
C115	C	0.871245	0.173874	0.826103
C116	C	1.121245	0.423874	1.076103
C117	C	0.447893	-0.326120	0.326099
C118	C	0.697893	-0.076120	0.576099
C119	C	0.947893	0.173880	0.826099
C120	C	1.197893	0.423880	1.076099
C121	C	0.508985	-0.326113	0.326100
C122	C	0.758985	-0.076113	0.576100
C123	C	1.008985	0.173887	0.826100
C124	C	1.258985	0.423887	1.076100
C125	C	0.978018	-0.501963	0.326069
C126	C	1.228018	-0.251963	0.576069
C127	C	1.478018	-0.001963	0.826069
C128	C	1.728018	0.248037	1.076069
C129	C	0.978047	-0.577195	0.326081
C130	C	1.228047	-0.327195	0.576081
C131	C	1.478047	-0.077195	0.826081
C132	C	1.728047	0.172805	1.076081
C133	C	1.021319	-0.612474	0.369410
C134	C	1.271319	-0.362474	0.619410
C135	C	1.521319	-0.112474	0.869410
C136	C	1.771319	0.137526	1.119410
C137	C	1.021344	-0.683163	0.369422
C138	C	1.271344	-0.433163	0.619422
C139	C	1.521344	-0.183163	0.869422
C140	C	1.771344	0.066837	1.119422
C141	C	0.978099	-0.718570	0.326103
C142	C	1.228099	-0.468570	0.576103
C143	C	1.478099	-0.218570	0.826103
C144	C	1.728099	0.031430	1.076103
C145	C	0.934822	-0.683285	0.282772
C146	C	1.184822	-0.433285	0.532772
C147	C	1.434822	-0.183285	0.782772
C148	C	1.684822	0.066715	1.032772
C149	C	0.934795	-0.612598	0.282763
C150	C	1.184795	-0.362598	0.532763
C151	C	1.434795	-0.112598	0.782763
C152	C	1.684795	0.137402	1.032763
C153	C	0.934931	-0.968359	0.282807
C154	C	1.184931	-0.718359	0.532807
C155	C	1.434931	-0.468359	0.782807
C156	C	1.684931	-0.218359	1.032807
C157	C	0.934963	-1.039051	0.282817
C158	C	1.184963	-0.789051	0.532817
C159	C	1.434963	-0.539051	0.782817
C160	C	1.684963	-0.289051	1.032817
C161	C	1.021480	-1.038923	0.369466
C162	C	1.271480	-0.788923	0.619466
C163	C	1.521480	-0.538923	0.869466
C164	C	1.771480	-0.288923	1.119466
C165	C	1.021453	-0.968236	0.369457
C166	C	1.271453	-0.718236	0.619457
C167	C	1.521453	-0.468236	0.869457
C168	C	1.771453	-0.218236	1.119457
C169	C	0.978173	-0.932957	0.326129
C170	C	1.228173	-0.682957	0.576129
C171	C	1.478173	-0.432957	0.826129
C172	C	1.728173	-0.182957	1.076129
C173	C	0.978147	-0.856309	0.326117
C174	C	1.228147	-0.606309	0.576117
C175	C	1.478147	-0.356309	0.826117
C176	C	1.728147	-0.106309	1.076117
C177	C	0.978129	-0.795217	0.326111
C178	C	1.228129	-0.545217	0.576111
C179	C	1.478129	-0.295217	0.826111
C180	C	1.728129	-0.045217	1.076111
C181	C	1.154638	-0.326128	0.326111
C182	C	1.404638	-0.076128	0.576111
C183	C	1.654638	0.173872	0.826111
C184	C	1.904638	0.423872	1.076111
C185	C	1.229870	-0.326138	0.326118
C186	C	1.479870	-0.076138	0.576118
C187	C	1.729870	0.173862	0.826118
C188	C	1.979870	0.423862	1.076118
C189	C	0.978125	-0.326060	0.502636
C190	C	1.228125	-0.076060	0.752636
C191	C	1.478125	0.173940	1.002636
C192	C	1.728125	0.423940	1.252636
C193	C	0.978138	-0.326040	0.577868
C194	C	1.228138	-0.076040	0.827868
C195	C	1.478138	0.173960	1.077868
C196	C	1.728138	0.423960	1.327868
C197	C	0.978191	-0.149564	0.326133
C198	C	1.228191	0.100436	0.576133
C199	C	1.478191	0.350436	0.826133
C200	C	1.728191	0.600436	1.076133
C201	C	0.978232	-0.074332	0.326150
C202	C	1.228232	0.175668	0.576150
C203	C	1.478232	0.425668	0.826150
C204	C	1.728232	0.675668	1.076150
C205	C	0.978105	-0.326104	0.150238
C206	C	1.228105	-0.076104	0.400238
C207	C	1.478105	0.173896	0.650238
C208	C	1.728105	0.423896	0.900238
C209	C	0.978223	-0.325934	0.075006
C210	C	1.228223	-0.075934	0.325006
C211	C	1.478223	0.174066	0.575006
C212	C	1.728223	0.424066	0.825006
C213	C	0.934883	-0.282740	0.613218
C214	C	1.184883	-0.032740	0.863218
C215	C	1.434883	0.217260	1.113218
C216	C	1.684883	0.467260	1.363218
C217	C	0.934893	-0.282727	0.683906
C218	C	1.184893	-0.032727	0.933906
C219	C	1.434893	0.217273	1.183906
C220	C	1.684893	0.467273	1.433906
C221	C	0.978160	-0.326010	0.719244
C222	C	1.228160	-0.076010	0.969244
C223	C	1.478160	0.173990	1.219244
C224	C	1.728160	0.423990	1.469244
C225	C	1.021417	-0.369315	0.683890
C226	C	1.271417	-0.119315	0.933890
C227	C	1.521417	0.130685	1.183890
C228	C	1.771417	0.380685	1.433890
C229	C	1.021404	-0.369331	0.613203
C230	C	1.271404	-0.119331	0.863203
C231	C	1.521404	0.130669	1.113203
C232	C	1.771404	0.380669	1.363203
C233	C	1.021471	-0.369252	0.968963
C234	C	1.271471	-0.119252	1.218963
C235	C	1.521471	0.130748	1.468963
C236	C	1.771471	0.380748	1.718963
C237	C	1.021482	-0.369231	1.039656
C238	C	1.271482	-0.119231	1.289656
C239	C	1.521482	0.130769	1.539656
C240	C	1.771482	0.380769	1.789656
C241	C	0.934959	-0.282647	1.039667
C242	C	1.184959	-0.032647	1.289667
C243	C	1.434959	0.217353	1.539667
C244	C	1.684959	0.467353	1.789667
C245	C	0.934946	-0.282663	0.968980
C246	C	1.184946	-0.032663	1.218980
C247	C	1.434946	0.217337	1.468980
C248	C	1.684946	0.467337	1.718980
C249	C	0.978200	-0.325970	0.933632
C250	C	1.228200	-0.075970	1.183632
C251	C	1.478200	0.174030	1.433632
C252	C	1.728200	0.424030	1.683632
C253	C	0.978188	-0.325985	0.856983
C254	C	1.228188	-0.075985	1.106983
C255	C	1.478188	0.174015	1.356983
C256	C	1.728188	0.424015	1.606983
C257	C	0.978176	-0.325993	0.795891
C258	C	1.228176	-0.075993	1.045891
C259	C	1.478176	0.174007	1.295891
C260	C	1.728176	0.424007	1.545891
H261	H	0.720387	-0.404522	0.247405
H262	H	0.970387	-0.154522	0.497405
H263	H	1.220387	0.095478	0.747405
H264	H	1.470387	0.345478	0.997405
H265	H	0.592258	-0.247674	0.404769
H266	H	0.842258	0.002326	0.654769
H267	H	1.092258	0.252326	0.904769
H268	H	1.342258	0.502326	1.154769
N269	N	1.068141	-0.415925	1.077776
N270	N	1.318141	-0.165925	1.327776
N271	N	1.568141	0.084075	1.577776
N272	N	1.818141	0.334075	1.827776
H273	H	1.099531	-0.388418	1.107113
H274	H	1.349531	-0.138418	1.357113
H275	H	1.599531	0.111582	1.607113
H276	H	1.849531	0.361582	1.857113
H277	H	1.095494	-0.443357	1.044618
H278	H	1.345494	-0.193357	1.294618
H279	H	1.595494	0.056643	1.544618
H280	H	1.845494	0.306643	1.794618
H281	H	0.592142	-0.404529	0.247416
H282	H	0.842142	-0.154529	0.497416
H283	H	1.092142	0.095471	0.747416
H284	H	1.342142	0.345471	0.997416
H285	H	0.899557	-0.583874	0.247482
H286	H	1.149557	-0.333874	0.497482
H287	H	1.399557	-0.083874	0.747482
H288	H	1.649557	0.166126	0.997482
N289	N	0.729846	-0.236241	0.416224
N290	N	0.979846	0.013759	0.666224
N291	N	1.229846	0.263759	0.916224
N292	N	1.479846	0.513759	1.166224
H293	H	0.696747	-0.208858	0.443696
H294	H	0.946747	0.041142	0.693696
H295	H	1.196747	0.291142	0.943696
H296	H	1.446747	0.541142	1.193696
H297	H	0.759176	-0.204880	0.388727
H298	H	1.009176	0.045120	0.638727
H299	H	1.259176	0.295120	0.888727
H300	H	1.509176	0.545120	1.138727
N301	N	1.068024	-0.721213	0.416149
N302	N	1.318024	-0.471213	0.666149
N303	N	1.568024	-0.221213	0.916149
N304	N	1.818024	0.028787	1.166149
H305	H	1.061479	-0.771365	0.409584
H306	H	1.311479	-0.521365	0.659584
H307	H	1.561479	-0.271365	0.909584
H308	H	1.811479	-0.021365	1.159584
H309	H	1.057459	-0.708834	0.464479
H310	H	1.307459	-0.458834	0.714479
H311	H	1.557459	-0.208834	0.964479
H312	H	1.807459	0.041166	1.214479
H313	H	0.899609	-0.712120	0.247503
H314	H	1.149609	-0.462120	0.497503
H315	H	1.399609	-0.212120	0.747503
H316	H	1.649609	0.037880	0.997503
N317	N	0.227153	-0.236280	0.416252
N318	N	0.477153	0.013720	0.666252
N319	N	0.727153	0.263720	0.916252
N320	N	0.977153	0.513720	1.166252
H321	H	0.239470	-0.187905	0.405825
H322	H	0.489470	0.062095	0.655825
H323	H	0.739470	0.312095	0.905825
H324	H	0.989470	0.562095	1.155825
H325	H	0.239479	-0.246911	0.464575
H326	H	0.489479	0.003089	0.714575
H327	H	0.739479	0.253089	0.964575
H328	H	0.989479	0.503089	1.214575
H329	H	1.056631	-0.404585	0.584422
H330	H	1.306631	-0.154585	0.834422
H331	H	1.556631	0.095415	1.084422
H332	H	1.806631	0.345415	1.334422
N333	N	1.068096	-0.930046	0.416179
N334	N	1.318096	-0.680046	0.666179
N335	N	1.568096	-0.430046	0.916179
N336	N	1.818096	-0.180046	1.166179
H337	H	1.095512	-0.963123	0.443631
H338	H	1.345512	-0.713123	0.693631
H339	H	1.595512	-0.463123	0.943631
H340	H	1.845512	-0.213123	1.193631
H341	H	1.040510	-0.900722	0.447471
H342	H	1.290510	-0.650722	0.697471
H343	H	1.540510	-0.400722	0.947471
H344	H	1.790510	-0.150722	1.197471
N345	N	0.227028	-0.415998	0.235985
N346	N	0.477028	-0.165998	0.485985
N347	N	0.727028	0.084002	0.735985
N348	N	0.977028	0.334002	0.985985
H349	H	0.260123	-0.443378	0.208505
H350	H	0.510123	-0.193378	0.458505
H351	H	0.760123	0.056622	0.708505
H352	H	1.010123	0.306622	0.958505
H353	H	0.197695	-0.388404	0.204718
H354	H	0.447695	-0.138404	0.454718
H355	H	0.697695	0.111596	0.704718
H356	H	0.947695	0.361596	0.954718
H357	H	1.056537	-0.583650	0.404683
H358	H	1.306537	-0.333650	0.654683
H359	H	1.556537	-0.083650	0.904683
H360	H	1.806537	0.166350	1.154683
N361	N	0.888237	-0.236027	0.722034
N362	N	1.138237	0.013973	0.972034
N363	N	1.388237	0.263973	1.222034
N364	N	1.638237	0.513973	1.472034
H365	H	0.860828	-0.208607	0.688921
H366	H	1.110828	0.041393	0.938921
H367	H	1.360828	0.291393	1.188921
H368	H	1.610828	0.541393	1.438921
H369	H	0.915811	-0.204703	0.751375
H370	H	1.165811	0.045297	1.001375
H371	H	1.415811	0.295297	1.251375
H372	H	1.665811	0.545297	1.501375
H373	H	1.056718	-1.067655	0.404747
H374	H	1.306718	-0.817655	0.654747
H375	H	1.556718	-0.567655	0.904747
H376	H	1.806718	-0.317655	1.154747
N377	N	0.888319	-1.077243	0.236091
N378	N	1.138319	-0.827243	0.486091
N379	N	1.388319	-0.577243	0.736091
N380	N	1.638319	-0.327243	0.986091
H381	H	0.860897	-1.044168	0.208642
H382	H	1.110897	-0.794168	0.458642
H383	H	1.360897	-0.544168	0.708642
H384	H	1.610897	-0.294168	0.958642
H385	H	0.856995	-1.106583	0.263621
H386	H	1.106995	-0.856583	0.513621
H387	H	1.356995	-0.606583	0.763621
H388	H	1.606995	-0.356583	1.013621
N389	N	0.374087	-0.236276	0.416246
N390	N	0.624087	0.013724	0.666246
N391	N	0.874087	0.263724	0.916246
N392	N	1.124087	0.513724	1.166246
H393	H	0.340990	-0.208891	0.443719
H394	H	0.590990	0.041109	0.693719
H395	H	0.840990	0.291109	0.943719
H396	H	1.090990	0.541109	1.193719
H397	H	0.403416	-0.204915	0.388747
H398	H	0.653416	0.045085	0.638747
H399	H	0.903416	0.295085	0.888747
H400	H	1.153416	0.545085	1.138747
N401	N	1.068120	-0.415957	0.930841
N402	N	1.318120	-0.165957	1.180841
N403	N	1.568120	0.084043	1.430841
N404	N	1.818120	0.334043	1.680841
H405	H	1.095534	-0.443372	0.963954
H406	H	1.345534	-0.193372	1.213954
H407	H	1.595534	0.056628	1.463954
H408	H	1.845534	0.306628	1.713954
H409	H	1.099453	-0.388417	0.901521
H410	H	1.349453	-0.138417	1.151521
H411	H	1.599453	0.111583	1.401521
H412	H	1.849453	0.361583	1.651521
H413	H	0.899693	-0.939640	0.247527
H414	H	1.149693	-0.689640	0.497527
H415	H	1.399693	-0.439640	0.747527
H416	H	1.649693	-0.189640	0.997527
N417	N	0.888222	-0.236048	0.575105
N418	N	1.138222	0.013952	0.825105
N419	N	1.388222	0.263952	1.075105
N420	N	1.638222	0.513952	1.325105
H421	H	0.860822	-0.208616	0.608228
H422	H	1.110822	0.041384	0.858228
H423	H	1.360822	0.291384	1.108228
H424	H	1.610822	0.541384	1.358228
H425	H	0.856877	-0.263599	0.545765
H426	H	1.106877	-0.013599	0.795765
H427	H	1.356877	0.236401	1.045765
H428	H	1.606877	0.486401	1.295765
H429	H	0.899715	-0.247415	0.940211
H430	H	1.149715	0.002585	1.190211
H431	H	1.399715	0.252585	1.440211
H432	H	1.649715	0.502585	1.690211
N433	N	0.888293	-0.235949	1.077793
N434	N	1.138293	0.014051	1.327793
N435	N	1.388293	0.264051	1.577793
N436	N	1.638293	0.514051	1.827793
H437	H	0.915816	-0.204580	1.107139
H438	H	1.165816	0.045420	1.357139
H439	H	1.415816	0.295420	1.607139
H440	H	1.665816	0.545420	1.857139
H441	H	0.856927	-0.263501	1.107067
H442	H	1.106927	-0.013501	1.357067
H443	H	1.356927	0.236499	1.607067
H444	H	1.606927	0.486499	1.857067
N445	N	0.373957	-0.415978	0.235964
N446	N	0.623957	-0.165978	0.485964
N447	N	0.873957	0.084022	0.735964
N448	N	1.123957	0.334022	0.985964
H449	H	0.340819	-0.443366	0.208499
H450	H	0.590819	-0.193366	0.458499
H451	H	0.840819	0.056634	0.708499
H452	H	1.090819	0.306634	0.958499
H453	H	0.403288	-0.447335	0.263453
H454	H	0.653288	-0.197335	0.513453
H455	H	0.903288	0.052665	0.763453
H456	H	1.153288	0.302665	1.013453
N457	N	1.068078	-0.416009	0.722001
N458	N	1.318078	-0.166009	0.972001
N459	N	1.568078	0.083991	1.222001
N460	N	1.818078	0.333991	1.472001
H461	H	1.061524	-0.409429	0.772145
H462	H	1.311524	-0.159429	1.022145
H463	H	1.561524	0.090571	1.272145
H464	H	1.811524	0.340571	1.522145
H465	H	1.116422	-0.405488	0.709652
H466	H	1.366422	-0.155488	0.959652
H467	H	1.616422	0.094512	1.209652
H468	H	1.866422	0.344512	1.459652
