data_functionalizedCrystal
_audit_creation_method	'MofGen! by Chris Wilmer'
_symmetry_space_group_name_H-M	'P1'
_symmetry_Int_Tables_number	1
_symmetry_cell_setting	triclinic
loop_
_symmetry_equiv_pos_as_xyz
  x,y,z
_cell_length_a	10.489741
_cell_length_b	14.853567
_cell_length_c	13.330367
_cell_angle_alpha	89.995418
_cell_angle_beta	89.995673
_cell_angle_gamma	84.087052
loop_
_atom_site_label
_atom_site_type_symbol
_atom_site_fract_x
_atom_site_fract_y
_atom_site_fract_z
O1	O	0.166528	1.197303	-0.083354
O2	O	0.186366	0.934954	-0.083371
O3	O	-0.009218	1.072098	-0.083356
O4	O	0.362112	1.060159	-0.083369
O5	O	-0.009223	1.072078	0.083491
O6	O	0.186361	0.934934	0.083476
O7	O	0.166524	1.197282	0.083493
Cu8	Cu	0.176442	1.066107	0.098719
Cu9	Cu	0.176447	1.066130	-0.098597
O10	O	0.362107	1.060139	0.083479
C11	C	0.185464	0.901351	0.000051
C12	C	0.182771	0.801252	0.000044
C13	C	-0.056742	1.071186	0.000067
C14	C	-0.198341	1.068488	0.000065
C15	C	0.055204	0.388003	0.000071
C16	C	0.287562	0.368025	0.000062
C17	C	0.290094	0.462072	0.000059
C18	C	0.175180	0.519090	0.000060
C19	C	0.057733	0.482060	0.000065
C20	C	0.407539	0.499110	0.000044
C21	C	0.410077	0.593163	0.000040
C22	C	0.295161	0.650183	0.000048
C23	C	0.177709	0.613147	0.000054
C24	C	0.062795	0.670164	0.000055
C25	C	-0.054658	0.633130	0.000068
C26	C	-0.057183	0.539079	0.000073
C27	C	0.297685	0.744234	0.000043
C28	C	0.065324	0.764221	0.000049
C29	C	-0.265502	0.981228	0.000052
C30	C	-0.358089	1.022439	0.082319
C31	C	-0.358060	1.022479	-0.082179
C32	C	-0.289063	1.109735	0.082400
C33	C	-0.289024	1.109764	-0.082172
C34	C	-0.381585	1.151038	0.000115
C35	C	0.409631	1.061051	0.000053
C36	C	0.551230	1.063748	0.000049
N37	N	0.176437	1.066096	0.237501
C38	C	0.167425	1.230886	0.000070
C39	C	0.170118	1.330985	0.000070
N40	N	0.176441	1.066147	-0.237378
C41	C	0.263017	1.005400	0.710117
C42	C	0.089867	1.126885	0.710098
C43	C	0.089863	1.126874	0.605080
C44	C	0.176439	1.066127	0.552575
C45	C	0.263019	1.005390	0.605089
C46	C	0.003293	1.187617	0.552558
C47	C	0.003287	1.187610	0.447534
C48	C	0.089858	1.126857	0.395027
C49	C	0.176440	1.066117	0.447547
C50	C	0.263016	1.005369	0.395043
C51	C	0.349594	0.944624	0.447561
C52	C	0.349590	0.944637	0.552582
C53	C	0.089861	1.126844	0.290005
C54	C	0.263017	1.005359	0.290015
H55	H	-0.028255	0.810640	0.000054
H56	H	0.420090	0.895167	0.404799
C57	C	-0.399439	0.972557	0.176268
H58	H	-0.456579	1.012371	0.215002
H59	H	-0.441220	0.921621	0.156492
H60	H	-0.326015	0.952916	0.215279
C61	C	-0.247548	1.159578	-0.176120
H62	H	-0.207149	1.211144	-0.156359
H63	H	-0.189165	1.120063	-0.214140
H64	H	-0.320730	1.178259	-0.215820
C65	C	0.358255	0.938540	0.232263
H66	H	0.345857	0.947230	0.162193
H67	H	0.443407	0.948880	0.249472
H68	H	0.344236	0.878283	0.249483
C69	C	-0.449456	1.248040	0.000182
H70	H	-0.425850	1.278879	0.058674
H71	H	-0.424765	1.279279	-0.057699
H72	H	-0.539636	1.245803	-0.000366
H73	H	0.393314	0.774383	0.000034
C74	C	-0.186369	0.498344	0.000075
H75	H	-0.254448	0.545769	0.000083
H76	H	-0.192177	0.462073	-0.058108
H77	H	-0.192187	0.462066	0.058266
H78	H	-0.148221	0.679566	0.000062
H79	H	0.501096	0.452680	0.000033
C80	C	0.358249	0.938588	0.767880
H81	H	0.345858	0.947294	0.837948
H82	H	0.344244	0.878331	0.750678
H83	H	0.443406	0.948935	0.750662
C84	C	0.444824	0.877834	0.610353
H85	H	0.432433	0.886550	0.680420
H86	H	0.430824	0.817574	0.593163
H87	H	0.529981	0.888181	0.593131
H88	H	0.019377	1.176306	0.247250
H89	H	-0.215045	0.909483	0.000130
H90	H	-0.388607	0.985555	-0.151736
C91	C	-0.247983	1.159551	0.176467
H92	H	-0.157640	1.160933	0.175918
H93	H	-0.288773	1.219693	0.176713
H94	H	-0.272172	1.128742	0.234809
H95	H	0.019385	1.176348	0.752851
H96	H	0.505714	0.623308	0.000029
C97	C	-0.073988	0.347275	0.000083
H98	H	-0.142060	0.394705	0.000088
H99	H	-0.079807	0.310998	-0.058095
H100	H	-0.079807	0.311005	0.058279
H101	H	-0.067188	1.237080	0.595311
C102	C	-0.091918	1.254439	0.389768
H103	H	-0.079509	1.245743	0.319701
H104	H	-0.177083	1.244123	0.406979
H105	H	-0.077871	1.314691	0.406976
H106	H	0.381119	0.321596	0.000052
