data_functionalizedCrystal
_audit_creation_method	'MofGen! by Chris Wilmer'
_symmetry_space_group_name_H-M	'P1'
_symmetry_Int_Tables_number	1
_symmetry_cell_setting	triclinic
loop_
_symmetry_equiv_pos_as_xyz
  x,y,z
_cell_length_a	10.967926
_cell_length_b	19.188929
_cell_length_c	9.482900
_cell_angle_alpha	80.718765
_cell_angle_beta	92.549900
_cell_angle_gamma	96.049894
loop_
_atom_site_label
_atom_site_type_symbol
_atom_site_fract_x
_atom_site_fract_y
_atom_site_fract_z
O1	O	1.609576	-0.123221	0.282258
O2	O	1.260355	-0.124751	0.194763
O3	O	1.445030	-0.022632	0.241122
O4	O	1.424902	-0.225339	0.235899
O5	O	1.407518	-0.043462	0.473498
O6	O	1.222843	-0.145581	0.427139
O7	O	1.572064	-0.144051	0.514634
Cu8	Cu	1.394029	-0.146718	0.492104
Cu9	Cu	1.438391	-0.122084	0.217293
O10	O	1.387390	-0.246169	0.468275
C11	C	1.196921	-0.133481	0.299758
C12	C	1.063793	-0.128451	0.266409
C13	C	0.985008	-0.136999	0.371918
C14	C	0.847413	-0.131800	0.337452
C15	C	1.406802	-0.261782	0.352228
C16	C	1.408772	-0.339338	0.352653
C17	C	1.300399	-0.381098	0.325530
C18	C	1.302234	-0.453979	0.326023
C19	C	1.412445	-0.485099	0.353668
C20	C	1.520835	-0.443328	0.380787
C21	C	1.518998	-0.370448	0.380279
N22	N	1.483911	-0.602625	0.453946
N23	N	1.485648	-0.671859	0.454429
C24	C	1.417986	-0.704682	0.355196
N25	N	1.348500	-0.665658	0.255474
N26	N	1.346759	-0.596418	0.254996
C27	C	1.414449	-0.564124	0.354221
C28	C	1.311595	-0.825467	0.328603
C29	C	1.313437	-0.898348	0.329089
C30	C	1.532038	-0.887697	0.383868
C31	C	1.530195	-0.814817	0.383367
C32	C	1.419970	-0.783707	0.355741
C33	C	1.635499	-0.135321	0.409636
C34	C	1.768629	-0.140350	0.442976
C35	C	1.425618	-0.007019	0.357166
C36	C	1.423649	0.070538	0.356732
N37	N	1.362835	-0.164044	0.685394
N38	N	1.469594	-0.104753	0.024006
C39	C	1.429182	-0.127190	0.774248
C40	C	1.403237	-0.141612	0.935153
H41	H	0.813005	-0.120631	0.221598
H42	H	1.210646	-0.355773	0.303022
H43	H	1.029379	-0.117282	0.150563
C44	C	1.300541	-0.198661	0.993297
N45	N	1.223191	-0.241630	1.037093
H46	H	1.213980	-0.487987	0.303938
C47	C	1.653273	-0.921924	0.414274
N48	N	1.744590	-0.947707	0.437174
C49	C	1.572292	-0.047704	0.965865
N50	N	1.649647	-0.004737	0.922073
C51	C	1.531849	-0.070129	0.716091
N52	N	1.609175	-0.027145	0.672288
C53	C	1.642066	-0.477562	0.411205
N54	N	1.733381	-0.503347	0.434115
H55	H	1.286822	-0.206269	0.728442
H56	H	1.019424	-0.148162	0.487764
H57	H	0.803036	-0.151515	0.558831
H58	H	1.225184	-0.932348	0.306991
H59	H	1.607252	-0.336447	0.402365
C60	C	1.190349	-0.791242	0.298193
N61	N	1.099026	-0.765465	0.275285
H62	H	1.618444	-0.780815	0.405463
