data_functionalizedCrystal
_audit_creation_method	'MofGen! by Chris Wilmer'
_symmetry_space_group_name_H-M	'P1'
_symmetry_Int_Tables_number	1
_symmetry_cell_setting	triclinic
loop_
_symmetry_equiv_pos_as_xyz
  x,y,z
_cell_length_a	19.288867
_cell_length_b	22.010155
_cell_length_c	19.288865
_cell_angle_alpha	89.999010
_cell_angle_beta	96.863342
_cell_angle_gamma	90.006943
loop_
_atom_site_label
_atom_site_type_symbol
_atom_site_fract_x
_atom_site_fract_y
_atom_site_fract_z
O1	O	0.921352	0.050511	-0.086645
O2	O	1.421352	0.550511	0.413355
O3	O	0.719092	0.050518	-0.098332
O4	O	1.219092	0.550518	0.401668
O5	O	0.826067	0.050502	0.008642
O6	O	1.326067	0.550502	0.508642
O7	O	0.814378	0.050526	-0.193619
O8	O	1.314378	0.550526	0.306381
O9	O	0.826047	-0.050548	0.008626
O10	O	1.326047	0.449452	0.508626
O11	O	0.719073	-0.050533	-0.098348
O12	O	1.219073	0.449467	0.401652
O13	O	0.921333	-0.050540	-0.086661
O14	O	1.421333	0.449460	0.413339
Cu15	Cu	0.820201	-0.059763	-0.092506
Cu16	Cu	1.320201	0.440237	0.407494
Cu17	Cu	0.820224	0.059741	-0.092487
Cu18	Cu	1.320224	0.559741	0.407513
O19	O	0.814358	-0.050524	-0.193635
O20	O	1.314358	0.449476	0.306365
C21	C	0.693206	-0.000007	-0.097964
C22	C	1.193206	0.499993	0.402036
C23	C	0.616102	-0.000005	-0.096834
C24	C	1.116102	0.499995	0.403166
C25	C	0.060548	0.055070	-0.088689
C26	C	0.560548	0.555070	0.411311
C27	C	0.132995	0.055072	-0.089746
C28	C	0.632995	0.555072	0.410254
C29	C	0.169213	-0.000010	-0.090287
C30	C	0.669213	0.499990	0.409713
C31	C	0.132980	-0.055099	-0.089752
C32	C	0.632980	0.444901	0.410248
C33	C	0.060535	-0.055100	-0.088688
C34	C	0.560535	0.444900	0.411312
C35	C	0.278532	-0.042205	-0.132661
C36	C	0.778532	0.457795	0.367339
C37	C	0.350976	-0.042202	-0.133730
C38	C	0.850976	0.457798	0.366270
C39	C	0.392659	-0.000010	-0.093566
C40	C	0.892659	0.499990	0.406434
C41	C	0.361888	0.042189	-0.052343
C42	C	0.861888	0.542189	0.447657
C43	C	0.289443	0.042189	-0.051279
C44	C	0.789443	0.542189	0.448721
C45	C	0.247768	-0.000015	-0.091440
C46	C	0.747768	0.499985	0.408560
C47	C	0.507440	0.055078	-0.095242
C48	C	1.007440	0.555078	0.404758
C49	C	0.579889	0.055078	-0.096295
C50	C	1.079889	0.555078	0.403705
C51	C	0.579872	-0.055095	-0.096308
C52	C	1.079872	0.444905	0.403692
C53	C	0.507425	-0.055093	-0.095248
C54	C	1.007425	0.444907	0.404752
C55	C	0.471213	-0.000005	-0.094718
C56	C	0.971213	0.499995	0.405282
N57	N	0.820190	-0.143815	-0.092519
N58	N	1.320190	0.356185	0.407481
C59	C	0.867595	-0.563602	-0.045125
C60	C	1.367595	-0.063602	0.454875
C61	C	0.867598	-0.627209	-0.045121
C62	C	1.367598	-0.127209	0.454879
O63	O	0.907876	-0.660107	-0.004834
O64	O	1.407876	-0.160107	0.495166
N65	N	0.820224	-0.659022	-0.092472
N66	N	1.320224	-0.159022	0.407528
C67	C	0.772838	-0.627225	-0.139827
C68	C	1.272838	-0.127225	0.360173
O69	O	0.732542	-0.660125	-0.180102
O70	O	1.232542	-0.160125	0.319898
C71	C	0.772832	-0.563618	-0.139828
C72	C	1.272832	-0.063618	0.360172
C73	C	0.820214	-0.531808	-0.092478
C74	C	1.320214	-0.031808	0.407522
C75	C	0.914973	-0.531792	0.002221
C76	C	1.414973	-0.031792	0.502221
C77	C	0.914971	-0.468188	0.002215
C78	C	1.414971	0.031812	0.502215
C79	C	0.867590	-0.436395	-0.045137
C80	C	1.367590	0.063605	0.454863
C81	C	0.820212	-0.468205	-0.092484
C82	C	1.320212	0.031795	0.407516
C83	C	0.725443	-0.531822	-0.187179
C84	C	1.225443	-0.031822	0.312821
C85	C	0.725441	-0.468211	-0.187175
C86	C	1.225441	0.031789	0.312825
C87	C	0.772824	-0.436401	-0.139825
C88	C	1.272824	0.063599	0.360175
C89	C	0.772829	-0.372809	-0.139842
C90	C	1.272829	0.127191	0.360158
N91	N	0.820203	-0.340996	-0.092491
N92	N	1.320203	0.159004	0.407509
C93	C	0.867584	-0.372789	-0.045138
C94	C	1.367584	0.127211	0.454862
C95	C	0.772853	-0.760803	-0.139821
C96	C	1.272853	-0.260803	0.360179
C97	C	0.772862	-0.824408	-0.139824
C98	C	1.272862	-0.324408	0.360176
C99	C	0.867622	-0.824388	-0.045116
C100	C	1.367622	-0.324388	0.454884
C101	C	0.867616	-0.760781	-0.045117
C102	C	1.367616	-0.260781	0.454883
C103	C	0.820228	-0.728989	-0.092469
C104	C	1.320228	-0.228989	0.407531
C105	C	0.867575	-0.239217	-0.045154
C106	C	1.367575	0.260783	0.454846
C107	C	0.867571	-0.175609	-0.045166
C108	C	1.367571	0.324391	0.454834
C109	C	0.772809	-0.175634	-0.139871
C110	C	1.272809	0.324366	0.360129
C111	C	0.772816	-0.239237	-0.139862
C112	C	1.272816	0.260763	0.360138
C113	C	0.820202	-0.271027	-0.092498
C114	C	1.320202	0.228973	0.407502
O115	O	0.732570	-0.339871	-0.180106
O116	O	1.232570	0.160129	0.319894
O117	O	0.907867	-0.339881	-0.004863
O118	O	1.407867	0.160119	0.495137
C119	C	0.947219	-0.000014	-0.087029
C120	C	1.447219	0.499986	0.412971
C121	C	1.024323	-0.000012	-0.088159
C122	C	1.524323	0.499988	0.411841
C123	C	0.825681	-0.000025	0.034510
C124	C	1.325681	0.499975	0.534510
C125	C	0.824552	-0.000030	0.111614
C126	C	1.324552	0.499970	0.611614
N127	N	0.820241	0.143793	-0.092468
N128	N	1.320241	0.643793	0.407532
C129	C	0.814744	0.000004	-0.219503
C130	C	1.314744	0.500004	0.280497
C131	C	0.815873	0.000014	-0.296607
C132	C	1.315873	0.500014	0.203393
C133	C	0.887320	-0.000035	0.156310
C134	C	1.387320	0.499965	0.656310
C135	C	0.886259	-0.000026	0.228757
C136	C	1.386259	0.499974	0.728757
C137	C	0.822427	-0.000023	0.256505
C138	C	1.322427	0.499977	0.756505
C139	C	0.759651	-0.000015	0.211799
C140	C	1.259651	0.499985	0.711799
C141	C	0.760713	-0.000018	0.139354
C142	C	1.260713	0.499982	0.639354
C143	C	0.772241	-0.035417	0.364787
C144	C	1.272241	0.464583	0.864787
C145	C	0.771181	-0.035417	0.437232
C146	C	1.271181	0.464583	0.937232
C147	C	0.819147	-0.000010	0.479951
C148	C	1.319147	0.499990	0.979951
C149	C	0.868185	0.035391	0.450218
C150	C	1.368185	0.535391	0.950218
C151	C	0.869248	0.035387	0.377772
C152	C	1.369248	0.535387	0.877772
C153	C	0.821268	-0.000019	0.335059
C154	C	1.321268	0.499981	0.835059
C155	C	0.880769	-0.000003	0.603202
C156	C	1.380769	0.499997	1.103202
C157	C	0.879706	0.000010	0.675650
C158	C	1.379706	0.500010	1.175650
C159	C	0.753096	0.000015	0.658691
C160	C	1.253096	0.500015	1.158691
C161	C	0.754161	0.000008	0.586245
C162	C	1.254161	0.500008	1.086245
C163	C	0.818000	-0.000004	0.558505
C164	C	1.318000	0.499996	1.058505
H165	H	0.609360	-0.099944	-0.096745
H166	H	1.109360	0.400056	0.403255
C167	C	0.467539	-0.115682	-0.094912
C168	C	0.967539	0.384318	0.405088
H169	H	0.419198	-0.107793	-0.094269
H170	H	0.919198	0.392207	0.405731
H171	H	0.474063	-0.138177	-0.135658
H172	H	0.974063	0.361823	0.364342
H173	H	0.484735	-0.138451	-0.054659
H174	H	0.984735	0.361549	0.445341
C175	C	0.950985	-0.000009	0.572682
C176	C	1.450985	0.499991	1.072682
H177	H	0.942629	-0.000019	0.523134
H178	H	1.442629	0.499981	1.023134
H179	H	0.976828	0.035230	0.588033
H180	H	1.476828	0.535230	1.088033
H181	H	0.976814	-0.035252	0.588042
H182	H	1.476814	0.464748	1.088042
C183	C	0.172854	0.115662	-0.090333
C184	C	0.672854	0.615662	0.409667
H185	H	0.221186	0.107772	-0.091038
H186	H	0.721186	0.607772	0.408962
H187	H	0.155560	0.138297	-0.130653
H188	H	0.655560	0.638297	0.369347
H189	H	0.166412	0.138295	-0.049656
H190	H	0.666412	0.638295	0.450344
C191	C	0.967100	-0.566755	0.054310
C192	C	1.467100	-0.066755	0.554310
H193	H	0.995315	-0.538691	0.082499
H194	H	1.495315	-0.038691	0.582499
H195	H	0.942221	-0.591575	0.083168
H196	H	1.442221	-0.091575	0.583168
H197	H	0.995940	-0.591558	0.029392
H198	H	1.495940	-0.091558	0.529392
H199	H	0.930821	0.000009	0.712042
H200	H	1.430821	0.500009	1.212042
H201	H	0.162474	-0.099947	-0.090191
H202	H	0.662474	0.400053	0.409809
H203	H	0.906161	-0.265094	-0.006585
H204	H	1.406161	0.234906	0.493415
H205	H	0.701123	0.000020	0.681283
H206	H	1.201123	0.500020	1.181283
H207	H	0.733179	-0.064254	0.330010
H208	H	1.233179	0.435746	0.830010
H209	H	0.909175	0.064213	0.353567
H210	H	1.409175	0.564213	0.853567
H211	H	0.264393	0.076548	-0.017712
H212	H	0.764393	0.576548	0.482288
C213	C	0.967084	-0.433205	0.054309
C214	C	1.467084	0.066795	0.554309
H215	H	0.995293	-0.461258	0.082512
H216	H	1.495293	0.038742	0.582512
H217	H	0.995921	-0.408386	0.029404
H218	H	1.495921	0.091614	0.529404
H219	H	0.942183	-0.408400	0.083163
H220	H	1.442183	0.091600	0.583163
C221	C	0.919690	-0.140621	0.006924
C222	C	1.419690	0.359379	0.506924
H223	H	0.947902	-0.168670	0.035130
H224	H	1.447902	0.331330	0.535130
H225	H	0.948524	-0.115804	-0.017988
H226	H	1.448524	0.384196	0.482012
H227	H	0.894792	-0.115812	0.035776
H228	H	1.394792	0.384188	0.535776
C229	C	0.407727	0.088603	-0.008157
C230	C	0.907727	0.588603	0.491843
H231	H	0.379026	0.113736	0.016541
H232	H	0.879026	0.613736	0.516541
H233	H	0.440365	0.067704	0.024142
H234	H	0.940365	0.567704	0.524142
H235	H	0.432064	0.113013	-0.037902
H236	H	0.932064	0.613013	0.462098
C237	C	0.919731	-0.725796	0.006972
C238	C	1.419731	-0.225796	0.506972
H239	H	0.947944	-0.753847	0.035174
H240	H	1.447944	-0.253847	0.535174
H241	H	0.948563	-0.700975	-0.017936
H242	H	1.448563	-0.200975	0.482064
H243	H	0.894832	-0.700992	0.035829
H244	H	1.394832	-0.200992	0.535829
H245	H	0.707678	-0.000011	0.234396
H246	H	1.207678	0.499989	0.734396
H247	H	0.734234	-0.149738	-0.178427
H248	H	1.234234	0.350262	0.321573
H249	H	0.376021	-0.076551	-0.167313
H250	H	0.876021	0.423449	0.332687
C251	C	0.232687	-0.088617	-0.176848
C252	C	0.732687	0.411383	0.323152
H253	H	0.261385	-0.113741	-0.201559
H254	H	0.761385	0.386259	0.298441
H255	H	0.208348	-0.113027	-0.147110
H256	H	0.708348	0.386973	0.352890
H257	H	0.200050	-0.067711	-0.209146
H258	H	0.700050	0.432289	0.290854
H259	H	0.477955	0.099934	-0.094808
H260	H	0.977955	0.599934	0.405192
C261	C	0.020720	0.115664	-0.088088
C262	C	0.520720	0.615664	0.411912
H263	H	0.052676	0.148469	-0.088547
H264	H	0.552676	0.648469	0.411453
H265	H	-0.012970	0.117964	-0.128164
H266	H	0.487030	0.617964	0.371836
H267	H	-0.002108	0.117945	-0.047168
H268	H	0.497892	0.617945	0.452832
C269	C	0.673317	-0.433243	-0.239267
C270	C	1.173317	0.066757	0.260733
H271	H	0.645106	-0.461302	-0.267467
H272	H	1.145106	0.038698	0.232533
H273	H	0.644482	-0.408432	-0.214358
H274	H	1.144482	0.091568	0.285642
H275	H	0.698211	-0.408430	-0.268125
H276	H	1.198211	0.091570	0.231875
H277	H	0.906201	-0.850286	-0.006558
H278	H	1.406201	-0.350286	0.493442
C279	C	0.691666	-0.000018	0.090186
C280	C	1.191666	0.499982	0.590186
H281	H	0.653496	-0.000018	0.117085
H282	H	1.153496	0.499982	0.617085
H283	H	0.689455	0.035216	0.061567
H284	H	1.189455	0.535216	0.561567
H285	H	0.689444	-0.035265	0.061580
H286	H	1.189444	0.464735	0.561580
C287	C	0.920948	0.074346	0.497198
C288	C	1.420948	0.574346	0.997198
H289	H	0.913288	0.069286	0.544602
H290	H	1.413288	0.569286	1.044602
H291	H	0.967076	0.061899	0.491485
H292	H	1.467076	0.561899	0.991485
H293	H	0.915018	0.115889	0.484499
H294	H	1.415018	0.615889	0.984499
H295	H	0.734286	-0.850303	-0.178388
H296	H	1.234286	-0.350303	0.321612
H297	H	0.734266	-0.734920	-0.178386
H298	H	1.234266	-0.234920	0.321614
C299	C	0.673328	-0.566799	-0.239271
C300	C	1.173328	-0.066799	0.260729
H301	H	0.645110	-0.538746	-0.267464
H302	H	1.145110	-0.038746	0.232536
H303	H	0.698221	-0.591606	-0.268124
H304	H	1.198221	-0.091606	0.231876
H305	H	0.644489	-0.591617	-0.214360
H306	H	1.144489	-0.091617	0.285640
H307	H	0.031040	-0.099955	-0.088259
H308	H	0.531040	0.400045	0.411741
C309	C	0.720671	-0.274230	-0.191919
C310	C	1.220671	0.225770	0.308081
H311	H	0.692442	-0.246182	-0.220110
H312	H	1.192442	0.253818	0.279890
H313	H	0.745529	-0.299059	-0.220780
H314	H	1.245529	0.200941	0.279220
H315	H	0.691847	-0.299026	-0.166966
H316	H	1.191847	0.200974	0.333034
C317	C	0.619737	0.115671	-0.096879
C318	C	1.119737	0.615671	0.403121
H319	H	0.587791	0.148477	-0.096418
H320	H	1.087791	0.648477	0.403582
H321	H	0.653422	0.117963	-0.056797
H322	H	1.153422	0.617963	0.443203
H323	H	0.642573	0.117960	-0.137794
H324	H	1.142573	0.617960	0.362206
H325	H	0.939302	-0.000043	0.133729
H326	H	1.439302	0.499957	0.633729
H327	H	0.937374	-0.000027	0.265155
H328	H	1.437374	0.499973	0.765155
C329	C	0.685116	0.000003	0.537077
C330	C	1.185116	0.500003	1.037077
H331	H	0.646946	0.000001	0.563977
H332	H	1.146946	0.500001	1.063977
H333	H	0.682903	0.035239	0.508459
H334	H	1.182903	0.535239	1.008459
H335	H	0.682895	-0.035243	0.508469
H336	H	1.182895	0.464757	1.008469
H337	H	0.731248	-0.064239	0.461434
H338	H	1.231248	0.435761	0.961434
