data_functionalizedCrystal
_audit_creation_method	'MofGen! by Chris Wilmer'
_symmetry_space_group_name_H-M	'P1'
_symmetry_Int_Tables_number	1
_symmetry_cell_setting	triclinic
loop_
_symmetry_equiv_pos_as_xyz
  x,y,z
_cell_length_a	11.026660
_cell_length_b	10.967829
_cell_length_c	15.186229
_cell_angle_alpha	77.868373
_cell_angle_beta	89.997038
_cell_angle_gamma	96.379957
loop_
_atom_site_label
_atom_site_type_symbol
_atom_site_fract_x
_atom_site_fract_y
_atom_site_fract_z
O1	O	1.614515	0.523494	-0.152669
O2	O	1.260714	0.463885	-0.143625
O3	O	1.445774	0.313872	-0.120857
O4	O	1.429456	0.673507	-0.175437
O5	O	1.445761	0.313867	0.025601
O6	O	1.260702	0.463880	0.002833
O7	O	1.614503	0.523488	-0.006211
Zn8	Zn	1.437600	0.493683	0.021564
Zn9	Zn	1.437617	0.493690	-0.171400
O10	O	1.429443	0.673501	-0.028979
C11	C	1.215406	0.452886	-0.068727
C12	C	1.080419	0.420103	-0.063753
C13	C	0.867852	0.476751	-0.072352
C14	C	1.007367	0.510636	-0.077493
C15	C	1.444579	0.267113	-0.040533
C16	C	1.441024	0.127790	-0.019394
C17	C	1.439446	0.065684	-0.085840
C18	C	1.435771	-0.078314	-0.063994
C19	C	1.659811	0.534488	-0.081111
C20	C	1.794798	0.567270	-0.086091
C21	C	1.430638	0.720261	-0.109305
C22	C	1.434193	0.859584	-0.130449
N23	N	1.437598	0.493679	0.153258
N24	N	1.437629	0.493686	-0.303092
C25	C	1.519571	0.427289	0.389057
C26	C	1.519574	0.427287	0.481247
C27	C	1.355647	0.560079	0.461102
C28	C	1.355638	0.560073	0.368914
C29	C	1.437607	0.493681	0.332894
C30	C	1.437620	0.493685	0.517271
C31	C	1.437623	0.493683	0.617227
C32	C	1.437602	0.493681	0.232932
H33	H	0.835541	0.669853	-0.101654
H34	H	0.827109	0.374169	-0.056771
C35	C	1.062389	0.649224	-0.098529
H36	H	1.148941	0.653818	-0.099232
H37	H	1.036088	0.689679	-0.053599
H38	H	1.036098	0.689670	-0.155750
C39	C	1.025400	0.281514	-0.042727
H40	H	0.938848	0.276917	-0.042039
H41	H	1.051691	0.241052	0.014483
H42	H	1.051704	0.241078	-0.087673
C43	C	1.441296	0.137852	-0.184542
H44	H	1.439822	0.080214	-0.223397
H45	H	1.513372	0.195309	-0.196532
H46	H	1.371816	0.182539	-0.194595
C47	C	1.433921	-0.150483	0.034711
H48	H	1.431701	-0.237797	0.036446
H49	H	1.363691	-0.135474	0.065258
H50	H	1.505248	-0.122713	0.063319
C51	C	1.436038	-0.068256	-0.229157
H52	H	1.434563	-0.125897	-0.268010
H53	H	1.508113	-0.010797	-0.241150
H54	H	1.366556	-0.023572	-0.239208
C55	C	1.439173	0.055616	0.079306
H56	H	1.436954	-0.031698	0.081041
H57	H	1.368944	0.070625	0.109853
H58	H	1.510500	0.083386	0.107914
H59	H	1.586313	0.373226	0.359732
H60	H	1.586315	0.373222	0.526973
C61	C	1.265501	0.633119	0.500725
H62	H	1.277252	0.623626	0.563671
H63	H	1.184247	0.601275	0.490461
H64	H	1.279408	0.719533	0.472495
C65	C	1.265477	0.633112	0.307131
H66	H	1.216673	0.672669	0.341783
H67	H	1.214495	0.576741	0.279729
H68	H	1.309650	0.695004	0.261770
