data_functionalizedCrystal
_audit_creation_method	'MofGen! by Chris Wilmer'
_symmetry_space_group_name_H-M	'P1'
_symmetry_Int_Tables_number	1
_symmetry_cell_setting	triclinic
loop_
_symmetry_equiv_pos_as_xyz
  x,y,z
_cell_length_a	14.971475
_cell_length_b	12.996460
_cell_length_c	14.971486
_cell_angle_alpha	90.006353
_cell_angle_beta	96.388096
_cell_angle_gamma	89.995296
loop_
_atom_site_label
_atom_site_type_symbol
_atom_site_fract_x
_atom_site_fract_y
_atom_site_fract_z
O1	O	-1.186952	0.085546	0.116518
O2	O	-0.686952	0.585546	0.616518
O3	O	-0.926550	0.085553	0.130487
O4	O	-0.426550	0.585553	0.630487
O5	O	-1.063731	0.085542	-0.006698
O6	O	-0.563731	0.585542	0.493302
O7	O	-1.049772	0.085557	0.253703
O8	O	-0.549772	0.585557	0.753703
O9	O	-1.063716	-0.085592	-0.006705
O10	O	-0.563716	0.414408	0.493295
O11	O	-0.926536	-0.085581	0.130479
O12	O	-0.426536	0.414419	0.630479
O13	O	-1.186938	-0.085587	0.116510
O14	O	-0.686938	0.414413	0.616510
Cu15	Cu	-1.056736	-0.101210	0.123494
Cu16	Cu	-0.556736	0.398790	0.623494
Cu17	Cu	-1.056752	0.101176	0.123503
Cu18	Cu	-0.556752	0.601176	0.623503
O19	O	-1.049757	-0.085577	0.253695
O20	O	-0.549757	0.414423	0.753695
C21	C	-0.893218	-0.000013	0.129860
C22	C	-0.393218	0.499987	0.629860
C23	C	-0.793921	-0.000011	0.127993
C24	C	-0.293921	0.499989	0.627993
N25	N	-1.056730	-0.243557	0.123487
N26	N	-0.556730	0.256443	0.623487
C27	C	-0.747268	-0.093297	0.127110
C28	C	-0.247268	0.406703	0.627110
C29	C	-0.653969	-0.093297	0.125342
C30	C	-0.153969	0.406703	0.625342
C31	C	-0.607324	-0.000011	0.124463
C32	C	-0.107324	0.499989	0.624463
C33	C	-0.653984	0.093282	0.125344
C34	C	-0.153984	0.593282	0.625344
C35	C	-0.747282	0.093282	0.127106
C36	C	-0.247282	0.593282	0.627106
C37	C	-0.459521	0.093277	0.121673
C38	C	0.040479	0.593277	0.621673
C39	C	-0.366216	0.093278	0.119913
C40	C	0.133784	0.593278	0.619913
C41	C	-0.366209	-0.093302	0.119909
C42	C	0.133791	0.406698	0.619909
C43	C	-0.459507	-0.093303	0.121671
C44	C	0.040493	0.406697	0.621671
C45	C	-0.506160	-0.000009	0.122554
C46	C	-0.006160	0.499991	0.622554
C47	C	-1.056751	-0.663371	0.123504
C48	C	-0.556751	-0.163371	0.623504
C49	C	-1.056743	-0.546566	0.123502
C50	C	-0.556743	-0.046566	0.623502
C51	C	-1.056741	-0.453468	0.123496
C52	C	-0.556741	0.046532	0.623496
C53	C	-1.056732	-0.336655	0.123493
C54	C	-0.556732	0.163345	0.623493
C55	C	-0.220269	-0.000017	0.117144
C56	C	0.279731	0.499983	0.617144
C57	C	-0.319564	-0.000008	0.119030
C58	C	0.180436	0.499992	0.619030
C59	C	-1.063099	-0.000024	-0.040026
C60	C	-0.563099	0.499976	0.459974
C61	C	-1.061228	-0.000023	-0.139323
C62	C	-0.561228	0.499977	0.360677
N63	N	-1.056765	0.243523	0.123503
N64	N	-0.556765	0.743523	0.623503
C65	C	-1.141818	-0.000026	-0.196552
C66	C	-0.641818	0.499974	0.303448
C67	C	-1.140055	-0.000016	-0.289851
C68	C	-0.640055	0.499984	0.210149
C69	C	-1.057701	-0.000010	-0.325920
C70	C	-0.557701	0.499990	0.174080
C71	C	-0.977106	-0.000004	-0.268685
C72	C	-0.477106	0.499996	0.231315
C73	C	-0.978870	-0.000007	-0.175387
C74	C	-0.478870	0.499993	0.324613
C75	C	-0.973434	-0.000000	-0.463147
C76	C	-0.473434	0.500000	0.036853
C77	C	-0.971670	0.000001	-0.556451
C78	C	-0.471670	0.500001	-0.056451
C79	C	-1.134620	-0.000009	-0.577611
C80	C	-0.634620	0.499991	-0.077611
C81	C	-1.136384	-0.000012	-0.484314
C82	C	-0.636384	0.499988	0.015686
C83	C	-1.055788	-0.000008	-0.427084
C84	C	-0.555788	0.499992	0.072916
C85	C	-1.050389	-0.000008	0.287024
C86	C	-0.550389	0.499992	0.787024
C87	C	-1.052260	-0.000002	0.386321
C88	C	-0.552260	0.499998	0.886321
H89	H	-0.785239	-0.169261	0.127833
H90	H	-0.285239	0.330739	0.627833
H91	H	-0.913245	-0.000005	-0.128792
H92	H	-0.413245	0.499995	0.371208
H93	H	-0.907804	0.000006	-0.416552
H94	H	-0.407804	0.500006	0.083448
O95	O	-1.221547	-0.000010	-0.639339
O96	O	-0.721547	0.499990	-0.139339
H97	H	-1.260937	-0.069773	-0.626521
H98	H	-0.760937	0.430227	-0.126521
H99	H	-0.497482	-0.169265	0.122392
H100	H	0.002518	0.330735	0.622392
H101	H	-0.615991	-0.169260	0.124607
H102	H	-0.115991	0.330740	0.624607
O103	O	-1.225205	-0.000024	-0.445404
O104	O	-0.725205	0.499976	0.054596
H105	H	-1.229902	0.069722	-0.403389
H106	H	-0.729902	0.569722	0.096611
O107	O	-0.315895	-0.193931	0.118991
O108	O	0.184105	0.306069	0.618991
H109	H	-0.243182	-0.178262	0.117620
H110	H	0.256818	0.321738	0.617620
H111	H	-0.910052	0.000007	-0.298059
H112	H	-0.410052	0.500007	0.201941
H113	H	-0.328240	0.169240	0.119198
H114	H	0.171760	0.669240	0.619198
O115	O	-1.230644	-0.000035	-0.157652
O116	O	-0.730644	0.499965	0.342348
H117	H	-1.235346	0.069711	-0.115638
H118	H	-0.735346	0.569711	0.384362
H119	H	-1.205679	-0.000020	-0.336444
H120	H	-0.705679	0.499980	0.163556
H121	H	-0.904610	-0.000011	-0.585815
H122	H	-0.404610	0.499989	-0.085815
O123	O	-0.509844	0.193898	0.122631
O124	O	-0.009844	0.693898	0.622631
H125	H	-0.461735	0.258767	0.121736
H126	H	0.038265	0.758767	0.621736
H127	H	-0.615998	0.169238	0.124622
H128	H	-0.115998	0.669238	0.624622
O129	O	-0.797606	0.193896	0.128064
O130	O	-0.297606	0.693896	0.628064
H131	H	-0.749497	0.258765	0.127167
H132	H	-0.249497	0.758765	0.627167
