data_functionalizedCrystal
_audit_creation_method	'MofGen! by Chris Wilmer'
_symmetry_space_group_name_H-M	'P1'
_symmetry_Int_Tables_number	1
_symmetry_cell_setting	triclinic
loop_
_symmetry_equiv_pos_as_xyz
  x,y,z
_cell_length_a	12.759400
_cell_length_b	12.759401
_cell_length_c	17.077396
_cell_angle_alpha	89.982406
_cell_angle_beta	89.974414
_cell_angle_gamma	90.013799
loop_
_atom_site_label
_atom_site_type_symbol
_atom_site_fract_x
_atom_site_fract_y
_atom_site_fract_z
Zn1	Zn	-0.418291	1.606234	-0.443819
Zn2	Zn	-0.593992	1.606135	-0.312559
Zn3	Zn	-0.418325	1.430542	-0.312571
Zn4	Zn	-0.593926	1.430524	-0.443787
O5	O	-0.506133	1.518359	-0.378184
O6	O	-0.441612	1.753242	-0.426415
O7	O	-0.570731	1.582808	-0.202714
O8	O	-0.271299	1.453897	-0.329999
O9	O	-0.570698	1.753169	-0.329979
O10	O	-0.271275	1.582977	-0.426426
O11	O	-0.441669	1.453801	-0.202722
O12	O	-0.441605	1.283519	-0.329969
O13	O	-0.570586	1.453867	-0.553638
O14	O	-0.570619	1.283506	-0.426373
O15	O	-0.441548	1.582960	-0.553661
O16	O	-0.741004	1.582791	-0.329949
O17	O	-0.740956	1.453771	-0.426361
C18	C	-0.506109	1.245391	-0.378169
C19	C	-0.506124	1.128615	-0.378181
C20	C	-0.438858	1.073729	-0.328076
C21	C	-0.438883	0.964005	-0.328086
C22	C	-0.573442	0.964062	-0.428313
C23	C	-0.573422	1.073784	-0.428299
C24	C	-0.371560	1.128559	-0.277959
C25	C	-0.304288	1.073673	-0.227850
C26	C	-0.304313	0.963949	-0.227860
C27	C	-0.371610	0.909111	-0.277979
C28	C	-0.779101	1.518296	-0.378168
C29	C	-0.895877	1.518366	-0.378187
C30	C	-0.950730	1.585621	-0.328040
C31	C	-1.060454	1.585686	-0.328065
C32	C	-1.060463	1.451231	-0.428384
C33	C	-0.950741	1.451172	-0.428363
C34	C	-0.895866	1.652815	-0.277864
C35	C	-0.950718	1.720075	-0.227713
C36	C	-1.060442	1.720139	-0.227737
C37	C	-1.115314	1.652944	-0.277912
C38	C	-0.232100	1.518450	-0.378218
C39	C	-0.115323	1.518489	-0.378232
C40	C	-0.506056	1.518422	-0.582928
C41	C	-0.506023	1.518449	-0.670178
C42	C	-0.506159	1.792392	-0.378199
C43	C	-0.506169	1.909169	-0.378206
C44	C	-0.438827	1.585671	-0.711182
C45	C	-0.438792	1.585683	-0.793162
C46	C	-0.505959	1.518479	-0.834138
C47	C	-0.573158	1.451251	-0.793128
C48	C	-0.573187	1.451234	-0.711149
C49	C	-0.573095	1.451293	-0.963999
C50	C	-0.573067	1.451311	-1.045983
C51	C	-0.438700	1.585743	-1.046011
C52	C	-0.438729	1.585725	-0.964032
C53	C	-0.505929	1.518498	-0.923029
C54	C	-0.506135	1.518356	-0.174236
C55	C	-0.505872	1.518532	-0.086987
H56	H	-0.249503	1.118329	-0.187041
C57	C	-0.364844	1.659649	-0.918959
C58	C	-0.282379	1.614134	-0.862606
C59	C	-0.208490	1.688055	-0.817533
C60	C	-0.217065	1.807492	-0.828814
C61	C	-0.299533	1.853013	-0.885169
C62	C	-0.373422	1.779092	-0.930242
H63	H	-0.276029	1.525714	-0.854253
H64	H	-0.147442	1.654357	-0.775815
H65	H	-0.162367	1.862213	-0.795448
H66	H	-0.305883	1.941433	-0.893522
H67	H	-0.434470	1.812790	-0.971960
H68	H	-0.906080	1.396408	-0.469198
H69	H	-0.384135	1.640399	-0.677825
C70	C	-0.646987	1.377424	-1.091059
C71	C	-0.720926	1.303498	-1.045961
C72	C	-0.794867	1.229631	-1.091036
C73	C	-0.794867	1.229689	-1.181210
C74	C	-0.720925	1.303618	-1.226313
C75	C	-0.646985	1.377485	-1.181237
H76	H	-0.720928	1.303453	-0.979204
H77	H	-0.849604	1.174904	-1.057647
H78	H	-0.849602	1.175008	-1.214578
H79	H	-0.720923	1.303663	-1.293069
H80	H	-0.592248	1.432212	-1.214626
C81	C	-1.120819	1.377314	-0.483569
C82	C	-1.241509	1.377374	-0.483591
C83	C	-1.301863	1.303453	-0.538775
C84	C	-1.241527	1.229472	-0.593938
C85	C	-1.120831	1.229410	-0.593919
C86	C	-1.060477	1.303330	-0.538734
H87	H	-1.286179	1.432141	-0.442754
H88	H	-1.391211	1.303500	-0.538790
H89	H	-1.286205	1.174752	-0.634789
H90	H	-1.076160	1.174642	-0.634755
H91	H	-0.971129	1.303284	-0.538720
H92	H	-0.627842	1.396528	-0.826497
H93	H	-0.628195	1.118474	-0.469100
C94	C	-0.364776	1.659692	-1.091111
C95	C	-0.364733	1.659713	-1.181285
C96	C	-0.290817	1.733665	-1.226388
C97	C	-0.216943	1.807596	-1.181318
C98	C	-0.216983	1.807578	-1.091139
C99	C	-0.290899	1.733626	-1.046036
H100	H	-0.419421	1.604982	-1.214653
H101	H	-0.290788	1.733678	-1.293145
H102	H	-0.162226	1.862340	-1.214706
H103	H	-0.162295	1.862309	-1.057771
H104	H	-0.290928	1.733613	-0.979279
C105	C	-0.647458	0.903745	-0.483447
C106	C	-0.639034	0.918892	-0.572692
C107	C	-0.713048	0.858576	-0.627829
C108	C	-0.795485	0.783113	-0.593721
C109	C	-0.803911	0.767963	-0.504471
C110	C	-0.729898	0.828278	-0.449334
H111	H	-0.578006	0.974757	-0.597946
H112	H	-0.706809	0.869792	-0.693898
H113	H	-0.850274	0.738464	-0.634537
H114	H	-0.864939	0.712097	-0.479217
H115	H	-0.736136	0.817063	-0.383265
C116	C	-0.647105	1.377295	-0.666039
C117	C	-0.638520	1.257863	-0.677297
C118	C	-0.712437	1.183920	-0.632186
C119	C	-0.794940	1.229408	-0.575818
C120	C	-0.803529	1.348846	-0.564558
C121	C	-0.729612	1.422789	-0.609668
H122	H	-0.577443	1.224185	-0.719026
H123	H	-0.706078	1.095504	-0.640522
H124	H	-0.849657	1.174671	-0.542424
H125	H	-0.864605	1.382524	-0.522828
H126	H	-0.735971	1.511205	-0.601333
C127	C	-0.647025	1.377360	-0.918887
C128	C	-0.601531	1.294881	-0.862516
C129	C	-0.675468	1.220962	-0.817400
C130	C	-0.794899	1.229524	-0.828656
C131	C	-0.840400	1.312007	-0.885029
C132	C	-0.766463	1.385925	-0.930145
H133	H	-0.513115	1.288540	-0.854181
H134	H	-0.641785	1.159903	-0.775669
H135	H	-0.849631	1.174805	-0.795258
H136	H	-0.928815	1.318348	-0.893363
H137	H	-0.800146	1.446985	-0.971876
C138	C	-0.890365	1.793991	-0.172526
C139	C	-0.769675	1.793925	-0.172495
C140	C	-0.709324	1.867845	-0.117307
C141	C	-0.769664	1.941831	-0.062151
C142	C	-0.890361	1.941900	-0.062180
C143	C	-0.950711	1.867980	-0.117367
H144	H	-0.725002	1.739153	-0.213327
H145	H	-0.619977	1.867794	-0.117286
H146	H	-0.724989	1.996551	-0.021298
H147	H	-0.935034	1.996672	-0.021348
H148	H	-1.040059	1.868032	-0.117388
H149	H	-0.371530	1.217902	-0.277947
H150	H	-0.249544	0.919263	-0.187054
H151	H	-0.371630	0.819766	-0.277979
H152	H	-0.806523	1.652767	-0.277836
H153	H	-1.204658	1.653010	-0.277934
H154	H	-1.105100	1.774913	-0.186907
H155	H	-0.384077	1.640424	-0.826544
