data_functionalizedCrystal
_audit_creation_method	'MofGen! by Chris Wilmer'
_symmetry_space_group_name_H-M	'P1'
_symmetry_Int_Tables_number	1
_symmetry_cell_setting	triclinic
loop_
_symmetry_equiv_pos_as_xyz
  x,y,z
_cell_length_a	19.077105
_cell_length_b	19.805404
_cell_length_c	19.805399
_cell_angle_alpha	89.970203
_cell_angle_beta	92.315688
_cell_angle_gamma	92.274441
loop_
_atom_site_label
_atom_site_type_symbol
_atom_site_fract_x
_atom_site_fract_y
_atom_site_fract_z
Zn1	Zn	1.075950	0.311117	0.424210
Zn2	Zn	1.325950	0.561117	0.674210
Zn3	Zn	1.575950	0.811117	0.924210
Zn4	Zn	1.825950	1.061117	1.174210
Zn5	Zn	1.075855	0.424302	0.311013
Zn6	Zn	1.325855	0.674302	0.561013
Zn7	Zn	1.575855	0.924302	0.811013
Zn8	Zn	1.825855	1.174302	1.061013
Zn9	Zn	0.958255	0.306581	0.306495
Zn10	Zn	1.208255	0.556581	0.556495
Zn11	Zn	1.458255	0.806581	0.806495
Zn12	Zn	1.708255	1.056581	1.056495
Zn13	Zn	0.958211	0.419713	0.419622
Zn14	Zn	1.208211	0.669713	0.669622
Zn15	Zn	1.458211	0.919713	0.919622
Zn16	Zn	1.708211	1.169713	1.169622
O17	O	1.017068	0.365429	0.365335
O18	O	1.267068	0.615429	0.615335
O19	O	1.517068	0.865429	0.865335
O20	O	1.767068	1.115429	1.115335
O21	O	1.174428	0.329950	0.413005
O22	O	1.424428	0.579950	0.663005
O23	O	1.674428	0.829950	0.913005
O24	O	1.924428	1.079950	1.163005
O25	O	1.060234	0.408708	0.215696
O26	O	1.310234	0.658708	0.465696
O27	O	1.560234	0.908708	0.715696
O28	O	1.810234	1.158708	0.965696
O29	O	0.973925	0.212469	0.322138
O30	O	1.223925	0.462469	0.572138
O31	O	1.473925	0.712469	0.822138
O32	O	1.723925	0.962469	1.072138
O33	O	1.174358	0.413107	0.329840
O34	O	1.424358	0.663107	0.579840
O35	O	1.674358	0.913107	0.829840
O36	O	1.924358	1.163107	1.079840
O37	O	1.060395	0.215801	0.408623
O38	O	1.310395	0.465801	0.658623
O39	O	1.560395	0.715801	0.908623
O40	O	1.810395	0.965801	1.158623
O41	O	0.973834	0.322219	0.212377
O42	O	1.223834	0.572219	0.462377
O43	O	1.473834	0.822219	0.712377
O44	O	1.723834	1.072219	0.962377
O45	O	0.859758	0.317770	0.317690
O46	O	1.109758	0.567770	0.567690
O47	O	1.359758	0.817770	0.817690
O48	O	1.609758	1.067770	1.067690
O49	O	0.973850	0.405286	0.514948
O50	O	1.223850	0.655286	0.764948
O51	O	1.473850	0.905286	1.014948
O52	O	1.723850	1.155286	1.264948
O53	O	0.859726	0.400887	0.400805
O54	O	1.109726	0.650887	0.650805
O55	O	1.359726	0.900887	0.900805
O56	O	1.609726	1.150887	1.150805
O57	O	1.060353	0.325501	0.518319
O58	O	1.310353	0.575501	0.768319
O59	O	1.560353	0.825501	1.018319
O60	O	1.810353	1.075501	1.268319
O61	O	1.060192	0.518408	0.325392
O62	O	1.310192	0.768408	0.575392
O63	O	1.560192	1.018408	0.825392
O64	O	1.810192	1.268408	1.075392
O65	O	0.973759	0.515036	0.405187
O66	O	1.223759	0.765036	0.655187
O67	O	1.473759	1.015036	0.905187
O68	O	1.723759	1.265036	1.155187
C69	C	0.834205	0.358339	0.358260
C70	C	1.084205	0.608339	0.608260
C71	C	1.334205	0.858339	0.858260
C72	C	1.584205	1.108339	1.108260
C73	C	0.755975	0.355322	0.355249
C74	C	1.005975	0.605322	0.605249
C75	C	1.255975	0.855322	0.855249
C76	C	1.505975	1.105322	1.105249
C77	C	1.016979	0.541281	0.365297
C78	C	1.266979	0.791281	0.615297
C79	C	1.516979	1.041281	0.865297
C80	C	1.766979	1.291281	1.115297
C81	C	1.017006	0.616514	0.365306
C82	C	1.267006	0.866514	0.615306
C83	C	1.517006	1.116514	0.865306
C84	C	1.767006	1.366514	1.115306
C85	C	1.017107	0.365387	0.541879
C86	C	1.267107	0.615387	0.791879
C87	C	1.517107	0.865387	1.041879
C88	C	1.767107	1.115387	1.291879
C89	C	1.017124	0.365370	0.617112
C90	C	1.267124	0.615370	0.867112
C91	C	1.517124	0.865370	1.117112
C92	C	1.767124	1.115370	1.367112
C93	C	0.719224	0.397245	0.397040
C94	C	0.969224	0.647245	0.647040
C95	C	1.219224	0.897245	0.897040
C96	C	1.469224	1.147245	1.147040
C97	C	0.645719	0.394402	0.394214
C98	C	0.895719	0.644402	0.644214
C99	C	1.145719	0.894402	0.894214
C100	C	1.395719	1.144402	1.144214
C101	C	0.608967	0.349638	0.349594
C102	C	0.858967	0.599638	0.599594
C103	C	1.108967	0.849638	0.849594
C104	C	1.358967	1.099638	1.099594
C105	C	0.645723	0.307711	0.307802
C106	C	0.895723	0.557711	0.557802
C107	C	1.145723	0.807711	0.807802
C108	C	1.395723	1.057711	1.057802
C109	C	0.719226	0.310551	0.310631
C110	C	0.969226	0.560551	0.560631
C111	C	1.219226	0.810551	0.810631
C112	C	1.469226	1.060551	1.060631
C113	C	0.389134	0.336492	0.336502
C114	C	0.639134	0.586492	0.586502
C115	C	0.889134	0.836492	0.836502
C116	C	1.139134	1.086492	1.086502
C117	C	0.315625	0.333657	0.333674
C118	C	0.565625	0.583657	0.583674
C119	C	0.815625	0.833657	0.833674
C120	C	1.065625	1.083657	1.083674
C121	C	0.315627	0.420347	0.420088
C122	C	0.565627	0.670347	0.670088
C123	C	0.815627	0.920347	0.920088
C124	C	1.065627	1.170347	1.170088
C125	C	0.389132	0.423186	0.422911
C126	C	0.639132	0.673186	0.672911
C127	C	0.889132	0.923186	0.922911
C128	C	1.139132	1.173186	1.172911
C129	C	0.425882	0.381256	0.381121
C130	C	0.675882	0.631256	0.631121
C131	C	0.925882	0.881256	0.881121
C132	C	1.175882	1.131256	1.131121
N133	N	0.533833	0.346732	0.346703
N134	N	0.783833	0.596732	0.596703
N135	N	1.033833	0.846732	0.846703
N136	N	1.283833	1.096732	1.096703
N137	N	0.501014	0.384159	0.384016
N138	N	0.751014	0.634159	0.634016
N139	N	1.001014	0.884159	0.884016
N140	N	1.251014	1.134159	1.134016
C141	C	1.200645	0.372546	0.372438
C142	C	1.450645	0.622546	0.622438
C143	C	1.700645	0.872546	0.872438
C144	C	1.950645	1.122546	1.122438
C145	C	1.278874	0.375580	0.375465
C146	C	1.528874	0.625580	0.625465
C147	C	1.778874	0.875580	0.875465
C148	C	2.028874	1.125580	1.125465
C149	C	1.017176	0.188890	0.365388
C150	C	1.267176	0.438890	0.615388
C151	C	1.517176	0.688890	0.865388
C152	C	1.767176	0.938890	1.115388
C153	C	1.017222	0.113660	0.365411
C154	C	1.267222	0.363660	0.615411
C155	C	1.517222	0.613660	0.865411
C156	C	1.767222	0.863660	1.115411
C157	C	1.062188	1.079988	0.410466
C158	C	1.312188	1.329988	0.660466
C159	C	1.562188	1.579988	0.910466
C160	C	1.812188	1.829988	1.160466
C161	C	1.062161	1.009298	0.410450
C162	C	1.312161	1.259298	0.660450
C163	C	1.562161	1.509298	0.910450
C164	C	1.812161	1.759298	1.160450
C165	C	1.017162	0.972282	0.365381
C166	C	1.267162	1.222282	0.615381
C167	C	1.517162	1.472282	0.865381
C168	C	1.767162	1.722282	1.115381
C169	C	0.972194	1.005959	0.320320
C170	C	1.222194	1.255959	0.570320
C171	C	1.472194	1.505959	0.820320
C172	C	1.722194	1.755959	1.070320
C173	C	0.972226	1.076647	0.320334
C174	C	1.222226	1.326647	0.570334
C175	C	1.472226	1.576647	0.820334
C176	C	1.722226	1.826647	1.070334
C177	C	0.972065	0.720881	0.320263
C178	C	1.222065	0.970881	0.570263
C179	C	1.472065	1.220881	0.820263
C180	C	1.722065	1.470881	1.070263
C181	C	0.972035	0.650187	0.320254
C182	C	1.222035	0.900187	0.570254
C183	C	1.472035	1.150187	0.820254
C184	C	1.722035	1.400187	1.070254
C185	C	1.062000	0.653531	0.410378
C186	C	1.312000	0.903531	0.660378
C187	C	1.562000	1.153531	0.910378
C188	C	1.812000	1.403531	1.160378
C189	C	1.062032	0.724220	0.410392
C190	C	1.312032	0.974220	0.660392
C191	C	1.562032	1.224220	0.910392
C192	C	1.812032	1.474220	1.160392
C193	C	1.017066	0.757891	0.365330
C194	C	1.267066	1.007891	0.615330
C195	C	1.517066	1.257891	0.865330
C196	C	1.767066	1.507891	1.115330
C197	C	1.017098	0.834540	0.365348
C198	C	1.267098	1.084540	0.615348
C199	C	1.517098	1.334540	0.865348
C200	C	1.767098	1.584540	1.115348
C201	C	1.017127	0.895633	0.365366
C202	C	1.267127	1.145633	0.615366
C203	C	1.517127	1.395633	0.865366
C204	C	1.767127	1.645633	1.115366
C205	C	1.017069	0.365422	0.189479
C206	C	1.267069	0.615422	0.439479
C207	C	1.517069	0.865422	0.689479
C208	C	1.767069	1.115422	0.939479
C209	C	1.017189	0.365254	0.114252
C210	C	1.267189	0.615254	0.364252
C211	C	1.517189	0.865254	0.614252
C212	C	1.767189	1.115254	0.864252
C213	C	1.062167	0.323824	0.654212
C214	C	1.312167	0.573824	0.904212
C215	C	1.562167	0.823824	1.154212
C216	C	1.812167	1.073824	1.404212
C217	C	1.062174	0.323804	0.724901
C218	C	1.312174	0.573804	0.974901
C219	C	1.562174	0.823804	1.224901
C220	C	1.812174	1.073804	1.474901
C221	C	1.017142	0.365335	0.758488
C222	C	1.267142	0.615335	1.008488
C223	C	1.517142	0.865335	1.258488
C224	C	1.767142	1.115335	1.508488
C225	C	0.972094	0.406883	0.721383
C226	C	1.222094	0.656883	0.971383
C227	C	1.472094	0.906883	1.221383
C228	C	1.722094	1.156883	1.471383
C229	C	0.972084	0.406898	0.650695
C230	C	1.222084	0.656898	0.900695
C231	C	1.472084	0.906898	1.150695
C232	C	1.722084	1.156898	1.400695
C233	C	0.972133	0.406822	1.006458
C234	C	1.222133	0.656822	1.256458
C235	C	1.472133	0.906822	1.506458
C236	C	1.722133	1.156822	1.756458
C237	C	0.972149	0.406805	1.077151
C238	C	1.222149	0.656805	1.327151
C239	C	1.472149	0.906805	1.577151
C240	C	1.722149	1.156805	1.827151
C241	C	1.062224	0.323728	1.080663
C242	C	1.312224	0.573728	1.330663
C243	C	1.562224	0.823728	1.580663
C244	C	1.812224	1.073728	1.830663
C245	C	1.062214	0.323743	1.009976
C246	C	1.312214	0.573743	1.259976
C247	C	1.562214	0.823743	1.509976
C248	C	1.812214	1.073743	1.759976
C249	C	1.017164	0.365288	0.972877
C250	C	1.267164	0.615288	1.222877
C251	C	1.517164	0.865288	1.472877
C252	C	1.767164	1.115288	1.722877
C253	C	1.017156	0.365307	0.896228
C254	C	1.267156	0.615307	1.146228
C255	C	1.517156	0.865307	1.396228
C256	C	1.767156	1.115307	1.646228
C257	C	1.017153	0.365320	0.835136
C258	C	1.267153	0.615320	1.085136
C259	C	1.517153	0.865320	1.335136
C260	C	1.767153	1.115320	1.585136
H261	H	0.749143	0.433699	0.433373
H262	H	0.999143	0.683699	0.683373
H263	H	1.249143	0.933699	0.933373
H264	H	1.499143	1.183699	1.183373
H265	H	1.098854	0.289975	0.755105
H266	H	1.348854	0.539975	1.005105
H267	H	1.598854	0.789975	1.255105
H268	H	1.848854	1.039975	1.505105
H269	H	1.098616	0.626109	0.447069
H270	H	1.348616	0.876109	0.697069
H271	H	1.598616	1.126109	0.947069
H272	H	1.848616	1.376109	1.197069
Cl273	Cl	0.915531	0.459018	1.119374
Cl274	Cl	1.165531	0.709018	1.369374
Cl275	Cl	1.415531	0.959018	1.619374
Cl276	Cl	1.665531	1.209018	1.869374
H277	H	0.419047	0.302355	0.302468
H278	H	0.669047	0.552355	0.552468
H279	H	0.919047	0.802355	0.802468
H280	H	1.169047	1.052355	1.052468
Cl281	Cl	0.915499	0.459050	0.959828
Cl282	Cl	1.165499	0.709050	1.209828
Cl283	Cl	1.415499	0.959050	1.459828
Cl284	Cl	1.665499	1.209050	1.709828
Cl285	Cl	1.118857	0.271496	1.127307
Cl286	Cl	1.368857	0.521496	1.377307
Cl287	Cl	1.618857	0.771496	1.627307
Cl288	Cl	1.868857	1.021496	1.877307
Cl289	Cl	1.118831	0.271533	0.967756
Cl290	Cl	1.368831	0.521533	1.217756
Cl291	Cl	1.618831	0.771533	1.467756
Cl292	Cl	1.868831	1.021533	1.717756
H293	H	0.935558	0.975816	0.283621
H294	H	1.185558	1.225816	0.533621
H295	H	1.435558	1.475816	0.783621
H296	H	1.685558	1.725816	1.033621
Cl297	Cl	0.915532	0.763201	0.263617
Cl298	Cl	1.165532	1.013201	0.513617
Cl299	Cl	1.415532	1.263201	0.763617
Cl300	Cl	1.665532	1.513201	1.013617
Cl301	Cl	0.915478	0.459091	0.763607
Cl302	Cl	1.165478	0.709091	1.013607
Cl303	Cl	1.415478	0.959091	1.263607
Cl304	Cl	1.665478	1.209091	1.513607
Cl305	Cl	0.599519	0.251432	0.251712
Cl306	Cl	0.849519	0.501432	0.501712
Cl307	Cl	1.099519	0.751432	0.751712
Cl308	Cl	1.349519	1.001432	1.001712
Cl309	Cl	0.765428	0.257844	0.258093
Cl310	Cl	1.015428	0.507844	0.508093
Cl311	Cl	1.265428	0.757844	0.758093
Cl312	Cl	1.515428	1.007844	1.008093
H313	H	1.098824	1.110121	0.447174
H314	H	1.348824	1.360121	0.697174
H315	H	1.598824	1.610121	0.947174
H316	H	1.848824	1.860121	1.197174
H317	H	0.615800	0.428541	0.428244
H318	H	0.865800	0.678541	0.678244
H319	H	1.115800	0.928541	0.928244
H320	H	1.365800	1.178541	1.178244
Cl321	Cl	0.915697	1.118978	0.263688
Cl322	Cl	1.165697	1.368978	0.513688
Cl323	Cl	1.415697	1.618978	0.763688
Cl324	Cl	1.665697	1.868978	1.013688
Cl325	Cl	0.915454	0.459128	0.604055
Cl326	Cl	1.165454	0.709128	0.854055
Cl327	Cl	1.415454	0.959128	1.104055
Cl328	Cl	1.665454	1.209128	1.354055
H329	H	1.098776	0.981883	0.447137
H330	H	1.348776	1.231883	0.697137
H331	H	1.598776	1.481883	0.947137
H332	H	1.848776	1.731883	1.197137
H333	H	0.419051	0.459639	0.459244
H334	H	0.669051	0.709639	0.709244
H335	H	0.919051	0.959639	0.959244
H336	H	1.169051	1.209639	1.209244
H337	H	0.285703	0.297197	0.297343
H338	H	0.535703	0.547197	0.547343
H339	H	0.785703	0.797197	0.797343
H340	H	1.035703	1.047197	1.047343
Cl341	Cl	1.118598	0.770751	0.467057
Cl342	Cl	1.368598	1.020751	0.717057
Cl343	Cl	1.618598	1.270751	0.967057
Cl344	Cl	1.868598	1.520751	1.217057
Cl345	Cl	1.118786	0.271614	0.611995
Cl346	Cl	1.368786	0.521614	0.861995
Cl347	Cl	1.618786	0.771614	1.111995
Cl348	Cl	1.868786	1.021614	1.361995
H349	H	0.935391	0.620050	0.283550
H350	H	1.185391	0.870050	0.533550
H351	H	1.435391	1.120050	0.783550
H352	H	1.685391	1.370050	1.033550
Cl353	Cl	0.269424	0.473056	0.472620
Cl354	Cl	0.519424	0.723056	0.722620
Cl355	Cl	0.769424	0.973056	0.972620
Cl356	Cl	1.019424	1.223056	1.222620
