data_functionalizedCrystal
_audit_creation_method	'MofGen! by Chris Wilmer'
_symmetry_space_group_name_H-M	'P1'
_symmetry_Int_Tables_number	1
_symmetry_cell_setting	triclinic
loop_
_symmetry_equiv_pos_as_xyz
  x,y,z
_cell_length_a	12.759395
_cell_length_b	21.295417
_cell_length_c	12.759387
_cell_angle_alpha	90.037489
_cell_angle_beta	90.020509
_cell_angle_gamma	90.031239
loop_
_atom_site_label
_atom_site_type_symbol
_atom_site_fract_x
_atom_site_fract_y
_atom_site_fract_z
Zn1	Zn	1.606159	-0.250550	0.593956
Zn2	Zn	1.606004	-0.355833	0.418256
Zn3	Zn	1.430457	-0.250585	0.418293
Zn4	Zn	1.430404	-0.355788	0.593895
O5	O	1.518256	-0.303189	0.506100
O6	O	1.753160	-0.264521	0.570659
O7	O	1.582675	-0.341905	0.271240
O8	O	1.453852	-0.162491	0.441636
O9	O	1.753045	-0.341871	0.441573
O10	O	1.582939	-0.162465	0.570695
O11	O	1.453701	-0.264579	0.271267
O12	O	1.283429	-0.264536	0.441577
O13	O	1.453761	-0.341795	0.740925
O14	O	1.283390	-0.341828	0.570591
O15	O	1.582887	-0.264477	0.740969
O16	O	1.582623	-0.443917	0.441514
O17	O	1.453610	-0.443884	0.570555
C18	C	1.245289	-0.303181	0.506082
C19	C	1.128512	-0.303193	0.506099
C20	C	1.128509	-0.383808	0.640224
C21	C	1.073647	-0.424121	0.707290
C22	C	0.963926	-0.424129	0.707303
C23	C	0.909064	-0.383818	0.640245
C24	C	0.963926	-0.343506	0.573180
C25	C	1.073650	-0.343504	0.573172
C26	C	0.963928	-0.262888	0.439061
C27	C	1.073650	-0.262883	0.439042
C28	C	0.909066	-0.222578	0.372004
C29	C	0.963928	-0.182267	0.304931
C30	C	1.073656	-0.182262	0.304920
C31	C	1.128512	-0.222570	0.371976
C32	C	1.518122	-0.466741	0.506047
C33	C	1.518161	-0.536709	0.506059
C34	C	1.585338	-0.569505	0.573308
C35	C	1.585375	-0.635248	0.573334
C36	C	1.518246	-0.668191	0.506092
C37	C	1.451056	-0.635387	0.438839
C38	C	1.451013	-0.569646	0.438822
N39	N	1.510305	-0.771460	0.414146
N40	N	1.510352	-0.833911	0.414165
C41	C	1.518369	-0.866266	0.506140
N42	N	1.526358	-0.833810	0.598098
N43	N	1.526317	-0.771353	0.598078
C44	C	1.518284	-0.739477	0.506103
C45	C	1.585590	-0.970348	0.573423
C46	C	1.585620	-1.036092	0.573450
C47	C	1.451306	-1.036230	0.438945
C48	C	1.451270	-0.970487	0.438927
C49	C	1.518418	-0.937550	0.506164
C50	C	1.792289	-0.303197	0.506119
C51	C	1.909066	-0.303201	0.506127
C52	C	1.518335	-0.303127	0.780134
C53	C	1.518369	-0.303101	0.896911
C54	C	1.518419	-0.138999	0.506177
C55	C	1.518489	-0.069031	0.506209
C56	C	1.518237	-0.303205	0.233133
C57	C	1.518407	-0.303054	0.116357
C58	C	1.652838	-0.222595	0.896977
C59	C	1.720087	-0.182333	0.951871
C60	C	1.720113	-0.182310	1.061593
C61	C	1.652880	-0.222552	1.116423
C62	C	1.585631	-0.262815	1.061529
C63	C	1.585615	-0.262835	0.951805
C64	C	1.451158	-0.343316	1.061462
C65	C	1.451136	-0.343344	0.951741
C66	C	1.383925	-0.383559	1.116293
C67	C	1.316680	-0.423825	1.061399
C68	C	1.316658	-0.423847	0.951670
C69	C	1.383887	-0.383606	0.896847
H70	H	0.819722	-0.383822	0.640271
H71	H	1.640011	-0.542690	0.628059
H72	H	1.217850	-0.383811	0.640213
C73	C	0.788369	-0.222581	0.372030
N74	N	0.697459	-0.222583	0.372049
C75	C	0.903573	-0.137929	0.231179
N76	N	0.858110	-0.104534	0.175626
C77	C	1.659529	-1.072167	0.647429
N78	N	1.715203	-1.099340	0.703147
H79	H	1.396396	-0.662214	0.384092
C80	C	1.242675	-0.468139	0.891295
N81	N	1.186951	-0.501501	0.845825
C82	C	1.659283	-0.671331	0.647312
N83	N	1.714953	-0.698507	0.703030
C84	C	0.903576	-0.468475	0.781077
N85	N	0.858120	-0.501877	0.836642
H86	H	1.118319	-0.149430	0.250315
C87	C	1.377448	-1.072464	0.364993
N88	N	1.321810	-1.099759	0.309296
H89	H	1.217853	-0.222571	0.371971
C90	C	1.377105	-0.533569	0.364844
N91	N	1.321436	-0.506395	0.309123
H92	H	1.640263	-0.943529	0.628175
C93	C	1.794039	-0.138067	0.891550
N94	N	1.849738	-0.104726	0.846119
C95	C	1.377363	-0.934410	0.364953
N96	N	1.321686	-0.907237	0.309239
H97	H	1.774866	-0.149521	1.106287
C98	C	1.652823	-0.222621	0.776280
N99	N	1.652813	-0.222639	0.685370
C100	C	1.383964	-0.383538	1.236990
N101	N	1.383998	-0.383526	1.327900
C102	C	1.242723	-0.468082	1.121718
N103	N	1.187018	-0.501416	1.167155
C104	C	1.383868	-0.383625	0.776150
N105	N	1.383852	-0.383635	0.685239
H106	H	1.652898	-0.222525	1.205764
H107	H	1.118328	-0.456940	0.761888
