data_functionalizedCrystal
_audit_creation_method	'MofGen! by Chris Wilmer'
_symmetry_space_group_name_H-M	'P1'
_symmetry_Int_Tables_number	1
_symmetry_cell_setting	triclinic
loop_
_symmetry_equiv_pos_as_xyz
  x,y,z
_cell_length_a	20.919287
_cell_length_b	21.606444
_cell_length_c	21.606444
_cell_angle_alpha	59.990220
_cell_angle_beta	86.843416
_cell_angle_gamma	58.215598
loop_
_atom_site_label
_atom_site_type_symbol
_atom_site_fract_x
_atom_site_fract_y
_atom_site_fract_z
Zr1	Zr	0.616758	0.677515	-0.114208
O2	O	0.514533	0.806647	-0.207607
O3	O	0.648094	0.548384	-0.085561
O4	O	0.648096	0.677517	-0.214704
O5	O	0.514531	0.677511	0.023389
O6	O	0.753453	0.677518	-0.220319
O7	O	0.514532	0.677514	-0.078464
O8	O	0.753450	0.446522	0.010694
O9	O	0.514534	0.908507	-0.207624
O10	O	0.740087	0.601497	-0.077552
O11	O	0.661459	0.601495	0.002650
O12	O	0.661461	0.753533	-0.149399
O13	O	0.582834	0.753531	-0.069196
Zr14	Zr	0.784789	0.677512	0.039280
Zr15	Zr	0.784790	0.677516	-0.123164
Zr16	Zr	0.616757	0.677511	0.048236
Zr17	Zr	0.616758	0.839970	-0.114235
Zr18	Zr	0.784788	0.515057	0.039308
O19	O	0.753452	0.806643	0.010633
O20	O	0.753454	0.806648	-0.220341
O21	O	0.514532	0.806641	0.023368
O22	O	0.887013	0.548380	0.132679
O23	O	0.887015	0.548385	-0.098295
O24	O	0.648093	0.548379	0.145414
O25	O	0.887016	0.677516	-0.098317
O26	O	0.753451	0.677509	0.139776
O27	O	0.648094	0.677509	0.145392
O28	O	0.887015	0.677513	0.003536
O29	O	0.648097	0.908508	-0.214743
O30	O	0.753449	0.446519	0.139815
O31	O	0.887013	0.446520	0.132696
O32	O	0.887014	0.446523	0.003575
O33	O	0.514533	0.908504	-0.078503
O34	O	0.648096	0.908505	-0.085621
O35	O	0.740086	0.601494	0.074471
O36	O	0.818713	0.601496	-0.005731
O37	O	0.740087	0.753532	-0.077578
O38	O	0.661460	0.753529	0.002625
C39	C	0.700772	0.474307	-0.037430
C40	C	0.700772	0.405340	-0.037418
C41	C	0.642728	0.429076	-0.090452
C42	C	0.642730	0.364287	-0.090468
C43	C	0.700773	0.275762	-0.037446
C44	C	0.758823	0.252027	0.015591
C45	C	0.758823	0.316815	0.015603
C46	C	0.758823	-0.009260	0.015543
C47	C	0.758816	-0.074049	0.015529
C48	C	0.642729	0.038212	-0.090527
C49	C	0.642729	0.103000	-0.090516
C50	C	0.700781	0.079259	-0.037482
C51	C	0.700779	0.149512	-0.037466
C52	C	0.700773	0.205510	-0.037458
C53	C	0.490590	0.677512	-0.026261
C54	C	0.419256	0.677512	-0.022459
C55	C	0.385743	0.677516	-0.076786
C56	C	0.318719	0.677511	-0.073210
C57	C	0.285207	0.677509	-0.015310
C58	C	0.318726	0.677502	0.039023
C59	C	0.385751	0.677501	0.035449
C60	C	0.082835	0.677507	-0.001710
C61	C	0.015803	0.677511	0.001859
C62	C	0.015803	0.677518	-0.110374
C63	C	0.082827	0.677522	-0.113945
C64	C	0.116342	0.677511	-0.059611
C65	C	0.216696	0.677506	-0.011654
C66	C	0.184855	0.677507	-0.063263
C67	C	0.910956	0.677514	-0.048666
C68	C	0.982290	0.677515	-0.052468
C69	C	0.700775	0.677518	-0.240656
C70	C	0.700775	0.677520	-0.309618
C71	C	0.700774	0.880720	-0.037498
C72	C	0.700775	0.949687	-0.037509
C73	C	0.758817	0.677522	-0.345110
C74	C	0.758819	0.677516	-0.409903
C75	C	0.700776	0.677514	-0.439206
C76	C	0.642731	0.677509	-0.403708
C77	C	0.642732	0.677509	-0.338914
C78	C	0.642724	0.677508	-0.665018
C79	C	0.642726	0.677511	-0.729819
C80	C	0.758811	0.677515	-0.736008
C81	C	0.758813	0.677515	-0.671213
C82	C	0.700770	0.677506	-0.635719
C83	C	0.700769	0.677511	-0.565462
C84	C	0.700773	0.677515	-0.509465
C85	C	0.700772	0.677509	0.165729
C86	C	0.700772	0.677507	0.234691
C87	C	0.910955	0.474308	-0.048632
C88	C	0.982289	0.405342	-0.052423
C89	C	0.700771	0.474302	0.165763
C90	C	0.700770	0.405334	0.234736
C91	C	0.910954	0.474303	0.154561
C92	C	0.982287	0.405335	0.219732
C93	C	0.490593	0.880724	-0.229488
C94	C	0.419259	0.949692	-0.294659
C95	C	0.490591	0.880719	-0.026295
C96	C	0.419258	0.949685	-0.022505
C97	C	0.700776	0.880725	-0.240691
C98	C	0.700777	0.949693	-0.309664
C99	C	0.974746	0.372955	-0.091699
C100	C	1.041765	0.308163	-0.095276
C101	C	1.116327	0.275754	-0.059570
C102	C	1.123868	0.308147	-0.020292
C103	C	1.056850	0.372943	-0.016721
C104	C	0.741812	0.372945	0.304624
C105	C	0.741808	0.308151	0.369438
C106	C	0.700767	0.275743	0.364363
C107	C	0.659720	0.308138	0.294468
C108	C	0.659719	0.372935	0.229656
C109	C	1.056836	0.372948	0.208472
C110	C	1.123867	0.308155	0.269700
C111	C	1.116349	0.275745	0.342189
C112	C	1.041792	0.308138	0.353448
C113	C	0.974762	0.372935	0.292220
C114	C	0.344711	0.982086	-0.283399
C115	C	0.277679	1.046900	-0.344628
C116	C	0.285198	1.079313	-0.417116
C117	C	0.359754	1.046916	-0.428375
C118	C	0.426784	0.982108	-0.367147
C119	C	0.426801	0.982078	0.016765
C120	C	0.359782	1.046888	0.020324
C121	C	0.285220	1.079299	-0.015384
C122	C	0.277678	1.046903	-0.054659
C123	C	0.344697	0.982099	-0.058221
C124	C	0.741826	0.982081	-0.304565
C125	C	0.741842	1.046875	-0.369367
C126	C	0.700804	1.079285	-0.439268
C127	C	0.659753	1.046891	-0.444365
C128	C	0.659742	0.982093	-0.379564
H129	H	0.595462	0.175080	-0.133689
H130	H	0.806080	0.677529	-0.321259
Br131	Br	0.837584	0.677524	-0.631450
H132	H	1.063002	0.399303	0.015267
Br133	Br	0.563962	0.677498	-0.290742
H134	H	0.291434	0.677513	-0.117447
H135	H	0.110112	0.677524	-0.161092
H136	H	0.775233	0.399324	0.308770
Br137	Br	0.604054	1.090893	-0.539236
Br138	Br	0.273252	0.677490	0.117609
H139	H	0.700819	1.132047	-0.492027
H140	H	0.626301	0.399298	0.172753
Br141	Br	0.563960	0.677497	-0.443470
H142	H	0.806075	0.677518	-0.764913
Br143	Br	0.797527	0.938111	-0.209709
Br144	Br	0.369945	1.090913	-0.526758
H145	H	0.413038	0.677496	0.079689
Br146	Br	0.797554	1.090828	-0.362432
H147	H	1.035609	0.281797	-0.127260
H148	H	0.806085	-0.146133	0.058708
Br149	Br	0.176481	1.090897	-0.103113
Br150	Br	-0.029677	0.677514	0.080443
H151	H	0.338544	0.955726	-0.090197
Br152	Br	0.837602	-0.041488	0.087523
Br153	Br	0.873592	0.416877	0.307515
Br154	Br	1.207273	0.187817	-0.064425
Br155	Br	1.031602	0.264144	0.451830
Br156	Br	0.563951	0.396505	-0.162445
Br157	Br	0.194219	1.167269	-0.500205
Br158	Br	0.194273	1.167249	-0.010542
Br159	Br	0.370035	1.090838	0.073630
Br160	Br	0.797520	0.264199	0.464284
Br161	Br	1.207327	0.187805	0.425277
Br162	Br	0.604019	0.938153	-0.386497
Br163	Br	0.176506	1.090852	-0.329330
H164	H	1.062972	0.399327	0.149453
Br165	Br	0.563943	0.070430	-0.162504
H166	H	0.595458	0.677508	-0.753676
Br167	Br	0.563954	0.677499	-0.616852
Br168	Br	0.837594	0.677514	-0.458071
Br169	Br	0.837601	0.131886	0.087547
H170	H	0.338574	0.955699	-0.224381
Br171	Br	0.527955	0.938147	-0.382443
H172	H	0.595454	0.501155	-0.133621
H173	H	1.184568	0.281787	0.260520
Br174	Br	0.873564	0.416926	-0.140166
H175	H	0.806089	0.297483	0.058789
Br176	Br	0.431213	0.677528	-0.155375
H177	H	0.700773	0.222981	0.417143
Br178	Br	-0.029684	0.677530	-0.184109
H179	H	1.184585	0.281751	0.008777
H180	H	0.487506	0.955694	0.045848
Br181	Br	0.128316	0.677495	0.072027
Br182	Br	0.230341	0.677502	-0.141837
Br183	Br	0.604025	0.264146	0.287593
H184	H	0.189403	0.677507	0.035489
