data_functionalizedCrystal
_audit_creation_method	'MofGen! by Chris Wilmer'
_symmetry_space_group_name_H-M	'P1'
_symmetry_Int_Tables_number	1
_symmetry_cell_setting	triclinic
loop_
_symmetry_equiv_pos_as_xyz
  x,y,z
_cell_length_a	16.959455
_cell_length_b	21.295417
_cell_length_c	21.295420
_cell_angle_alpha	90.017552
_cell_angle_beta	90.014326
_cell_angle_gamma	90.027454
loop_
_atom_site_label
_atom_site_type_symbol
_atom_site_fract_x
_atom_site_fract_y
_atom_site_fract_z
Zn1	Zn	1.208326	-0.250758	0.355892
Zn2	Zn	1.541660	0.082576	0.689225
Zn3	Zn	1.874993	0.415909	1.022559
Zn4	Zn	1.208225	-0.356002	0.250617
Zn5	Zn	1.541558	-0.022669	0.583951
Zn6	Zn	1.874892	0.310665	0.917284
Zn7	Zn	1.076155	-0.250745	0.250639
Zn8	Zn	1.409488	0.082588	0.583972
Zn9	Zn	1.742822	0.415922	0.917306
Zn10	Zn	1.076095	-0.355987	0.355851
Zn11	Zn	1.409429	-0.022654	0.689185
Zn12	Zn	1.742762	0.310679	1.022518
O13	O	1.142200	-0.303373	0.303250
O14	O	1.475534	0.029960	0.636583
O15	O	1.808867	0.363294	0.969917
O16	O	1.318924	-0.264730	0.341935
O17	O	1.652257	0.068603	0.675268
O18	O	1.985590	0.401937	1.008602
O19	O	1.190688	-0.342040	0.162531
O20	O	1.524021	-0.008707	0.495864
O21	O	1.857355	0.324626	0.829198
O22	O	1.093755	-0.162657	0.264627
O23	O	1.427088	0.170676	0.597961
O24	O	1.760422	0.504009	0.931294
O25	O	1.318849	-0.342053	0.264590
O26	O	1.652183	-0.008719	0.597924
O27	O	1.985516	0.324614	0.931257
O28	O	1.190861	-0.162667	0.341956
O29	O	1.524194	0.170667	0.675289
O30	O	1.857528	0.504000	1.008623
O31	O	1.093657	-0.264708	0.162547
O32	O	1.426990	0.068625	0.495880
O33	O	1.760323	0.401958	0.829214
O34	O	0.965536	-0.264694	0.264588
O35	O	1.298869	0.068639	0.597921
O36	O	1.632203	0.401972	0.931254
O37	O	1.093654	-0.342028	0.443946
O38	O	1.426987	-0.008694	0.777279
O39	O	1.760321	0.324639	1.110613
O40	O	0.965492	-0.342015	0.341887
O41	O	1.298826	-0.008682	0.675220
O42	O	1.632159	0.324651	1.008553
O43	O	1.190803	-0.264716	0.443976
O44	O	1.524137	0.068618	0.777309
O45	O	1.857470	0.401951	1.110643
O46	O	1.190630	-0.444089	0.264551
O47	O	1.523964	-0.110756	0.597884
O48	O	1.857297	0.222577	0.931217
O49	O	1.093555	-0.444079	0.341866
O50	O	1.426889	-0.110745	0.675199
O51	O	1.760222	0.222588	1.008532
C52	C	0.936834	-0.303352	0.303236
C53	C	1.270167	0.029981	0.636569
C54	C	1.603501	0.363314	0.969902
C55	C	0.848978	-0.303358	0.303244
C56	C	1.182311	0.029975	0.636578
C57	C	1.515644	0.363308	0.969911
C58	C	1.142097	-0.466925	0.303215
C59	C	1.475430	-0.133591	0.636548
C60	C	1.808763	0.199742	0.969882
C61	C	1.142125	-0.536893	0.303221
C62	C	1.475458	-0.203559	0.636555
C63	C	1.808791	0.129774	0.969888
C64	C	0.477500	-0.263079	0.263084
C65	C	0.810834	0.070254	0.596418
C66	C	1.144167	0.403588	0.929751
C67	C	0.477504	-0.343719	0.343451
C68	C	0.810837	-0.010385	0.676785
C69	C	1.144170	0.322948	1.010118
C70	C	0.560049	-0.343710	0.343448
C71	C	0.893383	-0.010376	0.676781
C72	C	1.226716	0.322957	1.010114
C73	C	0.601325	-0.303385	0.303261
C74	C	0.934658	0.029948	0.636594
C75	C	1.267991	0.363281	0.969928
C76	C	0.560054	-0.263070	0.263078
C77	C	0.893387	0.070263	0.596411
C78	C	1.226720	0.403597	0.929745
C79	C	0.601326	-0.384029	0.383625
C80	C	0.934660	-0.050696	0.716958
C81	C	1.267993	0.282638	1.050292
C82	C	0.683877	-0.384022	0.383622
C83	C	1.017211	-0.050689	0.716956
C84	C	1.350544	0.282645	1.050289
C85	C	0.725154	-0.343694	0.343438
C86	C	1.058487	-0.010361	0.676772
C87	C	1.391821	0.322973	1.010105
C88	C	0.683878	-0.303376	0.303254
C89	C	1.017211	0.029957	0.636588
C90	C	1.350545	0.363290	0.969921
C91	C	0.725153	-0.263052	0.263068
C92	C	1.058487	0.070281	0.596401
C93	C	1.391820	0.403615	0.929735
C94	C	0.683879	-0.222731	0.222887
C95	C	1.017212	0.110602	0.556220
C96	C	1.350546	0.443936	0.889553
C97	C	0.601330	-0.222742	0.222894
C98	C	0.934664	0.110591	0.556227
C99	C	1.267997	0.443925	0.889561
C100	C	0.807702	-0.343683	0.343431
C101	C	1.141036	-0.010350	0.676764
C102	C	1.474369	0.322984	1.010098
C103	C	0.807707	-0.263043	0.263061
C104	C	1.141040	0.070290	0.596395
C105	C	1.474373	0.403624	0.929728
C106	C	1.192717	-0.569744	0.263005
C107	C	1.526050	-0.236411	0.596338
C108	C	1.859383	0.096923	0.929671
C109	C	1.192754	-0.635487	0.263019
C110	C	1.526087	-0.302153	0.596352
C111	C	1.859420	0.031180	0.929685
C112	C	1.142185	-0.668375	0.303243
C113	C	1.475518	-0.335042	0.636576
C114	C	1.808851	-0.001709	0.969910
C115	C	1.091589	-0.635516	0.343467
C116	C	1.424923	-0.302183	0.676801
C117	C	1.758256	0.031151	1.010134
C118	C	1.091559	-0.569775	0.343456
C119	C	1.424893	-0.236441	0.676790
C120	C	1.758226	0.096892	1.010123
N121	N	1.073038	-0.771639	0.308037
N122	N	1.406371	-0.438306	0.641370
N123	N	1.739705	-0.104973	0.974704
N124	N	1.073069	-0.834091	0.308044
N125	N	1.406402	-0.500757	0.641377
N126	N	1.739735	-0.167424	0.974710
C127	C	1.142273	-0.866450	0.303279
C128	C	1.475607	-0.533117	0.636612
C129	C	1.808940	-0.199783	0.969946
N130	N	1.211447	-0.833998	0.298495
N131	N	1.544781	-0.500665	0.631829
N132	N	1.878114	-0.167332	0.965162
N133	N	1.211416	-0.771541	0.298485
N134	N	1.544749	-0.438208	0.631819
N135	N	1.878083	-0.104875	0.965152
C136	C	1.142212	-0.739661	0.303259
C137	C	1.475545	-0.406327	0.636593
C138	C	1.808879	-0.072994	0.969926
C139	C	1.192910	-0.970587	0.263076
C140	C	1.526243	-0.637253	0.596409
C141	C	1.859576	-0.303920	0.929742
C142	C	1.192948	-1.036330	0.263094
C143	C	1.526281	-0.702997	0.596428
C144	C	1.859615	-0.369664	0.929761
C145	C	1.091777	-1.036359	0.343539
C146	C	1.425110	-0.703025	0.676873
C147	C	1.758443	-0.369692	1.010206
C148	C	1.091745	-0.970616	0.343524
C149	C	1.425079	-0.637283	0.676857
C150	C	1.758412	-0.303949	1.010191
C151	C	1.142311	-0.937734	0.303289
C152	C	1.475644	-0.604401	0.636622
C153	C	1.808977	-0.271067	0.969956
C154	C	1.348369	-0.303394	0.303265
C155	C	1.681702	0.029939	0.636598
C156	C	2.015035	0.363272	0.969931
C157	C	1.436225	-0.303403	0.303271
C158	C	1.769559	0.029930	0.636604
C159	C	2.102892	0.363263	0.969938
C160	C	1.142233	-0.303371	0.467440
C161	C	1.475567	0.029962	0.800774
C162	C	1.808900	0.363295	1.134107
C163	C	1.142247	-0.303371	0.537408
C164	C	1.475581	0.029963	0.870742
C165	C	1.808914	0.363296	1.204075
C166	C	1.142326	-0.139183	0.303299
C167	C	1.475659	0.194151	0.636632
C168	C	1.808993	0.527484	0.969965
C169	C	1.142379	-0.069215	0.303319
C170	C	1.475713	0.264119	0.636653
C171	C	1.809046	0.597452	0.969986
C172	C	1.091731	-0.263107	0.570273
C173	C	1.425064	0.070226	0.903607
C174	C	1.758397	0.403560	1.236940
C175	C	1.091716	-0.263110	0.636016
C176	C	1.425050	0.070223	0.969349
C177	C	1.758383	0.403556	1.302683
C178	C	1.142233	-0.303371	0.668891
C179	C	1.475566	0.029963	1.002224
C180	C	1.808899	0.363296	1.335557
C181	C	1.192753	-0.343642	0.636018
C182	C	1.526086	-0.010309	0.969351
C183	C	1.859419	0.323024	1.302684
C184	C	1.192760	-0.343642	0.570277
C185	C	1.526093	-0.010309	0.903610
C186	C	1.859427	0.323024	1.236943
N187	N	1.211407	-0.308205	0.772128
N188	N	1.544741	0.025128	1.105461
N189	N	1.878074	0.358462	1.438795
N190	N	1.211398	-0.308201	0.834579
N191	N	1.544731	0.025132	1.167913
N192	N	1.878065	0.358465	1.501246
C193	C	1.142212	-0.303374	0.866966
C194	C	1.475546	0.029959	1.200299
C195	C	1.808879	0.363292	1.533632
N196	N	1.073035	-0.298539	0.834541
N197	N	1.406368	0.034795	1.167874
N198	N	1.739701	0.368128	1.501208
N199	N	1.073045	-0.298539	0.772084
N200	N	1.406378	0.034794	1.105417
N201	N	1.739711	0.368128	1.438750
C202	C	1.142230	-0.303376	0.740176
C203	C	1.475563	0.029958	1.073509
C204	C	1.808897	0.363291	1.406843
C205	C	1.091676	-0.263112	0.971116
C206	C	1.425009	0.070221	1.304449
C207	C	1.758343	0.403555	1.637783
C208	C	1.091660	-0.263120	1.036860
C209	C	1.424993	0.070214	1.370193
C210	C	1.758327	0.403547	1.703526
C211	C	1.192703	-0.343649	1.036861
C212	C	1.526037	-0.010315	1.370194
C213	C	1.859370	0.323018	1.703527
C214	C	1.192712	-0.343644	0.971118
C215	C	1.526045	-0.010311	1.304451
C216	C	1.859379	0.323023	1.637785
C217	C	1.142199	-0.303372	0.938250
C218	C	1.475533	0.029961	1.271583
C219	C	1.808866	0.363294	1.604916
C220	C	1.142169	-0.303387	1.139698
C221	C	1.475502	0.029947	1.473032
C222	C	1.808835	0.363280	1.806365
C223	C	1.142176	-0.303381	1.069730
C224	C	1.475509	0.029952	1.403064
C225	C	1.808843	0.363285	1.736397
H226	H	0.841307	-0.230202	0.230340
H227	H	1.174640	0.103132	0.563673
H228	H	1.507974	0.436465	0.897007
Cl229	Cl	1.256296	-0.528410	0.212432
Cl230	Cl	1.589629	-0.195077	0.545766
Cl231	Cl	1.922963	0.138257	0.879099
Cl232	Cl	0.735758	-0.434708	0.434137
Cl233	Cl	1.069091	-0.101375	0.767470
Cl234	Cl	1.402424	0.231958	1.100803
H235	H	1.233883	-0.376423	0.662789
H236	H	1.567216	-0.043090	0.996122
H237	H	1.900550	0.290244	1.329455
H238	H	1.050361	-0.543026	0.376206
H239	H	1.383694	-0.209693	0.709540
H240	H	1.717027	0.123640	1.042873
Cl241	Cl	0.859587	-0.394372	0.393936
Cl242	Cl	1.192920	-0.061038	0.727270
Cl243	Cl	1.526253	0.272295	1.060603
H244	H	1.234086	-0.943813	0.230316
H245	H	1.567419	-0.610480	0.563649
H246	H	1.900752	-0.277147	0.896982
H247	H	1.233954	-0.662239	0.230270
H248	H	1.567288	-0.328906	0.563603
H249	H	1.900621	0.004427	0.896936
H250	H	0.717496	-0.189902	0.190164
H251	H	1.050829	0.143432	0.523497
H252	H	1.384162	0.476765	0.856831
Cl253	Cl	0.425614	-0.394423	0.393955
Cl254	Cl	0.758948	-0.061089	0.727289
Cl255	Cl	1.092281	0.272244	1.060622
Cl256	Cl	0.549435	-0.434739	0.434122
Cl257	Cl	0.882768	-0.101405	0.767455
Cl258	Cl	1.216102	0.231928	1.100788
H259	H	1.234151	-1.063077	0.230346
H260	H	1.567484	-0.729744	0.563680
H261	H	1.900817	-0.396410	0.897013
H262	H	1.050606	-1.063136	0.376293
H263	H	1.383939	-0.729802	0.709627
H264	H	1.717273	-0.396469	1.042960
Cl265	Cl	1.028225	-0.212483	0.528957
Cl266	Cl	1.361559	0.120850	0.862290
Cl267	Cl	1.694892	0.454184	1.195623
Cl268	Cl	1.028171	-0.212490	0.929793
Cl269	Cl	1.361504	0.120843	1.263126
Cl270	Cl	1.694838	0.454177	1.596460
Cl271	Cl	1.028021	-0.676861	0.394038
Cl272	Cl	1.361354	-0.343527	0.727371
Cl273	Cl	1.694687	-0.010194	1.060704
Cl274	Cl	1.028137	-0.929315	0.394082
Cl275	Cl	1.361470	-0.595982	0.727416
Cl276	Cl	1.694803	-0.262648	1.060749
H277	H	1.050581	-0.230320	0.662780
H278	H	1.383914	0.103014	0.996113
H279	H	1.717248	0.436347	1.329446
H280	H	1.233836	-0.376428	1.063627
H281	H	1.567170	-0.043095	1.396960
H282	H	1.900503	0.290239	1.730293
Cl283	Cl	1.256273	-0.394263	0.528958
Cl284	Cl	1.589607	-0.060929	0.862292
Cl285	Cl	1.922940	0.272404	1.195625
Cl286	Cl	0.549438	-0.172058	0.172385
Cl287	Cl	0.882772	0.161275	0.505718
Cl288	Cl	1.216105	0.494608	0.839052
H289	H	0.443891	-0.230249	0.230372
H290	H	0.777224	0.103085	0.563705
H291	H	1.110558	0.436418	0.897038
Cl292	Cl	1.028125	-0.212516	1.078177
Cl293	Cl	1.361458	0.120818	1.411510
Cl294	Cl	1.694792	0.454151	1.744843
Cl295	Cl	1.256228	-0.394260	0.929800
Cl296	Cl	1.589561	-0.060927	1.263133
Cl297	Cl	1.922895	0.272407	1.596466
