data_functionalizedCrystal
_audit_creation_method	'MofGen! by Chris Wilmer'
_symmetry_space_group_name_H-M	'P1'
_symmetry_Int_Tables_number	1
_symmetry_cell_setting	triclinic
loop_
_symmetry_equiv_pos_as_xyz
  x,y,z
_cell_length_a	18.215407
_cell_length_b	18.215405
_cell_length_c	12.759393
_cell_angle_alpha	89.962431
_cell_angle_beta	89.980188
_cell_angle_gamma	90.019398
loop_
_atom_site_label
_atom_site_type_symbol
_atom_site_fract_x
_atom_site_fract_y
_atom_site_fract_z
Zn1	Zn	1.125086	-0.293049	-0.593974
Zn2	Zn	1.124991	-0.416135	-0.418276
Zn3	Zn	1.002015	-0.293075	-0.418310
Zn4	Zn	1.001985	-0.416066	-0.593913
O5	O	1.063519	-0.354581	-0.506118
O6	O	1.228058	-0.309394	-0.570679
O7	O	1.108650	-0.399851	-0.271259
O8	O	1.018393	-0.190087	-0.441652
O9	O	1.227988	-0.399825	-0.441594
O10	O	1.108813	-0.190068	-0.570712
O11	O	1.018300	-0.309439	-0.271284
O12	O	0.899027	-0.309372	-0.441593
O13	O	1.018342	-0.399708	-0.740943
O14	O	0.899005	-0.399733	-0.570608
O15	O	1.108784	-0.309327	-0.740987
O16	O	1.108621	-0.519110	-0.441535
O17	O	1.018249	-0.519060	-0.570575
C18	C	0.872313	-0.354549	-0.506098
C19	C	0.790514	-0.354553	-0.506114
C20	C	0.525487	-0.307584	-0.573440
C21	C	0.602346	-0.307573	-0.573437
C22	C	0.602292	-0.401602	-0.438820
C23	C	0.525435	-0.401617	-0.438829
C24	C	0.487034	-0.354604	-0.506138
C25	C	0.640750	-0.354577	-0.506125
C26	C	0.724084	-0.354564	-0.506121
C27	C	0.403695	-0.354617	-0.506143
C28	C	1.063441	-0.545788	-0.506068
C29	C	1.063476	-0.627586	-0.506081
C30	C	1.110643	-0.815782	-0.439014
C31	C	1.110675	-0.892641	-0.439039
C32	C	1.016490	-0.892628	-0.573298
C33	C	1.016461	-0.815771	-0.573277
C34	C	1.063536	-0.777350	-0.506129
C35	C	1.063598	-0.931066	-0.506176
C36	C	1.063633	-1.014400	-0.506204
C37	C	1.063502	-0.694011	-0.506102
C38	C	1.255472	-0.354614	-0.506140
C39	C	1.337271	-0.354628	-0.506149
C40	C	1.063571	-0.354507	-0.780152
C41	C	1.063593	-0.354475	-0.896929
C42	C	1.063617	-0.162628	-0.506192
C43	C	1.063659	-0.080829	-0.506223
C44	C	1.110692	-0.307410	-0.951816
C45	C	1.110710	-0.307383	-1.061540
C46	C	1.016526	-0.401494	-1.061480
C47	C	1.016505	-0.401516	-0.951758
C48	C	1.165071	-0.253078	-0.951851
C49	C	1.165089	-0.253051	-1.061575
C50	C	1.063510	-0.354602	-0.233151
C51	C	1.063631	-0.354426	-0.116375
H52	H	0.494224	-0.269303	-0.628247
Cl53	Cl	0.957280	-0.460675	-0.882760
H54	H	0.978162	-0.923920	-0.627967
Cl55	Cl	0.957334	-0.460628	-1.130416
H56	H	0.633567	-0.439877	-0.384018
H57	H	0.633651	-0.269285	-0.628242
Cl58	Cl	0.477090	-0.460732	-0.354213
H59	H	1.222084	-0.268322	-1.091353
Cl60	Cl	1.169825	-0.767484	-0.354602
Cl61	Cl	0.957241	-0.767452	-0.657664
Cl62	Cl	1.169899	-0.940953	-0.354664
Cl63	Cl	1.141544	-0.165085	-0.905914
H64	H	1.144705	-0.198896	-1.095630
Cl65	Cl	1.248632	-0.284627	-0.899291
