data_functionalizedCrystal
_audit_creation_method	'MofGen! by Chris Wilmer'
_symmetry_space_group_name_H-M	'P1'
_symmetry_Int_Tables_number	1
_symmetry_cell_setting	triclinic
loop_
_symmetry_equiv_pos_as_xyz
  x,y,z
_cell_length_a	14.044202
_cell_length_b	12.503572
_cell_length_c	14.044190
_cell_angle_alpha	86.160597
_cell_angle_beta	86.807761
_cell_angle_gamma	86.162225
loop_
_atom_site_label
_atom_site_type_symbol
_atom_site_fract_x
_atom_site_fract_y
_atom_site_fract_z
O1	O	-1.282214	0.089288	0.225155
O2	O	-0.782214	0.589288	0.725155
O3	O	-1.005542	0.089301	0.216840
O4	O	-0.505542	0.589301	0.716840
O5	O	-1.139721	0.089274	0.082662
O6	O	-0.639721	0.589274	0.582662
O7	O	-1.148036	0.089316	0.359333
O8	O	-0.648036	0.589316	0.859333
O9	O	-1.129631	-0.089366	0.092772
O10	O	-0.629631	0.410634	0.592772
O11	O	-0.995453	-0.089339	0.226949
O12	O	-0.495453	0.410661	0.726949
O13	O	-1.272125	-0.089352	0.235265
O14	O	-0.772125	0.410648	0.735265
Cu15	Cu	-1.132868	-0.105656	0.232030
Cu16	Cu	-0.632868	0.394344	0.732030
Cu17	Cu	-1.144800	0.105606	0.220075
Cu18	Cu	-0.644800	0.605606	0.720075
O19	O	-1.137946	-0.089324	0.369442
O20	O	-0.637946	0.410676	0.869442
C21	C	-0.964876	-0.000017	0.218257
C22	C	-0.464876	0.499983	0.718257
C23	C	-0.858733	-0.000013	0.207409
C24	C	-0.358733	0.499987	0.707409
C25	C	-0.613276	-0.000015	0.264508
C26	C	-0.113276	0.499985	0.764508
C27	C	-0.664399	-0.000025	0.187592
C28	C	-0.164399	0.499975	0.687592
C29	C	-0.772536	-0.000018	0.198621
C30	C	-0.272536	0.499982	0.698621
C31	C	-0.505128	-0.000021	0.253480
C32	C	-0.005128	0.499979	0.753480
N33	N	-1.124482	-0.254247	0.240439
N34	N	-0.624482	0.245753	0.740439
C35	C	-1.112148	-0.473360	0.252816
C36	C	-0.612148	0.026640	0.752816
C37	C	-1.165524	-0.526698	0.199284
C38	C	-0.665524	-0.026698	0.699284
C39	C	-1.158661	-0.648620	0.206171
C40	C	-0.658661	-0.148620	0.706171
C41	C	-1.119010	-0.351427	0.245930
C42	C	-0.619010	0.148573	0.745930
C43	C	-0.312792	-0.000031	0.233845
C44	C	0.187208	0.499969	0.733845
C45	C	-0.418936	-0.000026	0.244687
C46	C	0.081064	0.499974	0.744687
C47	C	-1.131039	-0.000049	0.052095
C48	C	-0.631039	0.499951	0.552095
C49	C	-1.120192	-0.000058	-0.054048
C50	C	-0.620192	0.499942	0.445952
N51	N	-1.153192	0.254196	0.211659
N52	N	-0.653192	0.754196	0.711659
C53	C	-1.177294	-0.000019	-0.299507
C54	C	-0.677294	0.499981	0.200493
C55	C	-1.100378	-0.000022	-0.248384
C56	C	-0.600378	0.499978	0.251616
C57	C	-1.111405	-0.000042	-0.140245
C58	C	-0.611405	0.499958	0.359755
C59	C	-1.166269	0.000001	-0.407655
C60	C	-0.666269	0.500001	0.092345
C61	C	-1.146628	0.000001	0.400009
C62	C	-0.646628	0.500001	0.900009
C63	C	-1.157476	0.000017	0.506152
C64	C	-0.657476	0.500017	1.006152
H65	H	-0.650719	-0.000000	0.338634
H66	H	-0.150719	0.500000	0.838634
Br67	Br	-0.601991	-0.000046	0.064032
Br68	Br	-0.101991	0.499954	0.564032
H69	H	-1.026245	-0.000013	-0.285830
H70	H	-0.526245	0.499987	0.214170
Br71	Br	-1.250717	-0.450198	0.114714
Br72	Br	-0.750717	0.049802	0.614714
Br73	Br	-1.027397	-0.549860	0.337821
Br74	Br	-0.527397	-0.049860	0.837821
H75	H	-1.251420	-0.000033	-0.262062
H76	H	-0.751420	0.499967	0.237938
