data_functionalizedCrystal
_audit_creation_method	'MofGen! by Chris Wilmer'
_symmetry_space_group_name_H-M	'P1'
_symmetry_Int_Tables_number	1
_symmetry_cell_setting	triclinic
loop_
_symmetry_equiv_pos_as_xyz
  x,y,z
_cell_length_a	6.817900
_cell_length_b	15.301126
_cell_length_c	14.125465
_cell_angle_alpha	95.705699
_cell_angle_beta	100.398878
_cell_angle_gamma	104.177575
loop_
_atom_site_label
_atom_site_type_symbol
_atom_site_fract_x
_atom_site_fract_y
_atom_site_fract_z
V1	V	-3.994738	-0.123983	-0.300267
O2	O	-3.979322	0.006755	-0.294250
O3	O	-3.949878	-0.246605	-0.298503
O4	O	-3.930818	-0.121727	-0.431092
O5	O	-3.998514	-0.118988	-0.160743
V6	V	-4.479918	-0.108387	-0.283544
O7	O	-4.252361	-0.158196	-0.336951
O8	O	-4.672493	-0.074175	-0.246860
O9	O	-4.301572	0.014235	-0.285308
O10	O	-4.612731	-0.239125	-0.289560
O11	O	-4.593539	-0.113383	-0.423067
O12	O	-4.320632	-0.110644	-0.152719
C13	C	-3.796242	-0.276508	-0.293841
C14	C	-3.840746	-0.376751	-0.293270
C15	C	-4.043322	-0.428425	-0.297812
C16	C	-4.085129	-0.522614	-0.297282
C17	C	-3.924355	-0.565126	-0.292203
C18	C	-3.721764	-0.513445	-0.287663
C19	C	-3.679962	-0.419259	-0.288201
C20	C	-3.808905	-0.709759	-0.286542
C21	C	-3.850708	-0.803951	-0.286002
C22	C	-4.214071	-0.813114	-0.295622
C23	C	-4.172269	-0.718928	-0.296160
C24	C	-3.969679	-0.667253	-0.291619
C25	C	-3.771928	-0.117212	-0.462970
C26	C	-3.800973	-0.116179	-0.569922
C27	C	-3.854211	-0.114283	-0.765740
C28	C	-4.039814	-0.118086	-0.818070
C29	C	-4.069438	-0.117031	-0.927031
C30	C	-3.824579	-0.115338	-0.656770
C31	C	-4.118550	0.044133	-0.289967
C32	C	-4.053283	0.144375	-0.290544
C33	C	-4.142864	-0.115161	-0.120836
C34	C	-4.093058	-0.116190	-0.013883
H35	H	-4.379023	-0.855190	-0.299306
H36	H	-3.719799	-0.838565	-0.281895
H37	H	-3.515009	-0.377187	-0.284506
F38	F	-4.218426	-0.123371	-0.769671
F39	F	-3.550660	-0.558692	-0.282264
F40	F	-4.214446	-0.383189	-0.303213
F41	F	-4.300734	-0.577606	-0.302115
H42	H	-4.303186	-0.684317	-0.300290
F43	F	-3.593288	-0.654765	-0.281714
F44	F	-3.675613	-0.108999	-0.814140
