data_functionalizedCrystal
_audit_creation_method	'MofGen! by Chris Wilmer'
_symmetry_space_group_name_H-M	'P1'
_symmetry_Int_Tables_number	1
_symmetry_cell_setting	triclinic
loop_
_symmetry_equiv_pos_as_xyz
  x,y,z
_cell_length_a	16.109302
_cell_length_b	14.519731
_cell_length_c	14.586319
_cell_angle_alpha	89.995223
_cell_angle_beta	89.994552
_cell_angle_gamma	83.575317
loop_
_atom_site_label
_atom_site_type_symbol
_atom_site_fract_x
_atom_site_fract_y
_atom_site_fract_z
O1	O	1.103344	0.118542	-0.076284
O2	O	0.861308	0.133293	-0.076277
O3	O	0.988734	-0.008333	-0.076272
O4	O	0.975918	0.260168	-0.076288
O5	O	0.988725	-0.008335	0.076209
O6	O	0.861300	0.133291	0.076204
O7	O	1.103335	0.118540	0.076197
Cu8	Cu	0.982316	0.125915	0.090123
Cu9	Cu	0.982327	0.125918	-0.090203
O10	O	0.975909	0.260166	0.076193
C11	C	0.830328	0.132695	-0.000035
C12	C	0.738030	0.130903	-0.000032
C13	C	0.525676	0.126758	0.083076
C14	C	0.438953	0.125065	0.083073
C15	C	0.438973	0.125072	-0.083170
C16	C	0.525696	0.126759	-0.083166
C17	C	0.569044	0.127607	-0.000040
C18	C	0.395599	0.124226	-0.000047
C19	C	0.301570	0.122390	-0.000051
C20	C	0.663080	0.129441	-0.000036
C21	C	0.988129	-0.042692	-0.000031
C22	C	0.986330	-0.145069	-0.000031
C23	C	0.984868	-0.228210	-0.000033
C24	C	0.983041	-0.332515	-0.000040
C25	C	0.981591	-0.415651	-0.000046
C26	C	0.979764	-0.519962	-0.000051
C27	C	1.134315	0.119139	-0.000046
C28	C	1.226614	0.120930	-0.000055
C29	C	0.976514	0.294525	-0.000050
C30	C	0.978314	0.396902	-0.000057
N31	N	0.982315	0.125913	0.216955
N32	N	0.982335	0.125913	-0.217035
C33	C	1.038758	0.063222	0.451964
C34	C	1.038760	0.063220	0.547945
C35	C	0.925886	0.188607	0.547950
C36	C	0.925880	0.188604	0.451971
C37	C	0.982321	0.125913	0.403980
C38	C	0.982329	0.125913	0.595941
C39	C	0.982331	0.125911	0.700008
C40	C	0.982318	0.125913	0.299906
H41	H	0.403668	0.124383	-0.150848
H42	H	0.403647	0.124374	0.150755
H43	H	0.879934	0.239650	0.587034
H44	H	0.560968	0.127449	0.150762
C45	C	0.573404	0.127687	-0.174605
N46	N	0.609338	0.128381	-0.243474
C47	C	1.100838	-0.005748	0.399177
N48	N	1.147595	-0.057701	0.359421
H49	H	1.084715	0.012170	0.587011
H50	H	0.879918	0.239655	0.412900
