data_functionalizedCrystal
_audit_creation_method	'MofGen! by Chris Wilmer'
_symmetry_space_group_name_H-M	'P1'
_symmetry_Int_Tables_number	1
_symmetry_cell_setting	triclinic
loop_
_symmetry_equiv_pos_as_xyz
  x,y,z
_cell_length_a	15.995350
_cell_length_b	15.186229
_cell_length_c	16.109301
_cell_angle_alpha	89.994833
_cell_angle_beta	83.476928
_cell_angle_gamma	90.000289
loop_
_atom_site_label
_atom_site_type_symbol
_atom_site_fract_x
_atom_site_fract_y
_atom_site_fract_z
O1	O	1.110955	-0.073157	0.107165
O2	O	0.867176	-0.073175	0.120399
O3	O	0.995762	-0.073157	-0.007247
O4	O	0.982369	-0.073176	0.234811
O5	O	0.995754	0.073301	-0.007249
O6	O	0.867168	0.073282	0.120397
O7	O	1.110946	0.073300	0.107164
Zn8	Zn	0.989056	0.096544	0.113780
Zn9	Zn	0.989067	-0.096419	0.113783
O10	O	0.982360	0.073282	0.234810
C11	C	0.835977	0.000051	0.119851
C12	C	0.743027	0.000044	0.118211
N13	N	0.989054	0.228237	0.113778
N14	N	0.989075	-0.228112	0.113778
C15	C	0.405281	0.000063	0.112320
C16	C	0.452740	0.000397	0.021413
C17	C	0.549430	0.000061	0.023054
C18	C	0.572841	0.000054	0.115242
C19	C	0.531747	-0.083580	0.160082
C20	C	0.435112	-0.083644	0.157798
C21	C	0.434762	0.082906	0.159674
C22	C	0.531708	0.084005	0.159653
C23	C	0.667538	0.000046	0.116898
C24	C	0.310584	0.000065	0.110667
C25	C	1.142145	0.000072	0.107712
C26	C	1.235095	0.000073	0.109352
C27	C	0.995216	0.000072	-0.038223
C28	C	0.993589	0.000074	-0.130519
C29	C	1.046011	0.453968	0.057275
C30	C	1.046014	0.546158	0.057273
C31	C	0.932112	0.546150	0.170283
C32	C	0.932106	0.453962	0.170281
C33	C	0.989060	0.407874	0.113778
C34	C	0.989069	0.592251	0.113778
C35	C	0.989071	0.692208	0.113777
C36	C	0.989057	0.307911	0.113778
C37	C	1.066107	0.000065	-0.352771
C38	C	1.064573	0.000058	-0.439492
C39	C	0.912009	0.000050	-0.419659
C40	C	0.913545	0.000051	-0.332940
C41	C	0.990597	0.000063	-0.299499
C42	C	0.987526	0.000055	-0.472939
C43	C	0.985861	0.000047	-0.566965
C44	C	0.992262	0.000069	-0.205466
C45	C	0.982907	0.000051	0.265786
C46	C	0.984534	0.000044	0.358081
H47	H	0.577865	0.060014	-0.012192
H48	H	0.402845	-0.087444	0.224541
H49	H	1.092388	0.583686	0.011263
O50	O	0.876875	0.591059	0.225142
C51	C	0.889079	0.682312	0.213017
H52	H	0.955654	0.694902	0.181979
H53	H	0.841702	0.708484	0.171294
C54	C	0.794708	0.714166	0.336186
C55	C	0.876479	0.729630	0.298070
H56	H	0.786932	0.743355	0.388649
H57	H	0.786483	0.652688	0.344353
H58	H	0.755236	0.735976	0.301408
H59	H	0.915948	0.707809	0.332843
H60	H	0.884710	0.791106	0.289911
H61	H	0.434225	0.060375	-0.014925
H62	H	1.092386	0.416445	0.011266
H63	H	0.885725	0.416430	0.216292
O64	O	1.141025	0.000027	-0.320424
C65	C	1.207342	0.000046	-0.386044
H66	H	1.183882	-0.027679	-0.444950
H67	H	1.230637	0.070308	-0.398322
C68	C	1.308822	-0.023339	-0.289216
C69	C	1.280009	-0.057399	-0.361564
H70	H	1.353649	-0.058771	-0.274115
H71	H	1.264143	-0.023349	-0.245005
H72	H	1.328228	0.035212	-0.299457
H73	H	1.260594	-0.115945	-0.351319
H74	H	1.324687	-0.057401	-0.405772
H75	H	0.849277	0.000041	-0.446898
H76	H	1.126061	0.000058	-0.482864
O77	O	0.840134	-0.000068	-0.281270
C78	C	0.793365	-0.075933	-0.296405
H79	H	0.813937	-0.101219	-0.362188
H80	H	0.804808	-0.129047	-0.248971
C81	C	0.673760	-0.021841	-0.207360
C82	C	0.699023	-0.052894	-0.288158
H83	H	0.615566	-0.007632	-0.202269
H84	H	0.705270	0.029269	-0.197159
H85	H	0.683304	-0.066108	-0.167840
H86	H	0.689489	-0.008623	-0.327675
H87	H	0.667509	-0.103997	-0.298364
O88	O	0.429314	-0.070813	-0.021615
C89	C	0.370173	-0.120917	0.030067
H90	H	0.377365	-0.106704	0.098377
H91	H	0.303869	-0.102605	0.016761
C92	C	0.376589	-0.237039	-0.071679
C93	C	0.385427	-0.219588	0.012221
H94	H	0.385994	-0.297905	-0.082689
H95	H	0.416431	-0.203283	-0.106500
H96	H	0.321335	-0.221773	-0.082757
H97	H	0.440683	-0.234844	0.023295
H98	H	0.345594	-0.253350	0.047044
H99	H	0.416816	-0.146158	0.125101
O100	O	0.582770	-0.071617	-0.019153
C101	C	0.624338	-0.124696	0.035111
H102	H	0.642645	-0.082873	0.088964
H103	H	0.580616	-0.179967	0.060860
C104	C	0.681591	-0.215878	-0.079285
C105	C	0.704083	-0.164508	-0.013146
H106	H	0.730779	-0.240440	-0.109052
H107	H	0.653583	-0.180120	-0.115844
H108	H	0.645154	-0.261930	-0.057817
H109	H	0.740510	-0.118451	-0.034615
H110	H	0.732098	-0.200260	0.023408
O111	O	0.548685	-0.087192	0.240851
C112	C	0.598036	-0.013925	0.258076
H113	H	0.632559	0.012243	0.197264
H114	H	0.555660	0.039848	0.289138
C115	C	0.620151	-0.074019	0.391769
C116	C	0.662558	-0.041884	0.317079
H117	H	0.659949	-0.091263	0.428168
H118	H	0.586900	-0.123379	0.380166
H119	H	0.584839	-0.029203	0.417644
H120	H	0.697861	-0.086703	0.291201
H121	H	0.695817	0.007468	0.328679
H122	H	0.560133	-0.145818	0.128940
H123	H	0.414231	0.146298	0.129954
H124	H	0.547054	0.089052	0.226879
O125	O	0.564175	0.157910	0.120675
C126	C	0.526816	0.232856	0.161082
H127	H	0.463336	0.214085	0.196047
H128	H	0.569579	0.259509	0.207220
C129	C	0.591960	0.327130	0.052715
C130	C	0.513989	0.304077	0.095655
H131	H	0.584051	0.371065	0.012359
H132	H	0.617133	0.276639	0.025494
H133	H	0.627588	0.349336	0.091173
H134	H	0.478367	0.281862	0.057199
H135	H	0.488811	0.354567	0.122869
O136	O	0.396770	0.083455	0.239605
C137	C	0.343826	0.009342	0.252740
H138	H	0.325574	-0.014737	0.190238
H139	H	0.378415	-0.045330	0.283304
C140	C	0.286339	0.064341	0.386996
C141	C	0.263916	0.034771	0.310231
H142	H	0.237049	0.080024	0.422462
H143	H	0.322011	0.114271	0.378149
H144	H	0.315165	0.018776	0.412456
H145	H	0.235101	0.080339	0.284768
H146	H	0.228238	-0.015151	0.319076
