data_functionalizedCrystal
_audit_creation_method	'MofGen! by Chris Wilmer'
_symmetry_space_group_name_H-M	'P1'
_symmetry_Int_Tables_number	1
_symmetry_cell_setting	triclinic
loop_
_symmetry_equiv_pos_as_xyz
  x,y,z
_cell_length_a	10.686220
_cell_length_b	10.685594
_cell_length_c	10.686551
_cell_angle_alpha	89.698963
_cell_angle_beta	89.691918
_cell_angle_gamma	98.404471
loop_
_atom_site_label
_atom_site_type_symbol
_atom_site_fract_x
_atom_site_fract_y
_atom_site_fract_z
Zn1	Zn	1.950676	-0.307358	0.587609
Zn2	Zn	1.918402	-0.535544	0.396577
Zn3	Zn	1.722527	-0.339608	0.396574
Zn4	Zn	1.725012	-0.532989	0.622145
O5	O	1.829154	-0.428875	0.500726
O6	O	2.122810	-0.325200	0.547817
O7	O	1.877872	-0.524119	0.222226
O8	O	1.765258	-0.158903	0.407460
O9	O	2.099099	-0.492847	0.407466
O10	O	1.932878	-0.135209	0.547813
O11	O	1.733963	-0.380166	0.222224
O12	O	1.546441	-0.377688	0.440948
O13	O	1.769493	-0.488492	0.791914
O14	O	1.548266	-0.519764	0.606674
O15	O	1.935288	-0.322722	0.766541
O16	O	1.880282	-0.711632	0.440954
O17	O	1.738199	-0.709755	0.606678
C18	C	1.501611	-0.451949	0.527559
C19	C	1.361487	-0.461849	0.539070
C20	C	1.806044	-0.756435	0.527588
C21	C	1.796276	-0.896554	0.539112
C22	C	2.157976	-0.405711	0.473790
C23	C	2.298101	-0.395840	0.462311
C24	C	1.856268	-0.401725	0.825698
C25	C	1.867822	-0.390155	0.964182
C26	C	1.852391	-0.100031	0.473784
C27	C	1.862293	0.040102	0.462303
C28	C	1.802225	-0.455823	0.177005
C29	C	1.790940	-0.467020	0.038473
H30	H	1.308548	-0.525947	0.613593
H31	H	1.351032	-0.331754	0.387786
C32	C	1.947406	-0.889245	0.362718
C33	C	1.874619	-0.825474	0.282493
C34	C	1.952979	-0.760381	0.190729
H35	H	2.009842	-0.829867	0.401589
H36	H	1.987487	-0.947738	0.316000
H37	H	1.834558	-0.766986	0.329205
H38	H	1.812186	-0.884823	0.243592
H39	H	1.993060	-0.818874	0.144011
H40	H	2.015411	-0.701009	0.229612
H41	H	1.903602	-0.717114	0.136279
H42	H	1.716281	-0.541682	0.996132
C43	C	1.710962	-0.967409	0.638439
C44	C	1.717871	-1.096968	0.630484
C45	C	1.639287	-1.162279	0.721951
H46	H	1.737728	-0.937703	0.718976
H47	H	1.626188	-0.953547	0.625327
H48	H	1.802627	-1.110821	0.643605
H49	H	1.691095	-1.126710	0.549967
H50	H	1.554513	-1.148418	0.708839
H51	H	1.666060	-1.132563	0.802482
H52	H	1.643955	-1.250193	0.716558
C53	C	1.967261	-0.290633	1.020873
C54	C	1.959313	-0.298523	1.151566
C55	C	2.050880	-0.206853	1.203831
H56	H	2.048978	-0.304771	0.994315
H57	H	1.953031	-0.208949	0.994245
H58	H	1.973552	-0.380188	1.178182
H59	H	1.877616	-0.284372	1.178159
H60	H	2.036650	-0.125169	1.177203
H61	H	2.132591	-0.221000	1.177264
H62	H	2.045492	-0.212187	1.292510
