data_functionalizedCrystal
_audit_creation_method	'MofGen! by Chris Wilmer'
_symmetry_space_group_name_H-M	'P1'
_symmetry_Int_Tables_number	1
_symmetry_cell_setting	triclinic
loop_
_symmetry_equiv_pos_as_xyz
  x,y,z
_cell_length_a	8.497374
_cell_length_b	8.497374
_cell_length_c	12.759401
_cell_angle_alpha	89.998747
_cell_angle_beta	90.000777
_cell_angle_gamma	90.004389
loop_
_atom_site_label
_atom_site_type_symbol
_atom_site_fract_x
_atom_site_fract_y
_atom_site_fract_z
Zn1	Zn	0.892049	0.628310	1.606171
Zn2	Zn	0.628315	0.892059	1.606161
Zn3	Zn	0.628283	0.628288	1.430527
Zn4	Zn	0.892053	0.892042	1.430503
O5	O	0.760175	0.760175	1.518341
O6	O	0.857076	0.663313	1.753191
O7	O	0.407548	0.857067	1.582869
O8	O	0.663257	0.407528	1.453841
O9	O	0.663312	0.857088	1.753184
O10	O	0.857045	0.407544	1.582886
O11	O	0.407525	0.663275	1.453832
O12	O	0.663260	0.663259	1.283503
O13	O	1.112814	0.857060	1.453800
O14	O	0.857051	0.857038	1.283486
O15	O	1.112812	0.663296	1.582862
O16	O	0.663315	1.112819	1.582846
O17	O	0.857082	1.112807	1.453791
C18	C	0.760153	0.760146	1.245373
C19	C	0.760182	0.760171	1.128597
C20	C	1.350295	0.760200	1.518347
C21	C	1.171651	0.760193	1.518336
C22	C	0.760198	1.170054	1.518328
C23	C	0.760172	1.348699	1.518355
C24	C	0.860922	0.861233	1.073753
C25	C	0.860939	0.861253	0.964029
C26	C	0.659462	0.659144	0.964002
C27	C	0.659454	0.659118	1.073724
C28	C	0.961649	0.962287	1.128626
C29	C	1.062396	1.063359	1.073782
C30	C	1.062413	1.063379	0.964058
C31	C	0.961683	0.962327	0.909178
C32	C	0.760197	0.760205	1.792374
C33	C	0.760207	0.760218	1.909151
H34	H	0.961643	0.962285	1.217969
C35	C	1.173231	1.174540	0.903728
H36	H	1.158826	1.160075	0.830522
H37	H	1.149980	1.280495	0.921716
H38	H	1.279265	1.151607	0.921716
H39	H	0.577435	0.576812	1.118379
H40	H	0.961719	0.962338	0.819833
H41	H	1.144416	1.145621	1.118473
H42	H	0.577452	0.576874	0.919310
