data_functionalizedCrystal
_audit_creation_method	'MofGen! by Chris Wilmer'
_symmetry_space_group_name_H-M	'P1'
_symmetry_Int_Tables_number	1
_symmetry_cell_setting	triclinic
loop_
_symmetry_equiv_pos_as_xyz
  x,y,z
_cell_length_a	23.532361
_cell_length_b	23.532407
_cell_length_c	22.610064
_cell_angle_alpha	90.000603
_cell_angle_beta	89.996103
_cell_angle_gamma	97.160827
loop_
_atom_site_label
_atom_site_type_symbol
_atom_site_fract_x
_atom_site_fract_y
_atom_site_fract_z
O1	O	0.755281	-0.069001	-0.049131
O2	O	0.589414	-0.079032	-0.049146
O3	O	0.677349	0.008916	-0.049127
O4	O	0.667345	-0.156949	-0.049150
O5	O	0.677333	0.008903	0.049242
O6	O	0.589398	-0.079045	0.049223
O7	O	0.755265	-0.069014	0.049238
Zn8	Zn	0.672329	-0.074031	0.064849
Zn9	Zn	0.672350	-0.074014	-0.064757
O10	O	0.667330	-0.156962	0.049219
C11	C	0.568189	-0.078787	0.000037
C12	C	0.504971	-0.078032	0.000031
C13	C	0.231736	-0.074721	-0.053586
C14	C	0.291135	-0.075436	-0.053587
O15	O	0.321868	-0.075780	-0.099189
N16	N	0.320832	-0.075804	0.000034
C17	C	0.291128	-0.075452	0.053660
O18	O	0.321842	-0.075830	0.099269
C19	C	0.231730	-0.074733	0.053661
C20	C	0.202035	-0.074370	0.000036
C21	C	0.202041	-0.074358	-0.107206
C22	C	0.142645	-0.073644	-0.107204
C23	C	0.112944	-0.073294	-0.053582
C24	C	0.142639	-0.073657	0.000038
C25	C	0.202026	-0.074376	0.107287
C26	C	0.142624	-0.073656	0.107283
C27	C	0.112929	-0.073294	0.053658
C28	C	0.053542	-0.072592	0.053662
N29	N	0.023845	-0.072224	0.000041
C30	C	0.053546	-0.072575	-0.053581
C31	C	0.415868	-0.076961	0.053654
C32	C	0.475264	-0.077684	0.053654
C33	C	0.475268	-0.077667	-0.053594
C34	C	0.415870	-0.076948	-0.053593
C35	C	0.386171	-0.076593	0.000033
C36	C	-0.071190	-0.071076	-0.053573
C37	C	-0.130591	-0.070365	-0.053567
C38	C	-0.130589	-0.070378	0.053680
C39	C	-0.071193	-0.071093	0.053674
C40	C	-0.041495	-0.071440	0.000043
O41	O	0.022772	-0.072245	0.099240
O42	O	0.022825	-0.072189	-0.099182
C43	C	0.677086	0.030126	0.000059
C44	C	0.676320	0.093343	0.000063
C45	C	0.776489	-0.069258	0.000054
C46	C	0.839708	-0.070014	0.000055
C47	C	0.667592	-0.178171	0.000032
C48	C	0.668358	-0.241388	0.000023
N49	N	0.672319	-0.074042	0.153301
C50	C	0.723555	0.492454	0.000035
C51	C	0.722844	0.551854	0.000030
O52	O	0.766630	0.588606	0.000013
N53	N	0.670566	0.574471	0.000026
C54	C	0.618997	0.537685	0.000020
O55	O	0.574465	0.562377	0.000016
C56	C	0.619709	0.478286	0.000021
C57	C	0.671990	0.455672	0.000031
C58	C	0.775832	0.469839	0.000045
C59	C	0.776543	0.410443	0.000050
C60	C	0.724977	0.373662	0.000046
C61	C	0.672701	0.396276	0.000037
C62	C	0.568140	0.441501	0.000011
C63	C	0.568857	0.382099	0.000011
C64	C	0.621137	0.359485	0.000021
C65	C	0.621847	0.300099	0.000038
N66	N	0.674124	0.277481	0.000043
C67	C	0.725690	0.314263	0.000047
C68	C	0.617505	0.662427	0.000019
C69	C	0.616793	0.721825	0.000023
C70	C	0.720640	0.735990	0.000032
C71	C	0.721352	0.676591	0.000032
C72	C	0.669783	0.639810	0.000023
C73	C	0.727179	0.189526	0.000059
C74	C	0.727886	0.130124	0.000067
C75	C	0.624039	0.115965	0.000055
C76	C	0.623332	0.175361	0.000050
C77	C	0.674907	0.212141	0.000050
O78	O	0.578083	0.263312	0.000054
O79	O	0.770214	0.289562	0.000043
N80	N	0.672364	-0.073998	-0.153209
C81	C	0.711289	-0.035077	0.561951
C82	C	0.711292	-0.035073	0.623871
O83	O	0.744401	-0.001951	0.655897
N84	N	0.672349	-0.074002	0.654838
C85	C	0.633397	-0.112935	0.623883
O86	O	0.600273	-0.146047	0.655909
C87	C	0.633392	-0.112936	0.561964
C88	C	0.672341	-0.074007	0.531000
C89	C	0.750235	0.003849	0.530986
C90	C	0.750232	0.003844	0.469071
C91	C	0.711284	-0.035087	0.438120
C92	C	0.672339	-0.074013	0.469084
C93	C	0.594438	-0.151865	0.531009
C94	C	0.594435	-0.151863	0.469086
C95	C	0.633385	-0.112934	0.438122
C96	C	0.633388	-0.112948	0.376217
N97	N	0.672331	-0.074018	0.345250
C98	C	0.711279	-0.035088	0.376201
C99	C	0.633410	-0.112929	0.753916
C100	C	0.633418	-0.112932	0.815834
C101	C	0.711312	-0.035068	0.815818
C102	C	0.711307	-0.035069	0.753899
C103	C	0.672353	-0.074000	0.722949
C104	C	0.711272	-0.035102	0.246173
C105	C	0.711267	-0.035112	0.184252
C106	C	0.633371	-0.112973	0.184274
C107	C	0.633377	-0.112965	0.246190
C108	C	0.672330	-0.074024	0.277138
O109	O	0.600295	-0.146051	0.344152
O110	O	0.744393	-0.001976	0.344167
H111	H	0.226217	-0.074642	-0.150874
C112	C	0.753621	0.007126	0.720232
C113	C	0.788322	-0.022998	0.684663
C114	C	0.827298	0.015864	0.653641
H115	H	0.733299	0.030724	0.696048
H116	H	0.776852	0.030320	0.747503
H117	H	0.765094	-0.046182	0.657395
H118	H	0.808656	-0.046594	0.708832
H119	H	0.850529	0.039058	0.680912
H120	H	0.806972	0.039460	0.629461
H121	H	0.850851	-0.004570	0.629508
C122	C	0.383739	-0.076524	-0.111876
C123	C	0.422473	-0.076974	-0.158832
C124	C	0.392899	-0.076575	-0.212533
H125	H	0.356031	-0.109449	-0.114196
H126	H	0.365119	-0.043014	-0.114136
H127	H	0.441083	-0.110481	-0.156573
H128	H	0.450182	-0.044051	-0.156532
H129	H	0.374279	-0.043065	-0.214793
H130	H	0.365192	-0.109501	-0.214847
H131	H	0.419176	-0.076875	-0.244399
H132	H	0.499436	-0.077988	0.097321
H133	H	0.817825	0.499782	0.000046
H134	H	0.781951	0.035554	0.556182
C135	C	0.568074	0.075995	-0.000074
C136	C	0.565463	0.041491	-0.050690
C137	C	0.513913	0.004668	-0.050838
H138	H	0.566133	0.052474	0.034189
H139	H	0.536817	0.097946	-0.000113
H140	H	0.596712	0.019543	-0.050646
H141	H	0.567394	0.064996	-0.084962
H142	H	0.482656	0.026618	-0.050877
H143	H	0.511976	-0.018849	-0.016573
H144	H	0.512132	-0.018744	-0.085183
H145	H	0.580761	0.193774	0.000058
C146	C	0.792414	0.046109	0.435329
C147	C	0.827134	0.016092	0.399669
C148	C	0.865928	0.055049	0.368544
H149	H	0.771953	0.069627	0.411199
H150	H	0.815649	0.069374	0.462539
H151	H	0.803901	-0.007164	0.372462
H152	H	0.847608	-0.007424	0.423785
H153	H	0.889163	0.078314	0.395754
H154	H	0.845462	0.078565	0.344418
H155	H	0.889493	0.034688	0.344350
C156	C	0.753505	0.007270	0.849460
C157	C	0.723363	0.041982	0.884998
C158	C	0.762210	0.080992	0.915993
H159	H	0.777111	-0.013024	0.873662
H160	H	0.776693	0.030490	0.822172
H161	H	0.700186	0.018764	0.912282
H162	H	0.699760	0.062289	0.860810
H163	H	0.785397	0.104213	0.888705
H164	H	0.785813	0.060693	0.940191
H165	H	0.741764	0.104552	0.940104
C166	C	0.753581	0.007222	0.150742
C167	C	0.787678	0.041326	0.191105
C168	C	0.826657	0.080334	0.160260
H169	H	0.777227	-0.013075	0.126584
H170	H	0.733244	0.030853	0.126601
H171	H	0.808014	0.017698	0.215236
H172	H	0.764049	0.061635	0.215265
H173	H	0.806320	0.103965	0.136119
H174	H	0.850298	0.060033	0.136103
H175	H	0.849792	0.103482	0.187642
H176	H	0.601708	-0.144637	0.841041
C177	C	0.778072	0.651962	-0.000055
C178	C	0.781519	0.618267	-0.050658
C179	C	0.833760	0.595567	-0.050756
H180	H	0.808727	0.682321	-0.000082
H181	H	0.780511	0.629052	0.034230
H182	H	0.779086	0.641176	-0.084934
H183	H	0.750876	0.587900	-0.050641
H184	H	0.836199	0.572657	-0.016471
H185	H	0.864411	0.625929	-0.050781
H186	H	0.836104	0.572698	-0.085086
H187	H	0.574220	0.740232	0.000024
H188	H	0.226194	-0.074669	0.150954
C189	C	0.753473	0.007238	0.279801
C190	C	0.723343	0.041961	0.315339
C191	C	0.762201	0.080973	0.346320
H192	H	0.777080	-0.013056	0.304002
H193	H	0.776657	0.030451	0.252505
H194	H	0.700168	0.018752	0.342632
H195	H	0.699738	0.062268	0.291153
H196	H	0.785386	0.104185	0.319023
H197	H	0.785806	0.060674	0.370517
H198	H	0.741764	0.104540	0.370431
C199	C	0.783235	0.229358	0.000092
C200	C	0.829163	0.196829	0.000118
C201	C	0.880810	0.233503	0.000160
H202	H	0.785210	0.252837	-0.034203
H203	H	0.785144	0.252818	0.034409
H204	H	0.827256	0.173380	-0.034195
H205	H	0.827208	0.173352	0.034410
H206	H	0.882718	0.256962	0.034477
H207	H	0.882778	0.256979	-0.034135
H208	H	0.911978	0.211437	0.000183
H209	H	0.601691	-0.144636	0.728720
C210	C	0.552083	-0.194156	0.564510
C211	C	0.517967	-0.228233	0.524139
C212	C	0.478935	-0.267194	0.554977
H213	H	0.572361	-0.217817	0.588665
H214	H	0.528461	-0.173807	0.588653
H215	H	0.541585	-0.248581	0.500007
H216	H	0.497676	-0.204588	0.499983
H217	H	0.455314	-0.246844	0.579120
H218	H	0.499219	-0.290850	0.579131
H219	H	0.455779	-0.290316	0.527591
C220	C	0.561529	0.622468	-0.000104
C221	C	0.558897	0.587962	-0.050719
C222	C	0.507338	0.551154	-0.050857
H223	H	0.559585	0.598949	0.034160
H224	H	0.530280	0.644430	-0.000137
H225	H	0.590138	0.566002	-0.050680
H226	H	0.560831	0.611466	-0.084991
H227	H	0.476089	0.573116	-0.050890
H228	H	0.505399	0.527638	-0.016591
H229	H	0.505543	0.527741	-0.085201
H230	H	0.562713	-0.183564	0.443890
H231	H	0.819115	0.392037	0.000056
H232	H	0.118473	-0.073347	-0.150871
C233	C	0.383723	-0.076614	0.111943
C234	C	0.422447	-0.077107	0.158896
C235	C	0.392858	-0.076795	0.212599
H236	H	0.365082	-0.043129	0.114268
H237	H	0.356028	-0.109565	0.114201
H238	H	0.450132	-0.044160	0.156640
H239	H	0.441089	-0.110590	0.156591
H240	H	0.365163	-0.109745	0.214857
H241	H	0.374219	-0.043309	0.214918
H242	H	0.419127	-0.077134	0.244464
H243	H	0.762627	0.765949	0.000032
H244	H	0.601667	-0.144669	0.271401
H245	H	0.525567	0.459902	-0.000001
H246	H	0.118445	-0.073372	0.150953
C247	C	0.591175	-0.155263	0.150585
C248	C	0.621308	-0.189960	0.115021
C249	C	0.582453	-0.228916	0.083971
H250	H	0.567960	-0.178504	0.177822
H251	H	0.567598	-0.134908	0.126400
H252	H	0.644876	-0.210314	0.139204
H253	H	0.644521	-0.166735	0.087773
H254	H	0.558876	-0.208561	0.059786
H255	H	0.559240	-0.252153	0.111212
H256	H	0.602892	-0.252459	0.059833
C257	C	-0.038864	-0.071403	0.111850
C258	C	0.001931	-0.022814	0.114982
C259	C	0.031726	-0.023079	0.168561
H260	H	-0.064991	-0.071066	0.143836
H261	H	-0.020187	-0.104879	0.114078
H262	H	-0.016745	0.010653	0.112759
H263	H	0.028071	-0.023141	0.083008
H264	H	0.050403	-0.056555	0.170789
H265	H	0.005594	-0.022743	0.200543
H266	H	0.059412	0.009885	0.170691
C267	C	-0.162724	-0.069942	-0.111853
C268	C	-0.123992	-0.070385	-0.158811
C269	C	-0.153568	-0.069988	-0.212511
H270	H	-0.190429	-0.102870	-0.114173
H271	H	-0.181348	-0.036434	-0.114110
H272	H	-0.105377	-0.103890	-0.156555
H273	H	-0.096286	-0.037460	-0.156511
H274	H	-0.172193	-0.036480	-0.214768
H275	H	-0.181273	-0.102916	-0.214824
H276	H	-0.127293	-0.070283	-0.244378
C277	C	-0.162744	-0.070024	0.111958
C278	C	-0.124032	-0.070507	0.158923
C279	C	-0.153633	-0.070184	0.212618
H280	H	-0.181383	-0.036537	0.114269
H281	H	-0.190441	-0.102973	0.114217
H282	H	-0.096345	-0.037562	0.156666
H283	H	-0.105391	-0.103992	0.156632
H284	H	-0.181330	-0.103132	0.214876
H285	H	-0.172272	-0.036696	0.214922
H286	H	-0.127372	-0.070517	0.244490
H287	H	0.770461	0.111716	0.000077
C288	C	-0.038891	-0.071548	-0.111757
C289	C	-0.011468	-0.120956	-0.114893
C290	C	0.018296	-0.121411	-0.168478
H291	H	-0.065028	-0.071261	-0.143738
H292	H	-0.011154	-0.038629	-0.113994
H293	H	-0.039201	-0.153866	-0.112662
H294	H	0.014678	-0.121253	-0.082925
H295	H	0.046033	-0.088492	-0.170715
H296	H	-0.007845	-0.121122	-0.200454
H297	H	0.036910	-0.154931	-0.170610
C298	C	0.512804	0.342260	0.000031
C299	C	0.466872	0.374784	0.000036
C300	C	0.415228	0.338106	0.000064
H301	H	0.510847	0.318779	-0.034261
H302	H	0.510882	0.318803	0.034350
H303	H	0.468792	0.398230	-0.034279
H304	H	0.468809	0.398263	0.034327
H305	H	0.413307	0.314649	0.034383
H306	H	0.413278	0.314627	-0.034229
H307	H	0.384058	0.360168	0.000073
H308	H	0.499461	-0.077952	-0.097256
