data_functionalizedCrystal
_audit_creation_method	'MofGen! by Chris Wilmer'
_symmetry_space_group_name_H-M	'P1'
_symmetry_Int_Tables_number	1
_symmetry_cell_setting	triclinic
loop_
_symmetry_equiv_pos_as_xyz
  x,y,z
_cell_length_a	16.109301
_cell_length_b	10.489741
_cell_length_c	14.586319
_cell_angle_alpha	90.000119
_cell_angle_beta	89.996867
_cell_angle_gamma	84.000327
loop_
_atom_site_label
_atom_site_type_symbol
_atom_site_fract_x
_atom_site_fract_y
_atom_site_fract_z
O1	O	1.104145	0.163940	-0.076182
O2	O	1.604145	0.663940	0.423818
O3	O	0.862208	0.184343	-0.076196
O4	O	1.362208	0.684343	0.423804
O5	O	0.988682	-0.011537	-0.076183
O6	O	1.488682	0.488463	0.423817
O7	O	0.977671	0.359819	-0.076195
O8	O	1.477671	0.859819	0.423805
O9	O	0.988666	-0.011525	0.076298
O10	O	1.488666	0.488475	0.576298
O11	O	0.862193	0.184354	0.076284
O12	O	1.362193	0.684354	0.576284
O13	O	1.104129	0.163951	0.076299
O14	O	1.604129	0.663951	0.576299
Cu15	Cu	0.983160	0.174154	0.090214
Cu16	Cu	1.483160	0.674154	0.590214
Cu17	Cu	0.983178	0.174140	-0.090112
Cu18	Cu	1.483178	0.674140	0.409888
O19	O	0.977656	0.359830	0.076286
O20	O	1.477656	0.859830	0.576286
C21	C	0.831221	0.183522	0.000042
C22	C	1.331221	0.683522	0.500042
C23	C	0.738910	0.181044	0.000037
C24	C	1.238910	0.681044	0.500037
C25	C	0.987842	-0.059050	0.000057
C26	C	1.487842	0.440950	0.500057
C27	C	0.985354	-0.200644	0.000055
C28	C	1.485354	0.299356	0.500055
C29	C	0.517319	0.291514	0.000044
C30	C	1.017319	0.791514	0.500044
C31	C	0.430584	0.289175	0.000050
C32	C	0.930584	0.789175	0.500050
C33	C	0.449026	0.056771	0.000053
C34	C	0.949026	0.556771	0.500053
C35	C	0.535759	0.059111	0.000054
C36	C	1.035759	0.559111	0.500054
C37	C	0.569903	0.176486	0.000045
C38	C	1.069903	0.676486	0.500045
C39	C	0.396435	0.171808	0.000050
C40	C	0.896435	0.671808	0.500050
C41	C	0.302393	0.169272	0.000056
C42	C	0.802393	0.669272	0.500056
C43	C	0.663950	0.179022	0.000040
C44	C	1.163950	0.679022	0.500040
C45	C	0.904883	-0.267616	0.000043
C46	C	1.404883	0.232384	0.500043
C47	C	0.942889	-0.360285	0.075226
C48	C	1.442889	0.139715	0.575226
C49	C	0.942924	-0.360271	-0.075108
C50	C	1.442924	0.139729	0.424892
C51	C	1.023394	-0.291447	0.075300
C52	C	1.523394	0.208553	0.575300
C53	C	1.023417	-0.291424	-0.075102
C54	C	1.523417	0.208576	0.424898
C55	C	1.061482	-0.384066	0.000100
C56	C	1.561482	0.115934	0.500100
C57	C	1.135117	0.164772	0.000058
C58	C	1.635117	0.664772	0.500058
C59	C	1.227427	0.167250	0.000058
C60	C	1.727427	0.667250	0.500058
C61	C	0.978495	0.407344	0.000044
C62	C	1.478495	0.907344	0.500044
C63	C	0.980983	0.548938	0.000040
C64	C	1.480983	1.048938	0.500040
N65	N	0.983153	0.174163	0.217046
N66	N	1.483153	0.674163	0.717046
N67	N	0.983191	0.174121	-0.216944
N68	N	1.483191	0.674121	0.283056
C69	C	1.034052	0.251527	0.452053
C70	C	1.534052	0.751527	0.952053
C71	C	1.034061	0.251518	0.548034
C72	C	1.534061	0.751518	1.048034
C73	C	0.932290	0.096748	0.548043
C74	C	1.432290	0.596748	1.048043
C75	C	0.932286	0.096751	0.452063
C76	C	1.432286	0.596751	0.952063
C77	C	0.983166	0.174148	0.404071
C78	C	1.483166	0.674148	0.904071
C79	C	0.983178	0.174136	0.596032
C80	C	1.483178	0.674136	1.096032
C81	C	0.983187	0.174126	0.700099
C82	C	1.483187	0.674126	1.200099
C83	C	0.983158	0.174156	0.299997
C84	C	1.483158	0.674156	0.799997
H85	H	0.545116	0.387088	0.000043
H86	H	1.045116	0.887088	0.500043
H87	H	0.890864	0.033736	0.587130
H88	H	1.390864	0.533736	1.087130
H89	H	0.387773	0.382843	0.000051
H90	H	0.887773	0.882843	0.500051
H91	H	1.075499	0.314526	0.587097
H92	H	1.575499	0.814526	1.087097
H93	H	0.890847	0.033733	0.412995
H94	H	1.390847	0.533733	0.912995
H95	H	1.057444	-0.260878	-0.138663
H96	H	1.557444	0.239122	0.361337
H97	H	0.908871	-0.390746	-0.138675
H98	H	1.408871	0.109254	0.361325
H99	H	0.421215	-0.038791	0.000067
H100	H	0.921215	0.461209	0.500067
H101	H	1.075482	0.314548	0.412981
H102	H	1.575482	0.814548	0.912981
H103	H	0.838720	-0.217005	0.000115
H104	H	1.338720	0.282995	0.500115
H105	H	0.908834	-0.390797	0.138784
H106	H	1.408834	0.109203	0.638784
H107	H	0.578575	-0.034565	0.000057
H108	H	1.078575	0.465435	0.500057
H109	H	1.127704	-0.434450	0.000146
H110	H	1.627704	0.065550	0.500146
H111	H	1.057407	-0.261104	0.138933
H112	H	1.557407	0.238896	0.638933
