data_functionalizedCrystal
_audit_creation_method	'MofGen! by Chris Wilmer'
_symmetry_space_group_name_H-M	'P1'
_symmetry_Int_Tables_number	1
_symmetry_cell_setting	triclinic
loop_
_symmetry_equiv_pos_as_xyz
  x,y,z
_cell_length_a	16.992697
_cell_length_b	15.021413
_cell_length_c	16.992695
_cell_angle_alpha	90.003993
_cell_angle_beta	90.668337
_cell_angle_gamma	89.998647
loop_
_atom_site_label
_atom_site_type_symbol
_atom_site_fract_x
_atom_site_fract_y
_atom_site_fract_z
O1	O	-1.050854	0.073904	-0.166908
O2	O	-0.800854	0.323904	0.083092
O3	O	-0.550854	0.573904	0.333092
O4	O	-0.300854	0.823904	0.583092
O5	O	-0.822454	0.073934	-0.165077
O6	O	-0.572454	0.323934	0.084923
O7	O	-0.322454	0.573934	0.334923
O8	O	-0.072454	0.823934	0.584923
O9	O	-0.935739	0.073912	-0.051793
O10	O	-0.685739	0.323912	0.198207
O11	O	-0.435739	0.573912	0.448207
O12	O	-0.185739	0.823912	0.698207
O13	O	-0.937570	0.073926	-0.280193
O14	O	-0.687570	0.323926	-0.030193
O15	O	-0.437570	0.573926	0.219807
O16	O	-0.187570	0.823926	0.469807
O17	O	-0.935720	-0.074152	-0.051809
O18	O	-0.685720	0.175848	0.198191
O19	O	-0.435720	0.425848	0.448191
O20	O	-0.185720	0.675848	0.698191
O21	O	-0.822436	-0.074130	-0.165093
O22	O	-0.572436	0.175870	0.084907
O23	O	-0.322436	0.425870	0.334907
O24	O	-0.072436	0.675870	0.584907
O25	O	-1.050836	-0.074160	-0.166925
O26	O	-0.800836	0.175840	0.083075
O27	O	-0.550836	0.425840	0.333075
O28	O	-0.300836	0.675840	0.583075
Zn29	Zn	-0.936633	-0.097654	-0.166011
Zn30	Zn	-0.686633	0.152346	0.083989
Zn31	Zn	-0.436633	0.402346	0.333989
Zn32	Zn	-0.186633	0.652346	0.583989
Zn33	Zn	-0.936657	0.097427	-0.165990
Zn34	Zn	-0.686657	0.347427	0.084010
Zn35	Zn	-0.436657	0.597427	0.334010
Zn36	Zn	-0.186657	0.847427	0.584010
O37	O	-0.937552	-0.074138	-0.280209
O38	O	-0.687552	0.175862	-0.030209
O39	O	-0.437552	0.425862	0.219791
O40	O	-0.187552	0.675862	0.469791
C41	C	-0.793085	-0.000094	-0.162729
C42	C	-0.543085	0.249906	0.087271
C43	C	-0.293085	0.499906	0.337271
C44	C	-0.043085	0.749906	0.587271
C45	C	-0.705600	-0.000083	-0.155700
C46	C	-0.455600	0.249917	0.094300
C47	C	-0.205600	0.499917	0.344300
C48	C	0.044400	0.749917	0.594300
N49	N	-0.936623	-0.230791	-0.166026
N50	N	-0.686623	0.019209	0.083974
N51	N	-0.436623	0.269209	0.333974
N52	N	-0.186623	0.519209	0.583974
C53	C	-0.659609	-0.000079	-0.223518
C54	C	-0.409609	0.249921	0.026482
C55	C	-0.159609	0.499921	0.276482
C56	C	0.090391	0.749921	0.526482
C57	C	-0.577409	-0.000090	-0.216909
C58	C	-0.327409	0.249910	0.033091
C59	C	-0.077409	0.499910	0.283091
C60	C	0.172591	0.749910	0.533091
C61	C	-0.541200	-0.000099	-0.142481
C62	C	-0.291200	0.249901	0.107519
C63	C	-0.041200	0.499901	0.357519
C64	C	0.208800	0.749901	0.607519
C65	C	-0.587197	-0.000106	-0.074658
C66	C	-0.337197	0.249894	0.175342
C67	C	-0.087197	0.499894	0.425342
C68	C	0.162803	0.749894	0.675342
C69	C	-0.669397	-0.000101	-0.081268
C70	C	-0.419397	0.249899	0.168732
C71	C	-0.169397	0.499899	0.418732
C72	C	0.080603	0.749899	0.668732
C73	C	-0.295886	-0.000121	-0.115086
C74	C	-0.045886	0.249879	0.134914
C75	C	0.204114	0.499879	0.384914
C76	C	0.454114	0.749879	0.634914
C77	C	-0.213681	-0.000123	-0.108481
C78	C	0.036319	0.249877	0.141519
C79	C	0.286319	0.499877	0.391519
C80	C	0.536319	0.749877	0.641519
C81	C	-0.203898	-0.000109	-0.250733
C82	C	0.046102	0.249891	-0.000733
C83	C	0.296102	0.499891	0.249267
C84	C	0.546102	0.749891	0.499267
C85	C	-0.286099	-0.000098	-0.257336
C86	C	-0.036099	0.249902	-0.007336
C87	C	0.213901	0.499902	0.242664
C88	C	0.463901	0.749902	0.492664
C89	C	-0.332089	-0.000110	-0.189513
C90	C	-0.082089	0.249890	0.060487
C91	C	0.167911	0.499890	0.310487
C92	C	0.417911	0.749890	0.560487
N93	N	-0.457178	-0.000108	-0.135724
N94	N	-0.207178	0.249892	0.114276
N95	N	0.042822	0.499892	0.364276
N96	N	0.292822	0.749892	0.614276
N97	N	-0.416109	-0.000108	-0.196271
N98	N	-0.166109	0.249892	0.053729
N99	N	0.083891	0.499892	0.303729
N100	N	0.333891	0.749892	0.553729
C101	C	-0.080205	-0.000126	-0.169272
C102	C	0.169795	0.249874	0.080728
C103	C	0.419795	0.499874	0.330728
C104	C	0.669795	0.749874	0.580728
C105	C	-0.167690	-0.000119	-0.176299
C106	C	0.082310	0.249881	0.073701
C107	C	0.332310	0.499881	0.323701
C108	C	0.582310	0.749881	0.573701
C109	C	-0.884230	-0.470464	-0.218381
C110	C	-0.634230	-0.220464	0.031619
C111	C	-0.384230	0.029536	0.281619
C112	C	-0.134230	0.279536	0.531619
C113	C	-0.956318	-0.529807	-0.238117
C114	C	-0.706318	-0.279807	0.011883
C115	C	-0.456318	-0.029807	0.261883
C116	C	-0.206318	0.220193	0.511883
C117	C	-0.936641	-0.412398	-0.166007
C118	C	-0.686641	-0.162398	0.083993
C119	C	-0.436641	0.087602	0.333993
C120	C	-0.186641	0.337602	0.583993
C121	C	-0.864574	-0.529797	-0.146290
C122	C	-0.614574	-0.279797	0.103710
C123	C	-0.364574	-0.029797	0.353710
C124	C	-0.114574	0.220203	0.603710
C125	C	-0.936653	-0.587822	-0.165991
C126	C	-0.686653	-0.337822	0.084009
C127	C	-0.436653	-0.087822	0.334009
C128	C	-0.186653	0.162178	0.584009
C129	C	-1.008768	-0.470435	-0.185781
C130	C	-0.758768	-0.220435	0.064219
C131	C	-0.508768	0.029565	0.314219
C132	C	-0.258768	0.279565	0.564219
C133	C	-0.916975	-0.470419	-0.093920
C134	C	-0.666975	-0.220419	0.156080
C135	C	-0.416975	0.029581	0.406080
C136	C	-0.166975	0.279581	0.656080
C137	C	-0.989113	-0.529735	-0.113629
C138	C	-0.739113	-0.279735	0.136371
C139	C	-0.489113	-0.029735	0.386371
C140	C	-0.239113	0.220265	0.636371
C141	C	-0.936634	-0.311341	-0.166019
C142	C	-0.686634	-0.061341	0.083981
C143	C	-0.436634	0.188659	0.333981
C144	C	-0.186634	0.438659	0.583981
C145	C	-0.936669	-0.688878	-0.165979
C146	C	-0.686669	-0.438878	0.084021
C147	C	-0.436669	-0.188878	0.334021
C148	C	-0.186669	0.061122	0.584021
C149	C	-0.933374	-0.000120	-0.022440
C150	C	-0.683374	0.249880	0.227560
C151	C	-0.433374	0.499880	0.477560
C152	C	-0.183374	0.749880	0.727560
C153	C	-0.926345	-0.000119	0.065044
C154	C	-0.676345	0.249881	0.315044
C155	C	-0.426345	0.499881	0.565044
C156	C	-0.176345	0.749881	0.815044
N157	N	-0.936674	0.230565	-0.165970
N158	N	-0.686674	0.480565	0.084030
N159	N	-0.436674	0.730565	0.334030
N160	N	-0.186674	0.980565	0.584030
C161	C	-0.939916	-0.000105	-0.309561
C162	C	-0.689916	0.249895	-0.059561
C163	C	-0.439916	0.499895	0.190439
C164	C	-0.189916	0.749895	0.440439
C165	C	-0.946945	-0.000100	-0.397045
C166	C	-0.696945	0.249900	-0.147045
C167	C	-0.446945	0.499900	0.102955
C168	C	-0.196945	0.749900	0.352955
C169	C	-0.994163	-0.000128	0.111035
C170	C	-0.744163	0.249872	0.361035
C171	C	-0.494163	0.499872	0.611035
C172	C	-0.244163	0.749872	0.861035
C173	C	-0.987554	-0.000119	0.193236
C174	C	-0.737554	0.249881	0.443236
C175	C	-0.487554	0.499881	0.693236
C176	C	-0.237554	0.749881	0.943236
C177	C	-0.913126	-0.000106	0.229444
C178	C	-0.663126	0.249894	0.479444
C179	C	-0.413126	0.499894	0.729444
C180	C	-0.163126	0.749894	0.979444
C181	C	-0.845303	-0.000094	0.183447
C182	C	-0.595303	0.249906	0.433447
C183	C	-0.345303	0.499906	0.683447
C184	C	-0.095303	0.749906	0.933447
C185	C	-0.851913	-0.000097	0.101248
C186	C	-0.601913	0.249903	0.351248
C187	C	-0.351913	0.499903	0.601248
C188	C	-0.101913	0.749903	0.851248
C189	C	-0.885732	-0.000091	0.474758
C190	C	-0.635732	0.249909	0.724758
C191	C	-0.385732	0.499909	0.974758
C192	C	-0.135732	0.749909	1.224758
C193	C	-0.879127	-0.000090	0.556964
C194	C	-0.629127	0.249910	0.806964
C195	C	-0.379127	0.499910	1.056964
C196	C	-0.129127	0.749910	1.306964
C197	C	-1.021379	-0.000114	0.566747
C198	C	-0.771379	0.249886	0.816747
C199	C	-0.521379	0.499886	1.066747
C200	C	-0.271379	0.749886	1.316747
C201	C	-1.027982	-0.000122	0.484545
C202	C	-0.777982	0.249878	0.734545
C203	C	-0.527982	0.499878	0.984545
C204	C	-0.277982	0.749878	1.234545
C205	C	-0.960159	-0.000105	0.438556
C206	C	-0.710159	0.249895	0.688556
C207	C	-0.460159	0.499895	0.938556
C208	C	-0.210159	0.749895	1.188556
N209	N	-0.906369	-0.000100	0.313466
N210	N	-0.656369	0.249900	0.563466
N211	N	-0.406369	0.499900	0.813466
N212	N	-0.156369	0.749900	1.063466
N213	N	-0.966917	-0.000105	0.354535
N214	N	-0.716917	0.249895	0.604535
N215	N	-0.466917	0.499895	0.854535
N216	N	-0.216917	0.749895	1.104535
H217	H	-0.689084	-0.000071	-0.284125
H218	H	-0.439084	0.249929	-0.034125
H219	H	-0.189084	0.499929	0.215875
H220	H	0.060916	0.749929	0.465875
H221	H	-1.069737	-0.444469	-0.202522
H222	H	-0.819737	-0.194469	0.047478
H223	H	-0.569737	0.055531	0.297478
H224	H	-0.319737	0.305531	0.547478
Br225	Br	-0.538059	-0.000128	0.026352
Br226	Br	-0.288059	0.249872	0.276352
Br227	Br	-0.038059	0.499872	0.526352
Br228	Br	0.211941	0.749872	0.776352
H229	H	-0.315574	-0.000081	-0.317943
H230	H	-0.065574	0.249919	-0.067943
H231	H	0.184426	0.499919	0.182057
H232	H	0.434426	0.749919	0.432057
Br233	Br	-1.063077	-0.572846	-0.039795
Br234	Br	-0.813077	-0.322846	0.210205
Br235	Br	-0.563077	-0.072846	0.460205
Br236	Br	-0.313077	0.177154	0.710205
H237	H	-0.706842	-0.000104	-0.026043
H238	H	-0.456842	0.249896	0.223957
H239	H	-0.206842	0.499896	0.473957
H240	H	0.043158	0.749896	0.723957
Br241	Br	-0.984064	-0.573285	-0.339713
Br242	Br	-0.734064	-0.323285	-0.089713
Br243	Br	-0.484064	-0.073285	0.160287
Br244	Br	-0.234064	0.176715	0.410287
Br245	Br	-0.810438	-0.427083	-0.292267
Br246	Br	-0.560438	-0.177083	-0.042267
Br247	Br	-0.310438	0.072917	0.207733
Br248	Br	-0.060438	0.322917	0.457733
Br249	Br	-1.113419	-0.000137	0.629165
Br250	Br	-0.863419	0.249863	0.879165
Br251	Br	-0.613419	0.499863	1.129165
Br252	Br	-0.363419	0.749863	1.379165
H253	H	-0.900309	-0.444313	-0.032982
H254	H	-0.650309	-0.194313	0.217018
H255	H	-0.400309	0.055687	0.467018
H256	H	-0.150309	0.305687	0.717018
H257	H	-1.042779	-0.000129	0.230678
H258	H	-0.792779	0.249871	0.480678
H259	H	-0.542779	0.499871	0.730678
H260	H	-0.292779	0.749871	0.980678
Br261	Br	-1.128994	-0.000111	0.435411
Br262	Br	-0.878994	0.249889	0.685411
Br263	Br	-0.628994	0.499889	0.935411
Br264	Br	-0.378994	0.749889	1.185411
Br265	Br	-0.762986	-0.573264	-0.118506
Br266	Br	-0.512986	-0.323264	0.131494
Br267	Br	-0.262986	-0.073264	0.381494
Br268	Br	-0.012986	0.176736	0.631494
H269	H	-0.166444	-0.000101	-0.305950
H270	H	0.083556	0.249899	-0.055950
H271	H	0.333556	0.499899	0.194050
H272	H	0.583556	0.749899	0.444050
Br273	Br	-0.759871	-0.000076	0.038831
Br274	Br	-0.509871	0.249924	0.288831
Br275	Br	-0.259871	0.499924	0.538831
Br276	Br	-0.009871	0.749924	0.788831
Br277	Br	-1.095177	-0.000159	0.061903
Br278	Br	-0.845177	0.249841	0.311903
Br279	Br	-0.595177	0.499841	0.561903
Br280	Br	-0.345177	0.749841	0.811903
H281	H	-0.818516	-0.000094	0.586442
H282	H	-0.568516	0.249906	0.836442
H283	H	-0.318516	0.499906	1.086442
H284	H	-0.068516	0.749906	1.336442
H285	H	-0.830505	-0.000077	0.437323
H286	H	-0.580505	0.249923	0.687323
H287	H	-0.330505	0.499923	0.937323
H288	H	-0.080505	0.749923	1.187323
H289	H	-0.784703	-0.000078	0.212935
H290	H	-0.534703	0.249922	0.462935
H291	H	-0.284703	0.499922	0.712935
H292	H	-0.034703	0.749922	0.962935
H293	H	-0.539966	-0.000086	-0.272134
H294	H	-0.289966	0.249914	-0.022134
H295	H	-0.039966	0.499914	0.227866
H296	H	0.210034	0.749914	0.477866
H297	H	-0.333321	-0.000131	-0.059859
H298	H	-0.083321	0.249869	0.190141
H299	H	0.166679	0.499869	0.440141
H300	H	0.416679	0.749869	0.690141
Br301	Br	-0.164541	-0.000155	-0.007466
Br302	Br	0.085459	0.249845	0.242534
Br303	Br	0.335459	0.499845	0.492534
Br304	Br	0.585459	0.749845	0.742534
