data_functionalizedCrystal
_audit_creation_method	'MofGen! by Chris Wilmer'
_symmetry_space_group_name_H-M	'P1'
_symmetry_Int_Tables_number	1
_symmetry_cell_setting	triclinic
loop_
_symmetry_equiv_pos_as_xyz
  x,y,z
_cell_length_a	11.792241
_cell_length_b	14.519709
_cell_length_c	10.868271
_cell_angle_alpha	89.993918
_cell_angle_beta	89.999893
_cell_angle_gamma	83.936780
loop_
_atom_site_label
_atom_site_type_symbol
_atom_site_fract_x
_atom_site_fract_y
_atom_site_fract_z
O1	O	1.506208	0.126404	-0.102206
O2	O	1.756208	0.376404	0.147794
O3	O	2.006208	0.626404	0.397794
O4	O	2.256208	0.876404	0.647794
O5	O	1.175794	0.139432	-0.102235
O6	O	1.425794	0.389432	0.147765
O7	O	1.675794	0.639432	0.397765
O8	O	1.925794	0.889432	0.647765
O9	O	1.349761	-0.001288	-0.102208
O10	O	1.599761	0.248712	0.147792
O11	O	1.849761	0.498712	0.397792
O12	O	2.099761	0.748712	0.647792
O13	O	1.332241	0.267124	-0.102232
O14	O	1.582241	0.517124	0.147768
O15	O	1.832241	0.767124	0.397768
O16	O	2.082241	1.017124	0.647768
O17	O	1.349747	-0.001294	0.102436
O18	O	1.599747	0.248706	0.352436
O19	O	1.849747	0.498706	0.602436
O20	O	2.099747	0.748706	0.852436
O21	O	1.175780	0.139426	0.102410
O22	O	1.425780	0.389426	0.352410
O23	O	1.675780	0.639426	0.602410
O24	O	1.925780	0.889426	0.852410
O25	O	1.506193	0.126399	0.102439
O26	O	1.756193	0.376399	0.352439
O27	O	2.006193	0.626399	0.602439
O28	O	2.256193	0.876399	0.852439
Zn29	Zn	1.340984	0.132912	0.134916
Zn30	Zn	1.590984	0.382912	0.384916
Zn31	Zn	1.840984	0.632912	0.634916
Zn32	Zn	2.090984	0.882912	0.884916
Zn33	Zn	1.341003	0.132919	-0.134712
Zn34	Zn	1.591003	0.382919	0.115288
Zn35	Zn	1.841003	0.632919	0.365288
Zn36	Zn	2.091003	0.882919	0.615288
O37	O	1.332226	0.267119	0.102413
O38	O	1.582226	0.517119	0.352413
O39	O	1.832226	0.767119	0.602413
O40	O	2.082226	1.017119	0.852413
C41	C	1.133501	0.138611	0.000084
C42	C	1.383501	0.388611	0.250084
C43	C	1.633501	0.638611	0.500084
C44	C	1.883501	0.888611	0.750084
C45	C	1.007501	0.136161	0.000073
C46	C	1.257501	0.386161	0.250073
C47	C	1.507501	0.636161	0.500073
C48	C	1.757501	0.886161	0.750073
C49	C	1.348938	-0.035654	0.000114
C50	C	1.598938	0.214346	0.250114
C51	C	1.848938	0.464346	0.500114
C52	C	2.098938	0.714346	0.750114
C53	C	1.346491	-0.138044	0.000115
C54	C	1.596491	0.111956	0.250115
C55	C	1.846491	0.361956	0.500115
C56	C	2.096491	0.611956	0.750115
C57	C	0.776813	0.131657	0.000109
C58	C	1.026813	0.381657	0.250109
C59	C	1.276813	0.631657	0.500109
C60	C	1.526813	0.881657	0.750109
C61	C	0.905185	0.134160	0.000090
C62	C	1.155185	0.384160	0.250090
C63	C	1.405185	0.634160	0.500090
C64	C	1.655185	0.884160	0.750090
C65	C	1.337483	-0.512973	0.000082
C66	C	1.587483	-0.262973	0.250082
C67	C	1.837483	-0.012973	0.500082
C68	C	2.087483	0.237027	0.750082
C69	C	1.339984	-0.408656	0.000091
C70	C	1.589984	-0.158656	0.250091
C71	C	1.839984	0.091344	0.500091
C72	C	2.089984	0.341344	0.750091
C73	C	1.341987	-0.325512	0.000099
C74	C	1.591987	-0.075512	0.250099
C75	C	1.841987	0.174488	0.500099
C76	C	2.091987	0.424488	0.750099
C77	C	1.344489	-0.221188	0.000107
C78	C	1.594489	0.028812	0.250107
C79	C	1.844489	0.278812	0.500107
C80	C	2.094489	0.528812	0.750107
C81	C	1.548487	0.127220	0.000118
C82	C	1.798487	0.377220	0.250118
C83	C	2.048487	0.627220	0.500118
C84	C	2.298487	0.877220	0.750118
C85	C	1.674487	0.129669	0.000120
C86	C	1.924487	0.379669	0.250120
C87	C	2.174487	0.629669	0.500120
C88	C	2.424487	0.879669	0.750120
C89	C	1.333050	0.301484	0.000087
C90	C	1.583050	0.551484	0.250087
C91	C	1.833050	0.801484	0.500087
C92	C	2.083050	1.051484	0.750087
C93	C	1.335497	0.403875	0.000079
C94	C	1.585497	0.653875	0.250079
C95	C	1.835497	0.903875	0.500079
C96	C	2.085497	1.153875	0.750079
N97	N	1.340980	0.132906	0.318930
N98	N	1.590980	0.382906	0.568930
N99	N	1.840980	0.632906	0.818930
N100	N	2.090980	0.882906	1.068930
N101	N	1.341017	0.132917	-0.318726
N102	N	1.591017	0.382917	-0.068726
N103	N	1.841017	0.632917	0.181274
N104	N	2.091017	0.882917	0.431274
C105	C	1.340997	0.132917	0.569936
C106	C	1.590997	0.382917	0.819936
C107	C	1.840997	0.632917	1.069936
C108	C	2.090997	0.882917	1.319936
C109	C	1.340984	0.132914	0.430259
C110	C	1.590984	0.382914	0.680259
C111	C	1.840984	0.632914	0.930259
C112	C	2.090984	0.882914	1.180259
