data_functionalizedCrystal
_audit_creation_method	'MofGen! by Chris Wilmer'
_symmetry_space_group_name_H-M	'P1'
_symmetry_Int_Tables_number	1
_symmetry_cell_setting	triclinic
loop_
_symmetry_equiv_pos_as_xyz
  x,y,z
_cell_length_a	14.395555
_cell_length_b	12.970454
_cell_length_c	12.970454
_cell_angle_alpha	60.000396
_cell_angle_beta	90.001507
_cell_angle_gamma	59.999555
loop_
_atom_site_label
_atom_site_type_symbol
_atom_site_fract_x
_atom_site_fract_y
_atom_site_fract_z
Zr1	Zr	0.894919	1.128466	-0.135237
O2	O	0.746590	1.343561	-0.299867
O3	O	0.940389	0.913375	-0.084770
O4	O	0.940391	1.128463	-0.299858
O5	O	0.746587	1.128474	0.084887
O6	O	1.093265	1.128455	-0.299849
O7	O	0.746588	1.128473	-0.084780
O8	O	1.093261	0.743702	0.084904
O9	O	0.746591	1.513227	-0.299866
O10	O	1.073870	1.001837	-0.063238
O11	O	0.959781	1.001844	0.063375
O12	O	0.959784	1.255082	-0.189863
O13	O	0.845695	1.255088	-0.063249
Zr14	Zr	1.138734	1.128455	0.135376
Zr15	Zr	1.138735	1.128454	-0.135222
Zr16	Zr	0.894917	1.128467	0.135362
Zr17	Zr	0.894920	1.399063	-0.135235
Zr18	Zr	1.138733	0.857857	0.135374
O19	O	1.093263	1.343546	0.084909
O20	O	1.093266	1.343544	-0.299847
O21	O	0.746588	1.343563	0.084889
O22	O	1.287062	0.913359	0.300007
O23	O	1.287065	0.913357	-0.084749
O24	O	0.940386	0.913377	0.299986
O25	O	1.287065	1.128446	-0.084748
O26	O	1.093261	1.128458	0.299997
O27	O	0.940387	1.128466	0.299988
O28	O	1.287064	1.128447	0.084919
O29	O	0.940392	1.513218	-0.299855
O30	O	1.093260	0.743703	0.299994
O31	O	1.287062	0.743693	0.300005
O32	O	1.287063	0.743692	0.084916
O33	O	0.746589	1.513228	-0.084776
O34	O	0.940391	1.513219	-0.084765
O35	O	1.073869	1.001839	0.190002
O36	O	1.187958	1.001832	0.063389
O37	O	1.073871	1.255077	-0.063236
O38	O	0.959782	1.255083	0.063377
C39	C	1.016825	0.789984	0.000067
C40	C	1.016825	0.675108	0.000066
C41	C	0.711849	1.128476	0.000052
C42	C	0.608342	1.128481	0.000046
C43	C	0.485548	1.266561	-0.068985
C44	C	0.454713	1.197534	-0.119014
C45	C	0.454755	1.197502	0.050065
C46	C	0.578870	1.059453	-0.050053
C47	C	0.578908	1.059441	0.119092
C48	C	0.548146	0.990313	0.069093
C49	C	1.321803	1.128445	0.000088
C50	C	1.425310	1.128440	0.000094
C51	C	1.016828	1.128459	-0.338408
C52	C	1.016829	1.128458	-0.453284
C53	C	1.016827	1.466937	0.000073
C54	C	1.016828	1.581813	0.000074
C55	C	1.016824	1.128462	0.338547
C56	C	1.016823	1.128463	0.453423
C57	C	1.321802	0.789969	0.000085
C58	C	1.425308	0.675088	0.000090
C59	C	1.016823	0.789986	0.338544
C60	C	1.016822	0.675111	0.453419
C61	C	1.321800	0.789971	0.338562
C62	C	1.425306	0.675090	0.453444
C63	C	0.711852	1.466950	-0.338423
C64	C	0.608347	1.581831	-0.453304
C65	C	0.711850	1.466952	0.000055
C66	C	0.608344	1.581833	0.000049
C67	C	1.016829	1.466935	-0.338405
C68	C	1.016830	1.581810	-0.453280
C69	C	1.473916	0.527654	0.093567
C70	C	1.571161	0.419696	0.093576
C71	C	1.619802	0.459175	0.000112
C72	C	1.571185	0.606623	-0.093375
C73	C	1.473937	0.714578	-0.093388
C74	C	1.473920	0.527657	0.507391
C75	C	1.571186	0.419698	0.615322
C76	C	1.619830	0.459175	0.669309
C77	C	1.571210	0.606623	0.615351
C78	C	1.473951	0.714579	0.507417
C79	C	0.559740	1.729264	-0.507262
C80	C	0.462496	1.837223	-0.615217
C81	C	0.413856	1.797745	-0.669207
C82	C	0.462472	1.650297	-0.615244
C83	C	0.559718	1.542341	-0.507296
C84	C	0.559734	1.542309	0.093530
C85	C	0.462489	1.650237	0.093551
C86	C	0.413850	1.797688	0.000085
C87	C	0.462469	1.837212	-0.093401
C88	C	0.559717	1.729285	-0.093415
H89	H	0.460105	1.383321	-0.127451
H90	H	0.334664	1.885554	0.000111
H91	H	0.599320	1.422253	0.169641
H92	H	1.434373	0.834625	0.463505
H93	H	0.401196	1.255891	-0.219670
H94	H	0.422853	1.957280	-0.169497
H95	H	0.599284	1.761487	-0.169544
H96	H	0.573803	0.873458	0.127477
C97	C	0.650948	0.980679	-0.107342
N98	N	0.705236	0.921353	-0.150496
H99	H	1.610753	0.299647	0.659244
H100	H	1.699023	0.371256	0.757197
C101	C	0.382479	1.276373	0.107195
N102	N	0.328042	1.335788	0.150217
C103	C	0.409019	1.606728	0.196389
N104	N	0.368748	1.573954	0.273844
H105	H	0.632422	1.001134	0.219727
H106	H	0.422926	1.957273	-0.659136
C107	C	1.420435	0.484196	0.448021
N108	N	1.380161	0.451450	0.403304
C109	C	0.613231	1.772725	-0.447898
N110	N	0.653519	1.805472	-0.403197
C111	C	1.624710	0.650027	-0.196174
N112	N	1.665032	0.682715	-0.273597
H113	H	1.610732	0.299645	0.169708
C114	C	1.420425	0.484192	0.196387
N115	N	1.380137	0.451444	0.273832
C116	C	0.613165	1.380162	-0.447944
N117	N	0.653415	1.258009	-0.403244
C118	C	1.420488	0.876757	-0.196217
N119	N	1.380237	0.998911	-0.273672
H120	H	0.334672	1.885664	-0.757105
H121	H	1.610831	0.638746	0.659323
H122	H	1.698985	0.371257	0.000135
H123	H	0.422854	1.618173	-0.659219
