data_functionalizedCrystal
_audit_creation_method	'MofGen! by Chris Wilmer'
_symmetry_space_group_name_H-M	'P1'
_symmetry_Int_Tables_number	1
_symmetry_cell_setting	triclinic
loop_
_symmetry_equiv_pos_as_xyz
  x,y,z
_cell_length_a	14.044220
_cell_length_b	14.044220
_cell_length_c	13.330367
_cell_angle_alpha	89.994700
_cell_angle_beta	89.997392
_cell_angle_gamma	93.188878
loop_
_atom_site_label
_atom_site_type_symbol
_atom_site_fract_x
_atom_site_fract_y
_atom_site_fract_z
O1	O	1.277172	0.230167	-0.083321
O2	O	1.000501	0.221862	-0.083346
O3	O	1.134684	0.087679	-0.083324
O4	O	1.142989	0.364350	-0.083343
O5	O	1.134662	0.087674	0.083523
O6	O	1.000479	0.221857	0.083501
O7	O	1.277151	0.230162	0.083526
Cu8	Cu	1.138813	0.226009	0.098748
Cu9	Cu	1.138838	0.226015	-0.098568
O10	O	1.142968	0.364345	0.083504
C11	C	0.964868	0.218223	0.000074
C12	C	0.858725	0.207379	0.000065
C13	C	0.664388	0.187553	0.000086
C14	C	0.613258	0.264467	0.000085
C15	C	0.505122	0.253435	0.000097
C16	C	0.772534	0.198583	0.000074
C17	C	1.131037	0.052054	0.000100
C18	C	1.120193	-0.054088	0.000100
C19	C	1.100366	-0.248426	0.000084
C20	C	1.177281	-0.299556	0.000088
C21	C	1.166249	-0.407692	0.000079
C22	C	1.111397	-0.140280	0.000093
C23	C	1.312783	0.233800	0.000104
C24	C	1.418926	0.244645	0.000106
C25	C	1.146614	0.399969	0.000078
C26	C	1.157459	0.506112	0.000071
N27	N	1.138802	0.226005	0.237530
N28	N	1.138856	0.226012	-0.237349
C29	C	1.079417	0.285405	0.710143
C30	C	1.198285	0.166619	0.710130
C31	C	1.198274	0.166615	0.605112
C32	C	1.138835	0.226008	0.552604
C33	C	1.079406	0.285405	0.605115
C34	C	1.257708	0.107226	0.552594
C35	C	1.257700	0.107221	0.447569
C36	C	1.198255	0.166610	0.395059
C37	C	1.138824	0.226008	0.447576
C38	C	1.079385	0.285402	0.395068
C39	C	1.019948	0.344796	0.447583
C40	C	1.019962	0.344794	0.552605
C41	C	1.198241	0.166612	0.290038
C42	C	1.079374	0.285402	0.290040
H43	H	1.251414	-0.262117	0.000027
H44	H	0.626951	0.113425	0.000097
H45	H	1.026239	-0.285863	0.000075
C46	C	1.014805	0.349992	0.233217
C47	C	0.962777	0.402018	0.301688
C48	C	0.903297	0.461537	0.249379
H49	H	0.972078	0.312370	0.192250
H50	H	1.052483	0.392712	0.192263
H51	H	0.925102	0.359303	0.342624
H52	H	1.005480	0.439659	0.342657
H53	H	0.940975	0.504258	0.208426
H54	H	0.860576	0.423908	0.208415
H55	H	0.867996	0.496851	0.295829
C56	C	0.955546	0.409249	0.609803
C57	C	0.968303	0.396558	0.713014
C58	C	0.908993	0.455928	0.765740
H59	H	0.890912	0.393520	0.592732
H60	H	0.971310	0.473870	0.592638
H61	H	0.952533	0.331952	0.730172
H62	H	1.032925	0.412294	0.730115
H63	H	0.924757	0.520549	0.748575
H64	H	0.844363	0.440194	0.748660
H65	H	0.917647	0.447332	0.835774
H66	H	0.971556	0.393159	0.404819
C67	C	0.662994	0.363400	0.000113
C68	C	0.594566	0.432195	0.000133
C69	C	0.640351	0.523338	0.000168
H70	H	0.701733	0.371020	-0.058062
H71	H	0.701722	0.370946	0.058313
H72	H	0.555854	0.424652	-0.058061
H73	H	0.555823	0.424607	0.058303
H74	H	0.679079	0.530884	0.058368
H75	H	0.679088	0.530948	-0.058008
H76	H	0.593930	0.570026	0.000191
H77	H	1.031022	0.333761	0.752903
C78	C	1.262746	0.101976	0.767014
C79	C	1.239336	0.006845	0.741464
C80	C	1.298702	-0.052737	0.793842
H81	H	1.254292	0.110359	0.837096
H82	H	1.327355	0.117701	0.749775
H83	H	1.174742	-0.008875	0.758709
H84	H	1.247794	-0.001568	0.671391
H85	H	1.363311	-0.037012	0.776604
H86	H	1.290244	-0.044346	0.863922
H87	H	1.282832	-0.117289	0.776507
C88	C	1.322392	0.042852	0.609537
C89	C	1.417519	0.066326	0.584004
C90	C	1.477131	0.007042	0.636451
H91	H	1.306753	-0.021773	0.592363
H92	H	1.313949	0.051355	0.679617
H93	H	1.425958	0.057815	0.513940
H94	H	1.433188	0.130941	0.601181
H95	H	1.468688	0.015545	0.706530
H96	H	1.461483	-0.057580	0.619272
H97	H	1.541681	0.022966	0.619141
C98	C	1.322088	0.042465	0.390735
C99	C	1.298552	-0.052611	0.416431
C100	C	1.357829	-0.112340	0.364139
H101	H	1.386711	0.058099	0.407926
H102	H	1.313625	0.050798	0.320633
H103	H	1.307022	-0.060940	0.486517
H104	H	1.233939	-0.068274	0.399237
H105	H	1.349367	-0.104007	0.294038
H106	H	1.422449	-0.096698	0.381335
H107	H	1.341863	-0.176856	0.381560
H108	H	1.246638	0.118258	0.247285
