data_functionalizedCrystal
_audit_creation_method	'MofGen! by Chris Wilmer'
_symmetry_space_group_name_H-M	'P1'
_symmetry_Int_Tables_number	1
_symmetry_cell_setting	triclinic
loop_
_symmetry_equiv_pos_as_xyz
  x,y,z
_cell_length_a	19.077105
_cell_length_b	18.050590
_cell_length_c	19.076919
_cell_angle_alpha	92.270515
_cell_angle_beta	90.076224
_cell_angle_gamma	87.714864
loop_
_atom_site_label
_atom_site_type_symbol
_atom_site_fract_x
_atom_site_fract_y
_atom_site_fract_z
Zn1	Zn	1.058306	-0.359282	-0.440410
Zn2	Zn	1.391639	-0.025949	-0.107077
Zn3	Zn	1.724972	0.307384	0.226256
Zn4	Zn	1.062957	-0.478691	-0.322901
Zn5	Zn	1.396291	-0.145358	0.010432
Zn6	Zn	1.729624	0.187976	0.343766
Zn7	Zn	0.945523	-0.349334	-0.318204
Zn8	Zn	1.278856	-0.016000	0.015129
Zn9	Zn	1.612189	0.317333	0.348463
Zn10	Zn	0.940779	-0.478243	-0.435654
Zn11	Zn	1.274112	-0.144910	-0.102320
Zn12	Zn	1.607446	0.188424	0.231013
O13	O	1.001891	-0.416388	-0.379292
O14	O	1.335225	-0.083054	-0.045959
O15	O	1.668558	0.250279	0.287374
O16	O	1.157255	-0.379473	-0.428779
O17	O	1.490588	-0.046140	-0.095446
O18	O	1.823922	0.287193	0.237888
O19	O	1.051311	-0.457555	-0.223947
O20	O	1.384645	-0.124222	0.109387
O21	O	1.717978	0.209111	0.442720
O22	O	0.960522	-0.246732	-0.334440
O23	O	1.293855	0.086602	-0.001106
O24	O	1.627189	0.419935	0.332227
O25	O	1.160673	-0.467202	-0.342445
O26	O	1.494006	-0.133869	-0.009112
O27	O	1.827339	0.199465	0.324221
O28	O	1.043383	-0.254041	-0.424224
O29	O	1.376717	0.079293	-0.090891
O30	O	1.710050	0.412626	0.242442
O31	O	0.965032	-0.362517	-0.220496
O32	O	1.298366	-0.029184	0.112838
O33	O	1.631699	0.304150	0.446171
O34	O	0.846561	-0.362083	-0.329827
O35	O	1.179894	-0.028750	0.003506
O36	O	1.513228	0.304584	0.336839
O37	O	0.952437	-0.466439	-0.534616
O38	O	1.285771	-0.133105	-0.201282
O39	O	1.619104	0.200228	0.132051
O40	O	0.843076	-0.456792	-0.416117
O41	O	1.176409	-0.123459	-0.082784
O42	O	1.509743	0.209875	0.250549
O43	O	1.038784	-0.379039	-0.538111
O44	O	1.372117	-0.045706	-0.204777
O45	O	1.705450	0.287628	0.128556
O46	O	1.046712	-0.582553	-0.337833
O47	O	1.380045	-0.249220	-0.004500
O48	O	1.713378	0.084113	0.328834
O49	O	0.956948	-0.582224	-0.420672
O50	O	1.290281	-0.248891	-0.087339
O51	O	1.623614	0.084442	0.245995
C52	C	0.819322	-0.408310	-0.371947
C53	C	1.152655	-0.074977	-0.038614
C54	C	1.485989	0.258357	0.294720
C55	C	0.741218	-0.404873	-0.368821
C56	C	1.074551	-0.071539	-0.035488
C57	C	1.407884	0.261794	0.297846
C58	C	0.702731	-0.452637	-0.412209
C59	C	1.036064	-0.119303	-0.078875
C60	C	1.369397	0.214030	0.254458
C61	C	0.629343	-0.449397	-0.409275
C62	C	0.962676	-0.116064	-0.075942
C63	C	1.296010	0.217269	0.257392
C64	C	0.594444	-0.398397	-0.362950
C65	C	0.927777	-0.065064	-0.029617
C66	C	1.261111	0.268269	0.303717
C67	C	0.632936	-0.350628	-0.319561
C68	C	0.966269	-0.017295	0.013773
C69	C	1.299603	0.316038	0.347106
C70	C	0.706322	-0.353864	-0.322498
C71	C	1.039655	-0.020531	0.010835
C72	C	1.372989	0.312802	0.344168
C73	C	0.375155	-0.383420	-0.349358
C74	C	0.708488	-0.050087	-0.016024
C75	C	1.041822	0.283246	0.317309
C76	C	0.301764	-0.380189	-0.346422
C77	C	0.635097	-0.046856	-0.013089
C78	C	0.968430	0.286477	0.320245
C79	C	0.298176	-0.478958	-0.436137
C80	C	0.631509	-0.145625	-0.102804
C81	C	0.964843	0.187709	0.230529
C82	C	0.371564	-0.482193	-0.439068
C83	C	0.704897	-0.148859	-0.105734
C84	C	1.038230	0.184474	0.227599
C85	C	0.410049	-0.434421	-0.395681
C86	C	0.743383	-0.101088	-0.062348
C87	C	1.076716	0.232246	0.270985
N88	N	0.519430	-0.395087	-0.359949
N89	N	0.852763	-0.061753	-0.026615
N90	N	1.186097	0.271580	0.306718
N91	N	0.485062	-0.437728	-0.398687
N92	N	0.818395	-0.104395	-0.065353
N93	N	1.151728	0.228938	0.267980
C94	C	1.001838	-0.609336	-0.379262
C95	C	1.335172	-0.276003	-0.045929
C96	C	1.668505	0.057330	0.287405
C97	C	1.001879	-0.691884	-0.379275
C98	C	1.335212	-0.358551	-0.045942
C99	C	1.668546	-0.025218	0.287391
C100	C	1.050788	-0.891494	-0.334297
C101	C	1.384121	-0.558160	-0.000963
C102	C	1.717454	-0.224827	0.332370
C103	C	1.065373	-0.944195	-0.399117
C104	C	1.398707	-0.610861	-0.065784
C105	C	1.732040	-0.277528	0.267550
C106	C	1.001918	-0.843017	-0.379305
C107	C	1.335251	-0.509684	-0.045971
C108	C	1.668584	-0.176351	0.287362
C109	C	0.987403	-0.937403	-0.314516
C110	C	1.320736	-0.604069	0.018817
C111	C	1.654069	-0.270736	0.352150
C112	C	1.001957	-0.989005	-0.379328
C113	C	1.335290	-0.655672	-0.045995
C114	C	1.668623	-0.322339	0.287339
C115	C	1.016535	-0.894634	-0.444160
C116	C	1.349868	-0.561300	-0.110827
C117	C	1.683202	-0.227967	0.222507
C118	C	0.938536	-0.887835	-0.359515
C119	C	1.271869	-0.554501	-0.026182
C120	C	1.605203	-0.221168	0.307152
C121	C	0.953096	-0.940514	-0.424378
C122	C	1.286429	-0.607180	-0.091045
C123	C	1.619762	-0.273847	0.242288
C124	C	1.001897	-0.758918	-0.379291
C125	C	1.335230	-0.425584	-0.045957
C126	C	1.668564	-0.092251	0.287376
C127	C	1.001977	-1.073103	-0.379349
C128	C	1.335310	-0.739770	-0.046016
C129	C	1.668644	-0.406437	0.287317
C130	C	1.185173	-0.424497	-0.386667
C131	C	1.518506	-0.091164	-0.053333
C132	C	1.851840	0.242169	0.280000
C133	C	1.263277	-0.427953	-0.389809
C134	C	1.596610	-0.094620	-0.056476
C135	C	1.929944	0.238713	0.276857
C136	C	0.994562	-0.423799	-0.562572
C137	C	1.327896	-0.090465	-0.229239
C138	C	1.661229	0.242868	0.104094
C139	C	0.991439	-0.426957	-0.640675
C140	C	1.324773	-0.093624	-0.307342
C141	C	1.658106	0.239710	0.025991
C142	C	1.001963	-0.222687	-0.379339
C143	C	1.335296	0.110646	-0.046005
C144	C	1.668629	0.443980	0.287328
C145	C	1.001993	-0.140143	-0.379358
C146	C	1.335327	0.193190	-0.046025
C147	C	1.668660	0.526523	0.287308
C148	C	1.034926	-0.382938	-0.679189
C149	C	1.368259	-0.049605	-0.345855
C150	C	1.701592	0.283729	-0.012522
C151	C	1.031983	-0.385902	-0.752575
C152	C	1.365316	-0.052569	-0.419241
C153	C	1.698649	0.280764	-0.085908
C154	C	0.985556	-0.432890	-0.787446
C155	C	1.318890	-0.099556	-0.454112
C156	C	1.652223	0.233777	-0.120779
C157	C	0.942065	-0.476910	-0.748927
C158	C	1.275399	-0.143577	-0.415593
C159	C	1.608732	0.189757	-0.082260
C160	C	0.945005	-0.473941	-0.675542
C161	C	1.278339	-0.140608	-0.342209
C162	C	1.611672	0.192725	-0.008875
C163	C	0.971940	-0.446644	-1.006726
C164	C	1.305273	-0.113311	-0.673393
C165	C	1.638606	0.220023	-0.340060
C166	C	0.969005	-0.449611	-1.080116
C167	C	1.302338	-0.116277	-0.746783
C168	C	1.635671	0.217056	-0.413450
C169	C	1.058922	-0.358602	-1.083759
C170	C	1.392255	-0.025268	-0.750426
C171	C	1.725588	0.308065	-0.417092
C172	C	1.061860	-0.355641	-1.010373
C173	C	1.395194	-0.022307	-0.677040
C174	C	1.728527	0.311026	-0.343706
C175	C	1.018367	-0.399658	-0.971860
C176	C	1.351700	-0.066325	-0.638527
C177	C	1.685033	0.267009	-0.305194
N178	N	0.982549	-0.435922	-0.862458
N179	N	1.315882	-0.102589	-0.529124
N180	N	1.649215	0.230744	-0.195791
N181	N	1.021371	-0.396621	-0.896850
N182	N	1.354705	-0.063288	-0.563516
N183	N	1.688038	0.270046	-0.230183
C184	C	1.009232	-0.408953	-0.196727
C185	C	1.342565	-0.075620	0.136607
C186	C	1.675898	0.257713	0.469940
C187	C	1.012491	-0.405592	-0.118630
C188	C	1.345824	-0.072259	0.214704
C189	C	1.679158	0.261075	0.548037
H190	H	0.598010	-0.488293	-0.444605
H191	H	0.931344	-0.154959	-0.111272
H192	H	1.264677	0.178374	0.222062
Br193	Br	0.879053	-0.540675	-0.796251
Br194	Br	1.212386	-0.207341	-0.462917
Br195	Br	1.545720	0.125992	-0.129584
H196	H	0.911783	-0.961907	-0.462496
H197	H	1.245116	-0.628574	-0.129162
H198	H	1.578450	-0.295240	0.204171
H199	H	0.731140	-0.494169	-0.449929
H200	H	1.064474	-0.160836	-0.116596
H201	H	1.397807	0.172498	0.216738
Br202	Br	0.418922	-0.551414	-0.501936
Br203	Br	0.752256	-0.218080	-0.168602
Br204	Br	1.085589	0.115253	0.164731
H205	H	0.884936	-0.863176	-0.342744
H206	H	1.218269	-0.529843	-0.009410
H207	H	1.551602	-0.196510	0.323923
Br208	Br	0.758555	-0.289035	-0.263617
Br209	Br	1.091889	0.044298	0.069716
Br210	Br	1.425222	0.377631	0.403050
H211	H	0.604515	-0.309100	-0.281845
H212	H	0.937848	0.024233	0.051488
H213	H	1.271182	0.357567	0.384822
Br214	Br	1.119684	-0.855614	-0.270924
Br215	Br	1.453018	-0.522281	0.062409
Br216	Br	1.786351	-0.188947	0.395742
Br217	Br	0.245942	-0.543790	-0.495013
Br218	Br	0.579276	-0.210457	-0.161680
Br219	Br	0.912609	0.122877	0.171654
H220	H	0.273351	-0.338651	-0.308703
H221	H	0.606684	-0.005317	0.024631
H222	H	0.940018	0.328016	0.357964
Br223	Br	0.885981	-0.533679	-0.623272
Br224	Br	1.219315	-0.200345	-0.289939
Br225	Br	1.552648	0.132988	0.043394
H226	H	1.094331	-0.322764	-1.115124
H227	H	1.427664	0.010569	-0.781790
H228	H	1.760997	0.343902	-0.448457
Br229	Br	0.966913	-0.968905	-0.223181
Br230	Br	1.300246	-0.635571	0.110152
Br231	Br	1.633579	-0.302238	0.443486
Br232	Br	0.427376	-0.318583	-0.290479
Br233	Br	0.760710	0.014750	0.042854
Br234	Br	1.094043	0.348084	0.376187
Br235	Br	1.124872	-0.291872	-0.963053
Br236	Br	1.458206	0.041461	-0.629720
Br237	Br	1.791539	0.374794	-0.296386
H238	H	1.118990	-0.968837	-0.415870
H239	H	1.452323	-0.635503	-0.082536
H240	H	1.785657	-0.302170	0.250797
Br241	Br	0.905991	-0.513381	-1.127441
Br242	Br	1.239324	-0.180048	-0.794108
Br243	Br	1.572657	0.153286	-0.460774
Br244	Br	1.037139	-0.863301	-0.535527
Br245	Br	1.370472	-0.529968	-0.202194
Br246	Br	1.703805	-0.196634	0.131139
H247	H	1.072733	-0.344678	-0.650802
H248	H	1.406067	-0.011345	-0.317469
H249	H	1.739400	0.321988	0.015864
Br250	Br	1.091036	-0.326196	-0.804842
Br251	Br	1.424369	0.007137	-0.471509
Br252	Br	1.757702	0.340471	-0.138175
H253	H	0.936534	-0.482497	-0.975379
H254	H	1.269868	-0.149164	-0.642045
H255	H	1.603201	0.184169	-0.308712
