data_functionalizedCrystal
_audit_creation_method	'MofGen! by Chris Wilmer'
_symmetry_space_group_name_H-M	'P1'
_symmetry_Int_Tables_number	1
_symmetry_cell_setting	triclinic
loop_
_symmetry_equiv_pos_as_xyz
  x,y,z
_cell_length_a	7.088928
_cell_length_b	8.559649
_cell_length_c	8.559649
_cell_angle_alpha	69.778664
_cell_angle_beta	84.684688
_cell_angle_gamma	95.352037
loop_
_atom_site_label
_atom_site_type_symbol
_atom_site_fract_x
_atom_site_fract_y
_atom_site_fract_z
O1	O	0.158969	2.145606	-0.073710
O2	O	0.158973	1.670122	0.010070
O3	O	0.158969	1.949754	-0.269562
O4	O	0.158973	1.865974	0.205922
O5	O	-0.159006	1.912280	-0.232212
O6	O	-0.159001	1.632647	0.047420
O7	O	-0.159006	2.108132	-0.036360
Cu8	Cu	-0.188037	1.866968	0.008940
Cu9	Cu	0.188005	1.911286	-0.035230
O10	O	-0.159001	1.828499	0.243272
C11	C	-0.000013	1.591076	0.035094
C12	C	-0.000011	1.411377	0.053993
N13	N	-0.452525	1.835809	0.040005
C14	C	-0.000015	1.937367	-0.311197
C15	C	-0.000005	1.956267	-0.490897
N16	N	0.452492	1.942459	-0.066309
C17	C	-0.000015	2.187178	-0.061385
C18	C	-0.000005	2.366879	-0.080285
C19	C	-0.000013	1.840887	0.284906
C20	C	-0.000011	1.821989	0.464605
H21	H	0.465831	1.725287	0.150186
N22	N	0.560631	2.088843	-0.212299
H23	H	0.702581	2.086629	-0.210117
H24	H	0.525761	2.197457	-0.203332
N25	N	-0.000058	2.279769	0.225451
H26	H	0.117796	2.306568	0.274235
H27	H	-0.000135	2.165792	0.215003
N28	N	-0.000002	2.498512	-0.251734
H29	H	-0.000013	2.612532	-0.241392
H30	H	-0.117878	2.471553	-0.300402
N31	N	-0.000028	1.650556	-0.403753
H32	H	0.117846	1.650472	-0.345889
H33	H	-0.000113	1.563720	-0.459077
N34	N	-0.000032	2.127706	-0.622538
H35	H	0.117831	2.155574	-0.708103
H36	H	-0.000100	2.214516	-0.567185
