data_functionalizedCrystal
_audit_creation_method	'MofGen! by Chris Wilmer'
_symmetry_space_group_name_H-M	'P1'
_symmetry_Int_Tables_number	1
_symmetry_cell_setting	triclinic
loop_
_symmetry_equiv_pos_as_xyz
  x,y,z
_cell_length_a	12.827892
_cell_length_b	12.759401
_cell_length_c	12.759393
_cell_angle_alpha	89.979541
_cell_angle_beta	89.970854
_cell_angle_gamma	90.016917
loop_
_atom_site_label
_atom_site_type_symbol
_atom_site_fract_x
_atom_site_fract_y
_atom_site_fract_z
Zn1	Zn	-0.415947	1.606256	-0.594025
Zn2	Zn	-0.590722	1.606147	-0.418348
Zn3	Zn	-0.416000	1.430557	-0.418361
Zn4	Zn	-0.590651	1.430545	-0.593985
O5	O	-0.503330	1.518376	-0.506180
O6	O	-0.439138	1.753263	-0.570733
O7	O	-0.567597	1.582813	-0.271328
O8	O	-0.269757	1.453914	-0.441685
O9	O	-0.567545	1.753182	-0.441663
O10	O	-0.269718	1.583000	-0.570745
O11	O	-0.439230	1.453808	-0.271338
O12	O	-0.439161	1.283534	-0.441646
O13	O	-0.567424	1.453894	-0.741011
O14	O	-0.567476	1.283525	-0.570676
O15	O	-0.439069	1.582989	-0.741041
O16	O	-0.736949	1.582802	-0.441624
O17	O	-0.736896	1.453788	-0.570664
C18	C	-0.503317	1.245409	-0.506159
C19	C	-0.503337	1.128632	-0.506175
C20	C	-0.570252	1.073793	-0.573255
C21	C	-0.570256	0.964069	-0.573276
C22	C	-0.436426	0.964033	-0.439127
C23	C	-0.436418	1.073755	-0.439112
C24	C	-0.774840	1.518310	-0.506161
C25	C	-0.890993	1.518378	-0.506188
C26	C	-0.942769	1.582294	-0.442406
C27	C	-1.062819	1.582366	-0.442433
C28	C	-0.230760	1.518471	-0.506221
C29	C	-0.114607	1.518511	-0.506239
C30	C	-0.503233	1.518452	-0.780213
C31	C	-0.503191	1.518485	-0.896990
C32	C	-0.503343	1.792409	-0.506201
C33	C	-0.503349	1.909186	-0.506210
C34	C	-0.569954	1.585686	-1.061582
C35	C	-0.570004	1.585660	-0.951858
C36	C	-0.436332	1.451323	-0.951851
C37	C	-0.436289	1.451344	-1.061573
C38	C	-0.503351	1.518361	-0.233212
C39	C	-0.503098	1.518532	-0.116436
H40	H	-0.624744	0.919424	-0.627901
H41	H	-0.898222	1.636967	-0.387783
C42	C	-0.643529	1.659558	-0.891524
N43	N	-0.698904	1.715228	-0.846081
H44	H	-1.070088	1.463783	-0.560844
C45	C	-0.362829	1.377439	-0.891492
N46	N	-0.307458	1.321794	-0.846030
C47	C	-0.951172	1.444520	-0.579987
N48	N	-0.996498	1.388887	-0.635572
C49	C	-0.643455	1.659585	-1.121928
N50	N	-0.698822	1.715244	-1.167377
H51	H	-0.381845	1.396654	-1.106236
C52	C	-1.122969	1.656292	-0.368657
N53	N	-1.168276	1.711976	-0.313087
H54	H	-0.624739	1.118471	-0.627864
H55	H	-0.381945	0.919338	-0.384525
H56	H	-0.381921	1.118406	-0.384487
