data_functionalizedCrystal
_audit_creation_method	'MofGen! by Chris Wilmer'
_symmetry_space_group_name_H-M	'P1'
_symmetry_Int_Tables_number	1
_symmetry_cell_setting	triclinic
loop_
_symmetry_equiv_pos_as_xyz
  x,y,z
_cell_length_a	15.995350
_cell_length_b	17.699083
_cell_length_c	16.776229
_cell_angle_alpha	89.992455
_cell_angle_beta	89.996506
_cell_angle_gamma	83.387695
loop_
_atom_site_label
_atom_site_type_symbol
_atom_site_fract_x
_atom_site_fract_y
_atom_site_fract_z
O1	O	1.110790	0.097560	-0.066222
O2	O	0.866990	0.109607	-0.066239
O3	O	0.995778	-0.006594	-0.066223
O4	O	0.982002	0.213761	-0.066238
O5	O	0.995761	-0.006602	0.066353
O6	O	0.866973	0.109600	0.066338
O7	O	1.110773	0.097553	0.066354
Zn8	Zn	0.988870	0.103575	0.087395
Zn9	Zn	0.988893	0.103584	-0.087280
O10	O	0.981985	0.213754	0.066338
C11	C	0.995276	-0.034796	0.000065
C12	C	0.993795	-0.118816	0.000065
C13	C	0.835788	0.109105	0.000047
C14	C	0.742841	0.107612	0.000041
C15	C	1.069391	-0.167312	0.000072
C16	C	1.067994	-0.246257	0.000065
C17	C	0.991001	-0.276706	0.000057
C18	C	0.915400	-0.228205	0.000048
C19	C	0.916797	-0.149261	0.000050
C20	C	0.909763	-0.546577	0.000041
C21	C	0.908372	-0.625527	0.000042
C22	C	1.060960	-0.643574	0.000056
C23	C	1.062358	-0.564630	0.000058
C24	C	0.986757	-0.516135	0.000045
C25	C	0.988272	-0.430533	0.000051
C26	C	0.989485	-0.362306	0.000056
C27	C	0.405104	0.102250	0.000058
C28	C	0.452706	0.019493	0.000360
C29	C	0.549394	0.020987	0.000055
C30	C	0.572659	0.104910	0.000050
C31	C	0.531499	0.145732	-0.075657
C32	C	0.434867	0.143653	-0.075715
C33	C	0.434505	0.145355	0.075049
C34	C	0.531451	0.145335	0.076044
C35	C	0.667354	0.106417	0.000043
C36	C	0.310409	0.100745	0.000060
C37	C	1.141975	0.098054	0.000066
C38	C	1.234923	0.099547	0.000067
C39	C	0.982487	0.241955	0.000048
C40	C	0.983968	0.325976	0.000043
N41	N	0.988861	0.103568	0.206607
N42	N	0.988909	0.103585	-0.206491
C43	C	1.045906	0.052135	0.248331
C44	C	1.045910	0.052135	0.331783
C45	C	0.988874	0.103571	0.373509
C46	C	0.931823	0.155006	0.331779
C47	C	0.931815	0.155003	0.248329
C48	C	0.931853	0.155021	0.668327
C49	C	0.931867	0.155022	0.751783
C50	C	1.045949	0.052153	0.751781
C51	C	1.045941	0.052150	0.668330
C52	C	0.988887	0.103582	0.626607
C53	C	0.988882	0.103581	0.536119
C54	C	0.988883	0.103576	0.463996
H55	H	1.132087	-0.142527	0.000083
C56	C	0.503725	0.077695	0.195466
C57	C	0.568389	0.105099	0.151654
H58	H	0.526537	0.052850	0.242139
H59	H	0.463362	0.118964	0.210115
H60	H	0.477431	0.042675	0.163858
H61	H	0.594680	0.140124	0.183260
H62	H	0.608767	0.063825	0.137007
C63	C	0.602331	0.244158	0.017527
C64	C	0.552009	0.227957	0.082211
H65	H	0.615015	0.295170	0.021328
H66	H	0.653105	0.210558	0.018170
H67	H	0.572991	0.237747	-0.030787
H68	H	0.581352	0.234363	0.130525
H69	H	0.501226	0.261568	0.081576
C70	C	1.218965	-0.256166	0.000098
C71	C	1.151092	-0.299564	0.000081
H72	H	1.270268	-0.289077	0.000113
H73	H	1.216349	-0.224997	-0.046131
H74	H	1.216317	-0.225003	0.046334
H75	H	1.153737	-0.330723	-0.046158
H76	H	1.153710	-0.330746	0.046315
H77	H	0.402620	0.206370	0.075558
H78	H	0.577881	-0.011101	0.054326
H79	H	1.125053	-0.539843	0.000068
C80	C	0.817902	0.171378	0.845657
C81	C	0.869164	0.211560	0.797654
H82	H	0.779199	0.206281	0.873979
H83	H	0.787851	0.139861	0.813113
H84	H	0.851894	0.140751	0.882443
H85	H	0.835173	0.242183	0.760864
H86	H	0.899217	0.243090	0.830201
C87	C	1.126586	-0.772605	0.000048
C88	C	1.144065	-0.696882	0.000058
H89	H	1.177891	-0.805512	0.000045
H90	H	1.095009	-0.781840	0.046273
H91	H	1.095016	-0.781819	-0.046192
H92	H	1.175631	-0.687666	0.046300
H93	H	1.175656	-0.687643	-0.046173
C94	C	1.158668	-0.049555	0.256719
C95	C	1.108602	-0.004408	0.202469
H96	H	1.197370	-0.084467	0.228406
H97	H	1.188722	-0.018032	0.289254
H98	H	1.123866	-0.076793	0.289281
H99	H	1.143403	0.022835	0.169911
H100	H	1.078546	-0.035934	0.169920
C101	C	0.765824	-0.139346	0.000041
C102	C	0.833700	-0.095951	0.000045
H103	H	0.714523	-0.106434	0.000040
H104	H	0.768461	-0.170506	-0.046188
H105	H	0.768451	-0.170519	0.046277
H106	H	0.831077	-0.064782	-0.046195
H107	H	0.831062	-0.064778	0.046278
H108	H	0.416627	0.113890	-0.132304
H109	H	1.092402	0.010272	0.785760
H110	H	1.092360	0.010254	0.365754
C111	C	0.757671	-0.599762	0.000006
C112	C	0.823734	-0.658998	0.000023
H113	H	0.705424	-0.620428	-0.000010
H114	H	0.761372	-0.569352	0.046237
H115	H	0.761406	-0.569341	-0.046228
H116	H	0.820002	-0.689416	0.046262
H117	H	0.820031	-0.689420	-0.046212
H118	H	0.848204	-0.507102	0.000031
H119	H	0.852711	-0.253002	0.000037
C120	C	0.369310	0.021122	0.119477
C121	C	0.427779	-0.025172	0.073650
H122	H	0.353914	-0.006456	0.164722
H123	H	0.393652	0.064870	0.136493
H124	H	0.320703	0.036336	0.088297
H125	H	0.476388	-0.040381	0.104828
H126	H	0.403437	-0.068934	0.056635
H127	H	0.885379	0.196884	0.365758
H128	H	0.885363	0.196884	0.214358
H129	H	0.433187	-0.013431	-0.053630
H130	H	0.885400	0.196900	0.634363
H131	H	1.092388	0.010268	0.634359
H132	H	0.402496	0.204412	-0.079154
C133	C	0.522589	-0.050171	-0.117201
C134	C	0.587106	-0.022608	-0.073333
H135	H	0.545873	-0.077080	-0.162513
H136	H	0.494608	-0.083376	-0.084772
H137	H	0.483540	-0.008744	-0.134080
H138	H	0.626152	-0.064035	-0.056450
H139	H	0.615101	0.010600	-0.105768
H140	H	0.545499	0.207388	-0.078476
H141	H	0.559938	0.117384	-0.131997
H142	H	0.414018	0.118297	0.132434
