data_functionalizedCrystal
_audit_creation_method	'MofGen! by Chris Wilmer'
_symmetry_space_group_name_H-M	'P1'
_symmetry_Int_Tables_number	1
_symmetry_cell_setting	triclinic
loop_
_symmetry_equiv_pos_as_xyz
  x,y,z
_cell_length_a	19.077105
_cell_length_b	16.625546
_cell_length_c	19.076919
_cell_angle_alpha	92.269917
_cell_angle_beta	90.076224
_cell_angle_gamma	87.718759
loop_
_atom_site_label
_atom_site_type_symbol
_atom_site_fract_x
_atom_site_fract_y
_atom_site_fract_z
Zn1	Zn	1.058283	-0.390077	-0.440407
Zn2	Zn	1.062927	-0.519720	-0.322896
Zn3	Zn	0.945500	-0.379275	-0.318200
Zn4	Zn	0.940748	-0.519234	-0.435649
O5	O	1.001864	-0.452076	-0.379288
O6	O	1.157231	-0.411998	-0.428775
O7	O	1.051282	-0.496773	-0.223942
O8	O	0.960506	-0.267879	-0.334437
O9	O	1.160642	-0.507246	-0.342441
O10	O	1.043367	-0.275815	-0.424222
O11	O	0.965009	-0.393589	-0.220492
O12	O	0.846538	-0.393117	-0.329824
O13	O	0.952407	-0.506418	-0.534611
O14	O	0.843047	-0.495944	-0.416113
O15	O	1.038759	-0.411527	-0.538107
O16	O	1.046674	-0.632485	-0.337827
O17	O	0.956910	-0.632127	-0.420666
C18	C	0.819296	-0.443306	-0.371943
C19	C	0.741192	-0.439575	-0.368817
C20	C	0.702702	-0.491432	-0.412204
C21	C	0.629314	-0.487916	-0.409270
C22	C	0.594418	-0.432544	-0.362946
C23	C	0.632913	-0.380681	-0.319557
C24	C	0.706299	-0.384194	-0.322495
C25	C	0.375130	-0.416284	-0.349354
C26	C	0.301739	-0.412776	-0.346418
C27	C	0.298145	-0.520010	-0.436133
C28	C	0.371533	-0.523522	-0.439063
C29	C	0.410021	-0.471655	-0.395677
N30	N	0.519405	-0.428950	-0.359945
N31	N	0.485034	-0.475247	-0.398682
C32	C	1.001799	-0.661563	-0.379256
C33	C	1.001834	-0.751186	-0.379268
C34	C	1.001954	-1.079371	-0.379346
C35	C	1.001918	-0.988060	-0.379327
C36	C	1.001894	-0.915281	-0.379307
C37	C	1.001859	-0.823965	-0.379288
C38	C	1.185146	-0.460881	-0.386662
C39	C	1.263249	-0.464634	-0.389805
C40	C	0.994535	-0.460123	-0.562568
C41	C	0.991412	-0.463552	-0.640671
C42	C	1.001948	-0.241774	-0.379336
C43	C	1.001984	-0.152155	-0.379357
C44	C	1.034901	-0.415760	-0.679185
C45	C	1.031958	-0.418978	-0.752571
C46	C	0.985529	-0.469993	-0.787441
C47	C	0.942035	-0.517786	-0.748922
C48	C	0.944975	-0.514563	-0.675537
C49	C	0.971911	-0.484926	-1.006722
C50	C	0.968976	-0.488147	-1.080112
C51	C	1.058898	-0.389338	-1.083755
C52	C	1.061837	-0.386123	-1.010369
C53	C	1.018341	-0.433913	-0.971856
N54	N	0.982521	-0.473286	-0.862453
N55	N	1.021346	-0.430616	-0.896846
C56	C	1.009205	-0.444005	-0.196723
C57	C	1.012465	-0.440356	-0.118626
H58	H	0.604495	-0.335593	-0.281842
C59	C	1.079336	-0.366943	-0.568312
C60	C	1.085936	-0.359680	-0.640858
H61	H	1.110846	-0.332321	-0.544653
H62	H	1.032615	-0.352348	-0.554390
H63	H	1.090085	-0.421084	-0.556692
H64	H	1.075182	-0.305540	-0.652478
H65	H	1.132668	-0.374270	-0.654785
C66	C	0.936482	-0.523862	-0.892617
C67	C	0.924106	-0.537462	-0.964394
H68	H	0.906965	-0.556295	-0.866485
H69	H	0.984166	-0.537402	-0.882492
H70	H	0.926698	-0.468664	-0.880196
H71	H	0.933895	-0.592659	-0.976817
H72	H	0.876411	-0.523927	-0.974524
C73	C	0.720556	-0.537218	-0.532033
C74	C	0.741057	-0.552296	-0.463127
H75	H	0.744238	-0.574790	-0.563472
H76	H	0.671347	-0.542550	-0.536488
H77	H	0.732190	-0.484090	-0.542872
H78	H	0.729418	-0.605422	-0.452286
H79	H	0.790277	-0.546971	-0.458670
C80	C	0.871143	-0.498417	-1.158829
C81	C	0.917928	-0.544219	-1.118441
H82	H	0.839633	-0.533033	-1.182494
H83	H	0.845432	-0.460743	-1.129126
H84	H	0.896635	-0.470424	-1.192268
H85	H	0.892436	-0.572207	-1.084998
H86	H	0.943641	-0.581908	-1.148147
C87	C	0.820393	-0.341964	-0.287167
C88	C	0.748611	-0.327191	-0.274803
H89	H	0.846512	-0.306765	-0.257727
H90	H	0.832814	-0.396233	-0.277275
H91	H	0.830535	-0.332898	-0.334882
H92	H	0.738468	-0.336263	-0.227088
H93	H	0.736186	-0.272910	-0.284689
C94	C	0.543035	-0.499502	-0.500479
C95	C	0.587011	-0.544925	-0.456963
H96	H	0.516924	-0.534701	-0.529926
H97	H	0.511749	-0.466031	-0.472474
H98	H	0.570611	-0.466977	-0.528556
H99	H	0.559435	-0.577446	-0.428881
H100	H	0.618301	-0.578411	-0.484970
C101	C	0.909552	-0.553492	-0.561424
C102	C	0.897171	-0.567097	-0.633199
H103	H	0.880033	-0.585920	-0.535288
H104	H	0.957235	-0.567036	-0.551300
H105	H	0.899772	-0.498293	-0.549005
H106	H	0.906956	-0.622295	-0.645619
H107	H	0.849476	-0.553558	-0.643327
H108	H	0.266800	-0.562235	-0.471456
C109	C	0.360605	-0.629161	-0.527452
C110	C	0.409888	-0.584386	-0.489986
H111	H	0.384286	-0.666734	-0.558890
H112	H	0.333194	-0.657229	-0.495642
H113	H	0.330920	-0.593883	-0.553240
H114	H	0.439570	-0.619663	-0.464193
H115	H	0.437311	-0.556316	-0.521801
C116	C	0.222951	-0.393270	-0.248626
C117	C	0.263369	-0.351893	-0.295515
H118	H	0.199263	-0.355682	-0.217206
H119	H	0.189538	-0.423661	-0.274046
H120	H	0.252645	-0.428520	-0.222820
H121	H	0.233674	-0.316648	-0.321326
H122	H	0.296785	-0.321489	-0.270092
C123	C	1.176996	-0.356771	-1.111156
C124	C	1.106702	-0.336804	-1.126091
H125	H	1.206506	-0.324338	-1.137296
H126	H	1.185385	-0.347549	-1.062467
H127	H	1.186769	-0.411968	-1.123589
H128	H	1.096928	-0.281608	-1.113653
H129	H	1.098309	-0.346020	-1.174791
C130	C	0.371301	-0.309936	-0.260382
C131	C	0.417431	-0.359274	-0.301663
H132	H	0.397420	-0.274742	-0.230937
H133	H	0.341466	-0.279133	-0.289903
H134	H	0.343742	-0.342475	-0.232302
H135	H	0.444987	-0.326735	-0.329748
H136	H	0.447279	-0.390080	-0.272140
H137	H	1.099647	-0.344584	-0.981983
C138	C	1.121147	-0.321000	-0.748802
C139	C	1.079768	-0.366450	-0.794905
H140	H	1.150666	-0.288574	-0.774939
H141	H	1.091693	-0.287429	-0.718954
H142	H	1.149153	-0.356177	-0.721253
H143	H	1.051758	-0.331273	-0.822451
H144	H	1.109225	-0.400024	-0.824765
H145	H	0.904228	-0.559320	-0.777319
