data_functionalizedCrystal
_audit_creation_method	'MofGen! by Chris Wilmer'
_symmetry_space_group_name_H-M	'P1'
_symmetry_Int_Tables_number	1
_symmetry_cell_setting	triclinic
loop_
_symmetry_equiv_pos_as_xyz
  x,y,z
_cell_length_a	6.817900
_cell_length_b	15.866870
_cell_length_c	10.943624
_cell_angle_alpha	110.425160
_cell_angle_beta	108.838799
_cell_angle_gamma	102.655915
loop_
_atom_site_label
_atom_site_type_symbol
_atom_site_fract_x
_atom_site_fract_y
_atom_site_fract_z
V1	V	-4.123267	-0.132606	-0.465660
O2	O	-4.072829	0.006398	-0.391843
O3	O	-4.108858	-0.262961	-0.524945
O4	O	-4.101110	-0.130555	-0.640251
O5	O	-4.080631	-0.126924	-0.275739
V6	V	-4.599090	-0.115981	-0.435356
O7	O	-4.401416	-0.169075	-0.532137
O8	O	-4.771139	-0.079512	-0.368879
O9	O	-4.390293	0.014373	-0.376071
O10	O	-4.766925	-0.254985	-0.509173
O11	O	-4.759124	-0.121663	-0.625277
O12	O	-4.398041	-0.118032	-0.260765
C13	C	-3.961278	-0.294739	-0.533718
C14	C	-4.030959	-0.401305	-0.583354
C15	C	-3.950655	-0.683418	-0.122938
C16	C	-4.016146	-0.783558	-0.169621
C17	C	-4.139936	-0.810895	-0.419093
C18	C	-4.074444	-0.710755	-0.372429
C19	C	-3.979808	-0.647024	-0.224350
C20	C	-4.103597	-0.674361	-0.473842
C21	C	-4.038121	-0.574230	-0.427182
C22	C	-3.943492	-0.510493	-0.279110
C23	C	-3.914333	-0.546893	-0.177691
C24	C	-4.198248	-0.738094	-0.621921
C25	C	-4.227401	-0.701700	-0.723333
C26	C	-4.161910	-0.601567	-0.676673
C27	C	-4.067281	-0.537830	-0.528601
C28	C	-4.191070	-0.565167	-0.778093
C29	C	-4.125594	-0.465036	-0.731433
C30	C	-4.001805	-0.437699	-0.481941
C31	C	-3.951393	-0.125841	-0.680800
C32	C	-4.014785	-0.125027	-0.823939
C33	C	-3.859294	-0.119542	-0.898476
C34	C	-4.053424	-0.200952	-1.043210
C35	C	-3.933636	-0.042175	-0.934259
C36	C	-4.208130	-0.206513	-0.966833
C37	C	-4.088258	-0.047664	-0.857824
C38	C	-4.282526	-0.129097	-1.002539
C39	C	-4.201216	0.046146	-0.367297
C40	C	-4.110775	0.152712	-0.317670
C41	C	-4.211100	-0.122749	-0.220211
C42	C	-4.126945	-0.123559	-0.077068
H43	H	-4.149366	-0.435405	-0.814015
C44	C	-3.984067	-0.823595	-0.058060
C45	C	-4.187714	-0.893326	-0.064187
C46	C	-4.155645	-0.933366	0.047367
C47	C	-3.919928	-0.903674	0.165049
C48	C	-3.716264	-0.833938	0.171180
C49	C	-3.748334	-0.793899	0.059626
H50	H	-4.362221	-0.915309	-0.151306
H51	H	-4.306412	-0.984988	0.042827
H52	H	-3.896189	-0.933313	0.247628
H53	H	-3.541758	-0.811955	0.258299
H54	H	-3.597567	-0.742277	0.064165
H55	H	-4.304468	-0.753604	-0.843900
H56	H	-4.323588	-0.276043	-0.979379
H57	H	-4.268149	-0.617072	-0.898660
H58	H	-4.462079	-0.133156	-1.047716
H59	H	-3.924711	-0.385804	-0.361359
H60	H	-4.102238	0.017144	-0.777997
H61	H	-4.217003	-0.862798	-0.539660
H62	H	-3.890189	-0.428961	-0.241122
H63	H	-3.818218	0.027263	-0.921975
H64	H	-3.873561	-0.631523	-0.002356
C65	C	-3.810187	-0.476762	-0.014805
C66	C	-3.943717	-0.483870	0.073384
C67	C	-3.839563	-0.413732	0.236258
C68	C	-3.601879	-0.336487	0.310943
C69	C	-3.468335	-0.329376	0.222754
C70	C	-3.572488	-0.399514	0.059879
H71	H	-4.119678	-0.541054	0.018098
H72	H	-3.938423	-0.418996	0.301542
H73	H	-3.524778	-0.284567	0.431513
H74	H	-3.292374	-0.272192	0.278040
H75	H	-3.473629	-0.394250	-0.005404
H76	H	-3.679863	-0.115611	-0.853157
H77	H	-4.251560	-0.819627	-0.659906
H78	H	-4.039360	-0.265756	-1.123001
