data_functionalizedCrystal
_audit_creation_method	'MofGen! by Chris Wilmer'
_symmetry_space_group_name_H-M	'P1'
_symmetry_Int_Tables_number	1
_symmetry_cell_setting	triclinic
loop_
_symmetry_equiv_pos_as_xyz
  x,y,z
_cell_length_a	15.995350
_cell_length_b	11.792241
_cell_length_c	10.868271
_cell_angle_alpha	90.000107
_cell_angle_beta	89.997096
_cell_angle_gamma	96.157105
loop_
_atom_site_label
_atom_site_type_symbol
_atom_site_fract_x
_atom_site_fract_y
_atom_site_fract_z
O1	O	0.114763	-1.505951	-0.102196
O2	O	0.614763	-1.005951	0.397804
O3	O	0.126591	-1.175511	-0.102224
O4	O	0.626591	-0.675511	0.397776
O5	O	-0.001170	-1.349764	-0.102208
O6	O	0.498830	-0.849764	0.397792
O7	O	0.242524	-1.331698	-0.102212
O8	O	0.742524	-0.831698	0.397788
O9	O	-0.001175	-1.349750	0.102436
O10	O	0.498825	-0.849750	0.602436
O11	O	0.126586	-1.175497	0.102420
O12	O	0.626586	-0.675497	0.602420
O13	O	0.114758	-1.505937	0.102448
O14	O	0.614758	-1.005937	0.602448
Zn15	Zn	0.120671	-1.340715	0.134926
Zn16	Zn	0.620671	-0.840715	0.634926
Zn17	Zn	0.120678	-1.340734	-0.134702
Zn18	Zn	0.620678	-0.840734	0.365298
O19	O	0.242519	-1.331684	0.102432
O20	O	0.742519	-0.831684	0.602432
C21	C	0.125845	-1.133220	0.000094
C22	C	0.625845	-0.633220	0.500094
C23	C	0.123621	-1.007224	0.000084
C24	C	0.623621	-0.507224	0.500084
C25	C	-0.032370	-1.349010	0.000112
C26	C	0.467630	-0.849010	0.500112
C27	C	-0.125331	-1.346771	0.000104
C28	C	0.374669	-0.846771	0.500104
C29	C	0.115504	-1.548229	0.000127
C30	C	0.615504	-1.048229	0.500127
C31	C	0.117727	-1.674224	0.000130
C32	C	0.617727	-1.174224	0.500130
C33	C	-0.463115	-1.338730	0.000108
C34	C	0.036885	-0.838730	0.500108
C35	C	-0.416244	-1.214630	-0.000362
C36	C	0.083756	-0.714630	0.499638
C37	C	-0.319544	-1.216870	0.000100
C38	C	0.180456	-0.716870	0.500100
C39	C	-0.295536	-1.342718	0.000105
C40	C	0.204464	-0.842718	0.500105
C41	C	-0.336339	-1.403921	0.116971
C42	C	0.163661	-0.903921	0.616971
C43	C	-0.432989	-1.400803	0.117068
C44	C	0.067011	-0.900803	0.617068
C45	C	-0.433329	-1.403383	-0.115651
C46	C	0.066671	-0.903383	0.384349
C47	C	-0.336384	-1.403354	-0.117195
C48	C	0.163616	-0.903354	0.382805
C49	C	-0.200829	-1.344979	0.000108
C50	C	0.299171	-0.844979	0.500108
C51	C	-0.557823	-1.336473	0.000113
C52	C	-0.057823	-0.836473	0.500113
C53	C	0.273719	-1.332438	0.000110
C54	C	0.773719	-0.832438	0.500110
C55	C	0.366680	-1.334677	0.000109
C56	C	0.866680	-0.834677	0.500109
N57	N	0.120666	-1.340710	0.318940
N58	N	0.620666	-0.840710	0.818940
C59	C	0.119532	-0.776546	0.000119
C60	C	0.619532	-0.276546	0.500119
C61	C	0.121804	-0.904913	0.000099
C62	C	0.621804	-0.404913	0.500099
N63	N	0.120676	-1.340747	-0.318716
N64	N	0.620676	-0.840747	0.181284
C65	C	0.120676	-1.340728	0.569946
C66	C	0.620676	-0.840728	1.069946
C67	C	0.120673	-1.340714	0.430269
C68	C	0.620673	-0.840714	0.930269
H69	H	-0.291338	-1.168760	-0.083674
H70	H	0.208662	-0.668760	0.416326
H71	H	-0.320605	-1.495128	-0.124247
H72	H	0.179395	-0.995128	0.375753
H73	H	-0.464675	-1.494881	-0.116432
H74	H	0.035325	-0.994881	0.383568
C75	C	-0.475998	-1.523888	0.124256
C76	C	0.024002	-1.023888	0.624256
N77	N	-0.508389	-1.616594	0.129678
N78	N	-0.008389	-1.116594	0.629678
C79	C	-0.441590	-1.147619	-0.113572
C80	C	0.058410	-0.647619	0.386428
N81	N	-0.460688	-1.097143	-0.198843
N82	N	0.039312	-0.597143	0.301157
H83	H	-0.309336	-1.358607	-0.203649
H84	H	0.190664	-0.858607	0.296351
H85	H	-0.436064	-1.165243	0.082970
H86	H	0.063936	-0.665243	0.582970
H87	H	-0.321793	-1.496378	0.121321
H88	H	0.178207	-0.996378	0.621321
H89	H	-0.454051	-1.362815	-0.204227
H90	H	0.045949	-0.862815	0.295773
H91	H	-0.308152	-1.361401	0.203934
H92	H	0.191848	-0.861401	0.703934
C93	C	-0.457991	-1.340482	0.235072
C94	C	0.042009	-0.840482	0.735072
N95	N	-0.476817	-1.295043	0.323953
N96	N	0.023183	-0.795043	0.823953
C97	C	-0.282196	-1.151427	0.113460
C98	C	0.217804	-0.651427	0.613460
N99	N	-0.254067	-1.102134	0.198850
N100	N	0.245933	-0.602134	0.698850
