data_functionalizedCrystal
_audit_creation_method	'MofGen! by Chris Wilmer'
_symmetry_space_group_name_H-M	'P1'
_symmetry_Int_Tables_number	1
_symmetry_cell_setting	triclinic
loop_
_symmetry_equiv_pos_as_xyz
  x,y,z
_cell_length_a	16.959455
_cell_length_b	13.897448
_cell_length_c	16.959447
_cell_angle_alpha	90.029450
_cell_angle_beta	90.016944
_cell_angle_gamma	90.014639
loop_
_atom_site_label
_atom_site_type_symbol
_atom_site_fract_x
_atom_site_fract_y
_atom_site_fract_z
Zn1	Zn	1.208417	-0.384074	0.446914
Zn2	Zn	1.708417	0.115926	0.946914
Zn3	Zn	1.208339	-0.545392	0.314738
Zn4	Zn	1.708339	-0.045392	0.814738
Zn5	Zn	1.076240	-0.384104	0.314751
Zn6	Zn	1.576240	0.115896	0.814751
Zn7	Zn	1.076216	-0.545320	0.446876
Zn8	Zn	1.576216	-0.045320	0.946876
O9	O	1.142303	-0.464722	0.380820
O10	O	1.642303	0.035278	0.880820
O11	O	1.319018	-0.405490	0.429390
O12	O	1.819018	0.094510	0.929390
O13	O	1.190793	-0.524040	0.204128
O14	O	1.690793	-0.024040	0.704128
O15	O	1.093816	-0.249118	0.332305
O16	O	1.593816	0.250882	0.832305
O17	O	1.318960	-0.524010	0.332281
O18	O	1.818960	-0.024010	0.832281
O19	O	1.190926	-0.249096	0.429404
O20	O	1.690926	0.250904	0.929404
O21	O	1.093740	-0.405542	0.204139
O22	O	1.593740	0.094458	0.704139
O23	O	0.965626	-0.405472	0.332268
O24	O	1.465626	0.094528	0.832268
O25	O	1.093775	-0.523887	0.557492
O26	O	1.593775	-0.023887	1.057492
O27	O	0.965608	-0.523917	0.429340
O28	O	1.465608	-0.023917	0.929340
O29	O	1.190903	-0.405420	0.557520
O30	O	1.690903	0.094580	1.057520
O31	O	1.190770	-0.680364	0.332244
O32	O	1.690770	-0.180364	0.832244
O33	O	1.093700	-0.680311	0.429326
O34	O	1.593700	-0.180311	0.929326
C35	C	0.936937	-0.464691	0.380802
C36	C	1.436937	0.035309	0.880802
C37	C	0.849080	-0.464700	0.380813
C38	C	1.349080	0.035300	0.880813
C39	C	0.477589	-0.402998	0.330380
C40	C	0.977589	0.097002	0.830380
C41	C	0.477620	-0.526526	0.431305
C42	C	0.977620	-0.026526	0.931305
C43	C	0.560166	-0.526513	0.431300
C44	C	1.060166	-0.026513	0.931300
C45	C	0.601427	-0.464741	0.380834
C46	C	1.101427	0.035259	0.880834
C47	C	0.560143	-0.402984	0.330372
C48	C	1.060143	0.097016	0.830372
C49	C	0.601456	-0.588276	0.481754
C50	C	1.101456	-0.088276	0.981754
C51	C	0.684007	-0.588265	0.481751
C52	C	1.184007	-0.088265	0.981751
C53	C	0.725270	-0.526488	0.431288
C54	C	1.225270	-0.026488	0.931288
C55	C	0.683981	-0.464728	0.380825
C56	C	1.183981	0.035272	0.880825
C57	C	0.725242	-0.402957	0.330359
C58	C	1.225242	0.097043	0.830359
C59	C	0.683954	-0.341191	0.279900
C60	C	1.183954	0.158809	0.779900
C61	C	0.601406	-0.341207	0.279909
C62	C	1.101406	0.158793	0.779909
C63	C	0.807819	-0.526471	0.431279
C64	C	1.307819	-0.026471	0.931279
C65	C	0.807796	-0.402943	0.330351
C66	C	1.307796	0.097057	0.830351
C67	C	1.142245	-0.715337	0.380797
C68	C	1.642245	-0.215337	0.880797
C69	C	1.142293	-0.822551	0.380814
C70	C	1.642293	-0.322551	0.880814
C71	C	1.142376	-1.018846	0.380863
C72	C	1.642376	-0.518846	0.880863
C73	C	1.142328	-0.909613	0.380838
C74	C	1.642328	-0.409613	0.880838
C75	C	1.348471	-0.464755	0.380838
C76	C	1.848471	0.035245	0.880838
C77	C	1.436328	-0.464769	0.380846
C78	C	1.936328	0.035231	0.880846
C79	C	1.142345	-0.464642	0.586988
C80	C	1.642345	0.035358	1.086988
C81	C	1.142363	-0.464608	0.674845
C82	C	1.642363	0.035392	1.174845
C83	C	1.142382	-0.213129	0.380860
C84	C	1.642382	0.286871	0.880860
C85	C	1.142416	-0.105915	0.380877
C86	C	1.642416	0.394085	0.880877
C87	C	1.142306	-0.464733	0.175454
C88	C	1.642306	0.035267	0.675454
C89	C	1.142441	-0.464495	0.087597
C90	C	1.642441	0.035505	0.587597
C91	C	1.091902	-0.402810	1.046332
C92	C	1.591902	0.097190	1.546332
C93	C	1.192964	-0.526203	1.046309
C94	C	1.692964	-0.026203	1.546309
C95	C	1.192950	-0.526225	0.963763
C96	C	1.692950	-0.026225	1.463763
C97	C	1.142411	-0.464540	0.922498
C98	C	1.642411	0.035460	1.422498
C99	C	1.091885	-0.402833	0.963779
C100	C	1.591885	0.097167	1.463779
C101	C	1.243469	-0.587939	0.922476
C102	C	1.743469	-0.087939	1.422476
C103	C	1.243457	-0.587964	0.839925
C104	C	1.743457	-0.087964	1.339925
C105	C	1.192921	-0.526274	0.798658
C106	C	1.692921	-0.026274	1.298658
C107	C	1.142394	-0.464563	0.839944
C108	C	1.642394	0.035437	1.339944
C109	C	1.091855	-0.402878	0.798679
C110	C	1.591855	0.097122	1.298679
C111	C	1.041331	-0.341162	0.839963
C112	C	1.541331	0.158838	1.339963
C113	C	1.041349	-0.341142	0.922512
C114	C	1.541349	0.158858	1.422512
C115	C	1.192903	-0.526293	0.716110
C116	C	1.692903	-0.026293	1.216110
C117	C	1.091838	-0.402901	0.716125
C118	C	1.591838	0.097099	1.216125
H119	H	0.841432	-0.576763	0.472360
H120	H	1.341432	-0.076763	0.972360
F121	F	1.246742	-0.591856	1.090228
F122	F	1.746742	-0.091856	1.590228
F123	F	0.987581	-0.275468	0.966454
F124	F	1.487581	0.224532	1.466454
H125	H	1.050769	-0.352560	1.079949
H126	H	1.550769	0.147440	1.579949
H127	H	0.567855	-0.638573	0.522836
H128	H	1.067855	-0.138573	1.022836
F129	F	1.038049	-0.337240	0.672214
F130	F	1.538049	0.162760	1.172214
F131	F	0.987545	-0.275514	0.796036
F132	F	1.487545	0.224486	1.296036
H133	H	1.284607	-0.638170	0.956080
H134	H	1.784607	-0.138170	1.456080
H135	H	0.717617	-0.638558	0.522839
H136	H	1.217617	-0.138558	1.022839
F137	F	0.727877	-0.275457	0.226188
F138	F	1.227877	0.224543	0.726188
H139	H	1.284596	-0.638218	0.806319
H140	H	1.784596	-0.138218	1.306319
F141	F	0.557459	-0.275478	0.226212
F142	F	1.057459	0.224522	0.726212
H143	H	1.234044	-0.576535	0.682500
H144	H	1.734044	-0.076535	1.182500
F145	F	0.433648	-0.337261	0.276684
F146	F	0.933648	0.162739	0.776684
H147	H	0.841385	-0.352635	0.289260
H148	H	1.341385	0.147365	0.789260
H149	H	0.444020	-0.576823	0.472387
H150	H	0.944020	-0.076823	0.972387
