data_functionalizedCrystal
_audit_creation_method	'MofGen! by Chris Wilmer'
_symmetry_space_group_name_H-M	'P1'
_symmetry_Int_Tables_number	1
_symmetry_cell_setting	triclinic
loop_
_symmetry_equiv_pos_as_xyz
  x,y,z
_cell_length_a	21.295418
_cell_length_b	12.827892
_cell_length_c	21.295411
_cell_angle_alpha	90.013331
_cell_angle_beta	89.956262
_cell_angle_gamma	89.968793
loop_
_atom_site_label
_atom_site_type_symbol
_atom_site_fract_x
_atom_site_fract_y
_atom_site_fract_z
Zn1	Zn	0.962422	0.415711	-0.356270
Zn2	Zn	0.962352	0.590438	-0.251011
Zn3	Zn	0.857145	0.415760	-0.250980
Zn4	Zn	0.857142	0.590459	-0.356207
O5	O	0.909765	0.503092	-0.303617
O6	O	1.050502	0.438860	-0.342346
O7	O	0.948368	0.567279	-0.162917
O8	O	0.871141	0.269517	-0.264960
O9	O	1.050451	0.567231	-0.265013
O10	O	0.948487	0.269481	-0.342316
O11	O	0.871073	0.438943	-0.162894
O12	O	0.769055	0.438963	-0.264899
O13	O	0.871136	0.567266	-0.444305
O14	O	0.769053	0.567314	-0.342209
O15	O	0.948484	0.438880	-0.444351
O16	O	0.948365	0.736677	-0.264952
O17	O	0.871068	0.736692	-0.342239
C18	C	0.746214	0.503147	-0.303544
C19	C	0.676245	0.503196	-0.303528
C20	C	0.909726	0.774602	-0.303606
C21	C	0.909767	0.890755	-0.303622
C22	C	0.909818	0.503070	-0.467807
C23	C	0.909840	0.503061	-0.537775
C24	C	0.643394	0.570116	-0.343724
C25	C	0.577652	0.570091	-0.343752
C26	C	0.544763	0.503155	-0.303574
C27	C	0.577622	0.436222	-0.263376
C28	C	0.643363	0.436242	-0.263353
N29	N	0.441486	0.494976	-0.248515
N30	N	0.379034	0.494963	-0.248539
C31	C	0.346688	0.503088	-0.303640
N32	N	0.379153	0.511248	-0.358719
N33	N	0.441610	0.511267	-0.358695
C34	C	0.473478	0.503125	-0.303594
C35	C	0.242552	0.569985	-0.343870
C36	C	0.176808	0.569952	-0.343899
C37	C	0.176780	0.436088	-0.263517
C38	C	0.242522	0.436116	-0.263493
C39	C	0.275404	0.503070	-0.303669
C40	C	1.073956	0.503038	-0.303690
C41	C	1.143924	0.503014	-0.303721
C42	C	0.909822	0.230522	-0.303642
C43	C	0.909846	0.114369	-0.303652
C44	C	0.948061	0.942498	-0.265420
C45	C	0.948104	1.062548	-0.265436
C46	C	0.950113	0.436207	-0.570667
C47	C	0.950113	0.436161	-0.636410
C48	C	0.909845	0.502989	-0.669258
C49	C	0.869563	0.569847	-0.636358
C50	C	0.869561	0.569883	-0.570617
N51	N	0.905003	0.594408	-0.772480
N52	N	0.905009	0.594371	-0.834931
C53	C	0.909849	0.502883	-0.867333
N54	N	0.914695	0.411431	-0.834924
N55	N	0.914692	0.411469	-0.772466
C56	C	0.909843	0.502957	-0.740543
C57	C	0.950123	0.435974	-0.971510
C58	C	0.950118	0.435927	-1.037254
C59	C	0.869572	0.569622	-1.037201
C60	C	0.869574	0.569660	-0.971459
C61	C	0.909853	0.502837	-0.938617
C62	C	0.909749	0.503039	-0.140065
C63	C	0.909849	0.502754	-0.070098
H64	H	0.550899	0.624585	-0.376486
H65	H	0.877056	1.069879	-0.336358
N66	N	0.868674	0.946684	-0.344660
N67	N	0.828630	1.007704	-0.322433
H68	H	0.799607	1.047203	-0.351417
N69	N	0.676924	0.367870	-0.222299
N70	N	0.669633	0.271450	-0.226580
H71	H	0.693337	0.223161	-0.197586
N72	N	0.989157	0.886570	-0.224386
N73	N	0.989068	0.789128	-0.224436
H74	H	1.018095	0.749629	-0.195456
H75	H	0.982911	0.381793	-0.543931
H76	H	0.982907	0.381715	-0.663195
N77	N	0.276135	0.638379	-0.384909
N78	N	0.246792	0.698122	-0.420800
H79	H	0.270508	0.746428	-0.449784
N80	N	0.828430	0.638096	-0.669918
N81	N	0.828438	0.638056	-0.728615
H82	H	0.799384	0.686256	-0.752318
H83	H	0.150062	0.624445	-0.376635
N84	N	0.989226	1.118376	-0.224403
N85	N	0.989201	1.215818	-0.224472
H86	H	1.018244	1.255251	-0.195490
H87	H	0.836762	0.624322	-0.543837
H88	H	0.836779	0.624023	-1.063946
N89	N	0.276092	0.367781	-0.222428
N90	N	0.334789	0.367810	-0.222411
H91	H	0.358499	0.319545	-0.193408
H92	H	0.982918	0.381557	-0.944769
N93	N	0.991258	0.367619	-1.070844
N94	N	1.027215	0.307964	-1.041511
H95	H	1.056272	0.259720	-1.065234
N96	N	0.143183	0.367709	-0.222487
N97	N	0.084486	0.367691	-0.222515
H98	H	0.060755	0.319392	-0.193539
N99	N	0.828430	0.637944	-0.937859
N100	N	0.770346	0.631023	-0.945160
H101	H	0.741283	0.679249	-0.921430
N102	N	0.676972	0.638511	-0.384765
N103	N	0.647627	0.698257	-0.420652
H104	H	0.671341	0.746561	-0.449639
H105	H	0.550840	0.381720	-0.230663
