data_functionalizedCrystal
_audit_creation_method	'MofGen! by Chris Wilmer'
_symmetry_space_group_name_H-M	'P1'
_symmetry_Int_Tables_number	1
_symmetry_cell_setting	triclinic
loop_
_symmetry_equiv_pos_as_xyz
  x,y,z
_cell_length_a	10.489741
_cell_length_b	10.723024
_cell_length_c	9.198806
_cell_angle_alpha	89.997735
_cell_angle_beta	89.998993
_cell_angle_gamma	84.503522
loop_
_atom_site_label
_atom_site_type_symbol
_atom_site_fract_x
_atom_site_fract_y
_atom_site_fract_z
O1	O	-1.693940	-0.176061	0.120798
O2	O	-1.322734	-0.192587	0.120821
O3	O	-1.516899	-0.002753	0.120804
O4	O	-1.499774	-0.365895	0.120816
O5	O	-1.516885	-0.002752	-0.120981
O6	O	-1.322719	-0.192586	-0.120964
O7	O	-1.693925	-0.176059	-0.120987
Cu8	Cu	-1.508321	-0.184322	-0.143052
Cu9	Cu	-1.508338	-0.184324	0.142887
O10	O	-1.499760	-0.365893	-0.120970
C11	C	-1.515646	0.043748	-0.000087
C12	C	-1.511917	0.182305	-0.000082
C13	C	-1.275196	-0.191338	-0.000069
C14	C	-1.133569	-0.187604	-0.000060
C15	C	-1.741464	-0.177308	-0.000094
C16	C	-1.883091	-0.181043	-0.000093
C17	C	-1.065506	-0.066818	-0.000078
C18	C	-0.973349	-0.123877	0.119133
C19	C	-0.973369	-0.123904	-0.119248
C20	C	-1.043278	-0.244712	0.119250
C21	C	-1.043307	-0.244723	-0.119239
C22	C	-0.951178	-0.301869	0.000002
C23	C	-1.501013	-0.412395	-0.000076
C24	C	-1.504742	-0.550951	-0.000071
N25	N	-1.508318	-0.184320	-0.344166
C26	C	-1.620562	0.257221	-0.000086
C27	C	-1.616711	0.400426	-0.000081
C28	C	-1.426810	-0.264375	-0.416391
C29	C	-1.426826	-0.264374	-0.583804
N30	N	-1.508351	-0.184316	0.344000
H31	H	-0.942374	-0.072770	0.219917
H32	H	-1.578133	-0.115770	-0.593898
H33	H	-1.578118	-0.115785	-0.406270
H34	H	-1.115259	0.032476	0.000068
H35	H	-1.357018	-0.332920	-0.354289
H36	H	-1.716428	0.215340	-0.000101
H37	H	-1.709719	0.464802	-0.000091
H38	H	-1.357039	-0.332908	-0.645914
H39	H	-0.901691	-0.401268	0.000070
H40	H	-1.411728	0.384681	-0.000077
H41	H	-1.074079	-0.295780	0.220147
N42	N	-1.384926	0.237768	-0.000091
H43	H	-1.312951	0.168098	-0.000093
H44	H	-1.378486	0.291192	0.089541
N45	N	-1.084343	-0.312368	-0.252758
H46	H	-1.145971	-0.254301	-0.311463
H47	H	-1.127784	-0.388291	-0.222296
N48	N	-0.932362	-0.056188	-0.252749
H49	H	-0.974361	0.032595	-0.252638
H50	H	-0.959042	-0.101012	-0.342714
