data_functionalizedCrystal
_audit_creation_method	'MofGen! by Chris Wilmer'
_symmetry_space_group_name_H-M	'P1'
_symmetry_Int_Tables_number	1
_symmetry_cell_setting	triclinic
loop_
_symmetry_equiv_pos_as_xyz
  x,y,z
_cell_length_a	6.817900
_cell_length_b	11.353959
_cell_length_c	16.305550
_cell_angle_alpha	105.314283
_cell_angle_beta	103.455250
_cell_angle_gamma	107.526623
loop_
_atom_site_label
_atom_site_type_symbol
_atom_site_fract_x
_atom_site_fract_y
_atom_site_fract_z
V1	V	-4.066893	-0.182120	-0.289783
O2	O	-4.012141	0.007615	-0.256906
O3	O	-4.058049	-0.360021	-0.314116
O4	O	-4.017785	-0.179817	-0.404162
O5	O	-4.052684	-0.173836	-0.166236
V6	V	-4.545487	-0.159367	-0.271809
O7	O	-4.338963	-0.232032	-0.329210
O8	O	-4.723614	-0.109455	-0.232382
O9	O	-4.331124	0.018534	-0.247476
O10	O	-4.717635	-0.349102	-0.304686
O11	O	-4.677092	-0.167651	-0.395355
O12	O	-4.371388	-0.161669	-0.157430
C13	C	-3.912695	-0.403373	-0.316334
C14	C	-3.986747	-0.548813	-0.336991
C15	C	-3.977613	-0.595591	-0.270129
C16	C	-4.054148	-0.745910	-0.291477
C17	C	-3.861333	-0.173504	-0.431196
C18	C	-3.902727	-0.172799	-0.524874
C19	C	-4.053204	-0.170064	-0.865217
C20	C	-3.815344	-0.161946	-0.823096
C21	C	-3.772435	-0.163222	-0.725789
C22	C	-3.978549	-0.171420	-0.696369
C23	C	-4.174421	-0.300631	-0.765975
C24	C	-4.216121	-0.299900	-0.863417
C25	C	-4.081163	-0.050004	-0.801739
C26	C	-4.033006	-0.048981	-0.703746
C27	C	-3.936371	-0.172191	-0.600944
C28	C	-4.095393	-0.169302	-0.960645
C29	C	-4.139821	0.061880	-0.245256
C30	C	-4.045008	0.207318	-0.224605
C31	C	-4.191183	-0.167987	-0.130392
C32	C	-4.129025	-0.168686	-0.036713
H33	H	-3.980536	-0.721451	-0.151551
H34	H	-3.967911	0.047898	-0.800726
O35	O	-4.072160	-0.643157	-0.433758
H36	H	-4.118862	-0.746418	-0.435341
O37	O	-3.892201	-0.501237	-0.173365
H38	H	-3.897165	-0.558369	-0.127633
O39	O	-4.127880	-0.421062	-0.761404
H40	H	-4.128133	-0.477696	-0.828325
O41	O	-3.577386	-0.040179	-0.661313
H42	H	-3.512924	0.020772	-0.699514
O43	O	-4.449725	-0.314904	-0.902714
H44	H	-4.562234	-0.409854	-0.904110
O45	O	-3.647131	-0.038323	-0.821324
H46	H	-3.731250	0.018656	-0.850449
H47	H	-4.200261	-0.390789	-0.907149
H48	H	-4.118636	-0.817143	-0.364531
O49	O	-3.781090	-0.276201	-0.881611
H50	H	-3.932742	-0.338748	-0.940561
O51	O	-3.710247	-0.278798	-0.721171
H52	H	-3.710762	-0.334005	-0.788514
H53	H	-4.329958	-0.311303	-0.748630
O54	O	-3.844415	0.077625	-0.639624
H55	H	-3.712442	0.053464	-0.602645
H56	H	-4.179935	-0.047374	-0.682162
O57	O	-4.310480	-0.056331	-0.838194
H58	H	-4.404153	-0.144504	-0.901206
