data_functionalizedCrystal
_audit_creation_method	'MofGen! by Chris Wilmer'
_symmetry_space_group_name_H-M	'P1'
_symmetry_Int_Tables_number	1
_symmetry_cell_setting	triclinic
loop_
_symmetry_equiv_pos_as_xyz
  x,y,z
_cell_length_a	12.759401
_cell_length_b	16.120484
_cell_length_c	16.120297
_cell_angle_alpha	84.385569
_cell_angle_beta	87.118559
_cell_angle_gamma	92.925560
loop_
_atom_site_label
_atom_site_type_symbol
_atom_site_fract_x
_atom_site_fract_y
_atom_site_fract_z
Zn1	Zn	1.552087	-0.356741	0.489387
Zn2	Zn	2.052087	0.143259	0.989387
Zn3	Zn	1.551955	-0.489431	0.356697
Zn4	Zn	2.051955	0.010569	0.856697
Zn5	Zn	1.385777	-0.349678	0.349640
Zn6	Zn	1.885777	0.150322	0.849640
Zn7	Zn	1.366966	-0.496473	0.496428
Zn8	Zn	1.866966	0.003527	0.996428
O9	O	1.464196	-0.423081	0.423038
O10	O	1.964196	0.076919	0.923038
O11	O	1.699089	-0.374352	0.471792
O12	O	2.199089	0.125648	0.971792
O13	O	1.537728	-0.464989	0.238799
O14	O	2.037728	0.035011	0.738799
O15	O	1.415766	-0.233650	0.362278
O16	O	1.915766	0.266350	0.862278
O17	O	1.698992	-0.471838	0.374306
O18	O	2.198992	0.028162	0.874306
O19	O	1.537953	-0.238839	0.464949
O20	O	2.037953	0.261161	0.964949
O21	O	1.415638	-0.362313	0.233614
O22	O	1.915638	0.137687	0.733614
O23	O	1.236261	-0.369142	0.369105
O24	O	1.736261	0.130858	0.869105
O25	O	1.383705	-0.483840	0.612456
O26	O	1.883705	0.016160	1.112456
O27	O	1.222441	-0.476991	0.476949
O28	O	1.722441	0.023009	0.976949
O29	O	1.519713	-0.381180	0.607283
O30	O	2.019713	0.118820	1.107283
O31	O	1.519488	-0.607330	0.381133
O32	O	2.019488	-0.107330	0.881133
O33	O	1.383577	-0.612504	0.483792
O34	O	1.883577	-0.112504	0.983792
C35	C	1.191230	-0.423065	0.423026
C36	C	1.691230	0.076935	0.923026
C37	C	1.074452	-0.423079	0.423042
C38	C	1.574452	0.076921	0.923042
C39	C	1.012421	-0.479317	0.479112
C40	C	1.512421	0.020683	0.979112
C41	C	0.902696	-0.479328	0.479122
C42	C	1.402696	0.020672	0.979122
C43	C	0.917042	-0.366860	0.366983
C44	C	1.417042	0.133140	0.866983
C45	C	1.026765	-0.366846	0.366978
C46	C	1.526765	0.133154	0.866978
C47	C	1.004138	-0.544253	0.543852
C48	C	1.504138	-0.044253	1.043852
C49	C	0.894412	-0.544264	0.543862
C50	C	1.394412	-0.044264	1.043862
C51	C	1.449504	-0.640246	0.434011
C52	C	1.949504	-0.140246	0.934011
C53	C	1.443313	-0.733151	0.438733
C54	C	1.943313	-0.233151	0.938733
C55	C	1.432015	-0.903252	0.447371
C56	C	1.932015	-0.403252	0.947371
C57	C	1.496565	-0.942070	0.398718
C58	C	1.996565	-0.442070	0.898718
C59	C	1.490278	-1.036720	0.403525
C60	C	1.990278	-0.536720	0.903525
C61	C	1.438300	-0.808594	0.442566
C62	C	1.938300	-0.308594	0.942566
C63	C	1.738227	-0.423097	0.423051
C64	C	2.238227	0.076903	0.923051
C65	C	1.855003	-0.423104	0.423056
C66	C	2.355003	0.076896	0.923056
C67	C	1.449626	-0.434084	0.641044
C68	C	1.949626	0.065916	1.141044
C69	C	1.443417	-0.438772	0.733946
C70	C	1.943417	0.061228	1.233946
C71	C	1.478973	-0.205069	0.412041
C72	C	1.978973	0.294931	0.912041
C73	C	1.485270	-0.112165	0.407354
C74	C	1.985270	0.387835	0.907354
C75	C	1.478774	-0.412060	0.205877
C76	C	1.978774	0.087940	0.705877
C77	C	1.485202	-0.407136	0.112964
C78	C	1.985202	0.092864	0.612964
C79	C	1.432044	-0.447314	0.904036
C80	C	1.932044	0.052686	1.404036
C81	C	1.496572	-0.398597	0.942879
C82	C	1.996572	0.101403	1.442879
C83	C	1.490244	-0.403350	1.037523
C84	C	1.990244	0.096650	1.537523
C85	C	1.438370	-0.442563	0.809384
C86	C	1.938370	0.057437	1.309384
H87	H	0.878202	-0.321076	0.321339
H88	H	1.378202	0.178924	0.821339
H89	H	1.372035	-0.941100	0.492630
H90	H	1.872035	-0.441100	0.992630
C91	C	1.525172	-0.838150	0.281397
C92	C	2.025172	-0.338150	0.781397
C93	C	1.577535	-0.890982	0.337603
C94	C	2.077535	-0.390982	0.837603
H95	H	1.575157	-0.806613	0.243664
H96	H	2.075157	-0.306613	0.743664
H97	H	1.485514	-0.801357	0.311294
H98	H	1.985514	-0.301357	0.811294
H99	H	1.479346	-0.870652	0.251103
H100	H	1.979346	-0.370652	0.751103
H101	H	1.623356	-0.858480	0.367901
H102	H	2.123356	-0.358480	0.867901
H103	H	1.617211	-0.927779	0.307703
H104	H	2.117211	-0.427779	0.807703
H105	H	1.372052	-0.492589	0.941860
H106	H	1.872052	0.007411	1.441860
C107	C	1.029920	-0.255669	0.256145
C108	C	1.529920	0.244331	0.756145
C109	C	1.094951	-0.305019	0.305351
C110	C	1.594951	0.194981	0.805351
H111	H	1.072017	-0.217502	0.218097
H112	H	1.572017	0.282498	0.718097
H113	H	0.986844	-0.225610	0.291009
H114	H	1.486844	0.274390	0.791009
H115	H	0.986806	-0.290430	0.225949
H116	H	1.486806	0.209570	0.725949
H117	H	1.138059	-0.270259	0.335553
H118	H	1.638059	0.229741	0.835553
H119	H	1.138044	-0.335081	0.270484
H120	H	1.638044	0.164919	0.770484
C121	C	0.952140	-0.513954	0.682409
C122	C	1.452140	-0.013954	1.182409
C123	C	1.040085	-0.525388	0.630096
C124	C	1.540085	-0.025388	1.130096
H125	H	0.974336	-0.502303	0.735648
H126	H	1.474336	-0.002303	1.235648
H127	H	0.907243	-0.563258	0.688333
H128	H	1.407243	-0.063258	1.188333
H129	H	0.915210	-0.468538	0.658729
H130	H	1.415210	0.031462	1.158729
H131	H	1.077012	-0.570808	0.653773
H132	H	1.577012	-0.070808	1.153773
H133	H	1.085000	-0.476079	0.624175
H134	H	1.585000	0.023921	1.124175
C135	C	1.004860	-0.693304	0.571470
C136	C	1.504860	-0.193304	1.071470
C137	C	1.046590	-0.625621	0.516608
C138	C	1.546590	-0.125621	1.016608
H139	H	1.031074	-0.743536	0.554650
H140	H	1.531074	-0.243536	1.054650
H141	H	0.930396	-0.696080	0.570539
H142	H	1.430396	-0.196080	1.070539
H143	H	1.024824	-0.686204	0.626427
H144	H	1.524824	-0.186204	1.126427
H145	H	1.026619	-0.632719	0.461652
H146	H	1.526619	-0.132719	0.961652
H147	H	1.121070	-0.622847	0.517530
H148	H	1.621070	-0.122847	1.017530
C149	C	0.782417	-0.665523	0.591594
C150	C	1.282417	-0.165523	1.091594
C151	C	0.849874	-0.630428	0.524722
C152	C	1.349874	-0.130428	1.024722
H153	H	0.754927	-0.718716	0.579778
H154	H	1.254927	-0.218716	1.079778
H155	H	0.726305	-0.630071	0.599473
H156	H	1.226305	-0.130071	1.099473
H157	H	0.820278	-0.671596	0.640881
H158	H	1.320278	-0.171596	1.140881
H159	H	0.812012	-0.624350	0.475436
H160	H	1.312012	-0.124350	0.975436
H161	H	0.905994	-0.665888	0.516833
H162	H	1.405994	-0.165888	1.016833
C163	C	1.568224	-0.344521	0.806586
C164	C	2.068224	0.155479	1.306586
C165	C	1.577557	-0.337462	0.891820
C166	C	2.077557	0.162538	1.391820
H167	H	1.618220	-0.306780	0.775065
H168	H	2.118220	0.193220	1.275065
H169	H	1.499401	-0.331589	0.791712
H170	H	1.999401	0.168411	1.291712
H171	H	1.580740	-0.399979	0.795176
H172	H	2.080740	0.100021	1.295176
H173	H	1.565033	-0.282005	0.903231
H174	H	2.065033	0.217995	1.403231
H175	H	1.646397	-0.350388	0.906700
H176	H	2.146397	0.149612	1.406700
H177	H	0.857836	-0.524287	0.604231
H178	H	1.357836	-0.024287	1.104231
