data_functionalizedCrystal
_audit_creation_method	'MofGen! by Chris Wilmer'
_symmetry_space_group_name_H-M	'P1'
_symmetry_Int_Tables_number	1
_symmetry_cell_setting	triclinic
loop_
_symmetry_equiv_pos_as_xyz
  x,y,z
_cell_length_a	12.645331
_cell_length_b	12.594516
_cell_length_c	12.645323
_cell_angle_alpha	90.023946
_cell_angle_beta	90.018010
_cell_angle_gamma	90.016463
loop_
_atom_site_label
_atom_site_type_symbol
_atom_site_fract_x
_atom_site_fract_y
_atom_site_fract_z
Zn1	Zn	1.620743	-0.423722	0.599321
Zn2	Zn	1.620630	-0.601725	0.422064
Zn3	Zn	1.443458	-0.423762	0.422080
Zn4	Zn	1.443445	-0.601660	0.599294
O5	O	1.532069	-0.512718	0.510690
O6	O	1.769075	-0.447345	0.575812
O7	O	1.597086	-0.578162	0.273719
O8	O	1.467028	-0.274811	0.445609
O9	O	1.768992	-0.578123	0.445582
O10	O	1.597279	-0.274782	0.575828
O11	O	1.466918	-0.447414	0.273730
O12	O	1.295109	-0.447351	0.445583
O13	O	1.467006	-0.578012	0.747645
O14	O	1.295099	-0.578051	0.575781
O15	O	1.597266	-0.447282	0.747665
O16	O	1.597073	-0.750662	0.445556
O17	O	1.466896	-0.750615	0.575766
C18	C	1.256639	-0.512699	0.510682
C19	C	1.138809	-0.512717	0.510703
C20	C	1.531999	-0.789259	0.510679
C21	C	1.532067	-0.907564	0.510710
C22	C	1.093957	-0.595081	0.592491
C23	C	0.971397	-0.595419	0.592248
C24	C	0.970856	-0.542676	0.398847
C25	C	1.093455	-0.543257	0.399321
C26	C	1.093660	-0.400219	0.539794
C27	C	0.971055	-0.400841	0.542257
C28	C	1.461256	-0.976830	0.581482
C29	C	1.435425	-1.047691	0.484751
C30	C	1.557995	-1.047501	0.607458
C31	C	1.506184	-0.976867	0.413928
C32	C	1.628799	-0.976671	0.536700
C33	C	1.603004	-1.047501	0.439903
C34	C	1.808574	-0.512737	0.510699
C35	C	1.926404	-0.512745	0.510702
C36	C	1.532147	-0.512635	0.787195
C37	C	1.532180	-0.512600	0.905025
C38	C	1.532168	-0.235097	0.510723
C39	C	1.532210	-0.116791	0.510738
C40	C	1.532052	-0.512723	0.235260
C41	C	1.532224	-0.512458	0.117430
C42	C	1.449981	-0.594455	1.072577
C43	C	1.450196	-0.594860	0.950017
C44	C	1.643881	-0.543040	0.949537
C45	C	1.643430	-0.543554	1.072135
C46	C	1.503736	-0.399848	1.072224
C47	C	1.501244	-0.400523	0.949617
H48	H	0.941343	-0.576748	0.675174
C49	C	0.929690	-0.313560	0.467719
H50	H	0.957916	-0.246864	0.488639
H51	H	0.950938	-0.328829	0.397290
H52	H	0.854687	-0.311129	0.471253
H53	H	1.353687	-1.078910	0.462791
H54	H	1.706786	-0.486423	1.101807
C55	C	1.395620	-0.362359	1.113979
H56	H	1.366841	-0.415043	1.159376
H57	H	1.404308	-0.297968	1.152155
H58	H	1.349001	-0.350963	1.056163
H59	H	1.401267	-0.945798	0.641244
C60	C	1.133828	-0.570154	0.704868
H61	H	1.178192	-0.509297	0.702917
H62	H	1.075187	-0.556758	0.749865
H63	H	1.172729	-0.629027	0.731145
C64	C	1.132057	-0.654326	0.366115
H65	H	1.207174	-0.655659	0.366108
H66	H	1.106109	-0.705701	0.414587
H67	H	1.106712	-0.670133	0.297152
H68	H	1.579867	-1.078528	0.689265
C69	C	1.337748	-0.568979	1.112393
H70	H	1.289303	-0.619370	1.084429
H71	H	1.336520	-0.572077	1.187439
H72	H	1.318171	-0.499771	1.089860
C73	C	1.728888	-0.464923	0.910165
H74	H	1.696935	-0.412930	0.866122
H75	H	1.761247	-0.431099	0.969026
H76	H	1.780918	-0.502553	0.871036
H77	H	1.484217	-0.945969	0.332099
H78	H	1.124737	-0.677969	0.573425
H79	H	1.419042	-0.377567	0.920524
C80	C	1.683982	-1.089170	0.358985
H81	H	1.735820	-1.130622	0.394361
H82	H	1.648831	-1.131704	0.307831
H83	H	1.717265	-1.030884	0.324853
C84	C	1.475124	-0.706527	1.114218
H85	H	1.535528	-0.703565	1.158815
H86	H	1.416428	-0.732616	1.153224
H87	H	1.488946	-0.752539	1.056302
C88	C	1.475592	-0.707638	0.910408
H89	H	1.485835	-0.753380	0.969245
H90	H	1.418471	-0.733129	0.868707
H91	H	1.538142	-0.705988	0.868848
H92	H	1.124614	-0.372871	0.619984
C93	C	1.584648	-0.317312	1.111409
H94	H	1.567024	-0.249430	1.083825
H95	H	1.583483	-0.314784	1.186479
H96	H	1.653361	-0.336804	1.088079
H97	H	0.941712	-0.484527	0.336235
C98	C	0.931731	-0.708037	0.566164
H99	H	0.990546	-0.753757	0.555664
H100	H	0.890027	-0.733822	0.623105
H101	H	0.890163	-0.706014	0.503606
C102	C	1.132851	-0.317324	0.459339
H103	H	1.176517	-0.351050	0.408266
H104	H	1.073902	-0.285708	0.425046
H105	H	1.172336	-0.264084	0.495073
H106	H	1.123124	-0.485831	0.336292
H107	H	1.710519	-0.945455	0.558707
H108	H	1.367366	-0.575812	0.919921
H109	H	0.940129	-0.624002	0.373840
C110	C	1.676040	-0.654760	1.110791
H111	H	1.689432	-0.699200	1.051568
H112	H	1.738208	-0.649349	1.152638
H113	H	1.620579	-0.684350	1.151998
C114	C	1.677061	-0.653085	0.908092
H115	H	1.623000	-0.680626	0.863676
H116	H	1.740850	-0.646766	0.868939
H117	H	1.687780	-0.699766	0.966104
H118	H	0.942006	-0.378262	0.624576
C119	C	1.576257	-0.313626	0.908256
H120	H	1.627659	-0.344701	0.863055
H121	H	1.536773	-0.262281	0.869954
H122	H	1.610642	-0.280301	0.966252
