data_functionalizedCrystal
_audit_creation_method	'MofGen! by Chris Wilmer'
_symmetry_space_group_name_H-M	'P1'
_symmetry_Int_Tables_number	1
_symmetry_cell_setting	triclinic
loop_
_symmetry_equiv_pos_as_xyz
  x,y,z
_cell_length_a	12.503572
_cell_length_b	14.044220
_cell_length_c	14.044220
_cell_angle_alpha	93.188878
_cell_angle_beta	93.843168
_cell_angle_gamma	86.164750
loop_
_atom_site_label
_atom_site_type_symbol
_atom_site_fract_x
_atom_site_fract_y
_atom_site_fract_z
O1	O	0.089210	-1.282200	-0.225116
O2	O	0.422543	-0.948867	0.108217
O3	O	0.755877	-0.615533	0.441550
O4	O	0.089237	-1.005530	-0.216809
O5	O	0.422570	-0.672197	0.116524
O6	O	0.755904	-0.338863	0.449858
O7	O	0.089213	-1.139712	-0.082627
O8	O	0.422547	-0.806378	0.250706
O9	O	0.755880	-0.473045	0.584039
O10	O	0.089234	-1.148019	-0.359298
O11	O	0.422567	-0.814685	-0.025964
O12	O	0.755900	-0.481352	0.307369
O13	O	-0.089427	-1.129622	-0.092737
O14	O	0.243907	-0.796289	0.240596
O15	O	0.577240	-0.462955	0.573930
O16	O	-0.089403	-0.995440	-0.226918
O17	O	0.243930	-0.662107	0.106415
O18	O	0.577264	-0.328774	0.439748
O19	O	-0.089430	-1.272110	-0.235226
O20	O	0.243903	-0.938777	0.098108
O21	O	0.577237	-0.605444	0.431441
Cu22	Cu	-0.105728	-1.132854	-0.231995
Cu23	Cu	0.227605	-0.799521	0.101338
Cu24	Cu	0.560939	-0.466187	0.434672
Cu25	Cu	0.105535	-1.144786	-0.220040
Cu26	Cu	0.438868	-0.811453	0.113294
Cu27	Cu	0.772202	-0.478120	0.446627
O28	O	-0.089406	-1.137929	-0.369407
O29	O	0.243927	-0.804595	-0.036074
O30	O	0.577260	-0.471262	0.297259
C31	C	-0.000080	-0.964864	-0.218228
C32	C	0.333254	-0.631530	0.115105
C33	C	0.666587	-0.298197	0.448439
C34	C	-0.000070	-0.858721	-0.207383
C35	C	0.333264	-0.525388	0.125951
C36	C	0.666597	-0.192055	0.459284
N37	N	-0.254319	-1.124469	-0.240404
N38	N	0.079015	-0.791135	0.092929
N39	N	0.412348	-0.457802	0.426263
C40	C	-0.000107	-1.131031	-0.052060
C41	C	0.333227	-0.797698	0.281273
C42	C	0.666560	-0.464365	0.614606
C43	C	-0.000107	-1.120187	0.054082
C44	C	0.333226	-0.786853	0.387416
C45	C	0.666560	-0.453520	0.720749
C46	C	-0.473432	-1.112134	-0.252782
C47	C	-0.140098	-0.778800	0.080551
C48	C	0.193235	-0.445467	0.413885
C49	C	-0.526768	-1.165511	-0.199249
C50	C	-0.193435	-0.832178	0.134085
C51	C	0.139898	-0.498844	0.467418
C52	C	-0.648690	-1.158648	-0.206136
C53	C	-0.315357	-0.825314	0.127198
C54	C	0.017976	-0.491981	0.460531
C55	C	-0.351499	-1.118996	-0.245896
C56	C	-0.018165	-0.785662	0.087437
C57	C	0.315168	-0.452329	0.420771
N58	N	0.254126	-1.153179	-0.211624
N59	N	0.587459	-0.819846	0.121710
N60	N	0.920792	-0.486512	0.455043
C61	C	-0.000111	-1.312777	-0.233807
C62	C	0.333222	-0.979444	0.099527
C63	C	0.666556	-0.646110	0.432860
C64	C	-0.000114	-1.418920	-0.244651
C65	C	0.333219	-1.085586	0.088682
C66	C	0.666553	-0.752253	0.422015
C67	C	-0.000092	-0.664382	-0.187558
C68	C	0.333241	-0.331049	0.145776
C69	C	0.666574	0.002284	0.479109
C70	C	-0.000091	-0.613253	-0.264472
C71	C	0.333242	-0.279919	0.068861
C72	C	0.666575	0.053414	0.402195
C73	C	-0.000104	-0.505116	-0.253441
C74	C	0.333229	-0.171782	0.079892
C75	C	0.666563	0.161551	0.413225
C76	C	-0.000080	-0.772529	-0.198587
C77	C	0.333254	-0.439196	0.134746
C78	C	0.666587	-0.105863	0.468079
C79	C	-0.000084	-1.146609	-0.399974
C80	C	0.333249	-0.813276	-0.066641
C81	C	0.666583	-0.479943	0.266692
C82	C	-0.000077	-1.157454	-0.506117
C83	C	0.333257	-0.824121	-0.172783
C84	C	0.666590	-0.490788	0.160550
C85	C	-0.000090	-1.100361	0.248421
C86	C	0.333244	-0.767028	0.581754
C87	C	0.666577	-0.433695	0.915088
C88	C	-0.000094	-1.177275	0.299551
C89	C	0.333239	-0.843942	0.632884
C90	C	0.666573	-0.510609	0.966217
C91	C	-0.000084	-1.166244	0.407687
C92	C	0.333249	-0.832911	0.741021
C93	C	0.666582	-0.499578	1.074354
C94	C	-0.000099	-1.111391	0.140274
C95	C	0.333234	-0.778058	0.473608
C96	C	0.666567	-0.444724	0.806941
H97	H	-0.480864	-1.216364	-0.148245
H98	H	-0.147531	-0.883030	0.185088
H99	H	0.185802	-0.549697	0.518421
F100	F	-0.000112	-1.274173	0.250617
F101	F	0.333222	-0.940840	0.583950
F102	F	0.666555	-0.607506	0.917283
F103	F	-0.000075	-1.003470	0.297355
F104	F	0.333259	-0.670137	0.630688
F105	F	0.666592	-0.336804	0.964021
H106	H	-0.000081	-0.650692	-0.338605
H107	H	0.333253	-0.317359	-0.005272
H108	H	0.666586	0.015974	0.328062
F109	F	-0.533425	-1.045671	-0.319446
F110	F	-0.200092	-0.712338	0.013887
F111	F	0.133241	-0.379005	0.347220
F112	F	-0.000103	-0.615449	-0.090667
F113	F	0.333231	-0.282116	0.242667
F114	F	0.666564	0.051217	0.576000
