data_functionalizedCrystal
_audit_creation_method	'MofGen! by Chris Wilmer'
_symmetry_space_group_name_H-M	'P1'
_symmetry_Int_Tables_number	1
_symmetry_cell_setting	triclinic
loop_
_symmetry_equiv_pos_as_xyz
  x,y,z
_cell_length_a	18.050590
_cell_length_b	18.050590
_cell_length_c	13.897441
_cell_angle_alpha	90.033006
_cell_angle_beta	90.006213
_cell_angle_gamma	90.007719
loop_
_atom_site_label
_atom_site_type_symbol
_atom_site_fract_x
_atom_site_fract_y
_atom_site_fract_z
Zn1	Zn	1.135393	-0.295851	0.544991
Zn2	Zn	1.135310	-0.420055	0.383686
Zn3	Zn	1.011198	-0.295860	0.383750
Zn4	Zn	1.011182	-0.419980	0.544979
O5	O	1.073271	-0.357936	0.464352
O6	O	1.239307	-0.312354	0.523572
O7	O	1.118818	-0.403615	0.248713
O8	O	1.027714	-0.191934	0.405171
O9	O	1.239246	-0.403606	0.405061
O10	O	1.118960	-0.191927	0.523634
O11	O	1.027633	-0.312370	0.248760
O12	O	0.907271	-0.312297	0.405160
O13	O	1.027687	-0.403479	0.679963
O14	O	0.907259	-0.403487	0.523614
O15	O	1.118945	-0.312281	0.679971
O16	O	1.118802	-0.523969	0.405050
O17	O	1.027606	-0.523914	0.523551
C18	C	0.880319	-0.357885	0.464393
C19	C	0.797773	-0.357882	0.464434
C20	C	0.598337	-0.407613	0.528696
C21	C	0.548935	-0.339895	0.552434
C22	C	0.646642	-0.357923	0.464387
C23	C	0.548963	-0.425680	0.440648
C24	C	0.500657	-0.357969	0.464343
C25	C	0.598327	-0.290169	0.488170
C26	C	0.598360	-0.376000	0.376344
C27	C	0.548980	-0.308235	0.400048
C28	C	0.730741	-0.357898	0.464414
C29	C	0.416561	-0.357987	0.464315
C30	C	1.073214	-0.550888	0.464313
C31	C	1.073257	-0.633434	0.464329
C32	C	1.122953	-0.832888	0.399978
C33	C	1.141097	-0.882218	0.488007
C34	C	1.073299	-0.784564	0.464367
C35	C	1.055231	-0.882316	0.376378
C36	C	1.073341	-0.930550	0.464397
C37	C	1.091478	-0.832808	0.552443
C38	C	1.005581	-0.832901	0.440754
C39	C	1.023699	-0.882209	0.528844
C40	C	1.073277	-0.700466	0.464349
C41	C	1.073364	-1.014646	0.464425
C42	C	1.266976	-0.357988	0.464310
C43	C	1.349522	-0.358010	0.464293
C44	C	1.073323	-0.357871	0.715945
C45	C	1.073346	-0.357843	0.823159
C46	C	1.073348	-0.164231	0.464411
C47	C	1.073381	-0.081685	0.464437
C48	C	1.073261	-0.357948	0.213737
C49	C	1.073382	-0.357767	0.106524
C50	C	1.073366	-0.357792	1.019454
C51	C	1.073352	-0.357822	0.910221
H52	H	0.527225	-0.324621	0.626872
F53	F	0.930722	-0.804565	0.414594
F54	F	1.177854	-0.804579	0.328877
F55	F	0.520619	-0.500551	0.414427
H56	H	0.527444	-0.266185	0.345645
F57	F	1.035233	-0.910740	0.279102
H58	H	1.198383	-0.903883	0.507998
F59	F	1.111571	-0.804508	0.649747
F60	F	0.626666	-0.462444	0.599856
F61	F	0.626548	-0.215275	0.514501
H62	H	0.981726	-0.903729	0.583372
H63	H	0.620086	-0.391294	0.301927
