data_functionalizedCrystal
_audit_creation_method	'MofGen! by Chris Wilmer'
_symmetry_space_group_name_H-M	'P1'
_symmetry_Int_Tables_number	1
_symmetry_cell_setting	triclinic
loop_
_symmetry_equiv_pos_as_xyz
  x,y,z
_cell_length_a	11.792241
_cell_length_b	16.992695
_cell_length_c	10.868271
_cell_angle_alpha	89.994605
_cell_angle_beta	90.000107
_cell_angle_gamma	92.569181
loop_
_atom_site_label
_atom_site_type_symbol
_atom_site_fract_x
_atom_site_fract_y
_atom_site_fract_z
O1	O	1.515703	-0.107512	0.102204
O2	O	1.186268	-0.118593	0.102232
O3	O	1.349665	0.001096	0.102208
O4	O	1.352306	-0.227201	0.102228
O5	O	1.349650	0.001101	-0.102436
O6	O	1.186253	-0.118588	-0.102412
O7	O	1.515688	-0.107508	-0.102441
Zn8	Zn	1.350968	-0.113047	-0.134918
Zn9	Zn	1.350988	-0.113053	0.134710
O10	O	1.352291	-0.227196	-0.102417
C11	C	1.143913	-0.117894	-0.000086
C12	C	1.017729	-0.115811	-0.000076
N13	N	1.350963	-0.113042	-0.318933
C14	C	1.346260	0.030325	-0.000114
C15	C	1.336121	0.117412	-0.000112
C16	C	0.786703	-0.111980	-0.000111
C17	C	0.915262	-0.114109	-0.000092
C18	C	1.558043	-0.108206	-0.000120
C19	C	1.684227	-0.110289	-0.000122
C20	C	1.355696	-0.256425	-0.000092
C21	C	1.365834	-0.343513	-0.000086
C22	C	1.433939	0.167237	-0.000122
C23	C	1.424407	0.249064	-0.000110
C24	C	1.317056	0.281065	-0.000096
C25	C	1.219230	0.231234	-0.000083
C26	C	1.228764	0.149408	-0.000086
C27	C	1.277543	0.524831	-0.000076
C28	C	1.268017	0.606663	-0.000076
C29	C	1.473194	0.624487	-0.000101
C30	C	1.482718	0.542659	-0.000112
C31	C	1.384893	0.492835	-0.000092
N32	N	1.307309	0.364705	-0.000087
N33	N	1.394640	0.409197	-0.000092
C34	C	1.350982	-0.113052	-0.569939
C35	C	1.350968	-0.113049	-0.430261
N36	N	1.351001	-0.113052	0.318724
H37	H	1.504061	0.289629	-0.000120
O38	O	1.598504	0.508143	-0.000096
H39	H	1.664924	0.556537	-0.000082
O40	O	1.123256	0.095669	-0.000081
H41	H	1.147919	0.033395	-0.000074
H42	H	1.131822	0.257296	-0.000064
O43	O	1.578702	0.678224	-0.000120
H44	H	1.579283	0.715921	0.083295
O45	O	1.549729	0.132727	-0.000123
H46	H	1.597095	0.152719	-0.083527
O47	O	1.152226	0.641183	-0.000047
H48	H	1.085802	0.592791	-0.000020
H49	H	1.197886	0.484273	-0.000060
