data_functionalizedCrystal
_audit_creation_method	'MofGen! by Chris Wilmer'
_symmetry_space_group_name_H-M	'P1'
_symmetry_Int_Tables_number	1
_symmetry_cell_setting	triclinic
loop_
_symmetry_equiv_pos_as_xyz
  x,y,z
_cell_length_a	10.654558
_cell_length_b	27.731996
_cell_length_c	9.130313
_cell_angle_alpha	89.992822
_cell_angle_beta	90.000369
_cell_angle_gamma	83.554852
loop_
_atom_site_label
_atom_site_type_symbol
_atom_site_fract_x
_atom_site_fract_y
_atom_site_fract_z
O1	O	1.664940	0.067904	-0.121800
O2	O	1.299188	0.074368	-0.121810
O3	O	1.493458	0.000809	-0.121773
O4	O	1.470671	0.141464	-0.121837
O5	O	1.493456	0.000811	0.121826
O6	O	1.299186	0.074370	0.121789
O7	O	1.664938	0.067906	0.121798
Cu8	Cu	1.482062	0.071138	0.144036
Cu9	Cu	1.482065	0.071136	-0.144048
O10	O	1.470668	0.141466	0.121762
C11	C	1.492989	-0.017201	0.000031
C12	C	1.491579	-0.070866	0.000046
C13	C	1.252410	0.073894	-0.000011
C14	C	1.113027	0.072471	-0.000013
C15	C	0.916575	0.070471	-0.132798
C16	C	1.047541	0.071803	-0.132800
C17	C	1.047543	0.071802	0.132784
C18	C	0.916580	0.070467	0.132785
C19	C	0.851094	0.069807	-0.265594
C20	C	0.916570	0.070475	-0.398393
C21	C	1.047536	0.071807	-0.398394
C22	C	1.113026	0.072472	-0.265598
C23	C	1.482709	-0.403638	-0.132811
C24	C	1.477355	-0.605330	-0.132837
O25	O	1.476610	-0.631406	-0.245767
N26	N	1.476689	-0.630550	-0.000053
C27	C	1.477353	-0.605344	0.132748
O28	O	1.476650	-0.631423	0.245688
C29	C	1.482698	-0.403653	0.132772
C30	C	1.483377	-0.378436	-0.000021
C31	C	1.483387	-0.378421	-0.265594
C32	C	1.484732	-0.328002	-0.265586
C33	C	1.485400	-0.302799	-0.132796
C34	C	1.484722	-0.328016	-0.000013
C35	C	1.483353	-0.378447	0.265571
C36	C	1.484686	-0.328021	0.265565
C37	C	1.485365	-0.302804	0.132772
C38	C	1.486735	-0.252394	0.132785
N39	N	1.487402	-0.227174	0.000000
C40	C	1.486734	-0.252376	-0.132790
C41	C	1.474549	-0.711235	0.132725
C42	C	1.473215	-0.761657	0.132720
C43	C	1.473215	-0.761640	-0.132866
C44	C	1.474558	-0.711217	-0.132858
C45	C	1.475216	-0.686015	-0.000059
C46	C	1.489560	-0.146492	-0.132764
C47	C	1.490911	-0.096068	-0.132744
C48	C	1.490904	-0.096090	0.132840
C49	C	1.489560	-0.146509	0.132822
C50	C	1.488884	-0.171709	0.000008
O51	O	1.487467	-0.226286	0.245655
O52	O	1.487409	-0.226288	-0.245714
C53	C	1.481364	-0.454058	-0.132819
C54	C	1.480686	-0.479275	-0.000037
C55	C	1.481354	-0.454072	0.132753
C56	C	1.479352	-0.529698	-0.000043
C57	C	1.478685	-0.554900	-0.132833
C58	C	1.479351	-0.529680	-0.265617
C59	C	1.480696	-0.479260	-0.265609
C60	C	1.480688	-0.479293	0.265538
C61	C	1.479344	-0.529712	0.265519
C62	C	1.478676	-0.554915	0.132729
C63	C	1.711717	0.068381	-0.000003
C64	C	1.851099	0.069803	-0.000011
C65	C	1.471138	0.159475	-0.000046
C66	C	1.472548	0.213140	-0.000070
N67	N	1.482069	0.071140	0.346659
N68	N	1.482068	0.071131	-0.346670
C69	C	1.568113	0.038579	0.423327
C70	C	1.568110	0.038573	0.576664
C71	C	1.396014	0.103693	0.576651
C72	C	1.396013	0.103696	0.423317
C73	C	1.654169	0.006022	0.346669
C74	C	1.740221	-0.026541	0.423338
C75	C	1.740218	-0.026547	0.576674
C76	C	1.654163	0.006011	0.653343
H77	H	0.744455	0.068724	-0.265607
Br78	Br	0.827715	0.069551	0.312999
H79	H	1.810276	-0.053064	0.639096
Br80	Br	1.654150	0.005995	0.861445
H81	H	1.475109	-0.690688	-0.240990
H82	H	1.491454	-0.075561	0.240955
H83	H	1.325953	0.130201	0.639084
H84	H	1.325947	0.130210	0.360893
H85	H	0.863241	0.069931	-0.506510
Br86	Br	1.491840	-0.061848	-0.312975
Br87	Br	1.478433	-0.563930	0.445756
H88	H	1.100875	0.072344	0.240901
H89	H	1.100845	0.072346	-0.506525
H90	H	1.485281	-0.307474	-0.373720
Br91	Br	1.488642	-0.180683	-0.313012
Br92	Br	1.485575	-0.293821	0.445804
Br93	Br	1.290771	0.074270	-0.265604
Br94	Br	1.482480	-0.412615	-0.445834
H95	H	1.472673	-0.782168	-0.240989
H96	H	1.482802	-0.398970	0.373705
Br97	Br	1.472324	-0.795876	0.312946
H98	H	1.475091	-0.690720	0.240873
H99	H	1.489019	-0.167043	0.240953
H100	H	1.478813	-0.550209	-0.373740
Br101	Br	1.481580	-0.445097	0.445772
H102	H	1.481249	-0.458733	-0.373743
Br103	Br	1.654185	0.006032	0.138570
Br104	Br	1.856990	-0.070730	0.319294
