data_functionalizedCrystal
_audit_creation_method	'MofGen! by Chris Wilmer'
_symmetry_space_group_name_H-M	'P1'
_symmetry_Int_Tables_number	1
_symmetry_cell_setting	triclinic
loop_
_symmetry_equiv_pos_as_xyz
  x,y,z
_cell_length_a	8.497374
_cell_length_b	8.497374
_cell_length_c	12.827893
_cell_angle_alpha	89.998937
_cell_angle_beta	90.001575
_cell_angle_gamma	90.005237
loop_
_atom_site_label
_atom_site_type_symbol
_atom_site_fract_x
_atom_site_fract_y
_atom_site_fract_z
Zn1	Zn	0.892100	0.628331	1.597591
Zn2	Zn	0.628366	0.892076	1.597583
Zn3	Zn	0.628328	0.628304	1.422886
Zn4	Zn	0.892098	0.892063	1.422861
O5	O	0.760223	0.760193	1.510230
O6	O	0.857132	0.663334	1.743826
O7	O	0.407598	0.857081	1.574416
O8	O	0.663303	0.407545	1.446075
O9	O	0.663367	0.857107	1.743820
O10	O	0.857095	0.407565	1.574430
O11	O	0.407571	0.663289	1.446067
O12	O	0.663301	0.663275	1.276647
O13	O	1.112860	0.857083	1.446032
O14	O	0.857091	0.857057	1.276629
O15	O	1.112862	0.663321	1.574406
O16	O	0.663365	1.112837	1.574391
O17	O	0.857128	1.112827	1.446024
C18	C	0.760193	0.760163	1.238720
C19	C	0.760217	0.760188	1.122567
C20	C	0.855963	0.856227	1.070801
C21	C	0.855991	0.856255	0.950751
C22	C	1.171703	0.760196	1.510222
C23	C	1.350347	0.760213	1.510225
C24	C	0.760246	1.170073	1.510217
C25	C	0.760220	1.348717	1.510245
C26	C	0.760254	0.760225	1.782800
C27	C	0.760267	0.760239	1.898953
H28	H	0.678286	0.678017	0.943465
C29	C	0.966682	0.967281	1.130986
C30	C	0.898022	1.090907	1.206053
C31	C	1.008745	1.201963	1.266236
C32	C	1.188130	1.189394	1.251352
C33	C	1.256800	1.065763	1.176282
C34	C	1.146076	0.954706	1.116099
H35	H	0.765222	1.100216	1.217074
H36	H	0.957910	1.293483	1.321808
H37	H	1.270094	1.271604	1.295903
H38	H	1.389599	1.056453	1.165261
H39	H	1.196912	0.863187	1.060527
H40	H	0.678273	0.677980	1.078009
H41	H	0.937958	0.938483	0.906233
