data_functionalizedCrystal
_audit_creation_method	'MofGen! by Chris Wilmer'
_symmetry_space_group_name_H-M	'P1'
_symmetry_Int_Tables_number	1
_symmetry_cell_setting	triclinic
loop_
_symmetry_equiv_pos_as_xyz
  x,y,z
_cell_length_a	21.295418
_cell_length_b	12.827892
_cell_length_c	12.827885
_cell_angle_alpha	89.970024
_cell_angle_beta	89.959362
_cell_angle_gamma	90.031207
loop_
_atom_site_label
_atom_site_type_symbol
_atom_site_fract_x
_atom_site_fract_y
_atom_site_fract_z
Zn1	Zn	0.962403	-0.415539	-0.591439
Zn2	Zn	0.962339	-0.590317	-0.416700
Zn3	Zn	0.857132	-0.415639	-0.416648
Zn4	Zn	0.857123	-0.590287	-0.591335
O5	O	0.909749	-0.502946	-0.504031
O6	O	1.050484	-0.438695	-0.568325
O7	O	0.948359	-0.567200	-0.270457
O8	O	0.871126	-0.269390	-0.439857
O9	O	1.050436	-0.567103	-0.439944
O10	O	0.948469	-0.269316	-0.568275
O11	O	0.871064	-0.438865	-0.270419
O12	O	0.769041	-0.438836	-0.439756
O13	O	0.871112	-0.567052	-0.737585
O14	O	0.769035	-0.567149	-0.568097
O15	O	0.948460	-0.438666	-0.737662
O16	O	0.948351	-0.736549	-0.439843
O17	O	0.871050	-0.736527	-0.568147
C18	C	0.909710	-0.774456	-0.504012
C19	C	0.909750	-0.890609	-0.504039
C20	C	0.746197	-0.503001	-0.503910
C21	C	0.676229	-0.503049	-0.503884
C22	C	0.948047	-0.942370	-0.440621
C23	C	0.948090	-1.062420	-0.440647
C24	C	0.643376	-0.569951	-0.570611
C25	C	0.577633	-0.569925	-0.570658
C26	C	0.544747	-0.503009	-0.503959
C27	C	0.577608	-0.436095	-0.437227
C28	C	0.643349	-0.436115	-0.437189
N29	N	0.441472	-0.494856	-0.412557
N30	N	0.379021	-0.494843	-0.412596
C31	C	0.346672	-0.502942	-0.504070
N32	N	0.379134	-0.511075	-0.595505
N33	N	0.441591	-0.511094	-0.595465
C34	C	0.473461	-0.502979	-0.503993
C35	C	0.242533	-0.569819	-0.570854
C36	C	0.176789	-0.569786	-0.570902
C37	C	0.176765	-0.435961	-0.437462
C38	C	0.242508	-0.435989	-0.437422
C39	C	0.275388	-0.502923	-0.504117
C40	C	1.073939	-0.502891	-0.504152
C41	C	1.143907	-0.502868	-0.504204
C42	C	0.909792	-0.502844	-0.776601
C43	C	0.909811	-0.502801	-0.892754
C44	C	0.909806	-0.230375	-0.504072
C45	C	0.909830	-0.114222	-0.504090
C46	C	0.871549	-0.566305	-0.944501
C47	C	0.871567	-0.566262	-1.064551
C48	C	0.909742	-0.502971	-0.232521
C49	C	0.909845	-0.502720	-0.116368
H50	H	0.980805	-0.897810	-0.386310
C51	C	0.827308	-0.639710	-1.124667
N52	N	0.793972	-0.695033	-1.169950
C53	C	0.679489	-0.362520	-0.363775
N54	N	0.706711	-0.307091	-0.308475
H55	H	0.942602	-0.448344	-1.071874
C56	C	0.992384	-1.122552	-0.367292
N57	N	1.025748	-1.167847	-0.312039
H58	H	0.838780	-0.620709	-0.899927
H59	H	0.942584	-0.448405	-0.937329
C60	C	0.278703	-0.643436	-0.644230
N61	N	0.305945	-0.698882	-0.699501
H62	H	0.876998	-0.935171	-0.558358
H63	H	0.150041	-0.624263	-0.625247
C64	C	0.679540	-0.643577	-0.643981
N65	N	0.706780	-0.699033	-0.699245
C66	C	0.865532	-1.054097	-0.577446
N67	N	0.832169	-1.008802	-0.632699
C68	C	0.541432	-0.362487	-0.363857
N69	N	0.514183	-0.307041	-0.308595
C70	C	0.140594	-0.362352	-0.364092
N71	N	0.113346	-0.306906	-0.308829
C72	C	0.278648	-0.362401	-0.364006
N73	N	0.305869	-0.306970	-0.308706
C74	C	0.541487	-0.643528	-0.644063
N75	N	0.514264	-0.698967	-0.699350
