data_functionalizedCrystal
_audit_creation_method	'MofGen! by Chris Wilmer'
_symmetry_space_group_name_H-M	'P1'
_symmetry_Int_Tables_number	1
_symmetry_cell_setting	triclinic
loop_
_symmetry_equiv_pos_as_xyz
  x,y,z
_cell_length_a	12.759401
_cell_length_b	12.759400
_cell_length_c	19.805398
_cell_angle_alpha	89.976858
_cell_angle_beta	89.991014
_cell_angle_gamma	90.013326
loop_
_atom_site_label
_atom_site_type_symbol
_atom_site_fract_x
_atom_site_fract_y
_atom_site_fract_z
Zn1	Zn	1.606168	-0.418276	-0.382671
Zn2	Zn	2.106168	0.081724	0.117329
Zn3	Zn	1.606096	-0.593972	-0.269493
Zn4	Zn	2.106096	-0.093972	0.230507
Zn5	Zn	1.430499	-0.418308	-0.269503
Zn6	Zn	1.930499	0.081692	0.230497
Zn7	Zn	1.430463	-0.593914	-0.382648
Zn8	Zn	1.930463	-0.093914	0.117352
O9	O	1.518307	-0.506117	-0.326079
O10	O	2.018307	-0.006117	0.173921
O11	O	1.753179	-0.441593	-0.367663
O12	O	2.253179	0.058407	0.132337
O13	O	1.582788	-0.570708	-0.174778
O14	O	2.082788	-0.070708	0.325222
O15	O	1.453847	-0.271283	-0.284529
O16	O	1.953847	0.228717	0.215471
O17	O	1.753127	-0.570676	-0.284512
O18	O	2.253127	-0.070676	0.215488
O19	O	1.582910	-0.271259	-0.367672
O20	O	2.082910	0.228741	0.132328
O21	O	1.453777	-0.441648	-0.174785
O22	O	1.953777	0.058352	0.325215
O23	O	1.283473	-0.441592	-0.284507
O24	O	1.783473	0.058408	0.215493
O25	O	1.453786	-0.570577	-0.477368
O26	O	1.953786	-0.070577	0.022632
O27	O	1.283447	-0.570608	-0.367634
O28	O	1.783447	-0.070608	0.132366
O29	O	1.582875	-0.441536	-0.477384
O30	O	2.082875	0.058464	0.022616
O31	O	1.582753	-0.740985	-0.284490
O32	O	2.082753	-0.240985	0.215510
O33	O	1.453716	-0.740942	-0.367624
O34	O	1.953716	-0.240942	0.132376
C35	C	1.245339	-0.506098	-0.326070
C36	C	1.745339	-0.006098	0.173930
C37	C	1.128563	-0.506115	-0.326082
C38	C	1.628563	-0.006115	0.173918
C39	C	1.073714	-0.573401	-0.369294
C40	C	1.573714	-0.073401	0.130706
C41	C	0.963990	-0.573415	-0.369302
C42	C	1.463990	-0.073415	0.130698
C43	C	0.963972	-0.438852	-0.282878
C44	C	1.463972	0.061148	0.217122
C45	C	1.073694	-0.438834	-0.282875
C46	C	1.573694	0.061166	0.217125
C47	C	1.128583	-0.640682	-0.412502
C48	C	1.628583	-0.140682	0.087498
C49	C	1.073734	-0.707975	-0.455717
C50	C	1.573734	-0.207975	0.044283
C51	C	0.964010	-0.707988	-0.455724
C52	C	1.464010	-0.207988	0.044276
C53	C	0.909134	-0.640709	-0.412516
C54	C	1.409134	-0.140709	0.087484
C55	C	1.518252	-0.779085	-0.326068
C56	C	2.018252	-0.279085	0.173932
C57	C	1.518324	-0.895861	-0.326086
C58	C	2.018324	-0.395861	0.173914
C59	C	1.585494	-0.950631	-0.369414
C60	C	2.085494	-0.450631	0.130586
C61	C	1.585543	-1.060355	-0.369431
C62	C	2.085543	-0.560355	0.130569
C63	C	1.451249	-1.060530	-0.282785
C64	C	1.951249	-0.560530	0.217215
C65	C	1.451196	-0.950808	-0.282773
C66	C	1.951196	-0.450808	0.217227
C67	C	1.652622	-0.895685	-0.412728
C68	C	2.152622	-0.395685	0.087272
C69	C	1.719798	-0.950455	-0.456059
C70	C	2.219798	-0.450455	0.043941
C71	C	1.719846	-1.060179	-0.456076
C72	C	2.219846	-0.560179	0.043924
C73	C	1.652719	-1.115133	-0.412761
C74	C	2.152719	-0.615133	0.087239
C75	C	1.792340	-0.506138	-0.326088
C76	C	2.292340	-0.006138	0.173912
C77	C	1.909117	-0.506146	-0.326093
C78	C	2.409117	-0.006146	0.173907
C79	C	1.518335	-0.506046	-0.502622
C80	C	2.018335	-0.006046	-0.002622
C81	C	1.518347	-0.506016	-0.577854
C82	C	2.018347	-0.006016	-0.077854
C83	C	1.518391	-0.232084	-0.326104
C84	C	2.018391	0.267916	0.173896
C85	C	1.518426	-0.115307	-0.326115
C86	C	2.018426	0.384693	0.173885
C87	C	1.585688	-0.573050	-1.039639
C88	C	2.085688	-0.073050	-0.539639
C89	C	1.585659	-0.573079	-0.968950
C90	C	2.085659	-0.073079	-0.468950
C91	C	1.518477	-0.505898	-0.933616
C92	C	2.018477	-0.005898	-0.433616
C93	C	1.451312	-0.438691	-0.968973
C94	C	1.951312	0.061309	-0.468973
C95	C	1.451337	-0.438669	-1.039660
C96	C	1.951337	0.061331	-0.539660
C97	C	1.451211	-0.438781	-0.683900
C98	C	1.951211	0.061219	-0.183900
C99	C	1.451194	-0.438806	-0.613208
C100	C	1.951194	0.061194	-0.113208
C101	C	1.585533	-0.573191	-0.613189
C102	C	2.085533	-0.073191	-0.113189
C103	C	1.585558	-0.573169	-0.683877
C104	C	2.085558	-0.073169	-0.183877
C105	C	1.518389	-0.505967	-0.719228
C106	C	2.018389	-0.005967	-0.219228
C107	C	1.518420	-0.505938	-0.795877
C108	C	2.018420	-0.005938	-0.295877
C109	C	1.518451	-0.505920	-0.856968
C110	C	2.018451	-0.005920	-0.356968
C111	C	1.518339	-0.506112	-0.150223
C112	C	2.018339	-0.006112	0.349777
C113	C	1.518531	-0.505847	-0.074991
C114	C	2.018531	-0.005847	0.425009
H115	H	0.919284	-0.384077	-0.247699
H116	H	1.419284	0.115923	0.252301
Br117	Br	1.810878	-0.875878	-0.514850
Br118	Br	2.310878	-0.375878	-0.014850
Br119	Br	1.360149	-0.347501	-0.921020
Br120	Br	1.860149	0.152499	-0.421020
H121	H	1.396652	-0.383943	-1.068444
H122	H	1.896652	0.116057	-0.568444
Br123	Br	1.148138	-0.347513	-0.224230
Br124	Br	1.648138	0.152487	0.275770
Br125	Br	1.359999	-0.347633	-0.731868
Br126	Br	1.859999	0.152367	-0.231868
Br127	Br	1.676739	-0.664343	-0.731827
Br128	Br	2.176739	-0.164343	-0.231827
H129	H	1.396499	-0.906214	-0.247491
H130	H	1.896499	-0.406214	0.252509
Br131	Br	1.652532	-0.746774	-0.412725
Br132	Br	2.152532	-0.246774	0.087275
H133	H	1.774536	-1.104769	-0.491364
H134	H	2.274536	-0.604769	0.008636
Br135	Br	1.652962	-1.264045	-0.412672
Br136	Br	2.152962	-0.764045	0.087328
H137	H	0.919356	-0.762773	-0.490917
H138	H	1.419356	-0.262773	0.009083
H139	H	1.396598	-1.105282	-0.247520
H140	H	1.896598	-0.605282	0.252480
Br141	Br	1.676878	-0.664221	-1.087586
Br142	Br	2.176878	-0.164221	-0.587586
H143	H	1.640332	-0.627815	-0.940169
H144	H	2.140332	-0.127815	-0.440169
Br145	Br	1.277493	-0.640674	-0.412490
Br146	Br	1.777493	-0.140674	0.087510
Br147	Br	1.676692	-0.664397	-0.565209
Br148	Br	2.176692	-0.164397	-0.065209
H149	H	1.396483	-0.384096	-0.584440
H150	H	1.896483	0.115904	-0.084440
H151	H	0.819790	-0.640716	-0.412531
H152	H	1.319790	-0.140716	0.087469
Br153	Br	1.148205	-0.799269	-0.514360
Br154	Br	1.648205	-0.299269	-0.014360
