data_functionalizedCrystal
_audit_creation_method	'MofGen! by Chris Wilmer'
_symmetry_space_group_name_H-M	'P1'
_symmetry_Int_Tables_number	1
_symmetry_cell_setting	triclinic
loop_
_symmetry_equiv_pos_as_xyz
  x,y,z
_cell_length_a	19.805407
_cell_length_b	16.625545
_cell_length_c	19.805399
_cell_angle_alpha	90.025578
_cell_angle_beta	90.017803
_cell_angle_gamma	90.022874
loop_
_atom_site_label
_atom_site_type_symbol
_atom_site_fract_x
_atom_site_fract_y
_atom_site_fract_z
Zn1	Zn	1.034740	-0.321078	0.382697
Zn2	Zn	1.034656	-0.455915	0.269513
Zn3	Zn	0.921554	-0.321094	0.269525
Zn4	Zn	0.921519	-0.455866	0.382663
O5	O	0.978117	-0.388488	0.326100
O6	O	1.129445	-0.338978	0.367692
O7	O	1.019633	-0.438058	0.174798
O8	O	0.936618	-0.208259	0.284557
O9	O	1.129384	-0.438043	0.284536
O10	O	1.019775	-0.208248	0.367704
O11	O	0.936537	-0.339006	0.174807
O12	O	0.826833	-0.338958	0.284524
O13	O	0.936559	-0.437959	0.477384
O14	O	0.826808	-0.437974	0.367646
O15	O	1.019741	-0.338931	0.477409
O16	O	1.019599	-0.568741	0.284503
O17	O	0.936478	-0.568705	0.367634
C18	C	0.802261	-0.388463	0.326083
C19	C	0.727029	-0.388472	0.326092
C20	C	0.691718	-0.336980	0.369457
C21	C	0.621029	-0.336984	0.369460
C22	C	0.585654	-0.388485	0.326100
C23	C	0.620970	-0.439979	0.282730
C24	C	0.691658	-0.439970	0.282725
C25	C	0.335897	-0.440015	0.282751
C26	C	0.265205	-0.440022	0.282761
C27	C	0.265269	-0.337030	0.369486
C28	C	0.335956	-0.337021	0.369481
C29	C	0.371266	-0.388511	0.326108
C30	C	0.447915	-0.388505	0.326105
C31	C	0.509007	-0.388496	0.326106
C32	C	0.978044	-0.597979	0.326078
C33	C	0.978074	-0.687600	0.326092
C34	C	0.978101	-0.760383	0.326105
C35	C	0.978140	-0.851691	0.326120
C36	C	0.978175	-0.924468	0.326129
C37	C	0.978214	-1.015782	0.326143
C38	C	1.154660	-0.388514	0.326116
C39	C	1.229892	-0.388525	0.326124
C40	C	0.978155	-0.388438	0.502642
C41	C	0.978172	-0.388416	0.577874
C42	C	0.978210	-0.178179	0.326136
C43	C	0.978249	-0.088558	0.326151
C44	C	0.978119	-0.388481	0.150244
C45	C	0.978234	-0.388275	0.075012
C46	C	1.021486	-0.336849	0.613233
C47	C	1.021493	-0.336826	0.683921
C48	C	0.978188	-0.388374	0.719250
C49	C	0.934870	-0.439943	0.683887
C50	C	0.934860	-0.439961	0.613200
C51	C	0.934908	-0.439867	0.968960
C52	C	0.934922	-0.439846	1.039652
C53	C	1.021541	-0.336732	1.039682
C54	C	1.021531	-0.336751	0.968995
C55	C	0.978210	-0.388316	0.933637
C56	C	0.978202	-0.388340	0.856989
C57	C	0.978199	-0.388355	0.795897
H58	H	0.592282	-0.295056	0.404773
H59	H	0.364638	-0.481942	0.247435
H60	H	0.720407	-0.481899	0.247412
H61	H	0.236511	-0.295101	0.404800
C62	C	0.226293	-0.496672	0.235054
N63	N	0.196985	-0.539338	0.199122
H64	H	0.592162	-0.481907	0.247423
C65	C	0.374865	-0.280363	0.417177
N66	N	0.404171	-0.237684	0.453100
H67	H	0.899643	-0.481867	0.940181
H68	H	0.899582	-0.481944	0.584412
H69	H	1.056751	-0.294876	0.584473
H70	H	0.899608	-0.481911	0.712657
C71	C	1.069166	-0.280041	0.930137
N72	N	1.105043	-0.237322	0.900870
C73	C	1.069143	-0.280100	0.722812
N74	N	1.105035	-0.237371	0.752104
C75	C	1.069187	-0.279999	1.078581
N76	N	1.105073	-0.237268	1.107878
H77	H	0.720516	-0.295045	0.404768
C78	C	0.887278	-0.496550	1.078513
N79	N	0.851393	-0.539257	1.107782
