data_functionalizedCrystal
_audit_creation_method	'MofGen! by Chris Wilmer'
_symmetry_space_group_name_H-M	'P1'
_symmetry_Int_Tables_number	1
_symmetry_cell_setting	triclinic
loop_
_symmetry_equiv_pos_as_xyz
  x,y,z
_cell_length_a	33.359704
_cell_length_b	33.359713
_cell_length_c	33.358567
_cell_angle_alpha	120.001895
_cell_angle_beta	59.998585
_cell_angle_gamma	120.000038
loop_
_atom_site_label
_atom_site_type_symbol
_atom_site_fract_x
_atom_site_fract_y
_atom_site_fract_z
O1	O	-0.341704	0.275021	0.628591
O2	O	-0.283402	0.216722	0.488209
O3	O	-0.283407	0.216726	0.570298
O4	O	-0.341699	0.275017	0.546502
O5	O	-0.216736	0.283398	0.570299
O6	O	-0.216731	0.283394	0.488210
O7	O	-0.275033	0.341693	0.628593
Zn8	Zn	-0.235297	0.323129	0.558402
Zn9	Zn	-0.323138	0.235286	0.558400
O10	O	-0.275028	0.341689	0.546504
C11	C	-0.412075	0.412062	0.529556
C12	C	-0.387839	0.460305	0.529218
C13	C	-0.484666	0.412063	0.529561
C14	C	-0.460320	0.460306	0.529223
C15	C	-0.412076	0.484652	0.529560
C16	C	-0.460318	0.387826	0.529219
C17	C	-0.412261	0.339308	0.535443
C18	C	-0.389410	0.316301	0.539158
C19	C	-0.341607	0.341104	0.541021
C20	C	-0.316830	0.316162	0.545052
C21	C	-0.316647	0.388915	0.539165
C22	C	-0.339496	0.411920	0.535448
C23	C	-0.387303	0.387117	0.533589
C24	C	-0.339323	0.563106	0.535450
C25	C	-0.316317	0.612681	0.539169
C26	C	-0.341122	0.637545	0.541037
C27	C	-0.316181	0.691298	0.545072
C28	C	-0.388934	0.612839	0.539182
C29	C	-0.411938	0.563267	0.535461
C30	C	-0.387133	0.538402	0.533597
C31	C	-0.563120	0.339311	0.535453
C32	C	-0.612697	0.316307	0.539180
C33	C	-0.637562	0.341111	0.541048
C34	C	-0.691314	0.316170	0.545084
C35	C	-0.612858	0.388920	0.539194
C36	C	-0.563283	0.411926	0.535470
C37	C	-0.538416	0.387119	0.533599
O38	O	-0.849416	0.216732	0.570322
O39	O	-0.709039	0.275023	0.546529
O40	O	-0.791119	0.275026	0.628617
O41	O	-0.767336	0.216729	0.488234
O42	O	-0.791120	0.341698	0.628620
O43	O	-0.709039	0.341696	0.546532
O44	O	-0.849416	0.283405	0.570326
Zn45	Zn	-0.779228	0.323136	0.558430
Zn46	Zn	-0.779227	0.235292	0.558425
O47	O	-0.767336	0.283402	0.488238
C48	C	-0.750383	0.073770	0.191259
C49	C	-0.750043	0.098116	0.239505
C50	C	-0.750384	0.146362	0.191264
C51	C	-0.750043	0.170597	0.239510
C52	C	-0.750382	0.146360	0.263854
C53	C	-0.750045	0.098117	0.167025
C54	C	-0.756275	-0.004685	0.118501
C55	C	-0.759993	-0.054260	0.095491
C56	C	-0.761858	-0.079125	0.120294
C57	C	-0.765892	-0.132878	0.095349
C58	C	-0.760000	-0.054418	0.168107
C59	C	-0.756280	-0.004845	0.191115
C60	C	-0.754419	0.020019	0.166312
C61	C	-0.756270	0.146171	0.342310
C62	C	-0.759987	0.169020	0.391887
C63	C	-0.761852	0.216823	0.416754
C64	C	-0.765884	0.241600	0.470508
C65	C	-0.759996	0.241786	0.392048
C66	C	-0.756277	0.218938	0.342474
C67	C	-0.754416	0.171130	0.317607
C68	C	-0.756276	0.146174	0.118511
C69	C	-0.760002	0.169023	0.095508
C70	C	-0.761867	0.216827	0.120316
C71	C	-0.765901	0.241604	0.095376
C72	C	-0.760011	0.241785	0.168127
C73	C	-0.756288	0.218938	0.191132
C74	C	-0.754421	0.171133	0.166322
C75	C	-0.073785	0.146361	0.587275
C76	C	-0.098131	0.098118	0.587614
C77	C	-0.146372	0.146360	0.587270
C78	C	-0.170609	0.098117	0.587610
C79	C	-0.146374	0.073772	0.587273
C80	C	-0.098130	0.170597	0.587611
C81	C	0.004670	0.219114	0.581386
C82	C	0.054244	0.242121	0.577670
C83	C	0.079106	0.217317	0.575807
C84	C	0.132858	0.242259	0.571775
C85	C	0.054399	0.169507	0.577664
C86	C	0.004827	0.146502	0.581382
C87	C	-0.020035	0.171306	0.583241
C88	C	-0.146186	-0.004682	0.581385
C89	C	-0.169036	-0.054256	0.577668
C90	C	-0.216838	-0.079120	0.575800
C91	C	-0.241614	-0.132872	0.571767
C92	C	-0.241798	-0.054414	0.577655
C93	C	-0.218950	-0.004842	0.581374
C94	C	-0.171144	0.020022	0.583238
C95	C	-0.146181	0.219112	0.581376
C96	C	-0.169028	0.242115	0.577649
C97	C	-0.216829	0.217311	0.575782
C98	C	-0.241604	0.242252	0.571745
C99	C	-0.241788	0.169502	0.577637
C100	C	-0.218944	0.146497	0.581362
C101	C	-0.171141	0.171303	0.583231
O102	O	-0.283417	0.849401	0.570317
O103	O	-0.341709	0.709024	0.546527
O104	O	-0.341709	0.791107	0.628614
O105	O	-0.283417	0.767318	0.488230
O106	O	-0.275035	0.791107	0.628609
O107	O	-0.275036	0.709024	0.546522
O108	O	-0.216744	0.849401	0.570313
Zn109	Zn	-0.235304	0.779213	0.558417
Zn110	Zn	-0.323149	0.779213	0.558423
O111	O	-0.216744	0.767318	0.488226
O112	O	-0.791137	0.275032	-0.004064
O113	O	-0.767348	0.216736	0.054228
O114	O	-0.849430	0.216738	0.054233
O115	O	-0.709054	0.275030	-0.004069
O116	O	-0.849429	0.283411	0.120909
O117	O	-0.767346	0.283409	0.120904
O118	O	-0.791136	0.341705	0.062612
Zn119	Zn	-0.779241	0.323143	0.102344
Zn120	Zn	-0.779242	0.235298	0.014496
O121	O	-0.709053	0.341703	0.062607
O122	O	-0.791177	-0.290993	0.062584
O123	O	-0.767375	-0.150613	0.120887
O124	O	-0.849463	-0.232687	0.120845
O125	O	-0.709089	-0.208919	0.062625
O126	O	-0.849401	-0.232670	0.054149
O127	O	-0.767313	-0.150596	0.054191
O128	O	-0.791116	-0.290977	-0.004113
Zn129	Zn	-0.779205	-0.220784	0.014450
Zn130	Zn	-0.779286	-0.220806	0.102324
O131	O	-0.709028	-0.208903	-0.004071
C132	C	-0.484680	0.412072	0.925564
C133	C	-0.460335	0.460316	0.949802
C134	C	-0.412087	0.412070	0.852973
C135	C	-0.387853	0.460314	0.877321
C136	C	-0.412091	0.484662	0.925566
C137	C	-0.460331	0.387834	0.877319
C138	C	-0.563133	0.339318	0.925373
C139	C	-0.612708	0.316311	0.948223
C140	C	-0.637574	0.341117	0.996027
C141	C	-0.691327	0.316175	1.020803
C142	C	-0.612869	0.388929	1.020990
C143	C	-0.563296	0.411933	0.998142
C144	C	-0.538430	0.387128	0.950334
C145	C	-0.412284	0.563119	0.998322
C146	C	-0.389436	0.612694	1.021331
C147	C	-0.341633	0.637557	0.996526
C148	C	-0.316859	0.691311	1.021470
C149	C	-0.316670	0.612850	0.948714
C150	C	-0.339516	0.563276	0.925708
C151	C	-0.387323	0.538413	0.950512
C152	C	-0.412271	0.339315	0.774514
C153	C	-0.389420	0.316309	0.724935
C154	C	-0.341617	0.341112	0.700072
C155	C	-0.316837	0.316169	0.646317
C156	C	-0.316660	0.388922	0.724778
C157	C	-0.339508	0.411930	0.774355
C158	C	-0.387314	0.387124	0.799220
C159	C	-0.146333	0.073740	0.191245
C160	C	-0.098088	0.098085	0.167010
C161	C	-0.146340	0.146335	0.263835
C162	C	-0.098095	0.170569	0.239490
C163	C	-0.073745	0.146330	0.191247
C164	C	-0.170574	0.098090	0.239488
C165	C	-0.219086	-0.004715	0.191433
C166	C	-0.242090	-0.054291	0.168583
C167	C	-0.217282	-0.079157	0.120781
C168	C	-0.242222	-0.132911	0.096004
C169	C	-0.169469	-0.054452	0.095820
C170	C	-0.146467	-0.004878	0.118668
C171	C	-0.171275	0.019988	0.166474
C172	C	0.004716	0.146137	0.118496
C173	C	0.054291	0.168985	0.095490
C174	C	0.079152	0.216790	0.120296
C175	C	0.132906	0.241565	0.095355
C176	C	0.054442	0.241754	0.168106
C177	C	0.004868	0.218908	0.191109
C178	C	-0.019993	0.171099	0.166304
C179	C	-0.219100	0.146152	0.342290
C180	C	-0.242109	0.169003	0.391867
C181	C	-0.217307	0.216808	0.416732
C182	C	-0.242254	0.241588	0.470485
C183	C	-0.169497	0.241765	0.392028
C184	C	-0.146485	0.218916	0.342453
C185	C	-0.171289	0.171109	0.317586
C186	C	-0.808072	0.484668	0.925593
C187	C	-0.808374	0.460336	0.949820
C188	C	-0.808049	0.412082	0.852994
C189	C	-0.808351	0.387861	0.877330
C190	C	-0.808005	0.412102	0.925573
C191	C	-0.808418	0.460316	0.877350
C192	C	-0.802251	0.563101	0.925424
C193	C	-0.798563	0.612668	0.948284
C194	C	-0.796691	0.637538	0.996086
C195	C	-0.792690	0.691282	1.020873
C196	C	-0.798511	0.612845	1.021037
C197	C	-0.802201	0.563280	0.998180
C198	C	-0.804069	0.538410	0.950374
C199	C	-0.802068	0.412315	0.998315
C200	C	-0.798314	0.389481	1.021311
C201	C	-0.796419	0.341689	0.996497
C202	C	-0.792345	0.316930	1.021427
C203	C	-0.798282	0.316722	0.948686
C204	C	-0.802039	0.339553	0.925692
C205	C	-0.803930	0.387350	0.950506
C206	C	-0.802202	0.412254	0.774548
C207	C	-0.798485	0.389403	0.724970
C208	C	-0.796589	0.341611	0.700097
C209	C	-0.792563	0.316831	0.646344
C210	C	-0.798407	0.316666	0.724792
C211	C	-0.802123	0.339515	0.774367
C212	C	-0.804020	0.387309	0.799243
C213	C	-0.412075	0.808070	0.925586
C214	C	-0.460319	0.808410	0.949825
C215	C	-0.412077	0.808069	0.852994
C216	C	-0.460320	0.808409	0.877343
C217	C	-0.484666	0.808070	0.925589
C218	C	-0.387840	0.808409	0.877340
C219	C	-0.339321	0.802180	0.925394
C220	C	-0.316314	0.798462	0.948243
C221	C	-0.341117	0.796598	0.996048
C222	C	-0.316174	0.792564	1.020824
C223	C	-0.388929	0.798455	1.021012
C224	C	-0.411934	0.802174	0.998165
C225	C	-0.387130	0.804035	0.950356
C226	C	-0.563121	0.802180	0.998347
C227	C	-0.612696	0.798463	1.021356
C228	C	-0.637560	0.796597	0.996552
C229	C	-0.691313	0.792564	1.021496
C230	C	-0.612854	0.798453	0.948739
C231	C	-0.563281	0.802173	0.925732
C232	C	-0.538417	0.804035	0.950536
C233	C	-0.339324	0.802178	0.774534
C234	C	-0.316319	0.798453	0.724955
C235	C	-0.341124	0.796587	0.700092
C236	C	-0.316183	0.792553	0.646337
C237	C	-0.388934	0.798442	0.724799
C238	C	-0.411940	0.802165	0.774376
C239	C	-0.387133	0.804033	0.799241
O240	O	-0.216772	0.849418	1.054235
O241	O	-0.275056	0.709037	0.995943
O242	O	-0.275063	0.791110	0.995934
O243	O	-0.216766	0.767344	1.054244
O244	O	-0.341737	0.791112	1.062607
O245	O	-0.341731	0.709038	1.062616
O246	O	-0.283447	0.849419	1.120908
Zn247	Zn	-0.323175	0.779229	1.102348
Zn248	Zn	-0.235328	0.779227	1.014503
O249	O	-0.283440	0.767346	1.120917
C250	C	-0.073795	0.750355	0.191249
C251	C	-0.098143	0.750016	0.167015
C252	C	-0.146383	0.750356	0.263845
C253	C	-0.170621	0.750017	0.239501
C254	C	-0.146387	0.750355	0.191255
C255	C	-0.098139	0.750016	0.239495
C256	C	0.004662	0.756245	0.191432
C257	C	0.054237	0.759963	0.168578
C258	C	0.079099	0.761828	0.120773
C259	C	0.132851	0.765861	0.095992
C260	C	0.054390	0.759970	0.095814
C261	C	0.004817	0.756251	0.118666
C262	C	-0.020044	0.754390	0.166475
C263	C	-0.146203	0.756245	0.118502
C264	C	-0.169055	0.759963	0.095497
C265	C	-0.216858	0.761828	0.120306
C266	C	-0.241637	0.765862	0.095366
C267	C	-0.241817	0.759972	0.168119
C268	C	-0.218967	0.756252	0.191122
C269	C	-0.171160	0.754391	0.166313
C270	C	-0.146190	0.756247	0.342301
C271	C	-0.169036	0.759972	0.391880
C272	C	-0.216839	0.761838	0.416748
C273	C	-0.241613	0.765872	0.470503
C274	C	-0.241800	0.759983	0.392045
C275	C	-0.218956	0.756260	0.342468
C276	C	-0.171151	0.754393	0.317598
H277	H	-0.542875	0.319108	0.533928
H278	H	-0.633106	0.796935	0.928545
H279	H	-0.015572	0.239314	0.582902
Cl280	Cl	-0.256212	0.796130	0.916862
H281	H	-0.409132	0.796922	0.704551
H282	H	-0.808834	0.348242	0.857760
H283	H	-0.754767	0.015270	0.230044
H284	H	-0.015251	0.239236	0.230035
Cl285	Cl	-0.308122	0.472024	0.533120
Cl286	Cl	-0.762317	0.137639	0.422939
H287	H	-0.281037	0.148679	0.411977
H288	H	-0.797006	0.409718	0.704868
H289	H	-0.409735	0.277373	0.540666
H290	H	-0.280724	-0.074666	0.576134
Cl291	Cl	-0.809294	0.490479	0.847179
Cl292	Cl	-0.472361	0.308123	0.533102
Cl293	Cl	-0.749203	0.231796	0.269693
Cl294	Cl	-0.250283	0.086053	0.311030
H295	H	-0.239274	0.015273	0.582886
Cl296	Cl	-0.067959	0.749177	0.269672
H297	H	-0.632818	0.277385	0.927894
Cl298	Cl	-0.026591	0.753904	0.251534
Cl299	Cl	-0.490499	0.809253	0.847167
Cl300	Cl	-0.490495	0.326626	0.528370
Cl301	Cl	-0.026232	0.086399	0.583713
H302	H	-0.348201	0.808953	0.857793
Cl303	Cl	-0.250277	0.026546	0.251531
Cl304	Cl	-0.809213	0.490517	1.011020
Cl305	Cl	-0.137657	-0.085310	0.575339
H306	H	-0.210244	0.078570	0.588146
Cl307	Cl	-0.532221	0.804511	0.865629
H308	H	-0.754752	0.107244	0.322064
Cl309	Cl	-0.762344	-0.085682	0.199287
H310	H	-0.107277	0.754728	0.098298
H311	H	-0.409128	0.633091	0.540702
H312	H	-0.479886	0.479862	0.989442
H313	H	-0.796987	0.633101	1.059964
H314	H	-0.281018	-0.074400	0.188908
Cl315	Cl	-0.250335	0.753931	0.311414
Cl316	Cl	-0.472044	0.804495	0.805436
H317	H	0.074650	0.149313	0.576147
Cl318	Cl	-0.804589	0.472338	0.805819
Cl319	Cl	-0.067905	0.067905	0.105810
Cl320	Cl	-0.472032	0.532202	0.533108
Cl321	Cl	-0.301898	0.762333	0.423310
Cl322	Cl	-0.762339	0.301886	0.423315
H323	H	-0.803774	0.542854	0.886499
H324	H	-0.149272	-0.074707	0.056894
Cl325	Cl	-0.250321	0.086394	0.583692
H326	H	-0.107262	0.015561	0.582906
H327	H	-0.409744	0.277381	0.704824
Cl328	Cl	-0.753934	0.250319	0.311413
Cl329	Cl	-0.301883	0.138313	0.575280
Cl330	Cl	-0.086364	0.026180	0.087292
H331	H	-0.015525	0.107210	0.098293
Cl332	Cl	-0.086096	0.753891	0.311035
H333	H	-0.754757	0.015559	0.098301
H334	H	0.074350	0.761473	0.188902
H335	H	-0.148702	0.281043	0.576142
Cl336	Cl	-0.472384	0.531863	1.029508
Cl337	Cl	-0.644135	0.420113	1.081091
Cl338	Cl	0.085700	0.301857	0.199289
H339	H	-0.761502	-0.074370	0.056562
H340	H	-0.803557	0.319223	0.886765
H341	H	0.074405	0.148655	0.056562
Cl342	Cl	-0.472368	0.308128	0.805773
H343	H	-0.543170	0.450855	0.533962
Cl344	Cl	-0.308136	0.804521	0.865292
Cl345	Cl	-0.137654	0.762304	0.422931
H346	H	-0.754779	0.239262	0.230062
Cl347	Cl	-0.804451	0.472400	1.029514
Cl348	Cl	-0.326654	0.490493	0.847144
Cl349	Cl	-0.067954	0.231796	0.588459
Cl350	Cl	-0.644119	0.420108	0.541547
H351	H	-0.319190	0.543161	0.886778
Cl352	Cl	-0.490506	0.326636	0.847137
Cl353	Cl	-0.796277	0.643706	0.916917
Cl354	Cl	-0.086379	0.250289	0.311397
H355	H	-0.796839	0.277756	0.704529
H356	H	-0.210260	0.749474	0.259053
H357	H	-0.277388	0.632790	0.540677
H358	H	-0.542888	0.319116	0.886446
Cl359	Cl	-0.308136	0.804527	0.805792
H360	H	-0.149300	0.280692	0.412278
H361	H	-0.543183	0.450861	1.018469
Cl362	Cl	-0.749196	0.067939	0.269681
H363	H	-0.409767	0.632805	1.060260
Cl364	Cl	-0.308134	0.472035	0.805414
H365	H	-0.078552	0.210210	0.259039
Cl366	Cl	-0.804499	0.532234	1.029548
Cl367	Cl	-0.308136	0.531849	0.533102
H368	H	-0.796799	0.409814	1.060240
H369	H	-0.761530	0.280712	0.188327
Cl370	Cl	-0.256547	0.420097	0.541508
H371	H	0.074640	0.761490	0.056886
H372	H	-0.796739	0.277804	0.928484
Cl373	Cl	-0.804406	0.308155	0.805411
H374	H	-0.015299	0.754743	0.098344
Cl375	Cl	-0.490499	0.809248	1.011024
H376	H	-0.348198	0.479848	0.528666
H377	H	-0.277392	0.796944	0.704843
H378	H	0.074355	0.281047	0.576158
Cl379	Cl	-0.420110	0.796111	1.081114
H380	H	-0.078584	0.078575	0.588164
H381	H	-0.450861	0.803689	1.018492
Cl382	Cl	-0.749205	0.067941	0.105824
Cl383	Cl	-0.531863	0.804528	1.029533
Cl384	Cl	-0.137678	0.762293	0.035392
H385	H	-0.632805	0.796954	1.060286
Cl386	Cl	-0.301918	0.762316	0.199306
H387	H	-0.277744	0.633102	0.928518
H388	H	-0.239293	0.754731	0.230048
H389	H	-0.277734	0.409121	0.704529
Cl390	Cl	-0.067967	0.749177	0.105815
H391	H	-0.754755	0.107249	0.098306
Cl392	Cl	-0.490500	0.490487	0.528388
H393	H	-0.107259	0.239315	0.582901
Cl394	Cl	-0.762335	0.137644	0.035405
Cl395	Cl	-0.231773	0.067914	0.269666
Cl396	Cl	-0.643751	0.256207	0.541515
