data_functionalizedCrystal
_audit_creation_method	'MofGen! by Chris Wilmer'
_symmetry_space_group_name_H-M	'P1'
_symmetry_Int_Tables_number	1
_symmetry_cell_setting	triclinic
loop_
_symmetry_equiv_pos_as_xyz
  x,y,z
_cell_length_a	23.532407
_cell_length_b	16.992695
_cell_length_c	16.053934
_cell_angle_alpha	87.249907
_cell_angle_beta	87.445134
_cell_angle_gamma	93.241550
loop_
_atom_site_label
_atom_site_type_symbol
_atom_site_fract_x
_atom_site_fract_y
_atom_site_fract_z
O1	O	0.757738	-0.098461	0.069325
O2	O	0.592557	-0.112230	0.069349
O3	O	0.674486	0.008792	0.069331
O4	O	0.675810	-0.219483	0.069344
O5	O	0.678970	0.015430	-0.069527
O6	O	0.597042	-0.105592	-0.069508
O7	O	0.762223	-0.091823	-0.069532
Zn8	Zn	0.680344	-0.097653	-0.091567
Zn9	Zn	0.674436	-0.106400	0.091384
O10	O	0.680294	-0.212845	-0.069514
C11	C	0.573566	-0.108560	-0.000076
C12	C	0.510296	-0.107507	-0.000067
N13	N	0.684381	-0.091684	-0.216426
C14	C	0.675024	0.041311	-0.000098
C15	C	0.669941	0.128315	-0.000097
C16	C	0.114420	-0.172512	-0.000101
C17	C	0.054972	-0.171532	-0.000106
O18	O	0.021218	-0.231793	-0.000133
N19	N	0.028775	-0.099585	-0.000109
C20	C	0.062031	-0.028612	-0.000115
O21	O	0.034290	0.032674	-0.000119
C22	C	0.121479	-0.029592	-0.000116
C23	C	0.147672	-0.101544	-0.000105
C24	C	0.140613	-0.244458	-0.000091
C25	C	0.200058	-0.245437	-0.000084
C26	C	0.233309	-0.174470	-0.000088
C27	C	0.207116	-0.102524	-0.000098
C28	C	0.154734	0.041380	-0.000128
C29	C	0.214185	0.040394	-0.000129
C30	C	0.240378	-0.031558	-0.000118
C31	C	0.299812	-0.032536	-0.000095
N32	N	0.326008	-0.104483	-0.000092
C33	C	0.292757	-0.175450	-0.000088
C34	C	-0.062813	-0.026560	-0.000115
C35	C	-0.122260	-0.025579	-0.000108
C36	C	-0.129316	-0.168499	-0.000101
C37	C	-0.069868	-0.169479	-0.000102
C38	C	-0.036617	-0.098507	-0.000112
C39	C	0.417595	-0.177501	-0.000074
C40	C	0.477045	-0.178474	-0.000063
C41	C	0.484095	-0.035554	-0.000075
C42	C	0.424651	-0.034581	-0.000081
C43	C	0.391402	-0.105560	-0.000083
O44	O	0.333602	0.027693	-0.000071
O45	O	0.320506	-0.236726	-0.000096
C46	C	0.781214	-0.095493	-0.000105
C47	C	0.844483	-0.096547	-0.000109
C48	C	0.679756	-0.245364	-0.000083
C49	C	0.684839	-0.332368	-0.000079
C50	C	0.718988	0.178938	-0.000105
C51	C	0.714208	0.260687	-0.000096
C52	C	0.660381	0.291812	-0.000085
C53	C	0.611331	0.241182	-0.000075
C54	C	0.616111	0.159435	-0.000077
C55	C	0.640569	0.535254	-0.000071
C56	C	0.635792	0.617009	-0.000071
C57	C	0.738670	0.636508	-0.000091
C58	C	0.743445	0.554758	-0.000098
C59	C	0.694395	0.504135	-0.000083
N60	N	0.655494	0.375372	-0.000079
N61	N	0.699282	0.420576	-0.000084
C62	C	0.649512	-0.143160	-0.260132
C63	C	0.652352	-0.138981	-0.347538
C64	C	0.690058	-0.083321	-0.391235
C65	C	0.724931	-0.031842	-0.347523
C66	C	0.722093	-0.036026	-0.260119
C67	C	0.702439	-0.065068	-0.652641
C68	C	0.705272	-0.060887	-0.740051
C69	C	0.632694	-0.168027	-0.740060
C70	C	0.629857	-0.172202	-0.652654
C71	C	0.664732	-0.120726	-0.608949
N72	N	0.692961	-0.079046	-0.480578
N73	N	0.661832	-0.125006	-0.519608
N74	N	0.670404	-0.112363	0.216243
H75	H	0.498368	-0.237068	-0.000054
H76	H	0.567503	0.266530	-0.000061
H77	H	0.576172	0.118217	-0.000071
C78	C	0.766409	0.029386	-0.395586
C79	C	0.830906	0.027946	-0.383556
C80	C	0.872384	0.089178	-0.431616
C81	C	0.849365	0.151849	-0.491705
C82	C	0.784865	0.153291	-0.503738
C83	C	0.743387	0.092059	-0.455678
H84	H	0.847949	-0.018449	-0.339072
H85	H	0.920131	0.088110	-0.422708
H86	H	0.880069	0.197176	-0.527282
H87	H	0.767822	0.199686	-0.548222
H88	H	0.695640	0.093127	-0.464586
H89	H	0.600628	0.494047	-0.000059
H90	H	0.618805	-0.188481	-0.224559
H91	H	0.762819	0.153603	-0.000119
C92	C	0.760449	0.020601	-0.212039
C93	C	0.801924	0.081827	-0.260102
C94	C	0.840283	0.138453	-0.212023
C95	C	0.837166	0.133852	-0.115882
C96	C	0.795690	0.072623	-0.067814
C97	C	0.757331	0.015997	-0.115892
H98	H	0.804232	0.085235	-0.331276
H99	H	0.870987	0.183778	-0.247607
H100	H	0.865562	0.175769	-0.080292
H101	H	0.793381	0.069215	0.003360
H102	H	0.726627	-0.029328	-0.080309
H103	H	0.591958	0.642347	-0.000076
C104	C	0.588383	-0.233430	-0.604584
C105	C	0.550045	-0.290085	-0.652652
C106	C	0.508570	-0.351311	-0.604578
C107	C	0.505432	-0.355881	-0.508437
C108	C	0.543771	-0.299224	-0.460364
C109	C	0.585247	-0.237999	-0.508437
H110	H	0.552367	-0.286704	-0.723826
H111	H	0.480188	-0.393252	-0.640166
H112	H	0.474729	-0.401204	-0.472851
H113	H	0.541450	-0.302606	-0.389190
H114	H	0.613628	-0.196057	-0.472850
H115	H	-0.035744	0.031238	-0.000116
H116	H	0.390530	-0.235299	-0.000078
H117	H	0.604301	-0.209936	-0.775652
C118	C	0.228861	-0.324589	-0.000087
C119	C	0.220098	-0.379946	-0.072196
C120	C	0.248895	-0.459103	-0.072205
C121	C	0.286456	-0.482903	-0.000103
C122	C	0.295221	-0.427544	0.072012
C123	C	0.266424	-0.348387	0.072020
H124	H	0.192291	-0.362330	-0.125575
H125	H	0.242406	-0.500083	-0.125589
H126	H	0.307773	-0.541500	-0.000109
H127	H	0.323028	-0.445161	0.125391
H128	H	0.272913	-0.307407	0.125405
H129	H	0.778604	0.677733	-0.000101
H130	H	0.735979	-0.015559	-0.775626
C131	C	0.104043	-0.322531	-0.000083
C132	C	0.106984	-0.385057	0.072031
C133	C	0.070419	-0.463137	0.072046
C134	C	0.030913	-0.478691	-0.000053
C135	C	0.027971	-0.416164	-0.072173
C136	C	0.064536	-0.338084	-0.072188
H137	H	0.136230	-0.373544	0.125408
H138	H	0.072597	-0.509424	0.125435
H139	H	0.003846	-0.536491	-0.000042
H140	H	-0.001275	-0.427676	-0.125550
H141	H	0.062358	-0.291797	-0.125576
H142	H	-0.048546	-0.228069	-0.000097
H143	H	-0.156400	-0.226285	-0.000102
H144	H	-0.143581	0.033011	-0.000104
H145	H	0.133418	0.099971	-0.000138
H146	H	0.241256	0.098190	-0.000138
H147	H	0.403323	0.024008	-0.000078
H148	H	0.511179	0.022225	-0.000075
H149	H	0.754147	0.301902	-0.000105
C150	C	0.802656	0.520522	-0.000094
C151	C	0.856607	0.576206	-0.000091
C152	C	0.915818	0.541970	-0.000085
C153	C	0.921077	0.452051	-0.000082
C154	C	0.867123	0.396362	-0.000085
C155	C	0.807913	0.430598	-0.000091
H156	H	0.852716	0.642774	-0.000093
H157	H	0.955758	0.583195	-0.000082
H158	H	0.964908	0.426707	-0.000077
H159	H	0.871015	0.329793	-0.000082
H160	H	0.767973	0.389372	-0.000093
H161	H	0.623960	-0.180897	-0.383123
H162	H	0.730834	-0.023153	-0.617063
