data_functionalizedCrystal
_audit_creation_method	'MofGen! by Chris Wilmer'
_symmetry_space_group_name_H-M	'P1'
_symmetry_Int_Tables_number	1
_symmetry_cell_setting	triclinic
loop_
_symmetry_equiv_pos_as_xyz
  x,y,z
_cell_length_a	14.971491
_cell_length_b	10.723024
_cell_length_c	14.048226
_cell_angle_alpha	90.005928
_cell_angle_beta	90.003182
_cell_angle_gamma	84.042052
loop_
_atom_site_label
_atom_site_type_symbol
_atom_site_fract_x
_atom_site_fract_y
_atom_site_fract_z
O1	O	1.187811	0.162649	0.079199
O2	O	0.927516	0.182116	0.079192
O3	O	1.063667	-0.009256	0.079192
O4	O	1.051659	0.354022	0.079199
O5	O	1.063664	-0.009272	-0.079129
O6	O	0.927513	0.182100	-0.079130
O7	O	1.187808	0.162634	-0.079122
Zn8	Zn	1.057660	0.172364	-0.104263
Zn9	Zn	1.057664	0.172385	0.104332
O10	O	1.051656	0.354006	-0.079123
C11	C	0.894185	0.181237	0.000030
C12	C	0.794874	0.178624	0.000027
C13	C	0.367110	0.167360	0.086350
C14	C	0.460423	0.169811	0.086346
C15	C	0.507074	0.171036	0.000042
C16	C	0.460407	0.169797	-0.086264
C17	C	0.367096	0.167338	-0.086260
C18	C	0.654897	0.174927	-0.086268
C19	C	0.748214	0.177389	-0.086272
C20	C	0.748223	0.177401	0.086339
C21	C	0.654912	0.174941	0.086343
C22	C	0.608252	0.173705	0.000036
C23	C	1.062792	-0.055754	0.000032
C24	C	1.060177	-0.194281	0.000036
C25	C	1.136361	-0.270058	0.000039
C26	C	1.133660	-0.413233	0.000043
C27	C	1.221138	0.163513	0.000041
C28	C	1.320449	0.166126	0.000050
C29	C	1.052531	0.400504	0.000039
C30	C	1.055146	0.539031	0.000042
N31	N	1.057667	0.172390	0.246693
N32	N	1.057664	0.172350	-0.246624
C33	C	1.118069	0.087818	0.296511
C34	C	1.118073	0.087814	0.396169
C35	C	1.057669	0.172377	0.446006
C36	C	0.997264	0.256959	0.396181
C37	C	0.997265	0.256968	0.296525
C38	C	0.997264	0.256932	0.603895
C39	C	0.997261	0.256922	0.703558
C40	C	1.118071	0.087778	0.703539
C41	C	1.118073	0.087787	0.603883
C42	C	1.057666	0.172367	0.554065
H43	H	0.498410	0.170809	0.156620
H44	H	0.616931	0.173952	0.156620
H45	H	0.992955	-0.235403	0.000040
Cl46	Cl	0.921331	0.363298	0.233898
Cl47	Cl	0.806880	0.178970	0.194838
Cl48	Cl	0.806860	0.178919	-0.194771
Cl49	Cl	0.921324	0.363239	0.766204
Cl50	Cl	1.194006	-0.018504	0.233869
H51	H	0.989924	-0.395864	0.000033
H52	H	0.948078	0.325811	0.563337
H53	H	0.616908	0.173936	-0.156548
Cl54	Cl	0.308471	0.165829	0.194854
H55	H	1.167257	0.018949	0.436730
H56	H	0.948085	0.325819	0.436765
Cl57	Cl	1.194003	-0.018529	0.541228
H58	H	1.203583	-0.228937	0.000035
H59	H	0.498399	0.170787	-0.156535
H60	H	0.329106	0.166345	-0.156534
Cl61	Cl	1.234359	-0.513756	0.000040
Cl62	Cl	1.194008	-0.018552	0.766171
