data_functionalizedCrystal
_audit_creation_method	'MofGen! by Chris Wilmer'
_symmetry_space_group_name_H-M	'P1'
_symmetry_Int_Tables_number	1
_symmetry_cell_setting	triclinic
loop_
_symmetry_equiv_pos_as_xyz
  x,y,z
_cell_length_a	11.026607
_cell_length_b	15.944499
_cell_length_c	9.482900
_cell_angle_alpha	99.336388
_cell_angle_beta	78.636152
_cell_angle_gamma	96.031813
loop_
_atom_site_label
_atom_site_type_symbol
_atom_site_fract_x
_atom_site_fract_y
_atom_site_fract_z
O1	O	1.629009	0.341445	-0.120871
O2	O	1.275712	0.301392	-0.120876
O3	O	1.462041	0.200604	-0.120876
O4	O	1.442680	0.442233	-0.120871
O5	O	1.424194	0.221181	0.120917
O6	O	1.237864	0.321970	0.120917
O7	O	1.591162	0.362022	0.120921
Cu8	Cu	1.411057	0.343875	0.142997
Cu9	Cu	1.455816	0.319540	-0.142951
O10	O	1.404832	0.462811	0.120921
C11	C	1.211578	0.304292	0.000020
C12	C	1.076869	0.282265	0.000017
C13	C	1.442325	0.179478	0.000017
C14	C	1.439951	0.085869	0.000006
C15	C	1.003052	0.343084	0.000018
C16	C	0.863822	0.320320	0.000015
C17	C	1.548202	-0.189301	0.000015
C18	C	1.473268	-0.126637	0.119236
C19	C	1.431314	-0.251071	0.000023
C20	C	1.510551	-0.146935	-0.119152
C21	C	1.435564	-0.085521	0.000012
C22	C	1.356332	-0.189631	0.119342
C23	C	1.393649	-0.209943	-0.119154
C24	C	1.318625	-0.147306	0.000096
C25	C	1.428869	-0.346440	0.000030
C26	C	1.437999	0.009846	0.000015
C27	C	1.655295	0.359122	0.000023
C28	C	1.790006	0.381148	0.000015
C29	C	1.424548	0.483936	0.000026
C30	C	1.426925	0.577544	0.000027
N31	N	1.379584	0.360992	0.344117
N32	N	1.487298	0.302417	-0.344071
C33	C	1.446525	0.324583	0.416316
C34	C	1.420348	0.338832	0.583733
H35	H	1.042929	0.412007	0.000027
H36	H	1.302890	0.402709	0.406247
Cl37	Cl	1.301930	0.403245	0.679642
Cl38	Cl	1.605970	0.238217	0.560025
Cl39	Cl	1.015309	0.175852	0.000026
Cl40	Cl	1.168712	-0.118732	0.000186
H41	H	1.506931	-0.090494	0.220027
Cl42	Cl	0.802268	0.213903	0.000023
H43	H	0.829876	0.450076	0.000026
H44	H	1.645188	-0.207957	0.000131
H45	H	1.291140	-0.208493	0.220239
H46	H	1.360028	-0.246101	-0.219949
H47	H	1.523211	0.282858	0.354188
Cl48	Cl	1.611265	-0.117630	-0.274752
