data_functionalizedCrystal
_audit_creation_method	'MofGen! by Chris Wilmer'
_symmetry_space_group_name_H-M	'P1'
_symmetry_Int_Tables_number	1
_symmetry_cell_setting	triclinic
loop_
_symmetry_equiv_pos_as_xyz
  x,y,z
_cell_length_a	13.033293
_cell_length_b	21.295418
_cell_length_c	13.032268
_cell_angle_alpha	97.142714
_cell_angle_beta	89.079182
_cell_angle_gamma	97.196479
loop_
_atom_site_label
_atom_site_type_symbol
_atom_site_fract_x
_atom_site_fract_y
_atom_site_fract_z
Zn1	Zn	1.498411	-0.195846	-0.781450
Zn2	Zn	1.998411	0.304154	-0.281450
Zn3	Zn	1.520130	-0.286309	-0.609462
Zn4	Zn	2.020130	0.213691	-0.109462
Zn5	Zn	1.348272	-0.192522	-0.587626
Zn6	Zn	1.848272	0.307478	-0.087626
Zn7	Zn	1.326374	-0.312551	-0.759498
Zn8	Zn	1.826374	0.187449	-0.259498
O9	O	1.423297	-0.246807	-0.684509
O10	O	1.923297	0.253193	-0.184509
O11	O	1.645213	-0.198255	-0.776961
O12	O	2.145213	0.301745	-0.276961
O13	O	1.515586	-0.261494	-0.462659
O14	O	2.015586	0.238506	0.037341
O15	O	1.368263	-0.104871	-0.613386
O16	O	1.868263	0.395129	-0.113386
O17	O	1.661170	-0.264718	-0.650602
O18	O	2.161170	0.235282	-0.150602
O19	O	1.478569	-0.107314	-0.755788
O20	O	1.978569	0.392686	-0.255788
O21	O	1.389323	-0.192589	-0.446617
O22	O	1.889323	0.307411	0.053383
O23	O	1.201446	-0.218035	-0.592100
O24	O	1.701446	0.281965	-0.092100
O25	O	1.330941	-0.309443	-0.906316
O26	O	1.830941	0.190557	-0.406316
O27	O	1.185357	-0.306220	-0.718373
O28	O	1.685357	0.193780	-0.218373
O29	O	1.457336	-0.223701	-0.922445
O30	O	1.957336	0.276299	-0.422445
O31	O	1.494353	-0.377881	-0.629316
O32	O	1.994353	0.122119	-0.129316
O33	O	1.352001	-0.397161	-0.739547
O34	O	1.852001	0.102839	-0.239547
C35	C	1.156084	-0.264615	-0.650486
C36	C	1.656084	0.235385	-0.150486
C37	C	1.041767	-0.272250	-0.635955
C38	C	1.541767	0.227750	-0.135955
C39	C	0.982893	-0.242838	-0.692093
C40	C	1.482893	0.257162	-0.192093
C41	C	0.864739	-0.250729	-0.677076
C42	C	1.364739	0.249271	-0.177076
C43	C	1.423182	-0.410362	-0.684445
C44	C	1.923182	0.089638	-0.184445
C45	C	1.423223	-0.480329	-0.684464
C46	C	1.923223	0.019671	-0.184464
C47	C	1.497645	-0.969722	-0.627309
C48	C	1.997645	-0.469722	-0.127309
C49	C	1.497609	-0.903980	-0.627280
C50	C	1.997609	-0.403980	-0.127280
C51	C	1.423432	-0.881162	-0.684600
C52	C	1.923432	-0.381162	-0.184600
C53	C	1.349270	-0.924092	-0.741932
C54	C	1.849270	-0.424092	-0.241932
C55	C	1.349302	-0.989833	-0.741951
C56	C	1.849302	-0.489833	-0.241951
N57	N	1.404001	-0.786196	-0.773566
N58	N	1.904001	-0.286196	-0.273566
N59	N	1.403978	-0.723745	-0.773545
N60	N	1.903978	-0.223745	-0.273545
C61	C	1.423331	-0.683091	-0.684543
C62	C	1.923331	-0.183091	-0.184543
N63	N	1.442729	-0.707247	-0.595563
N64	N	1.942729	-0.207247	-0.095563
N65	N	1.442758	-0.769703	-0.595585
N66	N	1.942758	-0.269703	-0.095585
C67	C	1.423389	-0.809879	-0.684585
C68	C	1.923389	-0.309879	-0.184585
C69	C	1.497445	-0.568885	-0.627177
C70	C	1.997445	-0.068885	-0.127177
C71	C	1.497402	-0.503142	-0.627145
C72	C	1.997402	-0.003142	-0.127145
C73	C	1.349067	-0.523256	-0.741806
C74	C	1.849067	-0.023256	-0.241806
C75	C	1.349106	-0.588997	-0.741829
C76	C	1.849106	-0.088997	-0.241829
C77	C	1.423300	-0.611807	-0.684516
C78	C	1.923300	-0.111807	-0.184516
C79	C	1.691552	-0.228930	-0.718666
C80	C	2.191552	0.271070	-0.218666
C81	C	1.805867	-0.221312	-0.733222
C82	C	2.305867	0.278688	-0.233222
C83	C	1.389273	-0.269870	-0.952737
C84	C	1.889273	0.230130	-0.452737
C85	C	1.374774	-0.279698	-1.067040
C86	C	1.874774	0.220302	-0.567040
C87	C	1.423436	-0.082613	-0.684600
C88	C	1.923436	0.417387	-0.184600
C89	C	1.423496	-0.012643	-0.684639
C90	C	1.923496	0.487357	-0.184639
C91	C	1.430848	-0.241656	-1.125980
C92	C	1.930848	0.258344	-0.625980
C93	C	1.415864	-0.251813	-1.244118
C94	C	1.915864	0.248187	-0.744118
C95	C	1.457247	-0.223784	-0.417332
C96	C	1.957247	0.276216	0.082668
C97	C	1.471945	-0.213766	-0.303056
C98	C	1.971945	0.286234	0.196944
H99	H	0.827676	-0.281752	-0.617890
H100	H	1.327676	0.218248	-0.117890
H101	H	1.288872	-0.905511	-0.788600
H102	H	1.788872	-0.405511	-0.288600
Cl103	Cl	0.863081	-0.173405	-0.824590
Cl104	Cl	1.363081	0.326595	-0.324590
H105	H	1.531044	-0.173671	-1.266060
H106	H	2.031044	0.326329	-0.766060
H107	H	1.489944	-0.201566	-1.088978
H108	H	1.989944	0.298434	-0.588978
H109	H	1.004699	-0.303272	-0.576773
H110	H	1.504699	0.196728	-0.076773
H111	H	1.356753	-0.291900	-1.281113
H112	H	1.856753	0.208100	-0.781113
Cl113	Cl	1.283520	-0.341591	-1.124156
Cl114	Cl	1.783520	0.158409	-0.624156
H115	H	1.558057	-0.988290	-0.580637
H116	H	2.058057	-0.488290	-0.080637
Cl117	Cl	1.040114	-0.194937	-0.783462
Cl118	Cl	1.540114	0.305063	-0.283462
Cl119	Cl	1.256080	-1.043793	-0.814032
Cl120	Cl	1.756080	-0.543793	-0.314032
Cl121	Cl	1.590828	-0.850013	-0.555198
Cl122	Cl	2.090828	-0.350013	-0.055198
Cl123	Cl	1.590709	-0.597564	-0.555121
Cl124	Cl	2.090709	-0.097564	-0.055121
H125	H	1.557780	-0.468194	-0.580454
H126	H	2.057780	0.031806	-0.080454
H127	H	1.288667	-0.504678	-0.788472
H128	H	1.788667	-0.004678	-0.288472
H129	H	1.288728	-0.623944	-0.788516
H130	H	1.788728	-0.123944	-0.288516
