data_functionalizedCrystal
_audit_creation_method	'MofGen! by Chris Wilmer'
_symmetry_space_group_name_H-M	'P1'
_symmetry_Int_Tables_number	1
_symmetry_cell_setting	triclinic
loop_
_symmetry_equiv_pos_as_xyz
  x,y,z
_cell_length_a	10.723023
_cell_length_b	10.723024
_cell_length_c	18.366186
_cell_angle_alpha	89.994974
_cell_angle_beta	89.991431
_cell_angle_gamma	84.467709
loop_
_atom_site_label
_atom_site_type_symbol
_atom_site_fract_x
_atom_site_fract_y
_atom_site_fract_z
O1	O	1.657197	0.175024	-0.060540
O2	O	1.294045	0.191779	-0.060543
O3	O	1.483998	0.001825	-0.060539
O4	O	1.467244	0.364978	-0.060544
O5	O	1.483965	0.001816	0.060560
O6	O	1.294012	0.191769	0.060556
O7	O	1.657164	0.175015	0.060559
Zn8	Zn	1.475583	0.183390	0.079785
Zn9	Zn	1.475626	0.183403	-0.079769
O10	O	1.467212	0.364968	0.060555
C11	C	1.247529	0.190555	0.000006
C12	C	1.108974	0.186908	0.000005
C13	C	1.482762	-0.044679	0.000010
C14	C	1.479114	-0.183233	0.000007
C15	C	1.047185	0.185276	0.062738
C16	C	0.903982	0.181507	0.062738
C17	C	1.585402	-0.258216	0.000007
C18	C	1.581634	-0.401420	0.000004
C19	C	1.703680	0.176239	0.000008
C20	C	1.842235	0.179886	0.000005
C21	C	1.468447	0.411473	0.000005
C22	C	1.472095	0.550027	0.000002
N23	N	1.475563	0.183381	0.188676
N24	N	1.475656	0.183403	-0.188660
C25	C	1.559702	0.099311	0.226778
C26	C	1.559710	0.099306	0.303006
C27	C	1.475591	0.183391	0.341129
C28	C	1.391435	0.267467	0.303017
C29	C	1.391421	0.267462	0.226791
C30	C	1.460214	0.296904	0.461887
C31	C	1.460236	0.296911	0.538112
C32	C	1.475626	0.183407	0.576236
C33	C	1.491020	0.069892	0.538126
C34	C	1.491006	0.069887	0.461900
C35	C	1.475596	0.183406	0.423783
C36	C	1.559779	0.099325	0.696993
C37	C	1.559778	0.099318	0.773223
C38	C	1.391509	0.267490	0.773232
C39	C	1.391504	0.267486	0.697005
C40	C	1.475645	0.183405	0.658890
H41	H	1.100304	0.186664	0.116445
H42	H	1.679188	-0.216394	0.000012
H43	H	1.628212	0.030845	0.195747
H44	H	0.850844	0.180111	0.116446
H45	H	1.672625	-0.465852	0.000008
Cl46	Cl	0.924258	0.182061	-0.082923
Cl47	Cl	1.331599	-0.350508	0.000008
Cl48	Cl	1.285750	0.373188	0.821153
Cl49	Cl	1.334308	-0.247792	-0.000001
Cl50	Cl	1.510378	-0.072809	0.586044
Cl51	Cl	1.440894	0.439614	0.586014
H52	H	1.628228	0.030844	0.334035
Cl53	Cl	1.285730	0.373185	0.649100
Cl54	Cl	1.510343	-0.072811	0.413992
H55	H	1.628288	0.030857	0.665959
Cl56	Cl	1.665554	-0.006385	0.821126
H57	H	1.447660	0.389339	0.430853
Cl58	Cl	1.026977	0.184745	-0.082920
Cl59	Cl	1.285679	0.373170	0.350941
H60	H	1.322903	0.335922	0.195767
