data_functionalizedCrystal
_audit_creation_method	'MofGen! by Chris Wilmer'
_symmetry_space_group_name_H-M	'P1'
_symmetry_Int_Tables_number	1
_symmetry_cell_setting	triclinic
loop_
_symmetry_equiv_pos_as_xyz
  x,y,z
_cell_length_a	14.519709
_cell_length_b	10.723024
_cell_length_c	9.198806
_cell_angle_alpha	90.002012
_cell_angle_beta	90.001670
_cell_angle_gamma	95.925993
loop_
_atom_site_label
_atom_site_type_symbol
_atom_site_fract_x
_atom_site_fract_y
_atom_site_fract_z
O1	O	1.224702	-0.163572	-0.120699
O2	O	1.724702	0.336428	0.379301
O3	O	0.956324	-0.182835	-0.120743
O4	O	1.456324	0.317165	0.379257
O5	O	1.096704	0.008431	-0.120715
O6	O	1.596704	0.508431	0.379285
O7	O	1.084323	-0.354837	-0.120728
O8	O	1.584323	0.145163	0.379272
O9	O	1.096693	0.008431	0.121070
O10	O	1.596693	0.508431	0.621070
O11	O	0.956313	-0.182834	0.121042
O12	O	1.456313	0.317166	0.621042
O13	O	1.224691	-0.163571	0.121086
O14	O	1.724691	0.336429	0.621086
Cu15	Cu	1.090501	-0.173203	0.143141
Cu16	Cu	1.590501	0.326797	0.643141
Cu17	Cu	1.090514	-0.173203	-0.142798
Cu18	Cu	1.590514	0.326797	0.357202
O19	O	1.084311	-0.354837	0.121057
O20	O	1.584311	0.145163	0.621057
C21	C	0.921954	-0.181937	0.000144
C22	C	1.421954	0.318063	0.500144
C23	C	0.819559	-0.179246	0.000127
C24	C	1.319559	0.320754	0.500127
C25	C	1.095797	0.054922	0.000176
C26	C	1.595797	0.554922	0.500176
C27	C	1.093101	0.193451	0.000170
C28	C	1.593101	0.693451	0.500170
N29	N	1.090498	-0.173201	0.344255
N30	N	1.590498	0.326799	0.844255
C31	C	0.444613	-0.169343	0.000193
C32	C	0.944613	0.330657	0.500193
C33	C	0.548935	-0.172093	0.000174
C34	C	1.048935	0.327907	0.500174
C35	C	0.632082	-0.174294	0.000159
C36	C	1.132082	0.325706	0.500159
C37	C	0.736411	-0.177045	0.000143
C38	C	1.236411	0.322955	0.500143
C39	C	1.259061	-0.164469	0.000196
C40	C	1.759061	0.335531	0.500196
C41	C	1.361456	-0.167159	0.000203
C42	C	1.861456	0.332841	0.500203
C43	C	1.085218	-0.401328	0.000164
C44	C	1.585218	0.098672	0.500164
C45	C	1.087914	-0.539857	0.000160
C46	C	1.587914	-0.039857	0.500160
C47	C	1.171651	0.269169	0.000181
C48	C	1.671651	0.769169	0.500181
C49	C	1.168866	0.412346	0.000175
C50	C	1.668866	0.912346	0.500175
N51	N	1.090524	-0.173194	-0.343912
N52	N	1.590524	0.326806	0.156088
C53	C	1.149440	-0.092543	0.416464
C54	C	1.649440	0.407457	0.916464
C55	C	1.149454	-0.092538	0.583876
C56	C	1.649454	0.407462	1.083876
H57	H	1.240961	0.227995	0.000201
H58	H	1.740961	0.727995	0.500201
O59	O	1.010331	0.242352	0.000088
O60	O	1.510331	0.742352	0.500088
C61	C	0.937837	0.144151	0.000118
C62	C	1.437837	0.644151	0.500118
H63	H	0.964158	0.055611	-0.045646
H64	H	1.464158	0.555611	0.454354
H65	H	0.878449	0.171590	-0.070091
H66	H	1.378449	0.671590	0.429909
H67	H	0.912282	0.125844	0.116112
H68	H	1.412282	0.625844	0.616112
H69	H	1.020666	0.395089	0.000160
H70	H	1.520666	0.895089	0.500160
H71	H	1.199889	-0.023486	0.354348
H72	H	1.699889	0.476514	0.854348
H73	H	1.199920	-0.023488	0.645972
H74	H	1.699920	0.476512	1.145972
O75	O	1.030445	-0.255638	0.581869
O76	O	1.530445	0.244362	1.081869
C77	C	1.080537	-0.332513	0.493847
C78	C	1.580537	0.167487	0.993847
H79	H	1.152317	-0.282755	0.471182
H80	H	1.652317	0.217245	0.971182
H81	H	1.042256	-0.352195	0.386759
H82	H	1.542256	0.147805	0.886759
H83	H	1.087545	-0.424750	0.552418
H84	H	1.587545	0.075250	1.052418
O85	O	1.030178	-0.255459	0.418285
O86	O	1.530178	0.244541	0.918285
C87	C	0.938668	-0.235302	0.381183
C88	C	1.438668	0.264698	0.881183
H89	H	0.937354	-0.135463	0.339244
H90	H	1.437354	0.364537	0.839244
H91	H	0.892560	-0.249598	0.481354
H92	H	1.392560	0.250402	0.981354
H93	H	0.912091	-0.304545	0.292952
H94	H	1.412091	0.195455	0.792952
O95	O	1.249006	0.490132	0.000120
O96	O	1.749006	0.990132	0.500120
C97	C	1.228386	0.615769	0.000151
C98	C	1.728386	1.115769	0.500151
H99	H	1.155903	0.620797	-0.045633
H100	H	1.655903	1.120797	0.454367
H101	H	1.280973	0.674696	-0.070041
H102	H	1.780973	1.174696	0.429959
H103	H	1.231607	0.653408	0.116147
H104	H	1.731607	1.153408	0.616147
