data_functionalizedCrystal
_audit_creation_method	'MofGen! by Chris Wilmer'
_symmetry_space_group_name_H-M	'P1'
_symmetry_Int_Tables_number	1
_symmetry_cell_setting	triclinic
loop_
_symmetry_equiv_pos_as_xyz
  x,y,z
_cell_length_a	8.559649
_cell_length_b	26.210047
_cell_length_c	8.634740
_cell_angle_alpha	89.991872
_cell_angle_beta	85.174486
_cell_angle_gamma	90.007600
loop_
_atom_site_label
_atom_site_type_symbol
_atom_site_fract_x
_atom_site_fract_y
_atom_site_fract_z
O1	O	2.112228	0.042421	-0.051399
O2	O	1.659065	0.042423	0.026812
O3	O	1.864195	0.042422	-0.234229
O4	O	1.907098	0.042422	0.209642
O5	O	1.864154	-0.042436	-0.234188
O6	O	1.659024	-0.042435	0.026853
O7	O	2.112187	-0.042437	-0.051357
Cu8	Cu	1.885602	-0.050184	-0.012248
Cu9	Cu	1.885650	0.050170	-0.012298
O10	O	1.907057	-0.042436	0.209684
C11	C	1.600427	-0.000006	0.032760
C12	C	1.425763	-0.000005	0.050402
N13	N	1.885579	-0.120768	-0.012216
C14	C	1.976475	-0.473283	-0.127862
C15	C	1.976506	-0.686941	-0.127887
O16	O	2.053729	-0.714564	-0.226200
N17	N	1.885653	-0.713662	-0.012332
C18	C	1.794779	-0.686965	0.103232
O19	O	1.717491	-0.714595	0.201509
C20	C	1.794740	-0.473307	0.103250
C21	C	1.885611	-0.446589	-0.012304
C22	C	2.067337	-0.446565	-0.243407
C23	C	2.067334	-0.393153	-0.243395
C24	C	1.976470	-0.366460	-0.127837
C25	C	1.885608	-0.393178	-0.012292
C26	C	1.703858	-0.446611	0.218806
C27	C	1.703853	-0.393193	0.218798
C28	C	1.794724	-0.366475	0.103244
C29	C	1.794742	-0.313073	0.103278
N30	N	1.885595	-0.286352	-0.012277
C31	C	1.976459	-0.313046	-0.127835
C32	C	1.794808	-0.799138	0.103217
C33	C	1.794819	-0.852552	0.103214
C34	C	1.976545	-0.852525	-0.127907
C35	C	1.976541	-0.799110	-0.127897
C36	C	1.885660	-0.772418	-0.012339
C37	C	1.976448	-0.200878	-0.127800
C38	C	1.976443	-0.147462	-0.127773
C39	C	1.794712	-0.147493	0.103342
C40	C	1.794723	-0.200905	0.103322
C41	C	1.885595	-0.227596	-0.012263
O42	O	1.717546	-0.285418	0.201529
O43	O	2.053708	-0.285406	-0.226117
C44	C	1.976477	-0.526694	-0.127874
C45	C	1.885615	-0.553412	-0.012329
C46	C	1.794751	-0.526719	0.103229
C47	C	1.885626	-0.606826	-0.012331
C48	C	1.976491	-0.633520	-0.127889
C49	C	2.067343	-0.606799	-0.243444
C50	C	2.067341	-0.553388	-0.243432
C51	C	1.703898	-0.553439	0.218784
C52	C	1.703909	-0.606851	0.218763
C53	C	1.794773	-0.633544	0.103206
C54	C	2.170825	-0.000007	-0.057305
C55	C	2.345489	-0.000005	-0.074948
C56	C	1.854456	-0.000006	-0.290508
C57	C	1.825478	-0.000004	-0.458259
N58	N	1.885684	0.120754	-0.012343
C59	C	1.916796	-0.000006	0.265962
C60	C	1.945774	-0.000006	0.433714
H61	H	1.410386	-0.000002	-0.195763
H62	H	1.360858	-0.000002	0.171225
H63	H	1.700317	-0.000002	0.505893
H64	H	2.141336	-0.531638	-0.337527
H65	H	2.050446	-0.125710	-0.221872
H66	H	2.050443	-0.222604	-0.221921
H67	H	2.141324	-0.371403	-0.337492
H68	H	2.141328	-0.468294	-0.337515
H69	H	1.629862	-0.468357	0.312899
H70	H	2.050534	-0.777359	-0.221991
H71	H	2.070943	0.000014	0.469567
H72	H	1.720843	-0.874302	0.197323
H73	H	2.050533	-0.874268	-0.221997
H74	H	1.720800	-0.777409	0.197322
H75	H	1.720745	-0.222659	0.197429
H76	H	1.629842	-0.371463	0.312898
H77	H	1.720736	-0.125751	0.197432
H78	H	2.141335	-0.628542	-0.337532
H79	H	1.629916	-0.628601	0.312874
H80	H	1.629903	-0.531710	0.312884
