data_functionalizedCrystal
_audit_creation_method	'MofGen! by Chris Wilmer'
_symmetry_space_group_name_H-M	'P1'
_symmetry_Int_Tables_number	1
_symmetry_cell_setting	triclinic
loop_
_symmetry_equiv_pos_as_xyz
  x,y,z
_cell_length_a	18.101395
_cell_length_b	12.759401
_cell_length_c	12.759393
_cell_angle_alpha	89.980875
_cell_angle_beta	89.966555
_cell_angle_gamma	90.030748
loop_
_atom_site_label
_atom_site_type_symbol
_atom_site_fract_x
_atom_site_fract_y
_atom_site_fract_z
Zn1	Zn	-0.294793	1.606136	-0.593985
Zn2	Zn	-0.418655	1.605980	-0.418300
Zn3	Zn	-0.294831	1.430438	-0.418323
Zn4	Zn	-0.418596	1.430376	-0.593939
O5	O	-0.356719	1.518232	-0.506137
O6	O	-0.311232	1.753136	-0.570690
O7	O	-0.402269	1.582654	-0.271281
O8	O	-0.191193	1.453835	-0.441654
O9	O	-0.402233	1.753021	-0.441614
O10	O	-0.191165	1.582920	-0.570712
O11	O	-0.311296	1.453684	-0.271298
O12	O	-0.311240	1.283408	-0.441609
O13	O	-0.402134	1.453730	-0.740966
O14	O	-0.402170	1.283363	-0.570634
O15	O	-0.311176	1.582860	-0.741000
O16	O	-0.522280	1.582594	-0.441570
O17	O	-0.522237	1.453579	-0.570611
C18	C	-0.356703	1.245265	-0.506119
C19	C	-0.356715	1.128488	-0.506137
C20	C	-0.309321	0.963894	-0.439082
C21	C	-0.309305	1.073618	-0.439072
C22	C	-0.404137	1.073629	-0.573224
C23	C	-0.404148	0.963906	-0.573239
C24	C	-0.261914	0.909030	-0.372006
C25	C	-0.214490	0.963882	-0.304920
C26	C	-0.214475	1.073606	-0.304909
C27	C	-0.261883	1.128478	-0.371985
C28	C	-0.549129	1.518092	-0.506106
C29	C	-0.631443	1.518128	-0.506128
C30	C	-0.930534	1.518358	-0.506184
C31	C	-0.899213	1.437374	-0.587575
C32	C	-0.813595	1.436989	-0.587321
C33	C	-0.782152	1.518244	-0.506157
C34	C	-0.813311	1.488263	-0.395432
C35	C	-0.898956	1.487741	-0.395919
C36	C	-0.898876	1.629501	-0.534544
C37	C	-0.813225	1.628847	-0.536972
C38	C	-0.698292	1.518181	-0.506135
C39	C	-1.014394	1.518418	-0.506199
C40	C	-0.163557	1.518402	-0.506191
C41	C	-0.081243	1.518474	-0.506214
C42	C	-0.356644	1.518306	-0.780170
C43	C	-0.356612	1.518337	-0.896947
C44	C	-0.356735	1.792265	-0.506155
C45	C	-0.356741	1.909042	-0.506162
C46	C	-0.309246	1.585584	-0.951828
C47	C	-0.309219	1.585609	-1.061552
C48	C	-0.403931	1.451137	-1.061504
C49	C	-0.403954	1.451108	-0.951782
C50	C	-0.261904	1.652814	-0.896993
C51	C	-0.214535	1.720068	-0.951875
C52	C	-0.214508	1.720092	-1.061599
C53	C	-0.261851	1.652864	-1.116441
C54	C	-0.356740	1.518219	-0.233169
C55	C	-0.356563	1.518392	-0.116393
H56	H	-0.175854	1.118264	-0.250293
N57	N	-0.166186	1.788747	-0.895860
N58	N	-0.171104	1.885691	-0.908122
H59	H	-0.136956	1.934198	-0.868563
H60	H	-0.261923	0.819687	-0.372005
N61	N	-0.787151	1.460501	-0.690315
N62	N	-0.747578	1.395892	-0.737940
H63	H	-0.728903	1.412497	-0.810684
H64	H	-0.919679	1.544168	-0.333209
N65	N	-0.925906	1.663805	-0.634097
N66	N	-0.993799	1.674390	-0.648423
H67	H	-1.012891	1.698610	-0.718735
N68	N	-0.787662	1.657249	-0.639181
N69	N	-0.806269	1.743011	-0.678473
H70	H	-0.788209	1.763072	-0.750657
N71	N	-0.924934	1.460733	-0.690916
N72	N	-0.966654	1.537333	-0.705790
H73	H	-0.984806	1.553853	-0.778782
H74	H	-0.261816	1.652878	-1.205786
H75	H	-0.261859	1.217823	-0.371981
N76	N	-0.452555	1.129692	-0.641729
N77	N	-0.452538	1.227657	-0.641705
H78	H	-0.486735	1.267253	-0.690087
H79	H	-0.442760	0.919245	-0.627864
H80	H	-0.442475	1.396402	-1.106166
H81	H	-0.920801	1.355493	-0.569027
N82	N	-0.787981	1.333638	-0.563758
N83	N	-0.833357	1.261570	-0.547442
H84	H	-0.815269	1.188573	-0.530799
N85	N	-0.787749	1.559909	-0.317272
N86	N	-0.750440	1.527190	-0.241640
H87	H	-0.732383	1.577790	-0.186440
H88	H	-0.442512	1.396333	-0.907096
H89	H	-0.919001	1.406496	-0.371895
H90	H	-0.791928	1.407879	-0.370977
H91	H	-0.175932	1.774846	-1.106280
H92	H	-0.791817	1.692377	-0.482012
N93	N	-0.166063	0.907821	-0.236426
N94	N	-0.166080	0.809856	-0.236445
H95	H	-0.131876	0.770263	-0.188072
N96	N	-0.924284	1.705182	-0.460168
N97	N	-0.965526	1.677529	-0.386566
H98	H	-0.983473	1.730971	-0.334033
N99	N	-0.261926	1.652809	-0.784914
N100	N	-0.219658	1.712840	-0.735963
H101	H	-0.219675	1.712838	-0.656807
