data_functionalizedCrystal
_audit_creation_method	'MofGen! by Chris Wilmer'
_symmetry_space_group_name_H-M	'P1'
_symmetry_Int_Tables_number	1
_symmetry_cell_setting	triclinic
loop_
_symmetry_equiv_pos_as_xyz
  x,y,z
_cell_length_a	17.000371
_cell_length_b	17.038272
_cell_length_c	15.500258
_cell_angle_alpha	92.989088
_cell_angle_beta	86.638253
_cell_angle_gamma	96.644598
loop_
_atom_site_label
_atom_site_type_symbol
_atom_site_fract_x
_atom_site_fract_y
_atom_site_fract_z
O1	O	0.168542	-1.022581	0.071838
O2	O	0.165809	-0.795136	0.071863
O3	O	0.052266	-0.922982	0.071843
O4	O	0.282085	-0.894736	0.071858
O5	O	0.059269	-0.928986	-0.072045
O6	O	0.172812	-0.801140	-0.072025
O7	O	0.175545	-1.028585	-0.072050
Cu8	Cu	0.174818	-0.915411	-0.085176
Cu9	Cu	0.166536	-0.908311	0.084989
O10	O	0.289088	-0.900740	-0.072030
C11	C	0.166826	-0.769180	-0.000077
C12	C	0.159412	-0.682895	-0.000068
C13	C	0.026216	-0.927501	-0.000101
C14	C	-0.061837	-0.932012	-0.000101
C15	C	0.174528	-1.054541	-0.000107
C16	C	0.181941	-1.140827	-0.000111
C17	C	-0.098564	-0.862590	-0.000089
C18	C	-0.181299	-0.866833	-0.000092
C19	C	-0.227307	-0.940499	-0.000100
C20	C	-0.190574	-1.009927	-0.000114
C21	C	-0.107840	-1.005683	-0.000118
C22	C	-0.477343	-0.956893	-0.000096
C23	C	-0.560083	-0.961132	-0.000090
C24	C	-0.550802	-0.818037	-0.000069
C25	C	-0.468067	-0.813800	-0.000067
C26	C	-0.431341	-0.883227	-0.000086
C27	C	-0.311876	-0.944839	-0.000100
C28	C	-0.346773	-0.878888	-0.000092
C29	C	0.315137	-0.896221	-0.000084
C30	C	0.403190	-0.891709	-0.000078
N31	N	0.180643	-0.920411	-0.204860
C32	C	0.227471	-0.628119	-0.000064
C33	C	0.220501	-0.547046	-0.000077
C34	C	0.145473	-0.520751	-0.000087
C35	C	0.077410	-0.575533	-0.000093
C36	C	0.084380	-0.656605	-0.000087
C37	C	0.120848	-0.276680	-0.000111
C38	C	0.113883	-0.195602	-0.000115
C39	C	0.256975	-0.167121	-0.000100
C40	C	0.263939	-0.248195	-0.000089
C41	C	0.195876	-0.302970	-0.000100
C42	C	0.138347	-0.437882	-0.000097
C43	C	0.203002	-0.385838	-0.000096
C44	C	0.209775	-0.945318	-0.750046
C45	C	0.205364	-0.941541	-0.659473
C46	C	0.151879	-0.895768	-0.614184
C47	C	0.102807	-0.853763	-0.659471
C48	C	0.107223	-0.857535	-0.750042
C49	C	0.135986	-0.882178	-0.340718
C50	C	0.131573	-0.878411	-0.250141
C51	C	0.234131	-0.966188	-0.250150
C52	C	0.238538	-0.969960	-0.340722
C53	C	0.189470	-0.927952	-0.386002
C54	C	0.147368	-0.891909	-0.521604
C55	C	0.193986	-0.931807	-0.478580
N56	N	0.160705	-0.903317	0.204673
H57	H	-0.061110	-0.802602	-0.000078
F58	F	-0.239541	-1.088329	-0.000132
F59	F	0.034024	-0.167620	-0.000141
F60	F	-0.419108	-0.735394	-0.000051
F61	F	-0.220383	-0.792944	-0.000078
F62	F	0.058498	-0.409888	-0.000104
F63	F	0.011943	-0.714902	-0.000094
F64	F	-0.438269	-1.030784	-0.000093
F65	F	0.054998	-0.812831	-0.798232
F66	F	0.282851	-0.413826	-0.000089
F67	F	0.307326	-0.656096	-0.000048
F68	F	0.266697	-0.994041	-0.798239
H69	H	-0.580713	-0.761513	-0.000056
H70	H	0.088019	-0.841132	-0.213268
H71	H	-0.077938	-1.062214	-0.000129
F72	F	-0.609046	-1.039541	-0.000094
H73	H	-0.309310	-0.818909	-0.000091
H74	H	0.016320	-0.554118	-0.000114
F75	F	0.257611	-0.986221	-0.611286
H76	H	0.275922	-0.502450	-0.000072
H77	H	0.282090	-1.007235	-0.377591
H78	H	0.274081	-1.000388	-0.213274
F79	F	-0.360847	-1.023238	-0.000112
F80	F	0.250910	-0.980516	-0.526782
F81	F	0.083762	-0.837468	-0.388896
F82	F	0.343794	-0.276174	-0.000073
H83	H	0.312388	-0.122515	-0.000093
H84	H	0.059262	-0.816490	-0.622589
F85	F	0.090445	-0.843196	-0.473395
F86	F	0.048408	-0.334967	-0.000123
