data_functionalizedCrystal
_audit_creation_method	'MofGen! by Chris Wilmer'
_symmetry_space_group_name_H-M	'P1'
_symmetry_Int_Tables_number	1
_symmetry_cell_setting	triclinic
loop_
_symmetry_equiv_pos_as_xyz
  x,y,z
_cell_length_a	10.489711
_cell_length_b	8.965430
_cell_length_c	17.699083
_cell_angle_alpha	89.999531
_cell_angle_beta	96.094988
_cell_angle_gamma	90.005384
loop_
_atom_site_label
_atom_site_type_symbol
_atom_site_fract_x
_atom_site_fract_y
_atom_site_fract_z
O1	O	1.692094	0.124097	-0.106667
O2	O	2.192094	0.624097	0.393333
O3	O	1.320706	0.124088	-0.116714
O4	O	1.820706	0.624088	0.383286
O5	O	1.516893	0.124079	-0.001569
O6	O	2.016893	0.624079	0.498431
O7	O	1.495907	0.124105	-0.221812
O8	O	1.995907	0.624105	0.278188
O9	O	1.516876	-0.123999	-0.001577
O10	O	2.016876	0.376001	0.498423
O11	O	1.320690	-0.123991	-0.116722
O12	O	1.820690	0.376009	0.383278
O13	O	1.692077	-0.123982	-0.106675
O14	O	2.192077	0.376018	0.393325
Cu15	Cu	1.506382	-0.146638	-0.111699
Cu16	Cu	2.006382	0.353362	0.388301
Cu17	Cu	1.506401	0.146744	-0.111690
Cu18	Cu	2.006401	0.646744	0.388310
O19	O	1.495891	-0.123974	-0.221820
O20	O	1.995891	0.376026	0.278180
C21	C	1.273180	0.000047	-0.115964
C22	C	1.773180	0.500047	0.384036
C23	C	1.131590	0.000044	-0.113708
C24	C	1.631590	0.500044	0.386292
N25	N	1.506377	-0.352987	-0.111705
N26	N	2.006377	0.147013	0.388295
C27	C	0.947917	0.000069	-0.182952
C28	C	1.447917	0.500069	0.317048
C29	C	1.040714	0.122378	-0.148360
C30	C	1.540714	0.622378	0.351640
C31	C	1.040671	-0.122208	-0.148349
C32	C	1.540671	0.377792	0.351651
C33	C	0.972125	0.122486	-0.075058
C34	C	1.472125	0.622486	0.424942
C35	C	0.972072	-0.122211	-0.075058
C36	C	1.472072	0.377789	0.424942
C37	C	1.064842	0.000129	-0.040412
C38	C	1.564842	0.500129	0.459588
C39	C	1.415620	-0.450289	-0.164938
C40	C	1.915620	0.049711	0.335062
C41	C	1.530834	-0.549698	-0.180245
C42	C	2.030834	-0.049698	0.319755
C43	C	1.391212	-0.549706	-0.096405
C44	C	1.891212	-0.049706	0.403595
C45	C	1.621649	-0.450207	-0.127046
C46	C	2.121649	0.049793	0.372954
C47	C	1.481952	-0.450206	-0.043176
C48	C	1.981952	0.049794	0.456824
C49	C	1.597249	-0.549570	-0.058454
C50	C	2.097249	-0.049570	0.441546
C51	C	1.739604	0.000062	-0.107425
C52	C	2.239604	0.500062	0.392575
C53	C	1.881193	0.000075	-0.109681
C54	C	2.381193	0.500075	0.390319
C55	C	1.516132	0.000040	0.026629
C56	C	2.016132	0.500040	0.526629
C57	C	1.513877	0.000039	0.110661
C58	C	2.013877	0.500039	0.610661
N59	N	1.506416	0.353093	-0.111678
N60	N	2.006416	0.853093	0.388322
C61	C	1.496651	0.000069	-0.250018
C62	C	1.996651	0.500069	0.249982
C63	C	1.498907	0.000080	-0.334050
C64	C	1.998907	0.500080	0.165950
C65	C	1.629034	0.000040	0.158536
C66	C	2.129034	0.500040	0.658536
C67	C	1.626906	0.000053	0.237493
C68	C	2.126906	0.500053	0.737493
C69	C	1.509621	0.000055	0.268574
C70	C	2.009621	0.500055	0.768574
C71	C	1.394455	0.000059	0.220693
C72	C	1.894455	0.500059	0.720693
C73	C	1.396583	0.000056	0.141737
C74	C	1.896583	0.500056	0.641737
C75	C	1.385868	0.000071	0.539111
C76	C	1.885868	0.500071	1.039111
C77	C	1.383748	0.000069	0.618073
C78	C	1.883748	0.500069	1.118073
C79	C	1.616191	0.000067	0.634868
C80	C	2.116191	0.500067	1.134868
C81	C	1.618320	0.000065	0.555912
C82	C	2.118320	0.500065	1.055912
C83	C	1.503154	0.000076	0.508038
C84	C	2.003154	0.500076	1.008038
C85	C	1.505462	0.000065	0.422424
C86	C	2.005462	0.500065	0.922424
C87	C	1.507311	0.000055	0.354187
C88	C	2.007311	0.500055	0.854187
H89	H	0.897108	0.000198	-0.243176
H90	H	1.397108	0.500198	0.256824
Br91	Br	1.784044	-0.377681	-0.148708
Br92	Br	2.284044	0.122319	0.351292
H93	H	1.551520	-0.593399	-0.238186
H94	H	2.051520	-0.093399	0.261814
Br95	Br	1.228861	-0.622560	-0.074853
Br96	Br	1.728861	-0.122560	0.425147
H97	H	1.713826	0.000056	0.530611
H98	H	2.213826	0.500056	1.030611
H99	H	1.674100	-0.592889	-0.013423
H100	H	2.174100	-0.092889	0.486577
H101	H	1.071139	0.225785	-0.179362
H102	H	1.571139	0.725785	0.320638
H103	H	1.724541	0.000029	0.133237
H104	H	2.224541	0.500029	0.633237
Br105	Br	1.772491	0.000052	0.699844
Br106	Br	2.272491	0.500052	1.199844
Br107	Br	1.235279	0.000086	0.262873
Br108	Br	1.735279	0.500086	0.762873
H109	H	0.941898	0.226010	-0.044081
H110	H	1.441898	0.726010	0.455919
Br111	Br	1.224564	0.000069	0.660253
Br112	Br	1.724564	0.500069	1.160253
H113	H	1.292093	0.000080	0.500141
H114	H	1.792093	0.500080	1.000141
H115	H	1.302810	0.000056	0.102758
H116	H	1.802810	0.500056	0.602758
H117	H	1.115419	0.000183	0.019867
H118	H	1.615419	0.500183	0.519867
Br119	Br	0.921308	-0.294579	-0.023430
Br120	Br	1.421308	0.205421	0.476570
Br121	Br	1.091304	-0.294550	-0.200048
Br122	Br	1.591304	0.205450	0.299952
H123	H	1.338940	-0.406697	-0.209997
H124	H	1.838940	0.093303	0.290003
Br125	Br	1.447416	-0.377305	0.053369
Br126	Br	1.947416	0.122695	0.553369
H127	H	1.720679	0.000050	0.276470
H128	H	2.220679	0.500050	0.776470
