data_functionalizedCrystal
_audit_creation_method	'MofGen! by Chris Wilmer'
_symmetry_space_group_name_H-M	'P1'
_symmetry_Int_Tables_number	1
_symmetry_cell_setting	triclinic
loop_
_symmetry_equiv_pos_as_xyz
  x,y,z
_cell_length_a	12.811457
_cell_length_b	19.188924
_cell_length_c	11.892095
_cell_angle_alpha	93.873774
_cell_angle_beta	91.498327
_cell_angle_gamma	83.595027
loop_
_atom_site_label
_atom_site_type_symbol
_atom_site_fract_x
_atom_site_fract_y
_atom_site_fract_z
O1	O	1.388760	0.096319	0.048362
O2	O	1.085359	0.105076	0.017255
O3	O	1.245818	-0.000872	0.033720
O4	O	1.228301	0.202267	0.031897
O5	O	1.232439	0.007948	0.220354
O6	O	1.071981	0.113896	0.203890
O7	O	1.375381	0.105139	0.234996
Zn8	Zn	1.221557	0.110918	0.249075
Zn9	Zn	1.239184	0.099297	0.003176
O10	O	1.214923	0.211087	0.218532
C11	C	1.039854	0.108725	0.106593
C12	C	0.924195	0.106449	0.094736
C13	C	0.692272	0.111776	0.275946
C14	C	0.583599	0.109638	0.264811
C15	C	0.598175	0.100029	0.061330
C16	C	0.706848	0.102168	0.072466
C17	C	0.753892	0.108042	0.179777
C18	C	0.862566	0.110185	0.190912
C19	C	0.877141	0.100572	-0.012568
C20	C	0.768468	0.098434	-0.023703
C21	C	1.238562	-0.022478	0.126980
C22	C	1.236863	-0.100000	0.126809
C23	C	1.243363	-0.141214	0.024993
C24	C	1.241752	-0.214053	0.024819
C25	C	1.233662	-0.245676	0.126469
C26	C	1.227155	-0.204452	0.228298
C27	C	1.228756	-0.131614	0.228468
N28	N	1.285012	-0.361204	0.208007
N29	N	1.283495	-0.430398	0.207839
C30	C	1.228836	-0.465133	0.125964
N31	N	1.175767	-0.428063	0.044246
N32	N	1.177290	-0.358863	0.044412
C33	C	1.231924	-0.324656	0.126296
C34	C	1.233588	-0.585328	0.023952
C35	C	1.231970	-0.658168	0.023782
C36	C	1.217384	-0.648566	0.227265
C37	C	1.218992	-0.575727	0.227431
C38	C	1.227099	-0.544113	0.125772
C39	C	1.420887	0.101490	0.145656
C40	C	1.536547	0.103766	0.157506
C41	C	1.222178	0.232693	0.125269
C42	C	1.223879	0.310214	0.125433
N43	N	1.209535	0.118848	0.416896
N44	N	1.251214	0.091361	-0.164644
C45	C	1.334872	0.036138	0.666404
C46	C	1.326476	0.041686	0.783885
C47	C	1.184342	0.135490	0.769339
C48	C	1.192738	0.129941	0.651858
C49	C	1.268006	0.080264	0.600396
C50	C	1.276407	0.074720	0.482914
C51	C	1.134269	0.168520	0.468369
C52	C	1.125873	0.174068	0.585850
H53	H	0.559855	0.095235	-0.026038
C54	C	1.043075	0.228705	0.642472
N55	N	0.980710	0.269859	0.685118
C56	C	1.211853	-0.530390	0.339440
N57	N	1.206473	-0.496242	0.423810
H58	H	1.220565	-0.230204	0.311062
H59	H	1.237258	-0.691724	-0.059133
C60	C	1.400029	-0.006859	0.856490
N61	N	1.455432	-0.043427	0.911177
C62	C	0.515819	0.113752	0.370604
N63	N	0.464767	0.116852	0.450293
H64	H	1.223459	-0.098056	0.311381
C65	C	1.242490	-0.550549	-0.087876
N66	N	1.249192	-0.524355	-0.172106
H67	H	1.210789	-0.674312	0.310030
H68	H	1.079826	0.204453	0.414611
H69	H	1.337696	0.034272	0.441014
H70	H	1.396165	-0.004307	0.624504
H71	H	0.900866	0.114973	0.278290
C72	C	0.744022	0.118242	0.393988
N73	N	0.782999	0.123112	0.482899
H74	H	0.730150	0.093647	-0.111073
C75	C	0.944932	0.096465	-0.118361
N76	N	0.995993	0.093373	-0.198042
H77	H	1.249961	-0.115479	-0.057787
C78	C	1.248896	-0.259397	-0.087192
N79	N	1.254275	-0.293548	-0.171559
H80	H	1.123054	0.175931	0.811255
