data_functionalizedCrystal
_audit_creation_method	'MofGen! by Chris Wilmer'
_symmetry_space_group_name_H-M	'P1'
_symmetry_Int_Tables_number	1
_symmetry_cell_setting	triclinic
loop_
_symmetry_equiv_pos_as_xyz
  x,y,z
_cell_length_a	16.974800
_cell_length_b	14.853559
_cell_length_c	15.455313
_cell_angle_alpha	92.670929
_cell_angle_beta	90.973911
_cell_angle_gamma	83.510332
loop_
_atom_site_label
_atom_site_type_symbol
_atom_site_fract_x
_atom_site_fract_y
_atom_site_fract_z
O1	O	1.049197	0.114925	0.001552
O2	O	0.819779	0.128693	-0.014560
O3	O	0.940620	-0.009414	-0.006073
O4	O	0.928357	0.253033	-0.006936
O5	O	0.933709	-0.001549	0.137704
O6	O	0.812869	0.136558	0.129217
O7	O	1.042287	0.122790	0.145328
Cu8	Cu	0.926947	0.130392	0.150400
Cu9	Cu	0.935119	0.121091	-0.019632
O10	O	0.921446	0.260898	0.136841
C11	C	0.786964	0.131958	0.055266
C12	C	0.699480	0.129958	0.049122
C13	C	0.654618	0.133303	0.124610
C14	C	0.572419	0.131409	0.118840
C15	C	0.535083	0.126176	0.037580
C16	C	0.579952	0.122828	-0.037913
C17	C	0.662150	0.124715	-0.032142
C18	C	0.289653	0.120065	0.011916
C19	C	0.207448	0.118180	0.006150
C20	C	0.199921	0.126760	0.162904
C21	C	0.282121	0.128652	0.168668
C22	C	0.326982	0.125299	0.093175
N23	N	0.451063	0.124243	0.031680
N24	N	0.411002	0.127226	0.099076
C25	C	0.936610	-0.039071	0.065775
C26	C	0.934949	-0.139157	0.065654
C27	C	0.931667	-0.566627	-0.013214
C28	C	0.924133	-0.558047	0.143537
C29	C	0.925701	-0.464012	0.143647
C30	C	0.930250	-0.421280	0.065326
C31	C	0.933232	-0.472583	-0.013106
C32	C	0.922711	-0.412701	0.222078
C33	C	0.924277	-0.318660	0.222192
C34	C	0.928833	-0.275927	0.143870
C35	C	0.931816	-0.327236	0.065434
C36	C	0.936366	-0.284504	-0.012887
C37	C	0.939354	-0.335813	-0.091323
C38	C	0.937788	-0.429851	-0.091428
C39	C	0.930399	-0.181889	0.143975
C40	C	0.937931	-0.190460	-0.012779
C41	C	1.075102	0.119526	0.075500
C42	C	1.162586	0.121526	0.081638
C43	C	0.925456	0.290555	0.064991
C44	C	0.927117	0.390641	0.065107
N45	N	0.921205	0.136934	0.269993
N46	N	0.940867	0.114543	-0.139224
C47	C	0.972560	0.078283	0.318994
C48	C	0.968225	0.083238	0.409497
C49	C	0.912537	0.146850	0.450998
C50	C	0.861177	0.205503	0.401990
C51	C	0.865509	0.200543	0.311488
C52	C	0.893839	0.168236	0.721266
C53	C	0.889512	0.173194	0.811775
C54	C	0.996560	0.050927	0.819276
C55	C	1.000890	0.045976	0.728772
C56	C	0.949526	0.104626	0.679772
N57	N	0.908106	0.151918	0.543507
N58	N	0.953954	0.099553	0.587264
H59	H	0.549547	0.118561	-0.104077
C60	C	0.711498	0.121037	-0.115185
N61	N	0.748666	0.118264	-0.177736
H62	H	0.934103	-0.608407	-0.077075
H63	H	0.163386	0.129488	0.224367
H64	H	0.852018	0.215993	0.681377
C65	C	0.323184	0.134404	0.258060
N66	N	0.354113	0.138737	0.325392
H67	H	0.941640	-0.155676	-0.076558
C68	C	0.919120	-0.605055	0.229684
N69	N	0.915343	-0.640464	0.294575
H70	H	0.943053	-0.301007	-0.155092
H71	H	0.940220	-0.471634	-0.155286
C72	C	0.917693	-0.459710	0.308224
N73	N	0.913912	-0.495121	0.373113
H74	H	0.685010	0.137571	0.190781
C75	C	0.523072	0.135110	0.201884
N76	N	0.485903	0.137904	0.264436
H77	H	0.927948	-0.140116	0.207835
C78	C	0.920995	-0.262230	0.308472
N79	N	0.918526	-0.219727	0.373460
C80	C	0.166381	0.112423	-0.083246
N81	N	0.135449	0.108088	-0.150575
C82	C	0.338991	0.116369	-0.071131
N83	N	0.376156	0.113581	-0.133685
H84	H	0.815831	0.257294	0.435785
C85	C	1.033820	0.008304	0.273352
N86	N	1.079961	-0.044409	0.238976
C87	C	1.024701	0.018695	0.463393
N88	N	1.067234	-0.029931	0.503987
C89	C	1.062146	-0.024007	0.683128
N90	N	1.108286	-0.076718	0.648748
C91	C	1.053049	-0.013592	0.873182
N92	N	1.095596	-0.062193	0.913785
H93	H	0.844163	0.224998	0.845560
H94	H	0.823689	0.248302	0.271592
