data_functionalizedCrystal
_audit_creation_method	'MofGen! by Chris Wilmer'
_symmetry_space_group_name_H-M	'P1'
_symmetry_Int_Tables_number	1
_symmetry_cell_setting	triclinic
loop_
_symmetry_equiv_pos_as_xyz
  x,y,z
_cell_length_a	12.784905
_cell_length_b	16.992695
_cell_length_c	15.455313
_cell_angle_alpha	92.847427
_cell_angle_beta	92.399933
_cell_angle_gamma	98.112229
loop_
_atom_site_label
_atom_site_type_symbol
_atom_site_fract_x
_atom_site_fract_y
_atom_site_fract_z
O1	O	1.415072	-0.001158	0.072136
O2	O	1.915072	0.498842	0.572136
O3	O	1.108453	-0.034544	0.072137
O4	O	1.608453	0.465456	0.572137
O5	O	1.260533	0.096207	0.072130
O6	O	1.760533	0.596207	0.572130
O7	O	1.262993	-0.131910	0.072143
O8	O	1.762993	0.368090	0.572143
O9	O	1.251834	0.088758	-0.072132
O10	O	1.751834	0.588758	0.427868
O11	O	1.099754	-0.041993	-0.072125
O12	O	1.599754	0.458007	0.427875
O13	O	1.406373	-0.008607	-0.072126
O14	O	1.906373	0.491393	0.427874
Cu15	Cu	1.252270	-0.025980	-0.085298
Cu16	Cu	1.752270	0.474020	0.414702
Cu17	Cu	1.262557	-0.017171	0.085309
Cu18	Cu	1.762557	0.482829	0.585309
O19	O	1.254294	-0.139359	-0.072118
O20	O	1.754294	0.360641	0.427882
C21	C	1.064689	-0.040440	0.000006
C22	C	1.564689	0.459560	0.500006
C23	C	0.947244	-0.046901	0.000006
C24	C	1.447244	0.453099	0.500006
C25	C	0.739680	0.084727	0.000014
C26	C	1.239680	0.584727	0.500014
C27	C	0.629330	0.078660	0.000014
C28	C	1.129330	0.578660	0.500014
C29	C	0.616194	-0.065099	0.000013
C30	C	1.116194	0.434901	0.500013
C31	C	0.726543	-0.059033	0.000013
C32	C	1.226543	0.440967	0.500013
C33	C	0.788283	0.015883	0.000012
C34	C	1.288283	0.515883	0.500012
C35	C	0.898634	0.021948	0.000006
C36	C	1.398634	0.521948	0.500006
C37	C	0.885496	-0.121810	0.000011
C38	C	1.385496	0.378190	0.500011
C39	C	0.775146	-0.127877	0.000011
C40	C	1.275146	0.372123	0.500011
C41	C	1.253021	0.121480	-0.000001
C42	C	1.753021	0.621480	0.499999
C43	C	1.243585	0.207881	-0.000001
C44	C	1.743585	0.707881	0.499999
C45	C	1.450138	-0.002711	0.000007
C46	C	1.950138	0.497289	0.500007
C47	C	1.567583	0.003750	0.000012
C48	C	2.067583	0.503750	0.500012
C49	C	1.261806	-0.164631	0.000014
C50	C	1.761806	0.335369	0.500014
C51	C	1.271242	-0.251032	0.000020
C52	C	1.771242	0.248968	0.500020
N53	N	1.245042	-0.032175	-0.205293
N54	N	1.745042	0.467825	0.294707
C55	C	1.334629	0.264328	-0.000002
C56	C	1.834629	0.764328	0.499998
C57	C	1.325757	0.345510	0.000006
C58	C	1.825757	0.845510	0.500006
C59	C	1.225841	0.370243	0.000009
C60	C	1.725841	0.870243	0.500009
C61	C	1.134791	0.313788	0.000013
C62	C	1.634791	0.813788	0.500013
C63	C	1.143664	0.232608	0.000011
C64	C	1.643664	0.732608	0.500011
C65	C	1.189065	0.611334	0.000021
C66	C	1.689065	1.111334	0.500021
C67	C	1.180199	0.692521	0.000021
C68	C	1.680199	1.192521	0.500021
C69	C	1.371166	0.724237	0.000015
C70	C	1.871166	1.224237	0.500015
C71	C	1.380030	0.643054	0.000008
C72	C	1.880030	1.143054	0.500008
C73	C	1.288980	0.586607	0.000017
C74	C	1.788980	1.086607	0.500017
N75	N	1.216770	0.453223	0.000015
N76	N	1.716770	0.953223	0.500015
N77	N	1.298053	0.503628	0.000017
N78	N	1.798053	1.003628	0.500017
C79	C	1.309676	0.023356	-0.250690
C80	C	1.809676	0.523356	0.249310
C81	C	1.304220	0.018664	-0.341498
C82	C	1.804220	0.518664	0.158502
C83	C	1.234134	-0.041562	-0.386906
C84	C	1.734134	0.458438	0.113094
C85	C	1.169493	-0.097095	-0.341503
C86	C	1.669493	0.402905	0.158497
C87	C	1.174944	-0.092400	-0.250697
C88	C	1.674944	0.407600	0.249303
C89	C	1.210603	-0.061808	-0.658487
C90	C	1.710603	0.438192	-0.158487
C91	C	1.205159	-0.066500	-0.749299
C92	C	1.705159	0.433500	-0.249299
C93	C	1.339885	0.049261	-0.749288
C94	C	1.839885	0.549261	-0.249288
C95	C	1.345335	0.053948	-0.658480
C96	C	1.845335	0.553948	-0.158480
C97	C	1.280689	-0.001583	-0.613084
C98	C	1.780689	0.498417	-0.113084
N99	N	1.228558	-0.046360	-0.479726
N100	N	1.728558	0.453640	0.020274
N101	N	1.286261	0.003219	-0.520266
N102	N	1.786261	0.503219	-0.020266
N103	N	1.269793	-0.010970	0.205304
N104	N	1.769793	0.489030	0.705304
H105	H	0.565907	-0.126091	0.000025
H106	H	1.065907	0.373909	0.500025
Br107	Br	0.982422	0.123617	-0.000001
Br108	Br	1.482422	0.623617	0.499999
H109	H	0.589763	0.134720	0.000017
H110	H	1.089763	0.634720	0.500017
H111	H	1.122311	-0.137618	-0.213735
H112	H	1.622311	0.362382	0.286265
Br113	Br	1.494726	0.800847	0.000004
Br114	Br	1.994726	1.300847	0.500004
H115	H	0.724863	-0.188871	0.000015
H116	H	1.224863	0.311129	0.500015
Br117	Br	1.427612	0.124622	-0.810899
Br118	Br	1.927612	0.624622	-0.310899
Br119	Br	1.470235	0.230771	-0.000019
Br120	Br	1.970235	0.730771	0.499981
H121	H	0.925079	-0.177869	0.000005
H122	H	1.425079	0.322131	0.500005
H123	H	1.112422	-0.146131	-0.378480
H124	H	1.612422	0.353869	0.121520
Br125	Br	1.449322	0.422116	0.000005
Br126	Br	1.949322	0.922116	0.500005
Br127	Br	0.823473	0.186393	-0.000003
Br128	Br	1.323473	0.686393	0.499997
H129	H	1.053437	0.333932	0.000021
H130	H	1.553437	0.833932	0.500021
H131	H	1.461392	0.622924	0.000005
H132	H	1.961392	1.122924	0.500005
Br133	Br	1.065497	0.534737	0.000038
Br134	Br	1.565497	1.034737	0.500038
H135	H	1.356850	0.063882	-0.378460
H136	H	1.856850	0.563882	0.121540
H137	H	1.098830	0.712652	0.000009
H138	H	1.598830	1.212652	0.500009
H139	H	1.069527	0.186648	0.000012
H140	H	1.569527	0.686648	0.500012
Br141	Br	1.404805	0.105091	-0.189073
Br142	Br	1.904805	0.605091	0.310927
Br143	Br	1.440456	0.135681	-0.596852
Br144	Br	1.940456	0.635681	-0.096852
H145	H	1.148084	-0.115547	-0.786267
H146	H	1.648084	0.384453	-0.286267
Br147	Br	1.122875	-0.137170	-0.596883
Br148	Br	1.622875	0.362830	-0.096883
