data_functionalizedCrystal
_audit_creation_method	'MofGen! by Chris Wilmer'
_symmetry_space_group_name_H-M	'P1'
_symmetry_Int_Tables_number	1
_symmetry_cell_setting	triclinic
loop_
_symmetry_equiv_pos_as_xyz
  x,y,z
_cell_length_a	12.759399
_cell_length_b	16.120530
_cell_length_c	12.759393
_cell_angle_alpha	92.920001
_cell_angle_beta	90.030906
_cell_angle_gamma	87.110771
loop_
_atom_site_label
_atom_site_type_symbol
_atom_site_fract_x
_atom_site_fract_y
_atom_site_fract_z
Zn1	Zn	-0.499768	1.274633	0.675423
Zn2	Zn	0.000232	1.774633	1.175423
Zn3	Zn	-0.675478	1.274545	0.499736
Zn4	Zn	-0.175478	1.774545	0.999736
Zn5	Zn	-0.490899	1.135207	0.490853
Zn6	Zn	0.009101	1.635207	0.990853
Zn7	Zn	-0.666484	1.135200	0.666474
Zn8	Zn	-0.166484	1.635200	1.166474
O9	O	-0.583157	1.204896	0.583121
O10	O	-0.083157	1.704896	1.083121
O11	O	-0.530552	1.391288	0.659580
O12	O	-0.030552	1.891288	1.159580
O13	O	-0.651045	1.256028	0.351534
O14	O	-0.151045	1.756028	0.851534
O15	O	-0.345057	1.153742	0.515364
O16	O	0.154943	1.653742	1.015364
O17	O	-0.659645	1.391224	0.530504
O18	O	-0.159645	1.891224	1.030504
O19	O	-0.351573	1.256177	0.650967
O20	O	0.148427	1.756177	1.150967
O21	O	-0.515435	1.153657	0.345008
O22	O	-0.015435	1.653657	0.845008
O23	O	-0.506715	1.018539	0.506687
O24	O	-0.006715	1.518539	1.006687
O25	O	-0.644317	1.153729	0.814684
O26	O	-0.144317	1.653729	1.314684
O27	O	-0.635717	1.018534	0.635715
O28	O	-0.135717	1.518534	1.135715
O29	O	-0.521831	1.256170	0.821259
O30	O	-0.021831	1.756170	1.321259
O31	O	-0.821303	1.256021	0.521826
O32	O	-0.321303	1.756021	1.021826
O33	O	-0.814696	1.153644	0.644328
O34	O	-0.314696	1.653644	1.144328
C35	C	-0.856121	1.204845	0.583094
C36	C	-0.356121	1.704845	1.083094
C37	C	-0.972901	1.204900	0.583123
C38	C	-0.472901	1.704900	1.083123
C39	C	-0.569278	0.988286	0.569266
C40	C	-0.069278	1.488286	1.069266
C41	C	-0.563366	0.895619	0.563364
C42	C	-0.063366	1.395619	1.063364
C43	C	-1.031173	1.258268	0.519416
C44	C	-0.531173	1.758268	1.019416
C45	C	-1.140900	1.258322	0.519455
C46	C	-0.640900	1.758322	1.019455
C47	C	-1.134075	1.151631	0.646909
C48	C	-0.634075	1.651631	1.146909
C49	C	-1.024349	1.151582	0.646875
C50	C	-0.524349	1.651582	1.146875
C51	C	-0.552547	0.725956	0.552597
C52	C	-0.052547	1.225956	1.052597
C53	C	-0.613845	0.684677	0.613722
C54	C	-0.113845	1.184677	1.113722
C55	C	-0.607825	0.590271	0.607731
C56	C	-0.107825	1.090271	1.107731
C57	C	-0.558565	0.820371	0.558587
C58	C	-0.058565	1.320371	1.058587
C59	C	-0.309129	1.204970	0.583173
C60	C	0.190871	1.704970	1.083173
C61	C	-0.192354	1.205002	0.583195
C62	C	0.307646	1.705002	1.083195
C63	C	-0.583060	1.204959	0.857159
C64	C	-0.083060	1.704959	1.357159
C65	C	-0.583019	1.204985	0.973937
C66	C	-0.083019	1.704985	1.473937
C67	C	-0.597091	1.422352	0.597031
C68	C	-0.097091	1.922352	1.097031
C69	C	-0.603029	1.515019	0.602958
C70	C	-0.103029	2.015019	1.102958
C71	C	-0.583181	1.204882	0.310153
C72	C	-0.083181	1.704882	0.810153
C73	C	-0.582937	1.205017	0.193386
C74	C	-0.082937	1.705017	0.693386
C75	C	-0.519230	1.258330	1.032225
C76	C	-0.019230	1.758330	1.532225
C77	C	-0.519186	1.258344	1.141950
C78	C	-0.019186	1.758344	1.641950
C79	C	-0.646728	1.151666	1.135090
C80	C	-0.146728	1.651666	1.635090
C81	C	-0.646766	1.151648	1.025367
C82	C	-0.146766	1.651648	1.525367
H83	H	-0.989287	1.301683	0.467507
H84	H	-0.489287	1.801683	0.967507
H85	H	-1.188340	1.301781	0.467580
H86	H	-0.688340	1.801781	0.967580
Br87	Br	-1.203904	1.079275	0.733424
Br88	Br	-0.703904	1.579275	1.233424
H89	H	-0.976901	1.108123	0.698757
H90	H	-0.476901	1.608123	1.198757
Br91	Br	-0.457549	0.666687	0.457882
Br92	Br	0.042451	1.166687	0.957882
Br93	Br	-0.733333	1.079239	0.946254
Br94	Br	-0.233333	1.579239	1.446254
H95	H	-0.670842	0.720239	0.670553
H96	H	-0.170842	1.220239	1.170553
H97	H	-0.467320	1.301758	0.990354
H98	H	0.032680	1.801758	1.490354
Br99	Br	-0.432619	1.330750	1.221051
Br100	Br	0.067381	1.830750	1.721051
Br101	Br	-0.733242	1.079287	1.204894
Br102	Br	-0.233242	1.579287	1.704894
