data_functionalizedCrystal
_audit_creation_method	'MofGen! by Chris Wilmer'
_symmetry_space_group_name_H-M	'P1'
_symmetry_Int_Tables_number	1
_symmetry_cell_setting	triclinic
loop_
_symmetry_equiv_pos_as_xyz
  x,y,z
_cell_length_a	14.519709
_cell_length_b	13.596369
_cell_length_c	14.519731
_cell_angle_alpha	90.011346
_cell_angle_beta	83.684500
_cell_angle_gamma	89.999709
loop_
_atom_site_label
_atom_site_type_symbol
_atom_site_fract_x
_atom_site_fract_y
_atom_site_fract_z
O1	O	-1.223878	-0.081675	-0.120892
O2	O	-0.723878	0.418325	0.379108
O3	O	-0.955402	-0.081707	-0.135128
O4	O	-0.455402	0.418293	0.364872
O5	O	-1.096748	-0.081670	0.006227
O6	O	-0.596748	0.418330	0.506227
O7	O	-1.082532	-0.081712	-0.262247
O8	O	-0.582532	0.418288	0.237753
O9	O	-1.096734	0.081912	0.006235
O10	O	-0.596734	0.581912	0.506235
O11	O	-0.955388	0.081876	-0.135120
O12	O	-0.455388	0.581876	0.364880
O13	O	-1.223864	0.081908	-0.120884
O14	O	-0.723864	0.581908	0.379116
Zn15	Zn	-1.089623	0.107864	-0.128001
Zn16	Zn	-0.589623	0.607864	0.371999
Zn17	Zn	-1.089642	-0.107663	-0.128011
Zn18	Zn	-0.589642	0.392337	0.371989
O19	O	-1.082518	0.081871	-0.262239
O20	O	-0.582518	0.581871	0.237761
C21	C	-0.921035	0.000081	-0.134461
C22	C	-0.421035	0.500081	0.365539
C23	C	-0.818654	0.000070	-0.132473
C24	C	-0.318654	0.500070	0.367527
C25	C	-1.096075	0.000124	0.040591
C26	C	-0.596075	0.500124	0.540591
C27	C	-1.094079	0.000133	0.142971
C28	C	-0.594079	0.500133	0.642971
N29	N	-1.089617	0.254956	-0.127994
N30	N	-0.589617	0.754956	0.372006
C31	C	-1.258230	0.000118	-0.121551
C32	C	-0.758230	0.500118	0.378449
C33	C	-1.360612	0.000122	-0.123539
C34	C	-0.860612	0.500122	0.376461
C35	C	-0.443757	0.000116	-0.125153
C36	C	0.056243	0.500116	0.374847
C37	C	-0.548065	0.000102	-0.127186
C38	C	-0.048065	0.500102	0.372814
C39	C	-0.631202	0.000092	-0.128813
C40	C	-0.131202	0.500092	0.371187
C41	C	-0.735517	0.000080	-0.130846
C42	C	-0.235517	0.500080	0.369154
N43	N	-1.089655	-0.254755	-0.128011
N44	N	-0.589655	0.245245	0.371989
C45	C	-1.089641	0.656247	-0.128012
C46	C	-0.589641	1.156247	0.371988
C47	C	-1.089632	0.544595	-0.128010
C48	C	-0.589632	1.044595	0.371990
C49	C	-1.089630	0.455605	-0.128004
C50	C	-0.589630	0.955605	0.371996
C51	C	-1.089619	0.343946	-0.128000
C52	C	-0.589619	0.843946	0.372000
C53	C	-1.092457	0.000137	0.226115
C54	C	-0.592457	0.500137	0.726115
C55	C	-1.090430	0.000138	0.330424
C56	C	-0.590430	0.500138	0.830424
C57	C	-1.088822	0.000138	0.413563
C58	C	-0.588822	0.500138	0.913563
C59	C	-1.086795	0.000141	0.517878
C60	C	-0.586795	0.500141	1.017878
C61	C	-1.083191	0.000095	0.703397
C62	C	-0.583191	0.500095	1.203397
C63	C	-1.085187	0.000141	0.601017
C64	C	-0.585187	0.500141	1.101017
