data_functionalizedCrystal
_audit_creation_method	'MofGen! by Chris Wilmer'
_symmetry_space_group_name_H-M	'P1'
_symmetry_Int_Tables_number	1
_symmetry_cell_setting	triclinic
loop_
_symmetry_equiv_pos_as_xyz
  x,y,z
_cell_length_a	12.827893
_cell_length_b	29.839125
_cell_length_c	12.827892
_cell_angle_alpha	89.989139
_cell_angle_beta	90.015362
_cell_angle_gamma	89.989731
loop_
_atom_site_label
_atom_site_type_symbol
_atom_site_fract_x
_atom_site_fract_y
_atom_site_fract_z
Zn1	Zn	1.597577	-0.254006	-0.416180
Zn2	Zn	1.597498	-0.178885	-0.590899
Zn3	Zn	1.422846	-0.178891	-0.416173
Zn4	Zn	1.422803	-0.253989	-0.590880
O5	O	1.510181	-0.216443	-0.503533
O6	O	1.743802	-0.244046	-0.439369
O7	O	1.574315	-0.116019	-0.567727
O8	O	1.446075	-0.188865	-0.269938
O9	O	1.743745	-0.188855	-0.567734
O10	O	1.574449	-0.244052	-0.269943
O11	O	1.445998	-0.116023	-0.439356
O12	O	1.276604	-0.188848	-0.439337
O13	O	1.446003	-0.316858	-0.567701
O14	O	1.276573	-0.244022	-0.567693
O15	O	1.574408	-0.316871	-0.439350
O16	O	1.574274	-0.188838	-0.737133
O17	O	1.445927	-0.244016	-0.737119
C18	C	1.238671	-0.216434	-0.503513
C19	C	1.122518	-0.216441	-0.503530
C20	C	1.510209	-0.333621	-0.503524
C21	C	1.510221	-0.383556	-0.503520
C22	C	1.070746	-0.243701	-0.567144
C23	C	0.950695	-0.243709	-0.567162
C24	C	1.577152	-0.693209	-0.436512
C25	C	1.577204	-0.880882	-0.436423
O26	O	1.634033	-0.905155	-0.379550
N27	N	1.510360	-0.904341	-0.503240
C28	C	1.443493	-0.880879	-0.570079
O29	O	1.386632	-0.905138	-0.626901
C30	C	1.443437	-0.693206	-0.570162
C31	C	1.510293	-0.669750	-0.503348
C32	C	1.644002	-0.669752	-0.369704
C33	C	1.643992	-0.622837	-0.369730
C34	C	1.577133	-0.599378	-0.436566
C35	C	1.510283	-0.622834	-0.503375
C36	C	1.376565	-0.669745	-0.636995
C37	C	1.376555	-0.622824	-0.637008
C38	C	1.443412	-0.599368	-0.570194
C39	C	1.443414	-0.552460	-0.570238
N40	N	1.510258	-0.529001	-0.503422
C41	C	1.577118	-0.552460	-0.436586
C42	C	1.443529	-0.979409	-0.570032
C43	C	1.443544	-1.026327	-0.570013
C44	C	1.577254	-1.026327	-0.436356
C45	C	1.577243	-0.979408	-0.436381
C46	C	1.510373	-0.955950	-0.503215
C47	C	1.577093	-0.453934	-0.436648
C48	C	1.577081	-0.407014	-0.436684
C49	C	1.443367	-0.407019	-0.570337
C50	C	1.443383	-0.453934	-0.570305
C51	C	1.510250	-0.477391	-0.503452
O52	O	1.386606	-0.528158	-0.627073
O53	O	1.633954	-0.528192	-0.379756
C54	C	1.577162	-0.740124	-0.436485
C55	C	1.510312	-0.763581	-0.503294
C56	C	1.443453	-0.740122	-0.570130
C57	C	1.510327	-0.810499	-0.503275
C58	C	1.577187	-0.833957	-0.436439
C59	C	1.644031	-0.810498	-0.369623
C60	C	1.644021	-0.763583	-0.369650
C61	C	1.376608	-0.763581	-0.636947
C62	C	1.376624	-0.810496	-0.636915
C63	C	1.443484	-0.833955	-0.570079
C64	C	1.782751	-0.216452	-0.503554
C65	C	1.898904	-0.216455	-0.503563
C66	C	1.510116	-0.216434	-0.775043
C67	C	1.510183	-0.216446	-0.891196
C68	C	1.510213	-0.099720	-0.503467
C69	C	1.510403	-0.049786	-0.503177
C70	C	1.573679	-0.243779	-0.942900
C71	C	1.573750	-0.243791	-1.062951
C72	C	1.510275	-0.216461	-0.230963
C73	C	1.510315	-0.216469	-0.114810
H74	H	1.115298	-0.267035	-0.621588
H75	H	1.389076	-0.960314	-0.624463
C76	C	1.624390	-0.319854	-0.908963
C77	C	1.646989	-0.275360	-0.882683
H78	H	1.669645	-0.339352	-0.871782
H79	H	1.634068	-0.324003	-0.981730
H80	H	1.554134	-0.326386	-0.891182
H81	H	1.717243	-0.268828	-0.900472
H82	H	1.637320	-0.271209	-0.809900
H83	H	1.077966	-0.193111	-0.449077
H84	H	1.388954	-0.473033	-0.624720
C85	C	1.588122	-0.304192	-1.185746
C86	C	1.647136	-0.275384	-1.122968
H87	H	1.633430	-0.323698	-1.222794
H88	H	1.548345	-0.287050	-1.233837
H89	H	1.542579	-0.321369	-1.143176
H90	H	1.692674	-0.258205	-1.165539
H91	H	1.686931	-0.292527	-1.074872
C92	C	0.783306	-0.269127	-0.626472
C93	C	0.890599	-0.275217	-0.640687
H94	H	0.746207	-0.288583	-0.671861
H95	H	0.765452	-0.238929	-0.641651
H96	H	0.765494	-0.275748	-0.556264
H97	H	0.908413	-0.268594	-0.710893
H98	H	0.908461	-0.305422	-0.625515
H99	H	1.455955	-0.193065	-1.070353
H100	H	1.631527	-0.387918	-0.382275
H101	H	1.698474	-0.829607	-0.315206
H102	H	1.388935	-0.387910	-0.624756
H103	H	0.943421	-0.193114	-0.449102
H104	H	1.698462	-0.744489	-0.315243
C105	C	1.709271	-0.449208	-0.304547
C106	C	1.650600	-0.479713	-0.363170
H107	H	1.754657	-0.465124	-0.259195
H108	H	1.663747	-0.430909	-0.264582
H109	H	1.749211	-0.430909	-0.350110
H110	H	1.610654	-0.498010	-0.317607
H111	H	1.696129	-0.498020	-0.403138
H112	H	1.698432	-0.603742	-0.315322
C113	C	1.236060	-0.863254	-0.651407
C114	C	1.303139	-0.836280	-0.710368
H115	H	1.190698	-0.879173	-0.696751
H116	H	1.196103	-0.844948	-0.605893
H117	H	1.275890	-0.883940	-0.611603
H118	H	1.263309	-0.815592	-0.750166
H119	H	1.343100	-0.854588	-0.755900
C120	C	1.776174	-0.665027	-0.237611
C121	C	1.717509	-0.695533	-0.296235
H122	H	1.821566	-0.680941	-0.192261
H123	H	1.730648	-0.646730	-0.197643
H124	H	1.816109	-0.646725	-0.283173
H125	H	1.677569	-0.713832	-0.250673
H126	H	1.763041	-0.713837	-0.336206
C127	C	1.369812	-0.210213	-1.014199
C128	C	1.436863	-0.184867	-0.951409
H129	H	1.324550	-0.190716	-1.051374
H130	H	1.329747	-0.229746	-0.971631
H131	H	1.409669	-0.227361	-1.062189
H132	H	1.397007	-0.167722	-0.903413
H133	H	1.476932	-0.165327	-0.993981
C134	C	1.709406	-0.984132	-0.304266
C135	C	1.650724	-0.953627	-0.362929
H136	H	1.754765	-0.968216	-0.258913
H137	H	1.749367	-1.002429	-0.349797
H138	H	1.663881	-1.002433	-0.264291
H139	H	1.696248	-0.935328	-0.402910
H140	H	1.610760	-0.935322	-0.317393
C141	C	1.636614	-1.098253	-0.376969
C142	C	1.650734	-1.052119	-0.362873
H143	H	1.681964	-1.114176	-0.331595
H144	H	1.651904	-1.105939	-0.447168
H145	H	1.566397	-1.105930	-0.361684
H146	H	1.720949	-1.044441	-0.378165
H147	H	1.635450	-1.044429	-0.292658
C148	C	1.311373	-1.021603	-0.702121
C149	C	1.370060	-1.052107	-0.643463
H150	H	1.265999	-1.037518	-0.747459
H151	H	1.356887	-1.003306	-0.742103
H152	H	1.271419	-1.003301	-0.656579
H153	H	1.410021	-1.070407	-0.689005
H154	H	1.324541	-1.070412	-0.603478
C155	C	1.244450	-0.768303	-0.769055
C156	C	1.303112	-0.737799	-0.710421
H157	H	1.199081	-0.752387	-0.814424
H158	H	1.204502	-0.786599	-0.723507
H159	H	1.289988	-0.786606	-0.809012
H160	H	1.257574	-0.719498	-0.670458
H161	H	1.343063	-0.719496	-0.755975
H162	H	1.322124	-0.688835	-0.691401
C163	C	1.244403	-0.627541	-0.769136
C164	C	1.303066	-0.597040	-0.710495
H165	H	1.199046	-0.611622	-0.814512
H166	H	1.204442	-0.645833	-0.723593
H167	H	1.289941	-0.645847	-0.809086
H168	H	1.257529	-0.578736	-0.670539
H169	H	1.343030	-0.578740	-0.756043
