data_functionalizedCrystal
_audit_creation_method	'MofGen! by Chris Wilmer'
_symmetry_space_group_name_H-M	'P1'
_symmetry_Int_Tables_number	1
_symmetry_cell_setting	triclinic
loop_
_symmetry_equiv_pos_as_xyz
  x,y,z
_cell_length_a	10.654556
_cell_length_b	10.967829
_cell_length_c	9.730223
_cell_angle_alpha	77.867717
_cell_angle_beta	89.998368
_cell_angle_gamma	84.601636
loop_
_atom_site_label
_atom_site_type_symbol
_atom_site_fract_x
_atom_site_fract_y
_atom_site_fract_z
O1	O	1.667810	0.175315	-0.155756
O2	O	1.302330	0.192006	-0.159722
O3	O	1.493498	0.002083	-0.114729
O4	O	1.476641	0.365238	-0.200749
O5	O	1.493486	0.002078	0.113852
O6	O	1.302318	0.192001	0.068859
O7	O	1.667797	0.175310	0.072826
Zn8	Zn	1.485056	0.183654	0.107134
Zn9	Zn	1.485072	0.183661	-0.194031
O10	O	1.476629	0.365233	0.027832
C11	C	1.255526	0.190776	-0.045143
C12	C	1.116084	0.187105	-0.044279
C13	C	0.919546	0.181938	-0.167643
C14	C	1.050568	0.185380	-0.168467
C15	C	1.050573	0.185374	0.080745
C16	C	0.919554	0.181923	0.081569
C17	C	1.492265	-0.044420	0.010573
C18	C	1.488592	-0.182977	0.043384
C19	C	1.486962	-0.244741	-0.060401
C20	C	1.483166	-0.387947	-0.026493
C21	C	1.714601	0.176540	-0.041757
C22	C	1.854044	0.180211	-0.042630
C23	C	1.477863	0.411736	-0.097473
C24	C	1.481535	0.550292	-0.130293
N25	N	1.485054	0.183649	0.312672
N26	N	1.485084	0.183657	-0.399567
C27	C	1.569732	0.099587	0.404513
C28	C	1.569745	0.099587	0.548395
C29	C	1.400396	0.267723	0.508582
C30	C	1.400379	0.267715	0.364703
H31	H	0.866211	0.180543	-0.268774
C32	C	1.122622	0.187281	-0.305983
C33	C	1.199376	0.297820	-0.366440
C34	C	1.271431	0.299717	-0.503961
C35	C	1.266733	0.191076	-0.581025
C36	C	1.189976	0.080529	-0.520568
C37	C	1.117921	0.078631	-0.383047
H38	H	1.202856	0.378250	-0.309392
H39	H	1.328251	0.381552	-0.548714
H40	H	1.320072	0.192480	-0.682826
H41	H	1.186496	0.000099	-0.577616
H42	H	1.061101	-0.003203	-0.338294
H43	H	1.488370	-0.191599	-0.174359
C44	C	1.662862	0.007107	0.347279
C45	C	1.662854	0.007092	0.189020
C46	C	1.755984	-0.085394	0.131793
C47	C	1.849123	-0.177866	0.232825
C48	C	1.849135	-0.177854	0.391094
C49	C	1.756004	-0.085368	0.448321
H50	H	1.593904	0.075548	0.114221
H51	H	1.755975	-0.085402	0.014631
H52	H	1.918063	-0.246330	0.190462
H53	H	1.918084	-0.246310	0.465893
H54	H	1.756014	-0.085360	0.565483
H55	H	1.331417	0.336169	0.289920
C56	C	1.483445	-0.377942	-0.284259
C57	C	1.594686	-0.301625	-0.336474
C58	C	1.596595	-0.229861	-0.490437
C59	C	1.487264	-0.234414	-0.592185
C60	C	1.376014	-0.310734	-0.539972
C61	C	1.374105	-0.382498	-0.386008
H62	H	1.675627	-0.298252	-0.261153
H63	H	1.678950	-0.173364	-0.529089
H64	H	1.488677	-0.181290	-0.706158
H65	H	1.295073	-0.314107	-0.615293
H66	H	1.291750	-0.438995	-0.347357
H67	H	1.481744	-0.441082	0.087473
C68	C	0.847493	0.180023	0.219094
C69	C	0.852172	0.288666	0.296159
C70	C	0.780112	0.286759	0.433678
C71	C	0.703374	0.176208	0.494133
C72	C	0.698692	0.067556	0.417068
C73	C	0.770752	0.069464	0.279549
H74	H	0.908982	0.370509	0.251407
H75	H	0.783579	0.367190	0.490726
H76	H	0.650030	0.174796	0.595933
H77	H	0.641882	-0.014287	0.461820
H78	H	0.767285	-0.010968	0.222500
H79	H	1.103927	0.186770	0.181863
C80	C	1.486682	-0.254753	0.197340
C81	C	1.375441	-0.331072	0.249549
C82	C	1.373532	-0.402844	0.403509
C83	C	1.482863	-0.398297	0.505260
C84	C	1.594113	-0.321975	0.453052
C85	C	1.596022	-0.250203	0.299092
H86	H	1.294500	-0.334440	0.174226
H87	H	1.291177	-0.459342	0.442156
H88	H	1.481449	-0.451427	0.619230
H89	H	1.675054	-0.318606	0.528376
H90	H	1.678377	-0.193704	0.260445
C91	C	1.307266	0.360203	0.565815
C92	C	1.307351	0.360294	0.724056
C93	C	1.214221	0.452781	0.781283
C94	C	1.121006	0.545176	0.680269
C95	C	1.120917	0.545088	0.522019
C96	C	1.214047	0.452602	0.464792
H97	H	1.376358	0.291895	0.798842
H98	H	1.214287	0.452845	0.898432
H99	H	1.052065	0.613640	0.722632
H100	H	1.051910	0.613487	0.447233
H101	H	1.213981	0.452537	0.347643
H102	H	1.638696	0.031135	0.623170
