data_functionalizedCrystal
_audit_creation_method	'MofGen! by Chris Wilmer'
_symmetry_space_group_name_H-M	'P1'
_symmetry_Int_Tables_number	1
_symmetry_cell_setting	triclinic
loop_
_symmetry_equiv_pos_as_xyz
  x,y,z
_cell_length_a	15.298068
_cell_length_b	19.120786
_cell_length_c	15.296720
_cell_angle_alpha	83.185849
_cell_angle_beta	91.645182
_cell_angle_gamma	101.659200
loop_
_atom_site_label
_atom_site_type_symbol
_atom_site_fract_x
_atom_site_fract_y
_atom_site_fract_z
Zn1	Zn	1.244199	-0.208429	0.714333
Zn2	Zn	1.265316	-0.302528	0.561981
Zn3	Zn	1.123378	-0.201621	0.542926
Zn4	Zn	1.091816	-0.341806	0.680549
O5	O	1.181177	-0.263596	0.624947
O6	O	1.370174	-0.207323	0.716237
O7	O	1.268535	-0.269855	0.438098
O8	O	1.143777	-0.104476	0.571827
O9	O	1.385689	-0.276456	0.604305
O10	O	1.232543	-0.109478	0.697760
O11	O	1.164254	-0.195720	0.424098
O12	O	0.996017	-0.233806	0.539068
O13	O	1.089983	-0.343401	0.806386
O14	O	0.972828	-0.336799	0.640179
O15	O	1.201938	-0.245409	0.831208
O16	O	1.237930	-0.405786	0.571546
O17	O	1.110460	-0.434644	0.658657
C18	C	0.952485	-0.288827	0.583890
C19	C	0.854645	-0.299641	0.566346
C20	C	0.546464	-0.186483	0.750334
C21	C	0.638389	-0.176326	0.766823
C22	C	0.692457	-0.207153	0.716705
C23	C	0.654592	-0.248141	0.650095
C24	C	0.562658	-0.258304	0.633609
C25	C	0.708651	-0.278974	0.599980
C26	C	0.670785	-0.319961	0.533370
C27	C	0.578860	-0.330122	0.516887
C28	C	0.524791	-0.299295	0.567005
C29	C	0.800585	-0.268811	0.616466
C30	C	0.816778	-0.340632	0.499741
C31	C	0.724854	-0.350789	0.483252
C32	C	1.173082	-0.445638	0.613526
C33	C	1.169694	-0.523513	0.608684
C34	C	1.214267	-0.562654	0.672013
C35	C	1.211080	-0.635825	0.667463
C36	C	1.163324	-0.669853	0.599581
C37	C	1.118744	-0.630708	0.536249
C38	C	1.121927	-0.557538	0.540802
C39	C	1.151400	-0.890650	0.582554
C40	C	1.148223	-0.963824	0.578003
C41	C	1.240558	-0.968937	0.709219
C42	C	1.243741	-0.895765	0.713764
C43	C	1.199158	-0.856627	0.650434
C44	C	1.160067	-0.744646	0.594928
C45	C	1.202410	-0.781837	0.655092
C46	C	1.410763	-0.238268	0.666165
C47	C	1.508598	-0.227474	0.683730
C48	C	1.140084	-0.299546	0.851143
C49	C	1.122572	-0.314866	0.947534
C50	C	1.189325	-0.080843	0.636436
C51	C	1.192797	-0.002965	0.641332
C52	C	1.222164	-0.227730	0.399644
C53	C	1.239854	-0.212194	0.303296
C54	C	1.306373	-0.153978	1.270938
C55	C	1.322832	-0.139585	1.180375
C56	C	1.272768	-0.183404	1.122160
C57	C	1.206244	-0.241618	1.154518
C58	C	1.189788	-0.256016	1.245090
C59	C	1.156183	-0.285442	1.096313
C60	C	1.089658	-0.343656	1.128670
C61	C	1.073206	-0.358051	1.219234
C62	C	1.123269	-0.314232	1.277449
C63	C	1.172638	-0.271044	1.005740
C64	C	1.056053	-0.373082	0.979893
C65	C	1.039595	-0.387475	1.070456
H66	H	0.860800	-0.365738	0.458935
H67	H	1.121186	-0.772359	0.539656
O68	O	0.688131	-0.390509	0.418443
C69	C	0.726969	-0.358887	0.337035
H70	H	0.755498	-0.299437	0.340810
H71	H	0.674021	-0.364739	0.282963
H72	H	0.782791	-0.386912	0.321501
O73	O	1.354871	-0.111367	1.327508
C74	C	1.297259	-0.079985	1.373768
H75	H	1.233087	-0.078957	1.334300
H76	H	1.331316	-0.022719	1.383914
H77	H	1.280786	-0.112901	1.440495
O78	O	0.675292	-0.136448	0.831418
C79	C	0.739404	-0.077414	0.794511
H80	H	0.764017	-0.090067	0.729661
H81	H	0.798052	-0.066543	0.842032
H82	H	0.707989	-0.027897	0.781995
H83	H	0.831406	-0.235438	0.670700
O84	O	1.072286	-0.663862	0.470415
C85	C	1.004578	-0.720321	0.506891
H86	H	1.023148	-0.738272	0.577521
H87	H	0.996994	-0.767474	0.466241
H88	H	0.938841	-0.700874	0.506406
O89	O	0.493834	-0.156659	0.799031
C90	C	0.428756	-0.211393	0.842934
H91	H	0.418213	-0.261095	0.806440
H92	H	0.363251	-0.191878	0.844809
H93	H	0.452180	-0.225466	0.913054
O94	O	0.435464	-0.309245	0.551125
C95	C	0.388871	-0.343919	0.627570
H96	H	0.433994	-0.374345	0.670943
H97	H	0.327016	-0.383303	0.608158
H98	H	0.367928	-0.302148	0.665425
H99	H	1.226803	-0.223645	0.979404
H100	H	1.286173	-0.171681	1.048420
H101	H	0.985429	-0.434874	1.096815
H102	H	1.247385	-0.667689	0.719027
H103	H	0.767307	-0.198878	0.730132
H104	H	1.085629	-0.525671	0.489234
H105	H	0.548031	-0.363503	0.462655
H106	H	1.241289	-0.754130	0.710364
O107	O	1.260665	-0.529721	0.738036
C108	C	1.299338	-0.579958	0.792945
H109	H	1.260473	-0.636592	0.786193
H110	H	1.297172	-0.568625	0.864273
H111	H	1.371639	-0.575282	0.772771
O112	O	1.107970	-0.852735	0.521044
C113	C	1.016014	-0.883348	0.523065
H114	H	1.005796	-0.941966	0.552771
H115	H	0.987870	-0.880302	0.453207
H116	H	0.980018	-0.852531	0.564848
H117	H	1.376998	-0.092188	1.154036
H118	H	1.109872	-0.325948	1.351194
O119	O	1.290144	-0.862830	0.779782
C120	C	1.328827	-0.913063	0.834689
H121	H	1.289957	-0.969698	0.827953
H122	H	1.326678	-0.901721	0.906015
H123	H	1.401123	-0.908391	0.814500
O124	O	1.008646	-0.414683	1.250569
C125	C	1.028805	-0.478873	1.227511
H126	H	1.074527	-0.466134	1.167739
H127	H	0.964444	-0.516805	1.211025
H128	H	1.063744	-0.505586	1.285123
O129	O	1.283708	-1.007022	0.770805
C130	C	1.221535	-1.063806	0.815115
H131	H	1.152201	-1.050293	0.809334
H132	H	1.241146	-1.071702	0.887538
H133	H	1.220983	-1.115339	0.784306
H134	H	1.109330	-0.991528	0.522724
H135	H	1.015289	-0.408764	0.932494
