data_functionalizedCrystal
_audit_creation_method	'MofGen! by Chris Wilmer'
_symmetry_space_group_name_H-M	'P1'
_symmetry_Int_Tables_number	1
_symmetry_cell_setting	triclinic
loop_
_symmetry_equiv_pos_as_xyz
  x,y,z
_cell_length_a	17.019284
_cell_length_b	16.109301
_cell_length_c	14.586319
_cell_angle_alpha	89.999213
_cell_angle_beta	86.121193
_cell_angle_gamma	96.574324
loop_
_atom_site_label
_atom_site_type_symbol
_atom_site_fract_x
_atom_site_fract_y
_atom_site_fract_z
O1	O	-0.101395	1.103035	-0.068172
O2	O	0.231939	1.436368	0.265162
O3	O	0.565272	1.769702	0.598495
O4	O	-0.114013	0.860961	-0.067189
O5	O	0.219320	1.194294	0.266144
O6	O	0.552653	1.527628	0.599478
O7	O	0.007130	0.988756	-0.076747
O8	O	0.340464	1.322090	0.256587
O9	O	0.673797	1.655423	0.589920
O10	O	-0.222539	0.975240	-0.058614
O11	O	0.110795	1.308573	0.274719
O12	O	0.444128	1.641907	0.608053
O13	O	0.007132	0.988747	0.075734
O14	O	0.340466	1.322081	0.409067
O15	O	0.673799	1.655414	0.742401
O16	O	-0.114011	0.860952	0.085292
O17	O	0.219322	1.194286	0.418625
O18	O	0.552655	1.527619	0.751958
O19	O	-0.101393	1.103026	0.084309
O20	O	0.231940	1.436359	0.417642
O21	O	0.565274	1.769693	0.750976
Cu22	Cu	-0.107702	0.981988	0.098723
Cu23	Cu	0.225631	1.315322	0.432056
Cu24	Cu	0.558965	1.648655	0.765390
Cu25	Cu	-0.107704	0.981999	-0.081603
Cu26	Cu	0.225629	1.315332	0.251730
Cu27	Cu	0.558962	1.648666	0.585064
O28	O	-0.222537	0.975231	0.093867
O29	O	0.110797	1.308564	0.427200
O30	O	0.444130	1.641898	0.760533
C31	C	-0.113501	0.829982	0.009009
C32	C	0.219832	1.163316	0.342342
C33	C	0.553165	1.496649	0.675676
C34	C	-0.111969	0.737688	0.008882
C35	C	0.221365	1.071022	0.342216
C36	C	0.554698	1.404355	0.675549
C37	C	-0.180290	0.515351	0.014287
C38	C	0.153043	0.848685	0.347620
C39	C	0.486377	1.182018	0.680954
C40	C	-0.178844	0.428632	0.014179
C41	C	0.154489	0.761966	0.347512
C42	C	0.487823	1.095299	0.680845
C43	C	-0.035111	0.448643	0.002827
C44	C	0.298222	0.781976	0.336161
C45	C	0.631556	1.115309	0.669494
C46	C	-0.036558	0.535360	0.002942
C47	C	0.296776	0.868693	0.336275
C48	C	0.630109	1.202027	0.669609
C49	C	-0.109150	0.568712	0.008668
C50	C	0.224184	0.902045	0.342001
C51	C	0.557517	1.235378	0.675334
C52	C	-0.106257	0.395275	0.008444
C53	C	0.227077	0.728609	0.341778
C54	C	0.560410	1.061942	0.675111
C55	C	-0.104688	0.301251	0.008327
C56	C	0.228645	0.634584	0.341660
C57	C	0.561978	0.967918	0.674994
C58	C	-0.110718	0.662742	0.008787
C59	C	0.222615	0.996076	0.342120
C60	C	0.555948	1.329409	0.675453
C61	C	-0.251927	0.975746	0.019947
C62	C	0.081407	1.309080	0.353280
C63	C	0.414740	1.642413	0.686613
C64	C	-0.339497	0.977279	0.026860
C65	C	-0.006163	1.310612	0.360194
C66	C	0.327170	1.643945	0.693527
C67	C	-0.380635	0.978004	-0.053009
C68	C	-0.047302	1.311338	0.280324
C69	C	0.286031	1.644671	0.613657
C70	C	-0.462915	0.979455	-0.046513
C71	C	-0.129582	1.312788	0.286820
C72	C	0.203751	1.646122	0.620154
C73	C	-0.504056	0.980174	0.039854
C74	C	-0.170723	1.313507	0.373187
C75	C	0.162611	1.646841	0.706521
C76	C	-0.462911	0.979451	0.119730
C77	C	-0.129578	1.312784	0.453063
C78	C	0.203755	1.646117	0.786396
C79	C	-0.380632	0.978006	0.113232
C80	C	-0.047299	1.311340	0.446566
C81	C	0.286035	1.644673	0.779899
C82	C	-0.752486	0.984541	0.063630
C83	C	-0.419152	1.317874	0.396963
C84	C	-0.085819	1.651207	0.730297
C85	C	-0.834771	0.985983	0.070121
C86	C	-0.501438	1.319316	0.403455
C87	C	-0.168104	1.652650	0.736788
C88	C	-0.834769	0.985988	-0.096122
C89	C	-0.501436	1.319322	0.237211
C90	C	-0.168102	1.652655	0.570544
C91	C	-0.752489	0.984539	-0.102612
C92	C	-0.419156	1.317872	0.230721
C93	C	-0.085822	1.651206	0.564055
C94	C	-0.711351	0.983820	-0.022736
C95	C	-0.378018	1.317154	0.310597
C96	C	-0.044684	1.650487	0.643930
C97	C	-0.588160	0.981654	0.046496
C98	C	-0.254826	1.314987	0.379830
C99	C	0.078507	1.648321	0.713163
C100	C	-0.627248	0.982346	-0.029380
C101	C	-0.293915	1.315680	0.303954
C102	C	0.039419	1.649013	0.637287
C103	C	0.036520	0.988241	-0.002829
C104	C	0.369854	1.321574	0.330505
C105	C	0.703187	1.654908	0.663838
C106	C	0.124090	0.986708	-0.009749
C107	C	0.457424	1.320042	0.323585
C108	C	0.790757	1.653375	0.656918
C109	C	-0.101905	1.134005	0.008109
C110	C	0.231428	1.467338	0.341442
C111	C	0.564762	1.800672	0.674776
C112	C	-0.103437	1.226299	0.008229
C113	C	0.229896	1.559632	0.341563
C114	C	0.563229	1.892965	0.674896
N115	N	-0.107700	0.981987	0.225555
N116	N	0.225633	1.315320	0.558888
N117	N	0.558967	1.648654	0.892221
N118	N	-0.107700	0.982007	-0.208435
N119	N	0.225633	1.315340	0.124898
N120	N	0.558967	1.648673	0.458232
C121	C	-0.054076	1.038593	0.456330
C122	C	0.279258	1.371927	0.789664
C123	C	0.612591	1.705260	1.122997
C124	C	-0.054074	1.038596	0.552312
C125	C	0.279260	1.371929	0.885645
C126	C	0.612593	1.705262	1.218978
C127	C	-0.161327	0.925394	0.560783
C128	C	0.172006	1.258728	0.894116
C129	C	0.505340	1.592061	1.227449
C130	C	-0.161324	0.925389	0.464803
C131	C	0.172009	1.258722	0.798136
C132	C	0.505342	1.592055	1.131470
C133	C	-0.107700	0.981993	0.412579
C134	C	0.225634	1.315326	0.745913
C135	C	0.558967	1.648660	1.079246
C136	C	-0.107700	0.982001	0.604540
C137	C	0.225633	1.315334	0.937873
C138	C	0.558966	1.648668	1.271207
C139	C	-0.107699	0.982003	0.708607
C140	C	0.225635	1.315337	1.041940
C141	C	0.558968	1.648670	1.375274
C142	C	-0.107700	0.981990	0.308506
C143	C	0.225633	1.315323	0.641839
C144	C	0.558966	1.648657	0.975172
H145	H	0.021377	0.578809	-0.001632
H146	H	0.354710	0.912142	0.331702
H147	H	0.688043	1.245475	0.665035
H148	H	-0.236774	0.385189	0.018757
H149	H	0.096560	0.718523	0.352090
H150	H	0.429893	1.051856	0.685423
O151	O	-0.340652	0.977153	-0.136881
O152	O	-0.007319	1.310486	0.196452
O153	O	0.326014	1.643819	0.529785
C154	C	-0.302001	0.904355	-0.144892
C155	C	0.031333	1.237688	0.188442
C156	C	0.364666	1.571021	0.521775
H157	H	-0.333061	0.854487	-0.095275
H158	H	0.000272	1.187820	0.238059
H159	H	0.333606	1.521153	0.571392
H160	H	-0.304068	0.880181	-0.218244
H161	H	0.029265	1.213515	0.115090
H162	H	0.362598	1.546848	0.448423
H163	H	-0.237620	0.919529	-0.127636
H164	H	0.095714	1.252862	0.205698
H165	H	0.429047	1.586195	0.539031
H166	H	-0.239399	0.542503	0.018956
H167	H	0.093935	0.875837	0.352289
H168	H	0.427268	1.209170	0.685623
H169	H	-0.010410	1.084683	0.413812
H170	H	0.322923	1.418016	0.747145
H171	H	0.656257	1.751350	1.080479
O172	O	0.035332	0.416104	-0.002777
O173	O	0.368666	0.749437	0.330556
O174	O	0.701999	1.082771	0.663890
C175	C	0.021357	0.328123	-0.001653
C176	C	0.354690	0.661456	0.331680
C177	C	0.688023	0.994789	0.665014
H178	H	-0.040209	0.307681	-0.025658
H179	H	0.293124	0.641014	0.307676
H180	H	0.626457	0.974348	0.641009
H181	H	0.067801	0.301557	-0.049592
H182	H	0.401134	0.634890	0.283741
H183	H	0.734468	0.968223	0.617074
H184	H	0.025177	0.303986	0.071197
H185	H	0.358511	0.637319	0.404530
H186	H	0.691844	0.970652	0.737864
O187	O	-0.502940	0.979936	-0.124069
O188	O	-0.169607	1.313269	0.209264
O189	O	0.163726	1.646603	0.542597
C190	C	-0.559412	0.908731	-0.124520
C191	C	-0.226079	1.242065	0.208813
C192	C	0.107255	1.575398	0.542146
H193	H	-0.574761	0.885058	-0.051111
H194	H	-0.241428	1.218391	0.282222
H195	H	0.091905	1.551724	0.615556
H196	H	-0.615251	0.925816	-0.155402
H197	H	-0.281918	1.259150	0.177931
H198	H	0.051416	1.592483	0.511264
H199	H	-0.533890	0.857743	-0.167411
H200	H	-0.200556	1.191076	0.165922
H201	H	0.132777	1.524410	0.499256
H202	H	-0.718997	0.983959	-0.172941
H203	H	-0.385664	1.317293	0.160392
H204	H	-0.052330	1.650626	0.493726
H205	H	-0.204992	0.879294	0.429179
H206	H	0.128341	1.212627	0.762512
H207	H	0.461675	1.545960	1.095845
H208	H	-0.204988	0.879310	0.603312
H209	H	0.128345	1.212643	0.936646
H210	H	0.461678	1.545976	1.269979
O211	O	-0.874829	0.986579	-0.173644
O212	O	-0.541496	1.319913	0.159690
O213	O	-0.208162	1.653246	0.493023
C214	C	-0.931362	0.915432	-0.174170
C215	C	-0.598029	1.248765	0.159163
C216	C	-0.264696	1.582099	0.492496
H217	H	-0.946678	0.891652	-0.100795
H218	H	-0.613345	1.224985	0.232538
H219	H	-0.280011	1.558318	0.565872
H220	H	-0.987206	0.932633	-0.204946
H221	H	-0.653873	1.265967	0.128388
H222	H	-0.320539	1.599300	0.461721
H223	H	-0.905920	0.864480	-0.217195
H224	H	-0.572586	1.197814	0.116138
H225	H	-0.239253	1.531147	0.449471
O226	O	-0.502932	0.979998	0.203605
O227	O	-0.169599	1.313332	0.536938
O228	O	0.163734	1.646665	0.870271
C229	C	-0.559491	0.908870	0.213019
C230	C	-0.226158	1.242203	0.546353
C231	C	0.107175	1.575537	0.879686
H232	H	-0.540947	0.858138	0.164384
H233	H	-0.207614	1.191471	0.497718
H234	H	0.125719	1.524804	0.831051
H235	H	-0.563437	0.884720	0.286843
H236	H	-0.230103	1.218054	0.620176
H237	H	0.103230	1.551387	0.953510
H238	H	-0.619824	0.926234	0.195445
H239	H	-0.286491	1.259568	0.528779
H240	H	0.046843	1.592901	0.862112
H241	H	-0.010407	1.084684	0.587931
H242	H	0.322926	1.418017	0.921264
H243	H	0.656259	1.751351	1.254597
O244	O	-0.874676	0.986552	0.154070
O245	O	-0.541342	1.319885	0.487403
O246	O	-0.208009	1.653219	0.820737
C247	C	-0.863538	0.914208	0.203730
C248	C	-0.530205	1.247542	0.537063
C249	C	-0.196872	1.580875	0.870397
H250	H	-0.806770	0.889188	0.175627
H251	H	-0.473436	1.222521	0.508960
H252	H	-0.140103	1.555854	0.842293
H253	H	-0.858734	0.930325	0.279397
H254	H	-0.525401	1.263658	0.612731
H255	H	-0.192068	1.596991	0.946064
H256	H	-0.916104	0.864615	0.196324
H257	H	-0.582771	1.197949	0.529657
H258	H	-0.249437	1.531282	0.862991
O259	O	-0.712468	0.983951	0.141180
O260	O	-0.379134	1.317284	0.474513
O261	O	-0.045801	1.650618	0.807846
C262	C	-0.655888	1.055059	0.141708
C263	C	-0.322554	1.388392	0.475042
C264	C	0.010779	1.721725	0.808375
H265	H	-0.674418	1.105830	0.096043
H266	H	-0.341085	1.439164	0.429377
H267	H	-0.007752	1.772497	0.762710
H268	H	-0.651929	1.079160	0.214926
H269	H	-0.318596	1.412493	0.548260
H270	H	0.014737	1.745826	0.881593
H271	H	-0.595565	1.037687	0.114585
H272	H	-0.262231	1.371020	0.447918
H273	H	0.071102	1.704353	0.781252
H274	H	-0.347138	0.977415	0.178271
H275	H	-0.013805	1.310748	0.511604
H276	H	0.319529	1.644082	0.844938
O277	O	-0.587313	0.981781	-0.113300
O278	O	-0.253980	1.315115	0.220033
O279	O	0.079353	1.648448	0.553366
C280	C	-0.598475	1.054085	-0.163016
C281	C	-0.265142	1.387418	0.170317
C282	C	0.068192	1.720752	0.503650
H283	H	-0.614823	1.104801	-0.113106
H284	H	-0.281490	1.438134	0.220228
H285	H	0.051843	1.771467	0.553561
H286	H	-0.541360	1.077276	-0.205239
H287	H	-0.208027	1.410610	0.128094
H288	H	0.125307	1.743943	0.461427
H289	H	-0.648265	1.038646	-0.210906
H290	H	-0.314931	1.371979	0.122427
H291	H	0.018402	1.705312	0.455761
O292	O	-0.628188	0.982193	0.130368
O293	O	-0.294855	1.315526	0.463701
O294	O	0.038479	1.648859	0.797034
C295	C	-0.684751	0.911066	0.139766
C296	C	-0.351417	1.244399	0.473099
C297	C	-0.018084	1.577733	0.806432
H298	H	-0.666202	0.860337	0.091130
H299	H	-0.332868	1.193670	0.424464
H300	H	0.000465	1.527003	0.757797
H301	H	-0.688709	0.886911	0.213588
H302	H	-0.355375	1.220244	0.546921
H303	H	-0.022042	1.553577	0.880254
H304	H	-0.745079	0.928435	0.122180
H305	H	-0.411745	1.261769	0.455514
H306	H	-0.078412	1.595102	0.788847
