data_functionalizedCrystal
_audit_creation_method	'MofGen! by Chris Wilmer'
_symmetry_space_group_name_H-M	'P1'
_symmetry_Int_Tables_number	1
_symmetry_cell_setting	triclinic
loop_
_symmetry_equiv_pos_as_xyz
  x,y,z
_cell_length_a	12.759401
_cell_length_b	18.101397
_cell_length_c	12.759393
_cell_angle_alpha	89.963261
_cell_angle_beta	89.982824
_cell_angle_gamma	90.020627
loop_
_atom_site_label
_atom_site_type_symbol
_atom_site_fract_x
_atom_site_fract_y
_atom_site_fract_z
Zn1	Zn	1.606200	-0.294789	-0.593937
Zn2	Zn	1.606080	-0.418649	-0.418238
Zn3	Zn	1.430506	-0.294826	-0.418276
Zn4	Zn	1.430473	-0.418594	-0.593880
O5	O	1.518314	-0.356715	-0.506083
O6	O	1.753205	-0.311227	-0.570638
O7	O	1.582754	-0.402262	-0.271222
O8	O	1.453876	-0.191188	-0.441618
O9	O	1.753117	-0.402226	-0.441553
O10	O	1.582957	-0.191161	-0.570675
O11	O	1.453760	-0.311290	-0.271250
O12	O	1.283480	-0.311237	-0.441562
O13	O	1.453819	-0.402133	-0.740909
O14	O	1.283456	-0.402168	-0.570578
O15	O	1.582925	-0.311174	-0.740950
O16	O	1.582722	-0.522275	-0.441498
O17	O	1.453703	-0.522234	-0.570541
C18	C	1.245347	-0.356701	-0.506069
C19	C	1.128571	-0.356713	-0.506087
C20	C	1.073723	-0.404137	-0.573154
C21	C	0.963999	-0.404146	-0.573166
C22	C	0.963979	-0.309306	-0.439034
C23	C	1.073701	-0.309293	-0.439029
C24	C	1.073734	-0.458895	-0.650591
C25	C	0.964010	-0.458904	-0.650603
C26	C	1.518225	-0.549125	-0.506032
C27	C	1.518282	-0.631439	-0.506045
C28	C	1.518416	-0.930530	-0.506141
C29	C	1.599365	-0.899200	-0.424733
C30	C	1.599645	-0.813581	-0.424944
C31	C	1.518350	-0.782148	-0.506093
C32	C	1.548366	-0.813147	-0.616833
C33	C	1.548992	-0.898791	-0.616390
C34	C	1.407236	-0.899042	-0.477767
C35	C	1.407785	-0.813392	-0.475295
C36	C	1.518311	-0.698288	-0.506072
C37	C	1.518458	-1.014390	-0.506169
C38	C	1.792348	-0.356729	-0.506098
C39	C	1.909124	-0.356735	-0.506104
C40	C	1.518382	-0.356643	-0.780116
C41	C	1.518410	-0.356612	-0.896893
C42	C	1.518433	-0.163553	-0.506157
C43	C	1.518484	-0.081239	-0.506189
C44	C	1.451207	-0.403952	-0.951735
C45	C	1.451246	-0.403926	-1.061459
C46	C	1.585693	-0.309213	-1.061490
C47	C	1.585659	-0.309244	-0.951768
C48	C	1.373582	-0.458632	-0.951718
C49	C	1.373620	-0.458605	-1.061442
C50	C	1.518308	-0.356733	-0.233115
C51	C	1.518483	-0.356554	-0.116339
H52	H	0.934207	-0.516246	-0.628662
H53	H	1.118354	-0.270671	-0.384423
H54	H	1.402739	-0.513084	-1.095453
F55	F	1.267299	-0.438490	-1.100379
H56	H	0.930013	-0.438432	-0.727958
H57	H	1.103543	-0.443600	-0.732000
H58	H	1.640445	-0.270647	-1.106182
H59	H	1.628724	-0.791637	-0.641276
F60	F	1.707290	-0.786724	-0.449487
H61	H	1.107741	-0.513348	-0.621299
H62	H	1.344228	-0.792003	-0.530246
H63	H	1.491210	-0.792783	-0.679120
H64	H	1.630260	-0.918708	-0.640426
H65	H	1.580866	-0.792626	-0.342831
F66	F	1.402003	-0.533613	-0.912768
H67	H	1.296292	-0.438092	-0.917693
H68	H	1.385152	-0.793140	-0.393798
F69	F	1.575123	-0.926193	-0.317082
F70	F	1.706424	-0.927254	-0.448988
H71	H	1.492616	-0.919514	-0.679135
H72	H	0.919291	-0.270698	-0.384438
F73	F	1.371543	-0.927361	-0.374049
F74	F	1.657198	-0.258867	-0.893404
F75	F	1.328402	-0.925526	-0.555264
