data_functionalizedCrystal
_audit_creation_method	'MofGen! by Chris Wilmer'
_symmetry_space_group_name_H-M	'P1'
_symmetry_Int_Tables_number	1
_symmetry_cell_setting	triclinic
loop_
_symmetry_equiv_pos_as_xyz
  x,y,z
_cell_length_a	16.109302
_cell_length_b	14.853559
_cell_length_c	14.586319
_cell_angle_alpha	89.998399
_cell_angle_beta	89.994552
_cell_angle_gamma	83.546617
loop_
_atom_site_label
_atom_site_type_symbol
_atom_site_fract_x
_atom_site_fract_y
_atom_site_fract_z
O1	O	1.103290	0.115884	-0.076277
O2	O	0.861248	0.130305	-0.076269
O3	O	0.988738	-0.008146	-0.076272
O4	O	0.975800	0.254336	-0.076274
O5	O	0.988729	-0.008148	0.076208
O6	O	0.861239	0.130303	0.076212
O7	O	1.103281	0.115882	0.076204
Cu8	Cu	0.982259	0.123092	0.090130
Cu9	Cu	0.982270	0.123095	-0.090196
O10	O	0.975791	0.254333	0.076207
C11	C	0.830268	0.129720	-0.000028
C12	C	0.737970	0.127968	-0.000025
C13	C	0.525619	0.123917	0.083083
C14	C	0.438896	0.122261	0.083080
C15	C	0.438917	0.122268	-0.083163
C16	C	0.525638	0.123917	-0.083159
C17	C	0.568986	0.124746	-0.000033
C18	C	0.395543	0.121441	-0.000040
C19	C	0.301514	0.119646	-0.000044
C20	C	0.663021	0.126539	-0.000029
C21	C	0.988149	-0.041735	-0.000034
C22	C	0.986396	-0.141816	-0.000039
C23	C	0.978964	-0.564978	-0.083156
C24	C	0.978954	-0.564975	0.083085
C25	C	0.980608	-0.470945	0.083085
C26	C	0.981439	-0.423926	-0.000036
C27	C	0.980615	-0.470939	-0.083158
C28	C	0.981423	-0.423924	0.166206
C29	C	0.983076	-0.329888	0.166210
C30	C	0.983913	-0.282868	0.083088
C31	C	0.983090	-0.329887	-0.000038
C32	C	0.983921	-0.282868	-0.083159
C33	C	0.983104	-0.329886	-0.166285
C34	C	0.981452	-0.423919	-0.166280
C35	C	0.985565	-0.188835	0.083082
C36	C	0.985572	-0.188829	-0.083161
C37	C	1.134261	0.116467	-0.000040
C38	C	1.226559	0.118219	-0.000048
C39	C	0.976380	0.287922	-0.000034
C40	C	0.978133	0.388004	-0.000035
N41	N	0.982258	0.123090	0.216962
N42	N	0.982278	0.123090	-0.217028
C43	C	1.038729	0.061804	0.451967
C44	C	1.038732	0.061802	0.547948
C45	C	0.925800	0.184378	0.547961
C46	C	0.925795	0.184376	0.451981
C47	C	0.982264	0.123090	0.403987
C48	C	0.982272	0.123090	0.595948
C49	C	0.982274	0.123088	0.700015
C50	C	0.982261	0.123090	0.299913
H51	H	0.403590	0.121586	0.150761
C52	C	0.864393	0.250776	0.399831
C53	C	0.813432	0.202733	0.344758
C54	C	0.756855	0.263865	0.296713
H55	H	0.894244	0.288334	0.362306
H56	H	0.830718	0.287269	0.442129
H57	H	0.847103	0.166255	0.302465
H58	H	0.783562	0.165178	0.382260
H59	H	0.723180	0.300358	0.339011
H60	H	0.786713	0.301419	0.259193
H61	H	0.722266	0.231276	0.259347
C62	C	0.572541	0.124756	0.173427
C63	C	0.515998	0.123649	0.246215
C64	C	0.559191	0.124405	0.329454
H65	H	0.600094	0.177926	0.177021
H66	H	0.612636	0.072835	0.176929
H67	H	0.475917	0.175565	0.242714
H68	H	0.488443	0.070483	0.242651
H69	H	0.599287	0.072484	0.332956
H70	H	0.586743	0.177576	0.333039
H71	H	0.520835	0.123646	0.378851
C72	C	0.391781	0.121565	-0.173381
C73	C	0.332744	0.198149	-0.178243
C74	C	0.289316	0.197542	-0.261344
H75	H	0.364155	0.068442	-0.176930
H76	H	0.429998	0.122343	-0.222910
H77	H	0.294532	0.197364	-0.128727
H78	H	0.360348	0.251284	-0.174710
H79	H	0.327533	0.198320	-0.310873
H80	H	0.261695	0.144416	-0.264885
H81	H	0.249260	0.249508	-0.264657
H82	H	0.560949	0.124590	-0.150846
C83	C	0.864364	0.250813	0.600026
C84	C	0.782651	0.236148	0.576715
C85	C	0.726034	0.297324	0.624667
H86	H	0.873343	0.311026	0.584331
H87	H	0.872400	0.242033	0.664068
H88	H	0.774619	0.244936	0.512687
H89	H	0.773645	0.175948	0.592411
H90	H	0.734070	0.288544	0.688709
H91	H	0.735021	0.357533	0.608968
H92	H	0.670586	0.287377	0.608863
H93	H	0.983775	-0.291590	-0.233962
C94	C	0.986429	-0.137940	-0.173506
C95	C	0.985340	-0.199242	-0.246296
C96	C	0.986118	-0.152395	-0.329534
H97	H	1.035503	-0.108139	-0.177093
H98	H	0.938607	-0.094385	-0.177012
H99	H	1.033158	-0.242780	-0.242791
H100	H	0.936270	-0.229045	-0.242739
H101	H	0.938296	-0.108840	-0.333040
H102	H	1.035193	-0.122596	-0.333111
H103	H	0.985372	-0.193979	-0.378932
C104	C	0.980512	-0.475122	-0.256429
C105	C	0.978861	-0.567532	-0.238633
C106	C	0.977980	-0.614729	-0.321654
H107	H	1.029214	-0.466715	-0.290655
H108	H	0.932319	-0.452867	-0.290586
H109	H	1.027049	-0.589780	-0.204491
H110	H	0.930162	-0.575967	-0.204421
H111	H	0.929787	-0.592474	-0.355811
H112	H	1.026683	-0.606315	-0.355874
H113	H	0.976852	-0.677433	-0.309591
H114	H	0.980742	-0.462213	0.233878
C115	C	0.977928	-0.616123	0.173256
C116	C	0.905520	-0.659963	0.178111
C117	C	0.904557	-0.707105	0.261160
H118	H	0.978614	-0.574757	0.222840
H119	H	1.025703	-0.659745	0.176705
H120	H	0.857757	-0.616345	0.174670
H121	H	0.904819	-0.701343	0.128546
H122	H	0.952332	-0.750727	0.264609
H123	H	0.905245	-0.665732	0.310737
H124	H	0.855433	-0.736862	0.264461
C125	C	0.984015	-0.279015	0.256552
C126	C	0.982956	-0.340323	0.329345
C127	C	0.983837	-0.293493	0.412581
H128	H	0.936232	-0.235433	0.260146
H129	H	1.033127	-0.249252	0.260050
H130	H	0.933849	-0.370070	0.325848
H131	H	1.030735	-0.383905	0.325782
H132	H	1.032949	-0.263730	0.416079
H133	H	0.936053	-0.249913	0.416165
H134	H	0.983126	-0.335084	0.461980
H135	H	0.978302	-0.603264	-0.150835
C136	C	0.986275	-0.137708	0.173291
C137	C	0.915740	-0.073571	0.178142
C138	C	0.916359	-0.026462	0.261236
H139	H	1.035308	-0.107834	0.176836
H140	H	0.985494	-0.179137	0.222826
H141	H	0.916529	-0.032148	0.128620
H142	H	0.866696	-0.103420	0.174612
H143	H	0.915578	-0.067891	0.310771
H144	H	0.965395	0.003406	0.264774
H145	H	0.868499	0.017055	0.264542
H146	H	1.084709	0.011900	0.412893
H147	H	1.084710	0.011897	0.587011
