data_functionalizedCrystal
_audit_creation_method	'MofGen! by Chris Wilmer'
_symmetry_space_group_name_H-M	'P1'
_symmetry_Int_Tables_number	1
_symmetry_cell_setting	triclinic
loop_
_symmetry_equiv_pos_as_xyz
  x,y,z
_cell_length_a	12.759401
_cell_length_b	14.908178
_cell_length_c	12.759386
_cell_angle_alpha	86.638065
_cell_angle_beta	89.957659
_cell_angle_gamma	93.313164
loop_
_atom_site_label
_atom_site_type_symbol
_atom_site_fract_x
_atom_site_fract_y
_atom_site_fract_z
Zn1	Zn	1.582339	-0.358892	-0.569863
Zn2	Zn	1.572003	-0.509878	-0.384021
Zn3	Zn	1.406563	-0.359018	-0.394190
Zn4	Zn	1.396479	-0.509724	-0.559670
O5	O	1.489346	-0.434378	-0.476936
O6	O	1.727988	-0.378932	-0.545221
O7	O	1.549952	-0.489983	-0.238341
O8	O	1.438425	-0.232742	-0.426015
O9	O	1.720394	-0.489861	-0.408684
O10	O	1.567567	-0.232650	-0.555081
O11	O	1.428403	-0.379147	-0.245812
O12	O	1.258205	-0.378998	-0.416131
O13	O	1.421239	-0.489599	-0.708051
O14	O	1.250796	-0.489721	-0.537708
O15	O	1.557789	-0.378783	-0.715540
O16	O	1.540174	-0.636117	-0.398800
O17	O	1.411217	-0.636004	-0.527848
C18	C	1.216380	-0.434357	-0.476917
C19	C	1.099602	-0.434370	-0.476933
C20	C	1.048572	-0.376641	-0.413756
C21	C	0.938847	-0.376662	-0.413768
C22	C	0.931191	-0.492144	-0.540143
C23	C	1.040914	-0.492127	-0.540125
C24	C	0.790957	-0.344380	-0.292127
C25	C	0.739925	-0.286637	-0.228960
C26	C	0.781452	-0.198585	-0.218927
C27	C	0.874012	-0.168258	-0.272077
C28	C	0.925040	-0.225997	-0.335252
C29	C	0.883513	-0.314061	-0.345265
C30	C	1.188806	-0.524400	-0.661768
C31	C	1.239836	-0.582134	-0.724949
C32	C	1.198311	-0.670188	-0.734993
C33	C	1.105747	-0.700511	-0.681861
C34	C	1.054718	-0.642777	-0.618680
C35	C	1.096251	-0.554724	-0.608634
C36	C	1.473508	-0.668798	-0.461138
C37	C	1.466829	-0.769084	-0.454414
C38	C	1.588652	-0.957285	-0.576321
C39	C	1.582380	-1.051512	-0.570007
C40	C	1.448008	-1.051768	-0.435479
C41	C	1.454280	-0.957540	-0.441793
C42	C	1.524606	-0.910302	-0.512215
C43	C	1.530882	-0.816073	-0.518523
C44	C	1.396506	-0.816330	-0.384000
C45	C	1.390234	-0.910557	-0.377687
C46	C	1.763378	-0.434399	-0.476955
C47	C	1.880154	-0.434409	-0.476964
C48	C	1.489542	-0.434160	-0.750984
C49	C	1.489626	-0.434067	-0.867768
C50	C	1.505274	-0.199043	-0.492819
C51	C	1.512061	-0.098757	-0.499587
C52	C	1.489215	-0.434530	-0.203958
C53	C	1.489352	-0.434369	-0.087193
C54	C	1.425620	-0.377010	-0.036246
C55	C	1.425760	-0.376857	0.073467
C56	C	1.553365	-0.491428	0.081279
C57	C	1.553230	-0.491576	-0.028433
C58	C	1.394691	-0.270481	0.216001
C59	C	1.330942	-0.213131	0.266951
C60	C	1.229164	-0.199960	0.230606
C61	C	1.191113	-0.244152	0.143312
C62	C	1.254856	-0.301509	0.092368
C63	C	1.356649	-0.314663	0.128710
C64	C	1.584289	-0.597953	-0.170969
C65	C	1.648026	-0.655315	-0.221915
C66	C	1.749806	-0.668496	-0.185570
C67	C	1.787852	-0.624320	-0.098272
C68	C	1.724114	-0.566957	-0.047326
C69	C	1.622336	-0.553775	-0.083678
H70	H	1.239861	-0.717190	-0.786456
H71	H	0.883394	-0.539167	-0.591593
H72	H	1.373610	-0.330425	-0.084086
C73	C	1.370663	-1.103740	-0.358020
H74	H	1.376109	-1.166586	-0.363440
H75	H	1.301093	-1.088334	-0.374352
H76	H	1.387090	-1.088371	-0.288470
H77	H	1.645921	-0.918823	-0.633654
H78	H	1.315191	-0.557429	-0.768235
C79	C	1.652836	-1.103191	-0.640517
H80	H	1.695621	-1.061559	-0.683354
H81	H	1.610197	-1.139929	-0.683795
H82	H	1.696178	-1.139957	-0.597898
H83	H	1.332975	-0.949032	-0.320354
C84	C	1.113130	-0.313119	-0.344243
H85	H	1.185787	-0.321369	-0.353285
H86	H	1.094197	-0.326287	-0.272743
H87	H	1.099244	-0.252505	-0.363831
C88	C	1.765967	-0.518356	0.048694
H89	H	1.835716	-0.534414	0.063042
H90	H	1.722554	-0.535543	0.107844
H91	H	1.765468	-0.455120	0.034422
C92	C	1.234483	-0.427536	-0.650729
H93	H	1.296907	-0.417741	-0.691437
H94	H	1.250059	-0.418928	-0.579099
H95	H	1.184658	-0.386178	-0.674869
C96	C	1.060059	-0.797369	-0.692903
H97	H	0.997619	-0.807156	-0.652218
H98	H	1.109868	-0.838737	-0.668772
H99	H	1.044485	-0.805961	-0.764543
H100	H	1.177260	-0.153263	0.272097
C101	C	1.326048	-0.764647	-0.313486
H102	H	1.339848	-0.701763	-0.327335
H103	H	1.340401	-0.780161	-0.241870
H104	H	1.254420	-0.780124	-0.327769
H105	H	1.000394	-0.201302	-0.378535
H106	H	1.223875	-0.337489	0.021295
C107	C	1.079152	-0.229667	0.103341
H108	H	1.046642	-0.189173	0.146178
H109	H	1.039419	-0.285650	0.106298
H110	H	1.082326	-0.205222	0.032881
C111	C	1.372800	-0.164515	0.362961
H112	H	1.442555	-0.180558	0.377301
H113	H	1.329397	-0.181708	0.422116
H114	H	1.372282	-0.101281	0.348685
C115	C	0.725322	-0.135066	-0.149446
H116	H	0.763304	-0.078277	-0.151090
H117	H	0.721707	-0.160240	-0.079309
H118	H	0.656322	-0.127486	-0.175089
H119	H	1.588147	-0.777613	-0.575861
C120	C	1.506653	-0.284960	0.255972
H121	H	1.539175	-0.325438	0.213122
H122	H	1.503488	-0.309402	0.326427
H123	H	1.546379	-0.228968	0.253010
H124	H	0.907813	-0.096554	-0.263910
C125	C	0.745250	-0.441225	-0.303204
H126	H	0.788891	-0.471270	-0.348443
H127	H	0.676655	-0.439663	-0.331890
H128	H	0.742010	-0.472491	-0.236122
C129	C	1.623614	-0.554363	0.145913
H130	H	1.661557	-0.588541	0.099855
H131	H	1.581130	-0.593864	0.191568
H132	H	1.671511	-0.519509	0.186179
C133	C	0.952898	-0.676131	-0.560236
H134	H	0.935474	-0.736843	-0.575261
H135	H	0.897517	-0.639683	-0.582579
H136	H	0.962898	-0.672456	-0.486805
C137	C	1.899810	-0.638812	-0.058291
H138	H	1.932324	-0.679294	-0.101142
H139	H	1.896638	-0.663255	0.012163
H140	H	1.939547	-0.582825	-0.061251
C141	C	1.472329	-0.583451	-0.210948
H142	H	1.439824	-0.542953	-0.168112
H143	H	1.432590	-0.639431	-0.207991
H144	H	1.475508	-0.559006	-0.281408
C145	C	0.638121	-0.319997	-0.170490
H146	H	0.620705	-0.380716	-0.185495
H147	H	0.582729	-0.283561	-0.192833
H148	H	0.648133	-0.316305	-0.097063
C149	C	1.819915	-0.731596	-0.241610
H150	H	1.782684	-0.756021	-0.298808
H151	H	1.838704	-0.779055	-0.193596
H152	H	1.881608	-0.698627	-0.267016
C153	C	1.606177	-0.703909	-0.317942
H154	H	1.536436	-0.687836	-0.332303
H155	H	1.606675	-0.767142	-0.303686
H156	H	1.649598	-0.686711	-0.377089
