data_functionalizedCrystal
_audit_creation_method	'MofGen! by Chris Wilmer'
_symmetry_space_group_name_H-M	'P1'
_symmetry_Int_Tables_number	1
_symmetry_cell_setting	triclinic
loop_
_symmetry_equiv_pos_as_xyz
  x,y,z
_cell_length_a	17.640112
_cell_length_b	17.640280
_cell_length_c	17.640968
_cell_angle_alpha	65.682561
_cell_angle_beta	92.139080
_cell_angle_gamma	92.184069
loop_
_atom_site_label
_atom_site_type_symbol
_atom_site_fract_x
_atom_site_fract_y
_atom_site_fract_z
Zn1	Zn	1.251359	-0.023073	-0.189698
Zn2	Zn	1.751359	0.476927	0.310302
Zn3	Zn	1.251298	-0.188752	-0.024069
Zn4	Zn	1.751298	0.311248	0.475931
Zn5	Zn	1.106797	-0.075311	-0.076159
Zn6	Zn	1.606797	0.424689	0.423841
Zn7	Zn	1.148399	-0.178182	-0.179117
Zn8	Zn	1.648399	0.321818	0.320883
O9	O	1.189463	-0.116329	-0.117261
O10	O	1.689463	0.383671	0.382739
O11	O	1.354914	-0.027613	-0.150355
O12	O	1.854914	0.472387	0.349645
O13	O	1.214694	-0.199989	0.081425
O14	O	1.714694	0.300011	0.581425
O15	O	1.108588	0.044008	-0.117448
O16	O	1.608588	0.544008	0.382552
O17	O	1.354870	-0.149337	-0.028669
O18	O	1.854870	0.350663	0.471331
O19	O	1.214797	0.082386	-0.200865
O20	O	1.714797	0.582386	0.299135
O21	O	1.108529	-0.116644	0.043155
O22	O	1.608529	0.383356	0.543155
O23	O	1.008752	-0.106394	-0.107188
O24	O	1.508752	0.393606	0.392812
O25	O	1.179493	-0.131321	-0.292925
O26	O	1.679493	0.368679	0.207075
O27	O	1.039317	-0.181973	-0.182831
O28	O	1.539317	0.318027	0.317169
O29	O	1.255137	-0.017364	-0.300699
O30	O	1.755137	0.482636	0.199301
O31	O	1.255033	-0.299739	-0.018409
O32	O	1.755033	0.200261	0.481591
O33	O	1.179434	-0.291973	-0.132322
O34	O	1.679434	0.208027	0.367678
C35	C	0.997182	-0.148705	-0.149514
C36	C	1.497182	0.351295	0.350486
C37	C	0.914929	-0.162571	-0.163327
C38	C	1.414929	0.337429	0.336673
C39	C	1.221764	-0.324990	-0.068579
C40	C	1.721764	0.175010	0.431421
C41	C	1.235655	-0.414238	-0.047768
C42	C	1.735655	0.085762	0.452232
C43	C	0.564743	-0.010979	-0.012337
C44	C	1.064743	0.489021	0.487663
C45	C	0.487458	-0.024022	-0.025323
C46	C	0.987458	0.475978	0.474677
C47	C	0.519334	-0.102905	-0.103880
C48	C	1.019334	0.397095	0.396120
C49	C	0.596623	-0.089865	-0.090904
C50	C	1.096623	0.410135	0.409096
C51	C	0.619321	-0.043903	-0.045131
C52	C	1.119321	0.456097	0.454869
C53	C	0.651201	-0.122789	-0.123697
C54	C	1.151201	0.377211	0.376303
C55	C	0.728483	-0.109754	-0.110718
C56	C	1.228483	0.390246	0.389282
C57	C	0.751188	-0.063796	-0.064946
C58	C	1.251188	0.436204	0.435054
C59	C	0.696603	-0.030868	-0.032152
C60	C	1.196603	0.469132	0.467848
C61	C	0.628502	-0.168756	-0.169465
C62	C	1.128502	0.331244	0.330535
C63	C	0.683080	-0.201680	-0.202259
C64	C	1.183080	0.298320	0.297741
C65	C	0.760364	-0.188640	-0.189285
C66	C	1.260364	0.311360	0.310715
C67	C	0.783068	-0.142682	-0.143512
C68	C	1.283068	0.357318	0.356488
C69	C	0.814949	-0.221568	-0.222079
C70	C	1.314949	0.278432	0.277921
C71	C	0.892231	-0.208534	-0.209100
C72	C	1.392231	0.291466	0.290900
C73	C	0.860351	-0.129647	-0.130533
C74	C	1.360351	0.370353	0.369467
C75	C	1.084287	-0.687787	-0.275600
C76	C	1.584287	-0.187787	0.224400
C77	C	1.097337	-0.771655	-0.256019
C78	C	1.597337	-0.271655	0.243981
C79	C	1.176134	-0.779643	-0.137496
C80	C	1.676134	-0.279643	0.362504
C81	C	1.163094	-0.695773	-0.157069
C82	C	1.663094	-0.195773	0.342931
C83	C	1.117169	-0.649852	-0.226122
C84	C	1.617169	-0.149852	0.273878
C85	C	1.195976	-0.657837	-0.107591
C86	C	1.695976	-0.157837	0.392409
C87	C	1.182933	-0.573976	-0.127160
C88	C	1.682933	-0.073976	0.372840
C89	C	1.137009	-0.528050	-0.196208
C90	C	1.637009	-0.028050	0.303792
C91	C	1.104127	-0.565990	-0.245691
C92	C	1.604127	-0.065990	0.254309
C93	C	1.241896	-0.703761	-0.038535
C94	C	1.741896	-0.203761	0.461465
C95	C	1.274778	-0.665825	0.010944
C96	C	1.774778	-0.165825	0.510944
C97	C	1.261740	-0.581961	-0.008629
C98	C	1.761740	-0.081961	0.491371
C99	C	1.215815	-0.536035	-0.077677
C100	C	1.715815	-0.036035	0.422323
C101	C	1.294622	-0.544020	0.040854
C102	C	1.794622	-0.044020	0.540854
C103	C	1.281579	-0.460159	0.021285
C104	C	1.781579	0.039841	0.521285
C105	C	1.202773	-0.452173	-0.097246
C106	C	1.702773	0.047827	0.402754
C107	C	1.382495	-0.083827	-0.084882
C108	C	1.882495	0.416173	0.415118
C109	C	1.464754	-0.069977	-0.071084
C110	C	1.964754	0.430023	0.428916
C111	C	1.221962	-0.067336	-0.326772
C112	C	1.721962	0.432664	0.173228
C113	C	1.235811	-0.046458	-0.416053
C114	C	1.735811	0.453542	0.083947
C115	C	1.157059	0.093153	-0.166147
C116	C	1.657059	0.593153	0.333853
C117	C	1.143250	0.182422	-0.186980
C118	C	1.643250	0.682422	0.313020
C119	C	1.084469	-0.274453	-0.689444
C120	C	1.584469	0.225547	-0.189444
C121	C	1.097496	-0.254822	-0.773337
C122	C	1.597496	0.245178	-0.273337
C123	C	1.176258	-0.136168	-0.781421
C124	C	1.676258	0.363832	-0.281421
C125	C	1.163234	-0.155787	-0.697528
C126	C	1.663234	0.344213	-0.197528
C127	C	1.117340	-0.224930	-0.651546
C128	C	1.617340	0.275070	-0.151546
C129	C	1.196105	-0.106264	-0.659630
C130	C	1.696105	0.393736	-0.159630
C131	C	1.183085	-0.125884	-0.575743
C132	C	1.683085	0.374116	-0.075743
C133	C	1.137195	-0.195026	-0.529754
C134	C	1.637195	0.304974	-0.029754
C135	C	1.104320	-0.244550	-0.567659
C136	C	1.604320	0.255450	-0.067659
C137	C	1.242004	-0.037124	-0.705612
C138	C	1.742004	0.462876	-0.205612
C139	C	1.274874	0.012398	-0.667713
C140	C	1.774874	0.512398	-0.167713
C141	C	1.261851	-0.007218	-0.583827
C142	C	1.761851	0.492782	-0.083827
C143	C	1.215960	-0.076360	-0.537838
C144	C	1.715960	0.423640	-0.037838
C145	C	1.294725	0.042306	-0.545922
C146	C	1.794725	0.542306	-0.045922
C147	C	1.281706	0.022686	-0.462035
C148	C	1.781706	0.522686	0.037965
C149	C	1.202940	-0.095980	-0.453951
C150	C	1.702940	0.404020	0.046049
C151	C	1.157124	-0.165067	0.091429
C152	C	1.657124	0.334933	0.591429
C153	C	1.143383	-0.185695	0.180681
C154	C	1.643383	0.314305	0.680681
H155	H	0.878832	-0.092205	-0.093275
H156	H	1.378832	0.407795	0.406725
C157	C	1.152453	-0.172042	-0.403366
C158	C	1.652453	0.327958	0.096634
N159	N	1.114430	-0.229330	-0.365265
N160	N	1.614430	0.270670	0.134735
C161	C	1.317864	0.077164	-0.420345
C162	C	1.817864	0.577164	0.079655
N163	N	1.345100	0.118197	-0.388944
N164	N	1.845100	0.618197	0.111056
H165	H	0.500842	-0.140330	-0.141145
H166	H	1.000842	0.359670	0.358855
H167	H	1.046897	-0.650394	-0.331835
H168	H	1.546897	-0.150394	0.168165
C169	C	0.543488	-0.183093	-0.183742
C170	C	1.043488	0.316907	0.316258
N171	N	0.479455	-0.193890	-0.194496
N172	N	0.979455	0.306110	0.305504
C173	C	0.721574	0.019697	0.018197
C174	C	1.221574	0.519697	0.518197
N175	N	0.740383	0.057780	0.056120
N176	N	1.240383	0.557780	0.556120
H177	H	0.664588	-0.239106	-0.239524
H178	H	1.164588	0.260894	0.260476
H179	H	1.213523	-0.817044	-0.081271
H180	H	1.713523	-0.317044	0.418729
C181	C	1.256245	-0.796011	-0.017012
C182	C	1.756245	-0.296011	0.482988
N183	N	1.267054	-0.865492	-0.000804
N184	N	1.767054	-0.365492	0.499196
H185	H	0.583224	0.026463	0.024921
H186	H	1.083224	0.526463	0.524921
C187	C	1.317758	-0.418424	0.075708
C188	C	1.817758	0.081576	0.575708
N189	N	1.345009	-0.386990	0.116701
N190	N	1.845009	0.113010	0.616701
H191	H	1.126598	-0.211002	-0.461447
H192	H	1.626598	0.288998	0.038553
C193	C	1.325349	0.088460	-0.718306
C194	C	1.825349	0.588460	-0.218306
N195	N	1.363363	0.145755	-0.756413
N196	N	1.863363	0.645755	-0.256413
H197	H	1.213628	-0.079873	-0.818870
H198	H	1.713628	0.420127	-0.318870
H199	H	1.066927	-0.300838	-0.530225
H200	H	1.566927	0.199162	-0.030225
H201	H	1.070568	-0.802535	-0.296324
H202	H	1.570568	-0.302535	0.203676
H203	H	1.047076	-0.330740	-0.652010
H204	H	1.547076	0.169260	-0.152010
C205	C	1.061330	-0.309304	-0.815023
C206	C	1.561330	0.190696	-0.315023
N207	N	1.034090	-0.350340	-0.846420
N208	N	1.534090	0.149660	-0.346420
H209	H	1.312167	-0.703226	0.067168
H210	H	1.812167	-0.203226	0.567168
H211	H	0.796456	-0.258998	-0.259340
H212	H	1.296456	0.241002	0.240660
H213	H	0.814117	-0.053186	-0.054377
H214	H	1.314117	0.446814	0.445623
C215	C	0.427422	0.012202	0.010755
C216	C	0.927422	0.512202	0.510755
N217	N	0.382204	0.039484	0.037930
N218	N	0.882204	0.539484	0.537930
H219	H	0.936671	-0.235342	-0.235805
H220	H	1.436671	0.264658	0.264195
C221	C	1.345207	0.118362	-0.596514
C222	C	1.845207	0.618362	-0.096514
N223	N	1.383227	0.175651	-0.634620
N224	N	1.883227	0.675651	-0.134620
H225	H	1.165383	-0.414780	-0.153481
H226	H	1.665383	0.085220	0.346519
H227	H	1.126385	-0.459767	-0.212135
H228	H	1.626385	0.040233	0.287865
C229	C	1.256323	-0.015543	-0.797891
C230	C	1.756323	0.484457	-0.297891
N231	N	1.267107	0.000713	-0.867396
N232	N	1.767107	0.500713	-0.367396
C233	C	1.053596	-0.515476	-0.321644
C234	C	1.553596	-0.015476	0.178356
N235	N	1.015531	-0.477432	-0.378843
N236	N	1.515531	0.022568	0.121157
C237	C	1.345128	-0.594548	0.116817
C238	C	1.845128	-0.094548	0.616817
N239	N	1.383169	-0.632605	0.174034
N240	N	1.883169	-0.132605	0.674034
