data_functionalizedCrystal
_audit_creation_method	'MofGen! by Chris Wilmer'
_symmetry_space_group_name_H-M	'P1'
_symmetry_Int_Tables_number	1
_symmetry_cell_setting	triclinic
loop_
_symmetry_equiv_pos_as_xyz
  x,y,z
_cell_length_a	18.215407
_cell_length_b	29.839131
_cell_length_c	18.215399
_cell_angle_alpha	89.959063
_cell_angle_beta	89.985640
_cell_angle_gamma	90.032672
loop_
_atom_site_label
_atom_site_type_symbol
_atom_site_fract_x
_atom_site_fract_y
_atom_site_fract_z
Zn1	Zn	1.124997	-0.178878	-0.416013
Zn2	Zn	1.124890	-0.254010	-0.292924
Zn3	Zn	1.001936	-0.178892	-0.292966
Zn4	Zn	1.001873	-0.253978	-0.415955
O5	O	1.063424	-0.216440	-0.354465
O6	O	1.227967	-0.188852	-0.399692
O7	O	1.108561	-0.244065	-0.189946
O8	O	1.018332	-0.116023	-0.309331
O9	O	1.227888	-0.244052	-0.309260
O10	O	1.108744	-0.116013	-0.399733
O11	O	1.018228	-0.188876	-0.189976
O12	O	0.898944	-0.188845	-0.309274
O13	O	1.018225	-0.243997	-0.518947
O14	O	0.898897	-0.244010	-0.399633
O15	O	1.108683	-0.188821	-0.518990
O16	O	1.108500	-0.316873	-0.309202
O17	O	1.018121	-0.316850	-0.399592
C18	C	0.872218	-0.216426	-0.354452
C19	C	0.790419	-0.216431	-0.354464
C20	C	0.602265	-0.187747	-0.401626
C21	C	0.525406	-0.187751	-0.401629
C22	C	0.525335	-0.245144	-0.307316
C23	C	0.602193	-0.245138	-0.307310
C24	C	0.640655	-0.216440	-0.354470
C25	C	0.486939	-0.216450	-0.354478
C26	C	0.403606	-0.216455	-0.354480
C27	C	0.723994	-0.216435	-0.354466
C28	C	1.063312	-0.333162	-0.354403
C29	C	1.063331	-0.383097	-0.354401
C30	C	1.110492	-0.692700	-0.401604
C31	C	1.110571	-0.880373	-0.401648
O32	O	1.150559	-0.904603	-0.441736
N33	N	1.063549	-0.903882	-0.354546
C34	C	1.016500	-0.880469	-0.307433
O35	O	0.976501	-0.904771	-0.267376
C36	C	1.016417	-0.692797	-0.307393
C37	C	1.063448	-0.669291	-0.354493
C38	C	1.157518	-0.669193	-0.448701
C39	C	1.157500	-0.622278	-0.448686
C40	C	1.110456	-0.598869	-0.401575
C41	C	1.063430	-0.622375	-0.354479
C42	C	0.969365	-0.669386	-0.260284
C43	C	0.969347	-0.622465	-0.260280
C44	C	1.016378	-0.598958	-0.307380
C45	C	1.016369	-0.552051	-0.307353
N46	N	1.063391	-0.528542	-0.354455
C47	C	1.110435	-0.551951	-0.401566
C48	C	1.016548	-0.979000	-0.307456
C49	C	1.016570	-1.025918	-0.307465
C50	C	1.110640	-1.025818	-0.401682
C51	C	1.110622	-0.978899	-0.401669
C52	C	1.063570	-0.955491	-0.354558
C53	C	1.110395	-0.453425	-0.401532
C54	C	1.110375	-0.406506	-0.401512
C55	C	1.016302	-0.406610	-0.307298
C56	C	1.016324	-0.453525	-0.307316
C57	C	1.063373	-0.476932	-0.354439
O58	O	0.976396	-0.527791	-0.267292
O59	O	1.150416	-0.527641	-0.441629
C60	C	1.110509	-0.739615	-0.401618
C61	C	1.063483	-0.763122	-0.354522
C62	C	1.016439	-0.739713	-0.307411
C63	C	1.063504	-0.810039	-0.354531
C64	C	1.110548	-0.833448	-0.401642
C65	C	1.157571	-0.809940	-0.448744
C66	C	1.157553	-0.763024	-0.448730
C67	C	0.969417	-0.763222	-0.260309
C68	C	0.969439	-0.810137	-0.260326
C69	C	1.016483	-0.833546	-0.307437
C70	C	1.255377	-0.216454	-0.354478
C71	C	1.337176	-0.216460	-0.354484
C72	C	1.063459	-0.216404	-0.546418
C73	C	1.063474	-0.216388	-0.628216
C74	C	1.063557	-0.099261	-0.354543
C75	C	1.063613	-0.049327	-0.354576
C76	C	1.016477	-0.187632	-0.816427
C77	C	1.016490	-0.187623	-0.893286
C78	C	1.110559	-0.245091	-0.893244
C79	C	1.110542	-0.245102	-0.816386
C80	C	1.063502	-0.216370	-0.777980
C81	C	1.063532	-0.216350	-0.931696
C82	C	1.063546	-0.216340	-1.015030
C83	C	1.063486	-0.216380	-0.694641
C84	C	1.063432	-0.216443	-0.163258
C85	C	1.063560	-0.216332	-0.081460
H86	H	1.148676	-0.387368	-0.439866
C87	C	0.644427	-0.276703	-0.255435
C88	C	0.633836	-0.272977	-0.171785
C89	C	0.676071	-0.304539	-0.119911
C90	C	0.728897	-0.339827	-0.151685
C91	C	0.739490	-0.343554	-0.235339
C92	C	0.697256	-0.311992	-0.287214
H93	H	0.594729	-0.246853	-0.148260
H94	H	0.668228	-0.301779	-0.057984
H95	H	0.760161	-0.363191	-0.113285
H96	H	0.778598	-0.369678	-0.258865
H97	H	0.705098	-0.314752	-0.349140
H98	H	0.494009	-0.268509	-0.268921
C99	C	0.964763	-0.156009	-0.935577
C100	C	0.906970	-0.175464	-0.988393
C101	C	0.855240	-0.143848	-1.030684
C102	C	0.861303	-0.092779	-1.020158
C103	C	0.919098	-0.073321	-0.967340
C104	C	0.970828	-0.104937	-0.925050
H105	H	0.902480	-0.213271	-0.996187
H106	H	0.812456	-0.158252	-1.069783
H107	H	0.823009	-0.069375	-1.051464
H108	H	0.923589	-0.035514	-0.959547
H109	H	1.013612	-0.090533	-0.885950
H110	H	0.978174	-0.164236	-0.785159
C111	C	0.644574	-0.156176	-0.453494
C112	C	0.697426	-0.120878	-0.421709
C113	C	0.739732	-0.089305	-0.473575
C114	C	0.729187	-0.093029	-0.557226
C115	C	0.676332	-0.128328	-0.589015
C116	C	0.634026	-0.159902	-0.537149
H117	H	0.705235	-0.118120	-0.359781
H118	H	0.778859	-0.063174	-0.450042
H119	H	0.760504	-0.069656	-0.595621
H120	H	0.668524	-0.131086	-0.650943
H121	H	0.594900	-0.186033	-0.560682
H122	H	1.148701	-0.472477	-0.439909
C123	C	1.209226	-0.596423	-0.500505
C124	C	1.177282	-0.564157	-0.558249
C125	C	1.229007	-0.538304	-0.610073
C126	C	1.312676	-0.544718	-0.604152
C127	C	1.344624	-0.576986	-0.546406
C128	C	1.292899	-0.602838	-0.494582
H129	H	1.115342	-0.559407	-0.562633
H130	H	1.205357	-0.514418	-0.652820
H131	H	1.350965	-0.525581	-0.642516
H132	H	1.406564	-0.581735	-0.542021
H133	H	1.316549	-0.626725	-0.451835
C134	C	0.917668	-0.737477	-0.208477
C135	C	0.923740	-0.743979	-0.124825
C136	C	0.871991	-0.718238	-0.072986
C137	C	0.814170	-0.685995	-0.104799
C138	C	0.808096	-0.679492	-0.188455
C139	C	0.859845	-0.705233	-0.240294
H140	H	0.966544	-0.767848	-0.101272
H141	H	0.876487	-0.723052	-0.011058
H142	H	0.775862	-0.666939	-0.066424
H143	H	0.765291	-0.655622	-0.212008
H144	H	0.855348	-0.700419	-0.302223
C145	C	1.209276	-0.694937	-0.500526
C146	C	1.292935	-0.688436	-0.494581
C147	C	1.344702	-0.714176	-0.546405
C148	C	1.312810	-0.746416	-0.604173
C149	C	1.229146	-0.752919	-0.610120
C150	C	1.177379	-0.727179	-0.558296
H151	H	1.316548	-0.664568	-0.451816
H152	H	1.406636	-0.709362	-0.542003
H153	H	1.351131	-0.765470	-0.642536
H154	H	1.205533	-0.776787	-0.652885
H155	H	1.115445	-0.731993	-0.562699
H156	H	1.148857	-0.268484	-0.924523
C157	C	0.483179	-0.156190	-0.453506
C158	C	0.493771	-0.159921	-0.537155
C159	C	0.451544	-0.128358	-0.589034
C160	C	0.398726	-0.093064	-0.557265
C161	C	0.388132	-0.089332	-0.473612
C162	C	0.430358	-0.120895	-0.421733
H163	H	0.532872	-0.186049	-0.560676
H164	H	0.459387	-0.131121	-0.650960
H165	H	0.367468	-0.069699	-0.595670
H166	H	0.349030	-0.063203	-0.450091
H167	H	0.422515	-0.118132	-0.359807
C168	C	1.162279	-0.276714	-0.774091
C169	C	1.220064	-0.257254	-0.721272
C170	C	1.271799	-0.288865	-0.678978
C171	C	1.265750	-0.339935	-0.689504
C172	C	1.207962	-0.359397	-0.742326
C173	C	1.156227	-0.327787	-0.784620
H174	H	1.224545	-0.219447	-0.713478
H175	H	1.314577	-0.274457	-0.639876
H176	H	1.304047	-0.363335	-0.658196
H177	H	1.203482	-0.397205	-0.750121
H178	H	1.113449	-0.342195	-0.823722
H179	H	0.978002	-0.387543	-0.268939
C180	C	1.209318	-0.835696	-0.500569
C181	C	1.267123	-0.867943	-0.468738
C182	C	1.318863	-0.893701	-0.520563
C183	C	1.312799	-0.887213	-0.604219
C184	C	1.254992	-0.854964	-0.636053
C185	C	1.203252	-0.829205	-0.584228
H186	H	1.271614	-0.872747	-0.406808
H187	H	1.361656	-0.917574	-0.496997
H188	H	1.351101	-0.906281	-0.642583
H189	H	1.250501	-0.850159	-0.697984
H190	H	1.160459	-0.805333	-0.607795
C191	C	0.964794	-0.953256	-0.255622
C192	C	0.996706	-0.921018	-0.197861
C193	C	0.944956	-0.895277	-0.146021
C194	C	0.861294	-0.901775	-0.151943
C195	C	0.829378	-0.934014	-0.209707
C196	C	0.881128	-0.959755	-0.261546
H197	H	1.058642	-0.916207	-0.193475
H198	H	0.968583	-0.871411	-0.103261
H199	H	0.822986	-0.882720	-0.113569
H200	H	0.767442	-0.938826	-0.214093
H201	H	0.857501	-0.983621	-0.304307
C202	C	1.162387	-1.051573	-0.453508
C203	C	1.220198	-1.083817	-0.421681
C204	C	1.271938	-1.109574	-0.473509
C205	C	1.265868	-1.103086	-0.557164
C206	C	1.208055	-1.070840	-0.588995
C207	C	1.156315	-1.045083	-0.537168
H208	H	1.224693	-1.088621	-0.359751
H209	H	1.314735	-1.133444	-0.449944
H210	H	1.304169	-1.122153	-0.595530
H211	H	1.203560	-1.066036	-0.650926
H212	H	1.113518	-1.021213	-0.560732
H213	H	1.148918	-0.959763	-0.440022
C214	C	0.964840	-1.051771	-0.255649
C215	C	0.970891	-1.045356	-0.171992
C216	C	0.919155	-1.071207	-0.120178
C217	C	0.861368	-1.103474	-0.152021
C218	C	0.855314	-1.109890	-0.235682
C219	C	0.907050	-1.084039	-0.287497
H220	H	1.013671	-1.021469	-0.148416
H221	H	0.923637	-1.066457	-0.058246
H222	H	0.823070	-1.122610	-0.113665
H223	H	0.812534	-1.133777	-0.259258
H224	H	0.902568	-1.088790	-0.349428
H225	H	0.931067	-0.688517	-0.221930
H226	H	0.931029	-0.603408	-0.221918
H227	H	0.978034	-0.472665	-0.268957
H228	H	1.195850	-0.743889	-0.487083
H229	H	0.931142	-0.829272	-0.221965
