data_functionalizedCrystal
_audit_creation_method	'MofGen! by Chris Wilmer'
_symmetry_space_group_name_H-M	'P1'
_symmetry_Int_Tables_number	1
_symmetry_cell_setting	triclinic
loop_
_symmetry_equiv_pos_as_xyz
  x,y,z
_cell_length_a	15.995350
_cell_length_b	12.376457
_cell_length_c	15.995292
_cell_angle_alpha	101.276936
_cell_angle_beta	83.480495
_cell_angle_gamma	78.710333
loop_
_atom_site_label
_atom_site_type_symbol
_atom_site_fract_x
_atom_site_fract_y
_atom_site_fract_z
O1	O	1.127006	-0.093901	0.091898
O2	O	0.883232	-0.093923	0.105222
O3	O	1.011808	-0.093913	-0.023331
O4	O	0.998430	-0.093911	0.220451
O5	O	0.979676	0.094097	0.008763
O6	O	0.851099	0.094086	0.137317
O7	O	1.094873	0.094109	0.123993
Zn8	Zn	0.967884	0.123948	0.135750
Zn9	Zn	1.010221	-0.123763	0.093464
O10	O	0.966297	0.094099	0.252546
C11	C	0.835971	0.000079	0.120718
C12	C	0.743023	0.000070	0.119064
N13	N	0.938997	0.293004	0.164609
N14	N	1.039115	-0.292819	0.064599
C15	C	0.405273	0.000093	0.113136
C16	C	0.452654	0.000512	0.021653
C17	C	0.549418	0.000080	0.023232
C18	C	0.572834	0.000082	0.116077
C19	C	0.550086	-0.107275	0.142908
C20	C	0.453465	-0.107357	0.140594
C21	C	0.416585	0.106445	0.178983
C22	C	0.513289	0.107856	0.179202
C23	C	0.667533	0.000072	0.117743
C24	C	0.310575	0.000096	0.111471
C25	C	1.142134	0.000104	0.108496
C26	C	1.235084	0.000106	0.110148
C27	C	0.995198	0.000089	-0.038480
C28	C	0.993567	0.000080	-0.131434
C29	C	1.106171	0.648002	-0.002407
C30	C	1.126385	0.529664	-0.022605
C31	C	1.079539	0.470493	0.024196
C32	C	1.012477	0.529672	0.091200
C33	C	0.992266	0.648022	0.111405
C34	C	0.965634	0.470513	0.138008
C35	C	0.898573	0.529692	0.205012
C36	C	0.878364	0.648031	0.225213
C37	C	0.925210	0.707201	0.178411
C38	C	0.985846	0.352163	0.117803
C39	C	0.871941	0.352183	0.231615
C40	C	0.851727	0.470522	0.251813
C41	C	0.987564	0.000090	-0.469171
C42	C	1.080295	0.000518	-0.445786
C43	C	1.082132	0.000091	-0.349183
C44	C	0.990543	0.000086	-0.301616
C45	C	0.962494	-0.107278	-0.349045
C46	C	0.961392	-0.107364	-0.445850
C47	C	0.922956	0.106438	-0.409209
C48	C	0.926153	0.107853	-0.312475
C49	C	0.992222	0.000080	-0.206921
C50	C	0.985884	0.000089	-0.563867
C51	C	0.982908	0.000094	0.267694
C52	C	0.984540	0.000096	0.360647
H53	H	0.564701	0.077039	0.000873
O54	O	0.779408	0.534350	0.324093
H55	H	0.729517	0.588285	0.298033
H56	H	0.833797	0.304007	0.269727
H57	H	0.420981	0.077502	-0.001801
H58	H	1.102907	0.077514	-0.460639
H59	H	1.131860	-0.077000	-0.343938
O60	O	0.444040	-0.100895	-0.043925
H61	H	0.406162	-0.151596	-0.011644
H62	H	0.908750	0.803562	0.194854
H63	H	1.144311	0.696187	-0.040503
H64	H	1.096000	0.374137	0.007748
O65	O	1.198708	0.465847	-0.094873
H66	H	1.248604	0.411934	-0.068802
H67	H	0.858194	0.114334	-0.278400
H68	H	1.105316	0.077052	-0.317020
O69	O	0.531480	0.213071	0.153497
H70	H	0.553323	0.265382	0.207750
O71	O	0.806050	0.711881	0.297489
H72	H	0.832099	0.765777	0.347400
O73	O	0.447379	-0.213646	0.078813
H74	H	0.513339	-0.264502	0.050865
O75	O	1.058160	0.288354	0.045524
H76	H	1.032123	0.234450	-0.004393
H77	H	1.128952	-0.076038	-0.487872
O78	O	0.569671	-0.112573	0.232360
H79	H	0.617983	-0.191640	0.229052
O80	O	0.874124	-0.112574	-0.307734
H81	H	0.829635	-0.111395	-0.356155
O82	O	1.022483	-0.213359	-0.499527
H83	H	1.052496	-0.264105	-0.456235
H84	H	0.590459	-0.077013	-0.025665
H85	H	0.894179	-0.112232	-0.461231
O86	O	0.832307	0.107414	-0.427582
H87	H	0.833215	0.032567	-0.479155
H88	H	1.008369	-0.187173	-0.342623
H89	H	0.527532	0.114342	0.248015
O90	O	0.605753	-0.213120	0.083293
H91	H	0.649656	-0.189534	0.034517
H92	H	0.938273	0.187819	-0.423406
O93	O	0.952907	0.213073	-0.269916
H94	H	1.011814	0.188730	-0.241142
H95	H	0.422035	-0.112228	0.206980
O96	O	0.370990	0.214243	0.157732
H97	H	0.339753	0.193216	0.099995
H98	H	0.384685	0.107172	0.246610
