data_functionalizedCrystal
_audit_creation_method	'MofGen! by Chris Wilmer'
_symmetry_space_group_name_H-M	'P1'
_symmetry_Int_Tables_number	1
_symmetry_cell_setting	triclinic
loop_
_symmetry_equiv_pos_as_xyz
  x,y,z
_cell_length_a	17.640112
_cell_length_b	16.625546
_cell_length_c	16.625548
_cell_angle_alpha	90.011514
_cell_angle_beta	78.812981
_cell_angle_gamma	101.247770
loop_
_atom_site_label
_atom_site_type_symbol
_atom_site_fract_x
_atom_site_fract_y
_atom_site_fract_z
Zn1	Zn	1.208279	-0.071624	0.207119
Zn2	Zn	1.458279	0.178376	0.457119
Zn3	Zn	1.708279	0.428376	0.707119
Zn4	Zn	1.958279	0.678376	0.957119
Zn5	Zn	1.208221	-0.206435	0.072293
Zn6	Zn	1.458221	0.043565	0.322293
Zn7	Zn	1.708221	0.293565	0.572293
Zn8	Zn	1.958221	0.543565	0.822293
Zn9	Zn	1.076133	-0.098898	0.099508
Zn10	Zn	1.326133	0.151102	0.349508
Zn11	Zn	1.576133	0.401102	0.599508
Zn12	Zn	1.826133	0.651102	0.849508
Zn13	Zn	1.076068	-0.233722	0.234293
Zn14	Zn	1.326068	0.016278	0.484293
Zn15	Zn	1.576068	0.266278	0.734293
Zn16	Zn	1.826068	0.516278	0.984293
O17	O	1.142175	-0.152670	0.153303
O18	O	1.392175	0.097330	0.403303
O19	O	1.642175	0.347330	0.653303
O20	O	1.892175	0.597330	0.903303
O21	O	1.318882	-0.066673	0.166473
O22	O	1.568882	0.183327	0.416473
O23	O	1.818882	0.433327	0.666473
O24	O	2.068882	0.683327	0.916473
O25	O	1.190702	-0.192164	-0.036929
O26	O	1.440702	0.057836	0.213071
O27	O	1.690702	0.307836	0.463071
O28	O	1.940702	0.557836	0.713071
O29	O	1.093715	0.017563	0.113800
O30	O	1.343715	0.267563	0.363800
O31	O	1.593715	0.517563	0.613800
O32	O	1.843715	0.767563	0.863800
O33	O	1.318839	-0.165718	0.067417
O34	O	1.568839	0.084282	0.317417
O35	O	1.818839	0.334282	0.567417
O36	O	2.068839	0.584282	0.817417
O37	O	1.190802	0.037601	0.192861
O38	O	1.440802	0.287601	0.442861
O39	O	1.690802	0.537601	0.692861
O40	O	1.940802	0.787601	0.942861
O41	O	1.093658	-0.113157	-0.016935
O42	O	1.343658	0.136843	0.233065
O43	O	1.593658	0.386843	0.483065
O44	O	1.843658	0.636843	0.733065
O45	O	0.965515	-0.139616	0.140149
O46	O	1.215515	0.110384	0.390149
O47	O	1.465515	0.360384	0.640149
O48	O	1.715515	0.610384	0.890149
O49	O	1.093603	-0.212225	0.343521
O50	O	1.343603	0.037775	0.593521
O51	O	1.593603	0.287775	0.843521
O52	O	1.843603	0.537775	1.093521
O53	O	0.965466	-0.238671	0.239175
O54	O	1.215466	0.011329	0.489175
O55	O	1.465466	0.261329	0.739175
O56	O	1.715466	0.511329	0.989175
O57	O	1.190738	-0.093132	0.323557
O58	O	1.440738	0.156868	0.573557
O59	O	1.690738	0.406868	0.823557
O60	O	1.940738	0.656868	1.073557
O61	O	1.190639	-0.322898	0.093766
O62	O	1.440639	-0.072898	0.343766
O63	O	1.690639	0.177102	0.593766
O64	O	1.940639	0.427102	0.843766
O65	O	1.093546	-0.342945	0.212786
O66	O	1.343546	-0.092945	0.462786
O67	O	1.593546	0.157055	0.712786
O68	O	1.843546	0.407055	0.962786
C69	C	0.936811	-0.195065	0.195564
C70	C	1.186811	0.054935	0.445564
C71	C	1.436811	0.304935	0.695564
C72	C	1.686811	0.554935	0.945564
C73	C	0.848954	-0.213221	0.213663
C74	C	1.098954	0.036779	0.463663
C75	C	1.348954	0.286779	0.713663
C76	C	1.598954	0.536779	0.963663
C77	C	0.560023	-0.014724	0.015817
C78	C	0.810023	0.235276	0.265817
C79	C	1.060023	0.485276	0.515817
C80	C	1.310023	0.735276	0.765817
C81	C	0.477468	-0.031801	0.032834
C82	C	0.727468	0.218199	0.282834
C83	C	0.977468	0.468199	0.532834
C84	C	1.227468	0.718199	0.782834
C85	C	0.477473	-0.135089	0.135772
C86	C	0.727473	0.114911	0.385772
C87	C	0.977473	0.364911	0.635772
C88	C	1.227473	0.614911	0.885772
C89	C	0.560029	-0.118018	0.118766
C90	C	0.810029	0.131982	0.368766
C91	C	1.060029	0.381982	0.618766
C92	C	1.310029	0.631982	0.868766
C93	C	0.601297	-0.057835	0.058787
C94	C	0.851297	0.192165	0.308787
C95	C	1.101297	0.442165	0.558787
C96	C	1.351297	0.692165	0.808787
C97	C	0.601303	-0.161129	0.161737
C98	C	0.851303	0.088871	0.411737
C99	C	1.101303	0.338871	0.661737
C100	C	1.351303	0.588871	0.911737
C101	C	0.683851	-0.144062	0.144729
C102	C	0.933851	0.105938	0.394729
C103	C	1.183851	0.355938	0.644729
C104	C	1.433851	0.605938	0.894729
C105	C	0.725126	-0.083884	0.084751
C106	C	0.975126	0.166116	0.334751
C107	C	1.225126	0.416116	0.584751
C108	C	1.475126	0.666116	0.834751
C109	C	0.683846	-0.040768	0.041780
C110	C	0.933846	0.209232	0.291780
C111	C	1.183846	0.459232	0.541780
C112	C	1.433846	0.709232	0.791780
C113	C	0.560033	-0.221315	0.221711
C114	C	0.810033	0.028685	0.471711
C115	C	1.060033	0.278685	0.721711
C116	C	1.310033	0.528685	0.971711
C117	C	0.601307	-0.264426	0.264682
C118	C	0.851307	-0.014426	0.514682
C119	C	1.101307	0.235574	0.764682
C120	C	1.351307	0.485574	1.014682
C121	C	0.683857	-0.247355	0.247678
C122	C	0.933857	0.002645	0.497678
C123	C	1.183857	0.252645	0.747678
C124	C	1.433857	0.502645	0.997678
C125	C	0.725132	-0.187177	0.187700
C126	C	0.975132	0.062823	0.437700
C127	C	1.225132	0.312823	0.687700
C128	C	1.475132	0.562823	0.937700
C129	C	0.725137	-0.290471	0.290650
C130	C	0.975137	-0.040471	0.540650
C131	C	1.225137	0.209529	0.790650
C132	C	1.475137	0.459529	1.040650
C133	C	0.807686	-0.273404	0.273642
C134	C	1.057686	-0.023404	0.523642
C135	C	1.307686	0.226596	0.773642
C136	C	1.557686	0.476596	1.023642
C137	C	0.807680	-0.170110	0.170693
C138	C	1.057680	0.079890	0.420693
C139	C	1.307680	0.329890	0.670693
C140	C	1.557680	0.579890	0.920693
C141	C	1.142101	-0.362176	0.153285
C142	C	1.392101	-0.112176	0.403285
C143	C	1.642101	0.137824	0.653285
C144	C	1.892101	0.387824	0.903285
C145	C	1.142141	-0.451789	0.153289
C146	C	1.392141	-0.201789	0.403289
C147	C	1.642141	0.048211	0.653289
C148	C	1.892141	0.298211	0.903289
C149	C	1.142279	-0.779936	0.153345
C150	C	1.392279	-0.529936	0.403345
C151	C	1.642279	-0.279936	0.653345
C152	C	1.892279	-0.029936	0.903345
C153	C	1.142238	-0.688636	0.153332
C154	C	1.392238	-0.438636	0.403332
C155	C	1.642238	-0.188636	0.653332
C156	C	1.892238	0.061364	0.903332
C157	C	1.142209	-0.615865	0.153317
C158	C	1.392209	-0.365865	0.403317
C159	C	1.642209	-0.115865	0.653317
C160	C	1.892209	0.134135	0.903317
C161	C	1.142170	-0.524559	0.153305
C162	C	1.392170	-0.274559	0.403305
C163	C	1.642170	-0.024559	0.653305
C164	C	1.892170	0.225441	0.903305
C165	C	1.348342	-0.110110	0.110878
C166	C	1.598342	0.139890	0.360878
C167	C	1.848342	0.389890	0.610878
C168	C	2.098342	0.639890	0.860878
C169	C	1.436198	-0.091973	0.092799
C170	C	1.686198	0.158027	0.342799
C171	C	1.936198	0.408027	0.592799
C172	C	2.186198	0.658027	0.842799
C173	C	1.142170	-0.152680	0.363613
C174	C	1.392170	0.097320	0.613613
C175	C	1.642170	0.347320	0.863613
C176	C	1.892170	0.597320	1.113613
C177	C	1.142168	-0.152685	0.453235
C178	C	1.392168	0.097315	0.703235
C179	C	1.642168	0.347315	0.953235
C180	C	1.892168	0.597315	1.203235
C181	C	1.142272	0.057659	0.153335
C182	C	1.392272	0.307659	0.403335
C183	C	1.642272	0.557659	0.653335
C184	C	1.892272	0.807659	0.903335
C185	C	1.142313	0.147289	0.153348
C186	C	1.392313	0.397289	0.403348
C187	C	1.642313	0.647289	0.653348
C188	C	1.892313	0.897289	0.903348
C189	C	1.142165	-0.152689	0.526018
C190	C	1.392165	0.097311	0.776018
C191	C	1.642165	0.347311	1.026018
C192	C	1.892165	0.597311	1.276018
C193	C	1.142164	-0.152686	0.617326
C194	C	1.392164	0.097314	0.867326
C195	C	1.642164	0.347314	1.117326
C196	C	1.892164	0.597314	1.367326
C197	C	1.142168	-0.152679	0.690102
C198	C	1.392168	0.097321	0.940102
C199	C	1.642168	0.347321	1.190102
C200	C	1.892168	0.597321	1.440102
C201	C	1.142168	-0.152677	0.781416
C202	C	1.392168	0.097323	1.031416
C203	C	1.642168	0.347323	1.281416
C204	C	1.892168	0.597323	1.531416
C205	C	1.142174	-0.152677	0.943813
C206	C	1.392174	0.097323	1.193813
C207	C	1.642174	0.347323	1.443813
C208	C	1.892174	0.597323	1.693813
C209	C	1.142171	-0.152669	0.854192
C210	C	1.392171	0.097331	1.104192
C211	C	1.642171	0.347331	1.354192
C212	C	1.892171	0.597331	1.604192
H213	H	0.691524	-0.339477	0.339479
H214	H	0.941524	-0.089477	0.589479
H215	H	1.191524	0.160523	0.839479
H216	H	1.441524	0.410523	1.089479
H217	H	0.492817	-0.235209	0.235557
H218	H	0.742817	0.014791	0.485557
H219	H	0.992817	0.264791	0.735557
H220	H	1.242817	0.514791	0.985557
H221	H	0.841292	-0.308508	0.308634
H222	H	1.091292	-0.058508	0.558634
H223	H	1.341292	0.191492	0.808634
H224	H	1.591292	0.441492	1.058634
H225	H	0.841283	-0.121092	0.121864
H226	H	1.091283	0.128908	0.371864
H227	H	1.341283	0.378908	0.621864
H228	H	1.591283	0.628908	0.871864
H229	H	0.593626	0.034294	-0.033012
H230	H	0.843626	0.284294	0.216988
H231	H	1.093626	0.534294	0.466988
H232	H	1.343626	0.784294	0.716988
F233	F	0.433544	0.014084	-0.012910
F234	F	0.683544	0.264084	0.237090
F235	F	0.933544	0.514084	0.487090
F236	F	1.183544	0.764084	0.737090
F237	F	0.433543	-0.199145	0.199596
F238	F	0.683543	0.050855	0.449596
F239	F	0.933543	0.300855	0.699596
F240	F	1.183543	0.550855	0.949596
F241	F	0.557378	-0.328482	0.328505
F242	F	0.807378	-0.078482	0.578505
F243	F	1.057378	0.171518	0.828505
F244	F	1.307378	0.421518	1.078505
H245	H	0.717449	0.008250	-0.007049
H246	H	0.967449	0.258250	0.242951
H247	H	1.217449	0.508250	0.492951
H248	H	1.467449	0.758250	0.742951
F249	F	0.812982	-0.065723	0.066646
F250	F	1.062982	0.184277	0.316646
F251	F	1.312982	0.434277	0.566646
F252	F	1.562982	0.684277	0.816646
