data_functionalizedCrystal
_audit_creation_method	'MofGen! by Chris Wilmer'
_symmetry_space_group_name_H-M	'P1'
_symmetry_Int_Tables_number	1
_symmetry_cell_setting	triclinic
loop_
_symmetry_equiv_pos_as_xyz
  x,y,z
_cell_length_a	9.065215
_cell_length_b	9.065215
_cell_length_c	17.766277
_cell_angle_alpha	89.994669
_cell_angle_beta	89.991201
_cell_angle_gamma	85.014697
loop_
_atom_site_label
_atom_site_type_symbol
_atom_site_fract_x
_atom_site_fract_y
_atom_site_fract_z
O1	O	1.960412	0.216339	-0.062584
O2	O	1.531126	0.234090	-0.062587
O3	O	1.754645	0.010572	-0.062582
O4	O	1.736894	0.439857	-0.062589
O5	O	1.754605	0.010560	0.062606
O6	O	1.531086	0.234078	0.062601
O7	O	1.960372	0.216327	0.062605
Cu8	Cu	1.745725	0.225201	0.074034
Cu9	Cu	1.745773	0.225216	-0.074016
O10	O	1.736854	0.439845	0.062600
C11	C	1.752920	-0.044421	0.000011
C12	C	1.747822	-0.208264	0.000009
C13	C	1.476120	0.232379	0.000007
C14	C	1.312277	0.227281	0.000006
C15	C	2.015379	0.218038	0.000009
C16	C	2.179222	0.223136	0.000005
C17	C	1.738579	0.494838	0.000005
C18	C	1.743677	0.658681	0.000002
N19	N	1.745703	0.225191	0.178164
N20	N	1.745807	0.225215	-0.178146
C21	C	1.844710	0.126266	0.217553
C22	C	1.844718	0.126260	0.296355
C23	C	1.745734	0.225203	0.335765
C24	C	1.646708	0.324134	0.296366
C25	C	1.646693	0.324128	0.217566
C26	C	1.728195	0.359329	0.460601
C27	C	1.728221	0.359338	0.539399
C28	C	1.745774	0.225221	0.578811
C29	C	1.763332	0.091091	0.539414
C30	C	1.763316	0.091085	0.460614
C31	C	1.745740	0.225220	0.421210
C32	C	1.844796	0.126281	0.703646
C33	C	1.844794	0.126273	0.782449
C34	C	1.646791	0.324160	0.782459
C35	C	1.646786	0.324156	0.703657
C36	C	1.745796	0.225218	0.664255
H37	H	1.925326	0.045702	0.185475
Br38	Br	1.979095	-0.008008	0.349821
H39	H	1.777625	-0.018119	0.571501
Br40	Br	1.979160	-0.007994	0.650170
Br41	Br	1.979158	-0.008005	0.835910
H42	H	1.713934	0.468554	0.571470
H43	H	1.713876	0.468550	0.428518
Br44	Br	1.787130	-0.090938	0.407148
Br45	Br	1.512360	0.458406	0.349848
Br46	Br	1.512438	0.458426	0.835937
Br47	Br	1.512418	0.458421	0.650194
Br48	Br	1.512315	0.458391	0.164104
