data_functionalizedCrystal
_audit_creation_method	'MofGen! by Chris Wilmer'
_symmetry_space_group_name_H-M	'P1'
_symmetry_Int_Tables_number	1
_symmetry_cell_setting	triclinic
loop_
_symmetry_equiv_pos_as_xyz
  x,y,z
_cell_length_a	13.897449
_cell_length_b	12.759399
_cell_length_c	12.759393
_cell_angle_alpha	89.969094
_cell_angle_beta	89.975751
_cell_angle_gamma	90.015943
loop_
_atom_site_label
_atom_site_type_symbol
_atom_site_fract_x
_atom_site_fract_y
_atom_site_fract_z
Zn1	Zn	1.474728	-0.418192	-0.594110
Zn2	Zn	1.474627	-0.593908	-0.418429
Zn3	Zn	1.313415	-0.418246	-0.418435
Zn4	Zn	1.313406	-0.593832	-0.594056
O5	O	1.394044	-0.506045	-0.506257
O6	O	1.609696	-0.441510	-0.570826
O7	O	1.453203	-0.570660	-0.271408
O8	O	1.334859	-0.271218	-0.441764
O9	O	1.609622	-0.570608	-0.441753
O10	O	1.453375	-0.271178	-0.570831
O11	O	1.334761	-0.441602	-0.271413
O12	O	1.178432	-0.441529	-0.441711
O13	O	1.334845	-0.570479	-0.741084
O14	O	1.178426	-0.570531	-0.570739
O15	O	1.453367	-0.441437	-0.741124
O16	O	1.453195	-0.740919	-0.441701
O17	O	1.334746	-0.740863	-0.570733
C18	C	1.143430	-0.506028	-0.506221
C19	C	1.036216	-0.506047	-0.506230
C20	C	1.393985	-0.779012	-0.506233
C21	C	1.394048	-0.895789	-0.506258
C22	C	1.455794	-0.950644	-0.439148
C23	C	1.455856	-1.060369	-0.439183
C24	C	1.332417	-1.060371	-0.573443
C25	C	1.332361	-0.950649	-0.573412
C26	C	0.949146	-0.506050	-0.506248
C27	C	0.839913	-0.506058	-0.506279
C28	C	1.645637	-0.506062	-0.506295
C29	C	1.752851	-0.506069	-0.506311
C30	C	1.394116	-0.505944	-0.780291
C31	C	1.394147	-0.505901	-0.897068
C32	C	1.394130	-0.232011	-0.506304
C33	C	1.394166	-0.115235	-0.506324
C34	C	1.455866	-0.438698	-0.951952
C35	C	1.455882	-0.438653	-1.061676
C36	C	1.332458	-0.573022	-1.061622
C37	C	1.332437	-0.573061	-0.951900
C38	C	1.394028	-0.506069	-0.233290
C39	C	1.394184	-0.505816	-0.116514
H40	H	1.506025	-0.905980	-0.384469
Cl41	Cl	1.254889	-0.657453	-1.130561
Cl42	Cl	1.533486	-1.129326	-0.354814
H43	H	1.282192	-1.105052	-0.628115
Cl44	Cl	1.254735	-0.881682	-0.657793
H45	H	1.506112	-0.384008	-0.907311
H46	H	1.282171	-0.627785	-0.907212
H47	H	1.506139	-0.383928	-1.106358
