data_functionalizedCrystal
_audit_creation_method	'MofGen! by Chris Wilmer'
_symmetry_space_group_name_H-M	'P1'
_symmetry_Int_Tables_number	1
_symmetry_cell_setting	triclinic
loop_
_symmetry_equiv_pos_as_xyz
  x,y,z
_cell_length_a	14.971486
_cell_length_b	14.044220
_cell_length_c	13.448316
_cell_angle_alpha	89.992660
_cell_angle_beta	89.998199
_cell_angle_gamma	88.401503
loop_
_atom_site_label
_atom_site_type_symbol
_atom_site_fract_x
_atom_site_fract_y
_atom_site_fract_z
O1	O	1.196679	0.123538	-0.082579
O2	O	0.937445	0.138332	-0.082607
O3	O	1.063171	-0.007054	-0.082584
O4	O	1.070953	0.268924	-0.082602
O5	O	1.063153	-0.007063	0.082800
O6	O	0.937427	0.138323	0.082777
O7	O	1.196661	0.123529	0.082804
Cu8	Cu	1.067042	0.130925	0.097892
Cu9	Cu	1.067064	0.130936	-0.097694
O10	O	1.070935	0.268915	0.082781
C11	C	0.904059	0.137666	0.000082
C12	C	0.804606	0.135683	0.000072
C13	C	1.059755	-0.042377	0.000108
C14	C	1.049594	-0.147614	0.000108
C15	C	0.754109	0.221093	0.000067
C16	C	0.660662	0.219225	0.000082
C17	C	0.617714	0.131945	0.000094
C18	C	0.668218	0.046528	0.000102
C19	C	0.761663	0.048398	0.000094
C20	C	0.473449	0.042638	0.000116
C21	C	0.379997	0.040767	0.000122
C22	C	0.372448	0.213465	0.000104
C23	C	0.465893	0.215334	0.000096
C24	C	0.516390	0.129917	0.000102
C25	C	1.031018	-0.340297	0.000092
C26	C	1.103085	-0.397848	0.000097
C27	C	1.092748	-0.505063	0.000088
C28	C	1.041353	-0.233071	0.000101
C29	C	1.230047	0.124195	0.000114
C30	C	1.329501	0.126178	0.000117
C31	C	1.074351	0.304238	0.000087
C32	C	1.084512	0.409475	0.000080
N33	N	1.067034	0.130917	0.235456
N34	N	1.067079	0.130936	-0.235258
C35	C	1.122727	0.066567	0.287506
C36	C	1.122732	0.066566	0.391610
C37	C	1.067049	0.130921	0.443660
C38	C	1.011350	0.195274	0.391603
C39	C	1.011341	0.195270	0.287501
C40	C	1.011376	0.195281	0.608583
C41	C	1.011386	0.195287	0.712691
C42	C	1.122767	0.066577	0.712691
C43	C	1.122757	0.066572	0.608590
C44	C	1.067060	0.130927	0.556539
H45	H	0.789070	0.292167	0.000056
H46	H	0.966017	0.247682	0.566206
H47	H	0.966042	0.247690	0.755066
H48	H	0.966007	0.247670	0.433988
H49	H	0.965989	0.247669	0.245123
F50	F	0.622507	-0.046362	0.000121
H51	H	0.619551	0.288775	0.000077
H52	H	0.345032	-0.030303	0.000133
H53	H	0.514561	-0.026919	0.000122
F54	F	1.182045	-0.001913	0.768091
H55	H	1.168080	0.014166	0.433989
H56	H	0.500859	0.286405	0.000077
F57	F	0.815405	-0.042508	0.000102
F58	F	1.182026	-0.001915	0.553193
F59	F	0.318705	0.304373	0.000100
F60	F	0.940232	-0.381140	0.000077
H61	H	1.172546	-0.366598	0.000037
H62	H	1.168074	0.014166	0.245134
