data_functionalizedCrystal
_audit_creation_method	'MofGen! by Chris Wilmer'
_symmetry_space_group_name_H-M	'P1'
_symmetry_Int_Tables_number	1
_symmetry_cell_setting	triclinic
loop_
_symmetry_equiv_pos_as_xyz
  x,y,z
_cell_length_a	19.805407
_cell_length_b	19.076808
_cell_length_c	19.805399
_cell_angle_alpha	87.671429
_cell_angle_beta	89.984884
_cell_angle_gamma	92.320774
loop_
_atom_site_label
_atom_site_type_symbol
_atom_site_fract_x
_atom_site_fract_y
_atom_site_fract_z
Zn1	Zn	1.023895	-0.280273	-0.371853
Zn2	Zn	1.019269	-0.397981	-0.254114
Zn3	Zn	0.910714	-0.280290	-0.258680
Zn4	Zn	0.906129	-0.397935	-0.367266
O5	O	0.965002	-0.339120	-0.312978
O6	O	1.117997	-0.295900	-0.356243
O7	O	1.004852	-0.382395	-0.160002
O8	O	0.929582	-0.181791	-0.277523
O9	O	1.114599	-0.382379	-0.269741
O10	O	1.012735	-0.181779	-0.360670
O11	O	0.925097	-0.295928	-0.163357
O12	O	0.815390	-0.295884	-0.273076
O13	O	0.921768	-0.382301	-0.462592
O14	O	0.812021	-0.382317	-0.352853
O15	O	1.008290	-0.295855	-0.465962
O16	O	1.000406	-0.496471	-0.265293
O17	O	0.917283	-0.496438	-0.348425
C18	C	0.789147	-0.339098	-0.312962
C19	C	0.713914	-0.339105	-0.312971
C20	C	0.680337	-0.294155	-0.358076
C21	C	0.609649	-0.294159	-0.358078
C22	C	0.572538	-0.339117	-0.312979
C23	C	0.606120	-0.384069	-0.267870
C24	C	0.676808	-0.384061	-0.267864
C25	C	0.321046	-0.384101	-0.267889
C26	C	0.250353	-0.384107	-0.267899
C27	C	0.253887	-0.294198	-0.358103
C28	C	0.324574	-0.294190	-0.358098
C29	C	0.358150	-0.339140	-0.312986
C30	C	0.434799	-0.339134	-0.312983
C31	C	0.495891	-0.339126	-0.312985
C32	C	0.957864	-0.521994	-0.305881
C33	C	0.954872	-0.600228	-0.302867
C34	C	0.996727	-0.636915	-0.344777
C35	C	0.993914	-0.710425	-0.341947
C36	C	0.949247	-0.747245	-0.297203
C37	C	0.907387	-0.710552	-0.255291
C38	C	0.910198	-0.637044	-0.258126
C39	C	0.936198	-0.967097	-0.284083
C40	C	0.933392	-1.040610	-0.281251
C41	C	1.019918	-1.040478	-0.367907
C42	C	1.022728	-0.966968	-0.370735
C43	C	0.980865	-0.930282	-0.328826
N44	N	0.946371	-0.822383	-0.294307
N45	N	0.983738	-0.855145	-0.331725
C46	C	1.141544	-0.339143	-0.312994
C47	C	1.216775	-0.339152	-0.313001
C48	C	0.965033	-0.339071	-0.489523
C49	C	0.965047	-0.339050	-0.564756
C50	C	0.972186	-0.155532	-0.320118
C51	C	0.975248	-0.077298	-0.323160
C52	C	0.923531	-0.294023	-0.601846
C53	C	0.923541	-0.294009	-0.672535
C54	C	0.965070	-0.339020	-0.706132
C55	C	1.006588	-0.384053	-0.669037
C56	C	1.006574	-0.384069	-0.598349
C57	C	1.006644	-0.383987	-0.954113
C58	C	1.006657	-0.383965	-1.024806
C59	C	0.923611	-0.293926	-1.028299
C60	C	0.923597	-0.293943	-0.957611
C61	C	0.965112	-0.338978	-0.920522
C62	C	0.965099	-0.338993	-0.843872
C63	C	0.965087	-0.339002	-0.782780
C64	C	0.965011	-0.339118	-0.137122
C65	C	0.965137	-0.338940	-0.061897
H66	H	1.033103	-0.606941	-0.381209
O67	O	0.883250	-0.250321	-0.569107
C68	C	0.846387	-0.210471	-0.461760
C69	C	0.892053	-0.259986	-0.498748
H70	H	0.853478	-0.218278	-0.404868
H71	H	0.860497	-0.153698	-0.477819
H72	H	0.791338	-0.222815	-0.475215
H73	H	0.947116	-0.247705	-0.485311
H74	H	0.877885	-0.316744	-0.482686
O75	O	0.863902	-0.746287	-0.211901
C76	C	0.747929	-0.768867	-0.178042
C77	C	0.797098	-0.728369	-0.227238
H78	H	0.693909	-0.754384	-0.190416
H79	H	0.753052	-0.827715	-0.183215
H80	H	0.760436	-0.754445	-0.124036
H81	H	0.784623	-0.742731	-0.281265
H82	H	0.791966	-0.669530	-0.222006
O83	O	1.066095	-0.931095	-0.414144
C84	C	1.108737	-0.817794	-0.456947
C85	C	1.059603	-0.858333	-0.407745
H86	H	1.103495	-0.758959	-0.451801
H87	H	1.162789	-0.832154	-0.444559
H88	H	1.096268	-0.832265	-0.510948
H89	H	1.072010	-0.843884	-0.353728
H90	H	1.005565	-0.843970	-0.420192
O91	O	0.895638	-0.931386	-0.243341
C92	C	0.889764	-0.848491	-0.155120
C93	C	0.935777	-0.888883	-0.201232
H94	H	0.922199	-0.814129	-0.121053
H95	H	0.855679	-0.814040	-0.187453
H96	H	0.857344	-0.887446	-0.122681
H97	H	0.968240	-0.849978	-0.233679
H98	H	0.969818	-0.923345	-0.168860
O99	O	0.869470	-0.601371	-0.217512
C100	C	0.781292	-0.518428	-0.211528
C101	C	0.827368	-0.558796	-0.257598
H102	H	0.747251	-0.483986	-0.243918
H103	H	0.748835	-0.557337	-0.179072
H104	H	0.813717	-0.484039	-0.177477
H105	H	0.794995	-0.593186	-0.291689
H106	H	0.859828	-0.519850	-0.290007
O107	O	1.046942	-0.427823	-0.918164
C108	C	1.075098	-0.547560	-0.891861
C109	C	1.029420	-0.497995	-0.932625
H110	H	1.060938	-0.604305	-0.903527
H111	H	1.130167	-0.535253	-0.906262
H112	H	1.067974	-0.539812	-0.835570
H113	H	1.036485	-0.505715	-0.988925
H114	H	0.974367	-0.510314	-0.918168
O115	O	0.883191	-0.250197	-0.925081
C116	C	0.800845	-0.160860	-0.936010
C117	C	0.846562	-0.210376	-0.972933
H118	H	0.771229	-0.128641	-0.974682
H119	H	0.764139	-0.193147	-0.901675
H120	H	0.833363	-0.124099	-0.904330
H121	H	0.814099	-0.247147	-1.004649
H122	H	0.883271	-0.178045	-1.007227
O123	O	1.047094	-0.427661	-1.057368
C124	C	1.160894	-0.461819	-1.077709
C125	C	1.115178	-0.412306	-1.040780
H126	H	1.215950	-0.449412	-1.064322
H127	H	1.146834	-0.518587	-1.061590
H128	H	1.153739	-0.454080	-1.134599
H129	H	1.122309	-0.419982	-0.983884
H130	H	1.129248	-0.355556	-1.056954
O131	O	1.047005	-0.427677	-0.701706
C132	C	1.138005	-0.437141	-0.781183
C133	C	1.092287	-0.387657	-0.744221
H134	H	1.174617	-0.404806	-0.815576
H135	H	1.167725	-0.469317	-0.742561
H136	H	1.105481	-0.473945	-0.812813
H137	H	1.124761	-0.350811	-0.712592
H138	H	1.062563	-0.355531	-0.782878
H139	H	0.575900	-0.420671	-0.231146
H140	H	0.220140	-0.420719	-0.231171
H141	H	0.710547	-0.257547	-0.394802
O142	O	0.883195	-0.250200	-0.708463
C143	C	0.800797	-0.160916	-0.704467
C144	C	0.846469	-0.210483	-0.663698
H145	H	0.771082	-0.128802	-0.668292
H146	H	0.833290	-0.124064	-0.738981
H147	H	0.764173	-0.193227	-0.736318
H148	H	0.883101	-0.178229	-0.631809
H149	H	0.813934	-0.247337	-0.629227
H150	H	0.889805	-0.257259	-1.058506
O151	O	0.360648	-0.250619	-0.401975
C152	C	0.440884	-0.241259	-0.493700
C153	C	0.400059	-0.290687	-0.444061
H154	H	0.472769	-0.273633	-0.527730
H155	H	0.404772	-0.209143	-0.525987
H156	H	0.475371	-0.204397	-0.464095
H157	H	0.365570	-0.327591	-0.473612
H158	H	0.436210	-0.322754	-0.411773
O159	O	1.046965	-0.427833	-0.562420
C160	C	1.129302	-0.517179	-0.566409
C161	C	1.083609	-0.467634	-0.607180
H162	H	1.158930	-0.549381	-0.602580
H163	H	1.165997	-0.484915	-0.534589
H164	H	1.096765	-0.553954	-0.531866
H165	H	1.116092	-0.430849	-0.641760
H166	H	1.046910	-0.499941	-0.638956
H167	H	0.226541	-0.257596	-0.394832
H168	H	0.348375	-0.420702	-0.231157
H169	H	1.053999	-1.070356	-0.402028
O170	O	0.889904	-1.076350	-0.237860
C171	C	0.773930	-1.098947	-0.204010
C172	C	0.823098	-1.058439	-0.253200
H173	H	0.719909	-1.084470	-0.216386
H174	H	0.779061	-1.157795	-0.209188
H175	H	0.786432	-1.084529	-0.150002
H176	H	0.810628	-1.072799	-0.307229
H177	H	0.817959	-0.999602	-0.247964
O178	O	0.577137	-0.250472	-0.401958
C179	C	0.588103	-0.161262	-0.491403
C180	C	0.625006	-0.210717	-0.441756
H181	H	0.626788	-0.129097	-0.523584
H182	H	0.553778	-0.193593	-0.525536
H183	H	0.556415	-0.124448	-0.461807
H184	H	0.656729	-0.247542	-0.471298
H185	H	0.659289	-0.178343	-0.407624
H186	H	0.704145	-0.420664	-0.231135
H187	H	1.028002	-0.740292	-0.376069
