data_functionalizedCrystal
_audit_creation_method	'MofGen! by Chris Wilmer'
_symmetry_space_group_name_H-M	'P1'
_symmetry_Int_Tables_number	1
_symmetry_cell_setting	triclinic
loop_
_symmetry_equiv_pos_as_xyz
  x,y,z
_cell_length_a	12.759401
_cell_length_b	18.050589
_cell_length_c	12.759393
_cell_angle_alpha	90.030621
_cell_angle_beta	90.018496
_cell_angle_gamma	90.028382
loop_
_atom_site_label
_atom_site_type_symbol
_atom_site_fract_x
_atom_site_fract_y
_atom_site_fract_z
Zn1	Zn	1.606157	-0.295612	0.593988
Zn2	Zn	1.606010	-0.419823	0.418311
Zn3	Zn	1.430459	-0.295651	0.418328
Zn4	Zn	1.430406	-0.419766	0.593953
O5	O	1.518258	-0.357713	0.506145
O6	O	1.753158	-0.312097	0.570692
O7	O	1.582683	-0.403391	0.271292
O8	O	1.453849	-0.191722	0.441651
O9	O	1.753050	-0.403354	0.441623
O10	O	1.582934	-0.191693	0.570708
O11	O	1.453706	-0.312163	0.271304
O12	O	1.283431	-0.312108	0.441617
O13	O	1.453759	-0.403256	0.740979
O14	O	1.283392	-0.403294	0.570648
O15	O	1.582882	-0.312041	0.741005
O16	O	1.582632	-0.523740	0.441589
O17	O	1.453616	-0.523698	0.570632
C18	C	1.245290	-0.357699	0.506131
C19	C	1.128514	-0.357711	0.506149
C20	C	1.073659	-0.405268	0.573225
C21	C	0.963935	-0.405277	0.573236
C22	C	0.963930	-0.310171	0.439088
C23	C	1.073652	-0.310159	0.439083
C24	C	1.073661	-0.460179	0.650671
C25	C	0.963937	-0.460188	0.650683
C26	C	1.518131	-0.550665	0.506127
C27	C	1.518173	-0.633211	0.506155
C28	C	1.448083	-0.832666	0.576304
C29	C	1.422469	-0.882114	0.480436
C30	C	1.518276	-0.784341	0.506169
C31	C	1.543942	-0.881974	0.602048
C32	C	1.518374	-0.930326	0.506191
C33	C	1.492611	-0.832703	0.410250
C34	C	1.614129	-0.832558	0.531927
C35	C	1.588551	-0.881985	0.435992
C36	C	1.518217	-0.700243	0.506158
C37	C	1.518433	-1.014423	0.506191
C38	C	1.792291	-0.357727	0.506160
C39	C	1.909068	-0.357733	0.506166
C40	C	1.518331	-0.357638	0.780178
C41	C	1.518363	-0.357606	0.896955
C42	C	1.518414	-0.164007	0.506185
C43	C	1.518480	-0.081462	0.506203
C44	C	1.518245	-0.357734	0.233178
C45	C	1.518417	-0.357557	0.116401
C46	C	1.585606	-0.310106	0.951832
C47	C	1.585631	-0.310079	1.061557
C48	C	1.451166	-0.405059	1.061516
C49	C	1.451136	-0.405081	0.951794
C50	C	1.663242	-0.255273	0.951857
C51	C	1.663267	-0.255246	1.061581
H52	H	1.107657	-0.514786	0.621388
O53	O	1.127051	-0.264060	0.373880
C54	C	1.190455	-0.306270	0.305890
H55	H	1.206885	-0.362583	0.342796
H56	H	1.148134	-0.314364	0.228014
C57	C	1.274510	-0.196212	0.241637
C58	C	1.294696	-0.265374	0.286970
H59	H	1.338809	-0.170985	0.229961
H60	H	1.231791	-0.167774	0.287440
H61	H	1.239240	-0.202967	0.176745
H62	H	1.329953	-0.258618	0.351866
H63	H	1.337423	-0.293811	0.241177
H64	H	1.740507	-0.275891	0.917821
H65	H	1.388636	-0.811010	0.635531
H66	H	1.634172	-0.200598	1.095627
O67	O	1.325812	-0.907999	0.454298
C68	C	1.298267	-0.881832	0.353907
H69	H	1.344742	-0.829433	0.335771
H70	H	1.316920	-0.926060	0.292892
C71	C	1.123118	-0.928645	0.373439
C72	C	1.180193	-0.864284	0.351168
H73	H	1.050284	-0.917823	0.371747
H74	H	1.141675	-0.946277	0.441073
H75	H	1.138674	-0.965495	0.322591
H76	H	1.164647	-0.827439	0.402023
H77	H	1.161630	-0.846646	0.283542
H78	H	1.695124	-0.810777	0.553739
H79	H	1.103474	-0.444840	0.732077
H80	H	1.641493	-0.197759	0.922099
O81	O	0.923429	-0.435814	0.743043
C82	C	0.957682	-0.482176	0.825077
H83	H	0.980179	-0.538620	0.791900
H84	H	1.028681	-0.456159	0.864999
C85	C	0.841170	-0.422389	0.946320
C86	C	0.868792	-0.491717	0.905573
H87	H	0.786341	-0.428273	0.995977
H88	H	0.818095	-0.391152	0.891054
H89	H	0.900343	-0.400716	0.979582
H90	H	0.809623	-0.513385	0.872301
H91	H	0.891855	-0.522958	0.960836
O92	O	0.928181	-0.528750	0.624570
C93	C	0.817680	-0.528625	0.624607
H94	H	0.788076	-0.481760	0.676677
H95	H	0.787857	-0.520162	0.541236
C96	C	0.813610	-0.660788	0.602980
C97	C	0.777249	-0.603231	0.666940
H98	H	0.788669	-0.706809	0.629088
H99	H	0.888057	-0.660872	0.602951
H100	H	0.788754	-0.653726	0.533509
H101	H	0.802116	-0.610289	0.736406
H102	H	0.702805	-0.603149	0.666982
O103	O	1.760296	-0.273755	1.097072
C104	C	1.787047	-0.344902	1.060123
H105	H	1.712565	-0.376979	1.040606
H106	H	1.837352	-0.339518	0.986693
C107	C	1.940404	-0.347162	1.169293
C108	C	1.848924	-0.386562	1.145329
H109	H	1.978577	-0.372860	1.221848
H110	H	1.922385	-0.299228	1.194183
H111	H	1.982313	-0.342679	1.108093
H112	H	1.807012	-0.391037	1.206524
H113	H	1.866938	-0.434498	1.120451
H114	H	1.470848	-0.811149	0.329152
O115	O	1.569861	-0.907671	0.698817
C116	C	1.586992	-0.847329	0.766924
H117	H	1.607831	-0.796062	0.719121
H118	H	1.512814	-0.836192	0.814148
C119	C	1.652160	-0.928680	0.900814
C120	C	1.677764	-0.865714	0.842102
H121	H	1.708149	-0.940021	0.947191
H122	H	1.640615	-0.969334	0.854932
H123	H	1.590343	-0.919391	0.940158
H124	H	1.739572	-0.875007	0.802750
H125	H	1.689321	-0.825062	0.887980
O126	O	1.659402	-0.907790	0.365247
C127	C	1.659259	-0.985893	0.366617
H128	H	1.627984	-1.006207	0.445201
H129	H	1.607091	-1.007526	0.300805
C130	C	1.810232	-0.989596	0.254344
C131	C	1.771827	-1.014546	0.350865
H132	H	1.879668	-1.007272	0.244623
H133	H	1.810326	-0.936976	0.253417
H134	H	1.766749	-1.007626	0.199512
H135	H	1.815302	-0.996509	0.405696
H136	H	1.771743	-1.067164	0.351801
O137	O	1.385766	-0.451281	0.898648
C138	C	1.326418	-0.493160	0.970582
H139	H	1.369475	-0.495731	1.048794
H140	H	1.246663	-0.465941	0.982266
C141	C	1.258277	-0.569045	0.831665
C142	C	1.311165	-0.572208	0.927723
H143	H	1.248864	-0.617805	0.805227
H144	H	1.298258	-0.540829	0.783200
H145	H	1.191821	-0.546359	0.841414
H146	H	1.377625	-0.594886	0.917970
H147	H	1.271195	-0.600430	0.976185
H148	H	1.396430	-0.443710	1.106180
H149	H	0.919248	-0.271455	0.384485
