data_functionalizedCrystal
_audit_creation_method	'MofGen! by Chris Wilmer'
_symmetry_space_group_name_H-M	'P1'
_symmetry_Int_Tables_number	1
_symmetry_cell_setting	triclinic
loop_
_symmetry_equiv_pos_as_xyz
  x,y,z
_cell_length_a	10.489741
_cell_length_b	10.654550
_cell_length_c	9.730223
_cell_angle_alpha	89.998245
_cell_angle_beta	89.999808
_cell_angle_gamma	95.487962
loop_
_atom_site_label
_atom_site_type_symbol
_atom_site_fract_x
_atom_site_fract_y
_atom_site_fract_z
O1	O	1.693966	-0.177183	-0.114201
O2	O	1.322762	-0.193815	-0.114222
O3	O	1.516899	-0.002764	-0.114206
O4	O	1.499829	-0.368234	-0.114217
O5	O	1.516886	-0.002776	0.114374
O6	O	1.322749	-0.193828	0.114358
O7	O	1.693953	-0.177196	0.114379
Zn8	Zn	1.508349	-0.185514	0.150660
Zn9	Zn	1.508366	-0.185497	-0.150504
O10	O	1.499817	-0.368247	0.114363
C11	C	1.275225	-0.192565	0.000065
C12	C	1.133597	-0.188807	0.000057
C13	C	1.515639	0.044029	0.000082
C14	C	1.511889	0.183474	0.000077
N15	N	1.508347	-0.185525	0.356197
C16	C	1.065516	-0.067246	0.000074
C17	C	0.973368	-0.124664	-0.112627
C18	C	0.973389	-0.124706	0.112735
C19	C	1.043314	-0.246274	-0.112737
C20	C	1.043345	-0.246299	0.112726
C21	C	0.951224	-0.303805	-0.000002
C22	C	1.741491	-0.178445	0.000089
C23	C	1.883118	-0.182204	0.000088
C24	C	1.501076	-0.415039	0.000071
C25	C	1.504826	-0.554484	0.000067
C26	C	1.626194	0.262906	0.000088
C27	C	1.622663	0.393928	0.000078
C28	C	1.390513	0.366074	0.000053
C29	C	1.394045	0.235054	0.000053
C30	C	1.760224	0.278989	0.000108
C31	C	1.756693	0.410011	0.000099
N32	N	1.508378	-0.185476	-0.356040
C33	C	1.430338	-0.108574	0.572016
C34	C	1.430325	-0.108594	0.428133
C35	C	1.586396	-0.262430	0.428151
C36	C	1.586415	-0.262402	0.572031
C37	C	1.340227	-0.019761	0.572004
C38	C	1.340214	-0.019782	0.428121
H39	H	1.115254	0.032684	-0.000064
O40	O	1.829660	0.240066	-0.126595
H41	H	1.832426	0.136186	-0.126505
H42	H	1.239608	-0.050631	0.389092
H43	H	1.802898	0.243336	0.098807
H44	H	1.807188	0.451742	0.095760
O45	O	0.932386	-0.056572	0.238959
H46	H	0.978603	0.041594	0.238714
H47	H	1.649931	-0.325060	0.369569
H48	H	0.942383	-0.073224	-0.207906
H49	H	1.649976	-0.325011	0.630603
O50	O	1.381871	0.111404	0.623707
H51	H	1.402256	0.175596	0.534912
O52	O	1.270762	0.149374	0.000044
H53	H	1.188229	0.207256	0.000045
O54	O	0.885699	-0.436316	-0.000059
H55	H	0.913718	-0.486455	-0.093698
O56	O	1.212991	-0.071961	0.631168
H57	H	1.145518	-0.099653	0.546176
O58	O	1.393366	0.105453	0.368971
H59	H	1.334286	0.180280	0.404241
O60	O	1.084111	-0.314299	-0.239124
H61	H	1.189682	-0.316498	-0.238181
H62	H	1.074361	-0.297697	0.208010
H63	H	1.797204	0.455641	-0.098594
O64	O	1.263412	0.421704	0.000048
H65	H	1.280156	0.526156	0.000059
