data_functionalizedCrystal
_audit_creation_method	'MofGen! by Chris Wilmer'
_symmetry_space_group_name_H-M	'P1'
_symmetry_Int_Tables_number	1
_symmetry_cell_setting	triclinic
loop_
_symmetry_equiv_pos_as_xyz
  x,y,z
_cell_length_a	10.723024
_cell_length_b	13.101039
_cell_length_c	10.723024
_cell_angle_alpha	86.604576
_cell_angle_beta	84.467869
_cell_angle_gamma	93.389393
loop_
_atom_site_label
_atom_site_type_symbol
_atom_site_fract_x
_atom_site_fract_y
_atom_site_fract_z
O1	O	1.663994	0.085205	0.168199
O2	O	1.300842	0.085208	0.184952
O3	O	1.490794	0.085203	-0.005000
O4	O	1.474041	0.085211	0.358152
O5	O	1.477165	-0.085226	0.008651
O6	O	1.287213	-0.085221	0.198604
O7	O	1.650365	-0.085224	0.181851
Zn8	Zn	1.466625	-0.112282	0.192395
Zn9	Zn	1.484582	0.112266	0.174408
O10	O	1.460413	-0.085219	0.371803
C11	C	1.247528	-0.000006	0.190559
C12	C	1.108974	-0.000005	0.186911
C13	C	1.033991	-0.000002	0.293198
C14	C	0.890788	-0.000000	0.289431
N15	N	1.454380	-0.265530	0.204669
C16	C	1.437719	-0.474572	0.221381
C17	C	1.513494	-0.525450	0.145416
C18	C	1.504223	-0.641768	0.154715
C19	C	1.446988	-0.358244	0.212084
C20	C	1.703679	-0.000008	0.176244
C21	C	1.842234	-0.000002	0.179891
C22	C	1.482761	-0.000011	-0.044674
C23	C	1.479113	-0.000007	-0.183229
N24	N	1.496837	0.265514	0.162124
C25	C	1.585401	-0.000006	-0.258211
C26	C	1.581634	-0.000003	-0.401415
C27	C	1.468446	-0.000003	0.411477
C28	C	1.472094	0.000000	0.550031
H29	H	1.075813	-0.000006	0.386985
Br30	Br	0.783405	0.000016	0.441097
H31	H	1.067153	0.000020	0.093123
Br32	Br	1.322789	0.000009	-0.252922
H33	H	0.906659	0.000002	0.088895
H34	H	1.585329	-0.481650	0.073398
Br35	Br	1.317996	-0.547569	0.341414
H36	H	1.679186	-0.000014	-0.216389
H37	H	1.672624	-0.000007	-0.465847
H38	H	1.381098	-0.000007	-0.385543
