data_functionalizedCrystal
_audit_creation_method	'MofGen! by Chris Wilmer'
_symmetry_space_group_name_H-M	'P1'
_symmetry_Int_Tables_number	1
_symmetry_cell_setting	triclinic
loop_
_symmetry_equiv_pos_as_xyz
  x,y,z
_cell_length_a	18.101398
_cell_length_b	18.101395
_cell_length_c	18.101390
_cell_angle_alpha	89.968664
_cell_angle_beta	89.975319
_cell_angle_gamma	90.026371
loop_
_atom_site_label
_atom_site_type_symbol
_atom_site_fract_x
_atom_site_fract_y
_atom_site_fract_z
Zn1	Zn	1.132124	-0.294895	-0.418847
Zn2	Zn	1.132019	-0.418752	-0.295009
Zn3	Zn	1.008282	-0.294918	-0.295008
Zn4	Zn	1.008233	-0.418689	-0.418797
O5	O	1.070164	-0.356813	-0.356915
O6	O	1.235743	-0.311341	-0.402441
O7	O	1.115581	-0.402361	-0.191376
O8	O	1.024774	-0.191282	-0.311456
O9	O	1.235666	-0.402338	-0.311457
O10	O	1.115760	-0.191265	-0.402440
O11	O	1.024672	-0.311381	-0.191375
O12	O	0.904642	-0.311320	-0.311408
O13	O	1.024691	-0.402231	-0.522437
O14	O	0.904607	-0.402254	-0.402355
O15	O	1.115713	-0.311280	-0.522473
O16	O	1.115534	-0.522376	-0.311409
O17	O	1.024590	-0.522330	-0.402356
C18	C	0.877754	-0.356783	-0.356877
C19	C	0.795440	-0.356788	-0.356878
C20	C	0.496349	-0.356835	-0.356940
C21	C	0.527672	-0.299336	-0.299997
C22	C	0.613290	-0.299490	-0.299754
C23	C	0.644731	-0.356811	-0.356909
C24	C	0.613613	-0.434824	-0.335587
C25	C	0.527968	-0.434505	-0.335191
C26	C	0.527964	-0.336998	-0.435339
C27	C	0.613615	-0.335261	-0.434911
C28	C	0.728591	-0.356803	-0.356893
C29	C	0.412489	-0.356848	-0.356954
C30	C	1.070065	-0.549224	-0.356893
C31	C	1.070091	-0.631538	-0.356909
C32	C	1.070253	-0.930629	-0.356949
C33	C	1.013166	-0.899306	-0.414312
C34	C	1.012895	-0.813688	-0.414133
C35	C	1.070172	-0.782247	-0.356930
C36	C	1.049043	-0.813402	-0.278878
C37	C	1.048675	-0.899047	-0.279221
C38	C	1.148595	-0.898978	-0.376950
C39	C	1.148134	-0.813327	-0.378661
C40	C	1.070128	-0.698387	-0.356914
C41	C	1.070296	-1.014488	-0.356959
C42	C	1.263326	-0.356844	-0.356954
C43	C	1.345640	-0.356857	-0.356971
C44	C	1.070208	-0.356746	-0.550077
C45	C	1.070227	-0.356717	-0.632391
C46	C	1.070284	-0.163652	-0.356953
C47	C	1.070335	-0.081337	-0.356970
C48	C	1.070267	-0.356671	-0.931483
C49	C	1.127724	-0.299648	-0.900180
C50	C	1.127545	-0.299437	-0.814562
C51	C	1.070248	-0.356694	-0.783100
C52	C	0.992231	-0.335484	-0.814166
C53	C	0.992575	-0.335057	-0.899811
C54	C	1.090140	-0.435050	-0.899899
C55	C	1.091852	-0.434650	-0.814249
C56	C	1.070232	-0.356708	-0.699240
C57	C	1.070278	-0.356655	-1.015342
C58	C	1.070163	-0.356827	-0.164505
C59	C	1.070288	-0.356648	-0.082191
H60	H	0.635027	-0.451937	-0.278892
C61	C	1.102396	-0.927055	-0.219508
C62	C	1.073694	-0.975853	-0.155958
C63	C	1.127408	-1.003860	-0.096241
C64	C	1.209824	-0.983069	-0.100074
C65	C	1.238530	-0.934269	-0.163627
C66	C	1.184816	-0.906262	-0.223344
H67	H	1.012682	-0.991245	-0.153118
H68	H	1.106158	-1.039985	-0.049195
H69	H	1.249586	-1.003802	-0.055869
H70	H	1.299543	-0.918877	-0.166467
H71	H	1.206066	-0.870137	-0.270390
H72	H	0.954826	-0.793261	-0.400884
H73	H	0.506392	-0.281101	-0.454725
H74	H	1.026114	-0.792621	-0.472007
H75	H	0.507708	-0.378878	-0.477766
H76	H	0.992382	-0.792013	-0.261633
H77	H	0.633959	-0.277852	-0.450989
H78	H	0.955450	-0.920888	-0.401230
C79	C	1.030845	-0.927052	-0.492754
C80	C	1.097333	-0.978495	-0.505687
C81	C	1.115017	-1.006243	-0.584132
C82	C	1.066213	-0.982550	-0.649645
C83	C	0.999720	-0.931104	-0.636715
C84	C	0.982037	-0.903356	-0.558269
H85	H	1.133465	-0.996037	-0.457188
H86	H	1.164239	-1.044326	-0.593703
H87	H	1.079303	-1.003091	-0.707715
H88	H	0.963588	-0.913562	-0.685213
H89	H	0.932815	-0.865273	-0.548698
C90	C	0.971311	-0.926125	-0.256339
C91	C	0.954961	-1.009505	-0.251916
C92	C	0.877594	-1.036579	-0.229035
C93	C	0.816578	-0.980273	-0.210576
C94	C	0.832927	-0.896889	-0.214999
C95	C	0.910293	-0.869814	-0.237880
H96	H	1.000130	-1.051190	-0.265581
H97	H	0.865492	-1.098306	-0.225762
H98	H	0.759307	-1.000315	-0.193638
H99	H	0.787757	-0.855203	-0.201334
H100	H	0.922395	-0.808087	-0.241153
C101	C	1.206058	-0.926345	-0.320515
C102	C	1.287509	-0.902905	-0.327998
C103	C	1.344965	-0.930278	-0.271561
C104	C	1.320968	-0.981089	-0.207642
C105	C	1.239512	-1.004531	-0.200156
C106	C	1.182057	-0.977159	-0.256593
H107	H	1.305277	-0.865289	-0.375317
H108	H	1.405264	-0.912924	-0.277103
H109	H	1.363500	-1.001352	-0.165864
H110	H	1.221745	-1.042148	-0.152837
H111	H	1.121758	-0.994513	-0.251051
C112	C	0.932773	-0.388716	-0.927789
C113	C	0.920886	-0.399269	-1.011353
C114	C	0.861081	-0.452922	-1.039327
C115	C	0.813162	-0.496022	-0.983736
C116	C	0.825047	-0.485470	-0.900167
C117	C	0.884853	-0.431817	-0.872193
H118	H	0.956360	-0.367362	-1.052509
H119	H	0.852283	-0.460732	-1.101191
H120	H	0.768891	-0.535739	-1.004444
H121	H	0.789574	-0.517377	-0.859011
H122	H	0.893651	-0.424007	-0.810329
H123	H	0.507956	-0.451326	-0.277877
C124	C	1.165676	-0.461115	-0.929089
C125	C	1.228776	-0.478030	-0.874621
C126	C	1.304314	-0.504087	-0.903812
C127	C	1.316754	-0.513230	-0.987472
C128	C	1.253653	-0.496315	-1.041945
C129	C	1.178114	-0.470258	-1.012754
H130	H	1.219569	-0.471262	-0.812686
H131	H	1.351026	-0.516608	-0.863487
H132	H	1.372672	-0.532519	-1.009081
H133	H	1.262860	-0.503083	-1.103880
H134	H	1.131403	-0.457737	-1.053079
H135	H	0.507246	-0.478797	-0.374857
H136	H	1.167859	-0.920523	-0.432895
H137	H	1.089314	-0.793038	-0.234972
C138	C	0.499877	-0.220944	-0.317846
C139	C	0.454000	-0.178039	-0.260492
C140	C	0.426198	-0.099647	-0.278343
C141	C	0.444273	-0.064158	-0.353548
C142	C	0.490152	-0.107063	-0.410908
C143	C	0.517955	-0.185456	-0.393057
H144	H	0.440617	-0.204310	-0.204815
H145	H	0.392234	-0.067886	-0.235881
H146	H	0.423692	-0.006127	-0.366763
H147	H	0.503535	-0.080793	-0.466584
H148	H	0.551918	-0.217217	-0.435519
C149	C	0.498559	-0.316842	-0.221972
C150	C	0.446518	-0.383063	-0.209789
C151	C	0.417405	-0.400573	-0.131765
C152	C	0.440333	-0.351861	-0.065924
C153	C	0.492377	-0.285636	-0.078105
C154	C	0.521490	-0.268126	-0.156129
H155	H	0.429543	-0.419126	-0.258531
H156	H	0.378878	-0.449597	-0.122749
H157	H	0.418781	-0.364823	-0.008166
H158	H	0.509352	-0.249573	-0.029364
H159	H	0.560016	-0.219102	-0.165146
H160	H	1.164068	-0.792961	-0.436103
H161	H	1.185396	-0.312720	-0.793559
C162	C	1.208615	-0.784413	-0.326308
C163	C	1.273520	-0.738889	-0.357263
C164	C	1.333987	-0.709976	-0.304890
C165	C	1.329550	-0.726587	-0.221562
C166	C	1.264642	-0.772114	-0.190602
C167	C	1.204175	-0.801027	-0.242976
H168	H	1.276807	-0.726590	-0.418952
H169	H	1.382036	-0.676274	-0.327809
H170	H	1.374311	-0.705184	-0.182792
H171	H	1.261355	-0.784413	-0.128914
H172	H	1.156126	-0.834729	-0.220057
C173	C	0.641125	-0.494257	-0.389855
C174	C	0.692289	-0.472591	-0.454318
C175	C	0.719803	-0.532022	-0.508587
C176	C	0.696152	-0.613121	-0.498393
C177	C	0.644984	-0.634791	-0.433927
C178	C	0.617471	-0.575359	-0.379658
H179	H	0.709800	-0.412554	-0.461867
H180	H	0.757680	-0.515980	-0.556309
H181	H	0.716519	-0.657116	-0.538566
H182	H	0.627474	-0.694828	-0.426378
H183	H	0.579594	-0.591402	-0.331936
C184	C	0.640929	-0.317217	-0.221279
C185	C	0.585070	-0.331281	-0.158636
C186	C	0.612708	-0.349013	-0.080158
C187	C	0.696205	-0.352681	-0.064322
C188	C	0.752069	-0.338617	-0.126966
C189	C	0.724431	-0.320885	-0.205444
H190	H	0.523256	-0.328565	-0.170358
H191	H	0.571354	-0.359424	-0.033785
H192	H	0.716665	-0.365808	-0.006227
H193	H	0.813883	-0.341332	-0.115244
H194	H	0.765785	-0.310473	-0.251817
C195	C	1.110212	-0.221649	-0.929305
C196	C	1.044022	-0.209559	-0.981334
C197	C	1.026522	-0.131565	-1.010480
C198	C	1.075212	-0.065661	-0.987596
C199	C	1.141406	-0.077750	-0.935564
C200	C	1.158906	-0.155744	-0.906418
H201	H	1.007975	-0.258347	-0.998277
H202	H	0.977520	-0.122617	-1.048997
H203	H	1.062257	-0.007926	-1.009171
H204	H	1.177453	-0.028962	-0.918621
H205	H	1.207908	-0.164692	-0.867901
C206	C	0.642540	-0.387710	-0.495298
C207	C	0.625989	-0.471042	-0.490709
C208	C	0.654922	-0.523496	-0.551091
C209	C	0.700405	-0.492620	-0.616062
C210	C	0.716959	-0.409284	-0.620654
C211	C	0.688026	-0.356830	-0.560271
H212	H	0.592318	-0.493902	-0.442611
H213	H	0.642668	-0.585187	-0.547692
H214	H	0.721823	-0.531450	-0.660761
H215	H	0.750630	-0.386424	-0.668752
H216	H	0.700280	-0.295139	-0.563671
H217	H	1.114391	-0.241372	-0.794086
C218	C	0.969820	-0.257656	-0.926819
C219	C	0.900752	-0.248229	-0.975555
C220	C	0.877998	-0.170826	-1.002558
C221	C	0.924311	-0.102851	-0.980827
C222	C	0.993383	-0.112277	-0.932089
C223	C	1.016137	-0.189679	-0.905085
H224	H	0.866464	-0.298550	-0.991644
H225	H	0.826866	-0.163849	-1.038637
H226	H	0.907467	-0.045553	-1.000816
H227	H	1.027670	-0.061956	-0.915999
H228	H	1.067269	-0.196657	-0.869006
H229	H	1.185764	-0.312767	-0.920788
C230	C	0.932822	-0.389857	-0.786632
C231	C	0.954512	-0.454305	-0.735498
C232	C	0.895104	-0.508680	-0.707964
C233	C	0.814007	-0.498607	-0.731564
C234	C	0.792313	-0.434156	-0.782702
C235	C	0.851721	-0.379781	-0.810236
H236	H	1.014548	-0.461765	-0.718025
H237	H	0.911163	-0.556390	-0.670108
H238	H	0.770030	-0.538858	-0.711182
H239	H	0.732277	-0.426697	-0.800175
H240	H	0.835662	-0.332071	-0.848091
H241	H	0.975078	-0.278826	-0.792724
C242	C	1.169416	-0.456259	-0.786828
C243	C	1.212955	-0.403391	-0.736390
C244	C	1.290521	-0.424997	-0.708967
C245	C	1.324548	-0.499469	-0.731983
C246	C	1.281009	-0.552342	-0.782424
C247	C	1.203443	-0.530737	-0.809847
H248	H	1.187766	-0.348258	-0.719349
H249	H	1.322751	-0.385856	-0.671627
H250	H	1.381967	-0.515463	-0.711683
H251	H	1.306198	-0.607476	-0.799464
H252	H	1.171213	-0.569877	-0.847187
C253	C	1.033612	-0.492453	-0.927246
C254	C	0.986793	-0.536175	-0.871205
C255	C	0.930265	-0.593571	-0.898558
C256	C	0.920556	-0.607245	-0.981950
C257	C	0.967376	-0.563522	-1.037995
C258	C	1.023905	-0.506126	-1.010643
H259	H	0.993979	-0.526053	-0.809469
H260	H	0.895606	-0.625938	-0.857069
H261	H	0.878710	-0.649733	-1.002197
H262	H	0.960190	-0.573643	-1.099732
H263	H	1.058564	-0.473759	-1.052132
H264	H	0.634330	-0.241640	-0.313119
H265	H	1.053046	-0.479420	-0.792829
