data_functionalizedCrystal
_audit_creation_method	'MofGen! by Chris Wilmer'
_symmetry_space_group_name_H-M	'P1'
_symmetry_Int_Tables_number	1
_symmetry_cell_setting	triclinic
loop_
_symmetry_equiv_pos_as_xyz
  x,y,z
_cell_length_a	14.853568
_cell_length_b	10.489689
_cell_length_c	13.330367
_cell_angle_alpha	90.011376
_cell_angle_beta	90.015147
_cell_angle_gamma	84.076821
loop_
_atom_site_label
_atom_site_type_symbol
_atom_site_fract_x
_atom_site_fract_y
_atom_site_fract_z
O1	O	-0.126970	-1.692676	-0.083524
O2	O	-0.138959	-1.321337	-0.083513
O3	O	-0.001789	-1.516924	-0.083485
O4	O	-0.264140	-1.497089	-0.083552
O5	O	-0.001786	-1.516893	0.083362
O6	O	-0.138956	-1.321306	0.083334
O7	O	-0.126968	-1.692645	0.083323
Cu8	Cu	-0.132962	-1.506973	0.098563
Cu9	Cu	-0.132965	-1.507009	-0.098753
O10	O	-0.264137	-1.497058	0.083295
C11	C	-0.138062	-1.273799	-0.000087
C12	C	-0.135383	-1.132196	-0.000081
C13	C	-0.217876	-0.948883	-0.000109
C14	C	-0.176671	-1.041507	-0.082364
C15	C	-0.176646	-1.041449	0.082134
C16	C	-0.089359	-0.972534	-0.082418
C17	C	-0.089346	-0.972467	0.082154
C18	C	-0.048078	-1.065064	-0.000120
C19	C	0.031806	-1.516009	-0.000055
C20	C	0.131904	-1.513314	-0.000035
C21	C	0.168924	-1.395867	-0.000022
C22	C	0.188941	-1.628230	-0.000038
C23	C	0.282989	-1.625702	-0.000025
C24	C	0.320009	-1.508255	-0.000012
C25	C	0.262980	-1.393335	-0.000012
C26	C	0.340024	-1.740620	-0.000035
C27	C	0.434079	-1.738096	-0.000023
C28	C	0.471100	-1.620647	-0.000002
C29	C	0.414065	-1.505723	-0.000001
C30	C	0.451085	-1.388276	0.000012
C31	C	0.394052	-1.273350	0.000020
C32	C	0.300001	-1.275887	0.000008
C33	C	0.565150	-1.618111	0.000009
C34	C	0.545141	-1.385744	0.000022
C35	C	0.702268	-1.497972	-0.000091
C36	C	0.602169	-1.500664	0.000022
C37	C	-0.127879	-0.740180	-0.000100
C38	C	-0.130600	-0.881775	-0.000095
N39	N	-0.132959	-1.506956	0.237345
C40	C	-0.193683	-1.420387	0.709955
C41	C	-0.072247	-1.593641	0.709948
C42	C	-0.072243	-1.593628	0.604929
C43	C	-0.132962	-1.506995	0.552419
C44	C	-0.193683	-1.420374	0.604927
C45	C	-0.011529	-1.680256	0.552413
C46	C	-0.011524	-1.680247	0.447389
C47	C	-0.072239	-1.593607	0.394876
C48	C	-0.132962	-1.506982	0.447391
C49	C	-0.193680	-1.420349	0.394881
C50	C	-0.254400	-1.333717	0.447393
C51	C	-0.254398	-1.333734	0.552415
C52	C	-0.072241	-1.593589	0.289855
C53	C	-0.193680	-1.420336	0.289853
N54	N	-0.132964	-1.507021	0.762465
H55	H	-0.289616	-0.898387	-0.000209
H56	H	0.037917	-1.750786	0.404639
H57	H	0.122484	-1.302298	-0.000011
H58	H	0.158794	-1.723851	-0.000029
H59	H	-0.303841	-1.263184	0.404627
H60	H	-0.303834	-1.263202	0.595177
H61	H	0.309876	-1.836239	0.000016
H62	H	-0.052466	-0.942151	-0.152036
H63	H	-0.243117	-1.349849	0.752714
H64	H	-0.022808	-1.664130	0.247104
C65	C	0.094318	-1.098175	-0.086346
C66	C	0.048852	-1.132941	-0.000153
H67	H	0.154155	-1.140087	-0.086371
H68	H	0.096564	-1.008013	-0.086893
H69	H	0.063076	-1.122867	-0.144232
H70	H	0.080090	-1.108240	0.057733
H71	H	0.046611	-1.223123	0.000403
C72	C	0.551468	-1.870041	0.085750
C73	C	0.496769	-1.864414	-0.000026
H74	H	0.590175	-1.948021	0.085744
H75	H	0.514367	-1.866202	0.143917
H76	H	0.586970	-1.799725	0.085751
H77	H	0.461262	-1.934726	-0.000023
H78	H	0.533874	-1.868266	-0.058207
H79	H	0.611582	-1.711682	-0.000008
H80	H	0.037902	-1.750796	0.595171
C81	C	-0.313719	-1.249080	0.300410
C82	C	-0.260428	-1.325106	0.232137
H83	H	-0.354929	-1.190296	0.264777
H84	H	-0.275877	-1.203142	0.341387
H85	H	-0.346504	-1.302244	0.341357
H86	H	-0.227637	-1.271943	0.191195
H87	H	-0.298274	-1.371047	0.191142
H88	H	-0.052448	-0.941845	0.151716
C89	C	0.639309	-1.248077	0.085810
C90	C	0.585828	-1.256639	0.000037
H91	H	0.664421	-1.168369	0.085820
H92	H	0.686732	-1.316142	0.085798
H93	H	0.603036	-1.253892	0.143985
H94	H	0.622102	-1.250833	-0.058138
H95	H	0.538398	-1.188554	0.000040
C96	C	0.083320	-1.668248	0.742317
C97	C	-0.005503	-1.688853	0.767668
H98	H	0.124527	-1.727032	0.777952
H99	H	0.093670	-1.583114	0.759550
H100	H	0.092003	-1.680648	0.672253
H101	H	-0.014188	-1.676445	0.837731
H102	H	-0.015857	-1.774008	0.750442
H103	H	-0.213588	-1.071978	0.151672
H104	H	0.253557	-1.182321	0.000013
C105	C	-0.315485	-1.023789	-0.176034
C106	C	-0.226559	-1.082952	-0.176191
H107	H	-0.346299	-1.049421	-0.233933
H108	H	-0.314625	-0.933378	-0.176512
H109	H	-0.345846	-1.048467	-0.117556
H110	H	-0.196197	-1.058267	-0.234665
H111	H	-0.227416	-1.173383	-0.175722
C112	C	0.488204	-1.135726	-0.085734
C113	C	0.434753	-1.144256	0.000032
H114	H	0.513338	-1.056034	-0.085722
H115	H	0.451914	-1.141534	-0.143907
H116	H	0.535621	-1.203819	-0.085729
H117	H	0.387332	-1.076168	0.000023
H118	H	0.471045	-1.138436	0.058220
