data_functionalizedCrystal
_audit_creation_method	'MofGen! by Chris Wilmer'
_symmetry_space_group_name_H-M	'P1'
_symmetry_Int_Tables_number	1
_symmetry_cell_setting	triclinic
loop_
_symmetry_equiv_pos_as_xyz
  x,y,z
_cell_length_a	10.654550
_cell_length_b	10.489716
_cell_length_c	9.130313
_cell_angle_alpha	90.002761
_cell_angle_beta	89.996220
_cell_angle_gamma	84.507019
loop_
_atom_site_label
_atom_site_type_symbol
_atom_site_fract_x
_atom_site_fract_y
_atom_site_fract_z
O1	O	1.667902	0.179158	-0.121906
O2	O	1.302430	0.196228	-0.121881
O3	O	1.493499	0.002089	-0.121899
O4	O	1.476834	0.373297	-0.121887
O5	O	1.493496	0.002094	0.121700
O6	O	1.302428	0.196233	0.121718
O7	O	1.667900	0.179163	0.121693
Cu8	Cu	1.485164	0.187699	0.143948
Cu9	Cu	1.485167	0.187692	-0.144136
O10	O	1.476832	0.373302	0.121712
C11	C	1.255631	0.194977	-0.000078
C12	C	1.116186	0.191227	-0.000069
C13	C	1.492245	-0.045440	-0.000104
C14	C	1.488499	-0.187069	-0.000117
C15	C	1.036744	0.305533	-0.000087
C16	C	0.905722	0.302002	-0.000113
C17	C	0.933597	0.069849	-0.000109
C18	C	1.064616	0.073382	-0.000073
C19	C	1.020650	0.439565	-0.000096
C20	C	0.889628	0.436034	-0.000121
C21	C	1.605668	-0.284800	-0.000112
C22	C	1.543755	-0.362133	-0.120211
C23	C	1.543725	-0.362092	0.119959
C24	C	1.426635	-0.262537	-0.120315
C25	C	1.426623	-0.262490	0.119962
C26	C	1.364623	-0.339775	-0.000166
C27	C	1.714700	0.180414	-0.000112
C28	C	1.854144	0.184164	-0.000131
C29	C	1.478085	0.420831	-0.000087
C30	C	1.481831	0.562460	-0.000083
N31	N	1.485171	0.187702	0.346571
N32	N	1.485169	0.187679	-0.346758
C33	C	1.569798	0.101767	0.423215
C34	C	1.569795	0.101752	0.576552
C35	C	1.400533	0.273618	0.576587
C36	C	1.400532	0.273626	0.423253
C37	C	1.667523	0.002545	0.423196
C38	C	1.667520	0.002530	0.576532
H39	H	1.129294	-0.019697	-0.000037
N40	N	1.309244	0.366286	0.659294
H41	H	1.322082	0.353240	0.768062
H42	H	1.324551	0.456921	0.632508
H43	H	1.707585	-0.260172	-0.000240
H44	H	1.636972	-0.090123	0.624079
N45	N	0.877974	-0.057250	-0.000101
H46	H	0.782919	-0.042146	-0.000119
H47	H	0.906979	-0.107331	-0.090397
N48	N	1.788324	0.043680	0.360180
H49	H	1.783913	0.042184	0.249701
H50	H	1.800037	0.133324	0.394425
H51	H	1.593217	-0.405654	-0.221755
H52	H	1.764040	0.024386	0.618143
H53	H	1.646043	-0.095501	0.381574
N54	N	1.609270	-0.419683	0.254460
H55	H	1.565958	-0.382016	0.345175
H56	H	1.605506	-0.515521	0.253848
N57	N	1.059542	0.509012	0.134936
H58	H	0.982396	0.537448	0.195176
H59	H	1.119373	0.449644	0.195100
H60	H	1.056323	0.482240	-0.105266
H61	H	0.843971	0.476542	0.105048
H62	H	1.377201	-0.219211	-0.221962
H63	H	1.262629	-0.364156	-0.000224
N64	N	0.834360	0.502921	-0.135159
H65	H	0.904201	0.535308	-0.195406
H66	H	0.789124	0.440710	-0.195313
H67	H	1.377203	-0.218946	0.221510
H68	H	1.331611	0.343590	0.360851
