data_functionalizedCrystal
_audit_creation_method	'MofGen! by Chris Wilmer'
_symmetry_space_group_name_H-M	'P1'
_symmetry_Int_Tables_number	1
_symmetry_cell_setting	triclinic
loop_
_symmetry_equiv_pos_as_xyz
  x,y,z
_cell_length_a	17.038272
_cell_length_b	14.853567
_cell_length_c	13.330367
_cell_angle_alpha	90.000844
_cell_angle_beta	89.998118
_cell_angle_gamma	92.626757
loop_
_atom_site_label
_atom_site_type_symbol
_atom_site_fract_x
_atom_site_fract_y
_atom_site_fract_z
O1	O	1.037627	-0.195788	-0.083284
O2	O	0.809993	-0.192680	-0.083314
O3	O	0.929891	-0.063462	-0.083301
O4	O	0.917730	-0.325006	-0.083297
O5	O	0.929873	-0.063457	0.083546
O6	O	0.809975	-0.192675	0.083534
O7	O	1.037610	-0.195784	0.083563
Cu8	Cu	0.923791	-0.194229	0.098783
Cu9	Cu	0.923812	-0.194234	-0.098533
O10	O	0.917712	-0.325002	0.083551
C11	C	0.780852	-0.189850	0.000106
C12	C	0.694048	-0.181414	0.000094
C13	C	0.929331	-0.029829	0.000120
C14	C	0.927680	0.070379	0.000111
N15	N	0.923782	-0.194225	0.237564
C16	C	0.644036	-0.258867	0.000096
C17	C	0.562475	-0.250935	0.000110
C18	C	0.530928	-0.165549	0.000115
C19	C	0.580947	-0.088090	0.000115
C20	C	0.662506	-0.096023	0.000109
C21	C	0.285133	-0.137524	0.000141
C22	C	0.203567	-0.129597	0.000144
C23	C	0.185101	-0.292443	0.000141
C24	C	0.266663	-0.300368	0.000128
C25	C	0.316674	-0.222909	0.000135
C26	C	0.447559	-0.157439	0.000125
C27	C	0.400041	-0.231019	0.000131
C28	C	1.066751	-0.198614	0.000141
C29	C	1.153555	-0.207050	0.000147
C30	C	0.918272	-0.358634	0.000128
C31	C	0.919923	-0.458842	0.000130
C32	C	0.849478	0.488797	0.000120
C33	C	0.991919	0.499359	0.000138
C34	C	0.993472	0.405209	0.000132
C35	C	0.923026	0.352848	0.000122
C36	C	0.851028	0.394638	0.000117
C37	C	1.065468	0.363412	0.000147
C38	C	1.067024	0.269255	0.000143
C39	C	0.996578	0.216893	0.000125
C40	C	0.924577	0.258689	0.000119
C41	C	0.854131	0.206328	0.000108
C42	C	0.782129	0.248122	0.000095
C43	C	0.780582	0.342276	0.000099
C44	C	0.998125	0.122739	0.000121
C45	C	0.855682	0.112168	0.000106
N46	N	0.923827	-0.194231	-0.237315
C47	C	0.870719	-0.251428	0.710182
C48	C	0.976926	-0.137036	0.710161
C49	C	0.976917	-0.137032	0.605142
C50	C	0.923809	-0.194228	0.552639
C51	C	0.870710	-0.251428	0.605154
C52	C	1.030021	-0.079840	0.552620
C53	C	1.030014	-0.079835	0.447595
C54	C	0.976902	-0.137027	0.395090
C55	C	0.923800	-0.194229	0.447611
C56	C	0.870692	-0.251425	0.395107
C57	C	0.817586	-0.308622	0.447626
C58	C	0.817597	-0.308620	0.552648
C59	C	0.976890	-0.137029	0.290068
C60	C	0.870683	-0.251425	0.290079
H61	H	0.669714	-0.328397	0.000092
H62	H	1.056748	0.088715	0.000139
H63	H	1.020132	-0.090464	0.247312
H64	H	0.555255	-0.018567	0.000133
N65	N	0.508532	-0.334473	0.000226
H66	H	0.540892	-0.389768	0.000253
H67	H	0.474243	-0.334793	-0.061585
N68	N	1.141448	0.419875	0.000153
H69	H	1.172848	0.405802	0.062009
H70	H	1.129481	0.485843	0.000108
N71	N	0.413524	-0.065350	0.000133
H72	H	0.380090	-0.058436	-0.061711
H73	H	0.457618	-0.017533	0.000167
N74	N	1.087280	-0.018134	0.609249
H75	H	1.120916	0.018103	0.560045
H76	H	1.121887	-0.055310	0.652832
N77	N	1.144678	0.224181	0.000157
H78	H	1.189068	0.271639	0.000166
H79	H	1.148431	0.185350	-0.061698
N80	N	1.087288	-0.018147	0.390953
H81	H	1.120933	0.018085	0.440151
H82	H	1.057308	0.024031	0.347389
N83	N	0.813395	-0.313109	0.233452
H84	H	0.779756	-0.349338	0.282661
H85	H	0.843362	-0.355289	0.189873
N86	N	0.779700	0.055696	0.000086
H87	H	0.733856	0.096461	0.000077
H88	H	0.777231	0.016401	0.061938
N89	N	0.760305	-0.370314	0.390999
H90	H	0.790224	-0.412547	0.347423
H91	H	0.725665	-0.333115	0.347486
N92	N	0.760322	-0.370307	0.609292
H93	H	0.768390	-0.361629	0.683789
H94	H	0.769418	-0.434968	0.590930
H95	H	0.827478	-0.297995	0.752945
N96	N	1.067896	0.555828	0.000166
H97	H	1.055989	0.621816	0.000172
H98	H	1.099278	0.541685	-0.061683
N99	N	0.300687	-0.392463	0.000105
H100	H	0.256627	-0.440327	0.000104
H101	H	0.334131	-0.399311	0.061948
H102	H	0.724773	0.205477	0.000094
H103	H	0.425730	-0.300540	0.000133
N104	N	0.131158	-0.375981	0.000170
H105	H	0.163520	-0.431276	0.000173
H106	H	0.096907	-0.376252	-0.061673
H107	H	1.020169	-0.090473	0.752913
N108	N	0.169539	-0.037498	0.000143
H109	H	0.213596	0.010369	0.000146
H110	H	0.136098	-0.030663	0.061994
H111	H	0.790855	0.522830	0.000105
N112	N	0.339074	-0.053988	0.000129
H113	H	0.373326	-0.053645	0.061977
H114	H	0.306662	0.001263	0.000088
H115	H	0.703226	-0.032952	0.000107
H116	H	0.721962	0.376313	0.000089
