data_functionalizedCrystal
_audit_creation_method	'MofGen! by Chris Wilmer'
_symmetry_space_group_name_H-M	'P1'
_symmetry_Int_Tables_number	1
_symmetry_cell_setting	triclinic
loop_
_symmetry_equiv_pos_as_xyz
  x,y,z
_cell_length_a	14.044220
_cell_length_b	12.837942
_cell_length_c	11.892095
_cell_angle_alpha	94.302569
_cell_angle_beta	85.750402
_cell_angle_gamma	94.008909
loop_
_atom_site_label
_atom_site_type_symbol
_atom_site_fract_x
_atom_site_fract_y
_atom_site_fract_z
O1	O	1.285971	0.245911	-0.093880
O2	O	1.009182	0.236815	-0.093908
O3	O	1.141439	0.089893	-0.093888
O4	O	1.153714	0.392833	-0.093900
O5	O	1.130409	0.102123	0.094118
O6	O	0.998153	0.249045	0.094097
O7	O	1.274942	0.258141	0.094126
Zn8	Zn	1.134796	0.255535	0.123962
Zn9	Zn	1.149328	0.239422	-0.123744
O10	O	1.142685	0.405063	0.094105
C11	C	1.131777	0.057004	0.000114
C12	C	1.119410	-0.059217	0.000111
C13	C	0.967994	0.238949	0.000091
C14	C	0.861696	0.227074	0.000080
C15	C	1.268090	-0.286428	0.000103
C16	C	1.256474	-0.395628	0.000100
C17	C	1.084564	-0.386820	0.000094
C18	C	1.096180	-0.277620	0.000097
C19	C	1.187946	-0.227427	0.000103
C20	C	1.199560	-0.118225	0.000114
C21	C	1.027652	-0.109419	0.000100
C22	C	1.016036	-0.218619	0.000097
C23	C	0.667072	0.205367	0.000103
C24	C	0.617046	0.289584	0.000104
C25	C	0.508751	0.277506	0.000117
C26	C	0.775377	0.217443	0.000090
C27	C	1.316130	0.256007	0.000124
C28	C	1.422428	0.267882	0.000128
C29	C	1.152347	0.437952	0.000101
C30	C	1.164714	0.554172	0.000097
N31	N	1.124886	0.266531	0.293014
N32	N	1.159245	0.228418	-0.292797
C33	C	1.228200	0.151838	0.529678
C34	C	1.221281	0.159533	0.648019
C35	C	1.104122	0.289609	0.648039
C36	C	1.111042	0.281915	0.529698
C37	C	1.173084	0.213028	0.470522
C38	C	1.180008	0.205339	0.352179
C39	C	1.062846	0.335410	0.352201
C40	C	1.055926	0.343104	0.470542
H41	H	1.274280	-0.077360	0.000123
F42	F	0.667370	0.395682	0.000095
H43	H	1.342808	-0.245560	0.000119
F44	F	0.986910	-0.440257	0.000059
F45	F	0.616749	0.099276	0.000111
H46	H	1.230528	0.149251	0.303999
F47	F	0.942350	-0.046618	0.000112
H48	H	1.278724	0.095756	0.481496
H49	H	1.321736	-0.443662	0.000096
H50	H	1.266160	0.109705	0.696181
H51	H	1.053602	0.345688	0.696235
H52	H	1.005410	0.399188	0.518736
H53	H	1.017969	0.385238	0.304022
H54	H	0.941323	-0.259501	0.000087
