data_functionalizedCrystal
_audit_creation_method	'MofGen! by Chris Wilmer'
_symmetry_space_group_name_H-M	'P1'
_symmetry_Int_Tables_number	1
_symmetry_cell_setting	triclinic
loop_
_symmetry_equiv_pos_as_xyz
  x,y,z
_cell_length_a	29.839134
_cell_length_b	29.839131
_cell_length_c	16.959447
_cell_angle_alpha	89.958350
_cell_angle_beta	89.981990
_cell_angle_gamma	90.015800
loop_
_atom_site_label
_atom_site_type_symbol
_atom_site_fract_x
_atom_site_fract_y
_atom_site_fract_z
Zn1	Zn	0.686765	-0.179077	-0.446869
Zn2	Zn	0.686697	-0.254210	-0.314665
Zn3	Zn	0.611640	-0.179070	-0.314704
Zn4	Zn	0.611603	-0.254155	-0.446801
O5	O	0.649176	-0.216628	-0.380760
O6	O	0.749623	-0.189070	-0.429344
O7	O	0.676728	-0.244263	-0.204059
O8	O	0.621649	-0.116204	-0.332281
O9	O	0.749573	-0.244270	-0.332214
O10	O	0.676843	-0.116209	-0.429382
O11	O	0.621583	-0.189057	-0.204088
O12	O	0.548768	-0.189004	-0.332215
O13	O	0.621587	-0.244176	-0.557421
O14	O	0.548741	-0.244169	-0.429266
O15	O	0.676807	-0.189016	-0.557471
O16	O	0.676692	-0.317070	-0.332148
O17	O	0.621521	-0.317030	-0.429227
C18	C	0.532454	-0.216580	-0.380738
C19	C	0.482519	-0.216570	-0.380747
C20	C	0.125954	-0.187945	-0.431435
C21	C	0.313627	-0.187909	-0.431417
O22	O	0.337910	-0.163514	-0.474509
N23	N	0.337074	-0.216600	-0.380766
C24	C	0.313600	-0.245303	-0.330119
O25	O	0.337850	-0.269709	-0.287043
C26	C	0.125928	-0.245341	-0.330142
C27	C	0.102483	-0.216646	-0.380791
C28	C	0.102509	-0.159252	-0.482080
C29	C	0.055593	-0.159260	-0.482081
C30	C	0.032123	-0.187960	-0.431437
C31	C	0.055568	-0.216653	-0.380792
C32	C	0.102455	-0.274047	-0.279501
C33	C	0.055534	-0.274055	-0.279512
C34	C	0.032089	-0.245359	-0.330161
C35	C	-0.014818	-0.245361	-0.330149
N36	N	-0.038266	-0.216671	-0.380800
C37	C	-0.014795	-0.187970	-0.431444
C38	C	0.412131	-0.245281	-0.330110
C39	C	0.459049	-0.245271	-0.330103
C40	C	0.459072	-0.187877	-0.431401
C41	C	0.412153	-0.187885	-0.431404
C42	C	0.388684	-0.216590	-0.380761
C43	C	-0.113321	-0.187988	-0.431441
C44	C	-0.160240	-0.187997	-0.431436
C45	C	-0.160260	-0.245392	-0.330141
C46	C	-0.113344	-0.245382	-0.330143
C47	C	-0.089876	-0.216678	-0.380800
O48	O	-0.039130	-0.269747	-0.287085
O49	O	-0.039053	-0.163576	-0.474526
C50	C	0.172869	-0.187938	-0.431434
C51	C	0.196314	-0.216630	-0.380789
C52	C	0.172844	-0.245331	-0.330145
C53	C	0.243232	-0.216621	-0.380782
C54	C	0.266703	-0.187920	-0.431426
C55	C	0.243255	-0.159230	-0.482077
C56	C	0.196340	-0.159237	-0.482078
C57	C	0.196291	-0.274021	-0.279494
C58	C	0.243206	-0.274011	-0.279496
C59	C	0.266677	-0.245311	-0.330140
C60	C	0.649108	-0.333351	-0.380693
C61	C	0.649120	-0.383285	-0.380691
C62	C	0.677909	-0.692896	-0.431392
C63	C	0.677958	-0.880569	-0.431440
O64	O	0.702369	-0.904807	-0.474498
N65	N	0.649253	-0.904070	-0.380847
C66	C	0.620531	-0.880650	-0.330243
O67	O	0.596113	-0.904945	-0.287218
C68	C	0.620480	-0.692978	-0.330200
C69	C	0.649191	-0.669479	-0.380790
C70	C	0.706618	-0.669398	-0.481979
C71	C	0.706607	-0.622483	-0.481963
C72	C	0.677888	-0.599065	-0.431361
C73	C	0.649180	-0.622564	-0.380775
C74	C	0.591756	-0.669558	-0.279601
C75	C	0.591745	-0.622637	-0.279596
C76	C	0.620456	-0.599139	-0.330186
C77	C	0.620450	-0.552231	-0.330158
N78	N	0.649156	-0.528730	-0.380750
C79	C	0.677875	-0.552148	-0.431352
C80	C	0.620560	-0.979180	-0.330268
C81	C	0.620573	-1.026098	-0.330278
C82	C	0.678000	-1.026015	-0.431476
C83	C	0.677989	-0.979096	-0.431461
C84	C	0.649266	-0.955680	-0.380861
C85	C	0.677850	-0.453622	-0.431315
C86	C	0.677838	-0.406702	-0.431293
C87	C	0.620410	-0.406790	-0.330098
C88	C	0.620423	-0.453705	-0.330117
C89	C	0.649145	-0.477120	-0.380732
O90	O	0.596048	-0.527965	-0.287128
O91	O	0.702282	-0.527844	-0.474383
C92	C	0.677920	-0.739812	-0.431408
C93	C	0.649212	-0.763310	-0.380821
C94	C	0.620493	-0.739893	-0.330219
C95	C	0.649225	-0.810228	-0.380831
C96	C	0.677944	-0.833645	-0.431433
C97	C	0.706650	-0.810144	-0.482025
C98	C	0.706639	-0.763229	-0.482010
C99	C	0.591788	-0.763394	-0.279627
C100	C	0.591801	-0.810309	-0.279646
C101	C	0.620520	-0.833726	-0.330248
C102	C	0.766355	-0.216677	-0.380782
C103	C	0.816289	-0.216698	-0.380792
C104	C	0.649200	-0.216591	-0.586928
C105	C	0.649211	-0.216575	-0.674785
C106	C	0.649257	-0.099450	-0.380844
C107	C	0.649292	-0.049515	-0.380880
C108	C	0.620539	-0.187785	-1.046282
C109	C	0.677961	-0.245271	-1.046239
C110	C	0.677954	-0.245281	-0.963693
C111	C	0.649238	-0.216543	-0.922438
C112	C	0.620529	-0.187795	-0.963728
C113	C	0.706658	-0.274032	-0.922396
C114	C	0.706651	-0.274044	-0.839845
C115	C	0.677937	-0.245304	-0.798589
C116	C	0.649228	-0.216554	-0.839884
C117	C	0.620512	-0.187816	-0.798629
C118	C	0.591805	-0.159064	-0.839923
C119	C	0.591815	-0.159055	-0.922471
C120	C	0.677927	-0.245313	-0.716040
C121	C	0.620502	-0.187827	-0.716075
C122	C	0.649178	-0.216633	-0.175393
C123	C	0.649255	-0.216522	-0.087537
H124	H	0.177186	-0.297394	-0.238253
Br125	Br	0.275117	-0.120277	-0.550804
Br126	Br	0.134261	-0.312985	-0.210744
Br127	Br	0.716807	-0.374814	-0.499952
Br128	Br	0.552788	-0.701437	-0.210940
H129	H	-0.179327	-0.164628	-0.472680
H130	H	0.568443	-0.135647	-0.956100
Br131	Br	0.023685	-0.313018	-0.210786
Br132	Br	0.745621	-0.313037	-0.978388
Br133	Br	0.581532	-0.148819	-0.660092
H134	H	0.730035	-0.829219	-0.523224
Br135	Br	0.716955	-0.947210	-0.500121
H136	H	-0.094219	-0.164615	-0.472691
H137	H	0.597168	-0.164374	-1.079907
H138	H	0.568423	-0.135667	-0.806322
H139	H	0.036509	-0.135895	-0.523328
Br140	Br	0.490934	-0.148926	-0.500131
H141	H	0.701235	-0.472681	-0.472536
Br142	Br	0.716878	-0.284335	-0.660001
Br143	Br	0.716926	-0.284275	-1.102229
H144	H	0.478134	-0.268632	-0.288851
Br145	Br	-0.081525	-0.284329	-0.261410
H146	H	0.729984	-0.603353	-0.523160
Br147	Br	0.716976	-1.057804	-0.500149
Br148	Br	0.380340	-0.148940	-0.500143
Br149	Br	0.745611	-0.313062	-0.783810
H150	H	0.121614	-0.135881	-0.523324
H151	H	0.393026	-0.268657	-0.288867
H152	H	-0.179378	-0.268758	-0.288904
Br153	Br	0.164529	-0.120291	-0.550819
H154	H	0.568354	-0.603574	-0.238391
H155	H	0.262291	-0.297378	-0.238245
H156	H	0.597199	-1.045227	-0.289074
Br157	Br	0.745596	-0.701169	-0.550666
Br158	Br	0.581465	-0.485597	-0.261447
Br159	Br	0.552835	-0.842194	-0.210977
Br160	Br	0.581572	-0.947408	-0.261593
H161	H	0.597028	-0.387716	-0.288896
H162	H	0.730018	-0.744100	-0.523205
H163	H	0.568401	-0.744331	-0.238422
