data_functionalizedCrystal
_audit_creation_method	'MofGen! by Chris Wilmer'
_symmetry_space_group_name_H-M	'P1'
_symmetry_Int_Tables_number	1
_symmetry_cell_setting	triclinic
loop_
_symmetry_equiv_pos_as_xyz
  x,y,z
_cell_length_a	23.532407
_cell_length_b	23.532361
_cell_length_c	22.010155
_cell_angle_alpha	90.011417
_cell_angle_beta	90.002989
_cell_angle_gamma	97.160828
loop_
_atom_site_label
_atom_site_type_symbol
_atom_site_fract_x
_atom_site_fract_y
_atom_site_fract_z
O1	O	-0.069007	0.755286	0.050455
O2	O	-0.079038	0.589419	0.050468
O3	O	0.008910	0.677354	0.050468
O4	O	-0.156955	0.667351	0.050454
O5	O	0.008910	0.677328	-0.050582
O6	O	-0.079038	0.589393	-0.050583
O7	O	-0.069007	0.755260	-0.050596
Cu8	Cu	-0.074023	0.672324	-0.059816
Cu9	Cu	-0.074023	0.672355	0.059688
O10	O	-0.156955	0.667324	-0.050596
C11	C	-0.078787	0.568189	-0.000056
C12	C	-0.078032	0.504971	-0.000050
C13	C	-0.074728	0.231741	0.055029
C14	C	-0.075443	0.291141	0.055031
O15	O	-0.075793	0.321879	0.101875
N16	N	-0.075804	0.320832	-0.000052
C17	C	-0.075445	0.291122	-0.055140
O18	O	-0.075817	0.321831	-0.101992
C19	C	-0.074726	0.231724	-0.055141
C20	C	-0.074370	0.202035	-0.000054
C21	C	-0.074372	0.202052	0.110111
C22	C	-0.073658	0.142657	0.110110
C23	C	-0.073301	0.112950	0.055026
C24	C	-0.073657	0.142639	-0.000056
C25	C	-0.074362	0.202015	-0.110228
C26	C	-0.073642	0.142612	-0.110224
C27	C	-0.073287	0.112923	-0.055138
C28	C	-0.072585	0.053536	-0.055141
N29	N	-0.072224	0.023845	-0.000058
C30	C	-0.072582	0.053552	0.055025
C31	C	-0.076954	0.415862	-0.055134
C32	C	-0.077677	0.475258	-0.055134
C33	C	-0.077674	0.475274	0.055037
C34	C	-0.076955	0.415876	0.055036
C35	C	-0.076593	0.386171	-0.000051
C36	C	-0.071083	-0.071184	0.055017
C37	C	-0.070372	-0.130585	0.055011
C38	C	-0.070371	-0.130595	-0.055160
C39	C	-0.071086	-0.071199	-0.055153
C40	C	-0.071440	-0.041495	-0.000060
O41	O	-0.072232	0.022761	-0.101962
O42	O	-0.072202	0.022836	0.101869
C43	C	-0.178171	0.667592	-0.000073
C44	C	-0.241388	0.668358	-0.000079
C45	C	-0.640499	0.621124	-0.000044
C46	C	-0.699899	0.621835	-0.000040
O47	O	-0.736651	0.578048	-0.000014
N48	N	-0.722517	0.674113	-0.000045
C49	C	-0.685730	0.725682	-0.000048
O50	O	-0.710423	0.770214	-0.000051
C51	C	-0.626331	0.724970	-0.000048
C52	C	-0.603718	0.672689	-0.000049
C53	C	-0.617885	0.568847	-0.000045
C54	C	-0.558489	0.568136	-0.000050
C55	C	-0.521707	0.619701	-0.000055
C56	C	-0.544322	0.671978	-0.000054
C57	C	-0.589546	0.776539	-0.000046
C58	C	-0.530144	0.775822	-0.000046
C59	C	-0.507530	0.723541	-0.000047
C60	C	-0.448144	0.722832	-0.000064
N61	N	-0.425527	0.670555	-0.000059
C62	C	-0.462308	0.618989	-0.000055
C63	C	-0.810473	0.727174	-0.000047
C64	C	-0.869870	0.727886	-0.000052
C65	C	-0.884035	0.624039	-0.000043
C66	C	-0.824636	0.623327	-0.000042
C67	C	-0.787855	0.674896	-0.000042
C68	C	-0.337572	0.617499	-0.000066
C69	C	-0.278170	0.616793	-0.000074
C70	C	-0.264010	0.720640	-0.000080
C71	C	-0.323407	0.721347	-0.000075
C72	C	-0.360187	0.669772	-0.000066
O73	O	-0.411357	0.766596	-0.000088
O74	O	-0.437608	0.574465	-0.000043
C75	C	0.030126	0.677086	-0.000053
C76	C	0.093343	0.676320	-0.000044
C77	C	-0.069258	0.776489	-0.000071
C78	C	-0.070014	0.839708	-0.000073
N79	N	-0.074022	0.672306	-0.143868
C80	C	-0.108377	0.706701	-0.563654
C81	C	-0.108376	0.706708	-0.627262
O82	O	-0.137582	0.735932	-0.660158
N83	N	-0.074016	0.672366	-0.659075
C84	C	-0.039651	0.638020	-0.627278
O85	O	-0.010425	0.608810	-0.660179
C86	C	-0.039650	0.638016	-0.563672
C87	C	-0.074016	0.672356	-0.531861
C88	C	-0.142741	0.741039	-0.531843
C89	C	-0.142743	0.741031	-0.468240
C90	C	-0.108382	0.706686	-0.436447
C91	C	-0.074018	0.672348	-0.468258
C92	C	-0.005282	0.603673	-0.531876
C93	C	-0.005284	0.603673	-0.468265
C94	C	-0.039650	0.638013	-0.436455
C95	C	-0.039659	0.637996	-0.372862
N96	N	-0.074019	0.672338	-0.341048
C97	C	-0.108380	0.706683	-0.372841
C98	C	-0.039656	0.638030	-0.760856
C99	C	-0.039659	0.638030	-0.824462
C100	C	-0.108384	0.706719	-0.824440
C101	C	-0.108382	0.706716	-0.760834
C102	C	-0.074015	0.672372	-0.729042
C103	C	-0.108383	0.706664	-0.239270
C104	C	-0.108383	0.706651	-0.175661
C105	C	-0.039657	0.637964	-0.175688
C106	C	-0.039658	0.637974	-0.239291
C107	C	-0.074023	0.672329	-0.271080
O108	O	-0.010466	0.608789	-0.339925
O109	O	-0.137596	0.735893	-0.339932
N110	N	-0.074018	0.672377	0.143740
H111	H	-0.073367	0.118489	0.154967
H112	H	-0.077965	0.499472	0.099889
N113	N	-0.177833	0.776116	-0.435742
N114	N	-0.177832	0.776118	-0.378951
H115	H	-0.202614	0.800900	-0.356001
N116	N	-0.492566	0.828495	-0.000055
N117	N	-0.439532	0.827858	-0.000061
H118	H	-0.412992	0.865058	-0.000070
N119	N	-0.078052	0.505589	-0.111398
N120	N	-0.118602	0.533252	-0.123692
H121	H	-0.118865	0.554673	-0.163429
H122	H	0.022703	0.575706	-0.442384
N123	N	-0.074734	0.232383	0.166388
N124	N	-0.074414	0.205857	0.215559
H125	H	-0.074672	0.227273	0.255309
H126	H	-0.076666	0.391679	-0.099996
N127	N	0.029824	0.568604	-0.564369
N128	N	0.029829	0.568606	-0.621160
H129	H	0.054625	0.543836	-0.644108
N130	N	-0.801549	0.569919	-0.000048
N131	N	-0.834403	0.523885	-0.000049
H132	H	-0.818101	0.486163	-0.000053
N133	N	-0.143480	0.741752	-0.271746
N134	N	-0.121049	0.779539	-0.307225
H135	H	-0.145839	0.804317	-0.330163
H136	H	-0.234052	0.762623	-0.000087
H137	H	-0.136371	0.734614	-0.149763
H138	H	-0.607948	0.819111	-0.000045
N139	N	-0.177843	0.776131	-0.564303
N140	N	-0.208517	0.806785	-0.535880
H141	H	-0.233314	0.831569	-0.558800
H142	H	-0.136367	0.734678	-0.734938
H143	H	-0.341820	0.763918	-0.000083
H144	H	-0.136363	0.734684	-0.850337
N145	N	-0.073281	0.112260	-0.166491
N146	N	-0.072645	0.059226	-0.166490
H147	H	-0.072392	0.037790	-0.206228
H148	H	-0.074649	0.226177	-0.155085
N149	N	-0.004561	0.602939	-0.856942
N150	N	0.026111	0.572276	-0.828540
H151	H	0.050903	0.547493	-0.851477
N152	N	-0.076593	0.385561	0.111310
N153	N	-0.076915	0.412098	0.160485
H154	H	-0.076658	0.390692	0.200232
N155	N	-0.921621	0.571370	-0.000026
N156	N	-0.956341	0.560202	0.042575
H157	H	-0.982888	0.523007	0.042587
N158	N	-0.071478	-0.040882	-0.111427
N159	N	-0.071176	-0.067419	-0.160604
H160	H	-0.071456	-0.046012	-0.200349
H161	H	-0.540082	0.525563	-0.000046
N162	N	-0.070008	-0.160955	-0.111418
N163	N	-0.069367	-0.213989	-0.111405
H164	H	-0.069107	-0.235433	-0.151137
H165	H	-0.011672	0.610057	-0.734976
N166	N	-0.004561	0.602885	-0.271779
N167	N	0.026111	0.572218	-0.243382
H168	H	0.050902	0.547437	-0.266322
N169	N	-0.004557	0.602899	-0.143188
N170	N	0.033203	0.625369	-0.107685
H171	H	0.057997	0.600610	-0.084727
N172	N	-0.070013	-0.160903	0.111289
N173	N	-0.070332	-0.134367	0.160465
H174	H	-0.070078	-0.155776	0.200211
H175	H	-0.071372	-0.047006	0.099880
H176	H	-0.367511	0.575502	-0.000059
N177	N	-0.255081	0.563382	-0.000081
N178	N	-0.287932	0.517346	-0.000076
H179	H	-0.271628	0.479625	-0.000081
H180	H	-0.647827	0.526854	-0.000039
N181	N	-0.892966	0.781290	-0.000071
N182	N	-0.881592	0.815962	-0.042672
H183	H	-0.897901	0.853680	-0.042684
N184	N	-0.772912	0.779859	-0.000050
N185	N	-0.793119	0.826528	-0.000054
H186	H	-0.766595	0.863738	-0.000055
