data_functionalizedCrystal
_audit_creation_method	'MofGen! by Chris Wilmer'
_symmetry_space_group_name_H-M	'P1'
_symmetry_Int_Tables_number	1
_symmetry_cell_setting	triclinic
loop_
_symmetry_equiv_pos_as_xyz
  x,y,z
_cell_length_a	19.288859
_cell_length_b	19.188930
_cell_length_c	18.266242
_cell_angle_alpha	89.989745
_cell_angle_beta	89.990190
_cell_angle_gamma	83.139253
loop_
_atom_site_label
_atom_site_type_symbol
_atom_site_fract_x
_atom_site_fract_y
_atom_site_fract_z
O1	O	0.921362	0.087077	-0.060904
O2	O	1.254695	0.420411	0.272430
O3	O	1.588029	0.753744	0.605763
O4	O	0.719102	0.098831	-0.060903
O5	O	1.052435	0.432165	0.272430
O6	O	1.385768	0.765498	0.605764
O7	O	0.826069	-0.008702	-0.060889
O8	O	1.159402	0.324632	0.272444
O9	O	1.492735	0.657965	0.605778
O10	O	0.814395	0.194611	-0.060917
O11	O	1.147728	0.527944	0.272416
O12	O	1.481062	0.861277	0.605749
O13	O	0.826050	-0.008705	0.060873
O14	O	1.159384	0.324629	0.394206
O15	O	1.492717	0.657962	0.727540
O16	O	0.719083	0.098828	0.060859
O17	O	1.052417	0.432162	0.394192
O18	O	1.385750	0.765495	0.727526
O19	O	0.921344	0.087074	0.060858
O20	O	1.254677	0.420408	0.394192
O21	O	1.588010	0.753741	0.727525
Zn22	Zn	0.820211	0.092951	0.080191
Zn23	Zn	1.153544	0.426284	0.413524
Zn24	Zn	1.486877	0.759618	0.746858
Zn25	Zn	0.820235	0.092955	-0.080236
Zn26	Zn	1.153568	0.426288	0.253098
Zn27	Zn	1.486901	0.759622	0.586431
O28	O	0.814377	0.194608	0.060844
O29	O	1.147710	0.527941	0.394178
O30	O	1.481043	0.861274	0.727511
C31	C	0.693216	0.098453	-0.000022
C32	C	1.026549	0.431786	0.333312
C33	C	1.359883	0.765119	0.666645
C34	C	0.616112	0.097319	-0.000021
C35	C	0.949445	0.430653	0.333313
C36	C	1.282779	0.763986	0.666646
C37	C	0.052076	0.152749	-0.000030
C38	C	0.385409	0.486083	0.333304
C39	C	0.718742	0.819416	0.666637
C40	C	0.124522	0.153820	-0.000034
C41	C	0.457855	0.487154	0.333300
C42	C	0.791189	0.820487	0.666633
C43	C	0.169224	0.090725	-0.000023
C44	C	0.502557	0.424058	0.333310
C45	C	0.835891	0.757391	0.666643
C46	C	0.141474	0.026553	-0.000028
C47	C	0.474808	0.359887	0.333305
C48	C	0.808141	0.693220	0.666639
C49	C	0.069029	0.025484	-0.000031
C50	C	0.402362	0.358818	0.333302
C51	C	0.735696	0.692151	0.666635
C52	C	0.290485	0.043667	0.042645
C53	C	0.623818	0.377000	0.375978
C54	C	0.957151	0.710334	0.709311
C55	C	0.362928	0.044739	0.042652
C56	C	0.696262	0.378072	0.375986
C57	C	1.029595	0.711405	0.709319
C58	C	0.392670	0.094019	-0.000016
C59	C	0.726004	0.427353	0.333317
C60	C	1.059337	0.760686	0.666650
C61	C	0.349958	0.142240	-0.042684
C62	C	0.683291	0.475573	0.290650
C63	C	1.016625	0.808906	0.623983
C64	C	0.277513	0.141171	-0.042687
C65	C	0.610846	0.474504	0.290646
C66	C	0.944179	0.807837	0.623980
C67	C	0.247780	0.091877	-0.000020
C68	C	0.581113	0.425210	0.333313
C69	C	0.914447	0.758543	0.666646
C70	C	0.498967	0.159347	-0.000021
C71	C	0.832300	0.492681	0.333312
C72	C	1.165633	0.826014	0.666645
C73	C	0.571415	0.160416	-0.000030
C74	C	0.904748	0.493749	0.333304
C75	C	1.238082	0.827082	0.666637
C76	C	0.588366	0.033147	-0.000017
C77	C	0.921699	0.366480	0.333317
C78	C	1.255033	0.699814	0.666650
C79	C	0.515919	0.032081	-0.000016
C80	C	0.849252	0.365414	0.333318
C81	C	1.182586	0.698747	0.666651
C82	C	0.471223	0.095183	-0.000014
C83	C	0.804557	0.428516	0.333319
C84	C	1.137890	0.761850	0.666652
C85	C	0.825681	-0.034714	-0.000006
C86	C	1.159015	0.298619	0.333328
C87	C	1.492348	0.631952	0.666661
C88	C	0.824547	-0.112219	0.000000
C89	C	1.157880	0.221115	0.333334
C90	C	1.491213	0.554448	0.666667
C91	C	0.887311	-0.157149	0.000004
C92	C	1.220645	0.176185	0.333337
C93	C	1.553978	0.509518	0.666670
C94	C	0.886245	-0.229972	-0.000008
C95	C	1.219579	0.103361	0.333325
C96	C	1.552912	0.436694	0.666659
C97	C	0.822411	-0.257863	-0.000008
C98	C	1.155744	0.075471	0.333325
C99	C	1.489077	0.408804	0.666658
C100	C	0.759638	-0.212923	-0.000016
C101	C	1.092971	0.120411	0.333318
C102	C	1.426305	0.453744	0.666651
C103	C	0.760706	-0.140101	-0.000011
C104	C	1.094039	0.193233	0.333322
C105	C	1.427372	0.526566	0.666655
N106	N	0.773611	-0.365864	0.041430
N107	N	1.106944	-0.032531	0.374763
N108	N	1.440278	0.300803	0.708096
N109	N	0.772601	-0.435042	0.041427
N110	N	1.105934	-0.101709	0.374760
N111	N	1.439267	0.231624	0.708094
C112	C	0.819189	-0.477271	-0.000023
C113	C	1.152523	-0.143938	0.333310
C114	C	1.485856	0.189396	0.666644
N115	N	0.866837	-0.447709	-0.041461
N116	N	1.200171	-0.114376	0.291872
N117	N	1.533504	0.218957	0.625205
N118	N	0.867849	-0.378525	-0.041456
N119	N	1.201183	-0.045191	0.291878
N120	N	1.534516	0.288142	0.625211
C121	C	0.821246	-0.336825	-0.000014
C122	C	1.154579	-0.003492	0.333320
C123	C	1.487912	0.329842	0.666653
C124	C	0.880803	-0.601165	-0.000034
C125	C	1.214136	-0.267832	0.333300
C126	C	1.547469	0.065501	0.666633
C127	C	0.879734	-0.673990	-0.000050
C128	C	1.213067	-0.340657	0.333284
C129	C	1.546400	-0.007323	0.666617
C130	C	0.753125	-0.656939	-0.000050
C131	C	1.086458	-0.323606	0.333283
C132	C	1.419791	0.009728	0.666616
C133	C	0.754195	-0.584116	-0.000041
C134	C	1.087528	-0.250783	0.333292
C135	C	1.420862	0.082551	0.666625
C136	C	0.818036	-0.556234	-0.000029
C137	C	1.151369	-0.222900	0.333304
C138	C	1.484703	0.110433	0.666637
C139	C	0.947229	0.087453	-0.000024
C140	C	1.280563	0.420787	0.333309
C141	C	1.613896	0.754120	0.666642
C142	C	1.024333	0.088587	-0.000030
C143	C	1.357667	0.421920	0.333303
C144	C	1.691000	0.755253	0.666637
C145	C	0.814764	0.220620	-0.000040
C146	C	1.148097	0.553953	0.333293
C147	C	1.481431	0.887287	0.666626
C148	C	0.815899	0.298125	-0.000051
C149	C	1.149232	0.631458	0.333282
C150	C	1.482565	0.964791	0.666615
N151	N	0.820199	0.092948	0.189678
N152	N	1.153533	0.426281	0.523011
N153	N	1.486866	0.759615	0.856345
N154	N	0.820251	0.092953	-0.189722
N155	N	1.153585	0.426286	0.143611
N156	N	1.486918	0.759619	0.476944
C157	C	0.862190	0.135189	0.227974
C158	C	1.195524	0.468523	0.561308
C159	C	1.528857	0.801856	0.894641
C160	C	0.862202	0.135187	0.304619
C161	C	1.195535	0.468521	0.637953
C162	C	1.528869	0.801854	0.971286
C163	C	0.820210	0.092952	0.342965
C164	C	1.153543	0.426285	0.676298
C165	C	1.486876	0.759619	1.009632
C166	C	0.778216	0.050702	0.304659
C167	C	1.111549	0.384035	0.637993
C168	C	1.444883	0.717369	0.971326
C169	C	0.778211	0.050700	0.228016
C170	C	1.111544	0.384033	0.561349
C171	C	1.444878	0.717367	0.894683
N172	N	0.759378	0.091238	0.463318
N173	N	1.092711	0.424571	0.796652
N174	N	1.426045	0.757905	1.129985
N175	N	0.759384	0.091244	0.536126
N176	N	1.092718	0.424577	0.869460
N177	N	1.426051	0.757911	1.202793
C178	C	0.820223	0.092955	0.573887
C179	C	1.153557	0.426288	0.907221
C180	C	1.486890	0.759621	1.240554
N181	N	0.881056	0.094673	0.536090
N182	N	1.214389	0.428006	0.869423
N183	N	1.547723	0.761339	1.202756
N184	N	0.881048	0.094671	0.463275
N185	N	1.214382	0.428004	0.796608
N186	N	1.547715	0.761337	1.129942
C187	C	0.820211	0.092949	0.426072
C188	C	1.153544	0.426283	0.759405
C189	C	1.486877	0.759616	1.092739
C190	C	0.862230	0.135196	0.695291
C191	C	1.195564	0.468529	1.028624
C192	C	1.528897	0.801863	1.361957
C193	C	0.862243	0.135189	0.771937
C194	C	1.195577	0.468522	1.105270
C195	C	1.528910	0.801856	1.438604
C196	C	0.778251	0.050708	0.771976
C197	C	1.111584	0.384041	1.105309
C198	C	1.444918	0.717375	1.438642
C199	C	0.778244	0.050711	0.695331
C200	C	1.111578	0.384044	1.028664
C201	C	1.444911	0.717378	1.361998
C202	C	0.820233	0.092959	0.656993
C203	C	1.153566	0.426292	0.990326
C204	C	1.486900	0.759625	1.323660
H205	H	0.624762	-0.018227	-0.000014
H206	H	0.958095	0.315107	0.333319
H207	H	1.291429	0.648440	0.666653
O208	O	0.382023	0.195400	-0.088708
O209	O	0.715357	0.528733	0.244625
O210	O	1.048690	0.862066	0.577959
H211	H	0.369080	0.187996	-0.147182
H212	H	0.702413	0.521330	0.186151
H213	H	1.035747	0.854663	0.519485
H214	H	0.896442	0.169585	0.803117
H215	H	1.229776	0.502918	1.136450
H216	H	1.563109	0.836252	1.469783
O217	O	0.949658	-0.571090	-0.000035
O218	O	1.282991	-0.237756	0.333298
O219	O	1.616324	0.095577	0.666631
H220	H	0.953173	-0.538337	0.049599
H221	H	1.286506	-0.205004	0.382932
H222	H	1.619839	0.128330	0.716265
O223	O	0.684273	-0.687012	-0.000052
O224	O	1.017606	-0.353679	0.333281
O225	O	1.350940	-0.020345	0.666615
H226	H	0.654115	-0.668953	0.049575
H227	H	0.987449	-0.335620	0.382908
H228	H	1.320782	-0.002287	0.716241
O229	O	0.956165	-0.127073	-0.000004
O230	O	1.289498	0.206260	0.333329
O231	O	1.622831	0.539593	0.666663
H232	H	0.999630	-0.170556	-0.000014
H233	H	1.332964	0.162778	0.333319
H234	H	1.666297	0.496111	0.666652
H235	H	0.896384	0.169588	0.196764
H236	H	1.229717	0.502921	0.530098
H237	H	1.563050	0.836255	0.863431
O238	O	0.907487	0.180755	0.345939
O239	O	1.240821	0.514088	0.679273
O240	O	1.574154	0.847422	1.012606
H241	H	0.936679	0.210135	0.306404
H242	H	1.270013	0.543469	0.639737
H243	H	1.603346	0.876802	0.973071
H244	H	0.594000	0.212667	-0.000036
H245	H	0.927333	0.546000	0.333298
H246	H	1.260667	0.879333	0.666631
O247	O	0.732983	0.005130	0.813328
O248	O	1.066316	0.338463	1.146661
O249	O	1.399650	0.671797	1.479994
H250	H	0.703791	-0.024254	0.773817
H251	H	1.037125	0.309079	1.107151
H252	H	1.370458	0.642413	1.440484
O253	O	0.907516	0.180759	0.653933
O254	O	1.240850	0.514092	0.987266
O255	O	1.574183	0.847426	1.320600
H256	H	0.944940	0.147192	0.619002
H257	H	1.278273	0.480525	0.952336
H258	H	1.611607	0.813858	1.285669
O259	O	0.686494	-0.535655	-0.000031
O260	O	1.019827	-0.202322	0.333302
O261	O	1.353161	0.131011	0.666635
H262	H	0.683953	-0.502062	-0.049659
H263	H	1.017286	-0.168729	0.283674
H264	H	1.350619	0.164605	0.617007
H265	H	0.266276	0.003534	0.077392
H266	H	0.599609	0.336867	0.410725
H267	H	0.932943	0.670200	0.744059
O268	O	0.732944	0.005160	0.654018
O269	O	1.066278	0.338493	0.987351
O270	O	1.399611	0.671827	1.320684
H271	H	0.703740	-0.024205	0.693556
H272	H	1.037074	0.309128	1.026889
H273	H	1.370407	0.642462	1.360222
O274	O	0.450751	0.227402	-0.000032
O275	O	0.784085	0.560736	0.333301
O276	O	1.117418	0.894069	0.666634
H277	H	0.482217	0.272201	-0.000046
H278	H	0.815550	0.605534	0.333287
H279	H	1.148883	0.938867	0.666621
H280	H	0.744026	0.016313	0.335885
H281	H	1.077360	0.349646	0.669219
H282	H	1.410693	0.682980	1.002552
H283	H	0.709593	-0.103518	-0.000014
H284	H	1.042927	0.229816	0.333320
H285	H	1.376260	0.563149	0.666653
H286	H	0.744015	0.016301	0.196835
H287	H	1.077349	0.349635	0.530169
H288	H	1.410682	0.682968	0.863502
H289	H	0.493332	-0.020168	-0.000012
H290	H	0.826665	0.313166	0.333322
H291	H	1.159998	0.646499	0.666655
O292	O	0.003868	0.220807	-0.000031
O293	O	0.337201	0.554140	0.333302
O294	O	0.670535	0.887473	0.666635
H295	H	0.013715	0.251528	-0.049663
H296	H	0.347048	0.584861	0.283670
H297	H	0.680381	0.918194	0.617004
H298	H	0.147114	0.206071	-0.000026
H299	H	0.480448	0.539404	0.333307
H300	H	0.813781	0.872738	0.666640
H301	H	0.937357	-0.266561	-0.000008
H302	H	1.270691	0.066772	0.333325
H303	H	1.604024	0.400105	0.666658
H304	H	0.397699	0.005478	0.077398
H305	H	0.731032	0.338812	0.410732
H306	H	1.064366	0.672145	0.744065
O307	O	0.231445	0.193178	-0.088701
O308	O	0.564778	0.526511	0.244633
O309	O	0.898112	0.859844	0.577966
H310	H	0.246313	0.186180	-0.147178
H311	H	0.579647	0.519514	0.186156
H312	H	0.912980	0.852847	0.519489
O313	O	0.189683	-0.041502	-0.000009
O314	O	0.523016	0.291831	0.333324
O315	O	0.856349	0.625164	0.666658
H316	H	0.244720	-0.029980	0.000003
H317	H	0.578053	0.303353	0.333337
H318	H	0.911387	0.636686	0.666670
H319	H	0.930847	-0.710572	-0.000051
H320	H	1.264180	-0.377239	0.333282
H321	H	1.597513	-0.043906	0.666616
O322	O	0.690788	-0.243002	-0.000006
O323	O	1.024121	0.090331	0.333327
O324	O	1.357454	0.423665	0.666660
H325	H	0.687281	-0.275770	-0.049631
H326	H	1.020614	0.057563	0.283703
H327	H	1.353948	0.390896	0.617036
O328	O	0.039100	-0.043722	-0.000020
O329	O	0.372433	0.289611	0.333314
O330	O	0.705767	0.622945	0.666647
H331	H	0.082352	-0.087419	-0.000008
H332	H	0.415686	0.245914	0.333325
H333	H	0.749019	0.579248	0.666659
