data_functionalizedCrystal
_audit_creation_method	'MofGen! by Chris Wilmer'
_symmetry_space_group_name_H-M	'P1'
_symmetry_Int_Tables_number	1
_symmetry_cell_setting	triclinic
loop_
_symmetry_equiv_pos_as_xyz
  x,y,z
_cell_length_a	14.519731
_cell_length_b	11.892113
_cell_length_c	12.837932
_cell_angle_alpha	93.957623
_cell_angle_beta	89.259278
_cell_angle_gamma	94.361005
loop_
_atom_site_label
_atom_site_type_symbol
_atom_site_fract_x
_atom_site_fract_y
_atom_site_fract_z
O1	O	1.241390	0.093998	0.141938
O2	O	1.741390	0.593998	0.641938
O3	O	0.974297	0.093999	0.157920
O4	O	1.474297	0.593999	0.657920
O5	O	1.101920	0.094000	-0.000985
O6	O	1.601920	0.594000	0.499015
O7	O	1.113767	0.093998	0.300843
O8	O	1.613767	0.593998	0.800843
O9	O	1.090346	-0.094007	-0.012837
O10	O	1.590346	0.405993	0.487163
O11	O	0.962723	-0.094008	0.146068
O12	O	1.462723	0.405992	0.646068
O13	O	1.229816	-0.094009	0.130086
O14	O	1.729816	0.405991	0.630086
Zn15	Zn	1.094432	-0.123859	0.136196
Zn16	Zn	1.594432	0.376141	0.636196
Zn17	Zn	1.109681	0.123849	0.151811
Zn18	Zn	1.609681	0.623849	0.651811
O19	O	1.102193	-0.094009	0.288992
O20	O	1.602193	0.405991	0.788992
C21	C	0.934086	-0.000004	0.151245
C22	C	1.434086	0.499996	0.651245
C23	C	0.831511	-0.000003	0.149001
C24	C	1.331511	0.499997	0.649001
N25	N	1.084031	-0.292912	0.125538
N26	N	1.584031	0.207088	0.625538
C27	C	1.192454	-0.529562	0.236672
C28	C	1.692454	-0.029562	0.736672
C29	C	1.185191	-0.647904	0.229214
C30	C	1.685191	-0.147904	0.729214
C31	C	1.062246	-0.647940	0.103158
C32	C	1.562246	-0.147940	0.603158
C33	C	1.069510	-0.529598	0.110616
C34	C	1.569510	-0.029598	0.610616
C35	C	1.134615	-0.470414	0.177377
C36	C	1.634615	0.029586	0.677377
C37	C	1.141873	-0.352070	0.184840
C38	C	1.641873	0.147930	0.684840
C39	C	1.018933	-0.352108	0.058779
C40	C	1.518933	0.147892	0.558779
C41	C	1.011670	-0.470449	0.051321
C42	C	1.511670	0.029551	0.551321
C43	C	0.748210	0.000001	0.147178
C44	C	1.248210	0.500001	0.647178
C45	C	0.643704	0.000002	0.144900
C46	C	1.143704	0.500002	0.644900
C47	C	0.560409	0.000001	0.143092
C48	C	1.060409	0.500001	0.643092
C49	C	0.455897	0.000004	0.140814
C50	C	0.955897	0.500004	0.640814
C51	C	1.270027	-0.000003	0.136761
C52	C	1.770027	0.499997	0.636761
C53	C	1.372602	0.000004	0.139005
C54	C	1.872602	0.500004	0.639005
C55	C	1.092131	-0.000001	-0.045539
C56	C	1.592131	0.499999	0.454461
C57	C	1.080197	0.000007	-0.160639
C58	C	1.580197	0.500007	0.339361
N59	N	1.120088	0.292903	0.162460
N60	N	1.620088	0.792903	0.662460
C61	C	0.980444	0.000005	-0.310676
C62	C	1.480444	0.500005	0.189324
C63	C	0.991652	0.000007	-0.202528
C64	C	1.491652	0.500007	0.297472
C65	C	1.157540	0.000008	-0.226907
C66	C	1.657540	0.500008	0.273093
C67	C	1.146332	0.000006	-0.335055
C68	C	1.646332	0.500006	0.164945
C69	C	1.057781	0.000003	-0.376935
C70	C	1.557781	0.500003	0.123065
C71	C	1.046573	-0.000007	-0.485086
C72	C	1.546573	0.499993	0.014914
C73	C	1.212460	0.000001	-0.509463
C74	C	1.712460	0.500001	-0.009463
C75	C	1.223668	0.000003	-0.401315
C76	C	1.723668	0.500003	0.098685
C77	C	1.111981	-0.000006	0.333546
C78	C	1.611981	0.499994	0.833546
C79	C	1.123916	-0.000006	0.448646
C80	C	1.623916	0.499994	0.948646
H81	H	1.245457	-0.481373	0.291041
H82	H	1.745457	0.018627	0.791041
N83	N	1.247588	-0.711703	0.293148
N84	N	1.747588	-0.211703	0.793148
H85	H	1.289936	-0.656249	0.336564
H86	H	1.789936	-0.156249	0.836564
H87	H	1.208826	-0.760822	0.340641
H88	H	1.708826	-0.260822	0.840641
N89	N	1.295881	-0.000011	-0.580929
N90	N	1.795881	0.499989	-0.080929
H91	H	1.275347	-0.000017	-0.655797
H92	H	1.775347	0.499983	-0.155797
H93	H	1.338352	0.069685	-0.562961
H94	H	1.838352	0.569685	-0.062961
H95	H	1.295764	0.000001	-0.367201
H96	H	1.795764	0.500001	0.132799
H97	H	0.928676	0.000010	-0.148582
H98	H	1.428676	0.500010	0.351418
H99	H	1.229629	-0.000061	-0.192794
H100	H	1.729629	0.499939	0.307206
H101	H	0.971832	-0.303936	0.010502
H102	H	1.471832	0.196064	0.510502
N103	N	0.941457	-0.534286	-0.020687
N104	N	1.441457	-0.034286	0.479313
H105	H	0.945633	-0.618231	-0.016417
H106	H	1.445633	-0.118231	0.483583
H107	H	0.877443	-0.513621	0.000934
H108	H	1.377443	-0.013621	0.500934
H109	H	1.009250	-0.696148	0.048794
H110	H	1.509250	-0.196148	0.548794
H111	H	1.194881	-0.303883	0.239204
H112	H	1.694881	0.196117	0.739204
H113	H	0.974470	-0.000020	-0.519183
H114	H	1.474470	0.499980	-0.019183
H115	H	0.908342	-0.000017	-0.344776
H116	H	1.408342	0.499983	0.155224
