data_functionalizedCrystal
_audit_creation_method	'MofGen! by Chris Wilmer'
_symmetry_space_group_name_H-M	'P1'
_symmetry_Int_Tables_number	1
_symmetry_cell_setting	triclinic
loop_
_symmetry_equiv_pos_as_xyz
  x,y,z
_cell_length_a	19.077236
_cell_length_b	13.031981
_cell_length_c	19.076919
_cell_angle_alpha	84.787276
_cell_angle_beta	89.887323
_cell_angle_gamma	99.168272
loop_
_atom_site_label
_atom_site_type_symbol
_atom_site_fract_x
_atom_site_fract_y
_atom_site_fract_z
Zn1	Zn	1.027260	-0.379248	-0.406832
Zn2	Zn	1.527260	0.120752	0.093168
Zn3	Zn	1.018200	-0.546676	-0.274444
Zn4	Zn	1.518200	-0.046676	0.225556
Zn5	Zn	0.914520	-0.378700	-0.284661
Zn6	Zn	1.414520	0.121300	0.215339
Zn7	Zn	0.894879	-0.560614	-0.385943
Zn8	Zn	1.394879	-0.060614	0.114057
O9	O	0.963714	-0.466310	-0.337970
O10	O	1.463714	0.033690	0.162030
O11	O	1.124850	-0.395853	-0.393737
O12	O	1.624850	0.104147	0.106263
O13	O	1.008875	-0.518331	-0.178007
O14	O	1.508875	-0.018331	0.321993
O15	O	0.941487	-0.232571	-0.313886
O16	O	1.441487	0.267429	0.186114
O17	O	1.118194	-0.518863	-0.296472
O18	O	1.618194	-0.018863	0.203528
O19	O	1.024316	-0.232973	-0.403644
O20	O	1.524316	0.267027	0.096356
O21	O	0.932702	-0.394920	-0.185514
O22	O	1.432702	0.105080	0.314486
O23	O	0.813122	-0.408435	-0.293630
O24	O	1.313122	0.091565	0.206370
O25	O	0.908011	-0.542618	-0.486506
O26	O	1.408011	-0.042618	0.013494
O27	O	0.798692	-0.542087	-0.368042
O28	O	1.298692	-0.042087	0.131958
O29	O	1.005271	-0.409369	-0.501853
O30	O	1.505271	0.090631	-0.001853
O31	O	0.989829	-0.694727	-0.276216
O32	O	1.489829	-0.194727	0.223784
O33	O	0.899226	-0.704967	-0.358134
O34	O	1.399226	-0.204967	0.141866
C35	C	0.780291	-0.476715	-0.329678
C36	C	1.280291	0.023285	0.170322
C37	C	0.701819	-0.481192	-0.326145
C38	C	1.201819	0.018808	0.173855
C39	C	0.668407	-0.419362	-0.375185
C40	C	1.168407	0.080638	0.124815
C41	C	0.594675	-0.423564	-0.371860
C42	C	1.094675	0.076436	0.128140
C43	C	0.554355	-0.489602	-0.319497
C44	C	1.054355	0.010398	0.180503
C45	C	0.587773	-0.551435	-0.270452
C46	C	1.087773	-0.051435	0.229548
C47	C	0.661504	-0.547227	-0.273775
C48	C	1.161504	-0.047227	0.226225
C49	C	0.333472	-0.509038	-0.304120
C50	C	0.833472	-0.009038	0.195880
C51	C	0.259735	-0.513244	-0.300803
C52	C	0.759735	-0.013244	0.199197
C53	C	0.266643	-0.385371	-0.402209
C54	C	0.766643	0.114629	0.097791
C55	C	0.340375	-0.381173	-0.405530
C56	C	0.840375	0.118827	0.094470
C57	C	0.373786	-0.443002	-0.356483
C58	C	0.873786	0.056998	0.143517
N59	N	0.478989	-0.493901	-0.316098
N60	N	0.978989	0.006099	0.183902
N61	N	0.449152	-0.438697	-0.359879
N62	N	0.949152	0.061303	0.140121
C63	C	0.941432	-0.737755	-0.313816
C64	C	1.441432	-0.237755	0.186184
C65	C	0.931963	-0.853878	-0.303509
C66	C	1.431963	-0.353878	0.196491
C67	C	0.968693	-0.905770	-0.343365
C68	C	1.468693	-0.405770	0.156635
C69	C	0.958907	-1.025789	-0.332713
C70	C	1.458907	-0.525789	0.167287
C71	C	1.147854	-0.455864	-0.346295
C72	C	1.647854	0.044136	0.153705
C73	C	1.226323	-0.451413	-0.349842
C74	C	1.726323	0.048587	0.150158
C75	C	0.955460	-0.477609	-0.520245
C76	C	1.455460	0.022391	-0.020245
C77	C	0.951943	-0.482425	-0.597920
C78	C	1.451943	0.017575	-0.097920
C79	C	0.986103	-0.193804	-0.362235
C80	C	1.486103	0.306196	0.137765
C81	C	0.995643	-0.077678	-0.372575
C82	C	1.495643	0.422322	0.127425
C83	C	1.000926	-0.415314	-0.642403
C84	C	1.500926	0.084686	-0.142403
C85	C	0.997612	-0.419835	-0.715386
C86	C	1.497612	0.080165	-0.215386
C87	C	0.945319	-0.491472	-0.743885
C88	C	1.445319	0.008528	-0.243885
C89	C	0.896331	-0.558586	-0.699397
C90	C	1.396331	-0.058586	-0.199397
C91	C	0.899642	-0.554059	-0.626415
C92	C	1.399642	-0.054059	-0.126415
C93	C	0.929984	-0.512445	-0.961301
C94	C	1.429984	-0.012445	-0.461301
C95	C	0.926679	-0.516969	-1.034288
C96	C	1.426679	-0.016969	-0.534288
C97	C	1.027960	-0.378217	-1.050273
C98	C	1.527960	0.121783	-0.550273
C99	C	1.031269	-0.373700	-0.977288
C100	C	1.531269	0.126300	-0.477288
C101	C	0.982278	-0.440810	-0.932807
C102	C	1.482278	0.059190	-0.432807
N103	N	0.941932	-0.496098	-0.818486
N104	N	1.441932	0.003902	-0.318486
N105	N	0.985662	-0.436179	-0.858208
N106	N	1.485662	0.063821	-0.358208
C107	C	0.971983	-0.454976	-0.156413
C108	C	1.471983	0.045024	0.343587
C109	C	0.975662	-0.449859	-0.078771
C110	C	1.475662	0.050141	0.421229
H111	H	0.239431	-0.335032	-0.442140
H112	H	0.739431	0.164968	0.057860
C113	C	0.845758	-0.627888	-0.577483
C114	C	1.345758	-0.127888	-0.077483
N115	N	0.805169	-0.683496	-0.540629
N116	N	1.305169	-0.183496	-0.040629
H117	H	0.567474	-0.373217	-0.411794
H118	H	1.067474	0.126783	0.088206
C119	C	1.020966	-0.845755	-0.400117
C120	C	1.520966	-0.345755	0.099883
N121	N	1.060340	-0.800553	-0.442863
N122	N	1.560340	-0.300553	0.057137
C123	C	0.838801	-0.637378	-0.730749
C124	C	1.338801	-0.137378	-0.230749
N125	N	0.795468	-0.696726	-0.754362
N126	N	1.295468	-0.196726	-0.254362
H127	H	1.043511	-0.356982	-0.619205
H128	H	1.543511	0.143018	-0.119205
C129	C	0.906650	-1.085798	-0.275942
C130	C	1.406650	-0.585798	0.224058
N131	N	0.867298	-1.130998	-0.233176
N132	N	1.367298	-0.630998	0.266824
H133	H	1.037501	-0.365189	-0.751602
H134	H	1.537501	0.134811	-0.251602
H135	H	1.034335	-1.033256	-0.414589
H136	H	1.534335	-0.533256	0.085411
C137	C	0.869147	-0.595776	-1.065634
C138	C	1.369147	-0.095776	-0.565634
N139	N	0.825817	-0.655131	-1.089245
N140	N	1.325817	-0.155131	-0.589245
C141	C	0.712752	-0.346713	-0.432788
C142	C	1.212752	0.153287	0.067212
N143	N	0.746152	-0.291988	-0.476174
N144	N	1.246152	0.208012	0.023826
C145	C	1.081838	-0.304389	-1.099209
C146	C	1.581838	0.195611	-0.599209
N147	N	1.122417	-0.248773	-1.136069
N148	N	1.622417	0.251227	-0.636069
C149	C	0.698256	-0.615248	-0.219829
C150	C	1.198256	-0.115248	0.280171
N151	N	0.725937	-0.666482	-0.179193
N152	N	1.225937	-0.166482	0.320807
H153	H	0.226908	-0.567025	-0.258162
H154	H	0.726908	-0.067025	0.241838
H155	H	0.893268	-0.898307	-0.261504
H156	H	1.393268	-0.398307	0.238496
C157	C	0.370214	-0.577057	-0.250169
C158	C	0.870214	-0.077057	0.249831
N159	N	0.397890	-0.628293	-0.209531
N160	N	0.897890	-0.128293	0.290469
H161	H	0.554939	-0.605200	-0.227815
H162	H	1.054939	-0.105200	0.272185
H163	H	1.073853	-0.315368	-0.954090
H164	H	1.573853	0.184632	-0.454090
H165	H	0.373198	-0.327402	-0.448171
H166	H	0.873198	0.172598	0.051829
C167	C	0.876091	-0.586265	-0.912380
C168	C	1.376091	-0.086265	-0.412380
N169	N	0.835496	-0.641869	-0.875530
N170	N	1.335496	-0.141869	-0.375530
