data_functionalizedCrystal
_audit_creation_method	'MofGen! by Chris Wilmer'
_symmetry_space_group_name_H-M	'P1'
_symmetry_Int_Tables_number	1
_symmetry_cell_setting	triclinic
loop_
_symmetry_equiv_pos_as_xyz
  x,y,z
_cell_length_a	14.044220
_cell_length_b	10.723024
_cell_length_c	9.198806
_cell_angle_alpha	89.997255
_cell_angle_beta	89.995861
_cell_angle_gamma	88.828374
loop_
_atom_site_label
_atom_site_type_symbol
_atom_site_fract_x
_atom_site_fract_y
_atom_site_fract_z
O1	O	0.133040	1.670498	-0.120857
O2	O	0.145774	1.308620	-0.120869
O3	O	0.001387	1.484127	-0.120849
O4	O	0.277427	1.494991	-0.120877
O5	O	0.001387	1.484112	0.120936
O6	O	0.145774	1.308604	0.120916
O7	O	0.133039	1.670483	0.120928
Cu8	Cu	0.139407	1.489542	0.142999
Cu9	Cu	0.139407	1.489560	-0.142940
O10	O	0.277427	1.494975	0.120908
C11	C	-0.033958	1.479364	0.000044
C12	C	-0.139276	1.465180	0.000046
C13	C	0.133966	1.717083	0.000034
C14	C	0.136739	1.855914	0.000029
C15	C	0.144847	1.262020	0.000022
C16	C	0.142075	1.123188	0.000018
C17	C	-0.332106	1.439248	0.000024
C18	C	-0.389085	1.539849	0.000023
C19	C	-0.496383	1.525420	0.000011
C20	C	-0.224799	1.453675	0.000036
C21	C	0.312772	1.499738	0.000012
C22	C	0.418090	1.513923	0.000001
N23	N	0.139406	1.489539	0.344113
C24	C	0.055948	1.922814	0.000035
C25	C	0.058811	2.066304	0.000029
N26	N	0.139401	1.489573	-0.344054
C27	C	0.078514	1.563202	0.416319
C28	C	0.078511	1.563221	0.583731
H29	H	-0.357284	1.636814	-0.000072
C30	C	-0.034631	2.143989	0.000036
C31	C	-0.056493	2.235147	0.125588
C32	C	-0.149940	2.312835	0.125595
C33	C	-0.221524	2.299365	0.000051
C34	C	-0.199663	2.208203	-0.125510
C35	C	-0.106217	2.130515	-0.125517
H36	H	-0.003501	2.245122	0.218531
H37	H	-0.166122	2.380319	0.218544
H38	H	-0.290698	2.356874	0.000056
H39	H	-0.252656	2.198228	-0.218454
H40	H	-0.090035	2.063031	-0.218466
C41	C	0.008086	1.648389	0.332415
C42	C	0.008098	1.648123	0.165009
C43	C	-0.062334	1.733313	0.081111
C44	C	-0.132777	1.818768	0.164619
C45	C	-0.132791	1.819037	0.332033
C46	C	-0.062360	1.733847	0.415931
H47	H	0.060246	1.584861	0.103184
H48	H	-0.062323	1.733114	-0.042820
H49	H	-0.184914	1.881831	0.102512
H50	H	-0.184939	1.882299	0.393859
H51	H	-0.062371	1.734046	0.539863
H52	H	-0.363906	1.342291	0.000017
C53	C	0.008080	1.648426	0.667604
C54	C	-0.064586	1.591232	0.772347
C55	C	-0.135020	1.676440	0.856223
C56	C	-0.132787	1.818841	0.835356
C57	C	-0.060118	1.876042	0.730608
C58	C	0.010316	1.790834	0.646731
H59	H	-0.066242	1.485812	0.787799
H60	H	-0.188815	1.634095	0.933765
H61	H	-0.184926	1.881916	0.897446
H62	H	-0.058462	1.981462	0.715156
H63	H	0.064111	1.833179	0.569190
C64	C	0.235521	2.045511	0.000011
C65	C	0.257384	1.954353	-0.125540
C66	C	0.350830	1.876665	-0.125548
C67	C	0.422414	1.890135	-0.000004
C68	C	0.400553	1.981297	0.125557
C69	C	0.307107	2.058985	0.125564
H70	H	0.204391	1.944378	-0.218484
H71	H	0.367012	1.809181	-0.218497
H72	H	0.491588	1.832626	-0.000009
H73	H	0.453546	1.991272	0.218501
H74	H	0.290925	2.126469	0.218513
H75	H	-0.015341	1.873860	0.000067
C76	C	0.209834	1.404365	0.572083
C77	C	0.172270	1.305334	0.466554
C78	C	0.242704	1.220127	0.382678
C79	C	0.350701	1.233950	0.404331
C80	C	0.388271	1.332985	0.509864
C81	C	0.317837	1.418193	0.593740
H82	H	0.092319	1.295097	0.450521
H83	H	0.214892	1.146814	0.304555
H84	H	0.402840	1.170875	0.342241
H85	H	0.468222	1.343222	0.525897
H86	H	0.345649	1.491505	0.671863
H87	H	0.191531	1.426481	0.406234
H88	H	0.208028	1.904869	0.000027
