data_functionalizedCrystal
_audit_creation_method	'MofGen! by Chris Wilmer'
_symmetry_space_group_name_H-M	'P1'
_symmetry_Int_Tables_number	1
_symmetry_cell_setting	triclinic
loop_
_symmetry_equiv_pos_as_xyz
  x,y,z
_cell_length_a	19.077105
_cell_length_b	19.077432
_cell_length_c	19.076919
_cell_angle_alpha	89.934943
_cell_angle_beta	89.923776
_cell_angle_gamma	85.334714
loop_
_atom_site_label
_atom_site_type_symbol
_atom_site_fract_x
_atom_site_fract_y
_atom_site_fract_z
Zn1	Zn	1.072466	-0.340536	0.427310
Zn2	Zn	1.572466	0.159464	0.927310
Zn3	Zn	1.081824	-0.453714	0.305447
Zn4	Zn	1.581824	0.046286	0.805447
Zn5	Zn	0.959291	-0.331106	0.305466
Zn6	Zn	1.459291	0.168894	0.805466
Zn7	Zn	0.959628	-0.453289	0.418216
Zn8	Zn	1.459628	0.046711	0.918216
O9	O	1.018302	-0.394661	0.364110
O10	O	1.518302	0.105339	0.864110
O11	O	1.172211	-0.359673	0.414942
O12	O	1.672211	0.140327	0.914942
O13	O	1.069345	-0.433681	0.207263
O14	O	1.569345	0.066319	0.707263
O15	O	0.970246	-0.233858	0.325443
O16	O	1.470246	0.266142	0.825443
O17	O	1.179087	-0.442824	0.325410
O18	O	1.679087	0.057176	0.825410
O19	O	1.053396	-0.240785	0.414961
O20	O	1.553396	0.259215	0.914961
O21	O	0.979321	-0.343602	0.207278
O22	O	1.479321	0.156398	0.707278
O23	O	0.860832	-0.343190	0.316625
O24	O	1.360832	0.156810	0.816625
O25	O	0.970821	-0.442101	0.517608
O26	O	1.470821	0.057899	1.017608
O27	O	0.861080	-0.432958	0.399461
O28	O	1.361080	0.067042	0.899461
O29	O	1.053723	-0.359261	0.524290
O30	O	1.553723	0.140739	1.024290
O31	O	1.069672	-0.552157	0.316592
O32	O	1.569672	-0.052157	0.816592
O33	O	0.979895	-0.551845	0.399443
O34	O	1.479895	-0.051845	0.899443
C35	C	0.835415	-0.387005	0.357059
C36	C	1.335415	0.112995	0.857059
C37	C	0.757175	-0.383747	0.354059
C38	C	1.257175	0.116253	0.854059
C39	C	0.720571	-0.429019	0.395704
C40	C	1.220571	0.070981	0.895704
C41	C	0.647055	-0.425949	0.392889
C42	C	1.147055	0.074051	0.892889
C43	C	0.610146	-0.377610	0.348423
C44	C	1.110146	0.122390	0.848423
C45	C	0.646755	-0.332333	0.306776
C46	C	1.146755	0.167667	0.806776
C47	C	0.720269	-0.335401	0.309596
C48	C	1.220269	0.164599	0.809596
C49	C	0.390267	-0.363414	0.335377
C50	C	0.890267	0.136586	0.835377
C51	C	0.316748	-0.360352	0.332559
C52	C	0.816748	0.139648	0.832559
C53	C	0.317053	-0.453967	0.418673
C54	C	0.817053	0.046033	0.918673
C55	C	0.390569	-0.457033	0.421486
C56	C	0.890569	0.042967	0.921486
C57	C	0.427171	-0.411754	0.379841
C58	C	0.927171	0.088246	0.879841
N59	N	0.535002	-0.374472	0.345543
N60	N	1.035002	0.125528	0.845543
N61	N	0.502314	-0.414889	0.382726
N62	N	1.002314	0.085111	0.882726
C63	C	1.025854	-0.577542	0.357044
C64	C	1.525854	-0.077542	0.857044
C65	C	1.029149	-0.655783	0.354047
C66	C	1.529149	-0.155783	0.854047
C67	C	0.983925	-0.692401	0.395737
C68	C	1.483925	-0.192401	0.895737
C69	C	0.987023	-0.765917	0.392919
C70	C	1.487023	-0.265917	0.892919
C71	C	1.035349	-0.802813	0.348414
C72	C	1.535349	-0.302813	0.848414
C73	C	1.080575	-0.766190	0.306719
C74	C	1.580575	-0.266190	0.806719
C75	C	1.077473	-0.692675	0.309534
C76	C	1.577473	-0.192675	0.809534
C77	C	1.049640	-1.022693	0.335369
C78	C	1.549640	-0.522693	0.835369
C79	C	1.052741	-1.096213	0.332559
C80	C	1.552741	-0.596213	0.832559
C81	C	0.959187	-1.095935	0.418758
C82	C	1.459187	-0.595935	0.918758
C83	C	0.956092	-1.022419	0.421572
C84	C	1.456092	-0.522419	0.921572
C85	C	1.001315	-0.985802	0.379875
C86	C	1.501315	-0.485802	0.879875
N87	N	1.038519	-0.877958	0.345533
N88	N	1.538519	-0.377958	0.845533
N89	N	0.998142	-0.910658	0.382752
N90	N	1.498142	-0.410658	0.882752
C91	C	1.201904	-0.402348	0.371188
C92	C	1.701904	0.097652	0.871188
C93	C	1.280144	-0.405624	0.374205
C94	C	1.780144	0.094376	0.874205
C95	C	1.011266	-0.401686	0.547120
C96	C	1.511266	0.098314	1.047120
C97	C	1.008267	-0.404679	0.625107
C98	C	1.508267	0.095321	1.125107
C99	C	1.010740	-0.211068	0.371219
C100	C	1.510740	0.288932	0.871219
C101	C	1.007517	-0.132831	0.374248
C102	C	1.507517	0.367169	0.874248
C103	C	1.025350	-0.387615	0.181815
C104	C	1.525350	0.112385	0.681815
C105	C	1.028477	-0.384429	0.103841
C106	C	1.528477	0.115571	0.603841
C107	C	1.050019	-0.362957	0.665226
C108	C	1.550019	0.137043	1.165226
C109	C	1.047193	-0.365767	0.738504
C110	C	1.547193	0.134233	1.238504
C111	C	1.002618	-0.410302	0.771661
C112	C	1.502618	0.089698	1.271661
C113	C	0.960862	-0.452026	0.731537
C114	C	1.460862	0.047974	1.231537
C115	C	0.963685	-0.449212	0.658261
C116	C	1.463685	0.050788	1.158261
C117	C	0.989544	-0.423339	0.990441
C118	C	1.489544	0.076661	1.490441
C119	C	0.986725	-0.426151	1.063722
C120	C	1.486725	0.073849	1.563722
C121	C	1.073055	-0.339891	1.070683
C122	C	1.573055	0.160109	1.570683
C123	C	1.075877	-0.337084	0.997405
C124	C	1.575877	0.162916	1.497405
C125	C	1.034119	-0.378805	0.957288
C126	C	1.534119	0.121195	1.457288
N127	N	0.999730	-0.413177	0.846563
N128	N	1.499730	0.086823	1.346563
N129	N	1.037004	-0.375926	0.882388
N130	N	1.537004	0.124074	1.382388
H131	H	0.286698	-0.320980	0.296355
H132	H	0.786698	0.179020	0.796355
H133	H	0.955551	-0.457322	0.957786
H134	H	1.455551	0.042678	1.457786
C135	C	1.098505	-0.314720	0.629190
C136	C	1.598505	0.185280	1.129190
C137	C	1.146898	-0.354846	0.587333
C138	C	1.646898	0.145154	1.087333
C139	C	1.191579	-0.310432	0.554136
C140	C	1.691579	0.189568	1.054136
H141	H	1.071497	-0.281815	0.600700
H142	H	1.571497	0.218185	1.100700
H143	H	1.123007	-0.290286	0.663558
H144	H	1.623007	0.209714	1.163558
H145	H	1.122399	-0.379269	0.552969
H146	H	1.622399	0.120731	1.052969
H147	H	1.173923	-0.387750	0.615807
H148	H	1.673923	0.112250	1.115807
H149	H	1.216081	-0.285997	0.588504
H150	H	1.716081	0.214003	1.088504
H151	H	1.164565	-0.277529	0.525649
H152	H	1.664565	0.222471	1.025649
H153	H	1.224423	-0.337652	0.525737
H154	H	1.724423	0.162348	1.025737
H155	H	0.916741	-0.992379	0.457812
H156	H	1.416741	-0.492379	0.957812
H157	H	1.119920	-0.796236	0.270479
H158	H	1.619920	-0.296236	0.770479
H159	H	1.086464	-0.992885	0.301419
H160	H	1.586464	-0.492885	0.801419
H161	H	0.616698	-0.292972	0.270575
H162	H	1.116698	0.207028	0.770575
C163	C	1.105128	-1.136397	0.284242
C164	C	1.605128	-0.636397	0.784242
C165	C	1.098152	-1.208614	0.290692
C166	C	1.598152	-0.708614	0.790692
C167	C	1.146378	-1.245652	0.246177
C168	C	1.646378	-0.745652	0.746177
H169	H	1.096158	-1.122195	0.237144
H170	H	1.596158	-0.622195	0.737144
H171	H	1.151551	-1.126744	0.296779
H172	H	1.651551	-0.626744	0.796779
H173	H	1.051740	-1.218263	0.278150
H174	H	1.551740	-0.718263	0.778150
H175	H	1.107129	-1.222837	0.337780
H176	H	1.607129	-0.722837	0.837780
H177	H	1.192801	-1.235999	0.258715
H178	H	1.692801	-0.735999	0.758715
H179	H	1.137403	-1.231445	0.199082
H180	H	1.637403	-0.731445	0.699082
H181	H	1.141656	-1.294656	0.250552
H182	H	1.641656	-0.794656	0.750552
H183	H	1.114298	-0.662861	0.275585
H184	H	1.614298	-0.162861	0.775585
H185	H	1.081193	-0.331794	0.771165
H186	H	1.581193	0.168206	1.271165
H187	H	1.112177	-0.300820	0.970414
H188	H	1.612177	0.199180	1.470414
C189	C	0.912585	-0.500472	0.767574
C190	C	1.412585	-0.000472	1.267574
C191	C	0.952681	-0.548884	0.809418
C192	C	1.452681	-0.048884	1.309418
C193	C	0.908234	-0.593531	0.842617
C194	C	1.408234	-0.093531	1.342617
H195	H	0.879693	-0.473443	0.796072
H196	H	1.379693	0.026557	1.296072
H197	H	0.888135	-0.524959	0.733206
H198	H	1.388135	-0.024959	1.233206
H199	H	0.977119	-0.524399	0.843782
H200	H	1.477119	-0.024399	1.343782
H201	H	0.985571	-0.575929	0.780937
H202	H	1.485571	-0.075929	1.280937
H203	H	0.883784	-0.618019	0.808248
H204	H	1.383784	-0.118019	1.308248
H205	H	0.875344	-0.566497	0.871111
H206	H	1.375344	-0.066497	1.371111
H207	H	0.935433	-0.626388	0.871006
H208	H	1.435433	-0.126388	1.371006
H209	H	1.107052	-0.305923	1.103355
H210	H	1.607052	0.194077	1.603355
C211	C	0.760041	-0.286168	0.264498
C212	C	1.260041	0.213832	0.764498
C213	C	0.798846	-0.244389	0.307660
C214	C	1.298846	0.255611	0.807660
C215	C	0.835483	-0.199019	0.266142
C216	C	1.335483	0.300981	0.766142
H217	H	0.791056	-0.312986	0.233935
H218	H	1.291056	0.187014	0.733935
H219	H	0.727550	-0.256902	0.237627
H220	H	1.227550	0.243098	0.737627
H221	H	0.831333	-0.273652	0.334520
H222	H	1.331333	0.226348	0.834520
H223	H	0.767848	-0.217557	0.338222
H224	H	1.267848	0.282443	0.838222
H225	H	0.802993	-0.169752	0.239270
H226	H	1.302993	0.330248	0.739270
H227	H	0.866494	-0.225842	0.235581
H228	H	1.366494	0.274158	0.735581
H229	H	0.861811	-0.170662	0.295421
H230	H	1.361811	0.329338	0.795421
H231	H	0.950425	-0.462419	1.090717
H232	H	1.450425	0.037581	1.590717
C233	C	0.910121	-1.135816	0.463941
C234	C	1.410121	-0.635816	0.963941
C235	C	0.923165	-1.208093	0.451939
C236	C	1.423165	-0.708093	0.951939
C237	C	0.877968	-1.244852	0.493543
C238	C	1.377968	-0.744852	0.993543
H239	H	0.918017	-1.126063	0.511974
H240	H	1.418017	-0.626063	1.011974
H241	H	0.862711	-1.121483	0.452259
H242	H	1.362711	-0.621483	0.952259
H243	H	0.970564	-1.222421	0.463626
H244	H	1.470564	-0.722421	0.963626
H245	H	0.915264	-1.217868	0.403914
H246	H	1.415264	-0.717868	0.903914
H247	H	0.830559	-1.230519	0.481860
H248	H	1.330559	-0.730519	0.981860
H249	H	0.885868	-1.235093	0.541573
H250	H	1.385868	-0.735093	1.041573
H251	H	0.886808	-1.293895	0.485401
H252	H	1.386808	-0.793895	0.985401
H253	H	0.929679	-0.483179	0.625597
H254	H	1.429679	0.016821	1.125597
H255	H	0.944576	-0.662365	0.431981
H256	H	1.444576	-0.162365	0.931981
H257	H	0.617256	-0.462814	0.426801
H258	H	1.117256	0.037186	0.926801
C259	C	0.760512	-0.481526	0.444054
C260	C	1.260512	0.018474	0.944054
C261	C	0.712715	-0.520502	0.479937
C262	C	1.212715	-0.020502	0.979937
C263	C	0.749480	-0.568871	0.524493
C264	C	1.249480	-0.068871	1.024493
H265	H	0.791486	-0.512385	0.417158
H266	H	1.291486	-0.012385	0.917158
H267	H	0.786891	-0.457035	0.476844
H268	H	1.286891	0.042965	0.976844
H269	H	0.686347	-0.544992	0.447151
H270	H	1.186347	-0.044992	0.947151
H271	H	0.681739	-0.489662	0.506846
H272	H	1.181739	0.010338	1.006846
H273	H	0.775859	-0.544379	0.557283
H274	H	1.275859	-0.044379	1.057283
H275	H	0.780453	-0.599725	0.497592
H276	H	1.280453	-0.099725	0.997592
H277	H	0.717055	-0.595317	0.548850
H278	H	1.217055	-0.095317	1.048850
H279	H	0.950191	-0.795728	0.426861
H280	H	1.450191	-0.295728	0.926861
H281	H	0.420615	-0.496397	0.457693
H282	H	0.920615	0.003603	0.957693
H283	H	0.287243	-0.490829	0.452579
H284	H	0.787243	0.009171	0.952579
C285	C	0.429876	-0.314220	0.290084
C286	C	0.929876	0.185780	0.790084
C287	C	0.381816	-0.271245	0.250528
C288	C	0.881816	0.228755	0.750528
C289	C	0.418281	-0.225922	0.208789
C290	C	0.918281	0.274078	0.708789
H291	H	0.456259	-0.285755	0.319185
H292	H	0.956259	0.214245	0.819185
H293	H	0.460824	-0.341096	0.259490
H294	H	0.960824	0.158904	0.759490
H295	H	0.350880	-0.244372	0.281118
H296	H	0.850880	0.255628	0.781118
H297	H	0.355432	-0.299691	0.221414
H298	H	0.855432	0.200309	0.721414
H299	H	0.449229	-0.252797	0.178195
H300	H	0.949229	0.247203	0.678195
H301	H	0.444663	-0.197461	0.237895
H302	H	0.944663	0.302539	0.737895
H303	H	0.385679	-0.196762	0.181941
H304	H	0.885679	0.303238	0.681941
