data_functionalizedCrystal
_audit_creation_method	'MofGen! by Chris Wilmer'
_symmetry_space_group_name_H-M	'P1'
_symmetry_Int_Tables_number	1
_symmetry_cell_setting	triclinic
loop_
_symmetry_equiv_pos_as_xyz
  x,y,z
_cell_length_a	10.723023
_cell_length_b	11.026607
_cell_length_c	9.798715
_cell_angle_alpha	89.998891
_cell_angle_beta	89.996770
_cell_angle_gamma	96.526782
loop_
_atom_site_label
_atom_site_type_symbol
_atom_site_fract_x
_atom_site_fract_y
_atom_site_fract_z
O1	O	1.693992	0.170514	-0.113473
O2	O	1.334362	0.186836	-0.113478
O3	O	1.484371	0.001774	-0.113471
O4	O	1.543983	0.355576	-0.113480
O5	O	1.484357	0.001773	0.113511
O6	O	1.334348	0.186836	0.113504
O7	O	1.693977	0.170513	0.113509
Zn8	Zn	1.514160	0.178674	0.149545
Zn9	Zn	1.514179	0.178675	-0.149514
O10	O	1.543968	0.355576	0.113502
C11	C	1.287599	0.185649	0.000012
C12	C	1.148278	0.182095	0.000010
C13	C	1.086156	0.180511	0.117593
C14	C	0.942161	0.176838	0.117593
C15	C	1.473367	-0.043529	0.000018
C16	C	1.440583	-0.178516	0.000013
C17	C	1.531104	-0.251568	0.000012
C18	C	1.497223	-0.391084	0.000007
C19	C	1.740740	0.171701	0.000016
C20	C	1.880062	0.175254	0.000009
C21	C	1.554973	0.400878	0.000010
C22	C	1.587756	0.535865	0.000006
N23	N	1.514156	0.178673	0.353645
N24	N	1.514191	0.178667	-0.353613
C25	C	1.577067	0.100628	0.421425
C26	C	1.577086	0.100624	0.578587
H27	H	1.094858	0.180730	-0.100656
H28	H	1.139576	0.181866	0.218259
H29	H	1.338003	-0.219261	0.000003
C30	C	1.036851	0.283344	-0.143350
C31	C	0.952165	0.177094	-0.135900
H32	H	1.081376	0.284474	-0.227251
H33	H	0.992156	0.352800	-0.138288
H34	H	1.094469	0.284801	-0.069572
H35	H	0.894541	0.175641	-0.209672
H36	H	0.996863	0.107619	-0.140975
C37	C	1.602600	-0.109281	0.377067
C38	C	1.649766	0.010453	0.342667
H39	H	1.647482	-0.164943	0.328430
H40	H	1.612173	-0.121139	0.472338
H41	H	1.516160	-0.122968	0.353741
H42	H	1.736205	0.024142	0.366003
H43	H	1.640204	0.022315	0.247376
C44	C	1.733011	-0.281586	0.000017
C45	C	1.726248	-0.409152	0.000012
H46	H	1.818509	-0.247645	0.000028
H47	H	1.692574	-0.255295	-0.079132
H48	H	1.692551	-0.255304	0.079176
H49	H	1.766700	-0.435435	-0.079152
H50	H	1.766703	-0.435454	0.079169
H51	H	1.630952	0.033811	0.636875
C52	C	1.524782	0.343783	0.485543
C53	C	1.441476	0.268878	0.567718
H54	H	1.479888	0.399470	0.436965
H55	H	1.586708	0.387867	0.541279
H56	H	1.564232	0.294809	0.422640
H57	H	1.402033	0.317852	0.630628
H58	H	1.379528	0.224791	0.511978
H59	H	1.460304	0.245483	0.411967
H60	H	1.633684	-0.210823	0.000022
C61	C	0.892202	0.071473	0.328468
C62	C	0.870058	0.174998	0.253502
H63	H	0.847693	0.070343	0.412379
H64	H	0.864420	0.000168	0.277601
H65	H	0.979514	0.073712	0.346283
H66	H	0.782747	0.172754	0.235678
H67	H	0.897833	0.246321	0.304380
C68	C	1.351973	-0.573636	0.000001
C69	C	1.358731	-0.446069	0.000004
H70	H	1.266475	-0.607579	0.000007
H71	H	1.392422	-0.599917	-0.079149
H72	H	1.392423	-0.599924	0.079159
H73	H	1.318289	-0.419781	-0.079160
H74	H	1.318265	-0.419777	0.079162
