data_functionalizedCrystal
_audit_creation_method	'MofGen! by Chris Wilmer'
_symmetry_space_group_name_H-M	'P1'
_symmetry_Int_Tables_number	1
_symmetry_cell_setting	triclinic
loop_
_symmetry_equiv_pos_as_xyz
  x,y,z
_cell_length_a	14.971486
_cell_length_b	14.971486
_cell_length_c	13.448316
_cell_angle_alpha	89.993189
_cell_angle_beta	89.998199
_cell_angle_gamma	83.614129
loop_
_atom_site_label
_atom_site_type_symbol
_atom_site_fract_x
_atom_site_fract_y
_atom_site_fract_z
O1	O	1.186947	0.116565	-0.082578
O2	O	1.520281	0.449898	0.250755
O3	O	1.853614	0.783231	0.584089
O4	O	0.926547	0.130524	-0.082605
O5	O	1.259881	0.463857	0.250728
O6	O	1.593214	0.797190	0.584062
O7	O	1.063727	-0.006656	-0.082584
O8	O	1.397060	0.326677	0.250750
O9	O	1.730393	0.660011	0.584083
O10	O	1.049768	0.253744	-0.082599
O11	O	1.383101	0.587078	0.250734
O12	O	1.716435	0.920411	0.584067
O13	O	1.063709	-0.006664	0.082800
O14	O	1.397043	0.326669	0.416133
O15	O	1.730376	0.660002	0.749467
O16	O	0.926530	0.130515	0.082779
O17	O	1.259863	0.463848	0.416112
O18	O	1.593197	0.797182	0.749445
O19	O	1.186930	0.116556	0.082806
O20	O	1.520263	0.449890	0.416139
O21	O	1.853597	0.783223	0.749473
Cu22	Cu	1.056728	0.123535	0.097893
Cu23	Cu	1.390062	0.456868	0.431226
Cu24	Cu	1.723395	0.790202	0.764560
Cu25	Cu	1.056749	0.123545	-0.097692
Cu26	Cu	1.390082	0.456878	0.235641
Cu27	Cu	1.723416	0.790212	0.568974
O28	O	1.049751	0.253736	0.082784
O29	O	1.383084	0.587069	0.416118
O30	O	1.716417	0.920402	0.749451
C31	C	0.893214	0.129895	0.000083
C32	C	1.226547	0.463228	0.333417
C33	C	1.559881	0.796562	0.666750
C34	C	0.793917	0.128024	0.000073
C35	C	1.127250	0.461358	0.333407
C36	C	1.460583	0.794691	0.666740
C37	C	0.736692	0.208614	0.000070
C38	C	1.070025	0.541947	0.333403
C39	C	1.403358	0.875280	0.666736
C40	C	0.643392	0.206850	0.000085
C41	C	0.976725	0.540184	0.333418
C42	C	1.310059	0.873517	0.666751
C43	C	0.607320	0.124497	0.000096
C44	C	0.940653	0.457831	0.333429
C45	C	1.273986	0.791164	0.666763
C46	C	0.664552	0.043902	0.000102
C47	C	0.997886	0.377235	0.333436
C48	C	1.331219	0.710569	0.666769
C49	C	0.757850	0.045666	0.000095
C50	C	1.091183	0.378999	0.333428
C51	C	1.424517	0.712333	0.666761
C52	C	0.470090	0.040231	0.000116
C53	C	0.803423	0.373564	0.333450
C54	C	1.136757	0.706897	0.666783
C55	C	0.376786	0.038466	0.000122
C56	C	0.710119	0.371800	0.333456
C57	C	1.043453	0.705133	0.666789
C58	C	0.355632	0.201415	0.000106
C59	C	0.688965	0.534749	0.333440
C60	C	1.022299	0.868082	0.666773
C61	C	0.448930	0.203179	0.000099
C62	C	0.782263	0.536513	0.333432
C63	C	1.115596	0.869846	0.666765
C64	C	0.506156	0.122584	0.000103
C65	C	0.839489	0.455917	0.333436
C66	C	1.172822	0.789250	0.666770
C67	C	1.063094	-0.039985	0.000108
C68	C	1.396427	0.293348	0.333441
C69	C	1.729761	0.626682	0.666774
C70	C	1.061223	-0.139282	0.000107
C71	C	1.394556	0.194051	0.333440
C72	C	1.727890	0.527385	0.666773
C73	C	1.141812	-0.196507	0.000116
C74	C	1.475146	0.136826	0.333449
C75	C	1.808479	0.470159	0.666783
C76	C	1.140049	-0.289807	0.000106
C77	C	1.473383	0.043527	0.333439
C78	C	1.806716	0.376860	0.666772
C79	C	1.057696	-0.325879	0.000093
C80	C	1.391029	0.007454	0.333427
C81	C	1.724363	0.340788	0.666760
C82	C	0.977101	-0.268646	0.000081
C83	C	1.310434	0.064687	0.333415
C84	C	1.643767	0.398020	0.666748
C85	C	0.978865	-0.175349	0.000084
C86	C	1.312198	0.157985	0.333418
C87	C	1.645531	0.491318	0.666751
C88	C	0.973430	-0.463109	0.000077
C89	C	1.306763	-0.129776	0.333411
C90	C	1.640096	0.203558	0.666744
C91	C	0.971665	-0.556413	0.000076
C92	C	1.304998	-0.223080	0.333409
C93	C	1.638332	0.110254	0.666743
C94	C	1.134614	-0.577567	0.000099
C95	C	1.467947	-0.244233	0.333432
C96	C	1.801281	0.089100	0.666765
C97	C	1.136378	-0.484269	0.000102
C98	C	1.469712	-0.150936	0.333435
C99	C	1.803045	0.182397	0.666768
C100	C	1.055782	-0.427043	0.000091
C101	C	1.389116	-0.093710	0.333425
C102	C	1.722449	0.239624	0.666758
C103	C	1.220263	0.117185	0.000115
C104	C	1.553597	0.450518	0.333448
C105	C	1.886930	0.783851	0.666782
C106	C	1.319561	0.119056	0.000119
C107	C	1.652894	0.452389	0.333452
C108	C	1.986227	0.785722	0.666785
C109	C	1.050384	0.287065	0.000091
C110	C	1.383717	0.620398	0.333424
C111	C	1.717050	0.953731	0.666757
C112	C	1.052254	0.386362	0.000085
C113	C	1.385588	0.719695	0.333419
C114	C	1.718921	1.053028	0.666752
N115	N	1.056721	0.123527	0.235457
N116	N	1.390054	0.456861	0.568791
N117	N	1.723387	0.790194	0.902124
N118	N	1.056764	0.123545	-0.235257
N119	N	1.390097	0.456879	0.098077
N120	N	1.723430	0.790212	0.431410
C121	C	1.117483	0.062809	0.287507
C122	C	1.450816	0.396143	0.620841
C123	C	1.784149	0.729476	0.954174
C124	C	1.117488	0.062809	0.391610
C125	C	1.450822	0.396142	0.724944
C126	C	1.784155	0.729475	1.058277
C127	C	1.056735	0.123531	0.443662
C128	C	1.390069	0.456864	0.776995
C129	C	1.723402	0.790198	1.110329
C130	C	0.995967	0.184252	0.391605
C131	C	1.329300	0.517585	0.724938
C132	C	1.662634	0.850919	1.058272
C133	C	0.995958	0.184248	0.287504
C134	C	1.329291	0.517581	0.620837
C135	C	1.662624	0.850914	0.954170
C136	C	0.995992	0.184258	0.608585
C137	C	1.329325	0.517591	0.941918
C138	C	1.662658	0.850925	1.275252
C139	C	0.996002	0.184264	0.712693
C140	C	1.329335	0.517597	1.046027
C141	C	1.662669	0.850930	1.379360
C142	C	1.117522	0.062819	0.712692
C143	C	1.450856	0.396152	1.046025
C144	C	1.784189	0.729486	1.379359
C145	C	1.117513	0.062815	0.608591
C146	C	1.450846	0.396148	0.941924
C147	C	1.784180	0.729481	1.275257
C148	C	1.056745	0.123537	0.556541
C149	C	1.390079	0.456870	0.889874
C150	C	1.723412	0.790204	1.223207
H151	H	0.635175	-0.023152	0.000126
H152	H	0.968508	0.310182	0.333459
H153	H	1.301842	0.643515	0.666792
H154	H	0.804443	-0.019958	0.000097
H155	H	1.137776	0.313375	0.333430
H156	H	1.471109	0.646708	0.666763
H157	H	0.946478	0.233689	0.245125
H158	H	1.279812	0.567023	0.578459
H159	H	1.613145	0.900356	0.911792
H160	H	0.910047	-0.298024	0.000065
H161	H	1.243380	0.035310	0.333399
H162	H	1.576714	0.368643	0.666732
Cl163	Cl	0.283691	0.302736	0.000103
Cl164	Cl	0.617024	0.636069	0.333436
Cl165	Cl	0.950358	0.969403	0.666770
H166	H	0.946505	0.233702	0.566209
H167	H	1.279839	0.567035	0.899543
H168	H	1.613172	0.900368	1.232876
Cl169	Cl	0.542030	-0.061092	0.000124
Cl170	Cl	0.875364	0.272242	0.333457
Cl171	Cl	1.208697	0.605575	0.666790
H172	H	0.766054	0.275675	0.000060
H173	H	1.099387	0.609008	0.333393
H174	H	1.432720	0.942342	0.666727
Cl175	Cl	0.868134	-0.601760	0.000062
Cl176	Cl	1.201467	-0.268426	0.333395
Cl177	Cl	1.534800	0.064907	0.666728
H178	H	1.166958	0.013366	0.245134
H179	H	1.500291	0.346699	0.578467
H180	H	1.833625	0.680033	0.911800
H181	H	1.166987	0.013374	0.566210
H182	H	1.500320	0.346708	0.899544
H183	H	1.833653	0.680041	1.232877
H184	H	1.208874	-0.167145	0.000132
H185	H	1.542207	0.166188	0.333465
H186	H	1.875541	0.499522	0.666799
Cl187	Cl	0.877548	-0.103407	0.000069
Cl188	Cl	1.210881	0.229926	0.333403
Cl189	Cl	1.544215	0.563259	0.666736
H190	H	1.205673	-0.336396	0.000115
H191	H	1.539007	-0.003063	0.333449
H192	H	1.872340	0.330270	0.666782
Cl193	Cl	1.193875	-0.013525	0.457046
Cl194	Cl	1.527208	0.319808	0.790380
Cl195	Cl	1.860542	0.653142	1.123713
Cl196	Cl	0.571455	0.308168	0.000074
Cl197	Cl	0.904788	0.641501	0.333408
Cl198	Cl	1.238122	0.974834	0.666741
H199	H	1.203437	-0.454903	0.000119
H200	H	1.536771	-0.121569	0.333452
H201	H	1.870104	0.211764	0.666785
Cl202	Cl	0.872107	-0.391168	0.000064
Cl203	Cl	1.205441	-0.057835	0.333397
Cl204	Cl	1.538774	0.275498	0.666731
H205	H	1.167001	0.013377	0.755077
H206	H	1.500334	0.346710	1.088410
H207	H	1.833667	0.680043	1.421744
H208	H	0.347419	-0.028593	0.000133
H209	H	0.680753	0.304740	0.333466
H210	H	1.014086	0.638074	0.666799
Cl211	Cl	0.919621	0.260602	0.778122
Cl212	Cl	1.252954	0.593935	1.111455
Cl213	Cl	1.586288	0.927269	1.444788
H214	H	0.946496	0.233690	0.433991
H215	H	1.279830	0.567024	0.767325
H216	H	1.613163	0.900357	1.100658
H217	H	0.478296	0.270239	0.000080
H218	H	0.811630	0.603572	0.333413
H219	H	1.144963	0.936905	0.666747
H220	H	1.200238	-0.624165	0.000104
H221	H	1.533572	-0.290832	0.333437
H222	H	1.866905	0.042501	0.666770
