data_functionalizedCrystal
_audit_creation_method	'MofGen! by Chris Wilmer'
_symmetry_space_group_name_H-M	'P1'
_symmetry_Int_Tables_number	1
_symmetry_cell_setting	triclinic
loop_
_symmetry_equiv_pos_as_xyz
  x,y,z
_cell_length_a	10.654554
_cell_length_b	14.853567
_cell_length_c	9.130313
_cell_angle_alpha	90.002541
_cell_angle_beta	89.999615
_cell_angle_gamma	84.060837
loop_
_atom_site_label
_atom_site_type_symbol
_atom_site_fract_x
_atom_site_fract_y
_atom_site_fract_z
O1	O	1.666515	0.126641	-0.121791
O2	O	1.300912	0.138701	-0.121791
O3	O	1.493479	0.001494	-0.121796
O4	O	1.473948	0.263849	-0.121787
O5	O	1.493477	0.001497	0.121803
O6	O	1.300910	0.138705	0.121807
O7	O	1.666513	0.126645	0.121808
Cu8	Cu	1.483711	0.132675	0.144050
Cu9	Cu	1.483714	0.132671	-0.144034
O10	O	1.473945	0.263852	0.121812
C11	C	1.254122	0.137817	0.000008
C12	C	1.114707	0.135165	0.000007
C13	C	0.903385	0.213462	0.000006
C14	C	1.034380	0.215954	0.000006
C15	C	1.064032	0.051878	-0.000007
C16	C	0.933039	0.049387	-0.000018
C17	C	0.886267	0.308190	0.000020
C18	C	1.017262	0.310682	0.000020
C19	C	1.492593	-0.032098	-0.000000
C20	C	1.489941	-0.132196	-0.000013
C21	C	1.364341	-0.545403	0.000015
C22	C	1.593116	-0.565457	0.000015
C23	C	1.595609	-0.471410	0.000006
C24	C	1.482467	-0.414355	0.000004
C25	C	1.366832	-0.451347	0.000010
C26	C	1.711243	-0.434410	0.000015
C27	C	1.713741	-0.340358	0.000008
C28	C	1.600598	-0.283301	-0.000005
C29	C	1.484957	-0.320299	-0.000000
C30	C	1.371815	-0.263244	-0.000003
C31	C	1.256174	-0.300240	-0.000008
C32	C	1.253688	-0.394291	-0.000002
C33	C	1.603083	-0.189251	-0.000011
C34	C	1.374306	-0.169188	-0.000007
C35	C	1.713303	0.127529	0.000005
C36	C	1.852718	0.130181	-0.000003
C37	C	1.474832	0.297444	0.000014
C38	C	1.477484	0.397542	0.000017
N39	N	1.483718	0.132678	0.346673
N40	N	1.483717	0.132661	-0.346656
C41	C	1.569009	0.071943	0.423323
C42	C	1.569005	0.071932	0.576660
C43	C	1.398417	0.193399	0.576683
C44	C	1.398415	0.193404	0.423349
C45	C	1.667500	0.001818	0.423311
C46	C	1.667497	0.001807	0.576648
H47	H	1.129444	-0.013902	-0.000021
H48	H	1.685231	-0.611916	0.000028
H49	H	0.844152	0.343886	-0.101920
H50	H	1.328954	0.242851	0.360942
Cl51	Cl	1.113944	-0.228503	0.000001
Cl52	Cl	1.218971	-0.591910	-0.000007
Cl53	Cl	0.815314	0.352381	0.162400
Cl54	Cl	1.621428	-0.099287	0.650066
H55	H	1.159539	-0.424422	-0.000005
H56	H	1.052583	0.340848	-0.105160
Cl57	Cl	1.853469	-0.506139	0.000049
Cl58	Cl	1.859116	-0.293857	-0.000010
H59	H	1.763848	0.017255	0.618265
Cl60	Cl	1.062006	0.367874	0.157417
Cl61	Cl	1.748449	-0.142745	0.000023
H62	H	1.282170	-0.122739	-0.000015
Cl63	Cl	1.291184	0.269736	0.673084
H64	H	0.891792	-0.018428	-0.000044
H65	H	1.646777	-0.067477	0.381688
H66	H	1.758456	0.023777	0.375753
