data_functionalizedCrystal
_audit_creation_method	'MofGen! by Chris Wilmer'
_symmetry_space_group_name_H-M	'P1'
_symmetry_Int_Tables_number	1
_symmetry_cell_setting	triclinic
loop_
_symmetry_equiv_pos_as_xyz
  x,y,z
_cell_length_a	19.805407
_cell_length_b	19.805406
_cell_length_c	19.805399
_cell_angle_alpha	90.014352
_cell_angle_beta	89.980803
_cell_angle_gamma	90.003883
loop_
_atom_site_label
_atom_site_type_symbol
_atom_site_fract_x
_atom_site_fract_y
_atom_site_fract_z
Zn1	Zn	-1.034860	-0.269548	0.382775
Zn2	Zn	-1.034827	-0.382737	0.269613
Zn3	Zn	-0.921675	-0.269559	0.269600
Zn4	Zn	-0.921690	-0.382693	0.382760
O5	O	-0.978263	-0.326134	0.326187
O6	O	-1.129572	-0.284577	0.367775
O7	O	-1.019797	-0.367746	0.174895
O8	O	-0.936696	-0.174841	0.284614
O9	O	-1.129548	-0.367736	0.284636
O10	O	-1.019853	-0.174833	0.367763
O11	O	-0.936664	-0.284595	0.174885
O12	O	-0.826960	-0.284553	0.284600
O13	O	-0.936723	-0.367661	0.477479
O14	O	-0.826972	-0.367672	0.367738
O15	O	-1.019868	-0.284534	0.477490
O16	O	-1.019812	-0.477447	0.284621
O17	O	-0.936691	-0.477415	0.367750
C18	C	-0.802407	-0.326110	0.326167
C19	C	-0.727175	-0.326115	0.326174
C20	C	-0.691844	-0.282890	0.369530
C21	C	-0.621156	-0.282892	0.369530
C22	C	-0.585800	-0.326123	0.326178
C23	C	-0.621135	-0.369350	0.282818
C24	C	-0.691822	-0.369344	0.282814
C25	C	-0.336062	-0.369375	0.282832
C26	C	-0.265370	-0.369379	0.282840
C27	C	-0.265395	-0.282923	0.369548
C28	C	-0.336082	-0.282917	0.369544
C29	C	-0.371412	-0.326141	0.326181
C30	C	-0.448061	-0.326137	0.326180
C31	C	-0.509152	-0.326131	0.326183
C32	C	-0.978268	-0.501990	0.326200
C33	C	-0.978332	-0.577222	0.326229
C34	C	-0.978301	-0.326092	0.502730
C35	C	-0.978317	-0.326074	0.577962
C36	C	-0.154806	-0.326155	0.326202
C37	C	-0.230038	-0.326150	0.326193
C38	C	-0.978276	-0.149592	0.326189
C39	C	-0.978282	-0.074360	0.326190
C40	C	-0.934992	-0.039019	0.282900
C41	C	-0.934997	0.031670	0.282908
C42	C	-0.978295	0.067016	0.326201
C43	C	-1.021586	0.031670	0.369496
C44	C	-1.021578	-0.039017	0.369491
C45	C	-1.021620	0.316743	0.369515
C46	C	-1.021626	0.387435	0.369515
C47	C	-0.935038	0.387430	0.282932
C48	C	-0.935030	0.316743	0.282927
C49	C	-0.978319	0.281403	0.326224
C50	C	-0.978313	0.204755	0.326216
C51	C	-0.978305	0.143663	0.326206
C52	C	-0.978264	-0.326128	0.150331
C53	C	-0.978379	-0.325955	0.075100
C54	C	-1.021612	-0.282787	0.613313
C55	C	-1.021619	-0.282768	0.684001
C56	C	-0.978334	-0.326038	0.719338
C57	C	-0.935035	-0.369327	0.683982
C58	C	-0.935025	-0.369342	0.613295
C59	C	-0.935073	-0.369263	0.969055
C60	C	-0.935087	-0.369246	1.039747
C61	C	-1.021667	-0.282689	1.039762
C62	C	-1.021657	-0.282704	0.969075
C63	C	-0.978355	-0.325990	0.933725
C64	C	-0.978347	-0.326010	0.857077
C65	C	-0.978345	-0.326022	0.795985
H66	H	-0.236621	-0.247725	0.404854
H67	H	-1.056906	-0.247471	0.940307
N68	N	-0.227233	-0.416008	0.236079
H69	H	-0.260340	-0.443388	0.208606
H70	H	-0.197886	-0.388413	0.204806
N71	N	-1.068319	0.425564	0.416220
H72	H	-1.099685	0.454881	0.388721
H73	H	-1.095695	0.392410	0.443642
N74	N	-0.888351	-0.415992	0.722103
H75	H	-0.898853	-0.464358	0.709806
H76	H	-0.840007	-0.405416	0.709783
H77	H	-1.056876	0.287978	0.404762
H78	H	-0.899824	-0.404519	0.940282
N79	N	-1.068281	0.069789	0.416199
H80	H	-1.061719	0.119932	0.409634
H81	H	-1.116618	0.057423	0.405674
N82	N	-0.888385	-0.415906	1.077860
H83	H	-0.894964	-0.409326	1.128004
H84	H	-0.898901	-0.464254	1.065510
H85	H	-1.056923	-0.247441	1.068552
N86	N	-0.374163	-0.415991	0.236062
H87	H	-0.341036	-0.443378	0.208602
H88	H	-0.403510	-0.447349	0.263558
H89	H	-0.899736	-0.067792	0.247643
H90	H	-0.899763	-0.404584	0.584513
N91	N	-1.068261	-0.077139	0.416190
H92	H	-1.095691	-0.044022	0.443618
H93	H	-1.099577	-0.106483	0.388648
N94	N	-0.583051	-0.236278	0.416301
H95	H	-0.532906	-0.242838	0.409725
H96	H	-0.595396	-0.187922	0.405847
H97	H	-0.720588	-0.404542	0.247509
N98	N	-0.729976	-0.236266	0.416293
H99	H	-0.696865	-0.208883	0.443757
H100	H	-0.759290	-0.204904	0.388790
N101	N	-0.374217	-0.236293	0.416306
H102	H	-0.341108	-0.208909	0.443772
H103	H	-0.403530	-0.204933	0.388801
H104	H	-0.592343	-0.404547	0.247517
H105	H	-1.056875	-0.247521	0.712781
N106	N	-0.888338	0.425549	0.236242
H107	H	-0.860910	0.392430	0.208813
H108	H	-0.915885	0.454868	0.204925
N109	N	-0.888309	0.069788	0.236214
H110	H	-0.860883	0.036671	0.208782
H111	H	-0.915863	0.099105	0.204900
H112	H	-0.899774	0.287968	0.247671
H113	H	-1.056862	-0.247553	0.584547
