data_functionalizedCrystal
_audit_creation_method	'MofGen! by Chris Wilmer'
_symmetry_space_group_name_H-M	'P1'
_symmetry_Int_Tables_number	1
_symmetry_cell_setting	triclinic
loop_
_symmetry_equiv_pos_as_xyz
  x,y,z
_cell_length_a	20.875492
_cell_length_b	12.477989
_cell_length_c	20.875625
_cell_angle_alpha	92.958840
_cell_angle_beta	60.168684
_cell_angle_gamma	62.538521
loop_
_atom_site_label
_atom_site_type_symbol
_atom_site_fract_x
_atom_site_fract_y
_atom_site_fract_z
Zr1	Zr	0.814290	0.893265	-0.161497
O2	O	0.940618	0.713320	-0.263467
O3	O	0.678362	0.956762	-0.125500
O4	O	0.817643	0.933914	-0.265683
O5	O	0.802039	0.744710	-0.018094
O6	O	0.831208	1.098442	-0.272819
O7	O	0.801336	0.736168	-0.123285
O8	O	0.582060	1.139312	-0.022058
O9	O	1.051187	0.703840	-0.268855
O10	O	0.747950	1.096558	-0.121197
O11	O	0.738350	0.980148	-0.037369
O12	O	0.902336	0.953248	-0.202416
O13	O	0.892737	0.836837	-0.118588
Zr14	Zr	0.837045	1.169291	-0.005112
Zr15	Zr	0.835925	1.155668	-0.172878
Zr16	Zr	0.815410	0.906888	0.006269
Zr17	Zr	0.990635	0.878145	-0.170090
Zr18	Zr	0.660699	1.184411	0.003482
O19	O	0.972972	1.105794	-0.041108
O20	O	0.971380	1.086424	-0.279650
O21	O	0.942210	0.732691	-0.024925
O22	O	0.710717	1.349235	0.096858
O23	O	0.709124	1.329865	-0.141683
O24	O	0.679954	0.976132	0.113041
O25	O	0.849295	1.317846	-0.148514
O26	O	0.833691	1.128641	0.099074
O27	O	0.820126	0.964114	0.106210
O28	O	0.849998	1.326388	-0.043324
O29	O	1.068384	0.912415	-0.277902
O30	O	0.582950	1.150140	0.111293
O31	O	0.600147	1.358716	0.102247
O32	O	0.599257	1.347887	-0.031105
O33	O	1.052077	0.714669	-0.135503
O34	O	1.069274	0.923244	-0.144550
O35	O	0.748998	1.109308	0.035807
O36	O	0.758598	1.225718	-0.048020
O37	O	0.912984	1.082408	-0.129239
O38	O	0.903384	0.965997	-0.045411
C39	C	0.605085	1.050191	-0.072555
C40	C	0.530222	1.056610	-0.068907
C41	C	0.548126	0.959051	-0.124193
C42	C	0.477797	0.965082	-0.120794
C43	C	0.389565	1.068669	-0.062103
C44	C	0.371662	1.166238	-0.006814
C45	C	0.441990	1.160210	-0.010218
C46	C	0.173538	1.097486	-0.045816
C47	C	0.103208	1.103505	-0.042415
C48	C	0.209349	0.902350	-0.156396
C49	C	0.279673	0.896327	-0.159791
C50	C	0.261765	0.993899	-0.104505
N51	N	0.317676	1.074835	-0.058626
N52	N	0.333654	0.987737	-0.107987
C53	C	0.798605	0.703052	-0.069068
C54	C	0.789420	0.591655	-0.064236
C55	C	1.046249	1.012365	-0.094053
C56	C	1.121112	1.005946	-0.097702
C57	C	0.824266	1.014237	-0.293154
C58	C	0.823791	1.008454	-0.364375
C59	C	0.852729	1.359504	-0.097541
C60	C	0.861914	1.470901	-0.102372
C61	C	0.831041	1.096376	-0.401766
C62	C	0.830586	1.090946	-0.468682
C63	C	0.822887	0.997587	-0.498208
C64	C	0.815633	0.909661	-0.460811
C65	C	0.816082	0.915098	-0.393893
C66	C	0.820738	0.971613	-0.697918
C67	C	0.820293	0.966180	-0.764842
C68	C	0.835244	1.147467	-0.772708
C69	C	0.835698	1.152891	-0.705791
C70	C	0.828439	1.064969	-0.668397
N71	N	0.822425	0.992032	-0.566608
N72	N	0.828895	1.070531	-0.599996
C73	C	0.827068	1.048318	0.126545
C74	C	0.827544	1.054102	0.197767
C75	C	0.632147	1.378417	-0.086791
C76	C	0.566469	1.496233	-0.087975
C77	C	0.606486	1.067232	0.137295
C78	C	0.532098	1.079434	0.212164
C79	C	0.633548	1.395458	0.123058
C80	C	0.568345	1.519057	0.193096
C81	C	1.017786	0.667098	-0.289667
C82	C	1.082989	0.543499	-0.359704
C83	C	1.019187	0.684139	-0.079817
C84	C	1.084866	0.566323	-0.078634
C85	C	1.044848	0.995324	-0.303903
C86	C	1.119236	0.983122	-0.378772
C87	C	0.530067	1.484140	-0.126735
C88	C	0.468364	1.594828	-0.127863
C89	C	0.443058	1.717609	-0.090225
C90	C	0.479467	1.729699	-0.051464
C91	C	0.541174	1.619012	-0.050341
C92	C	0.502723	1.152585	0.285528
C93	C	0.432837	1.164045	0.355882
C94	C	0.392324	1.102361	0.352870
C95	C	0.421705	1.029201	0.279498
C96	C	0.491594	1.017734	0.209146
C97	C	0.542737	1.637877	0.182229
C98	C	0.481482	1.754020	0.248029
C99	C	0.445832	1.751341	0.324696
C100	C	0.471446	1.632509	0.335562
C101	C	0.532705	1.516368	0.269762
C102	C	1.108606	0.424678	-0.348838
C103	C	1.169883	0.308533	-0.414639
C104	C	1.205537	0.311212	-0.491306
C105	C	1.179918	0.430045	-0.502172
C106	C	1.118647	0.546187	-0.436372
C107	C	1.121274	0.578415	-0.039881
C108	C	1.182997	0.467723	-0.038773
C109	C	1.208305	0.344942	-0.076413
C110	C	1.171893	0.332852	-0.115171
C111	C	1.110177	0.443542	-0.116283
C112	C	1.159728	1.044822	-0.375735
C113	C	1.229616	1.033382	-0.446077
C114	C	1.259015	0.960233	-0.519455
C115	C	1.218515	0.898532	-0.522491
C116	C	1.148624	0.909980	-0.452150
H117	H	0.619965	0.874687	-0.171977
H118	H	0.550670	1.384174	-0.157394
H119	H	1.208955	0.432210	-0.564603
N120	N	0.008041	1.215251	0.020881
H121	H	-0.033792	1.204258	0.014646
H122	H	-0.006266	1.216811	0.074936
N123	N	0.697893	0.615721	-0.016080
H124	H	0.650823	0.712127	0.008682
H125	H	0.690584	0.572303	-0.051784
H126	H	1.315925	0.950921	-0.576725
N127	N	1.104969	0.843405	-0.455441
H128	H	1.112074	0.779952	-0.427310
H129	H	1.039395	0.910408	-0.428632
H130	H	0.931005	0.452740	-0.138724
H131	H	1.100674	0.678380	-0.009224
H132	H	1.135803	1.104386	-0.315993
H133	H	1.190730	0.211787	-0.405776
H134	H	0.837316	1.172393	-0.377733
H135	H	0.427407	1.239653	0.034802
N136	N	1.091017	0.674341	-0.448098
H137	H	1.122902	0.658402	-0.506652
H138	H	1.024391	0.728717	-0.420691
N139	N	1.222261	0.480780	0.003033
H140	H	1.196852	0.575360	0.026714
H141	H	1.206949	0.444536	0.046587
H142	H	0.442411	1.630347	0.397994
N143	N	0.429100	1.581757	-0.169665
H144	H	0.362086	1.631435	-0.130405
H145	H	0.444481	1.617881	-0.213272
N146	N	0.497107	0.859868	-0.180430
H147	H	0.563673	0.793331	-0.218125
H148	H	0.466819	0.816662	-0.151748
H149	H	0.836490	1.162539	-0.499125
N150	N	0.154208	1.202727	0.013817
H151	H	0.115351	1.206418	0.069082
H152	H	0.212180	1.183145	0.002693
N153	N	0.376504	1.836988	-0.091440
H154	H	0.357286	1.810685	-0.121707
H155	H	0.322700	1.896833	-0.035263
N156	N	0.401146	1.242965	0.435013
H157	H	0.452088	1.205265	0.440118
H158	H	0.379378	1.335618	0.438758
H159	H	0.460633	1.850767	0.239168
H160	H	0.335417	1.111709	0.410161
H161	H	0.351515	0.811991	-0.207595
N162	N	0.523248	0.938817	0.130036
H163	H	0.515651	0.996219	0.098478
H164	H	0.588328	0.865847	0.099855
H165	H	0.571755	1.640082	0.119808
N166	N	0.844004	1.253583	-0.673947
H167	H	0.848527	1.308460	-0.707788
H168	H	0.789709	1.310661	-0.617520
N169	N	0.378000	0.962683	0.276255
H170	H	0.329266	0.981064	0.331959
H171	H	0.351436	0.996446	0.246633
H172	H	1.262584	1.083627	-0.443590
H173	H	0.458854	1.829683	-0.020821
H174	H	0.570804	1.628877	-0.018774
H175	H	1.242462	0.838974	-0.582245
N176	N	1.274866	0.225555	-0.075208
H177	H	1.333072	0.218618	-0.101368
H178	H	1.250668	0.232203	-0.018493
H179	H	0.395952	1.845920	0.378268
H180	H	0.553546	1.419625	0.278622
H181	H	0.223920	0.822914	-0.201408
N182	N	0.276500	1.277975	0.056482
H183	H	0.234662	1.266991	0.050251
H184	H	0.262200	1.279522	0.110535
N185	N	0.546409	1.219126	0.288788
H186	H	0.517189	1.267197	0.345944
H187	H	0.611996	1.152110	0.261916
N188	N	1.070154	0.421771	-0.266151
H189	H	1.095691	0.328866	-0.269264
H190	H	1.085937	0.463765	-0.238957
H191	H	1.255426	0.216632	-0.544879
N192	N	0.843072	1.242293	-0.813039
H193	H	0.841620	1.224687	-0.859911
H194	H	0.791607	1.333700	-0.774226
N195	N	1.199178	0.200423	-0.155751
H196	H	1.243791	0.132148	-0.149152
H197	H	1.144795	0.197095	-0.131180
H198	H	0.814024	0.890150	-0.788879
N199	N	1.070909	0.430490	-0.158083
H200	H	1.096311	0.335910	-0.181755
H201	H	1.003900	0.480221	-0.118779
H202	H	0.809359	0.833650	-0.484852
N203	N	0.812903	0.876794	-0.657588
H204	H	0.807959	0.816829	-0.686449
H205	H	0.867565	0.824221	-0.658478
N206	N	0.808269	0.820259	-0.353567
H207	H	0.809719	0.837871	-0.306694
H208	H	0.750120	0.830603	-0.334714
