data_functionalizedCrystal
_audit_creation_method	'MofGen! by Chris Wilmer'
_symmetry_space_group_name_H-M	'P1'
_symmetry_Int_Tables_number	1
_symmetry_cell_setting	triclinic
loop_
_symmetry_equiv_pos_as_xyz
  x,y,z
_cell_length_a	10.723023
_cell_length_b	17.038272
_cell_length_c	9.798715
_cell_angle_alpha	90.003665
_cell_angle_beta	90.003242
_cell_angle_gamma	87.789552
loop_
_atom_site_label
_atom_site_type_symbol
_atom_site_fract_x
_atom_site_fract_y
_atom_site_fract_z
O1	O	1.667337	0.109717	0.113479
O2	O	2.167337	0.609717	0.613479
O3	O	1.305156	0.120220	0.113485
O4	O	1.805156	0.620220	0.613485
O5	O	1.484094	0.001142	0.113471
O6	O	1.984094	0.501142	0.613471
O7	O	1.488399	0.228796	0.113492
O8	O	1.988399	0.728796	0.613492
O9	O	1.484080	0.001141	-0.113511
O10	O	1.984080	0.501141	0.386489
O11	O	1.305142	0.120220	-0.113498
O12	O	1.805142	0.620220	0.386502
O13	O	1.667323	0.109717	-0.113503
O14	O	2.167323	0.609717	0.386497
Zn15	Zn	1.486230	0.114968	-0.149539
Zn16	Zn	1.986230	0.614968	0.350461
Zn17	Zn	1.486249	0.114969	0.149520
Zn18	Zn	1.986249	0.614969	0.649520
O19	O	1.488385	0.228795	-0.113490
O20	O	1.988385	0.728795	0.386510
C21	C	1.258579	0.119456	-0.000006
C22	C	1.758579	0.619456	0.499994
C23	C	1.119813	0.117169	-0.000004
C24	C	1.619813	0.617169	0.499996
C25	C	1.057939	0.116150	-0.117586
C26	C	1.557939	0.616150	0.382414
C27	C	0.914517	0.113786	-0.117587
C28	C	1.414517	0.613786	0.382413
C29	C	1.480171	-0.028009	-0.000020
C30	C	1.980171	0.471991	0.499980
C31	C	1.468489	-0.114866	-0.000019
C32	C	1.968489	0.385134	0.499981
C33	C	1.575745	-0.164388	-0.000023
C34	C	2.075745	0.335612	0.499977
C35	C	1.564761	-0.245999	-0.000009
C36	C	2.064761	0.254001	0.499991
C37	C	1.446520	-0.278087	-0.000003
C38	C	1.946520	0.221913	0.499997
C39	C	1.339256	-0.228559	0.000004
C40	C	1.839256	0.271441	0.500004
C41	C	1.350242	-0.146949	0.000001
C42	C	1.850242	0.353051	0.500001
C43	C	1.407711	-0.524059	0.000016
C44	C	1.907711	-0.024059	0.500016
C45	C	1.396734	-0.605675	0.000016
C46	C	1.896734	-0.105675	0.500016
C47	C	1.622239	-0.623110	0.000004
C48	C	2.122239	-0.123110	0.500004
C49	C	1.633214	-0.541497	-0.000007
C50	C	2.133214	-0.041497	0.499993
C51	C	1.525951	-0.491977	0.000007
C52	C	2.025951	0.008023	0.500007
C53	C	1.435290	-0.361507	0.000006
C54	C	1.935290	0.138493	0.500006
C55	C	1.537182	-0.408559	0.000008
C56	C	2.037182	0.091441	0.500008
C57	C	1.713900	0.110481	-0.000010
C58	C	2.213900	0.610481	0.499990
C59	C	1.852666	0.112768	-0.000003
C60	C	2.352666	0.612768	0.499997
C61	C	1.492307	0.257946	0.000004
C62	C	1.992307	0.757946	0.500004
C63	C	1.503990	0.344803	0.000013
C64	C	2.003990	0.844803	0.500013
N65	N	1.486226	0.114967	-0.353639
N66	N	1.986226	0.614967	0.146361
C67	C	1.563187	0.160329	-0.421413
C68	C	2.063187	0.660329	0.078587
C69	C	1.563207	0.160328	-0.578576
C70	C	2.063207	0.660328	-0.078576
N71	N	1.486262	0.114964	0.353620
N72	N	1.986262	0.614964	0.853620
H73	H	1.066606	0.116291	0.100662
H74	H	1.566606	0.616291	0.600662
H75	H	1.420355	0.076128	-0.411966
H76	H	1.920355	0.576128	0.088034
F77	F	1.309452	-0.395665	0.000019
F78	F	1.809452	0.104335	0.500019
F79	F	1.236085	-0.094245	0.000009
F80	F	1.736085	0.405755	0.500009
H81	H	1.633453	-0.382429	0.000033
H82	H	2.133453	0.117571	0.500033
H83	H	1.672029	-0.138268	-0.000036
H84	H	2.172029	0.361732	0.499964
H85	H	1.420364	0.076130	-0.588105
H86	H	1.920364	0.576130	-0.088105
F87	F	1.678918	-0.298700	-0.000015
F88	F	2.178918	0.201300	0.499985
F89	F	1.736388	-0.675818	-0.000009
F90	F	2.236388	-0.175818	0.499991
F91	F	1.127478	0.117293	-0.249169
F92	F	1.627478	0.617293	0.250831
F93	F	0.922202	0.113919	0.131586
F94	F	1.422202	0.613919	0.631586
F95	F	1.649299	0.211089	-0.345181
F96	F	2.149299	0.711089	0.154819
H97	H	0.861307	0.112914	-0.218254
H98	H	1.361307	0.612914	0.281746
H99	H	1.300444	-0.631798	-0.000001
H100	H	1.800444	-0.131798	0.499999
H101	H	1.629090	0.199168	-0.636860
H102	H	2.129090	0.699168	-0.136860
H103	H	1.320369	-0.483749	0.000028
H104	H	1.820369	0.016251	0.500028
H105	H	1.729498	-0.515378	-0.000013
H106	H	2.229498	-0.015378	0.499987
F107	F	1.213415	-0.262712	0.000027
F108	F	1.713415	0.237288	0.500027
