data_functionalizedCrystal
_audit_creation_method	'MofGen! by Chris Wilmer'
_symmetry_space_group_name_H-M	'P1'
_symmetry_Int_Tables_number	1
_symmetry_cell_setting	triclinic
loop_
_symmetry_equiv_pos_as_xyz
  x,y,z
_cell_length_a	13.339070
_cell_length_b	8.559649
_cell_length_c	7.088929
_cell_angle_alpha	95.344185
_cell_angle_beta	82.100867
_cell_angle_gamma	92.703979
loop_
_atom_site_label
_atom_site_type_symbol
_atom_site_fract_x
_atom_site_fract_y
_atom_site_fract_z
O1	O	-1.270846	-0.785805	-0.159019
O2	O	-0.984216	-0.684163	-0.159012
O3	O	-1.152784	-0.513577	-0.159014
O4	O	-1.102279	-0.956390	-0.159017
O5	O	-1.175316	-0.490708	0.158961
O6	O	-1.006749	-0.661294	0.158962
O7	O	-1.293379	-0.762936	0.158956
Cu8	Cu	-1.152121	-0.710027	0.187993
Cu9	Cu	-1.125474	-0.737072	-0.188049
O10	O	-1.124811	-0.933522	0.158958
C11	C	-0.959127	-0.655559	-0.000024
C12	C	-0.850802	-0.604382	-0.000022
C13	C	-1.167877	-0.444310	-0.000030
C14	C	-1.179269	-0.271981	-0.000041
C15	C	-1.318467	-0.791540	-0.000036
C16	C	-1.426792	-0.842718	-0.000051
C17	C	-0.455091	-1.002312	-0.000055
C18	C	-0.556867	-1.050401	-0.000063
C19	C	-0.630356	-0.938900	-0.000052
C20	C	-0.602058	-0.779302	-0.000034
C21	C	-0.500271	-0.731209	-0.000042
C22	C	-0.675536	-0.667798	-0.000039
C23	C	-0.647238	-0.508200	-0.000021
C24	C	-0.545461	-0.460115	-0.000027
C25	C	-0.471972	-0.571616	-0.000038
C26	C	-0.777323	-0.715891	-0.000032
C27	C	-0.822503	-0.444788	-0.000018
C28	C	-0.720727	-0.396699	-0.000010
C29	C	-1.109718	-1.002789	-0.000030
C30	C	-1.098325	-1.175118	-0.000032
N31	N	-1.170871	-0.691007	0.452481
N32	N	-1.106732	-0.756083	-0.452537
H33	H	-0.800352	-0.845835	-0.000038
H34	H	-1.040261	-0.823517	0.465817
O35	O	-1.272386	-0.213844	-0.000292
C36	C	-1.418676	-0.211804	-0.165089
C37	C	-1.313248	-0.277793	-0.165019
H38	H	-1.451736	-0.263453	-0.298276
H39	H	-1.470732	-0.244451	-0.032114
H40	H	-1.411577	-0.078548	-0.164982
H41	H	-1.320251	-0.411052	-0.165194
H42	H	-1.261232	-0.245023	-0.297982
O43	O	-1.005179	-0.233188	0.000043
C44	C	-0.826694	-0.174627	-0.000080
C45	C	-0.932125	-0.108640	-0.000118
H46	H	-0.767598	-0.073966	-0.000250
H47	H	-0.826580	-0.239779	0.133016
H48	H	-0.807845	-0.259020	-0.133128
H49	H	-0.951040	-0.024185	0.132840
H50	H	-0.932184	-0.043583	-0.133301
O51	O	-0.383818	-1.110739	0.000179
C52	C	-0.325676	-1.315825	0.164933
C53	C	-0.406475	-1.193108	0.164891
H54	H	-0.343954	-1.382431	0.298108
H55	H	-0.325132	-1.401793	0.031946
H56	H	-0.248075	-1.254010	0.164829
H57	H	-0.484117	-1.254788	0.165063
H58	H	-0.406930	-1.107148	0.297866
O59	O	-1.250257	-0.610557	0.549583
C60	C	-1.396707	-0.461846	0.528843
C61	C	-1.306864	-0.552944	0.418639
H62	H	-1.442486	-0.415212	0.423023
H63	H	-1.447120	-0.543412	0.622489
H64	H	-1.366979	-0.359371	0.622627
H65	H	-1.336502	-0.655420	0.324751
H66	H	-1.256467	-0.471273	0.325114
H67	H	-0.713225	-0.978064	-0.000063
H68	H	-0.579898	-1.180346	-0.000092
H69	H	-0.522424	-0.330162	-0.000034
H70	H	-0.697671	-0.266753	-0.000012
H71	H	-0.389096	-0.532469	-0.000030
H72	H	-0.882338	-0.353995	-0.000018
