data_functionalizedCrystal
_audit_creation_method	'MofGen! by Chris Wilmer'
_symmetry_space_group_name_H-M	'P1'
_symmetry_Int_Tables_number	1
_symmetry_cell_setting	triclinic
loop_
_symmetry_equiv_pos_as_xyz
  x,y,z
_cell_length_a	17.640280
_cell_length_b	12.827893
_cell_length_c	12.827885
_cell_angle_alpha	90.019462
_cell_angle_beta	78.769218
_cell_angle_gamma	101.199338
loop_
_atom_site_label
_atom_site_type_symbol
_atom_site_fract_x
_atom_site_fract_y
_atom_site_fract_z
Zn1	Zn	-0.314632	-1.681788	-0.506827
Zn2	Zn	0.185368	-1.181788	-0.006827
Zn3	Zn	-0.446826	-1.717024	-0.296785
Zn4	Zn	0.053174	-1.217024	0.203215
Zn5	Zn	-0.314670	-1.507039	-0.332090
Zn6	Zn	0.185330	-1.007039	0.167910
Zn7	Zn	-0.446767	-1.542341	-0.471501
Zn8	Zn	0.053233	-1.042341	0.028499
O9	O	-0.380724	-1.612048	-0.401801
O10	O	0.119276	-1.112048	0.098199
O11	O	-0.332176	-1.832701	-0.478973
O12	O	0.167824	-1.332701	0.021027
O13	O	-0.429336	-1.689141	-0.155221
O14	O	0.070664	-1.189141	0.344779
O15	O	-0.204058	-1.500700	-0.384829
O16	O	0.295942	-1.000700	0.115171
O17	O	-0.429298	-1.858588	-0.324656
O18	O	0.070702	-1.358588	0.175344
O19	O	-0.204030	-1.629087	-0.513207
O20	O	0.295970	-1.129087	-0.013207
O21	O	-0.332242	-1.534866	-0.181160
O22	O	0.167758	-1.034866	0.318840
O23	O	-0.332185	-1.365484	-0.350575
O24	O	0.167815	-0.865484	0.149425
O25	O	-0.429198	-1.560867	-0.622434
O26	O	0.070802	-1.060867	-0.122434
O27	O	-0.429235	-1.391420	-0.452999
O28	O	0.070765	-0.891420	0.047001
O29	O	-0.332119	-1.663318	-0.648388
O30	O	0.167881	-1.163318	-0.148388
O31	O	-0.557424	-1.723372	-0.290402
O32	O	-0.057424	-1.223372	0.209598
O33	O	-0.557381	-1.595033	-0.418765
O34	O	-0.057381	-1.095033	0.081235
C35	C	-0.380708	-1.340534	-0.401785
C36	C	0.119292	-0.840534	0.098215
C37	C	-0.380721	-1.224384	-0.401798
C38	C	0.119279	-0.724384	0.098202
C39	C	-0.586082	-1.666885	-0.346942
C40	C	-0.086082	-1.166885	0.153058
C41	C	-0.673935	-1.690440	-0.323508
C42	C	-0.173935	-1.190440	0.176492
C43	C	-0.380648	-1.612100	-0.674391
C44	C	0.119352	-1.112100	-0.174391
C45	C	-0.380615	-1.612122	-0.790553
C46	C	0.119385	-1.112122	-0.290553
C47	C	-0.962898	-1.433531	-0.580206
C48	C	-0.462898	-0.933531	-0.080206
C49	C	-1.045449	-1.455667	-0.558153
C50	C	-0.545449	-0.955667	-0.058153
C51	C	-1.045429	-1.589389	-0.424624
C52	C	-0.545429	-1.089389	0.075376
C53	C	-0.962876	-1.567268	-0.446669
C54	C	-0.462876	-1.067268	0.053331
C55	C	-0.921617	-1.489337	-0.524461
C56	C	-0.421617	-0.989337	-0.024461
C57	C	-0.921595	-1.623074	-0.390924
C58	C	-0.421595	-1.123074	0.109076
C59	C	-0.839049	-1.600950	-0.412964
C60	C	-0.339049	-1.100950	0.087036
C61	C	-0.797784	-1.523021	-0.490750
C62	C	-0.297784	-1.023021	0.009250
C63	C	-0.839071	-1.467214	-0.546501
C64	C	-0.339071	-0.967214	-0.046501
C65	C	-0.962855	-1.700999	-0.313128
C66	C	-0.462855	-1.200999	0.186872
C67	C	-0.921574	-1.756805	-0.257382
C68	C	-0.421574	-1.256805	0.242618
C69	C	-0.839027	-1.734687	-0.279427
C70	C	-0.339027	-1.234687	0.220573
C71	C	-0.797762	-1.656758	-0.357213
C72	C	-0.297762	-1.156758	0.142787
C73	C	-0.797740	-1.790494	-0.223676
C74	C	-0.297740	-1.290494	0.276324
C75	C	-0.715194	-1.768371	-0.245716
C76	C	-0.215194	-1.268371	0.254284
C77	C	-0.715216	-1.634634	-0.379253
C78	C	-0.215216	-1.134634	0.120747
C79	C	-0.174563	-1.557025	-0.456897
C80	C	0.325437	-1.057025	0.043103
C81	C	-0.086710	-1.533578	-0.480375
C82	C	0.413290	-1.033578	0.019625
C83	C	-0.380739	-1.884622	-0.401817
C84	C	0.119261	-1.384622	0.098183
C85	C	-0.380746	-2.000777	-0.401824
C86	C	0.119254	-1.500777	0.098176
C87	C	-0.428820	-1.185481	-0.452363
C88	C	0.071180	-0.685481	0.047637
C89	C	-0.428834	-1.065435	-0.452377
C90	C	0.071166	-0.565435	0.047623
C91	C	-0.332561	-1.535800	-0.855176
C92	C	0.167439	-1.035800	-0.355176
C93	C	-0.332526	-1.535821	-0.975235
C94	C	0.167474	-1.035821	-0.475235
C95	C	-0.380742	-1.612041	-0.130286
C96	C	0.119258	-1.112041	0.369714
C97	C	-0.380552	-1.612162	-0.014184
C98	C	0.119448	-1.112162	0.485816
H99	H	-0.730570	-1.505002	-0.508686
H100	H	-0.230570	-1.005002	-0.008686
H101	H	-0.805476	-1.403762	-0.609854
H102	H	-0.305476	-0.903762	-0.109854
H103	H	-1.030069	-1.719011	-0.295188
H104	H	-0.530069	-1.219011	0.204812
H105	H	-0.470015	-1.031930	-0.495664
H106	H	0.029985	-0.531930	0.004336
H107	H	-0.955179	-1.820253	-0.194042
H108	H	-0.455179	-1.320253	0.305958
H109	H	-0.831345	-1.853938	-0.160332
H110	H	-0.331345	-1.353938	0.339668
N111	N	-0.435084	-1.698692	-0.834998
N112	N	0.064916	-1.198692	-0.334998
H113	H	-0.402923	-1.738505	-0.888885
H114	H	0.097077	-1.238505	-0.388885
H115	H	-0.467150	-1.749551	-0.775318
H116	H	0.032850	-1.249551	-0.275318
N117	N	-0.670699	-1.550589	-0.463162
N118	N	-0.170699	-1.050589	0.036838
H119	H	-0.685020	-1.570619	-0.534019
H120	H	-0.185020	-1.070619	-0.034019
H121	H	-0.685127	-1.479824	-0.442931
H122	H	-0.185127	-0.979824	0.057069
H123	H	-0.929303	-1.370079	-0.643559
H124	H	-0.429303	-0.870079	-0.143559
N125	N	-0.483357	-1.259074	-0.509694
N126	N	0.016643	-0.759074	-0.009694
H127	H	-0.475618	-1.334400	-0.501555
H128	H	0.024382	-0.834400	-0.001555
H129	H	-0.539806	-1.255123	-0.478241
H130	H	-0.039806	-0.755123	0.021759
H131	H	-1.079057	-1.410229	-0.603566
H132	H	-0.579057	-0.910229	-0.103566
H133	H	-1.079033	-1.652837	-0.361283
H134	H	-0.579033	-1.152837	0.138717
N135	N	-0.670662	-1.828552	-0.185590
N136	N	-0.170662	-1.328552	0.314410
H137	H	-0.709325	-1.881279	-0.132967
H138	H	-0.209325	-1.381279	0.367033
H139	H	-0.636365	-1.867695	-0.237328
H140	H	-0.136365	-1.367695	0.262672
N141	N	-0.326191	-1.045129	-0.344471
N142	N	0.173809	-0.545129	0.155529
H143	H	-0.358293	-1.098969	-0.287431
H144	H	0.141707	-0.598969	0.212569
H145	H	-0.289635	-1.080608	-0.396890
H146	H	0.210365	-0.580608	0.103110
N147	N	-0.326189	-1.150790	-0.344459
N148	N	0.173811	-0.650790	0.155541
H149	H	-0.338387	-1.172957	-0.266491
H150	H	0.161613	-0.672957	0.233509
H151	H	-0.269736	-1.154677	-0.375957
H152	H	0.230264	-0.654677	0.124043
N153	N	-0.278098	-1.449215	-0.810738
N154	N	0.221902	-0.949215	-0.310738
H155	H	-0.285844	-1.461472	-0.731270
H156	H	0.214156	-0.961472	-0.231270
H157	H	-0.221631	-1.450397	-0.844852
H158	H	0.278369	-0.950397	-0.344852
N159	N	-0.278030	-1.449256	-1.048772
N160	N	0.221970	-0.949256	-0.548772
H161	H	-0.285734	-1.461538	-1.124113
H162	H	0.214266	-0.961538	-0.624113
H163	H	-0.290330	-1.377887	-1.026449
H164	H	0.209670	-0.877887	-0.526449
H165	H	-0.421692	-1.677511	-0.958666
H166	H	0.078308	-1.177511	-0.458666
