data_functionalizedCrystal
_audit_creation_method	'MofGen! by Chris Wilmer'
_symmetry_space_group_name_H-M	'P1'
_symmetry_Int_Tables_number	1
_symmetry_cell_setting	triclinic
loop_
_symmetry_equiv_pos_as_xyz
  x,y,z
_cell_length_a	16.120530
_cell_length_b	13.032721
_cell_length_c	13.034296
_cell_angle_alpha	89.133654
_cell_angle_beta	79.563197
_cell_angle_gamma	85.323259
loop_
_atom_site_label
_atom_site_type_symbol
_atom_site_fract_x
_atom_site_fract_y
_atom_site_fract_z
Zn1	Zn	1.306904	0.406996	-0.725549
Zn2	Zn	1.556904	0.656996	-0.475549
Zn3	Zn	1.806904	0.906996	-0.225549
Zn4	Zn	2.056904	1.156996	0.024451
Zn5	Zn	1.271886	0.598932	-0.572940
Zn6	Zn	1.521886	0.848932	-0.322940
Zn7	Zn	1.771886	1.098932	-0.072940
Zn8	Zn	2.021886	1.348932	0.177060
Zn9	Zn	1.147575	0.420176	-0.542368
Zn10	Zn	1.397575	0.670176	-0.292368
Zn11	Zn	1.647575	0.920176	-0.042368
Zn12	Zn	1.897575	1.170176	0.207632
Zn13	Zn	1.151997	0.570459	-0.736414
Zn14	Zn	1.401997	0.820459	-0.486414
Zn15	Zn	1.651997	1.070459	-0.236414
Zn16	Zn	1.901997	1.320459	0.013586
O17	O	1.219591	0.499141	-0.644318
O18	O	1.469591	0.749141	-0.394318
O19	O	1.719591	0.999141	-0.144318
O20	O	1.969591	1.249141	0.105682
O21	O	1.419113	0.438857	-0.713552
O22	O	1.669113	0.688857	-0.463552
O23	O	1.919113	0.938857	-0.213552
O24	O	2.169113	1.188857	0.036448
O25	O	1.238890	0.592651	-0.423808
O26	O	1.488890	0.842651	-0.173808
O27	O	1.738890	1.092651	0.076192
O28	O	1.988890	1.342651	0.326192
O29	O	1.181515	0.275208	-0.549326
O30	O	1.431515	0.525208	-0.299326
O31	O	1.681515	0.775208	-0.049326
O32	O	1.931515	1.025208	0.200674
O33	O	1.393386	0.579871	-0.601431
O34	O	1.643386	0.829871	-0.351431
O35	O	1.893386	1.079871	-0.101431
O36	O	2.143386	1.329871	0.148569
O37	O	1.298574	0.265525	-0.683908
O38	O	1.548574	0.515525	-0.433908
O39	O	1.798574	0.765525	-0.183908
O40	O	2.048574	1.015525	0.066092
O41	O	1.147559	0.461320	-0.401347
O42	O	1.397559	0.711320	-0.151347
O43	O	1.647559	0.961320	0.098653
O44	O	1.897559	1.211320	0.348653
O45	O	1.031308	0.433711	-0.559862
O46	O	1.281308	0.683711	-0.309862
O47	O	1.531308	0.933711	-0.059862
O48	O	1.781308	1.183711	0.190138
O49	O	1.189052	0.531344	-0.880049
O50	O	1.439052	0.781344	-0.630049
O51	O	1.689052	1.031344	-0.380049
O52	O	1.939052	1.281344	-0.130049
O53	O	1.034557	0.544124	-0.702426
O54	O	1.284557	0.794124	-0.452426
O55	O	1.534557	1.044124	-0.202426
O56	O	1.784557	1.294124	0.047574
O57	O	1.302862	0.411249	-0.872066
O58	O	1.552862	0.661249	-0.622066
O59	O	1.802862	0.911249	-0.372066
O60	O	2.052862	1.161249	-0.122066
O61	O	1.243178	0.738375	-0.611967
O62	O	1.493178	0.988375	-0.361967
O63	O	1.743178	1.238375	-0.111967
O64	O	1.993178	1.488375	0.138033
O65	O	1.155096	0.717456	-0.732070
O66	O	1.405096	0.967456	-0.482070
O67	O	1.655096	1.217456	-0.232070
O68	O	1.905096	1.467456	0.017930
C69	C	1.195842	0.765049	-0.676539
C70	C	1.445842	1.015049	-0.426539
C71	C	1.695842	1.265049	-0.176539
C72	C	1.945842	1.515049	0.073461
C73	C	1.185763	0.878806	-0.690364
C74	C	1.435763	1.128806	-0.440364
C75	C	1.685763	1.378806	-0.190364
C76	C	1.935763	1.628806	0.059636
C77	C	1.002633	0.487259	-0.629006
C78	C	1.252633	0.737259	-0.379006
C79	C	1.502633	0.987259	-0.129006
C80	C	1.752633	1.237259	0.120994
C81	C	0.909819	0.482197	-0.622483
C82	C	1.159819	0.732197	-0.372483
C83	C	1.409819	0.982197	-0.122483
C84	C	1.659819	1.232197	0.127517
C85	C	1.250356	0.466650	-0.914726
C86	C	1.500356	0.716650	-0.664726
C87	C	1.750356	0.966650	-0.414726
C88	C	2.000356	1.216650	-0.164726
C89	C	1.263467	0.452805	-1.029958
C90	C	1.513467	0.702805	-0.779958
C91	C	1.763467	0.952805	-0.529958
C92	C	2.013467	1.202805	-0.279958
C93	C	0.739888	0.472931	-0.610580
C94	C	0.989888	0.722931	-0.360580
C95	C	1.239888	0.972931	-0.110580
C96	C	1.489888	1.222931	0.139420
C97	C	0.700136	0.525417	-0.678140
C98	C	0.950136	0.775417	-0.428140
C99	C	1.200136	1.025417	-0.178140
C100	C	1.450136	1.275417	0.071860
C101	C	0.605581	0.520261	-0.671517
C102	C	0.855581	0.770261	-0.421517
C103	C	1.105581	1.020261	-0.171517
C104	C	1.355581	1.270261	0.078483
C105	C	0.834452	0.478085	-0.617202
C106	C	1.084452	0.728085	-0.367202
C107	C	1.334452	0.978085	-0.117202
C108	C	1.584452	1.228085	0.132798
C109	C	1.437395	0.511070	-0.659690
C110	C	1.687395	0.761070	-0.409690
C111	C	1.937395	1.011070	-0.159690
C112	C	2.187395	1.261070	0.090310
C113	C	1.530211	0.516154	-0.666241
C114	C	1.780211	0.766154	-0.416241
C115	C	2.030211	1.016154	-0.166241
C116	C	2.280211	1.266154	0.083759
C117	C	1.243457	0.232193	-0.611995
C118	C	1.493457	0.482193	-0.361995
C119	C	1.743457	0.732193	-0.111995
C120	C	1.993457	0.982193	0.138005
C121	C	1.253628	0.118435	-0.598221
C122	C	1.503628	0.368435	-0.348221
C123	C	1.753628	0.618435	-0.098221
C124	C	2.003628	0.868435	0.151779
C125	C	1.224901	0.939834	-0.637152
C126	C	1.474901	1.189834	-0.387152
C127	C	1.724901	1.439834	-0.137152
C128	C	1.974901	1.689834	0.112848
C129	C	1.214484	1.057408	-0.651439
C130	C	1.464484	1.307408	-0.401439
C131	C	1.714484	1.557408	-0.151439
C132	C	1.964484	1.807408	0.098561
C133	C	1.213001	0.506053	-1.085281
C134	C	1.463001	0.756053	-0.835281
C135	C	1.713001	1.006053	-0.585281
C136	C	1.963001	1.256053	-0.335281
C137	C	1.226550	0.491744	-1.204380
C138	C	1.476550	0.741744	-0.954380
C139	C	1.726550	0.991744	-0.704380
C140	C	1.976550	1.241744	-0.454380
C141	C	1.189000	0.531434	-0.374956
C142	C	1.439000	0.781434	-0.124956
C143	C	1.689000	1.031434	0.125044
C144	C	1.939000	1.281434	0.375044
C145	C	1.176077	0.545000	-0.259701
C146	C	1.426077	0.795000	-0.009701
C147	C	1.676077	1.045000	0.240299
C148	C	1.926077	1.295000	0.490299
H149	H	0.737116	0.574223	-0.740954
H150	H	0.987116	0.824223	-0.490954
H151	H	1.237116	1.074223	-0.240954
H152	H	1.487116	1.324223	0.009046
Br153	Br	1.087347	0.638660	-1.191707
Br154	Br	1.337347	0.888660	-0.941707
Br155	Br	1.587347	1.138660	-0.691707
Br156	Br	1.837347	1.388660	-0.441707
Br157	Br	0.678257	0.391587	-0.505893
Br158	Br	0.928257	0.641587	-0.255893
Br159	Br	1.178257	0.891587	-0.005893
Br160	Br	1.428257	1.141587	0.244107
H161	H	1.294853	1.083646	-0.542088
H162	H	1.544853	1.333646	-0.292088
H163	H	1.794853	1.583646	-0.042088
H164	H	2.044853	1.833646	0.207912
H165	H	1.144548	0.913600	-0.746501
H166	H	1.394548	1.163600	-0.496501
H167	H	1.644548	1.413600	-0.246501
H168	H	1.894548	1.663600	0.003499
Br169	Br	1.145786	1.115384	-0.745016
Br170	Br	1.395786	1.365384	-0.495016
Br171	Br	1.645786	1.615384	-0.245016
Br172	Br	1.895786	1.865384	0.004984
Br173	Br	1.124270	0.599700	-1.017279
Br174	Br	1.374270	0.849700	-0.767279
Br175	Br	1.624270	1.099700	-0.517279
Br176	Br	1.874270	1.349700	-0.267279
H177	H	1.266124	0.905042	-0.581023
H178	H	1.516124	1.155042	-0.331023
H179	H	1.766124	1.405042	-0.081023
H180	H	2.016124	1.655042	0.168977
H181	H	1.279792	0.435563	-1.245183
H182	H	1.529792	0.685563	-0.995183
H183	H	1.779792	0.935563	-0.745183
H184	H	2.029792	1.185563	-0.495183
H185	H	1.316705	0.396628	-1.070766
H186	H	1.566705	0.646628	-0.820766
H187	H	1.816705	0.896628	-0.570766
H188	H	2.066705	1.146628	-0.320766
