data_functionalizedCrystal
_audit_creation_method	'MofGen! by Chris Wilmer'
_symmetry_space_group_name_H-M	'P1'
_symmetry_Int_Tables_number	1
_symmetry_cell_setting	triclinic
loop_
_symmetry_equiv_pos_as_xyz
  x,y,z
_cell_length_a	19.851628
_cell_length_b	16.704579
_cell_length_c	16.704494
_cell_angle_alpha	66.028929
_cell_angle_beta	90.000382
_cell_angle_gamma	62.463991
loop_
_atom_site_label
_atom_site_type_symbol
_atom_site_fract_x
_atom_site_fract_y
_atom_site_fract_z
Zr1	Zr	0.700569	0.814861	-0.043855
O2	O	0.606723	0.960211	-0.155684
O3	O	0.723008	0.661337	-0.017110
O4	O	0.738121	0.803091	-0.166561
O5	O	0.586890	0.830591	0.120229
O6	O	0.848971	0.803105	-0.166567
O7	O	0.591610	0.818457	-0.006234
O8	O	0.821936	0.549532	0.100773
O9	O	0.613924	1.084164	-0.147110
O10	O	0.822952	0.727521	0.003398
O11	O	0.736703	0.736567	0.097780
O12	O	0.754497	0.903464	-0.078179
O13	O	0.668248	0.912510	0.016204
Zr14	Zr	0.869834	0.834236	0.157829
Zr15	Zr	0.877362	0.814883	-0.043864
Zr16	Zr	0.693041	0.834214	0.157839
Zr17	Zr	0.712055	1.012551	-0.030181
Zr18	Zr	0.858349	0.636546	0.144155
O19	O	0.847396	0.987760	0.131085
O20	O	0.858100	0.960242	-0.155698
O21	O	0.596019	0.987729	0.131098
O22	O	0.963680	0.688886	0.269658
O23	O	0.974384	0.661368	-0.017124
O24	O	0.712304	0.688854	0.269672
O25	O	0.983513	0.818506	-0.006255
O26	O	0.832283	0.846006	0.280535
O27	O	0.721433	0.845992	0.280541
O28	O	0.978793	0.830640	0.120208
O29	O	0.754451	1.084181	-0.147118
O30	O	0.815952	0.564916	0.261092
O31	O	0.956479	0.564933	0.261085
O32	O	0.962463	0.549550	0.100765
O33	O	0.607941	1.099547	0.013209
O34	O	0.748467	1.099565	0.013202
O35	O	0.815907	0.745633	0.192153
O36	O	0.902155	0.736587	0.097771
O37	O	0.833700	0.912530	0.016195
O38	O	0.747452	0.921576	0.110577
C39	C	0.770836	0.577268	0.039883
C40	C	0.765960	0.493343	0.034078
C41	C	0.704590	0.436662	-0.039063
C42	C	0.709168	0.515514	-0.033598
C43	C	0.818175	0.392311	0.096295
C44	C	0.813597	0.313459	0.090830
C45	C	0.756803	0.335640	0.023148
C46	C	0.752228	0.256786	0.017679
C47	C	0.861231	0.133585	0.147576
C48	C	0.865810	0.212437	0.153041
C49	C	0.564061	0.824521	0.056999
C50	C	0.489008	0.824511	0.057003
C51	C	0.344968	0.728602	0.101472
C52	C	0.279057	0.782603	0.142260
C53	C	0.351578	0.824538	0.056993
C54	C	0.283754	0.770534	0.016237
C55	C	0.218831	0.824556	0.056984
C56	C	0.286653	0.878544	0.097833
C57	C	0.291362	0.866456	-0.028240
C58	C	0.225443	0.920528	0.012530
C59	C	0.428052	0.824525	0.057001
C60	C	0.142356	0.824577	0.056978
C61	C	1.006343	0.824576	0.056975
C62	C	1.081396	0.824586	0.056971
C63	C	0.794618	0.800341	-0.195301
C64	C	0.797814	0.792125	-0.280925
C65	C	0.799568	1.071829	0.074092
C66	C	0.804444	1.155754	0.079897
C67	C	0.732359	0.960387	-0.526997
C68	C	0.735360	0.952672	-0.607450
C69	C	0.806822	0.768981	-0.522288
C70	C	0.803821	0.776696	-0.441834
C71	C	0.766587	0.872402	-0.444193
C72	C	0.763581	0.880116	-0.363737
C73	C	0.835048	0.696426	-0.278577
C74	C	0.838049	0.688711	-0.359031
C75	C	0.775785	0.848756	0.309275
C76	C	0.772589	0.856972	0.394899
C77	C	0.991976	0.577296	0.039871
C78	C	1.062154	0.493380	0.034062
C79	C	0.761419	0.601476	0.292171
C80	C	0.753347	0.525767	0.371990
C81	C	0.982560	0.601504	0.292159
C82	C	1.049541	0.525804	0.371974
C83	C	0.587844	1.047593	-0.178184
C84	C	0.520862	1.123293	-0.257999
C85	C	0.578427	1.071801	0.074104
C86	C	0.508250	1.155717	0.079913
C87	C	0.808984	1.047621	-0.178196
C88	C	0.817056	1.123330	-0.258016
C89	C	1.053767	0.449239	-0.017937
C90	C	1.119701	0.370401	-0.023413
C91	C	1.194020	0.335700	0.023115
C92	C	1.202406	0.379849	0.075115
C93	C	1.136473	0.458691	0.080586
C94	C	0.790900	0.494947	0.458744
C95	C	0.783313	0.423822	0.533751
C96	C	0.738178	0.383513	0.522002
C97	C	0.700621	0.414341	0.435239
C98	C	0.708203	0.485470	0.360234
C99	C	1.126025	0.485533	0.360189
C100	C	1.188969	0.414416	0.435177
C101	C	1.175427	0.383565	0.521948
C102	C	1.098936	0.423844	0.533732
C103	C	1.035994	0.494965	0.458745
C104	C	0.444379	1.163573	-0.246214
C105	C	0.381437	1.234715	-0.321200
C106	C	0.394978	1.265570	-0.407971
C107	C	0.471469	1.225286	-0.419755
C108	C	0.534411	1.154151	-0.344769
C109	C	0.516637	1.199865	0.131903
C110	C	0.450706	1.278723	0.137359
C111	C	0.376387	1.313426	0.090828
C112	C	0.368000	1.269274	0.038832
C113	C	0.433932	1.190422	0.033371
C114	C	0.862197	1.163616	-0.246238
C115	C	0.869797	1.234743	-0.321229
C116	C	0.832250	1.265587	-0.407998
C117	C	0.787107	1.225293	-0.419774
C118	C	0.779513	1.154163	-0.344784
H119	H	0.666646	0.597770	-0.084252
C120	C	0.972022	0.487400	-0.069132
N121	N	0.910453	0.516142	-0.107700
C122	C	0.666898	0.519352	0.264804
N123	N	0.635786	0.544867	0.192927
H124	H	0.705986	0.274850	-0.037434
C125	C	1.284164	0.341659	0.126299
N126	N	1.345746	0.312886	0.164855
H127	H	1.251246	0.381627	0.425567
C128	C	0.691398	1.065663	-0.529589
N129	N	0.660545	1.144959	-0.531544
C130	C	0.697696	1.049462	-0.698535
N131	N	0.669322	1.122369	-0.767141
C132	C	0.618541	1.109837	-0.357749
N133	N	0.681907	1.076461	-0.367533
C134	C	0.650978	0.369985	0.422329
N135	N	0.613591	0.336569	0.412607
C136	C	0.459947	1.327268	0.194568
N137	N	0.466910	1.363829	0.237660
C138	C	0.303867	1.400162	0.096849
N139	N	0.249247	1.465489	0.101390
C140	C	0.286240	1.307446	-0.012333
N141	N	0.224656	1.336193	-0.050862
C142	C	0.951862	0.539254	0.471723
N143	N	0.888495	0.572610	0.481505
C144	C	0.424691	1.141856	-0.023813
N145	N	0.417725	1.105278	-0.066886
H146	H	0.319160	1.267502	-0.311588
C147	C	0.903512	1.129696	-0.150799
N148	N	0.934637	1.104146	-0.078916
C149	C	1.145711	0.507228	0.137801
N150	N	1.152675	0.543782	0.180899
H151	H	1.087921	0.398715	0.604391
C152	C	0.928285	0.188051	0.227482
N153	N	0.975346	0.169681	0.283549
H154	H	0.903745	0.051320	0.198235
C155	C	0.486352	1.259227	-0.515212
N156	N	0.497559	1.284787	-0.587113
C157	C	1.110458	0.321843	-0.080609
N158	N	1.103494	0.285269	-0.123687
H159	H	0.906555	1.267544	-0.311623
H160	H	0.577146	1.171617	0.169801
H161	H	0.297339	0.901854	-0.100305
H162	H	0.838440	1.323508	-0.469052
C163	C	0.729852	0.305260	0.604518
N164	N	0.723589	0.246315	0.666673
H165	H	1.226686	0.325653	0.583000
C166	C	0.879000	0.583440	-0.356449
N167	N	0.909841	0.504148	-0.354502
C168	C	0.745841	1.259195	-0.515230
N169	N	0.714769	1.284722	-0.587131
H170	H	1.247700	0.271501	0.018653
H171	H	0.827653	0.527759	0.468328
H172	H	0.733260	0.958045	-0.365661
H173	H	0.742751	1.121369	-0.354386
H174	H	0.658351	0.454723	-0.094179
C175	C	0.289214	0.940187	0.144513
N176	N	0.291146	0.986611	0.179676
C177	C	0.880647	0.367932	0.170736
N178	N	0.927704	0.349570	0.226802
H179	H	0.813901	0.398731	0.604390
H180	H	0.396220	0.647490	0.139143
H181	H	1.137066	0.510640	0.289542
C182	C	0.156332	1.030208	-0.038275
N183	N	0.104277	1.112820	-0.076540
H184	H	0.273107	0.747169	0.214338
H185	H	0.281792	0.724858	-0.018229
H186	H	0.837146	0.691062	-0.520385
H187	H	0.343721	1.323493	-0.469022
H188	H	0.862915	0.624782	-0.211146
H189	H	0.433338	1.138455	-0.175568
