data_functionalizedCrystal
_audit_creation_method	'MofGen! by Chris Wilmer'
_symmetry_space_group_name_H-M	'P1'
_symmetry_Int_Tables_number	1
_symmetry_cell_setting	triclinic
loop_
_symmetry_equiv_pos_as_xyz
  x,y,z
_cell_length_a	12.759401
_cell_length_b	15.297327
_cell_length_c	12.759393
_cell_angle_alpha	99.641342
_cell_angle_beta	89.982620
_cell_angle_gamma	99.706546
loop_
_atom_site_label
_atom_site_type_symbol
_atom_site_fract_x
_atom_site_fract_y
_atom_site_fract_z
Zn1	Zn	1.533786	-0.359100	-0.666296
Zn2	Zn	1.503239	-0.509988	-0.521002
Zn3	Zn	1.358082	-0.359148	-0.490645
Zn4	Zn	1.327646	-0.509918	-0.696629
O5	O	1.430688	-0.434539	-0.593643
O6	O	1.676753	-0.379125	-0.647032
O7	O	1.483937	-0.490028	-0.369964
O8	O	1.406912	-0.232897	-0.488547
O9	O	1.654310	-0.489982	-0.540285
O10	O	1.536001	-0.232862	-0.617597
O11	O	1.377291	-0.379207	-0.347661
O12	O	1.207026	-0.379139	-0.517960
O13	O	1.355037	-0.489863	-0.839617
O14	O	1.184664	-0.489909	-0.669295
O15	O	1.506488	-0.379057	-0.817331
O16	O	1.454424	-0.636224	-0.569698
O17	O	1.325417	-0.636172	-0.698730
C18	C	1.157724	-0.434522	-0.593625
C19	C	1.040945	-0.434537	-0.593647
C20	C	0.974448	-0.492307	-0.672355
C21	C	0.864722	-0.492319	-0.672369
C22	C	0.887999	-0.376787	-0.514957
C23	C	0.997724	-0.376771	-0.514949
C24	C	1.017669	-0.550072	-0.751053
C25	C	0.951171	-0.607848	-0.829767
C26	C	0.841444	-0.607860	-0.829781
C27	C	0.798216	-0.550095	-0.751081
C28	C	1.383331	-0.668932	-0.640823
C29	C	1.363168	-0.769206	-0.661041
C30	C	1.575233	-1.051845	-0.449495
C31	C	1.594176	-0.957632	-0.430493
C32	C	1.536426	-0.910521	-0.488128
C33	C	1.459728	-0.957632	-0.564769
C34	C	1.440776	-1.051854	-0.583767
C35	C	1.401970	-0.910530	-0.622401
C36	C	1.325272	-0.957641	-0.699041
C37	C	1.306324	-1.051854	-0.718036
C38	C	1.364075	-1.098965	-0.660401
C39	C	1.420922	-0.816308	-0.603403
C40	C	1.286466	-0.816317	-0.737675
C41	C	1.267522	-0.910530	-0.756677
C42	C	1.704718	-0.434556	-0.593661
C43	C	1.821493	-0.434563	-0.593669
C44	C	1.430775	-0.434447	-0.867658
C45	C	1.430812	-0.434408	-0.984427
C46	C	1.478259	-0.199230	-0.546302
C47	C	1.498531	-0.098956	-0.526128
C48	C	1.375312	-0.376692	-1.027680
C49	C	1.375349	-0.376665	-1.137398
C50	C	1.486395	-0.492072	-1.160602
C51	C	1.486351	-0.492103	-1.050886
C52	C	1.319773	-0.318997	-0.961220
C53	C	1.264270	-0.261276	-1.004472
C54	C	1.264307	-0.261250	-1.114191
C55	C	1.319848	-0.318944	-1.180658
C56	C	1.430675	-0.434565	-0.320681
C57	C	1.430893	-0.434350	-0.203862
H58	H	1.551854	-0.833809	-0.472651
C59	C	0.997936	-0.670703	-0.915181
C60	C	0.953196	-0.759942	-0.910117
C61	C	0.996237	-0.817868	-0.988795
H62	H	1.072799	-0.662548	-0.903994
H63	H	0.982599	-0.657626	-0.983184
H64	H	0.968541	-0.773015	-0.842130
H65	H	0.878337	-0.768126	-0.921316
H66	H	0.980900	-0.804791	-1.056798
H67	H	1.071098	-0.809705	-0.977601
H68	H	0.965880	-0.878423	-0.985376
H69	H	1.219105	-0.214257	-1.149404
H70	H	0.708870	-0.550102	-0.751106
H71	H	1.656622	-0.919278	-0.368092
C72	C	1.546722	-0.554799	-1.232591
C73	C	1.595298	-0.605368	-1.171231
C74	C	1.650873	-0.663168	-1.237511
H75	H	1.599565	-0.520378	-1.268472
H76	H	1.498618	-0.594140	-1.283287
H77	H	1.643398	-0.566032	-1.120555
H78	H	1.542479	-0.639807	-1.135352
H79	H	1.602769	-0.702509	-1.288206
H80	H	1.703710	-0.628740	-1.273388
H81	H	1.683830	-0.697491	-1.195889
H82	H	0.852793	-0.329759	-0.450883
H83	H	1.319870	-0.318919	-1.269998
H84	H	1.051869	-0.329723	-0.450864
H85	H	1.483370	-0.777959	-0.541001
C86	C	1.546409	-0.554874	-1.003880
C87	C	1.475194	-0.612720	-0.952547
C88	C	1.530474	-0.670568	-0.909243
H89	H	1.599143	-0.520484	-0.954071
H90	H	1.579471	-0.589281	-1.059146
H91	H	1.442149	-0.578316	-0.897287
H92	H	1.422459	-0.647130	-1.002334
H93	H	1.563536	-0.704976	-0.964509
H94	H	1.583205	-0.636171	-0.859438
H95	H	1.482162	-0.709829	-0.874417
H96	H	1.205073	-0.948901	-0.819078
H97	H	0.787305	-0.654897	-0.893879
C98	C	1.136779	-0.550161	-0.751252
C99	C	1.160404	-0.613097	-0.837031
C100	C	1.270118	-0.613195	-0.837253
H101	H	1.158562	-0.565718	-0.686613
H102	H	1.173396	-0.491976	-0.757876
H103	H	1.123800	-0.671269	-0.830399
H104	H	1.138648	-0.597554	-0.901683
H105	H	1.306735	-0.555010	-0.843876
H106	H	1.291890	-0.628750	-0.772610
H107	H	1.286163	-0.655890	-0.895457
H108	H	1.622238	-1.090211	-0.402570
C109	C	1.343397	-1.201257	-0.681232
C110	C	1.263885	-1.232435	-0.760701
C111	C	1.244826	-1.326662	-0.779932
H112	H	1.320912	-1.222753	-0.617818
H113	H	1.406893	-1.222531	-0.703805
H114	H	1.200402	-1.211170	-0.738124
H115	H	1.286349	-1.210965	-0.824131
H116	H	1.308322	-1.347936	-0.802505
H117	H	1.222344	-1.348148	-0.716512
H118	H	1.190883	-1.347828	-0.833859
C119	C	1.223038	-1.102842	-0.801320
C120	C	1.176537	-1.041424	-0.847749
C121	C	1.099820	-1.088359	-0.924482
H122	H	1.169786	-1.139657	-0.768630
H123	H	1.255803	-1.139519	-0.854581
H124	H	1.143772	-1.004762	-0.794496
H125	H	1.229762	-1.004606	-0.880459
H126	H	1.132585	-1.125036	-0.977744
H127	H	1.046574	-1.125172	-0.891784
H128	H	1.068266	-1.046694	-0.956001
H129	H	1.239438	-0.777960	-0.784605
H130	H	1.319739	-0.319011	-0.871880
H131	H	1.219044	-0.214309	-0.950349
