data_functionalizedCrystal
_audit_creation_method	'MofGen! by Chris Wilmer'
_symmetry_space_group_name_H-M	'P1'
_symmetry_Int_Tables_number	1
_symmetry_cell_setting	triclinic
loop_
_symmetry_equiv_pos_as_xyz
  x,y,z
_cell_length_a	14.519709
_cell_length_b	14.519731
_cell_length_c	9.730217
_cell_angle_alpha	89.995761
_cell_angle_beta	90.004205
_cell_angle_gamma	83.684499
loop_
_atom_site_label
_atom_site_type_symbol
_atom_site_fract_x
_atom_site_fract_y
_atom_site_fract_z
O1	O	1.223873	0.120888	-0.114114
O2	O	0.955397	0.135125	-0.114157
O3	O	1.096743	-0.006230	-0.114122
O4	O	1.082527	0.262244	-0.114149
O5	O	1.096739	-0.006232	0.114458
O6	O	0.955393	0.135124	0.114424
O7	O	1.223868	0.120887	0.114466
Zn8	Zn	1.089630	0.128005	0.150737
Zn9	Zn	1.089636	0.128007	-0.150427
O10	O	1.082523	0.262243	0.114431
C11	C	0.921035	0.134461	0.000128
C12	C	0.818654	0.132473	0.000112
C13	C	1.096075	-0.040591	0.000169
C14	C	1.094079	-0.142971	0.000169
C15	C	0.443757	0.125153	0.000176
C16	C	0.548065	0.127186	0.000158
C17	C	0.631202	0.128813	0.000143
C18	C	0.735517	0.130846	0.000127
C19	C	1.092457	-0.226115	0.000166
C20	C	1.090430	-0.330424	0.000155
C21	C	1.088822	-0.413563	0.000146
C22	C	1.086795	-0.517878	0.000137
C23	C	1.258230	0.121551	0.000178
C24	C	1.360612	0.123539	0.000185
C25	C	1.083191	0.296603	0.000138
C26	C	1.085187	0.398983	0.000128
N27	N	1.089633	0.128003	0.356273
N28	N	1.089640	0.128001	-0.355964
C29	C	1.214845	0.002869	0.356295
C30	C	1.277458	-0.059695	0.428245
C31	C	1.277467	-0.059695	0.572125
C32	C	1.214856	0.002873	0.644058
C33	C	1.152243	0.065438	0.572107
C34	C	1.152242	0.065433	0.428224
C35	C	1.027027	0.190566	0.572086
C36	C	1.027021	0.190572	0.428206
C37	C	0.964416	0.253134	0.644018
C38	C	0.901806	0.315705	0.572067
C39	C	0.901800	0.315703	0.428179
C40	C	0.964408	0.253136	0.356255
H41	H	1.214852	0.002871	0.239140
C42	C	1.346331	-0.128517	0.349122
C43	C	1.346353	-0.128505	0.190860
C44	C	1.415225	-0.197329	0.111744
C45	C	1.484075	-0.266166	0.190892
C46	C	1.484056	-0.266181	0.349164
C47	C	1.415184	-0.197357	0.428279
H48	H	1.295384	-0.077545	0.132262
H49	H	1.415239	-0.197317	-0.005419
H50	H	1.535058	-0.317114	0.132326
H51	H	1.535025	-0.317141	0.407761
H52	H	1.415170	-0.197369	0.545442
H53	H	0.850828	0.366639	0.630644
H54	H	1.214860	0.002861	0.761212
H55	H	1.328449	-0.110644	0.630708
H56	H	0.964422	0.253127	0.761173
H57	H	0.850810	0.366647	0.369604
H58	H	0.964412	0.253133	0.239101
