data_functionalizedCrystal
_audit_creation_method	'MofGen! by Chris Wilmer'
_symmetry_space_group_name_H-M	'P1'
_symmetry_Int_Tables_number	1
_symmetry_cell_setting	triclinic
loop_
_symmetry_equiv_pos_as_xyz
  x,y,z
_cell_length_a	12.827893
_cell_length_b	13.897447
_cell_length_c	12.827885
_cell_angle_alpha	89.968996
_cell_angle_beta	89.980728
_cell_angle_gamma	90.019691
loop_
_atom_site_label
_atom_site_type_symbol
_atom_site_fract_x
_atom_site_fract_y
_atom_site_fract_z
Zn1	Zn	1.597640	-0.383964	-0.590840
Zn2	Zn	1.597521	-0.545290	-0.416096
Zn3	Zn	1.422881	-0.384012	-0.416113
Zn4	Zn	1.422854	-0.545219	-0.590796
O5	O	1.510224	-0.464621	-0.503462
O6	O	1.743860	-0.405374	-0.567671
O7	O	1.574316	-0.523946	-0.269863
O8	O	1.446124	-0.249024	-0.439317
O9	O	1.743773	-0.523900	-0.439288
O10	O	1.574518	-0.248989	-0.567687
O11	O	1.446009	-0.405455	-0.269875
O12	O	1.276641	-0.405386	-0.439274
O13	O	1.446077	-0.523779	-0.737038
O14	O	1.276621	-0.523825	-0.567613
O15	O	1.574492	-0.405305	-0.737070
O16	O	1.574290	-0.680263	-0.439245
O17	O	1.445963	-0.680210	-0.567597
C18	C	1.238714	-0.464604	-0.503442
C19	C	1.122561	-0.464619	-0.503458
C20	C	0.950689	-0.523194	-0.439864
C21	C	1.070739	-0.523179	-0.439846
C22	C	1.510139	-0.715236	-0.503437
C23	C	1.510198	-0.822450	-0.503462
C24	C	1.510249	-0.909519	-0.503486
C25	C	1.510322	-1.018752	-0.503513
C26	C	1.782794	-0.464640	-0.503482
C27	C	1.898947	-0.464648	-0.503491
C28	C	1.510295	-0.464529	-0.776032
C29	C	1.510325	-0.464489	-0.892185
C30	C	1.510338	-0.213028	-0.503509
C31	C	1.510386	-0.105814	-0.503529
C32	C	1.446835	-0.523048	-1.063998
C33	C	1.446802	-0.523090	-0.943948
C34	C	1.510213	-0.464644	-0.231952
C35	C	1.510385	-0.464412	-0.115799
H36	H	1.392448	-0.573214	-1.108527
H37	H	1.115236	-0.573308	-0.385378
H38	H	1.078071	-0.414496	-0.557938
H39	H	1.392398	-0.573294	-0.899401
O40	O	0.891646	-0.589602	-0.367718
H41	H	0.947810	-0.632480	-0.321100
O42	O	0.957979	-0.398228	-0.575632
H43	H	1.007719	-0.441490	-0.628674
O44	O	1.582383	-0.397974	-0.951186
H45	H	1.635495	-0.441165	-1.000924
O46	O	1.582435	-0.397960	-1.056827
H47	H	1.535631	-0.348943	-1.007096
