data_functionalizedCrystal
_audit_creation_method	'MofGen! by Chris Wilmer'
_symmetry_space_group_name_H-M	'P1'
_symmetry_Int_Tables_number	1
_symmetry_cell_setting	triclinic
loop_
_symmetry_equiv_pos_as_xyz
  x,y,z
_cell_length_a	15.995350
_cell_length_b	9.065218
_cell_length_c	8.140239
_cell_angle_alpha	90.001686
_cell_angle_beta	89.999075
_cell_angle_gamma	84.254130
loop_
_atom_site_label
_atom_site_type_symbol
_atom_site_fract_x
_atom_site_fract_y
_atom_site_fract_z
O1	O	-1.112426	-0.190160	-0.136467
O2	O	-0.612426	0.309840	0.363533
O3	O	-0.868828	-0.213642	-0.136500
O4	O	-0.368828	0.286358	0.363500
O5	O	-0.995662	0.012860	-0.136480
O6	O	-0.495662	0.512860	0.363520
O7	O	-0.985592	-0.416662	-0.136488
O8	O	-0.485592	0.083338	0.363512
O9	O	-0.995655	0.012862	0.136747
O10	O	-0.495655	0.512862	0.636747
O11	O	-0.868821	-0.213640	0.136727
O12	O	-0.368821	0.286360	0.636727
O13	O	-1.112419	-0.190157	0.136760
O14	O	-0.612419	0.309843	0.636760
Zn15	Zn	-0.990619	-0.201898	0.180124
Zn16	Zn	-0.490619	0.298102	0.680124
Zn17	Zn	-0.990628	-0.201902	-0.179865
Zn18	Zn	-0.490628	0.298098	0.320135
O19	O	-0.985585	-0.416660	0.136739
O20	O	-0.485585	0.083340	0.636739
C21	C	-0.837623	-0.212670	0.000109
C22	C	-0.337623	0.287330	0.500109
C23	C	-0.744650	-0.209760	0.000096
C24	C	-0.244650	0.290240	0.500096
C25	C	-0.994691	0.067825	0.000131
C26	C	-0.494691	0.567825	0.500131
C27	C	-0.991797	0.231600	0.000123
C28	C	-0.491797	0.731600	0.500123
C29	C	-1.143624	-0.191129	0.000147
C30	C	-0.643624	0.308871	0.500147
C31	C	-1.236597	-0.194040	0.000149
C32	C	-0.736597	0.305960	0.500149
C33	C	-0.406824	-0.199308	0.000130
C34	C	0.093176	0.300692	0.500130
C35	C	-0.453034	-0.037997	0.000743
C36	C	0.046966	0.462003	0.500743
C37	C	-0.549747	-0.040908	0.000116
C38	C	-0.049747	0.459092	0.500116
C39	C	-0.574423	-0.204492	0.000114
C40	C	-0.074423	0.295508	0.500114
C41	C	-0.533944	-0.284058	-0.155907
C42	C	-0.033944	0.215942	0.344093
C43	C	-0.437277	-0.280005	-0.156026
C44	C	0.062723	0.219995	0.343974
C45	C	-0.436956	-0.283335	0.154684
C46	C	0.063044	0.216665	0.654684
C47	C	-0.533901	-0.283297	0.156735
C48	C	-0.033901	0.216703	0.656735
C49	C	-0.669143	-0.207431	0.000100
C50	C	-0.169143	0.292569	0.500100
C51	C	-0.312103	-0.196374	0.000134
C52	C	0.187897	0.303626	0.500134
C53	C	-0.986556	-0.471625	0.000125
C54	C	-0.486556	0.028375	0.500125
C55	C	-0.989450	-0.635400	0.000122
C56	C	-0.489450	-0.135400	0.500122
N57	N	-0.990619	-0.201895	0.425806
N58	N	-0.490619	0.298105	0.925806
N59	N	-0.990635	-0.201893	-0.425547
N60	N	-0.490635	0.298107	0.074453
H61	H	-0.577698	0.021634	0.111958
H62	H	-0.077698	0.521634	0.611958
H63	H	-0.434020	0.026484	0.112632
H64	H	0.065980	0.526484	0.612632
H65	H	-0.432957	0.026185	-0.110527
H66	H	0.067043	0.526185	0.389473
H67	H	-0.577130	0.022055	-0.111919
H68	H	-0.077130	0.522055	0.388081
H69	H	-0.405927	-0.398437	-0.163107
H70	H	0.094073	0.101563	0.336893
H71	H	-0.406096	-0.402268	0.155739
H72	H	0.093904	0.097732	0.655739
Cl73	Cl	-0.408332	-0.190424	-0.336088
Cl74	Cl	0.091668	0.309576	0.163912
Cl75	Cl	-0.557183	-0.469594	-0.164908
Cl76	Cl	-0.057183	0.030406	0.335092
Cl77	Cl	-0.577104	-0.198742	-0.335182
Cl78	Cl	-0.077104	0.301258	0.164818
H79	H	-0.416017	-0.230598	0.272945
H80	H	0.083983	0.269402	0.772945
H81	H	-0.550170	-0.402588	0.166158
H82	H	-0.050170	0.097412	0.666158
H83	H	-0.560774	-0.225215	0.272159
H84	H	-0.060774	0.274785	0.772159
