data_functionalizedCrystal
_audit_creation_method	'MofGen! by Chris Wilmer'
_symmetry_space_group_name_H-M	'P1'
_symmetry_Int_Tables_number	1
_symmetry_cell_setting	triclinic
loop_
_symmetry_equiv_pos_as_xyz
  x,y,z
_cell_length_a	15.944545
_cell_length_b	15.944564
_cell_length_c	15.021413
_cell_angle_alpha	89.997162
_cell_angle_beta	89.995468
_cell_angle_gamma	96.499946
loop_
_atom_site_label
_atom_site_type_symbol
_atom_site_fract_x
_atom_site_fract_y
_atom_site_fract_z
O1	O	1.114537	-0.108295	-0.073977
O2	O	1.364537	0.141705	0.176023
O3	O	1.614537	0.391705	0.426023
O4	O	1.864537	0.641705	0.676023
O5	O	0.869987	-0.121657	-0.073992
O6	O	1.119987	0.128343	0.176008
O7	O	1.369987	0.378343	0.426008
O8	O	1.619987	0.628343	0.676008
O9	O	0.998935	0.007298	-0.073975
O10	O	1.248935	0.257298	0.176025
O11	O	1.498935	0.507298	0.426025
O12	O	1.748935	0.757298	0.676025
O13	O	0.985590	-0.237250	-0.073993
O14	O	1.235590	0.012750	0.176007
O15	O	1.485590	0.262750	0.426007
O16	O	1.735590	0.512750	0.676007
O17	O	0.998914	0.007280	0.074089
O18	O	1.248914	0.257280	0.324089
O19	O	1.498914	0.507280	0.574089
O20	O	1.748914	0.757280	0.824089
O21	O	0.869967	-0.121675	0.074073
O22	O	1.119967	0.128325	0.324073
O23	O	1.369967	0.378325	0.574073
O24	O	1.619967	0.628325	0.824073
O25	O	1.114517	-0.108314	0.074087
O26	O	1.364517	0.141686	0.324087
O27	O	1.614517	0.391686	0.574087
O28	O	1.864517	0.641686	0.824087
Zn29	Zn	0.992238	-0.114997	0.097588
Zn30	Zn	1.242238	0.135003	0.347588
Zn31	Zn	1.492238	0.385003	0.597588
Zn32	Zn	1.742238	0.635003	0.847588
Zn33	Zn	0.992265	-0.114973	-0.097493
Zn34	Zn	1.242265	0.135027	0.152507
Zn35	Zn	1.492265	0.385027	0.402507
Zn36	Zn	1.742265	0.635027	0.652507
O37	O	0.985569	-0.237269	0.074071
O38	O	1.235569	0.012731	0.324071
O39	O	1.485569	0.262731	0.574071
O40	O	1.735569	0.512731	0.824071
C41	C	0.838683	-0.121112	0.000039
C42	C	1.088683	0.128888	0.250039
C43	C	1.338683	0.378888	0.500039
C44	C	1.588683	0.628888	0.750039
C45	C	0.745437	-0.119452	0.000033
C46	C	0.995437	0.130548	0.250033
C47	C	1.245437	0.380548	0.500033
C48	C	1.495437	0.630548	0.750033
C49	C	0.474800	-0.034559	0.000049
C50	C	0.724800	0.215441	0.250049
C51	C	0.974800	0.465441	0.500049
C52	C	1.224800	0.715441	0.750049
C53	C	0.525373	-0.075497	0.073052
C54	C	0.775373	0.174503	0.323052
C55	C	1.025373	0.424503	0.573052
C56	C	1.275373	0.674503	0.823052
C57	C	0.409793	-0.113531	0.000049
C58	C	0.659793	0.136469	0.250049
C59	C	0.909793	0.386469	0.500049
C60	C	1.159793	0.636469	0.750049
C61	C	0.525374	-0.075500	-0.072928
C62	C	0.775374	0.174500	0.177072
C63	C	1.025374	0.424500	0.427072
C64	C	1.275374	0.674500	0.677072
C65	C	0.574706	-0.116436	0.000040
C66	C	0.824706	0.133564	0.250040
C67	C	1.074706	0.383564	0.500040
C68	C	1.324706	0.633564	0.750040
C69	C	0.459138	-0.154448	0.073112
C70	C	0.709138	0.095552	0.323112
C71	C	0.959138	0.345552	0.573112
C72	C	1.209138	0.595552	0.823112
C73	C	0.459135	-0.154439	-0.072933
C74	C	0.709135	0.095561	0.177067
C75	C	0.959135	0.345561	0.427067
C76	C	1.209135	0.595561	0.677067
C77	C	0.509676	-0.195435	0.000087
C78	C	0.759676	0.054565	0.250087
C79	C	1.009676	0.304565	0.500087
C80	C	1.259676	0.554565	0.750087
C81	C	0.314790	-0.111856	0.000055
C82	C	0.564790	0.138144	0.250055
C83	C	0.814790	0.388144	0.500055
C84	C	1.064790	0.638144	0.750055
C85	C	0.669706	-0.118118	0.000040
C86	C	0.919706	0.131882	0.250040
C87	C	1.169706	0.381882	0.500040
C88	C	1.419706	0.631882	0.750040
C89	C	0.998369	0.038583	0.000057
C90	C	1.248369	0.288583	0.250057
C91	C	1.498369	0.538583	0.500057
C92	C	1.748369	0.788583	0.750057
C93	C	0.996702	0.131828	0.000058
C94	C	1.246702	0.381828	0.250058
C95	C	1.496702	0.631828	0.500058
C96	C	1.746702	0.881828	0.750058
C97	C	1.145821	-0.108858	0.000055
C98	C	1.395821	0.141142	0.250055
C99	C	1.645821	0.391142	0.500055
C100	C	1.895821	0.641142	0.750055
C101	C	1.239067	-0.110518	0.000055
C102	C	1.489067	0.139482	0.250055
C103	C	1.739067	0.389482	0.500055
C104	C	1.989067	0.639482	0.750055
C105	C	0.912788	0.346682	0.000042
C106	C	1.162788	0.596682	0.250042
C107	C	1.412788	0.846682	0.500042
C108	C	1.662788	1.096682	0.750042
C109	C	0.951737	0.407691	0.073049
C110	C	1.201737	0.657691	0.323049
C111	C	1.451737	0.907691	0.573049
C112	C	1.701737	1.157691	0.823049
C113	C	0.993687	0.302553	0.000052
C114	C	1.243687	0.552553	0.250052
C115	C	1.493687	0.802553	0.500052
C116	C	1.743687	1.052553	0.750052
C117	C	0.951777	0.407692	-0.072931
C118	C	1.201777	0.657692	0.177069
C119	C	1.451777	0.907692	0.427069
C120	C	1.701777	1.157692	0.677069
C121	C	0.990769	0.467465	0.000042
C122	C	1.240769	0.717465	0.250042
C123	C	1.490769	0.967465	0.500042
C124	C	1.740769	1.217465	0.750042
C125	C	1.032659	0.362334	0.073119
C126	C	1.282659	0.612334	0.323119
C127	C	1.532659	0.862334	0.573119
C128	C	1.782659	1.112334	0.823119
C129	C	1.032687	0.362329	-0.072926
C130	C	1.282687	0.612329	0.177074
C131	C	1.532687	0.862329	0.427074
C132	C	1.782687	1.112329	0.677074
C133	C	1.071695	0.423320	0.000099
C134	C	1.321695	0.673320	0.250099
C135	C	1.571695	0.923320	0.500099
C136	C	1.821695	1.173320	0.750099
C137	C	0.995366	0.207551	0.000058
C138	C	1.245366	0.457551	0.250058
C139	C	1.495366	0.707551	0.500058
C140	C	1.745366	0.957551	0.750058
C141	C	0.989096	0.562465	0.000042
C142	C	1.239096	0.812465	0.250042
C143	C	1.489096	1.062465	0.500042
C144	C	1.739096	1.312465	0.750042
N145	N	0.992226	-0.115013	0.230726
N146	N	1.242226	0.134987	0.480726
N147	N	1.492226	0.384987	0.730726
N148	N	1.742226	0.634987	0.980726
C149	C	0.986124	0.731445	0.000038
C150	C	1.236124	0.981445	0.250038
C151	C	1.486124	1.231445	0.500038
C152	C	1.736124	1.481445	0.750038
C153	C	0.987756	0.638195	0.000034
C154	C	1.237756	0.888195	0.250034
C155	C	1.487756	1.138195	0.500034
C156	C	1.737756	1.388195	0.750034
N157	N	0.992284	-0.114950	-0.230630
N158	N	1.242284	0.135050	0.019370
N159	N	1.492284	0.385050	0.269370
N160	N	1.742284	0.635050	0.519370
C161	C	0.932592	-0.174614	0.470402
C162	C	1.182592	0.075386	0.720402
C163	C	1.432592	0.325386	0.970402
C164	C	1.682592	0.575386	1.220402
C165	C	1.008493	-0.190919	0.529739
C166	C	1.258493	0.059081	0.779739
C167	C	1.508493	0.309081	1.029739
C168	C	1.758493	0.559081	1.279739
C169	C	0.992248	-0.114992	0.412333
C170	C	1.242248	0.135008	0.662333
C171	C	1.492248	0.385008	0.912333
C172	C	1.742248	0.635008	1.162333
C173	C	0.916367	-0.098706	0.529737
C174	C	1.166367	0.151294	0.779737
C175	C	1.416367	0.401294	1.029737
C176	C	1.666367	0.651294	1.279737
C177	C	0.992262	-0.114974	0.587757
C178	C	1.242262	0.135026	0.837757
C179	C	1.492262	0.385026	1.087757
C180	C	1.742262	0.635026	1.337757
C181	C	1.068187	-0.131335	0.470364
C182	C	1.318187	0.118665	0.720364
C183	C	1.568187	0.368665	0.970364
C184	C	1.818187	0.618665	1.220364
C185	C	0.976011	-0.039089	0.470356
C186	C	1.226011	0.210911	0.720356
C187	C	1.476011	0.460911	0.970356
C188	C	1.726011	0.710911	1.220356
C189	C	1.051967	-0.055362	0.529667
C190	C	1.301967	0.194638	0.779667
C191	C	1.551967	0.444638	1.029667
C192	C	1.801967	0.694638	1.279667
C193	C	0.992238	-0.115005	0.311276
C194	C	1.242238	0.134995	0.561276
C195	C	1.492238	0.384995	0.811276
C196	C	1.742238	0.634995	1.061276
C197	C	0.992279	-0.114961	0.688812
C198	C	1.242279	0.135039	0.938812
C199	C	1.492279	0.385039	1.188812
C200	C	1.742279	0.635039	1.438812
H201	H	0.525171	-0.263500	0.000125
H202	H	0.775171	-0.013500	0.250125
H203	H	1.025171	0.236500	0.500125
H204	H	1.275171	0.486500	0.750125
H205	H	0.430321	-0.187783	0.134896
H206	H	0.680321	0.062217	0.384896
H207	H	0.930321	0.312217	0.634896
H208	H	1.180321	0.562217	0.884896
H209	H	0.430199	-0.187755	-0.134658
H210	H	0.680199	0.062245	0.115342
H211	H	0.930199	0.312245	0.365342
H212	H	1.180199	0.562245	0.615342
Cl213	Cl	0.570032	-0.023976	-0.168210
Cl214	Cl	0.820032	0.226024	0.081790
Cl215	Cl	1.070032	0.476024	0.331790
Cl216	Cl	1.320032	0.726024	0.581790
Cl217	Cl	0.809119	0.295255	0.000142
Cl218	Cl	1.059119	0.545255	0.250142
Cl219	Cl	1.309119	0.795255	0.500142
Cl220	Cl	1.559119	1.045255	0.750142
H221	H	0.917511	0.427790	0.134766
H222	H	1.167511	0.677790	0.384766
H223	H	1.417511	0.927790	0.634766
H224	H	1.667511	1.177790	0.884766
H225	H	1.066839	0.342336	0.134908
H226	H	1.316839	0.592336	0.384908
H227	H	1.566839	0.842336	0.634908
H228	H	1.816839	1.092336	0.884908
Cl229	Cl	1.175454	0.474521	0.000165
Cl230	Cl	1.425454	0.724521	0.250165
Cl231	Cl	1.675454	0.974521	0.500165
Cl232	Cl	1.925454	1.224521	0.750165
Cl233	Cl	1.085484	0.331258	-0.168219
Cl234	Cl	1.335484	0.581258	0.081781
Cl235	Cl	1.585484	0.831258	0.331781
Cl236	Cl	1.835484	1.081258	0.581781
H237	H	0.917557	0.427776	-0.134657
H238	H	1.167557	0.677776	0.115343
H239	H	1.417557	0.927776	0.365343
H240	H	1.667557	1.177776	0.615343
H241	H	0.882194	-0.225075	0.444380
H242	H	1.132194	0.024925	0.694380
H243	H	1.382194	0.274925	0.944380
H244	H	1.632194	0.524925	1.194380
H245	H	1.022239	-0.255101	0.555823
H246	H	1.272239	-0.005101	0.805823
H247	H	1.522239	0.244899	1.055823
H248	H	1.772239	0.494899	1.305823
Cl249	Cl	0.450623	0.070443	0.000163
Cl250	Cl	0.700623	0.320443	0.250163
Cl251	Cl	0.950623	0.570443	0.500163
Cl252	Cl	1.200623	0.820443	0.750163
Cl253	Cl	1.167295	-0.152707	0.430274
Cl254	Cl	1.417295	0.097293	0.680274
Cl255	Cl	1.667295	0.347293	0.930274
Cl256	Cl	1.917295	0.597293	1.180274
H257	H	1.102477	-0.004931	0.555526
H258	H	1.352477	0.245069	0.805526
H259	H	1.602477	0.495069	1.055526
H260	H	1.852477	0.745069	1.305526
H261	H	0.554294	-0.042152	0.134774
H262	H	0.804294	0.207848	0.384774
H263	H	1.054294	0.457848	0.634774
H264	H	1.304294	0.707848	0.884774
H265	H	0.962242	0.025072	0.444252
H266	H	1.212242	0.275072	0.694252
H267	H	1.462242	0.525072	0.944252
H268	H	1.712242	0.775072	1.194252
H269	H	0.852190	-0.084939	0.555819
H270	H	1.102190	0.165061	0.805819
H271	H	1.352190	0.415061	1.055819
H272	H	1.602190	0.665061	1.305819
