data_functionalizedCrystal
_audit_creation_method	'MofGen! by Chris Wilmer'
_symmetry_space_group_name_H-M	'P1'
_symmetry_Int_Tables_number	1
_symmetry_cell_setting	triclinic
loop_
_symmetry_equiv_pos_as_xyz
  x,y,z
_cell_length_a	10.686220
_cell_length_b	13.032721
_cell_length_c	13.032328
_cell_angle_alpha	103.288501
_cell_angle_beta	100.919786
_cell_angle_gamma	100.973619
loop_
_atom_site_label
_atom_site_type_symbol
_atom_site_fract_x
_atom_site_fract_y
_atom_site_fract_z
Zn1	Zn	1.792164	-0.368522	-0.523920
Zn2	Zn	2.125497	-0.035189	-0.190587
Zn3	Zn	2.458830	0.298144	0.142746
Zn4	Zn	1.792024	-0.523620	-0.368880
Zn5	Zn	2.125357	-0.190286	-0.035547
Zn6	Zn	2.458690	0.143047	0.297787
Zn7	Zn	1.607733	-0.359455	-0.359748
Zn8	Zn	1.941067	-0.026122	-0.026415
Zn9	Zn	2.274400	0.307212	0.306918
Zn10	Zn	1.544911	-0.564091	-0.564383
Zn11	Zn	1.878245	-0.230757	-0.231050
Zn12	Zn	2.211578	0.102576	0.102283
O13	O	1.684208	-0.453922	-0.454233
O14	O	2.017541	-0.120589	-0.120900
O15	O	2.350875	0.212745	0.212434
O16	O	1.972747	-0.375954	-0.490242
O17	O	2.306080	-0.042620	-0.156908
O18	O	2.639414	0.290713	0.176425
O19	O	1.793810	-0.481111	-0.217143
O20	O	2.127143	-0.147778	0.116190
O21	O	2.460476	0.185555	0.449524
O22	O	1.658548	-0.210108	-0.360771
O23	O	1.991882	0.123225	-0.027437
O24	O	2.325215	0.456558	0.305896
O25	O	1.972644	-0.489903	-0.376334
O26	O	2.305977	-0.156570	-0.043001
O27	O	2.639311	0.176763	0.290333
O28	O	1.794049	-0.216770	-0.481387
O29	O	2.127382	0.116563	-0.148054
O30	O	2.460715	0.449897	0.185279
O31	O	1.658412	-0.360500	-0.210434
O32	O	1.991746	-0.027167	0.122899
O33	O	2.325079	0.306167	0.456233
O34	O	1.418798	-0.399743	-0.400006
O35	O	1.752131	-0.066410	-0.066672
O36	O	2.085465	0.266924	0.266661
O37	O	1.551477	-0.558880	-0.709541
O38	O	1.884811	-0.225546	-0.376208
O39	O	2.218144	0.107787	-0.042875
O40	O	1.372643	-0.550088	-0.550350
O41	O	1.705976	-0.216754	-0.217017
O42	O	2.039309	0.116579	0.116316
O43	O	1.733133	-0.415197	-0.679813
O44	O	2.066466	-0.081863	-0.346480
O45	O	2.399799	0.251470	-0.013147
O46	O	1.732894	-0.679538	-0.415569
O47	O	2.066227	-0.346205	-0.082236
O48	O	2.399560	-0.012871	0.251097
O49	O	1.551341	-0.709272	-0.559205
O50	O	1.884675	-0.375938	-0.225871
O51	O	2.218008	-0.042605	0.107462
C52	C	1.348892	-0.478324	-0.478579
C53	C	1.682225	-0.144991	-0.145245
C54	C	2.015559	0.188343	0.188088
C55	C	1.205433	-0.488793	-0.489023
C56	C	1.538767	-0.155459	-0.155690
C57	C	1.872100	0.177874	0.177644
C58	C	1.635316	-0.733441	-0.492790
C59	C	1.968650	-0.400108	-0.159456
C60	C	2.301983	-0.066775	0.173877
C61	C	1.614512	-0.853017	-0.509312
C62	C	1.947845	-0.519684	-0.175978
C63	C	2.281179	-0.186350	0.157355
C64	C	1.695126	-0.891583	-0.445653
C65	C	2.028459	-0.558250	-0.112320
C66	C	2.361793	-0.224917	0.221013
C67	C	1.673626	-1.015171	-0.462728
C68	C	2.006959	-0.681838	-0.129395
C69	C	2.340292	-0.348504	0.203939
C70	C	2.020833	-0.429426	-0.429793
C71	C	2.354166	-0.096092	-0.096460
C72	C	2.687500	0.237241	0.236874
C73	C	2.164283	-0.418987	-0.419378
C74	C	2.497616	-0.085653	-0.086045
C75	C	2.830949	0.247680	0.247289
C76	C	1.635313	-0.492564	-0.734798
C77	C	1.968646	-0.159231	-0.401465
C78	C	2.301980	0.174103	-0.068132
C79	C	1.614477	-0.509031	-0.854359
C80	C	1.947810	-0.175698	-0.521025
C81	C	2.281143	0.157636	-0.187692
C82	C	1.733322	-0.173312	-0.415547
C83	C	2.066655	0.160022	-0.082214
C84	C	2.399988	0.493355	0.251120
C85	C	1.754251	-0.053732	-0.399061
C86	C	2.087584	0.279601	-0.065728
C87	C	2.420918	0.612934	0.267606
C88	C	1.673549	-0.462304	-1.016525
C89	C	2.006882	-0.128971	-0.683192
C90	C	2.340215	0.204362	-0.349858
C91	C	1.695079	-0.445277	-0.892953
C92	C	2.028412	-0.111943	-0.559619
C93	C	2.361745	0.221390	-0.226286
C94	C	1.733001	-0.415347	-0.174743
C95	C	2.066334	-0.082014	0.158590
C96	C	2.399667	0.251320	0.491924
C97	C	1.754140	-0.398559	-0.055123
C98	C	2.087473	-0.065226	0.278210
C99	C	2.420806	0.268108	0.611543
H100	H	1.238802	-0.351215	-0.351761
H101	H	1.572135	-0.017881	-0.018428
H102	H	1.905469	0.315452	0.314905
H103	H	1.130906	-0.556575	-0.556638
H104	H	1.464240	-0.223242	-0.223305
H105	H	1.797573	0.110092	0.110028
F106	F	1.806150	-0.815154	-0.357899
F107	F	2.139483	-0.481821	-0.024565
F108	F	2.472817	-0.148488	0.308768
H109	H	1.588690	-1.073646	-0.529878
H110	H	1.922024	-0.740312	-0.196544
H111	H	2.255357	-0.406979	0.136789
F112	F	1.865154	-0.310741	-0.978745
F113	F	2.198488	0.022592	-0.645411
F114	F	2.531821	0.355925	-0.312078
H115	H	1.839196	-0.995259	-0.331919
H116	H	2.172529	-0.661926	0.001414
H117	H	2.505862	-0.328592	0.334748
F118	F	1.503500	-0.929447	-0.597077
F119	F	1.836833	-0.596113	-0.263744
F120	F	2.170166	-0.262780	0.069590
H121	H	1.588610	-0.529482	-1.074963
H122	H	1.921943	-0.196149	-0.741630
H123	H	2.255276	0.137184	-0.408297
H124	H	1.780016	-0.378087	-0.834517
H125	H	2.113349	-0.044753	-0.501183
H126	H	2.446682	0.288580	-0.167850
H127	H	1.529523	-0.576207	-0.912792
H128	H	1.862856	-0.242874	-0.579459
H129	H	2.196190	0.090460	-0.246126
