data_functionalizedCrystal
_audit_creation_method	'MofGen! by Chris Wilmer'
_symmetry_space_group_name_H-M	'P1'
_symmetry_Int_Tables_number	1
_symmetry_cell_setting	triclinic
loop_
_symmetry_equiv_pos_as_xyz
  x,y,z
_cell_length_a	13.032831
_cell_length_b	13.032721
_cell_length_c	13.033327
_cell_angle_alpha	105.164023
_cell_angle_beta	103.316083
_cell_angle_gamma	89.097115
loop_
_atom_site_label
_atom_site_type_symbol
_atom_site_fract_x
_atom_site_fract_y
_atom_site_fract_z
Zn1	Zn	1.617000	0.734950	0.889167
Zn2	Zn	2.117000	1.234950	1.389167
Zn3	Zn	1.577544	0.884219	0.728371
Zn4	Zn	2.077544	1.384219	1.228371
Zn5	Zn	1.422620	0.684049	0.683334
Zn6	Zn	1.922620	1.184049	1.183334
Zn7	Zn	1.422521	0.884183	0.883406
Zn8	Zn	1.922521	1.384183	1.383406
O9	O	1.509921	0.796850	0.796070
O10	O	2.009921	1.296850	1.296070
O11	O	1.757993	0.776068	0.889097
O12	O	2.257993	1.276068	1.389097
O13	O	1.540522	0.836379	0.571372
O14	O	2.040522	1.336379	1.071372
O15	O	1.464958	0.544574	0.694202
O16	O	1.964958	1.044574	1.194202
O17	O	1.729005	0.885736	0.770961
O18	O	2.229005	1.385736	1.270961
O19	O	1.607768	0.581971	0.845426
O20	O	2.107768	1.081971	1.345426
O21	O	1.426700	0.689315	0.538284
O22	O	1.926700	1.189315	1.038284
O23	O	1.276380	0.689279	0.688614
O24	O	1.776380	1.189279	1.188614
O25	O	1.464790	0.885674	1.035194
O26	O	1.964790	1.385674	1.535194
O27	O	1.276307	0.836317	0.835606
O28	O	1.776307	1.336317	1.335606
O29	O	1.607673	0.776033	1.039428
O30	O	2.107673	1.276033	1.539428
O31	O	1.540427	1.030441	0.765374
O32	O	2.040427	1.530441	1.265374
O33	O	1.426532	1.030415	0.879277
O34	O	1.926532	1.530415	1.379277
C35	C	1.238429	0.757272	0.756599
C36	C	1.738429	1.257272	1.256599
C37	C	1.122283	0.740369	0.739741
C38	C	1.622283	1.240369	1.239741
C39	C	1.070471	0.805672	0.804867
C40	C	1.570471	1.305672	1.304867
C41	C	0.950429	0.788204	0.787446
C42	C	1.450429	1.288204	1.287446
C43	C	1.479218	1.068350	0.826615
C44	C	1.979218	1.568350	1.326615
C45	C	1.466182	1.184518	0.839732
C46	C	1.966182	1.684518	1.339732
C47	C	1.540622	0.836527	1.077565
C48	C	2.040622	1.336527	1.577565
C49	C	1.553704	0.853435	1.197521
C50	C	2.053704	1.353435	1.697521
C51	C	1.782474	0.836584	0.835695
C52	C	2.282474	1.336584	1.335695
C53	C	1.898619	0.853516	0.852581
C54	C	2.398619	1.353516	1.352581
C55	C	1.540775	0.524297	0.765433
C56	C	2.040775	1.024297	1.265433
C57	C	1.553924	0.408151	0.752377
C58	C	2.053924	0.908151	1.252377
C59	C	1.516785	1.236303	0.789280
C60	C	2.016785	1.736303	1.289280
C61	C	1.503314	1.356369	0.802836
C62	C	2.003314	1.856369	1.302836
C63	C	1.503220	0.788209	1.234630
C64	C	2.003220	1.288209	1.734630
C65	C	1.516740	0.805683	1.358611
C66	C	2.016740	1.305683	1.858611
C67	C	1.479330	0.757351	1.515671
C68	C	1.979330	1.257351	2.015671
C69	C	1.466249	0.740447	1.395715
C70	C	1.966249	1.240447	1.895715
H71	H	0.943128	0.922358	0.921247
H72	H	1.443128	1.422358	1.421247
C73	C	1.588558	0.898685	1.439680
C74	C	2.088558	1.398685	1.939680
N75	N	1.642615	0.968759	1.500742
N76	N	2.142615	1.468759	2.000742
C77	C	1.625931	1.347974	0.680460
C78	C	2.125931	1.847974	1.180460
N79	N	1.680164	1.302647	0.626292
N80	N	2.180164	1.802647	1.126292
C81	C	1.625518	0.946433	1.278593
C82	C	2.125518	1.446433	1.778593
N83	N	1.679575	1.016507	1.339655
N84	N	2.179575	1.516507	1.839655
H85	H	0.905920	0.719354	0.718791
H86	H	1.405920	1.219354	1.218791
C87	C	1.130601	0.898678	0.897617
C88	C	1.630601	1.398678	1.397617
N89	N	1.175889	0.968735	0.967476
N90	N	1.675889	1.468735	1.467476
C91	C	1.431305	1.416549	0.874751
C92	C	1.931305	1.916549	1.374751
N93	N	1.377068	1.461877	0.928914
N94	N	1.877068	1.961877	1.428914
H95	H	1.077771	0.671524	0.671091
H96	H	1.577771	1.171524	1.171091
H97	H	1.570087	1.191754	0.736055
H98	H	2.070087	1.691754	1.236055
C99	C	1.394178	1.244702	0.911643
C100	C	1.894178	1.744702	1.411643
N101	N	1.339940	1.290030	0.965806
N102	N	1.839940	1.790030	1.465806
C103	C	1.431315	0.695281	1.153555
C104	C	1.931315	1.195281	1.653555
N105	N	1.377159	0.625282	1.092491
N106	N	1.877159	1.125282	1.592491
C107	C	1.394328	0.647523	1.314645
C108	C	1.894328	1.147523	1.814645
N109	N	1.340158	0.577533	1.253582
N110	N	1.840158	1.077533	1.753582
