data_functionalizedCrystal
_audit_creation_method	'MofGen! by Chris Wilmer'
_symmetry_space_group_name_H-M	'P1'
_symmetry_Int_Tables_number	1
_symmetry_cell_setting	triclinic
loop_
_symmetry_equiv_pos_as_xyz
  x,y,z
_cell_length_a	21.295417
_cell_length_b	10.685980
_cell_length_c	10.686551
_cell_angle_alpha	98.408259
_cell_angle_beta	94.412210
_cell_angle_gamma	94.396638
loop_
_atom_site_label
_atom_site_type_symbol
_atom_site_fract_x
_atom_site_fract_y
_atom_site_fract_z
Zn1	Zn	-0.141098	1.995708	0.866660
Zn2	Zn	-0.255141	1.979220	0.654362
Zn3	Zn	-0.158619	1.767125	0.638119
Zn4	Zn	-0.255080	1.783344	0.850272
O5	O	-0.202485	1.881349	0.752353
O6	O	-0.148919	2.171158	0.852155
O7	O	-0.249695	1.937398	0.474573
O8	O	-0.068199	1.797559	0.668497
O9	O	-0.232706	2.159045	0.696180
O10	O	-0.055327	1.965498	0.836405
O11	O	-0.178781	1.781572	0.462640
O12	O	-0.178722	1.591639	0.652606
O13	O	-0.232602	1.825203	1.030080
O14	O	-0.249591	1.603555	0.808474
O15	O	-0.148860	1.981225	1.042121
O16	O	-0.343229	1.953125	0.680289
O17	O	-0.343184	1.809215	0.824223
C18	C	-0.216051	1.551538	0.727000
C19	C	-0.221869	1.410445	0.716183
C20	C	-0.366046	1.881178	0.752270
C21	C	-0.436012	1.881223	0.752286
C22	C	-0.468874	1.956236	0.677428
C23	C	-0.534613	1.956297	0.677461
C24	C	-0.567488	1.881323	0.752337
C25	C	-0.534617	1.806307	0.827211
C26	C	-0.468879	1.806257	0.827185
N27	N	-0.674927	1.771020	0.753478
N28	N	-0.737375	1.771070	0.753495
C29	C	-0.765554	1.881471	0.752421
N30	N	-0.728926	1.991820	0.751305
N31	N	-0.666472	1.991768	0.751281
C32	C	-0.638771	1.881369	0.752374
C33	C	-0.869698	1.956557	0.677595
C34	C	-0.935438	1.956621	0.677637
C35	C	-0.935442	1.806618	0.827379
C36	C	-0.869702	1.806566	0.827345
C37	C	-0.836835	1.881533	0.752446
C38	C	-0.038282	1.881559	0.752467
C39	C	0.031692	1.881648	0.752516
C40	C	-0.188770	1.906862	1.083447
C41	C	-0.182925	1.917734	1.224539
C42	C	-0.188865	2.212449	0.777807
C43	C	-0.183061	2.353544	0.788654
C44	C	-0.216098	1.856009	0.422554
C45	C	-0.221755	1.845383	0.281481
H46	H	-0.145382	1.412769	0.858972
C47	C	-0.313268	1.816280	1.130825
C48	C	-0.272670	1.750532	1.201578
H49	H	-0.344698	1.757720	1.081485
H50	H	-0.332955	1.875480	1.186781
H51	H	-0.289682	1.860212	1.076210
H52	H	-0.296255	1.706607	1.256200
H53	H	-0.252981	1.691309	1.145616
H54	H	-0.259548	1.351213	0.645853
H55	H	-0.442116	2.017281	0.616445
H56	H	-0.145210	1.988005	1.283736
C57	C	-0.789387	2.125912	0.673188
C58	C	-0.833565	2.038969	0.595281
H59	H	-0.767079	2.176783	0.622367
H60	H	-0.810706	2.178704	0.732265
H61	H	-0.760407	2.081206	0.717753
H62	H	-0.862547	2.083674	0.550722
H63	H	-0.812244	1.986170	0.536182
H64	H	-0.842944	1.745478	0.888295
C65	C	-0.528016	2.104534	0.529416
C66	C	-0.570747	2.038747	0.595162
H67	H	-0.550324	2.155426	0.478602
H68	H	-0.498055	2.157301	0.588474
H69	H	-0.506696	2.045486	0.476567
H70	H	-0.592063	2.097795	0.648019
H71	H	-0.600719	1.985975	0.536097
C72	C	-0.368110	1.739581	0.893632
C73	C	-0.432752	1.723794	0.909470
H74	H	-0.345806	1.688675	0.944437
H75	H	-0.361666	1.714485	0.806910
H76	H	-0.353016	1.826289	0.918829
H77	H	-0.447846	1.637086	0.884264
H78	H	-0.439199	1.748881	0.996211
H79	H	-0.561388	1.745264	0.888178
H80	H	-0.962193	2.017713	0.616682
H81	H	-0.962207	1.745579	0.888351
