data_functionalizedCrystal
_audit_creation_method	'MofGen! by Chris Wilmer'
_symmetry_space_group_name_H-M	'P1'
_symmetry_Int_Tables_number	1
_symmetry_cell_setting	triclinic
loop_
_symmetry_equiv_pos_as_xyz
  x,y,z
_cell_length_a	12.759395
_cell_length_b	21.395361
_cell_length_c	21.395355
_cell_angle_alpha	90.019049
_cell_angle_beta	89.977841
_cell_angle_gamma	89.967930
loop_
_atom_site_label
_atom_site_type_symbol
_atom_site_fract_x
_atom_site_fract_y
_atom_site_fract_z
Zn1	Zn	1.606170	0.249485	-0.354219
Zn2	Zn	1.606007	0.354245	-0.249441
Zn3	Zn	1.430463	0.249488	-0.249460
Zn4	Zn	1.430412	0.354232	-0.354185
O5	O	1.518263	0.301863	-0.301826
O6	O	1.753170	0.263386	-0.340326
O7	O	1.582674	0.340356	-0.161765
O8	O	1.453861	0.161810	-0.263379
O9	O	1.753050	0.340353	-0.263346
O10	O	1.582952	0.161808	-0.340345
O11	O	1.453703	0.263391	-0.161780
O12	O	1.283435	0.263378	-0.263346
O13	O	1.453774	0.340330	-0.441868
O14	O	1.283398	0.340333	-0.340287
O15	O	1.582902	0.263373	-0.441892
O16	O	1.582624	0.441921	-0.263313
O17	O	1.453616	0.441912	-0.340268
C18	C	1.518125	0.464650	-0.301798
C19	C	1.518162	0.534292	-0.301807
C20	C	1.245296	0.301855	-0.301815
C21	C	1.128519	0.301867	-0.301826
C22	C	1.585397	0.566989	-0.261779
C23	C	1.585446	0.632424	-0.261796
C24	C	1.518242	0.665160	-0.301835
C25	C	1.451003	0.632455	-0.341871
C26	C	1.450963	0.567020	-0.341857
C27	C	1.423645	0.768877	-0.306751
C28	C	1.423683	0.834310	-0.306760
C29	C	1.518366	0.866981	-0.301880
C30	C	1.613013	0.834211	-0.296977
C31	C	1.612973	0.768777	-0.296964
C32	C	1.518278	0.736112	-0.301854
C33	C	1.585659	0.970631	-0.261868
C34	C	1.585710	1.036067	-0.261889
C35	C	1.451257	1.036096	-0.341960
C36	C	1.451216	0.970661	-0.341942
C37	C	1.518415	0.937932	-0.301893
C38	C	1.128518	0.382129	-0.381815
C39	C	1.073657	0.422266	-0.421811
C40	C	0.963936	0.422273	-0.421819
C41	C	0.909073	0.382139	-0.381827
C42	C	0.963934	0.342003	-0.341831
C43	C	1.073658	0.342001	-0.341826
C44	C	0.963934	0.261738	-0.261846
C45	C	1.073656	0.261733	-0.261834
C46	C	0.909071	0.221604	-0.221854
C47	C	0.963932	0.181470	-0.181854
C48	C	1.073661	0.181465	-0.181847
C49	C	1.128517	0.221597	-0.221838
C50	C	1.792297	0.301871	-0.301837
C51	C	1.909073	0.301874	-0.301842
C52	C	1.518350	0.301850	-0.465250
C53	C	1.518388	0.301845	-0.534891
C54	C	1.518431	1.138439	-0.301879
C55	C	1.518506	1.068798	-0.301929
C56	C	1.585622	0.261772	-0.567618
C57	C	1.585621	0.261745	-0.633053
C58	C	1.518396	0.301802	-0.665759
C59	C	1.451148	0.341878	-0.633024
C60	C	1.451144	0.341899	-0.567590
C61	C	1.510052	0.358217	-0.769424
C62	C	1.510064	0.358197	-0.834857
C63	C	1.518402	0.301736	-0.867580
C64	C	1.526751	0.245293	-0.834862
C65	C	1.526747	0.245314	-0.769428
C66	C	1.518392	0.301783	-0.736712
C67	C	1.585639	0.261630	-0.971260
C68	C	1.585630	0.261602	-1.036696
C69	C	1.451163	0.341741	-1.036666
C70	C	1.451166	0.341763	-0.971231
C71	C	1.518410	0.301709	-0.938531
C72	C	1.518237	0.301830	-0.139039
C73	C	1.518403	0.301659	-0.069398
H74	H	1.640117	0.540343	-0.229170
F75	F	1.657009	0.667231	-0.219190
F76	F	1.132040	0.138742	-0.139280
H77	H	1.396211	0.540398	-0.374454
F78	F	1.322952	0.869180	-0.311977
H79	H	1.217858	0.221598	-0.221835
F80	F	1.245294	0.382132	-0.381802
F81	F	1.379609	0.384369	-1.071470
F82	F	0.792297	0.382142	-0.381845
F83	F	1.132053	0.464980	-0.464368
F84	F	1.657184	0.219139	-0.532821
H85	H	1.396543	1.062749	-0.374563
F86	F	1.657166	0.219081	-0.667891
H87	H	1.640381	0.943982	-0.229259
F88	F	0.905547	0.464987	-0.464390
H89	H	1.533543	0.199357	-0.742791
H90	H	0.819730	0.221610	-0.221866
F91	F	1.535630	0.185198	-0.869682
F92	F	1.713701	0.733903	-0.291750
F93	F	0.905538	0.138757	-0.139301
F94	F	1.657200	0.218999	-0.936457
H95	H	1.396423	0.374399	-0.944584
F96	F	1.501187	0.418268	-0.869673
F97	F	1.657206	0.218956	-1.071527
H98	H	1.346536	0.742282	-0.310728
F99	F	1.379650	0.935860	-0.384544
F100	F	1.379483	0.667295	-0.384485
F101	F	1.501201	0.418317	-0.734605
H102	H	1.396410	0.374491	-0.659658
F103	F	1.657281	1.070866	-0.219287
F104	F	1.713789	0.868976	-0.291777
H105	H	1.396389	0.374531	-0.540944
