data_functionalizedCrystal
_audit_creation_method	'MofGen! by Chris Wilmer'
_symmetry_space_group_name_H-M	'P1'
_symmetry_Int_Tables_number	1
_symmetry_cell_setting	triclinic
loop_
_symmetry_equiv_pos_as_xyz
  x,y,z
_cell_length_a	7.088929
_cell_length_b	16.109301
_cell_length_c	16.109301
_cell_angle_alpha	83.461481
_cell_angle_beta	83.776684
_cell_angle_gamma	96.204592
loop_
_atom_site_label
_atom_site_type_symbol
_atom_site_fract_x
_atom_site_fract_y
_atom_site_fract_z
O1	O	0.158875	-1.094601	-0.115410
O2	O	0.158906	-0.852537	-0.128711
O3	O	0.158870	-0.980220	-0.001028
O4	O	0.158911	-0.966918	-0.243093
O5	O	-0.159110	-0.997283	0.016074
O6	O	-0.159074	-0.869601	-0.111609
O7	O	-0.159105	-1.111664	-0.098308
Cu8	Cu	-0.188123	-0.992190	-0.103397
Cu9	Cu	0.187925	-0.972011	-0.123622
O10	O	-0.159069	-0.983982	-0.225991
C11	C	-0.000080	-0.830094	-0.119621
C12	C	-0.000069	-0.737798	-0.118007
C13	C	-0.000121	-0.988213	0.038498
C14	C	-0.000123	-0.986598	0.130793
N15	N	-0.452615	-1.006390	-0.089171
N16	N	0.452417	-0.957818	-0.137841
C17	C	-0.000114	-1.134107	-0.107398
C18	C	-0.000113	-1.226403	-0.109013
C19	C	-0.000079	-0.515526	-0.190014
C20	C	-0.000091	-0.428806	-0.188489
C21	C	-0.000109	-0.448682	-0.037000
C22	C	-0.000110	-0.535400	-0.038525
C23	C	-0.000085	-0.568820	-0.115035
C24	C	-0.000097	-0.395381	-0.111985
C25	C	-0.000110	-0.301356	-0.110331
C26	C	-0.000075	-0.662851	-0.116689
C27	C	-0.000074	-0.975988	-0.265517
C28	C	-0.000059	-0.977603	-0.357813
C29	C	-0.000102	-1.058604	0.353064
C30	C	-0.000086	-1.057079	0.439784
C31	C	-0.000074	-0.905590	0.419909
C32	C	-0.000076	-0.907115	0.333190
C33	C	-0.000100	-0.983625	0.299771
C34	C	-0.000082	-0.980575	0.473209
C35	C	-0.000065	-0.978921	0.567234
C36	C	-0.000114	-0.985279	0.205740
H37	H	-0.465923	-0.907479	-0.188278
O38	O	-0.000442	-1.132920	0.320578
C39	C	-0.165111	-1.231386	0.243031
C40	C	-0.164996	-1.147216	0.279791
H41	H	-0.298118	-1.242962	0.210031
H42	H	-0.165227	-1.284752	0.295995
H43	H	-0.031976	-1.228726	0.195798
H44	H	-0.298108	-1.149793	0.327013
H45	H	-0.164781	-1.093885	0.226782
O46	O	-0.549824	-1.066404	-0.028895
C47	C	-0.611547	-1.118222	0.118999
C48	C	-0.501305	-1.050217	0.050822
H49	H	-0.572390	-1.105148	0.183467
H50	H	-0.572244	-1.182755	0.106215
H51	H	-0.771745	-1.117075	0.117787
H52	H	-0.341082	-1.051286	0.051995
H53	H	-0.540767	-0.985715	0.063630
O54	O	0.000262	-0.377054	-0.261366
C55	C	0.164965	-0.324731	-0.399257
C56	C	0.164828	-0.383359	-0.316757
H57	H	0.297981	-0.329822	-0.444070
H58	H	0.165078	-0.256986	-0.385086
H59	H	0.031839	-0.344027	-0.429713
H60	H	0.297930	-0.364140	-0.286259
H61	H	0.164615	-0.451090	-0.330982
H62	H	-0.000073	-0.542733	-0.252313
H63	H	-0.000084	-1.118135	0.483172
H64	H	-0.000059	-0.843298	0.447130
O65	O	-0.000449	-0.416274	0.037357
C66	C	-0.165118	-0.415609	0.176185
C67	C	-0.165004	-0.452360	0.092010
H68	H	-0.298126	-0.444782	0.220402
H69	H	-0.165230	-0.344476	0.164455
H70	H	-0.031984	-0.430402	0.206036
H71	H	-0.298115	-0.437630	0.062116
H72	H	-0.164792	-0.523483	0.103795
O73	O	0.000226	-0.587123	0.034319
C74	C	0.164887	-0.621776	0.154492
C75	C	0.164776	-0.563153	0.072011
H76	H	0.297891	-0.602407	0.184999
H77	H	0.165006	-0.689506	0.140302
H78	H	0.031749	-0.616779	0.199271
H79	H	0.297892	-0.568076	0.027193
H80	H	0.164558	-0.495448	0.086266
H81	H	-0.000069	-0.846054	0.289796
