data_functionalizedCrystal
_audit_creation_method	'MofGen! by Chris Wilmer'
_symmetry_space_group_name_H-M	'P1'
_symmetry_Int_Tables_number	1
_symmetry_cell_setting	triclinic
loop_
_symmetry_equiv_pos_as_xyz
  x,y,z
_cell_length_a	10.654541
_cell_length_b	17.038272
_cell_length_c	9.130307
_cell_angle_alpha	90.005165
_cell_angle_beta	89.999406
_cell_angle_gamma	87.797742
loop_
_atom_site_label
_atom_site_type_symbol
_atom_site_fract_x
_atom_site_fract_y
_atom_site_fract_z
O1	O	1.678039	0.109869	0.121756
O2	O	1.313532	0.120340	0.121769
O3	O	1.493619	0.001277	0.121751
O4	O	1.497952	0.228932	0.121774
O5	O	1.493616	0.001273	-0.121848
O6	O	1.313529	0.120335	-0.121830
O7	O	1.678036	0.109865	-0.121843
Cu8	Cu	1.495782	0.115100	-0.144079
Cu9	Cu	1.495786	0.115105	0.144005
O10	O	1.497949	0.228927	-0.121825
C11	C	1.266661	0.119569	-0.000029
C12	C	1.127004	0.117270	-0.000024
C13	C	1.112253	0.259642	0.000008
C14	C	1.039268	0.329744	0.000031
C15	C	0.908049	0.327580	0.000032
C16	C	0.849813	0.255304	0.000006
C17	C	0.922798	0.185202	-0.000016
C18	C	1.054019	0.187374	-0.000013
C19	C	0.937548	0.042832	-0.000059
C20	C	1.068768	0.044995	-0.000050
C21	C	0.879312	-0.029443	-0.000084
C22	C	0.952297	-0.099548	-0.000096
C23	C	1.083524	-0.097380	-0.000096
C24	C	1.141753	-0.025108	-0.000072
C25	C	1.489677	-0.027875	-0.000048
C26	C	1.477920	-0.114734	-0.000047
C27	C	1.585864	-0.164246	-0.000053
C28	C	1.574809	-0.245858	-0.000038
C29	C	1.455809	-0.277957	-0.000029
C30	C	1.347857	-0.228439	-0.000019
C31	C	1.358913	-0.146828	-0.000023
C32	C	1.416751	-0.523933	-0.000008
C33	C	1.405704	-0.605550	-0.000008
C34	C	1.632657	-0.622963	-0.000025
C35	C	1.643703	-0.541350	-0.000037
C36	C	1.535750	-0.491839	-0.000020
C37	C	1.444507	-0.361377	-0.000019
C38	C	1.547054	-0.408420	-0.000019
C39	C	1.724907	0.110635	-0.000042
C40	C	1.864564	0.112934	-0.000037
C41	C	1.501891	0.258080	-0.000022
C42	C	1.513648	0.344939	-0.000014
N43	N	1.495789	0.115103	0.346628
N44	N	1.495788	0.115095	-0.346702
C45	C	1.655612	0.009871	0.346602
C46	C	1.735519	-0.042750	0.423256
C47	C	1.735517	-0.042759	0.576589
C48	C	1.655603	0.009861	0.653272
C49	C	1.575696	0.062483	0.576619
C50	C	1.575704	0.062484	0.423282
C51	C	1.415881	0.167717	0.576644
C52	C	1.415875	0.167723	0.423311
C53	C	1.335967	0.220337	0.653328
C54	C	1.256052	0.272956	0.576674
C55	C	1.256056	0.272962	0.423331
C56	C	1.335968	0.220345	0.346657
H57	H	1.248597	-0.023336	-0.000054
C58	C	1.716765	-0.128944	-0.000063
H59	H	1.779468	-0.170123	-0.000050
H60	H	1.725798	-0.097475	-0.085011
H61	H	1.725795	-0.097466	0.084896
H62	H	1.190992	0.315816	0.360927
C63	C	1.693548	-0.300318	-0.000059
H64	H	1.766003	-0.269512	-0.000087
H65	H	1.693967	-0.332513	0.084889
H66	H	1.693942	-0.332519	-0.085019
H67	H	1.347616	-0.387521	-0.000015
H68	H	1.328848	-0.483630	0.000006
H69	H	1.740605	-0.515222	-0.000045
C70	C	1.168160	0.330830	0.661024
H71	H	1.179603	0.323288	0.763322
H72	H	1.187222	0.383147	0.635908
H73	H	1.083418	0.321747	0.635901
C74	C	1.256590	0.262022	0.000024
H75	H	1.291716	0.209921	0.000018
H76	H	1.283561	0.288809	-0.084909
H77	H	1.283541	0.288797	0.084998
H78	H	0.742967	0.253548	-0.000010
C79	C	1.103330	0.409241	0.000065
H80	H	1.191932	0.400494	0.000075
H81	H	1.078796	0.438141	-0.084872
H82	H	1.078792	0.438128	0.085036
H83	H	1.335973	0.220342	0.221805
C84	C	1.655602	0.009876	0.177940
H85	H	1.596561	0.048747	0.143271
H86	H	1.737016	0.021135	0.143246
H87	H	1.633197	-0.040256	0.143248
H88	H	0.848624	0.384663	0.000040
H89	H	1.720546	-0.663284	-0.000036
C90	C	1.216960	-0.263745	-0.000014
H91	H	1.225833	-0.319441	-0.000028
H92	H	1.172144	-0.246789	0.084934
H93	H	1.172151	-0.246795	-0.084973
C94	C	1.823413	-0.100630	0.338903
H95	H	1.811965	-0.093096	0.236605
H96	H	1.908150	-0.091559	0.364036
H97	H	1.804330	-0.152948	0.364019
H98	H	0.772466	-0.031201	-0.000091
C99	C	1.823409	-0.100641	0.660912
H100	H	1.870999	-0.131982	0.593288
H101	H	1.878629	-0.072136	0.720743
H102	H	1.774814	-0.133529	0.720710
H103	H	0.904870	-0.158388	-0.000115
C104	C	1.163798	-0.174494	-0.000112
H105	H	1.110317	-0.217844	-0.000115
H106	H	1.215301	-0.176609	-0.085055
H107	H	1.215284	-0.176611	0.084853
H108	H	1.335975	0.220331	0.778180
H109	H	1.308795	-0.631681	-0.000025
H110	H	1.655618	0.009857	0.778125
H111	H	1.271013	-0.106516	-0.000019
H112	H	1.643943	-0.382282	0.000006
