data_functionalizedCrystal
_audit_creation_method	'MofGen! by Chris Wilmer'
_symmetry_space_group_name_H-M	'P1'
_symmetry_Int_Tables_number	1
_symmetry_cell_setting	triclinic
loop_
_symmetry_equiv_pos_as_xyz
  x,y,z
_cell_length_a	12.784890
_cell_length_b	19.188940
_cell_length_c	11.295483
_cell_angle_alpha	94.080861
_cell_angle_beta	86.328828
_cell_angle_gamma	78.127636
loop_
_atom_site_label
_atom_site_type_symbol
_atom_site_fract_x
_atom_site_fract_y
_atom_site_fract_z
O1	O	1.417479	-0.000767	-0.098988
O2	O	1.107886	0.029143	-0.098999
O3	O	1.271611	-0.087991	-0.098984
O4	O	1.253754	0.116367	-0.099003
O5	O	1.257231	-0.077717	0.099065
O6	O	1.093506	0.039416	0.099051
O7	O	1.403099	0.009507	0.099061
Cu8	Cu	1.246989	0.025400	0.117139
Cu9	Cu	1.263996	0.013250	-0.117077
O10	O	1.239374	0.126640	0.099046
C11	C	1.061088	0.036225	0.000024
C12	C	0.943068	0.042013	0.000021
C13	C	0.763758	0.114555	0.000012
C14	C	0.874648	0.109121	0.000013
C15	C	0.900590	-0.019666	0.000024
C16	C	0.789700	-0.014232	0.000024
C17	C	0.721288	0.052881	0.000020
C18	C	0.610395	0.058315	0.000028
C19	C	0.636340	-0.070472	0.000031
C20	C	0.747230	-0.075906	0.000031
C21	C	1.263841	-0.108831	0.000040
C22	C	1.262100	-0.186233	0.000040
C23	C	1.241876	-0.733166	0.107968
C24	C	1.243500	-0.660437	0.107975
C25	C	1.252156	-0.629665	0.000019
C26	C	1.259161	-0.671626	-0.107951
C27	C	1.257526	-0.744352	-0.107954
N28	N	1.321057	-0.528512	-0.080332
N29	N	1.322611	-0.459425	-0.080321
C30	C	1.257079	-0.410545	0.000024
N31	N	1.189946	-0.433363	0.080375
N32	N	1.188396	-0.502457	0.080368
C33	C	1.253929	-0.550806	0.000011
C34	C	1.251828	-0.289731	0.107994
C35	C	1.253446	-0.217000	0.107996
C36	C	1.269117	-0.228192	-0.107932
C37	C	1.267489	-0.300920	-0.107931
C38	C	1.258849	-0.331686	0.000035
C39	C	1.449897	0.002424	0.000035
C40	C	1.567918	-0.003364	0.000031
C41	C	1.247144	0.147480	0.000019
C42	C	1.248886	0.224882	0.000012
N43	N	1.235036	0.033944	0.281875
N44	N	1.275958	0.004699	-0.281812
C45	C	1.362006	-0.056848	0.531176
C46	C	1.352980	-0.050387	0.655838
C47	C	1.207954	0.053326	0.655865
C48	C	1.216980	0.046864	0.531203
C49	C	1.294009	-0.008224	0.468862
C50	C	1.303040	-0.014682	0.344197
C51	C	1.158009	0.089027	0.344226
C52	C	1.148983	0.095488	0.468889
H53	H	0.956311	-0.074306	0.000019
H54	H	1.273204	-0.335079	-0.195841
O55	O	1.235949	-0.615182	0.224422
H56	H	1.238535	-0.559442	0.206283
O57	O	1.268496	-0.638437	-0.224387
H58	H	1.199483	-0.644450	-0.276146
H59	H	1.263233	-0.778509	-0.195868
O60	O	1.084655	0.141474	0.277020
H61	H	1.103864	0.127725	0.179860
O62	O	1.124877	0.112739	0.723112
H63	H	1.130031	0.109062	0.820266
O64	O	0.821017	-0.148288	0.000051
H65	H	0.905261	-0.141707	0.000061
O66	O	0.590537	-0.136999	0.000034
H67	H	0.501935	-0.121949	0.000027
H68	H	1.244784	-0.314781	0.195907
O69	O	1.232543	-0.766344	0.224417
H70	H	1.303874	-0.809828	0.229587
H71	H	1.365763	-0.059536	0.293440
O72	O	1.445082	-0.116260	0.463924
H73	H	1.490847	-0.148989	0.528199
O74	O	1.245896	-0.171747	0.224439
H75	H	1.239628	-0.205365	0.299509
O76	O	1.065917	0.154907	0.536138
H77	H	1.020151	0.187633	0.471860
O78	O	0.689970	0.186939	0.000019
H79	H	0.632979	0.196679	0.080749
H80	H	1.408348	-0.089982	0.706571
O81	O	1.278454	-0.195015	-0.224376
H82	H	1.278419	-0.137396	-0.206239
H83	H	0.909222	0.159342	0.000009
O84	O	0.536601	0.130696	0.000018
H85	H	0.584769	0.172667	-0.000001
