data_functionalizedCrystal
_audit_creation_method	'MofGen! by Chris Wilmer'
_symmetry_space_group_name_H-M	'P1'
_symmetry_Int_Tables_number	1
_symmetry_cell_setting	triclinic
loop_
_symmetry_equiv_pos_as_xyz
  x,y,z
_cell_length_a	13.635800
_cell_length_b	7.076090
_cell_length_c	18.882776
_cell_angle_alpha	70.468047
_cell_angle_beta	117.491288
_cell_angle_gamma	117.701400
loop_
_atom_site_label
_atom_site_type_symbol
_atom_site_fract_x
_atom_site_fract_y
_atom_site_fract_z
V1	V	-1.993837	0.299375	-0.248588
O2	O	-2.095157	-0.009972	-0.244437
O3	O	-1.866636	0.589364	-0.246328
O4	O	-2.008147	0.296706	-0.357260
O5	O	-1.952667	0.284712	-0.132737
V6	V	-2.244007	0.262144	-0.234799
O7	O	-2.106020	0.381042	-0.278834
O8	O	-2.356923	0.180477	-0.204552
O9	O	-2.259605	-0.027845	-0.237058
O10	O	-2.201385	0.571491	-0.238950
O11	O	-2.343876	0.276807	-0.350650
O12	O	-2.118094	0.264812	-0.126126
V13	V	-1.493837	0.299375	-0.248588
O14	O	-1.595157	-0.009972	-0.244437
O15	O	-1.366636	0.589364	-0.246328
O16	O	-1.508147	0.296706	-0.357260
O17	O	-1.452667	0.284712	-0.132737
V18	V	-1.744007	0.262144	-0.234799
O19	O	-1.606020	0.381042	-0.278834
O20	O	-1.856923	0.180477	-0.204552
O21	O	-1.759605	-0.027845	-0.237058
O22	O	-1.701385	0.571491	-0.238950
O23	O	-1.843876	0.276807	-0.350650
O24	O	-1.618094	0.264812	-0.126126
C25	C	-1.762841	0.660000	-0.242266
C26	C	-1.698554	0.901539	-0.241124
C27	C	-1.943344	0.286680	-0.383766
C28	C	-1.995004	0.286417	-0.472603
C29	C	-2.195082	-0.098468	-0.241122
C30	C	-2.248802	-0.339999	-0.242283
C31	C	-2.014564	0.274846	-0.099616
C32	C	-1.952526	0.275098	-0.010778
C33	C	-1.443344	0.286680	-0.383766
C34	C	-1.495004	0.286417	-0.472603
C35	C	-1.514564	0.274846	-0.099616
C36	C	-1.452526	0.275098	-0.010778
C37	C	-2.107958	0.296998	-0.518375
C38	C	-2.156519	0.296723	-0.601845
C39	C	-2.092121	0.285883	-0.639543
C40	C	-1.979158	0.275295	-0.593765
C41	C	-1.930603	0.275555	-0.510296
C42	C	-1.834704	0.285945	0.026912
C43	C	-1.776415	0.286204	0.110383
C44	C	-1.835948	0.275631	0.156162
C45	C	-1.953782	0.264776	0.118466
C46	C	-2.012072	0.264502	0.034997
C47	C	-1.671128	0.275288	0.406233
C48	C	-1.612827	0.275570	0.489707
C49	C	-1.435464	0.296994	0.481618
C50	C	-1.493761	0.296732	0.398147
C51	C	-1.611591	0.285866	0.360459
N52	N	-1.776368	0.275902	0.241483
N53	N	-1.671172	0.285579	0.275141
C54	C	-1.334710	0.285914	0.026899
C55	C	-1.276410	0.286125	0.110372
C56	C	-1.335926	0.275536	0.156166
C57	C	-1.453755	0.264712	0.118483
C58	C	-1.512055	0.264486	0.035012
H59	H	-2.248497	0.305353	-0.639107
O60	O	-1.677049	0.264137	0.539084
H61	H	-1.628396	0.409948	0.569038
O62	O	-2.144497	0.285618	-0.729574
H63	H	-2.085390	0.427113	-0.758093
H64	H	-1.680473	0.295064	0.141065
O65	O	-1.639131	0.252825	-0.005618
H66	H	-1.643583	0.398391	-0.051705
H67	H	-1.786216	0.294565	-0.010356
O68	O	-1.517941	0.253297	0.167877
H69	H	-1.469256	0.399094	0.197841
H70	H	-1.445274	0.305350	0.360879
O71	O	-1.273043	0.275787	0.246195
H72	H	-1.193040	0.426668	0.258198
O73	O	-2.017992	0.253369	0.167843
H74	H	-2.098044	0.101981	0.162029
O75	O	-1.308382	0.308699	0.522272
H76	H	-1.276777	0.316020	0.476415
H77	H	-1.767066	0.266434	0.375558
O78	O	-1.909697	0.263635	-0.634431
H79	H	-1.962441	0.265266	-0.700164
H80	H	-2.108010	0.255673	0.004311
H81	H	-1.838625	0.266943	-0.473034
H82	H	-1.286231	0.294536	-0.010375
H83	H	-2.160410	0.305831	-0.487692
O84	O	-1.149321	0.297831	0.151006
H85	H	-1.117732	0.305201	0.105132
