data_functionalizedCrystal
_audit_creation_method	'MofGen! by Chris Wilmer'
_symmetry_space_group_name_H-M	'P1'
_symmetry_Int_Tables_number	1
_symmetry_cell_setting	triclinic
loop_
_symmetry_equiv_pos_as_xyz
  x,y,z
_cell_length_a	8.559649
_cell_length_b	10.654550
_cell_length_c	9.130313
_cell_angle_alpha	89.997153
_cell_angle_beta	90.003296
_cell_angle_gamma	102.868203
loop_
_atom_site_label
_atom_site_type_symbol
_atom_site_fract_x
_atom_site_fract_y
_atom_site_fract_z
O1	O	2.119655	0.042561	0.121775
O2	O	1.655169	-0.022226	0.121783
O3	O	1.898091	0.194010	0.121769
O4	O	1.876733	-0.173675	0.121788
O5	O	1.898073	0.194008	-0.121829
O6	O	1.655151	-0.022228	-0.121816
O7	O	2.119637	0.042559	-0.121824
Cu8	Cu	1.887392	0.010165	-0.144063
Cu9	Cu	1.887414	0.010167	0.144021
O10	O	1.876714	-0.173677	-0.121811
C11	C	1.595684	-0.027137	-0.000016
C12	C	1.418466	-0.041751	-0.000013
N13	N	1.887388	0.010165	-0.346685
C14	C	1.896514	0.240645	-0.000029
C15	C	1.891822	0.379603	-0.000027
C16	C	2.179121	0.047469	-0.000023
C17	C	2.356339	0.062084	-0.000016
C18	C	1.878292	-0.220312	-0.000009
C19	C	1.882984	-0.359271	-0.000002
C20	C	2.034851	0.473864	-0.000029
C21	C	2.030432	0.604428	-0.000011
C22	C	1.739944	0.546458	0.000005
C23	C	1.744364	0.415896	-0.000003
C24	C	1.985033	-0.056630	-0.423329
C25	C	1.985059	-0.056620	-0.576666
C26	C	1.789781	0.076982	-0.576701
C27	C	1.789765	0.076979	-0.423367
N28	N	1.887430	0.010178	0.346644
H29	H	1.336069	-0.141836	0.000000
H30	H	1.438727	0.162162	-0.000014
N31	N	2.090341	-0.128667	-0.340614
H32	H	2.021527	-0.196744	-0.277001
H33	H	2.152192	-0.170895	-0.412529
N34	N	1.590096	0.314211	-0.000017
H35	H	1.585467	0.258743	0.090282
H36	H	1.496095	0.357102	-0.000070
N37	N	2.193886	0.434714	-0.000053
H38	H	2.283823	0.514245	-0.000049
H39	H	2.202058	0.381799	0.090247
N40	N	2.184698	0.706096	-0.000012
H41	H	2.278776	0.663287	-0.000029
H42	H	2.189177	0.761537	-0.090313
H43	H	2.064572	-0.111010	-0.639063
N44	N	1.580906	0.585604	0.000025
H45	H	1.599807	0.682617	0.000024
H46	H	1.518247	0.550128	-0.090279
H47	H	1.710250	0.131379	-0.360962
N48	N	1.684469	0.149026	-0.659402
H49	H	1.714948	0.243324	-0.632721
H50	H	1.699329	0.138791	-0.768143
