data_functionalizedCrystal
_audit_creation_method	'MofGen! by Chris Wilmer'
_symmetry_space_group_name_H-M	'P1'
_symmetry_Int_Tables_number	1
_symmetry_cell_setting	triclinic
loop_
_symmetry_equiv_pos_as_xyz
  x,y,z
_cell_length_a	17.699097
_cell_length_b	11.792254
_cell_length_c	16.176319
_cell_angle_alpha	89.993043
_cell_angle_beta	89.988988
_cell_angle_gamma	83.743514
loop_
_atom_site_label
_atom_site_type_symbol
_atom_site_fract_x
_atom_site_fract_y
_atom_site_fract_z
O1	O	1.004842	0.143598	-0.068816
O2	O	1.504842	0.643598	0.431184
O3	O	0.784565	0.162255	-0.068802
O4	O	1.284565	0.662255	0.431198
O5	O	0.900044	-0.012307	-0.068803
O6	O	1.400044	0.487693	0.431197
O7	O	0.889363	0.318160	-0.068814
O8	O	1.389363	0.818160	0.431186
O9	O	0.900028	-0.012318	0.068690
O10	O	1.400028	0.487682	0.568690
O11	O	0.784549	0.162244	0.068691
O12	O	1.284549	0.662244	0.568691
O13	O	1.004826	0.143587	0.068678
O14	O	1.504826	0.643587	0.568678
Cu15	Cu	0.894686	0.152914	0.081238
Cu16	Cu	1.394686	0.652914	0.581238
Cu17	Cu	0.894705	0.152927	-0.081363
Cu18	Cu	1.394705	0.652927	0.418637
O19	O	0.889347	0.318149	0.068679
O20	O	1.389347	0.818149	0.568679
C21	C	0.756357	0.161578	-0.000054
C22	C	1.256357	0.661578	0.499946
C23	C	0.672328	0.159565	-0.000049
C24	C	1.172328	0.659565	0.499951
C25	C	0.156553	0.147231	-0.075029
C26	C	0.656553	0.647231	0.424971
C27	C	0.235507	0.149115	-0.075025
C28	C	0.735507	0.649115	0.424975
C29	C	0.274969	0.150053	-0.000074
C30	C	0.774969	0.650053	0.499926
C31	C	0.235474	0.149095	0.074877
C32	C	0.735474	0.649095	0.574877
C33	C	0.156522	0.147203	0.074873
C34	C	0.656522	0.647203	0.574873
C35	C	0.553879	0.156723	0.074899
C36	C	1.053879	0.656723	0.574899
C37	C	0.632836	0.158619	0.074898
C38	C	1.132836	0.658619	0.574898
C39	C	0.632864	0.158636	-0.074999
C40	C	1.132864	0.658636	0.425001
C41	C	0.553912	0.156744	-0.075004
C42	C	1.053912	0.656744	0.424996
C43	C	0.514424	0.155780	-0.000052
C44	C	1.014424	0.655780	0.499948
C45	C	0.428813	0.153735	-0.000058
C46	C	0.928813	0.653735	0.499942
C47	C	0.360578	0.152106	-0.000068
C48	C	0.860578	0.652106	0.499932
C49	C	0.899363	-0.054595	-0.000057
C50	C	1.399363	0.445405	0.499943
C51	C	0.897349	-0.180584	-0.000058
C52	C	1.397349	0.319416	0.499942
C53	C	0.895713	-0.282901	-0.000061
C54	C	1.395713	0.217099	0.499939
C55	C	0.893667	-0.411263	-0.000068
C56	C	1.393667	0.088737	0.499932
C57	C	1.033035	0.144263	-0.000073
C58	C	1.533035	0.644263	0.499927
C59	C	1.117063	0.146277	-0.000083
C60	C	1.617063	0.646277	0.499917
C61	C	0.890028	0.360437	-0.000069
C62	C	1.390028	0.860437	0.499931
C63	C	0.892042	0.486426	-0.000074
C64	C	1.392042	0.986426	0.499926
N65	N	0.894678	0.152904	0.195604
N66	N	1.394678	0.652904	0.695604
N67	N	0.894719	0.152928	-0.195728
N68	N	1.394719	0.652928	0.304272
C69	C	0.945828	0.075640	0.238867
C70	C	1.445828	0.575640	0.738867
C71	C	0.945832	0.075639	0.325414
C72	C	1.445832	0.575639	0.825414
C73	C	0.894689	0.152908	0.368696
C74	C	1.394689	0.652908	0.868696
C75	C	0.843534	0.230176	0.325427
C76	C	1.343534	0.730176	0.825427
C77	C	0.843527	0.230171	0.238881
C78	C	1.343527	0.730171	0.738881
C79	C	0.843560	0.230198	0.674455
C80	C	1.343560	0.730198	1.174455
C81	C	0.843572	0.230199	0.761006
C82	C	1.343572	0.730199	1.261006
C83	C	0.945865	0.075665	0.760988
C84	C	1.445865	0.575665	1.260988
C85	C	0.945858	0.075660	0.674443
C86	C	1.445858	0.575660	1.174443
C87	C	0.894700	0.152924	0.631181
C88	C	1.394700	0.652924	1.131181
C89	C	0.894696	0.152923	0.537336
C90	C	1.394696	0.652923	1.037336
C91	C	0.894697	0.152916	0.462539
C92	C	1.394697	0.652916	0.962539
H93	H	0.267611	0.149851	0.135904
H94	H	0.767611	0.649851	0.635904
C95	C	0.799891	0.426734	0.212217
C96	C	1.299891	0.926734	0.712217
C97	C	0.787306	0.315106	0.191320
C98	C	1.287306	0.815106	0.691320
H99	H	0.765182	0.479166	0.182850
H100	H	1.265182	0.979166	0.682850
H101	H	0.792572	0.437790	0.269946
H102	H	1.292572	0.937790	0.769946
H103	H	0.850451	0.438953	0.198011
H104	H	1.350451	0.938953	0.698011
H105	H	0.736746	0.302884	0.205531
H106	H	1.236746	0.802884	0.705531
H107	H	0.794617	0.304046	0.133578
H108	H	1.294617	0.804046	0.633578
H109	H	0.124428	0.146475	-0.136063
H110	H	0.624428	0.646475	0.363937
H111	H	0.801923	0.293124	0.796245
H112	H	1.301923	0.793124	1.296245
H113	H	0.267657	0.149885	-0.136054
H114	H	0.767657	0.649885	0.363946
H115	H	0.124369	0.146437	0.135901
H116	H	0.624369	0.646437	0.635901
H117	H	0.521785	0.155986	-0.136036
H118	H	1.021785	0.655986	0.363964
H119	H	0.521739	0.155922	0.135929
H120	H	1.021739	0.655922	0.635929
H121	H	0.801889	0.293087	0.360672
H122	H	1.301889	0.793087	0.860672
H123	H	0.987478	0.012723	0.203633
H124	H	1.487478	0.512723	0.703633
H125	H	0.665025	0.159416	-0.136028
H126	H	1.165025	0.659416	0.363972
C127	C	0.742453	0.382960	0.683178
C128	C	1.242453	0.882960	1.183178
C129	C	0.787334	0.315134	0.626908
C130	C	1.287334	0.815134	1.126908
H131	H	0.707744	0.435403	0.653821
H132	H	1.207744	0.935403	1.153821
H133	H	0.715042	0.335766	0.716947
H134	H	1.215042	0.835766	1.216947
H135	H	0.774137	0.423724	0.716919
H136	H	1.274137	0.923724	1.216919
H137	H	0.755650	0.274363	0.593171
H138	H	1.255650	0.774363	1.093171
H139	H	0.814747	0.362334	0.593125
H140	H	1.314747	0.862334	1.093125
H141	H	0.987481	0.012724	0.360639
H142	H	1.487481	0.512724	0.860639
H143	H	0.664964	0.159382	0.135936
H144	H	1.164964	0.659382	0.635936
C145	C	1.046968	-0.077105	0.683120
C146	C	1.546968	0.422895	1.183120
C147	C	1.002073	-0.009281	0.626868
C148	C	1.502073	0.490719	1.126868
H149	H	1.081668	-0.129551	0.653749
H150	H	1.581668	0.370449	1.153749
H151	H	1.074389	-0.029911	0.716858
H152	H	1.574389	0.470089	1.216858
H153	H	1.015292	-0.117867	0.716894
H154	H	1.515292	0.382133	1.216894
H155	H	1.033749	0.031487	0.593098
H156	H	1.533749	0.531487	1.093098
H157	H	0.974650	-0.056481	0.593116
H158	H	1.474650	0.443519	1.093116
H159	H	0.987518	0.012749	0.796222
H160	H	1.487518	0.512749	1.296222
