data_functionalizedCrystal
_audit_creation_method	'MofGen! by Chris Wilmer'
_symmetry_space_group_name_H-M	'P1'
_symmetry_Int_Tables_number	1
_symmetry_cell_setting	triclinic
loop_
_symmetry_equiv_pos_as_xyz
  x,y,z
_cell_length_a	17.077404
_cell_length_b	21.395362
_cell_length_c	17.077396
_cell_angle_alpha	90.032289
_cell_angle_beta	90.019501
_cell_angle_gamma	90.030016
loop_
_atom_site_label
_atom_site_type_symbol
_atom_site_fract_x
_atom_site_fract_y
_atom_site_fract_z
Zn1	Zn	1.200017	-0.249435	0.443822
Zn2	Zn	1.199908	-0.354216	0.312547
Zn3	Zn	1.068749	-0.249457	0.312570
Zn4	Zn	1.068701	-0.354179	0.443771
O5	O	1.134344	-0.301822	0.378177
O6	O	1.309849	-0.263341	0.426420
O7	O	1.182484	-0.340344	0.202703
O8	O	1.086227	-0.161776	0.330012
O9	O	1.309770	-0.340323	0.329973
O10	O	1.182669	-0.161760	0.426442
O11	O	1.086122	-0.263378	0.202720
O12	O	0.958896	-0.263342	0.329962
O13	O	1.086146	-0.340260	0.553625
O14	O	0.958860	-0.340281	0.426355
O15	O	1.182623	-0.263305	0.553662
O16	O	1.182438	-0.441889	0.329923
O17	O	1.086040	-0.441862	0.426333
C18	C	0.930396	-0.301810	0.378156
C19	C	0.843146	-0.301820	0.378165
C20	C	0.802158	-0.341943	0.428276
C21	C	0.720178	-0.341944	0.428289
C22	C	0.679187	-0.301826	0.378186
C23	C	0.720180	-0.261699	0.328072
C24	C	0.802159	-0.261695	0.328064
C25	C	0.549310	-0.261711	0.328091
C26	C	0.467326	-0.261716	0.328098
C27	C	0.467329	-0.341961	0.428316
C28	C	0.549308	-0.341957	0.428308
C29	C	0.590296	-0.301830	0.378193
C30	C	1.134243	-0.464609	0.378137
C31	C	1.134272	-0.534251	0.378146
C32	C	1.184461	-0.566898	0.428393
C33	C	1.184488	-0.632334	0.428412
C34	C	1.134336	-0.665119	0.378171
C35	C	1.084137	-0.632463	0.327920
C36	C	1.084106	-0.567029	0.327908
C37	C	1.128232	-0.768831	0.307461
C38	C	1.128269	-0.834264	0.307472
C39	C	1.134429	-0.866940	0.378209
C40	C	1.140568	-0.834174	0.448936
C41	C	1.140537	-0.768740	0.448924
C42	C	1.134364	-0.736071	0.378178
C43	C	1.184650	-0.970540	0.428481
C44	C	1.184672	-1.035976	0.428501
C45	C	1.084325	-1.036105	0.328002
C46	C	1.084299	-0.970669	0.327988
C47	C	1.134466	-0.937891	0.378227
C48	C	1.339088	-0.301833	0.378200
C49	C	1.426338	-0.301839	0.378209
C50	C	1.134391	-0.301775	0.582922
C51	C	1.134411	-0.301756	0.670172
C52	C	1.134466	-0.138398	0.378235
C53	C	1.134518	-0.068757	0.378260
C54	C	1.134342	-0.301822	0.174230
C55	C	1.134473	-0.301666	0.086980
C56	C	1.184649	-0.261682	0.711183
C57	C	1.184658	-0.261661	0.793163
C58	C	1.134434	-0.301718	0.834131
C59	C	1.084191	-0.341793	0.793114
C60	C	1.084178	-0.341811	0.711135
C61	C	1.084222	-0.341756	0.963985
C62	C	1.084236	-0.341739	1.045969
C63	C	1.184703	-0.261606	1.046012
C64	C	1.184690	-0.261623	0.964033
C65	C	1.134448	-0.301700	0.923022
H66	H	0.686809	-0.374617	0.469094
Cl67	Cl	1.148316	-0.875245	0.537868
Cl68	Cl	1.247852	-0.211308	0.844716
H69	H	0.433952	-0.374631	0.469123
H70	H	1.225550	-0.229065	0.677832
Cl71	Cl	1.247712	-0.929330	0.491639
H72	H	1.225611	-0.228973	1.079407
Cl73	Cl	0.853687	-0.211251	0.265067
Cl74	Cl	0.415795	-0.211283	0.265107
Cl75	Cl	1.021273	-1.077314	0.264842
H76	H	1.043261	-0.374436	0.677745
Cl77	Cl	0.600838	-0.392396	0.491290
H78	H	0.835527	-0.374614	0.469074
Cl79	Cl	1.021048	-0.392148	0.844617
H80	H	1.225542	-1.062557	0.469422
Cl81	Cl	1.021087	-0.392090	1.097471
Cl82	Cl	1.021083	-0.673678	0.264763
Cl83	Cl	1.021201	-0.929624	0.264816
H84	H	1.225592	-0.229009	0.930679
H85	H	0.582680	-0.229031	0.287289
Cl86	Cl	1.120557	-0.875447	0.218559
Cl87	Cl	1.247522	-0.525694	0.491556
H88	H	0.686799	-0.229031	0.287281
H89	H	1.123212	-0.742231	0.249856
Cl90	Cl	1.247593	-0.673385	0.491580
H91	H	1.145533	-0.742064	0.506512
Cl92	Cl	1.021005	-0.525984	0.264735
H93	H	1.043297	-0.374380	0.930596
