data_functionalizedCrystal
_audit_creation_method	'MofGen! by Chris Wilmer'
_symmetry_space_group_name_H-M	'P1'
_symmetry_Int_Tables_number	1
_symmetry_cell_setting	triclinic
loop_
_symmetry_equiv_pos_as_xyz
  x,y,z
_cell_length_a	16.959455
_cell_length_b	21.295417
_cell_length_c	16.959447
_cell_angle_alpha	90.034146
_cell_angle_beta	90.020374
_cell_angle_gamma	90.026722
loop_
_atom_site_label
_atom_site_type_symbol
_atom_site_fract_x
_atom_site_fract_y
_atom_site_fract_z
Zn1	Zn	1.208331	-0.250647	0.447015
Zn2	Zn	1.708331	0.249353	0.947015
Zn3	Zn	1.208231	-0.355924	0.314828
Zn4	Zn	1.708231	0.144076	0.814828
Zn5	Zn	1.076159	-0.250667	0.314839
Zn6	Zn	1.576159	0.249333	0.814839
Zn7	Zn	1.076102	-0.355877	0.446953
Zn8	Zn	1.576102	0.144123	0.946953
O9	O	1.142206	-0.303278	0.380909
O10	O	1.642206	0.196722	0.880909
O11	O	1.318929	-0.264623	0.429502
O12	O	1.818929	0.235377	0.929502
O13	O	1.190694	-0.341989	0.204218
O14	O	1.690694	0.158011	0.704218
O15	O	1.093758	-0.162575	0.332403
O16	O	1.593758	0.337425	0.832403
O17	O	1.318855	-0.341970	0.332385
O18	O	1.818855	0.158030	0.832385
O19	O	1.190864	-0.162560	0.429513
O20	O	1.690864	0.337440	0.929513
O21	O	1.093661	-0.264657	0.204226
O22	O	1.593661	0.235343	0.704226
O23	O	0.965541	-0.264612	0.332342
O24	O	1.465541	0.235388	0.832342
O25	O	1.093660	-0.341890	0.557572
O26	O	1.593660	0.158110	1.057572
O27	O	0.965499	-0.341909	0.429406
O28	O	1.465499	0.158091	0.929406
O29	O	1.190808	-0.264578	0.557618
O30	O	1.690808	0.235422	1.057618
O31	O	1.190638	-0.444007	0.332324
O32	O	1.690638	0.055993	0.832324
O33	O	1.093563	-0.443972	0.429395
O34	O	1.593563	0.056028	0.929395
C35	C	0.936840	-0.303258	0.380869
C36	C	1.436840	0.196742	0.880869
C37	C	0.848983	-0.303264	0.380871
C38	C	1.348983	0.196736	0.880871
C39	C	1.142105	-0.466830	0.380869
C40	C	1.642105	0.033170	0.880869
C41	C	1.142134	-0.536798	0.380878
C42	C	1.642134	-0.036798	0.880878
C43	C	0.477459	-0.343513	0.330314
C44	C	0.977459	0.156487	0.830314
C45	C	0.477556	-0.263096	0.431600
C46	C	0.977556	0.236904	0.931600
C47	C	0.560102	-0.263086	0.431581
C48	C	1.060102	0.236914	0.931581
C49	C	0.601330	-0.303290	0.380928
C50	C	1.101330	0.196710	0.880928
C51	C	0.560012	-0.343505	0.330295
C52	C	1.060012	0.156495	0.830295
C53	C	0.601426	-0.222877	0.482219
C54	C	1.101426	0.277123	0.982219
C55	C	0.683977	-0.222865	0.482202
C56	C	1.183977	0.277135	0.982202
C57	C	0.725207	-0.263067	0.431545
C58	C	1.225207	0.236933	0.931545
C59	C	0.683884	-0.303282	0.380909
C60	C	1.183884	0.196718	0.880909
C61	C	0.725112	-0.343487	0.330256
C62	C	1.225112	0.156513	0.830256
C63	C	0.683790	-0.383700	0.279616
C64	C	1.183790	0.116300	0.779616
C65	C	0.601242	-0.383707	0.279638
C66	C	1.101242	0.116293	0.779638
C67	C	0.807755	-0.263060	0.431523
C68	C	1.307755	0.236940	0.931523
C69	C	0.807665	-0.343479	0.330237
C70	C	1.307665	0.156521	0.830237
C71	C	1.192668	-0.569600	0.431479
C72	C	1.692668	-0.069600	0.931479
C73	C	1.192696	-0.635342	0.431498
C74	C	1.692696	-0.135342	0.931498
C75	C	1.142198	-0.668281	0.380903
C76	C	1.642198	-0.168281	0.880903
C77	C	1.091655	-0.635471	0.330298
C78	C	1.591655	-0.135471	0.830298
C79	C	1.091622	-0.569730	0.330286
C80	C	1.591622	-0.069730	0.830286
N81	N	1.136233	-0.771546	0.311726
N82	N	1.636233	-0.271546	0.811726
N83	N	1.136268	-0.833997	0.311740
N84	N	1.636268	-0.333997	0.811740
C85	C	1.142291	-0.866355	0.380939
C86	C	1.642291	-0.366355	0.880939
N87	N	1.148292	-0.833903	0.450124
N88	N	1.648292	-0.333903	0.950124
N89	N	1.148261	-0.771446	0.450109
N90	N	1.648261	-0.271446	0.950109
C91	C	1.142227	-0.739566	0.380911
C92	C	1.642227	-0.239566	0.880911
C93	C	1.192858	-0.970443	0.431565
C94	C	1.692858	-0.470443	0.931565
C95	C	1.192880	-1.036186	0.431586
C96	C	1.692880	-0.536186	0.931586
C97	C	1.091842	-1.036313	0.330379
C98	C	1.591842	-0.536313	0.830379
C99	C	1.091816	-0.970571	0.330365
C100	C	1.591816	-0.470571	0.830365
C101	C	1.142328	-0.937640	0.380957
C102	C	1.642328	-0.437640	0.880957
C103	C	1.348374	-0.303299	0.380949
C104	C	1.848374	0.196701	0.880949
C105	C	1.436231	-0.303308	0.380966
C106	C	1.936231	0.196692	0.880966
C107	C	1.142239	-0.303226	0.587077
C108	C	1.642239	0.196774	1.087077
C109	C	1.142253	-0.303204	0.674934
C110	C	1.642253	0.196796	1.174934
C111	C	1.142329	-0.139088	0.380966
C112	C	1.642329	0.360912	0.880966
C113	C	1.142381	-0.069120	0.380991
C114	C	1.642381	0.430880	0.880991
C115	C	1.142219	-0.303285	0.175542
C116	C	1.642219	0.196715	0.675542
C117	C	1.142358	-0.303130	0.087686
C118	C	1.642358	0.196870	0.587686
C119	C	1.091767	-0.343390	1.046388
C120	C	1.591767	0.156610	1.546388
C121	C	1.192928	-0.262885	1.046431
C122	C	1.692928	0.237115	1.546431
C123	C	1.192907	-0.262898	0.963885
C124	C	1.692907	0.237102	1.463885
C125	C	1.142316	-0.303159	0.922587
C126	C	1.642316	0.196841	1.422587
C127	C	1.091746	-0.343406	0.963834
C128	C	1.591746	0.156594	1.463834
C129	C	1.243482	-0.222656	0.922631
C130	C	1.743482	0.277344	1.422631
C131	C	1.243463	-0.222668	0.840080
C132	C	1.743463	0.277332	1.340080
C133	C	1.192867	-0.262926	0.798780
C134	C	1.692867	0.237074	1.298780
C135	C	1.142295	-0.303175	0.840033
C136	C	1.642295	0.196825	1.340033
C137	C	1.091704	-0.343436	0.798735
C138	C	1.591704	0.156564	1.298735
C139	C	1.041126	-0.383681	0.839986
C140	C	1.541126	0.116319	1.339986
C141	C	1.041150	-0.383664	0.922534
C142	C	1.541150	0.116336	1.422534
C143	C	1.192844	-0.262943	0.716232
C144	C	1.692844	0.237057	1.216232
C145	C	1.091683	-0.343451	0.716181
C146	C	1.591683	0.156549	1.216181
H147	H	0.717369	-0.416437	0.238379
H148	H	1.217369	0.083563	0.738379
O149	O	1.241994	-0.223795	0.676283
O150	O	1.741994	0.276205	1.176283
C151	C	1.342378	-0.143976	0.685042
C152	C	1.842378	0.356024	1.185042
C153	C	1.286740	-0.188272	0.730381
C154	C	1.786740	0.311728	1.230381
H155	H	1.378581	-0.115252	0.728760
H156	H	1.878581	0.384748	1.228760
H157	H	1.306143	-0.111019	0.646429
H158	H	1.806143	0.388981	1.146429
H159	H	1.383638	-0.172900	0.646362
H160	H	1.883638	0.327100	1.146362
H161	H	1.245468	-0.159398	0.769103
H162	H	1.745468	0.340602	1.269103
H163	H	1.323024	-0.221230	0.768943
H164	H	1.823024	0.278770	1.268943
O165	O	1.042626	-0.382654	0.676100
O166	O	1.542626	0.117346	1.176100
C167	C	1.004147	-0.489733	0.650829
C168	C	1.504147	0.010267	1.150829
C169	C	1.059762	-0.445408	0.696257
C170	C	1.559762	0.054592	1.196257
H171	H	1.017971	-0.540478	0.667122
H172	H	1.517971	-0.040478	1.167122
H173	H	1.012827	-0.482889	0.584734
H174	H	1.512827	0.017111	1.084734
H175	H	0.940427	-0.478638	0.667041
H176	H	1.440427	0.021362	1.167041
H177	H	1.123504	-0.456475	0.680110
H178	H	1.623504	0.043525	1.180110
H179	H	1.051014	-0.452260	0.762341
H180	H	1.551014	0.047740	1.262341
O181	O	1.241742	-0.667151	0.480766
O182	O	1.741742	-0.167151	0.980766
C183	C	1.279989	-0.687205	0.615264
C184	C	1.779989	-0.187205	1.115264
C185	C	1.224415	-0.651132	0.559556
C186	C	1.724415	-0.151132	1.059556
H187	H	1.265990	-0.674277	0.678978
H188	H	1.765990	-0.174277	1.178978
H189	H	1.343745	-0.674240	0.601516
H190	H	1.843745	-0.174240	1.101516
H191	H	1.271340	-0.739844	0.606536
H192	H	1.771340	-0.239844	1.106536
H193	H	1.232995	-0.598485	0.568253
H194	H	1.732995	-0.098485	1.068253
H195	H	1.160680	-0.664149	0.573319
H196	H	1.660680	-0.164149	1.073319
O197	O	0.992076	-0.422884	0.799896
O198	O	1.492076	0.077116	1.299896
C199	C	0.953612	-0.529963	0.774606
C200	C	1.453612	-0.029963	1.274606
C201	C	1.009214	-0.485638	0.820049
C202	C	1.509214	0.014362	1.320049
H203	H	0.967437	-0.580709	0.790896
H204	H	1.467437	-0.080709	1.290896
H205	H	0.962303	-0.523114	0.708514
H206	H	1.462303	-0.023114	1.208514
H207	H	0.889887	-0.518874	0.790808
H208	H	1.389887	-0.018874	1.290808
H209	H	1.072960	-0.496701	0.803913
H210	H	1.572960	0.003299	1.303913
H211	H	1.000455	-0.492496	0.886131
H212	H	1.500455	0.007504	1.386131
H213	H	1.233985	-0.943629	0.472763
H214	H	1.733985	-0.443629	0.972763
O215	O	1.241619	-0.537544	0.480668
O216	O	1.741619	-0.037544	0.980668
C217	C	1.252146	-0.463287	0.587424
C218	C	1.752146	0.036713	1.087424
C219	C	1.196624	-0.499540	0.531752
C220	C	1.696624	0.000460	1.031752
H221	H	1.215789	-0.432562	0.628749
H222	H	1.715789	0.067438	1.128749
H223	H	1.293474	-0.432458	0.551217
H224	H	1.793474	0.067542	1.051217
H225	H	1.288284	-0.498043	0.623556
H226	H	1.788284	0.001957	1.123556
H227	H	1.160434	-0.464830	0.495607
H228	H	1.660434	0.035170	0.995607
H229	H	1.155348	-0.530379	0.568004
H230	H	1.655348	-0.030379	1.068004
O231	O	0.561257	-0.183844	0.531344
O232	O	1.061257	0.316156	1.031344
C233	C	0.434124	-0.148241	0.576283
C234	C	0.934124	0.351759	1.076283
C235	C	0.479521	-0.192470	0.520596
C236	C	0.979521	0.307530	1.020596
H237	H	0.368032	-0.155209	0.567624
H238	H	0.868032	0.344791	1.067624
H239	H	0.450311	-0.097454	0.562515
H240	H	0.950311	0.402546	1.062515
H241	H	0.450427	-0.159349	0.639983
H242	H	0.950427	0.340651	1.139983
H243	H	0.463242	-0.181419	0.456877
H244	H	0.963242	0.318581	0.956877
H245	H	0.463329	-0.243244	0.534431
H246	H	0.963329	0.256756	1.034431
H247	H	1.050537	-0.662293	0.289105
H248	H	1.550537	-0.162293	0.789105
H249	H	1.284646	-0.189898	0.806501
H250	H	1.784646	0.310102	1.306501
H251	H	0.717614	-0.190121	0.523436
H252	H	1.217614	0.309879	1.023436
H253	H	1.050471	-0.543022	0.289080
H254	H	1.550471	-0.043022	0.789080
H255	H	0.567590	-0.416446	0.238408
H256	H	1.067590	0.083554	0.738408
O257	O	1.042857	-1.068399	0.281260
O258	O	1.542857	-0.568399	0.781260
C259	C	0.998078	-1.169733	0.236474
C260	C	1.498078	-0.669733	0.736474
C261	C	1.053615	-1.133472	0.292123
C262	C	1.553615	-0.633472	0.792123
H263	H	1.006744	-1.222351	0.245249
H264	H	1.506744	-0.722351	0.745249
H265	H	1.011988	-1.156887	0.172729
H266	H	1.511988	-0.656887	0.672729
H267	H	0.934338	-1.156800	0.250286
H268	H	1.434338	-0.656800	0.750286
H269	H	1.117373	-1.146385	0.278382
H270	H	1.617373	-0.646385	0.778382
H271	H	1.039636	-1.146321	0.355851
H272	H	1.539636	-0.646321	0.855851
H273	H	1.234031	-1.062893	0.472795
H274	H	1.734031	-0.562893	0.972795
H275	H	1.050670	-0.943862	0.289157
H276	H	1.550670	-0.443862	0.789157
O277	O	1.292513	-0.183488	0.962786
O278	O	1.792513	0.316512	1.462786
C279	C	1.303241	-0.098518	1.056074
C280	C	1.803241	0.401482	1.556074
C281	C	1.247620	-0.142825	1.010628
C282	C	1.747620	0.357175	1.510628
H283	H	1.266969	-0.065639	1.094778
H284	H	1.766969	0.434361	1.594778
H285	H	1.339378	-0.069711	1.012454
H286	H	1.839378	0.430289	1.512454
H287	H	1.344566	-0.127437	1.094678
H288	H	1.844566	0.372563	1.594678
H289	H	1.206248	-0.113955	0.972022
H290	H	1.706248	0.386045	1.472022
H291	H	1.211539	-0.171634	1.054291
H292	H	1.711539	0.328366	1.554291
O293	O	0.992099	-0.422737	0.962728
O294	O	1.492099	0.077263	1.462728
C295	C	0.947269	-0.458362	1.089882
C296	C	1.447269	0.041638	1.589882
C297	C	1.002870	-0.414092	1.044459
C298	C	1.502870	0.085908	1.544459
H299	H	0.955946	-0.451378	1.155969
H300	H	1.455946	0.048622	1.655969
H301	H	0.961105	-0.509139	1.073690
H302	H	1.461105	-0.009139	1.573690
H303	H	0.883545	-0.447309	1.073606
H304	H	1.383545	0.052691	1.573606
H305	H	1.066612	-0.425087	1.060710
H306	H	1.566612	0.074913	1.560710
H307	H	0.988965	-0.363327	1.060654
H308	H	1.488965	0.136673	1.560654
O309	O	1.241999	-0.223801	1.086667
O310	O	1.741999	0.276199	1.586667
C311	C	1.286906	-0.188134	1.213861
C312	C	1.786906	0.311866	1.713861
C313	C	1.231278	-0.232419	1.168388
C314	C	1.731278	0.267581	1.668388
H315	H	1.278270	-0.195096	1.279940
H316	H	1.778270	0.304904	1.779940
H317	H	1.273060	-0.137362	1.197716
H318	H	1.773060	0.362638	1.697716
H319	H	1.350620	-0.199192	1.197580
H320	H	1.850620	0.300808	1.697580
H321	H	1.167545	-0.221418	1.184644
H322	H	1.667545	0.278582	1.684644
H323	H	1.245192	-0.283178	1.184537
H324	H	1.745192	0.216822	1.684537
H325	H	0.841227	-0.376217	0.288987
H326	H	1.341227	0.123783	0.788987
O327	O	1.042713	-0.382463	1.086576
O328	O	1.542713	0.117537	1.586576
C329	C	0.997865	-0.418091	1.213723
C330	C	1.497865	0.081909	1.713723
C331	C	1.053471	-0.373819	1.168309
C332	C	1.553471	0.126181	1.668309
H333	H	1.006532	-0.411108	1.279812
H334	H	1.506532	0.088892	1.779812
H335	H	1.011705	-0.468868	1.197532
H336	H	1.511705	0.031132	1.697532
H337	H	0.934143	-0.407039	1.197438
H338	H	1.434143	0.092961	1.697438
H339	H	1.117212	-0.384815	1.184570
H340	H	1.617212	0.115185	1.684570
H341	H	1.039564	-0.323055	1.184504
H342	H	1.539564	0.176945	1.684504
H343	H	0.443811	-0.376252	0.289081
H344	H	0.943811	0.123748	0.789081
H345	H	0.443983	-0.230367	0.472843
H346	H	0.943983	0.269633	0.972843
O347	O	0.847772	-0.223946	0.480738
O348	O	1.347772	0.276054	0.980738
C349	C	0.839153	-0.144223	0.581252
C350	C	1.339153	0.355777	1.081252
C351	C	0.793737	-0.188479	0.525540
C352	C	1.293737	0.311521	1.025540
H353	H	0.795485	-0.115545	0.617501
H354	H	1.295485	0.384455	1.117501
H355	H	0.877772	-0.111222	0.545074
H356	H	1.377772	0.388778	1.045074
H357	H	0.877833	-0.173176	0.622467
H358	H	1.377833	0.326824	1.122467
H359	H	0.755013	-0.159576	0.484313
H360	H	1.255013	0.340424	0.984313
H361	H	0.755168	-0.221482	0.561767
H362	H	1.255168	0.278518	1.061767
