data_functionalizedCrystal
_audit_creation_method	'MofGen! by Chris Wilmer'
_symmetry_space_group_name_H-M	'P1'
_symmetry_Int_Tables_number	1
_symmetry_cell_setting	triclinic
loop_
_symmetry_equiv_pos_as_xyz
  x,y,z
_cell_length_a	12.759401
_cell_length_b	13.031981
_cell_length_c	12.759393
_cell_angle_alpha	82.783445
_cell_angle_beta	89.980198
_cell_angle_gamma	97.191042
loop_
_atom_site_label
_atom_site_type_symbol
_atom_site_fract_x
_atom_site_fract_y
_atom_site_fract_z
Zn1	Zn	1.553150	-0.416091	-0.540807
Zn2	Zn	1.530726	-0.590903	-0.342784
Zn3	Zn	1.377443	-0.416139	-0.365139
Zn4	Zn	1.355136	-0.590822	-0.518434
O5	O	1.454114	-0.503488	-0.441791
O6	O	1.697195	-0.439293	-0.514545
O7	O	1.510344	-0.567774	-0.198721
O8	O	1.419471	-0.269867	-0.407160
O9	O	1.680720	-0.567727	-0.369059
O10	O	1.548563	-0.269832	-0.536223
O11	O	1.397727	-0.439375	-0.215146
O12	O	1.227465	-0.439297	-0.385467
O13	O	1.381452	-0.567590	-0.668430
O14	O	1.211076	-0.567636	-0.498093
O15	O	1.526932	-0.439215	-0.684867
O16	O	1.488713	-0.737157	-0.347365
O17	O	1.359708	-0.737098	-0.476415
C18	C	1.181150	-0.503464	-0.441779
C19	C	1.064371	-0.503479	-0.441795
C20	C	0.908333	-0.436749	-0.517642
C21	C	1.018059	-0.436728	-0.517638
C22	C	1.000949	-0.570262	-0.365958
C23	C	0.891224	-0.570287	-0.365968
C24	C	1.419385	-0.775052	-0.407060
C25	C	1.404624	-0.891228	-0.392237
C26	C	1.461874	-0.942923	-0.449548
C27	C	1.446619	-1.062997	-0.434229
C28	C	1.728144	-0.503514	-0.441804
C29	C	1.844919	-0.503524	-0.441809
C30	C	1.454205	-0.503388	-0.715837
C31	C	1.454244	-0.503345	-0.832619
C32	C	1.489007	-0.230864	-0.476681
C33	C	1.503876	-0.114688	-0.491549
C34	C	1.530002	-0.436490	-0.896043
C35	C	1.530026	-0.436445	-1.005773
C36	C	1.378529	-0.570120	-0.988645
C37	C	1.378502	-0.570159	-0.878918
C38	C	1.454093	-0.503513	-0.168820
C39	C	1.454295	-0.503261	-0.052076
H40	H	1.038664	-0.624616	-0.304209
O41	O	0.863183	-0.371939	-0.591215
C42	C	0.701726	-0.312843	-0.658501
C43	C	0.752717	-0.386273	-0.575100
H44	H	0.612404	-0.324422	-0.645515
H45	H	0.733979	-0.228512	-0.650977
H46	H	0.721048	-0.331287	-0.740812
H47	H	0.733415	-0.367923	-0.492752
H48	H	0.720462	-0.470582	-0.582718
H49	H	1.522177	-0.898288	-0.509960
O50	O	1.304953	-0.635009	-0.817150
C51	C	1.237816	-0.694349	-0.640509
C52	C	1.321151	-0.620844	-0.710337
H53	H	1.250896	-0.682937	-0.554135
H54	H	1.155432	-0.675975	-0.664342
H55	H	1.245470	-0.778614	-0.651359
H56	H	1.313594	-0.536555	-0.699523
H57	H	1.403501	-0.639307	-0.686488
O58	O	1.079537	-0.371911	-0.591440
C59	C	1.119677	-0.321412	-0.776693
C60	C	1.049966	-0.394868	-0.693219
H61	H	1.095810	-0.339962	-0.859000
H62	H	1.108841	-0.237098	-0.769250
H63	H	1.206053	-0.332843	-0.763613
H64	H	0.963565	-0.383530	-0.706246
H65	H	1.060893	-0.479155	-0.700684
H66	H	0.839589	-0.624670	-0.304214
O67	O	1.305099	-0.635135	-1.033655
C68	C	1.272936	-0.776164	-1.139530
C69	C	1.356205	-0.702613	-1.088596
H70	H	1.314224	-0.830724	-1.183981
H71	H	1.218790	-0.824031	-1.075387
H72	H	1.224141	-0.728130	-1.196994
H73	H	1.405074	-0.750566	-1.031141
H74	H	1.410277	-0.654743	-1.152797
H75	H	1.386303	-1.107630	-0.373823
H76	H	1.564184	-1.070056	-0.551965
O77	O	1.603723	-0.371471	-1.067224
C78	C	1.753948	-0.238848	-1.072630
C79	C	1.670560	-0.312400	-1.002912
H80	H	1.807994	-0.191054	-1.020666
H81	H	1.802827	-0.286772	-1.117848
H82	H	1.712701	-0.184212	-1.131011
H83	H	1.711720	-0.367051	-0.944473
H84	H	1.621686	-0.264410	-0.957769
O85	O	1.332607	-0.944584	-0.320301
C86	C	1.175148	-1.068043	-0.290413
C87	C	1.256650	-1.007707	-0.371987
H88	H	1.113703	-1.119076	-0.332172
H89	H	1.216895	-1.119228	-0.229052
H90	H	1.134468	-1.010426	-0.249624
H91	H	1.297355	-1.065249	-0.412853
H92	H	1.214844	-0.956506	-0.433280
H93	H	1.591674	-0.382084	-0.858351
