data_functionalizedCrystal
_audit_creation_method	'MofGen! by Chris Wilmer'
_symmetry_space_group_name_H-M	'P1'
_symmetry_Int_Tables_number	1
_symmetry_cell_setting	triclinic
loop_
_symmetry_equiv_pos_as_xyz
  x,y,z
_cell_length_a	10.654550
_cell_length_b	14.586319
_cell_length_c	10.654551
_cell_angle_alpha	90.002027
_cell_angle_beta	84.485180
_cell_angle_gamma	90.000265
loop_
_atom_site_label
_atom_site_type_symbol
_atom_site_fract_x
_atom_site_fract_y
_atom_site_fract_z
O1	O	1.667840	0.076168	0.176397
O2	O	2.167840	0.576168	0.676397
O3	O	1.302362	0.076184	0.193203
O4	O	1.802362	0.576184	0.693203
O5	O	1.493503	0.076174	0.002061
O6	O	1.993503	0.576174	0.502061
O7	O	1.476699	0.076179	0.367540
O8	O	1.976699	0.576179	0.867540
O9	O	1.493490	-0.076307	0.002058
O10	O	1.993490	0.423693	0.502058
O11	O	1.302349	-0.076296	0.193200
O12	O	1.802349	0.423704	0.693200
O13	O	1.667827	-0.076313	0.176394
O14	O	2.167827	0.423687	0.676394
Cu15	Cu	1.485086	-0.090227	0.184797
Cu16	Cu	1.985086	0.409773	0.684797
Cu17	Cu	1.485102	0.090099	0.184801
Cu18	Cu	1.985102	0.590099	0.684801
O19	O	1.476685	-0.076302	0.367537
O20	O	1.976685	0.423698	0.867537
C21	C	1.255557	-0.000054	0.191968
C22	C	1.755557	0.499946	0.691968
C23	C	1.116114	-0.000047	0.188276
C24	C	1.616114	0.499953	0.688276
N25	N	1.485084	-0.217059	0.184794
N26	N	1.985084	0.282941	0.684794
C27	C	1.036629	-0.000049	0.300818
C28	C	1.536629	0.499951	0.800818
C29	C	0.905608	-0.000065	0.297341
C30	C	1.405608	0.499935	0.797341
C31	C	0.933570	-0.000074	0.068772
C32	C	1.433570	0.499926	0.568772
C33	C	1.064589	-0.000065	0.072249
C34	C	1.564589	0.499935	0.572249
C35	C	1.569750	-0.452070	0.100185
C36	C	2.069750	0.047930	0.600185
C37	C	1.569754	-0.548051	0.100182
C38	C	2.069754	-0.048051	0.600182
C39	C	1.400439	-0.548051	0.269407
C40	C	1.900439	-0.048051	0.769407
C41	C	1.400431	-0.452072	0.269403
C42	C	1.900431	0.047928	0.769403
C43	C	1.485093	-0.404084	0.184793
C44	C	1.985093	0.095916	0.684793
C45	C	1.485105	-0.596045	0.184794
C46	C	1.985105	-0.096045	0.684794
C47	C	1.485109	-0.700112	0.184792
C48	C	1.985109	-0.200112	0.684792
C49	C	1.485089	-0.300010	0.184794
C50	C	1.985089	0.199990	0.684794
C51	C	1.714632	-0.000072	0.177630
C52	C	2.214632	0.499928	0.677630
C53	C	1.854075	-0.000073	0.181322
C54	C	2.354075	0.499927	0.681322
C55	C	1.492262	-0.000065	-0.044738
C56	C	1.992262	0.499935	0.455262
C57	C	1.488570	-0.000061	-0.184181
C58	C	1.988570	0.499939	0.315819
N59	N	1.485114	0.216931	0.184794
N60	N	1.985114	0.716931	0.684794
C61	C	1.486844	0.083058	-0.249684
C62	C	1.986844	0.583058	0.250316
C63	C	1.483364	0.083059	-0.380704
C64	C	1.983364	0.583059	0.119296
C65	C	1.483341	-0.083184	-0.380709
C66	C	1.983341	0.416816	0.119291
C67	C	1.486812	-0.083184	-0.249690
C68	C	1.986812	0.416816	0.250310
C69	C	1.477926	-0.000061	0.414336
C70	C	1.977926	0.499939	0.914336
C71	C	1.481619	-0.000060	0.553779
C72	C	1.981619	0.499940	1.053779
H73	H	1.078576	-0.000041	0.395294
H74	H	1.578576	0.499959	0.895294
Cl75	Cl	0.868785	-0.000091	-0.077082
Cl76	Cl	1.368785	0.499909	0.422918
H77	H	1.129309	-0.000067	-0.019401
H78	H	1.629309	0.499933	0.480599
H79	H	0.840896	-0.000067	0.388984
H80	H	1.340896	0.499933	0.888984
H81	H	1.638686	-0.413000	0.031289
H82	H	2.138686	0.087000	0.531289
H83	H	1.331486	-0.412999	0.338302
H84	H	1.831486	0.087001	0.838302
Cl85	Cl	1.676182	-0.608375	-0.006190
Cl86	Cl	2.176182	-0.108375	0.493810
H87	H	1.331510	-0.587133	0.338296
H88	H	1.831510	-0.087133	0.838296
Cl89	Cl	1.489047	0.187556	-0.167333
Cl90	Cl	1.989047	0.687556	0.332667
Cl91	Cl	1.481192	0.187555	-0.463044
Cl92	Cl	1.981192	0.687555	0.036956
Cl93	Cl	1.481132	-0.187677	-0.463072
Cl94	Cl	1.981132	0.312323	0.036928
Cl95	Cl	1.488967	-0.187685	-0.167336
Cl96	Cl	1.988967	0.312315	0.332664
