data_functionalizedCrystal
_audit_creation_method	'MofGen! by Chris Wilmer'
_symmetry_space_group_name_H-M	'P1'
_symmetry_Int_Tables_number	1
_symmetry_cell_setting	triclinic
loop_
_symmetry_equiv_pos_as_xyz
  x,y,z
_cell_length_a	21.295419
_cell_length_b	21.295419
_cell_length_c	21.295411
_cell_angle_alpha	89.995824
_cell_angle_beta	90.025287
_cell_angle_gamma	89.981383
loop_
_atom_site_label
_atom_site_type_symbol
_atom_site_fract_x
_atom_site_fract_y
_atom_site_fract_z
Zn1	Zn	-0.962480	-0.250403	-0.356000
Zn2	Zn	-0.629147	0.082931	-0.022667
Zn3	Zn	-0.295813	0.416264	0.310667
Zn4	Zn	-0.962435	-0.355655	-0.250758
Zn5	Zn	-0.629101	-0.022321	0.082576
Zn6	Zn	-0.295768	0.311012	0.415909
Zn7	Zn	-0.857203	-0.250434	-0.250744
Zn8	Zn	-0.523870	0.082900	0.082590
Zn9	Zn	-0.190536	0.416233	0.415923
Zn10	Zn	-0.857225	-0.355668	-0.355988
Zn11	Zn	-0.523891	-0.022335	-0.022655
Zn12	Zn	-0.190558	0.310998	0.310679
O13	O	-0.909836	-0.303040	-0.303372
O14	O	-0.576502	0.030294	0.029961
O15	O	-0.243169	0.363627	0.363294
O16	O	-1.050563	-0.264346	-0.342050
O17	O	-0.717230	0.068987	-0.008717
O18	O	-0.383897	0.402321	0.324616
O19	O	-0.948447	-0.341704	-0.162666
O20	O	-0.615114	-0.008371	0.170667
O21	O	-0.281781	0.324963	0.504000
O22	O	-0.871178	-0.162340	-0.264706
O23	O	-0.537845	0.170993	0.068628
O24	O	-0.204512	0.504327	0.401961
O25	O	-1.050530	-0.341674	-0.264729
O26	O	-0.717197	-0.008341	0.068604
O27	O	-0.383863	0.324993	0.401938
O28	O	-0.948525	-0.162317	-0.342037
O29	O	-0.615191	0.171016	-0.008704
O30	O	-0.281858	0.504349	0.324630
O31	O	-0.871134	-0.264398	-0.162656
O32	O	-0.537801	0.068935	0.170677
O33	O	-0.204468	0.402268	0.504010
O34	O	-0.769117	-0.264412	-0.264694
O35	O	-0.435783	0.068921	0.068640
O36	O	-0.102450	0.402255	0.401973
O37	O	-0.871215	-0.341697	-0.444079
O38	O	-0.537882	-0.008364	-0.110746
O39	O	-0.204548	0.324969	0.222588
O40	O	-0.769133	-0.341727	-0.342016
O41	O	-0.435799	-0.008394	-0.008683
O42	O	-0.102466	0.324939	0.324650
O43	O	-0.948546	-0.264359	-0.444088
O44	O	-0.615212	0.068974	-0.110755
O45	O	-0.281879	0.402307	0.222579
O46	O	-0.948468	-0.443746	-0.264717
O47	O	-0.615135	-0.110412	0.068616
O48	O	-0.281802	0.222921	0.401949
O49	O	-0.871171	-0.443756	-0.342030
O50	O	-0.537838	-0.110423	-0.008696
O51	O	-0.204505	0.222911	0.324637
C52	C	-0.746284	-0.303075	-0.303353
C53	C	-0.412951	0.030258	0.029981
C54	C	-0.079617	0.363592	0.363314
C55	C	-0.676316	-0.303105	-0.303359
C56	C	-0.342983	0.030228	0.029974
C57	C	-0.009649	0.363561	0.363308
C58	C	-0.643489	-0.262907	-0.343682
C59	C	-0.310156	0.070426	-0.010349
C60	C	0.023178	0.403759	0.322985
C61	C	-0.577747	-0.262892	-0.343684
C62	C	-0.244413	0.070441	-0.010350
C63	C	0.088920	0.403774	0.322983
C64	C	-0.544833	-0.303087	-0.303369
C65	C	-0.211500	0.030247	0.029965
C66	C	0.121833	0.363580	0.363298
C67	C	-0.577668	-0.343287	-0.263038
C68	C	-0.244335	-0.009954	0.070295
C69	C	0.088999	0.323379	0.403629
C70	C	-0.643409	-0.343297	-0.263033
C71	C	-0.310076	-0.009963	0.070300
C72	C	0.023257	0.323370	0.403634
N73	N	-0.441585	-0.358167	-0.298465
N74	N	-0.108252	-0.024834	0.034869
N75	N	0.225081	0.308500	0.368202
N76	N	-0.379134	-0.358157	-0.298473
N77	N	-0.045801	-0.024823	0.034860
N78	N	0.287533	0.308510	0.368194
C79	C	-0.346759	-0.303060	-0.303380
C80	C	-0.013425	0.030273	0.029953
C81	C	0.319908	0.363606	0.363287
N82	N	-0.379194	-0.247974	-0.308291
N83	N	-0.045861	0.085360	0.025042
N84	N	0.287472	0.418693	0.358376
N85	N	-0.441651	-0.247985	-0.308286
N86	N	-0.108318	0.085348	0.025047
N87	N	0.225015	0.418682	0.358381
C88	C	-0.473548	-0.303081	-0.303369
C89	C	-0.140215	0.030253	0.029964
C90	C	0.193119	0.363586	0.363297
C91	C	-0.242646	-0.262843	-0.343707
C92	C	0.090687	0.070491	-0.010374
C93	C	0.424020	0.403824	0.322960
C94	C	-0.176903	-0.262827	-0.343704
C95	C	0.156431	0.070507	-0.010371
C96	C	0.489764	0.403840	0.322963
C97	C	-0.176825	-0.343227	-0.263062
C98	C	0.156508	-0.009894	0.070272
C99	C	0.489841	0.323439	0.403605
C100	C	-0.242568	-0.343238	-0.263061
C101	C	0.090765	-0.009904	0.070272
C102	C	0.424099	0.323429	0.403605
C103	C	-0.275474	-0.303046	-0.303387
C104	C	0.057859	0.030287	0.029946
C105	C	0.391192	0.363620	0.363279
C106	C	-0.909834	-0.466591	-0.303387
C107	C	-0.576501	-0.133258	0.029946
C108	C	-0.243168	0.200075	0.363279
C109	C	-0.909891	-0.536559	-0.303415
C110	C	-0.576558	-0.203226	0.029918
C111	C	-0.243225	0.130107	0.363252
C112	C	-0.909888	-0.303026	-0.467563
C113	C	-0.576555	0.030307	-0.134229
C114	C	-0.243221	0.363640	0.199104
C115	C	-0.909910	-0.303021	-0.537531
C116	C	-0.576577	0.030313	-0.204198
C117	C	-0.243243	0.363646	0.129136
C118	C	-0.074026	-0.303013	-0.303389
C119	C	0.259307	0.030321	0.029944
C120	C	0.592641	0.363654	0.363277
C121	C	-0.143994	-0.303021	-0.303388
C122	C	0.189339	0.030313	0.029945
C123	C	0.522673	0.363646	0.363278
C124	C	-0.909854	-0.138850	-0.303371
C125	C	-0.576521	0.194484	0.029962
C126	C	-0.243187	0.527817	0.363296
C127	C	-0.909862	-0.068881	-0.303371
C128	C	-0.576529	0.264452	0.029963
C129	C	-0.243195	0.597785	0.363296
C130	C	-0.869599	-0.036026	-0.263109
C131	C	-0.536266	0.297308	0.070224
C132	C	-0.202932	0.630641	0.403558
C133	C	-0.869598	0.029717	-0.263117
C134	C	-0.536265	0.363050	0.070217
C135	C	-0.202932	0.696384	0.403550
C136	C	-0.909872	0.062601	-0.303379
C137	C	-0.576538	0.395934	0.029954
C138	C	-0.243205	0.729268	0.363288
C139	C	-0.950137	0.029737	-0.343648
C140	C	-0.616804	0.363071	-0.010315
C141	C	-0.283471	0.696404	0.323019
C142	C	-0.950132	-0.036004	-0.343644
C143	C	-0.616799	0.297329	-0.010311
C144	C	-0.283466	0.630663	0.323023
N145	N	-0.964983	0.165835	-0.308219
N146	N	-0.631649	0.499168	0.025114
N147	N	-0.298316	0.832502	0.358447
N148	N	-0.964985	0.228286	-0.308220
N149	N	-0.631652	0.561620	0.025114
N150	N	-0.298319	0.894953	0.358447
C151	C	-0.909887	0.260676	-0.303395
C152	C	-0.576554	0.594009	0.029938
C153	C	-0.243221	0.927342	0.363272
N154	N	-0.854785	0.228255	-0.298558
N155	N	-0.521452	0.561588	0.034776
N156	N	-0.188119	0.894921	0.368109
N157	N	-0.854783	0.165797	-0.298554
N158	N	-0.521450	0.499131	0.034779
N159	N	-0.188117	0.832464	0.368113
C160	C	-0.909881	0.133886	-0.303388
C161	C	-0.576548	0.467220	0.029945
C162	C	-0.243214	0.800553	0.363278
C163	C	-0.869620	0.364817	-0.263140
C164	C	-0.536287	0.698151	0.070194
C165	C	-0.202954	1.031484	0.403527
C166	C	-0.869618	0.430561	-0.263151
C167	C	-0.536285	0.763894	0.070182
C168	C	-0.202952	1.097228	0.403515
C169	C	-0.950163	0.430580	-0.343680
C170	C	-0.616830	0.763913	-0.010346
C171	C	-0.283496	1.097247	0.322987
C172	C	-0.950159	0.364838	-0.343671
C173	C	-0.616826	0.698171	-0.010338
C174	C	-0.283493	1.031504	0.322996
C175	C	-0.909889	0.331960	-0.303398
C176	C	-0.576555	0.665293	0.029936
C177	C	-0.243222	0.998627	0.363269
C178	C	-0.950174	-0.262749	-0.570403
C179	C	-0.616841	0.070584	-0.237070
C180	C	-0.283508	0.403918	0.096264
C181	C	-0.950173	-0.262722	-0.636146
C182	C	-0.616840	0.070612	-0.302812
C183	C	-0.283507	0.403945	0.030521
C184	C	-0.909915	-0.302977	-0.669013
C185	C	-0.576582	0.030356	-0.335680
C186	C	-0.243248	0.363689	-0.002347
C187	C	-0.869643	-0.343252	-0.636133
C188	C	-0.536310	-0.009919	-0.302800
C189	C	-0.202976	0.323415	0.030533
C190	C	-0.869640	-0.343274	-0.570392
C191	C	-0.536307	-0.009940	-0.237059
C192	C	-0.202974	0.323393	0.096275
N193	N	-0.905086	-0.358047	-0.772246
N194	N	-0.571752	-0.024713	-0.438912
N195	N	-0.238419	0.308620	-0.105579
N196	N	-0.905092	-0.358024	-0.834697
N197	N	-0.571758	-0.024691	-0.501364
N198	N	-0.238425	0.308642	-0.168030
C199	C	-0.909919	-0.302914	-0.867088
C200	C	-0.576586	0.030420	-0.533755
C201	C	-0.243252	0.363753	-0.200422
N202	N	-0.914752	-0.247825	-0.834669
N203	N	-0.581419	0.085508	-0.501335
N204	N	-0.248086	0.418842	-0.168002
N205	N	-0.914750	-0.247848	-0.772211
N206	N	-0.581416	0.085485	-0.438878
N207	N	-0.248083	0.418819	-0.105545
C208	C	-0.909913	-0.302958	-0.740299
C209	C	-0.576580	0.030375	-0.406965
C210	C	-0.243246	0.363709	-0.073632
C211	C	-0.950184	-0.262609	-0.971246
C212	C	-0.616851	0.070725	-0.637913
C213	C	-0.283518	0.404058	-0.304579
C214	C	-0.950179	-0.262580	-1.036990
C215	C	-0.616846	0.070753	-0.703657
C216	C	-0.283512	0.404086	-0.370323
C217	C	-0.869652	-0.343117	-1.036976
C218	C	-0.536318	-0.009783	-0.703643
C219	C	-0.202985	0.323550	-0.370309
C220	C	-0.869654	-0.343139	-0.971234
C221	C	-0.536320	-0.009806	-0.637900
C222	C	-0.202987	0.323527	-0.304567
C223	C	-0.909923	-0.302886	-0.938373
C224	C	-0.576590	0.030447	-0.605039
C225	C	-0.243257	0.363780	-0.271706
C226	C	-0.909820	-0.303008	-0.139821
C227	C	-0.576486	0.030326	0.193513
C228	C	-0.243153	0.363659	0.526846
C229	C	-0.909919	-0.302836	-0.069853
C230	C	-0.576586	0.030497	0.263480
C231	C	-0.243253	0.363831	0.596814
H232	H	-0.150176	-0.230089	-0.376539
H233	H	0.183157	0.103244	-0.043206
H234	H	0.516491	0.436578	0.290128
H235	H	-0.836862	-0.376027	-0.662898
H236	H	-0.503529	-0.042693	-0.329565
H237	H	-0.170196	0.290640	0.003768
H238	H	-0.836827	0.338047	-0.230350
H239	H	-0.503493	0.671380	0.102984
H240	H	-0.170160	1.004714	0.436317
C241	C	-0.833851	0.130489	-0.227366
C242	C	-0.500518	0.463823	0.105968
C243	C	-0.167185	0.797156	0.439301
C244	C	-0.825341	0.065843	-0.218856
C245	C	-0.492008	0.399177	0.114477
C246	C	-0.158674	0.732510	0.447810
H247	H	-0.806526	0.152789	-0.200043
H248	H	-0.473193	0.486123	0.133290
H249	H	-0.139860	0.819456	0.466624
H250	H	-0.876141	0.141267	-0.218163
H251	H	-0.542808	0.474600	0.115170
H252	H	-0.209475	0.807933	0.448503
H253	H	-0.824647	0.141255	-0.269661
H254	H	-0.491314	0.474588	0.063672
H255	H	-0.157980	0.807921	0.397005
H256	H	-0.834550	0.055077	-0.176561
H257	H	-0.501217	0.388410	0.156772
H258	H	-0.167883	0.721744	0.490105
H259	H	-0.783041	0.055061	-0.228054
H260	H	-0.449708	0.388395	0.105279
H261	H	-0.116375	0.721728	0.438612
C262	C	-0.985886	-0.136771	-0.379392
C263	C	-0.652553	0.196563	-0.046059
C264	C	-0.319220	0.529896	0.287275
C265	C	-0.994394	-0.072124	-0.387900
C266	C	-0.661061	0.261209	-0.054567
C267	C	-0.327728	0.594543	0.278767
H268	H	-1.013210	-0.159069	-0.406717
H269	H	-0.679877	0.174264	-0.073383
H270	H	-0.346544	0.507598	0.259950
H271	H	-0.995088	-0.147536	-0.337102
H272	H	-0.661754	0.185797	-0.003769
H273	H	-0.328421	0.519131	0.329565
H274	H	-0.943591	-0.147550	-0.388598
H275	H	-0.610258	0.185784	-0.055265
H276	H	-0.276925	0.519117	0.278069
H277	H	-1.036689	-0.061344	-0.378689
H278	H	-0.703355	0.271989	-0.045356
H279	H	-0.370022	0.605323	0.287977
H280	H	-0.985197	-0.061354	-0.430200
H281	H	-0.651864	0.271979	-0.096866
H282	H	-0.318531	0.605313	0.236467
C283	C	-0.860899	-0.427840	-0.897319
C284	C	-0.527565	-0.094507	-0.563986
C285	C	-0.194232	0.238827	-0.230653
C286	C	-0.825399	-0.387413	-0.935096
C287	C	-0.492066	-0.054080	-0.601762
C288	C	-0.158732	0.279253	-0.268429
H289	H	-0.833573	-0.455170	-0.875008
H290	H	-0.500240	-0.121837	-0.541674
H291	H	-0.166907	0.211497	-0.208341
H292	H	-0.888317	-0.451903	-0.922984
H293	H	-0.554984	-0.118569	-0.589650
H294	H	-0.221650	0.214764	-0.256317
H295	H	-0.884873	-0.403862	-0.868340
H296	H	-0.551540	-0.070529	-0.535006
H297	H	-0.218206	0.262805	-0.201673
H298	H	-0.801428	-0.411391	-0.964079
H299	H	-0.468095	-0.078058	-0.630745
H300	H	-0.134761	0.255275	-0.297412
H301	H	-0.797969	-0.363348	-0.909429
H302	H	-0.464636	-0.030015	-0.576096
H303	H	-0.131303	0.303318	-0.242762
C304	C	-0.663585	-0.449847	-0.232206
C305	C	-0.330251	-0.116514	0.101127
C306	C	0.003082	0.216819	0.434460
C307	C	-0.679498	-0.387490	-0.218712
C308	C	-0.346165	-0.054157	0.114621
C309	C	-0.012831	0.279177	0.447954
H310	H	-0.685869	-0.477131	-0.204847
H311	H	-0.352535	-0.143797	0.128486
H312	H	-0.019202	0.189536	0.461820
H313	H	-0.619727	-0.455589	-0.226433
H314	H	-0.286394	-0.122255	0.106900
H315	H	0.046939	0.211078	0.440233
H316	H	-0.674376	-0.459115	-0.274489
H317	H	-0.341043	-0.125782	0.058845
H318	H	-0.007709	0.207551	0.392178
H319	H	-0.668702	-0.378221	-0.176431
H320	H	-0.335369	-0.044887	0.156902
H321	H	-0.002036	0.288446	0.490236
H322	H	-0.723365	-0.381746	-0.224480
H323	H	-0.390032	-0.048413	0.108853
H324	H	-0.056698	0.284921	0.442187
H325	H	-0.982960	-0.229924	-0.662916
H326	H	-0.649627	0.103409	-0.329582
H327	H	-0.316293	0.436743	0.003751
H328	H	-0.150028	-0.375954	-0.230237
H329	H	0.183305	-0.042621	0.103097
H330	H	0.516638	0.290712	0.436430
C331	C	-0.316622	-0.254234	-0.428395
C332	C	0.016711	0.079099	-0.095061
C333	C	0.350044	0.412432	0.238272
C334	C	-0.278824	-0.218662	-0.388027
C335	C	0.054510	0.114671	-0.054693
C336	C	0.387843	0.448005	0.278640
H337	H	-0.338952	-0.226958	-0.455757
H338	H	-0.005619	0.106375	-0.122424
H339	H	0.327714	0.439709	0.210909
H340	H	-0.345580	-0.278175	-0.404381
H341	H	-0.012247	0.055158	-0.071047
H342	H	0.321087	0.388492	0.262286
H343	H	-0.290966	-0.281688	-0.452431
H344	H	0.042367	0.051645	-0.119098
H345	H	0.375701	0.384979	0.214236
H346	H	-0.304481	-0.191211	-0.363987
H347	H	0.028853	0.142122	-0.030654
H348	H	0.362186	0.475455	0.302680
H349	H	-0.249863	-0.194711	-0.412043
H350	H	0.083471	0.138623	-0.078710
H351	H	0.416804	0.471956	0.254624
H352	H	-0.836850	-0.376067	-0.543628
H353	H	-0.503516	-0.042734	-0.210294
H354	H	-0.170183	0.290600	0.123039
H355	H	-0.982949	0.338086	-0.376453
H356	H	-0.649616	0.671419	-0.043119
H357	H	-0.316282	1.004753	0.290214
H358	H	-0.836828	0.457313	-0.230368
H359	H	-0.503495	0.790646	0.102965
H360	H	-0.170161	1.123979	0.436299
H361	H	-0.269296	-0.375974	-0.230229
H362	H	0.064038	-0.042640	0.103105
H363	H	0.397371	0.290693	0.436438
H364	H	-0.670277	-0.230180	-0.376518
H365	H	-0.336944	0.103154	-0.043185
H366	H	-0.003611	0.436487	0.290149
H367	H	-0.836807	-0.062790	-0.230316
H368	H	-0.503473	0.270543	0.103017
H369	H	-0.170140	0.603876	0.436350
H370	H	-0.551014	-0.230155	-0.376518
H371	H	-0.217680	0.103178	-0.043185
H372	H	0.115653	0.436511	0.290148
H373	H	-0.982971	-0.229829	-0.944489
H374	H	-0.649637	0.103504	-0.611156
H375	H	-0.316304	0.436838	-0.277823
H376	H	-0.982952	0.457354	-0.376464
H377	H	-0.649618	0.790687	-0.043131
H378	H	-0.316285	1.124021	0.290202
C379	C	-1.029743	0.023154	-0.423250
C380	C	-0.696409	0.356488	-0.089917
C381	C	-0.363076	0.689821	0.243416
C382	C	-0.994404	0.065880	-0.387908
C383	C	-0.661071	0.399214	-0.054575
C384	C	-0.327738	0.732547	0.278758
H385	H	-1.057067	0.045468	-0.450580
H386	H	-0.723733	0.378802	-0.117247
H387	H	-0.390400	0.712135	0.216086
H388	H	-1.053813	-0.002479	-0.395828
H389	H	-0.720479	0.330854	-0.062494
H390	H	-0.387146	0.664187	0.270839
H391	H	-1.002313	-0.002495	-0.447320
H392	H	-0.668980	0.330838	-0.113987
H393	H	-0.335646	0.664171	0.219347
H394	H	-1.021834	0.091527	-0.363835
H395	H	-0.688501	0.424860	-0.030502
H396	H	-0.355167	0.758194	0.302832
H397	H	-0.970332	0.091525	-0.415335
H398	H	-0.636999	0.424858	-0.082001
H399	H	-0.303666	0.758191	0.251332
H400	H	-0.550866	-0.376013	-0.230213
H401	H	-0.217533	-0.042680	0.103120
H402	H	0.115801	0.290653	0.436454
C403	C	-1.029787	-0.182990	-1.030396
C404	C	-0.696454	0.150344	-0.697063
C405	C	-0.363121	0.483677	-0.363729
C406	C	-0.994442	-0.218311	-1.073126
C407	C	-0.661109	0.115023	-0.739793
C408	C	-0.327776	0.448356	-0.406459
H409	H	-1.057116	-0.155663	-1.052707
H410	H	-0.723783	0.177671	-0.719373
H411	H	-0.390450	0.511004	-0.386040
H412	H	-1.002366	-0.158923	-1.004737
H413	H	-0.669033	0.174410	-0.671404
H414	H	-0.335700	0.507743	-0.338071
H415	H	-1.053858	-0.210430	-1.004771
H416	H	-0.720525	0.122903	-0.671438
H417	H	-0.387191	0.456236	-0.338105
H418	H	-0.970368	-0.190870	-1.098747
H419	H	-0.637034	0.142463	-0.765414
H420	H	-0.303701	0.475796	-0.432081
H421	H	-1.021867	-0.242379	-1.098795
H422	H	-0.688533	0.090955	-0.765462
H423	H	-0.355200	0.424288	-0.432129
C424	C	-1.029771	-0.183140	-0.577025
C425	C	-0.696437	0.150193	-0.243692
C426	C	-0.363104	0.483526	0.089641
C427	C	-0.994431	-0.218497	-0.534283
C428	C	-0.661098	0.114837	-0.200950
C429	C	-0.327765	0.448170	0.132383
H430	H	-1.057089	-0.155818	-0.554724
H431	H	-0.723755	0.177516	-0.221391
H432	H	-0.390422	0.510849	0.111943
H433	H	-1.053847	-0.210554	-0.602680
H434	H	-0.720514	0.122779	-0.269347
H435	H	-0.387180	0.456112	0.063987
H436	H	-1.002341	-0.159062	-0.602653
H437	H	-0.669007	0.174271	-0.269319
H438	H	-0.335674	0.507605	0.064014
H439	H	-1.021861	-0.242578	-0.508659
H440	H	-0.688528	0.090755	-0.175325
H441	H	-0.355195	0.424088	0.158008
H442	H	-0.970353	-0.191079	-0.508618
H443	H	-0.637020	0.142254	-0.175284
H444	H	-0.303687	0.475588	0.158049
H445	H	-0.836866	-0.375887	-1.063736
H446	H	-0.503533	-0.042554	-0.730403
H447	H	-0.170199	0.290779	-0.397070
