data_functionalizedCrystal
_audit_creation_method	'MofGen! by Chris Wilmer'
_symmetry_space_group_name_H-M	'P1'
_symmetry_Int_Tables_number	1
_symmetry_cell_setting	triclinic
loop_
_symmetry_equiv_pos_as_xyz
  x,y,z
_cell_length_a	18.101398
_cell_length_b	12.594510
_cell_length_c	18.101395
_cell_angle_alpha	90.036642
_cell_angle_beta	89.973339
_cell_angle_gamma	89.988449
loop_
_atom_site_label
_atom_site_type_symbol
_atom_site_fract_x
_atom_site_fract_y
_atom_site_fract_z
Zn1	Zn	1.132134	-0.601571	0.294850
Zn2	Zn	1.132026	-0.423586	0.418719
Zn3	Zn	1.008289	-0.423630	0.294886
Zn4	Zn	1.008244	-0.601545	0.418645
O5	O	1.070173	-0.512583	0.356775
O6	O	1.235753	-0.577953	0.311298
O7	O	1.115586	-0.274646	0.402338
O8	O	1.024782	-0.447264	0.191249
O9	O	1.235673	-0.447188	0.402303
O10	O	1.115770	-0.577996	0.191222
O11	O	1.024677	-0.274678	0.311359
O12	O	0.904650	-0.447238	0.311287
O13	O	1.024704	-0.750495	0.402178
O14	O	0.904617	-0.577952	0.402212
O15	O	1.115726	-0.750514	0.311226
O16	O	1.115542	-0.447163	0.522342
O17	O	1.024600	-0.577909	0.522288
C18	C	0.877763	-0.512598	0.356746
C19	C	0.795449	-0.512629	0.356751
C20	C	0.496358	-0.512585	0.356795
C21	C	0.527687	-0.594421	0.414279
C22	C	0.613305	-0.594757	0.414099
C23	C	0.644740	-0.512607	0.356774
C24	C	0.613687	-0.543257	0.278768
C25	C	0.528041	-0.543839	0.279113
C26	C	0.527903	-0.399902	0.376629
C27	C	0.613553	-0.400504	0.378340
C28	C	0.728600	-0.512618	0.356757
C29	C	0.412498	-0.512577	0.356806
C30	C	1.070222	-0.790204	0.356690
C31	C	1.070243	-0.908510	0.356653
C32	C	1.119765	-0.977773	0.307181
C33	C	1.052226	-1.048581	0.289049
C34	C	1.137821	-1.048501	0.374734
C35	C	1.002669	-0.977760	0.338486
C36	C	1.088309	-0.977673	0.424202
C37	C	1.020724	-1.048449	0.406096
C38	C	1.263335	-0.512569	0.356805
C39	C	1.345649	-0.512563	0.356818
C40	C	1.070074	-0.512552	0.549186
C41	C	1.070100	-0.512574	0.631500
C42	C	1.070167	-0.236042	0.356807
C43	C	1.070290	-0.117737	0.356635
C44	C	1.070293	-0.512638	0.163613
C45	C	1.070344	-0.512661	0.081299
C46	C	1.070262	-0.512631	0.930591
C47	C	1.013176	-0.595097	0.899262
C48	C	1.012905	-0.594840	0.813644
C49	C	1.070181	-0.512604	0.782208
C50	C	1.049050	-0.400432	0.813371
C51	C	1.048682	-0.400926	0.899016
C52	C	1.148604	-0.541349	0.898937
C53	C	1.148144	-0.543809	0.813286
C54	C	1.070137	-0.512581	0.698349
C55	C	1.070305	-0.512646	1.014450
H56	H	0.634300	-0.575547	0.471945
C57	C	1.108963	-0.935551	0.501360
N58	N	1.124529	-0.903819	0.559475
H59	H	1.161569	-0.946737	0.265320
H60	H	1.026126	-0.678014	0.792572
H61	H	1.026266	-0.678541	0.919801
H62	H	1.194951	-1.079579	0.390032
C63	C	0.498697	-0.362266	0.452157
N64	N	0.476699	-0.333931	0.509048
H65	H	0.955460	-0.576316	0.920846
C66	C	0.501075	-0.655119	0.256374
N67	N	0.480768	-0.738937	0.239242
H68	H	0.634049	-0.485511	0.234776
H69	H	0.507318	-0.486967	0.234748
C70	C	0.641009	-0.707559	0.396394
N71	N	0.661874	-0.792529	0.383067
H72	H	0.954836	-0.575818	0.793219
H73	H	0.991414	-0.376597	0.919057
H74	H	1.164079	-0.626361	0.792915
C75	C	1.031608	-1.090671	0.211868
N76	N	1.016085	-1.122373	0.153733
H77	H	1.088457	-0.337388	0.919743
C78	C	0.500526	-0.317525	0.320068
N79	N	0.479902	-0.255487	0.277465
C80	C	1.103448	-0.315158	0.785861
N81	N	1.144421	-0.250930	0.765137
H82	H	0.992388	-0.375667	0.791984
H83	H	0.945522	-0.946816	0.323120
C84	C	1.174629	-0.649971	0.928032
N85	N	1.194222	-0.731790	0.949946
H86	H	0.978817	-1.079286	0.447925
C87	C	0.642680	-0.653338	0.255634
N88	N	0.664517	-0.736255	0.238215
H89	H	0.633856	-0.377388	0.435741
H90	H	0.634951	-0.336256	0.339513
C91	C	1.208644	-0.468575	0.784375
N92	N	1.254211	-0.411899	0.762601
H93	H	1.191135	-0.481286	0.919197
H94	H	0.506178	-0.677429	0.401322
C95	C	0.499830	-0.568768	0.492682
N96	N	0.478842	-0.549446	0.551737
