data_functionalizedCrystal
_audit_creation_method	'MofGen! by Chris Wilmer'
_symmetry_space_group_name_H-M	'P1'
_symmetry_Int_Tables_number	1
_symmetry_cell_setting	triclinic
loop_
_symmetry_equiv_pos_as_xyz
  x,y,z
_cell_length_a	14.560432
_cell_length_b	14.560438
_cell_length_c	14.560438
_cell_angle_alpha	119.999287
_cell_angle_beta	60.000724
_cell_angle_gamma	89.998394
loop_
_atom_site_label
_atom_site_type_symbol
_atom_site_fract_x
_atom_site_fract_y
_atom_site_fract_z
Zr1	Zr	0.884740	0.120515	1.005307
O2	O	0.738090	0.267161	1.196908
O3	O	0.929697	0.075562	0.813705
O4	O	0.929691	0.267164	1.005311
O5	O	0.738099	-0.075581	1.005300
O6	O	1.080829	0.267164	1.005315
O7	O	0.738096	0.075559	1.005302
O8	O	1.080839	-0.075576	0.662568
O9	O	0.738089	0.267160	1.348047
O10	O	1.061662	0.056388	0.892517
O11	O	0.948873	-0.056406	0.892512
O12	O	0.948865	0.169180	1.118103
O13	O	0.836076	0.056385	1.118098
Zr14	Zr	1.125793	-0.120536	1.005309
Zr15	Zr	1.125787	0.120516	1.005313
Zr16	Zr	0.884746	-0.120537	1.005303
Zr17	Zr	0.884739	0.120512	1.246356
Zr18	Zr	1.125795	-0.120533	0.764260
O19	O	1.080836	-0.075583	1.196911
O20	O	1.080828	0.267162	1.196917
O21	O	0.738098	-0.075584	1.196902
O22	O	1.272444	-0.267182	0.813708
O23	O	1.272435	0.075563	0.813714
O24	O	0.929706	-0.267183	0.813700
O25	O	1.272434	0.075561	1.005316
O26	O	1.080842	-0.267185	1.005306
O27	O	0.929705	-0.267185	1.005302
O28	O	1.272438	-0.075580	1.005314
O29	O	0.929689	0.267160	1.348052
O30	O	1.080844	-0.267181	0.662564
O31	O	1.272445	-0.267180	0.662569
O32	O	1.272440	-0.075576	0.662573
O33	O	0.738094	0.075555	1.348044
O34	O	0.929694	0.075556	1.348048
O35	O	1.061668	-0.169201	0.892513
O36	O	1.174457	-0.056406	0.892518
O37	O	1.061661	0.056386	1.118104
O38	O	0.948871	-0.056409	1.118099
C39	C	0.703753	-0.000011	1.005300
C40	C	0.601423	-0.000011	1.005298
C41	C	1.005259	0.301509	1.005313
C42	C	1.005256	0.403842	1.005315
C43	C	1.005274	-0.301530	1.005303
C44	C	1.005277	-0.403863	1.005301
C45	C	0.719166	-0.117756	0.769784
C46	C	0.729961	-0.176623	0.652031
C47	C	0.633809	-0.176620	0.652036
C48	C	0.526853	-0.117746	0.769807
C49	C	0.516058	-0.058879	0.887560
C50	C	0.612219	-0.058886	0.887542
C51	C	0.398316	0.058857	1.123071
C52	C	0.494467	0.058862	1.123069
C53	C	0.291360	0.117731	1.240842
C54	C	0.280564	0.176606	1.358598
C55	C	0.376724	0.176601	1.358588
C56	C	0.483672	0.117729	1.240821
C57	C	1.306780	-0.000010	1.005316
C58	C	1.409111	-0.000010	1.005319
C59	C	1.005268	-0.000007	0.703792
C60	C	1.005269	-0.000005	0.601460
C61	C	0.946379	0.510794	1.123066
C62	C	0.946392	0.606943	1.123060
C63	C	1.064162	0.489174	0.887541
C64	C	1.064154	0.393027	0.887548
C65	C	1.064142	0.058865	0.457225
C66	C	1.064141	0.058874	0.553381
C67	C	0.946384	-0.058888	0.553387
C68	C	0.946379	-0.058889	0.457239
C69	C	1.005265	-0.000014	1.306824
C70	C	1.005264	-0.000015	1.409156
C71	C	1.306782	-0.000006	0.703800
C72	C	1.409113	-0.000005	0.601471
C73	C	1.005276	-0.301526	0.703787
C74	C	1.005279	-0.403858	0.601454
C75	C	1.306789	-0.301526	0.703795
C76	C	1.409123	-0.403857	0.601464
C77	C	0.703744	0.301505	1.306821
C78	C	0.601410	0.403836	1.409152
C79	C	0.703752	-0.000015	1.306816
C80	C	0.601420	-0.000016	1.409145
C81	C	1.005257	0.301505	1.306829
C82	C	1.005254	0.403837	1.409163
C83	C	1.398314	0.058871	0.553393
C84	C	1.494469	0.058876	0.457252
C85	C	1.612219	-0.058879	0.457270
C86	C	1.516065	-0.058877	0.553417
C87	C	1.064158	-0.510811	0.553376
C88	C	1.064148	-0.606959	0.457231
C89	C	0.946380	-0.489186	0.457248
C90	C	0.946384	-0.393041	0.553397
C91	C	1.516075	-0.393058	0.553389
C92	C	1.612225	-0.489213	0.457247
C93	C	1.494457	-0.606963	0.457259
C94	C	1.398310	-0.510809	0.553406
H95	H	0.817054	-0.224559	0.556144
H96	H	1.485667	-0.694054	0.418117
N97	N	0.882870	-0.477518	0.405406
H98	H	0.823621	-0.514786	0.422131
H99	H	0.936949	-0.514766	0.308905
H100	H	1.112082	0.106821	0.592518
N101	N	1.127667	-0.722314	0.405365
H102	H	1.118728	-0.781584	0.337164
H103	H	1.096762	-0.731224	0.478793
H104	H	1.485666	0.106821	0.418113
N105	N	0.882881	-0.122391	0.605242
H106	H	0.891822	-0.113460	0.673442
H107	H	0.913801	-0.204728	0.531805
N108	N	0.882875	0.722298	1.250065
H109	H	0.891817	0.781569	1.232197
H110	H	0.913780	0.731203	1.301498
H111	H	1.699310	-0.106812	0.418131
N112	N	1.127678	-0.522483	0.605205
H113	H	1.096794	-0.564958	0.645095
H114	H	1.118736	-0.445312	0.673357
H115	H	1.112113	0.480382	0.791660
N116	N	0.882875	-0.122401	0.405382
H117	H	0.845582	-0.159706	0.450422
H118	H	0.936942	-0.181589	0.308863
H119	H	1.112105	0.305936	0.791655
H120	H	0.898432	-0.305949	0.592545
N121	N	1.127647	0.122364	0.405364
H122	H	1.164943	0.159667	0.450413
H123	H	1.073581	0.181554	0.422098
N124	N	1.527708	-0.122374	0.605287
H125	H	1.610050	-0.159676	0.560252
H126	H	1.490378	-0.181564	0.588556
H127	H	0.367922	0.224523	1.454477
N128	N	1.282944	-0.522452	0.605273
H129	H	1.290681	-0.604794	0.560235
H130	H	1.240485	-0.485120	0.588541
H131	H	1.524885	-0.305976	0.592517
N132	N	0.822877	-0.117747	0.769769
H133	H	0.869168	-0.197489	0.723521
H134	H	0.799720	-0.071470	0.862267
H135	H	0.561972	0.117723	1.240802
N136	N	1.727585	-0.477577	0.405383
H137	H	1.736596	-0.435098	0.478737
H138	H	1.736526	-0.435144	0.365462
N139	N	0.645431	-0.240106	0.525043
H140	H	0.687905	-0.322476	0.473545
H141	H	0.687862	-0.209126	0.473669
N142	N	1.282961	0.122367	0.605224
H143	H	1.273948	0.204734	0.645119
H144	H	1.223755	0.113343	0.673372
N145	N	0.423139	-0.117746	0.769828
H146	H	0.423100	-0.197489	0.723592
H147	H	0.423140	-0.084182	0.723631
N148	N	0.187646	0.117747	1.240862
H149	H	0.141375	0.084231	1.287088
H150	H	0.210798	0.071546	1.148366
N151	N	0.882876	0.522449	1.250076
H152	H	0.823621	0.485188	1.255333
H153	H	0.845655	0.604815	1.324597
N154	N	0.165208	0.240094	1.485602
H155	H	0.156188	0.322463	1.537092
H156	H	0.156281	0.209116	1.536974
