data_functionalizedCrystal
_audit_creation_method	'MofGen! by Chris Wilmer'
_symmetry_space_group_name_H-M	'P1'
_symmetry_Int_Tables_number	1
_symmetry_cell_setting	triclinic
loop_
_symmetry_equiv_pos_as_xyz
  x,y,z
_cell_length_a	6.817900
_cell_length_b	17.982959
_cell_length_c	11.102193
_cell_angle_alpha	94.235331
_cell_angle_beta	108.604059
_cell_angle_gamma	102.451857
loop_
_atom_site_label
_atom_site_type_symbol
_atom_site_fract_x
_atom_site_fract_y
_atom_site_fract_z
V1	V	-4.080382	-0.105418	-0.396788
O2	O	-4.072042	0.005060	-0.388689
O3	O	-4.026563	-0.209021	-0.394600
O4	O	-4.057634	-0.103799	-0.569602
O5	O	-4.040755	-0.100890	-0.212475
V6	V	-4.561388	-0.092203	-0.374679
O7	O	-4.347161	-0.134406	-0.445286
O8	O	-4.744806	-0.063216	-0.326181
O9	O	-4.392001	0.011399	-0.376868
O10	O	-4.687125	-0.202681	-0.382778
O11	O	-4.718412	-0.096731	-0.558992
O12	O	-4.360929	-0.093822	-0.201866
C13	C	-3.869415	-0.234277	-0.388476
C14	C	-3.906869	-0.318973	-0.387838
C15	C	-4.107326	-0.362645	-0.393898
C16	C	-4.142510	-0.442227	-0.393306
C17	C	-3.977230	-0.478135	-0.386646
C18	C	-3.776759	-0.434458	-0.380590
C19	C	-3.741582	-0.354879	-0.381191
C20	C	-3.918620	-0.755394	-0.378169
C21	C	-3.953811	-0.834979	-0.377565
C22	C	-4.319548	-0.842742	-0.390285
C23	C	-4.284371	-0.763162	-0.390885
C24	C	-4.083907	-0.719493	-0.384836
C25	C	-4.045760	-0.633202	-0.385480
C26	C	-4.015370	-0.564424	-0.385993
C27	C	-3.909049	-0.100055	-0.611706
C28	C	-3.971698	-0.099417	-0.752986
C29	C	-4.050815	-0.238963	-0.790015
C30	C	-4.119798	-0.308434	-0.874901
C31	C	-4.178663	-0.307830	-1.007644
C32	C	-4.168547	-0.237748	-1.055502
C33	C	-4.099564	-0.168277	-0.970617
C34	C	-4.040696	-0.168889	-0.837873
C35	C	-4.020462	-0.028733	-0.933588
C36	C	-3.961582	-0.029335	-0.800844
C37	C	-4.010347	0.041349	-0.981446
C38	C	-3.941348	0.110821	-0.896560
C39	C	-3.882479	0.110214	-0.763809
C40	C	-3.892599	0.040135	-0.715958
C41	C	-4.212490	0.036652	-0.382988
C42	C	-4.154275	0.121347	-0.383634
C43	C	-4.172856	-0.097569	-0.159754
C44	C	-4.089445	-0.098203	-0.018474
H45	H	-4.418959	-0.733929	-0.396302
O46	O	-4.535771	-0.889848	-0.396816
H47	H	-4.644777	-0.851506	-0.401530
O48	O	-4.232062	-0.237087	-1.198674
H49	H	-4.127910	-0.264194	-1.236828
H50	H	-3.578354	-0.319323	-0.376262
O51	O	-3.598499	-0.473190	-0.373421
H52	H	-3.461455	-0.447914	-0.283429
O53	O	-4.253043	-0.382754	-1.099210
H54	H	-4.250172	-0.431588	-1.043637
H55	H	-4.002857	-0.239461	-0.681930
H56	H	-4.128034	-0.365493	-0.835920
H57	H	-3.826322	0.166785	-0.694701
H58	H	-3.933133	0.167876	-0.935538
O59	O	-4.073851	0.041995	-1.124621
H60	H	-4.209070	0.069418	-1.156482
O61	O	-4.285590	-0.323914	-0.401078
H62	H	-4.320873	-0.295975	-0.488716
H63	H	-3.844657	0.039635	-0.607874
H64	H	-4.305740	-0.477781	-0.398242
O65	O	-3.775547	-0.873713	-0.370406
H66	H	-3.638490	-0.848439	-0.280420
H67	H	-3.755391	-0.719847	-0.373236
