data_functionalizedCrystal
_audit_creation_method	'MofGen! by Chris Wilmer'
_symmetry_space_group_name_H-M	'P1'
_symmetry_Int_Tables_number	1
_symmetry_cell_setting	triclinic
loop_
_symmetry_equiv_pos_as_xyz
  x,y,z
_cell_length_a	11.169417
_cell_length_b	17.640280
_cell_length_c	11.169409
_cell_angle_alpha	78.765642
_cell_angle_beta	89.980176
_cell_angle_gamma	78.801822
loop_
_atom_site_label
_atom_site_type_symbol
_atom_site_fract_x
_atom_site_fract_y
_atom_site_fract_z
Zn1	Zn	1.931511	-0.314589	-0.582049
Zn2	Zn	1.971974	-0.446792	-0.340816
Zn3	Zn	1.730812	-0.314638	-0.381369
Zn4	Zn	1.771358	-0.446728	-0.541481
O5	O	1.851414	-0.380687	-0.461429
O6	O	2.104830	-0.332133	-0.550056
O7	O	1.939948	-0.429309	-0.178231
O8	O	1.723532	-0.204024	-0.441939
O9	O	2.134558	-0.429262	-0.372823
O10	O	1.870985	-0.203988	-0.589378
O11	O	1.762767	-0.332215	-0.208025
O12	O	1.568238	-0.332153	-0.402602
O13	O	1.792638	-0.429152	-0.714827
O14	O	1.598028	-0.429199	-0.520235
O15	O	1.910301	-0.332071	-0.744632
O16	O	1.979264	-0.557391	-0.333485
O17	O	1.831873	-0.557344	-0.480912
C18	C	1.539585	-0.380675	-0.461417
C19	C	1.406189	-0.380689	-0.461435
C20	C	1.914392	-0.586047	-0.398422
C21	C	1.941444	-0.673901	-0.371508
C22	C	1.646394	-0.962856	-0.666331
C23	C	1.671816	-1.045408	-0.641003
C24	C	1.825390	-1.045391	-0.487642
C25	C	1.799985	-0.962838	-0.512961
C26	C	1.710485	-0.921576	-0.602306
C27	C	1.864076	-0.921558	-0.448937
C28	C	1.838668	-0.839012	-0.474250
C29	C	1.749170	-0.797745	-0.563589
C30	C	1.685077	-0.839030	-0.627620
C31	C	1.953570	-0.962821	-0.359586
C32	C	2.017661	-0.921542	-0.295561
C33	C	1.992259	-0.838994	-0.320881
C34	C	1.902761	-0.797727	-0.410219
C35	C	2.056352	-0.797709	-0.256849
C36	C	2.030944	-0.715162	-0.282163
C37	C	1.877353	-0.715180	-0.435532
C38	C	2.164460	-0.380699	-0.461441
C39	C	2.297861	-0.380705	-0.461446
C40	C	1.851479	-0.380599	-0.774498
C41	C	1.851507	-0.380562	-0.907910
C42	C	1.788222	-0.174525	-0.524708
C43	C	1.761294	-0.086671	-0.551674
C44	C	1.851400	-0.380717	-0.149595
C45	C	1.851537	-0.380532	-0.016252
H46	H	1.804482	-0.681583	-0.508295
H47	H	1.728476	-0.730530	-0.584189
C48	C	1.586629	-0.793637	-0.725907
C49	C	1.621103	-0.736823	-0.837597
C50	C	1.522659	-0.691431	-0.935878
C51	C	1.389741	-0.702853	-0.922469
C52	C	1.355261	-0.759670	-0.810773
C53	C	1.453705	-0.805062	-0.712492
H54	H	1.719502	-0.728365	-0.847528
H55	H	1.548184	-0.649372	-1.018562
H56	H	1.316867	-0.669252	-0.995222
H57	H	1.256862	-0.768128	-0.800843
H58	H	1.428180	-0.847121	-0.629808
C59	C	1.547943	-0.917456	-0.764611
C60	C	1.415023	-0.928874	-0.751197
C61	C	1.316576	-0.883473	-0.849468
C62	C	1.351047	-0.826654	-0.961153
C63	C	1.483974	-0.815234	-0.974572
C64	C	1.582421	-0.860635	-0.876301
H65	H	1.389500	-0.970937	-0.668516
H66	H	1.218175	-0.891927	-0.839533
H67	H	1.278170	-0.793045	-1.033899
H68	H	1.509497	-0.773171	-1.057253
H69	H	1.680822	-0.852181	-0.886236
H70	H	1.619633	-1.079014	-0.693161
H71	H	1.898258	-1.078998	-0.414894
H72	H	1.974257	-1.030036	-0.338982
H73	H	2.090528	-0.955148	-0.222813
C74	C	2.154792	-0.843104	-0.158568
C75	C	2.120310	-0.899913	-0.046876
C76	C	2.218750	-0.945307	0.051407
C77	C	2.351672	-0.933893	0.037998
C78	C	2.386160	-0.877081	-0.073699
C79	C	2.287720	-0.831686	-0.171982
H80	H	2.021908	-0.908365	-0.036946
H81	H	2.193219	-0.987363	0.134093
H82	H	2.424543	-0.967497	0.110753
H83	H	2.484562	-0.868629	-0.083629
H84	H	2.313251	-0.789630	-0.254667
C85	C	2.101443	-0.669746	-0.211744
C86	C	2.095241	-0.681150	-0.071799
C87	C	2.165736	-0.635732	-0.001376
C88	C	2.242433	-0.578910	-0.070899
C89	C	2.248639	-0.567503	-0.210852
C90	C	2.178144	-0.612921	-0.281275
H91	H	2.038462	-0.723216	-0.020327
H92	H	2.161142	-0.644177	0.102227
H93	H	2.294618	-0.545289	-0.018768
H94	H	2.305418	-0.525437	-0.262324
H95	H	2.182738	-0.604476	-0.384878
