data_functionalizedCrystal
_audit_creation_method	'MofGen! by Chris Wilmer'
_symmetry_space_group_name_H-M	'P1'
_symmetry_Int_Tables_number	1
_symmetry_cell_setting	triclinic
loop_
_symmetry_equiv_pos_as_xyz
  x,y,z
_cell_length_a	10.685904
_cell_length_b	18.050590
_cell_length_c	10.685880
_cell_angle_alpha	94.335314
_cell_angle_beta	80.918635
_cell_angle_gamma	94.385190
loop_
_atom_site_label
_atom_site_type_symbol
_atom_site_fract_x
_atom_site_fract_y
_atom_site_fract_z
Zn1	Zn	1.995725	-0.244692	-0.866649
Zn2	Zn	1.979301	-0.360069	-0.654377
Zn3	Zn	1.767164	-0.244732	-0.638120
Zn4	Zn	1.783410	-0.377683	-0.850278
O5	O	1.881400	-0.306794	-0.752356
O6	O	2.171182	-0.252609	-0.852145
O7	O	1.937488	-0.337415	-0.474596
O8	O	1.797557	-0.140801	-0.668483
O9	O	2.159115	-0.337376	-0.696191
O10	O	1.965481	-0.140772	-0.836382
O11	O	1.781632	-0.252677	-0.462652
O12	O	1.591684	-0.269756	-0.652609
O13	O	1.825247	-0.367396	-1.030074
O14	O	1.603620	-0.367434	-0.808480
O15	O	1.981234	-0.269688	-1.042102
O16	O	1.953242	-0.466331	-0.680316
O17	O	1.809321	-0.479272	-0.824244
C18	C	1.551593	-0.320511	-0.727004
C19	C	1.410503	-0.326399	-0.716189
C20	C	1.881299	-0.499748	-0.752298
C21	C	1.881375	-0.582292	-0.752325
C22	C	1.959824	-0.774676	-0.674189
C23	C	1.999722	-0.827533	-0.792415
C24	C	1.881451	-0.733421	-0.752381
C25	C	1.841686	-0.827643	-0.634217
C26	C	1.881526	-0.879405	-0.752425
C27	C	1.921413	-0.785191	-0.870672
C28	C	1.763317	-0.785295	-0.712392
C29	C	1.803177	-0.838135	-0.830694
C30	C	1.881411	-0.649323	-0.752354
C31	C	1.881567	-0.963501	-0.752465
C32	C	2.212495	-0.293024	-0.777808
C33	C	2.353588	-0.287155	-0.788654
C34	C	1.906885	-0.320502	-1.083432
C35	C	1.917745	-0.326344	-1.224517
C36	C	1.881539	-0.113086	-0.752445
C37	C	1.881598	-0.030539	-0.752483
C38	C	1.856088	-0.293082	-0.422574
C39	C	1.845474	-0.287021	-0.281508
H40	H	1.351291	-0.364498	-0.645874
O41	O	1.715435	-0.874569	-0.918412
H42	H	1.617736	-0.856885	-0.885973
O43	O	1.432011	-0.236681	-0.881802
H44	H	1.534241	-0.239826	-0.875973
H45	H	2.026132	-0.747043	-0.608140
H46	H	1.775281	-0.248888	-1.222366
O47	O	2.132094	-0.852270	-0.837266
H48	H	2.196945	-0.826656	-0.772198
O49	O	1.966173	-0.760466	-1.003117
H50	H	1.965841	-0.698946	-1.002048
H51	H	1.663405	-0.766604	-0.678510
H52	H	1.808023	-0.846404	-0.534268
O53	O	2.010733	-0.376863	-1.302849
H54	H	2.004975	-0.373676	-1.405089
