data_functionalizedCrystal
_audit_creation_method	'MofGen! by Chris Wilmer'
_symmetry_space_group_name_H-M	'P1'
_symmetry_Int_Tables_number	1
_symmetry_cell_setting	triclinic
loop_
_symmetry_equiv_pos_as_xyz
  x,y,z
_cell_length_a	10.489716
_cell_length_b	19.288865
_cell_length_c	18.366186
_cell_angle_alpha	89.989632
_cell_angle_beta	90.008708
_cell_angle_gamma	96.167308
loop_
_atom_site_label
_atom_site_type_symbol
_atom_site_fract_x
_atom_site_fract_y
_atom_site_fract_z
O1	O	1.691866	-0.097912	0.060553
O2	O	1.320458	-0.107128	0.060557
O3	O	1.516894	-0.001461	0.060540
O4	O	1.495430	-0.203579	0.060570
O5	O	1.516860	-0.001458	-0.060559
O6	O	1.320424	-0.107124	-0.060543
O7	O	1.691832	-0.097909	-0.060546
Zn8	Zn	1.506123	-0.102516	-0.079772
Zn9	Zn	1.506167	-0.102520	0.079782
O10	O	1.495396	-0.203575	-0.060530
C11	C	1.272925	-0.106434	0.000007
C12	C	1.131340	-0.104362	0.000008
C13	C	1.032201	-0.169160	0.000019
C14	C	0.955613	-0.134918	-0.059697
C15	C	0.955653	-0.134906	0.059697
C16	C	1.056617	-0.070147	-0.059758
C17	C	1.056662	-0.070144	0.059690
C18	C	0.980124	-0.035854	-0.000041
C19	C	1.516186	0.024422	-0.000011
C20	C	1.514113	0.101539	-0.000018
C21	C	1.739366	-0.098603	0.000005
C22	C	1.880950	-0.100674	0.000009
C23	C	1.496104	-0.229458	0.000024
C24	C	1.498177	-0.306575	0.000035
N25	N	1.506102	-0.102513	-0.188663
C26	C	1.629373	0.145468	-0.000022
C27	C	1.627425	0.217928	-0.000011
C28	C	1.510211	0.246456	-0.000009
C29	C	1.394936	0.202517	-0.000001
C30	C	1.396887	0.130059	-0.000005
C31	C	1.418055	0.355358	-0.042427
C32	C	1.416109	0.427816	-0.042427
C33	C	1.504189	0.469942	0.000007
C34	C	1.594236	0.439603	0.042432
C35	C	1.596187	0.367145	0.042428
C36	C	1.508083	0.325024	-0.000004
C37	C	1.617345	0.592441	0.000016
C38	C	1.615392	0.664902	0.000032
C39	C	1.382900	0.649489	0.000035
C40	C	1.384856	0.577030	0.000026
C41	C	1.502082	0.548510	0.000013
C42	C	1.583203	-0.145050	-0.226751
C43	C	1.583224	-0.145048	-0.302979
C44	C	1.506119	-0.102517	-0.341115
C45	C	1.429013	-0.059971	-0.303017
C46	C	1.429005	-0.059969	-0.226791
C47	C	1.391147	-0.099995	-0.461896
C48	C	1.391153	-0.100002	-0.538121
C49	C	1.506148	-0.102520	-0.576223
C50	C	1.621139	-0.105045	-0.538091
C51	C	1.621130	-0.105043	-0.461864
C52	C	1.506121	-0.102514	-0.423770
C53	C	1.583279	-0.145057	-0.696967
C54	C	1.583302	-0.145050	-0.773196
C55	C	1.429080	-0.059977	-0.773233
C56	C	1.429068	-0.059980	-0.697005
C57	C	1.506166	-0.102524	-0.658876
N58	N	1.506199	-0.102518	0.188673
H59	H	1.100537	-0.042807	-0.110293
N60	N	1.350294	-0.016546	-0.658083
N61	N	1.350292	-0.016552	-0.590024
H62	H	1.294656	0.014126	-0.562534
N63	N	0.951087	0.034908	-0.000097
N64	N	0.988375	0.074581	-0.051414
H65	H	0.967868	0.124557	-0.051457
H66	H	1.724827	0.122252	-0.000031
N67	N	1.061596	-0.239860	-0.000033
N68	N	1.124348	-0.261967	0.051256
H69	H	1.145112	-0.311897	0.051218
N70	N	1.350256	-0.016519	-0.187868
N71	N	1.400328	0.029136	-0.145332
H72	H	1.344711	0.059822	-0.117839
N73	N	1.273711	-0.097418	-0.577079
N74	N	1.273732	-0.097422	-0.645138
H75	H	1.190787	-0.095598	-0.672653
N76	N	0.900373	-0.169241	0.123027
N77	N	0.970321	-0.195812	0.167956
H78	H	0.931284	-0.220066	0.212681
H79	H	1.712797	0.569219	0.000009
N80	N	0.900282	-0.169236	-0.123020
N81	N	0.911965	-0.232246	-0.133651
H82	H	0.872892	-0.256488	-0.178371
H83	H	1.100790	-0.042812	0.110170
H84	H	1.290999	0.541262	0.000026
N85	N	1.745177	0.262801	-0.000015
N86	N	1.849830	0.237328	-0.000025
H87	H	1.932994	0.269017	-0.000029
N88	N	1.688169	0.336165	0.085764
N89	N	1.766812	0.373778	0.123649
H90	H	1.831775	0.351899	0.154257
H91	H	1.665959	0.473901	0.076987
N92	N	1.733146	0.709767	0.000037
N93	N	1.837795	0.684290	0.000028
H94	H	1.920962	0.715976	0.000033
N95	N	1.263178	0.678632	0.000045
N96	N	1.261449	0.743327	0.000053
H97	H	1.176892	0.763913	0.000063
H98	H	1.646057	-0.179698	-0.665921
H99	H	1.342782	0.452511	-0.076968
H100	H	1.366236	-0.025342	-0.334073
N101	N	1.328055	0.312340	-0.085771
N102	N	1.247670	0.339434	-0.123647
H103	H	1.184105	0.309054	-0.154256
N104	N	1.662063	-0.188516	-0.812089
N105	N	1.646395	-0.253164	-0.803558
H106	H	1.702021	-0.283865	-0.831025
H107	H	1.714760	-0.107097	-0.430820
H108	H	1.299500	0.225749	0.000002
H109	H	1.366302	-0.025347	-0.804282
H110	H	1.297495	-0.097949	-0.430880
H111	H	1.303026	0.094291	-0.000001
N112	N	1.738591	-0.107665	-0.577011
N113	N	1.738581	-0.107693	-0.645070
H114	H	1.821522	-0.109563	-0.672561
H115	H	1.646009	-0.179689	-0.333997
N116	N	1.661985	-0.188493	-0.187812
N117	N	1.746475	-0.161819	-0.145278
H118	H	1.802119	-0.192501	-0.117778
