data_functionalizedCrystal
_audit_creation_method	'MofGen! by Chris Wilmer'
_symmetry_space_group_name_H-M	'P1'
_symmetry_Int_Tables_number	1
_symmetry_cell_setting	triclinic
loop_
_symmetry_equiv_pos_as_xyz
  x,y,z
_cell_length_a	18.215407
_cell_length_b	12.759399
_cell_length_c	18.215399
_cell_angle_alpha	90.025381
_cell_angle_beta	90.019350
_cell_angle_gamma	90.015564
loop_
_atom_site_label
_atom_site_type_symbol
_atom_site_fract_x
_atom_site_fract_y
_atom_site_fract_z
Zn1	Zn	1.125118	-0.418260	0.416131
Zn2	Zn	1.125049	-0.593959	0.293071
Zn3	Zn	1.002052	-0.418296	0.293079
Zn4	Zn	1.002038	-0.593899	0.416096
O5	O	1.063564	-0.506103	0.354594
O6	O	1.228093	-0.441577	0.399819
O7	O	1.108710	-0.570697	0.190088
O8	O	1.018412	-0.271270	0.309419
O9	O	1.228042	-0.570662	0.309407
O10	O	1.108828	-0.271244	0.399826
O11	O	1.018345	-0.441638	0.190093
O12	O	0.899066	-0.441580	0.309385
O13	O	1.018388	-0.570560	0.519085
O14	O	0.899055	-0.570595	0.399766
O15	O	1.108815	-0.441519	0.519111
O16	O	1.108696	-0.740972	0.309373
O17	O	1.018320	-0.740928	0.399759
C18	C	0.872358	-0.506085	0.354573
C19	C	0.790559	-0.506103	0.354582
C20	C	0.602379	-0.573387	0.401584
C21	C	0.525520	-0.573390	0.401593
C22	C	0.525502	-0.438839	0.307621
C23	C	0.602359	-0.438831	0.307616
C24	C	0.640796	-0.506111	0.354596
C25	C	0.487080	-0.506122	0.354610
C26	C	0.403746	-0.506125	0.354620
C27	C	0.724135	-0.506107	0.354588
C28	C	1.063519	-0.779071	0.354578
C29	C	1.063567	-0.895847	0.354595
C30	C	1.110679	-0.950697	0.307585
C31	C	1.110727	-1.060421	0.307609
C32	C	1.016543	-1.060436	0.401657
C33	C	1.016500	-0.950714	0.401635
C34	C	1.197593	-1.210296	0.281423
C35	C	1.244699	-1.265149	0.234401
C36	C	1.256025	-1.229599	0.162596
C37	C	1.220234	-1.139197	0.137798
C38	C	1.173123	-1.084349	0.184816
C39	C	1.161811	-1.119898	0.256632
C40	C	0.929633	-0.800838	0.427814
C41	C	0.882517	-0.745988	0.474829
C42	C	0.871184	-0.781536	0.546635
C43	C	0.906961	-0.871941	0.571430
C44	C	0.954077	-0.926791	0.524415
C45	C	0.965412	-0.891236	0.452610
C46	C	1.255517	-0.506122	0.354616
C47	C	1.337316	-0.506130	0.354625
C48	C	1.063607	-0.506029	0.546547
C49	C	1.063626	-0.505997	0.628346
C50	C	1.063630	-0.232070	0.354627
C51	C	1.063657	-0.115293	0.354641
C52	C	1.063564	-0.506102	0.163388
C53	C	1.063688	-0.505838	0.081590
C54	C	1.110738	-0.438715	0.893419
C55	C	1.110730	-0.438743	0.816560
C56	C	1.016573	-0.573127	0.816523
C57	C	1.016586	-0.573103	0.893380
C58	C	1.063668	-0.505891	0.931826
C59	C	1.063646	-0.505944	0.778110
C60	C	1.063636	-0.505975	0.694776
C61	C	1.063679	-0.505861	1.015165
H62	H	0.494245	-0.628171	0.439856
C63	C	0.644620	-0.364819	0.255923
N64	N	0.676450	-0.309074	0.216991
C65	C	1.162535	-0.364788	0.935706
N66	N	1.201552	-0.309108	0.967555
C67	C	0.964779	-0.647047	0.774225
N68	N	0.925764	-0.702720	0.742367
H69	H	1.229454	-1.110265	0.079324
C70	C	0.964801	-0.647005	0.935631
N71	N	0.925799	-0.702666	0.967454
C72	C	0.993439	-1.026235	0.551696
N73	N	1.023089	-1.101133	0.572244
C74	C	1.162459	-0.890348	0.255843
N75	N	1.201462	-0.844896	0.216871
H76	H	1.149060	-0.384043	0.785292
C77	C	1.185142	-1.249406	0.360415
N78	N	1.175762	-1.278871	0.419911
C79	C	0.483214	-0.364841	0.255941
N80	N	0.451364	-0.309106	0.217014
H81	H	0.633672	-0.628168	0.439840
H82	H	1.143984	-1.010744	0.164627
H83	H	1.294381	-1.274268	0.124311
H84	H	1.273840	-1.338754	0.254599
C85	C	0.894496	-0.911047	0.650422
N86	N	0.885103	-0.940499	0.709920
C87	C	0.819351	-0.721197	0.598350
N88	N	0.780314	-0.675751	0.637302
C89	C	0.964764	-1.120799	0.453390
N90	N	0.925759	-1.166264	0.492354
C91	C	0.843153	-0.646546	0.447547
N92	N	0.813503	-0.571649	0.426998
C93	C	0.942097	-0.761726	0.348821
N94	N	0.951481	-0.732268	0.289324
