data_functionalizedCrystal
_audit_creation_method	'MofGen! by Chris Wilmer'
_symmetry_space_group_name_H-M	'P1'
_symmetry_Int_Tables_number	1
_symmetry_cell_setting	triclinic
loop_
_symmetry_equiv_pos_as_xyz
  x,y,z
_cell_length_a	16.120566
_cell_length_b	12.759399
_cell_length_c	16.120256
_cell_angle_alpha	87.123291
_cell_angle_beta	89.874858
_cell_angle_gamma	87.111367
loop_
_atom_site_label
_atom_site_type_symbol
_atom_site_fract_x
_atom_site_fract_y
_atom_site_fract_z
Zn1	Zn	-1.247498	0.532288	-0.534652
Zn2	Zn	-0.914164	0.865622	-0.201318
Zn3	Zn	-0.580831	1.198955	0.132015
Zn4	Zn	-1.254467	0.699536	-0.395599
Zn5	Zn	-0.921134	1.032869	-0.062266
Zn6	Zn	-0.587801	1.366203	0.271067
Zn7	Zn	-1.115486	0.514530	-0.388561
Zn8	Zn	-0.782153	0.847863	-0.055228
Zn9	Zn	-0.448820	1.181197	0.278105
Zn10	Zn	-1.108424	0.698575	-0.527561
Zn11	Zn	-0.775091	1.031908	-0.194228
Zn12	Zn	-0.441757	1.365242	0.139105
O13	O	-1.181469	0.611232	-0.461593
O14	O	-0.848136	0.944566	-0.128260
O15	O	-0.514802	1.277899	0.205073
O16	O	-1.364789	0.562308	-0.522119
O17	O	-1.031456	0.895641	-0.188786
O18	O	-0.698122	1.228975	0.144548
O19	O	-1.241904	0.667965	-0.278300
O20	O	-0.908570	1.001298	0.055033
O21	O	-0.575237	1.334632	0.388367
O22	O	-1.133036	0.369869	-0.407963
O23	O	-0.799703	0.703202	-0.074629
O24	O	-0.466370	1.036535	0.258704
O25	O	-1.369910	0.685184	-0.419958
O26	O	-1.036576	1.018518	-0.086624
O27	O	-0.703243	1.351851	0.246709
O28	O	-1.230025	0.382915	-0.515295
O29	O	-0.896691	0.716249	-0.181961
O30	O	-0.563358	1.049582	0.151372
O31	O	-1.139795	0.532042	-0.273129
O32	O	-0.806462	0.865375	0.060204
O33	O	-0.473128	1.198709	0.393537
O34	O	-0.998183	0.531110	-0.401087
O35	O	-0.664849	0.864443	-0.067754
O36	O	-0.331516	1.197777	0.265579
O37	O	-1.121000	0.683546	-0.644868
O38	O	-0.787667	1.016880	-0.311534
O39	O	-0.454333	1.350213	0.021799
O40	O	-0.992994	0.666327	-0.503210
O41	O	-0.659661	0.999660	-0.169877
O42	O	-0.326327	1.332994	0.163457
O43	O	-1.223177	0.561376	-0.650077
O44	O	-0.889843	0.894710	-0.316744
O45	O	-0.556510	1.228043	0.016590
O46	O	-1.235056	0.846426	-0.413082
O47	O	-0.901723	1.179759	-0.079749
O48	O	-0.568389	1.513092	0.253584
O49	O	-1.127758	0.845720	-0.510034
O50	O	-0.794425	1.179053	-0.176701
O51	O	-0.461092	1.512386	0.156632
C52	C	-0.965416	0.596688	-0.450616
C53	C	-0.632082	0.930021	-0.117283
C54	C	-0.298749	1.263355	0.216051
C55	C	-0.872986	0.590492	-0.445939
C56	C	-0.539653	0.923826	-0.112606
C57	C	-0.206320	1.257159	0.220727
C58	C	-1.181419	0.884195	-0.461572
C59	C	-0.848085	1.217529	-0.128239
C60	C	-0.514752	1.550862	0.205095
C61	C	-1.181472	1.000977	-0.461594
C62	C	-0.848139	1.334310	-0.128261
C63	C	-0.514805	1.667643	0.205072
C64	C	-1.170523	0.624335	-0.678488
C65	C	-0.837190	0.957668	-0.345155
C66	C	-0.503856	1.291002	-0.011822
C67	C	-1.165859	0.629918	-0.770916
C68	C	-0.832525	0.963252	-0.437583
C69	C	-0.499192	1.296585	-0.104249
C70	C	-0.703756	0.579157	-0.437408
C71	C	-0.370422	0.912490	-0.104075
C72	C	-0.037089	1.245823	0.229258
C73	C	-0.660022	0.643399	-0.485785
C74	C	-0.326689	0.976732	-0.152452
C75	C	0.006645	1.310065	0.180882
C76	C	-0.565856	0.637092	-0.481038
C77	C	-0.232523	0.970425	-0.147705
C78	C	0.100810	1.303758	0.185628
C79	C	-0.797930	0.585463	-0.442154
C80	C	-0.464597	0.918796	-0.108821
C81	C	-0.131263	1.252129	0.224513
C82	C	-0.398366	0.625837	-0.472601
C83	C	-0.065033	0.959170	-0.139267
C84	C	0.268300	1.292503	0.194066
C85	C	-0.490797	0.632066	-0.477257
C86	C	-0.157463	0.965400	-0.143923
C87	C	0.175870	1.298733	0.189410
C88	C	-1.181541	0.337206	-0.461634
C89	C	-0.848207	0.670540	-0.128301
C90	C	-0.514874	1.003873	0.205032
C91	C	-1.181571	0.220433	-0.461652
C92	C	-0.848238	0.553766	-0.128319
C93	C	-0.514905	0.887099	0.205015
C94	C	-1.237399	1.056179	-0.411175
C95	C	-0.904066	1.389512	-0.077842
C96	C	-0.570733	1.722846	0.255492
C97	C	-1.237451	1.165908	-0.411206
C98	C	-0.904118	1.499242	-0.077872
C99	C	-0.570785	1.832575	0.255461
C100	C	-1.125641	1.165223	-0.512077
C101	C	-0.792308	1.498556	-0.178744
C102	C	-0.458975	1.831889	0.154590
C103	C	-1.125594	1.055496	-0.512050
C104	C	-0.792261	1.388829	-0.178717
C105	C	-0.458927	1.722163	0.154617
C106	C	-1.205792	0.582088	-0.983901
C107	C	-0.872458	0.915421	-0.650567
C108	C	-0.539125	1.248755	-0.317234
C109	C	-1.157315	0.640067	-0.940136
C110	C	-0.823981	0.973400	-0.606803
C111	C	-0.490648	1.306734	-0.273469
C112	C	-1.162070	0.634419	-0.845973
C113	C	-0.828737	0.967752	-0.512640
C114	C	-0.495403	1.301085	-0.179307
C115	C	-1.201038	0.587735	-1.078072
C116	C	-0.867704	0.921068	-0.744739
C117	C	-0.534371	1.254402	-0.411405
C118	C	-1.192420	0.598108	-0.245545
C119	C	-0.859087	0.931442	0.087789
C120	C	-0.525753	1.264775	0.421122
C121	C	-1.197245	0.592240	-0.153126
C122	C	-0.863912	0.925573	0.180208
C123	C	-0.530579	1.258906	0.513541
H124	H	-0.670479	0.519426	-0.392430
H125	H	-0.337146	0.852759	-0.059097
H126	H	-0.003812	1.186093	0.274237
H127	H	-1.282900	1.011792	-0.370092
H128	H	-0.949567	1.345125	-0.036759
H129	H	-0.616233	1.678459	0.296574
N130	N	-0.704104	0.722535	-0.545359
N131	N	-0.370771	1.055868	-0.212025
N132	N	-0.037437	1.389202	0.121308
H133	H	-0.689680	0.795796	-0.531589
H134	H	-0.356347	1.129129	-0.198255
H135	H	-0.023013	1.462463	0.135078
H136	H	-0.686050	0.708857	-0.604032
H137	H	-0.352716	1.042190	-0.270699
H138	H	-0.019383	1.375524	0.062634
N139	N	-1.297775	1.225450	-0.356827
N140	N	-0.964441	1.558783	-0.023494
N141	N	-0.631108	1.892116	0.309840
H142	H	-1.333163	1.174258	-0.324862
H143	H	-0.999830	1.507592	0.008471
H144	H	-0.666497	1.840925	0.341804
H145	H	-1.265919	1.266437	-0.316612
H146	H	-0.932586	1.599770	0.016721
H147	H	-0.599252	1.933103	0.350054
H148	H	-1.250863	0.528213	-0.950652
H149	H	-0.917529	0.861547	-0.617319
H150	H	-0.584196	1.194880	-0.283986
N151	N	-1.097615	0.711453	-0.984168
N152	N	-0.764282	1.044786	-0.650835
N153	N	-0.430949	1.378120	-0.317502
H154	H	-1.038949	0.690259	-0.966080
H155	H	-0.705615	1.023592	-0.632747
H156	H	-0.372282	1.356925	-0.299414
H157	H	-1.102710	0.705399	-1.046157
H158	H	-0.769377	1.038732	-0.712824
H159	H	-0.436043	1.372065	-0.379491
H160	H	-1.080051	1.010547	-0.553112
H161	H	-0.746718	1.343881	-0.219778
H162	H	-0.413384	1.677214	0.113555
N163	N	-1.065372	1.224025	-0.566491
N164	N	-0.732039	1.557359	-0.233158
N165	N	-0.398705	1.890692	0.100176
H166	H	-1.073885	1.301914	-0.558856
H167	H	-0.740552	1.635247	-0.225522
H168	H	-0.407218	1.968580	0.107811
H169	H	-1.006641	1.200135	-0.550477
H170	H	-0.673308	1.533468	-0.217144
H171	H	-0.339975	1.866801	0.116189
