data_functionalizedCrystal
_audit_creation_method	'MofGen! by Chris Wilmer'
_symmetry_space_group_name_H-M	'P1'
_symmetry_Int_Tables_number	1
_symmetry_cell_setting	triclinic
loop_
_symmetry_equiv_pos_as_xyz
  x,y,z
_cell_length_a	12.645330
_cell_length_b	15.298206
_cell_length_c	15.296720
_cell_angle_alpha	69.221745
_cell_angle_beta	80.350659
_cell_angle_gamma	80.355507
loop_
_atom_site_label
_atom_site_type_symbol
_atom_site_fract_x
_atom_site_fract_y
_atom_site_fract_z
Zn1	Zn	-0.749146	1.330675	0.279397
Zn2	Zn	-0.249146	1.830675	0.779397
Zn3	Zn	-0.900267	1.357503	0.123904
Zn4	Zn	-0.400267	1.857503	0.623904
Zn5	Zn	-0.696927	1.202086	0.150853
Zn6	Zn	-0.196927	1.702086	0.650853
Zn7	Zn	-0.900250	1.175146	0.306324
Zn8	Zn	-0.400250	1.675146	0.806324
O9	O	-0.811647	1.266352	0.215119
O10	O	-0.311647	1.766352	0.715119
O11	O	-0.791053	1.464366	0.236223
O12	O	-0.291053	1.964366	0.736223
O13	O	-0.851446	1.359389	-0.002660
O14	O	-0.351446	1.859389	0.497340
O15	O	-0.555518	1.219191	0.167914
O16	O	-0.055518	1.719191	0.667914
O17	O	-0.902081	1.484076	0.121983
O18	O	-0.402081	1.984076	0.621983
O19	O	-0.593883	1.313664	0.262354
O20	O	-0.093883	1.813664	0.762354
O21	O	-0.702054	1.245205	0.017139
O22	O	-0.202054	1.745205	0.517139
O23	O	-0.702038	1.068381	0.194024
O24	O	-0.202038	1.568381	0.694024
O25	O	-0.902053	1.173274	0.432891
O26	O	-0.402053	1.673274	0.932891
O27	O	-0.851418	1.048587	0.308248
O28	O	-0.351418	1.548587	0.808248
O29	O	-0.791037	1.287541	0.413108
O30	O	-0.291037	1.787541	0.913108
O31	O	-1.048600	1.333266	0.148093
O32	O	-0.548600	1.833266	0.648093
O33	O	-1.048588	1.199289	0.282116
O34	O	-0.548588	1.699289	0.782116
C35	C	-0.771061	1.024742	0.256983
C36	C	-0.271061	1.524742	0.756983
C37	C	-0.753727	0.921376	0.274914
C38	C	-0.253727	1.421376	0.774914
C39	C	-0.687898	0.862543	0.342914
C40	C	-0.187898	1.362543	0.842914
C41	C	-0.671602	0.765425	0.359764
C42	C	-0.171602	1.265425	0.859764
C43	C	-0.721140	0.727131	0.308621
C44	C	-0.221140	1.227131	0.808621
C45	C	-0.786976	0.785964	0.240624
C46	C	-0.286976	1.285964	0.740624
C47	C	-0.803267	0.883092	0.223768
C48	C	-0.303267	1.383092	0.723768
C49	C	-0.836508	0.747680	0.189474
C50	C	-0.336508	1.247680	0.689474
C51	C	-0.902344	0.806514	0.121477
C52	C	-0.402344	1.306514	0.621477
C53	C	-0.918633	0.903632	0.104624
C54	C	-0.418633	1.403632	0.604624
C55	C	-0.869095	0.941926	0.155768
C56	C	-0.369095	1.441926	0.655768
C57	C	-0.820217	0.650552	0.206331
C58	C	-0.320217	1.150552	0.706331
C59	C	-0.935586	0.671102	0.087184
C60	C	-0.435586	1.171102	0.587184
C61	C	-0.951882	0.768220	0.070334
C62	C	-0.451882	1.268220	0.570334
C63	C	-1.087064	1.266287	0.215118
C64	C	-0.587064	1.766287	0.715118
C65	C	-1.204907	1.266338	0.215134
C66	C	-0.704907	1.766338	0.715134
C67	C	-1.372595	1.182311	0.299618
C68	C	-0.872595	1.682311	0.799618
C69	C	-1.249935	1.181985	0.299450
C70	C	-0.749935	1.681985	0.799450
C71	C	-1.228566	1.256781	0.121720
C72	C	-0.728566	1.756781	0.621720
C73	C	-1.351164	1.256269	0.122233
C74	C	-0.851164	1.756269	0.622233
C75	C	-1.392762	1.360498	0.223193
C76	C	-0.892762	1.860498	0.723193
C77	C	-1.270415	1.359524	0.225441
C78	C	-0.770415	1.859524	0.725441
C79	C	-0.535164	1.266440	0.215137
C80	C	-0.035164	1.766440	0.715137
C81	C	-0.417343	1.266478	0.215144
C82	C	0.082657	1.766478	0.715144
C83	C	-0.852368	1.224410	0.457686
C84	C	-0.352368	1.724410	0.957686
C85	C	-0.869721	1.206536	0.561054
C86	C	-0.369721	1.706536	1.061054
C87	C	-0.852394	1.508906	0.173093
C88	C	-0.352394	2.008906	0.673093
C89	C	-0.869757	1.612268	0.155184
C90	C	-0.369757	2.112268	0.655184
C91	C	-0.771018	1.308186	-0.026513
C92	C	-0.271018	1.808186	0.473487
C93	C	-0.753397	1.326239	-0.129911
C94	C	-0.253397	1.826239	0.370089
C95	C	-0.687445	1.394132	0.811228
C96	C	-0.187445	1.894132	1.311228
C97	C	-0.671144	1.410931	0.714108
C98	C	-0.171144	1.910931	1.214108
C99	C	-0.720787	1.359833	0.675840
C100	C	-0.220787	1.859833	1.175840
C101	C	-0.786733	1.291935	0.734701
C102	C	-0.286733	1.791935	1.234701
C103	C	-0.803043	1.275139	0.831830
C104	C	-0.303043	1.775139	1.331830
C105	C	-0.836384	1.240841	0.696441
C106	C	-0.336384	1.740841	1.196441
C107	C	-0.902331	1.172942	0.755303
C108	C	-0.402331	1.672942	1.255303
C109	C	-0.918637	1.156149	0.852422
C110	C	-0.418637	1.656149	1.352422
C111	C	-0.868994	1.207247	0.890690
C112	C	-0.368994	1.707247	1.390690
C113	C	-0.820075	1.257636	0.599313
C114	C	-0.320075	1.757636	1.099313
C115	C	-0.935672	1.138644	0.619914
C116	C	-0.435672	1.638644	1.119914
C117	C	-0.951973	1.121845	0.717034
C118	C	-0.451973	1.621845	1.217034
H119	H	-0.618000	0.717529	0.415128
H120	H	-0.118000	1.217529	0.915128
H121	H	-0.707864	0.648053	0.322341
H122	H	-0.207864	1.148053	0.822341
Cl123	Cl	-1.395490	1.348218	0.023156
Cl124	Cl	-0.895490	1.848218	0.523156
Cl125	Cl	-1.226545	1.188177	0.407215
Cl126	Cl	-0.726545	1.688177	0.907215
H127	H	-0.766611	0.602659	0.261693
H128	H	-0.266611	1.102659	0.761693
H129	H	-1.182368	1.189372	0.112407
H130	H	-0.682368	1.689372	0.612407
Cl131	Cl	-0.625057	1.458368	0.859341
Cl132	Cl	-0.125057	1.958368	1.359341
Cl133	Cl	-1.181572	1.073838	0.293297
Cl134	Cl	-0.681572	1.573838	0.793297
Cl135	Cl	-1.464893	1.379080	0.325187
Cl136	Cl	-0.964893	1.879080	0.825187
H137	H	-0.972230	0.951534	0.049249
H138	H	-0.472230	1.451534	0.549249
Cl139	Cl	-1.249324	1.371133	0.331452
Cl140	Cl	-0.749324	1.871133	0.831452
H141	H	-0.707510	1.373515	0.596760
H142	H	-0.207510	1.873515	1.096760
H143	H	-0.882375	1.021004	0.142064
H144	H	-0.382375	1.521004	0.642064
Cl145	Cl	-1.371308	1.150934	0.108650
Cl146	Cl	-0.871308	1.650934	0.608650
H147	H	-0.882263	1.193573	0.969772
H148	H	-0.382263	1.693573	1.469772
H149	H	-0.647566	0.893732	0.384543
H150	H	-0.147566	1.393732	0.884543
H151	H	-1.005668	1.066561	0.764972
H152	H	-0.505668	1.566561	1.264972
H153	H	-0.976098	1.097038	0.588757
H154	H	-0.476098	1.597038	1.088757
Cl155	Cl	-0.997861	0.622969	0.022882
Cl156	Cl	-0.497861	1.122969	0.522882
H157	H	-0.972345	1.100869	0.900343
H158	H	-0.472345	1.600869	1.400343
H159	H	-1.005486	0.816135	0.014971
H160	H	-0.505486	1.316135	0.514971
H161	H	-0.617453	1.466216	0.666190
H162	H	-0.117453	1.966216	1.166190
H163	H	-1.388568	1.112685	0.295764
H164	H	-0.888568	1.612685	0.795764
Cl165	Cl	-1.441201	1.188201	0.407796
Cl166	Cl	-0.941201	1.688201	0.907796
H167	H	-1.241022	1.424174	0.167040
H168	H	-0.741022	1.924174	0.667040
Cl169	Cl	-1.182337	1.349584	0.023041
Cl170	Cl	-0.682337	1.849584	0.523041
H171	H	-1.421893	1.422996	0.161460
H172	H	-0.921893	1.922996	0.661460
H173	H	-0.766379	1.312919	0.551397
H174	H	-0.266379	1.812919	1.051397
