data_functionalizedCrystal
_audit_creation_method	'MofGen! by Chris Wilmer'
_symmetry_space_group_name_H-M	'P1'
_symmetry_Int_Tables_number	1
_symmetry_cell_setting	triclinic
loop_
_symmetry_equiv_pos_as_xyz
  x,y,z
_cell_length_a	11.792254
_cell_length_b	17.699097
_cell_length_c	16.776229
_cell_angle_alpha	89.989262
_cell_angle_beta	90.002197
_cell_angle_gamma	96.256486
loop_
_atom_site_label
_atom_site_type_symbol
_atom_site_fract_x
_atom_site_fract_y
_atom_site_fract_z
O1	O	-0.143598	1.004842	-0.066347
O2	O	-0.162255	0.784565	-0.066333
O3	O	0.012307	0.900044	-0.066344
O4	O	-0.318159	0.889363	-0.066336
O5	O	0.012318	0.900028	0.066233
O6	O	-0.162244	0.784549	0.066244
O7	O	-0.143587	1.004826	0.066230
Zn8	Zn	-0.152914	0.894685	0.087286
Zn9	Zn	-0.152928	0.894706	-0.087389
O10	O	-0.318149	0.889347	0.066241
C11	C	-0.161578	0.756357	-0.000043
C12	C	-0.159565	0.672328	-0.000038
C13	C	-0.147231	0.156552	-0.072338
C14	C	-0.149115	0.235507	-0.072334
C15	C	-0.150053	0.274969	-0.000063
C16	C	-0.149095	0.235474	0.072208
C17	C	-0.147203	0.156522	0.072203
C18	C	-0.156724	0.553879	0.072230
C19	C	-0.158619	0.632837	0.072229
C20	C	-0.158635	0.632864	-0.072308
C21	C	-0.156743	0.553912	-0.072313
C22	C	-0.155780	0.514424	-0.000042
C23	C	-0.153735	0.428813	-0.000047
C24	C	-0.152106	0.360578	-0.000057
C25	C	-0.360437	0.890028	-0.000047
C26	C	-0.486426	0.892042	-0.000044
C27	C	-0.588743	0.893678	-0.000049
C28	C	-0.717105	0.895724	-0.000058
C29	C	0.054595	0.899363	-0.000058
C30	C	0.180584	0.897349	-0.000066
C31	C	-0.144263	1.033035	-0.000062
C32	C	-0.146277	1.117063	-0.000072
N33	N	-0.152904	0.894677	0.206497
N34	N	-0.152929	0.894720	-0.206600
C35	C	-0.075639	0.945827	0.248210
C36	C	-0.075638	0.945831	0.331662
C37	C	-0.152908	0.894689	0.373400
C38	C	-0.230176	0.843533	0.331682
C39	C	-0.230171	0.843526	0.248232
C40	C	-0.230198	0.843561	0.668229
C41	C	-0.230200	0.843573	0.751686
C42	C	-0.075666	0.945866	0.751660
C43	C	-0.075661	0.945859	0.668209
C44	C	-0.152924	0.894701	0.626498
C45	C	-0.152923	0.894696	0.536010
C46	C	-0.152916	0.894696	0.463887
H47	H	-0.146475	0.124427	-0.131189
H48	H	-0.149884	0.267656	-0.131180
O49	O	-0.305275	0.793945	0.207622
C50	C	-0.375238	0.834756	0.159347
H51	H	-0.329929	0.893791	0.146830
H52	H	-0.393243	0.803235	0.100673
H53	H	-0.459115	0.840243	0.191500
O54	O	-0.150153	0.273709	0.142464
C55	C	-0.247954	0.246253	0.186425
H56	H	-0.279340	0.186211	0.165872
H57	H	-0.225782	0.245372	0.252538
H58	H	-0.317824	0.284972	0.176414
O59	O	-0.155854	0.515640	0.142502
C60	C	-0.157066	0.567405	0.206287
H61	H	-0.194333	0.620703	0.185099
H62	H	-0.211598	0.540008	0.256832
H63	H	-0.066251	0.583363	0.228509
H64	H	-0.159415	0.665024	-0.131154
H65	H	-0.012744	0.987506	0.634228
H66	H	-0.293124	0.801924	0.785668
O67	O	-0.159370	0.671269	0.142386
C68	C	-0.062195	0.725091	0.146707
H69	H	-0.029738	0.739650	0.083956
H70	H	-0.085617	0.778769	0.177295
H71	H	0.007347	0.700377	0.182364
H72	H	-0.155985	0.521785	-0.131163
H73	H	-0.146438	0.124370	0.131050
H74	H	-0.293087	0.801888	0.365670
H75	H	-0.012722	0.987476	0.214232
O76	O	-0.000553	0.995600	0.372057
C77	C	0.067655	1.040732	0.317323
H78	H	0.021128	1.041761	0.257832
H79	H	0.085055	1.101105	0.341414
H80	H	0.151936	1.015826	0.308464
O81	O	-0.000644	0.995484	0.792302
C82	C	-0.017227	0.984539	0.874908
H83	H	-0.059750	0.924543	0.886324
H84	H	0.068741	0.992613	0.906624
H85	H	-0.074077	1.027609	0.898575
H86	H	-0.293111	0.801908	0.634275
