data_functionalizedCrystal
_audit_creation_method	'MofGen! by Chris Wilmer'
_symmetry_space_group_name_H-M	'P1'
_symmetry_Int_Tables_number	1
_symmetry_cell_setting	triclinic
loop_
_symmetry_equiv_pos_as_xyz
  x,y,z
_cell_length_a	14.908571
_cell_length_b	13.897448
_cell_length_c	14.908308
_cell_angle_alpha	86.732812
_cell_angle_beta	89.824947
_cell_angle_gamma	86.713891
loop_
_atom_site_label
_atom_site_type_symbol
_atom_site_fract_x
_atom_site_fract_y
_atom_site_fract_z
Zn1	Zn	1.345318	-0.503381	0.587582
Zn2	Zn	1.353905	-0.655952	0.437223
Zn3	Zn	1.203632	-0.484854	0.428580
Zn4	Zn	1.194933	-0.654806	0.578874
O5	O	1.274447	-0.574748	0.508065
O6	O	1.472283	-0.531853	0.574898
O7	O	1.341206	-0.625981	0.310251
O8	O	1.222474	-0.352335	0.449699
O9	O	1.478592	-0.643947	0.464429
O10	O	1.326570	-0.365946	0.566518
O11	O	1.230801	-0.500276	0.303902
O12	O	1.076652	-0.499165	0.441256
O13	O	1.207647	-0.641993	0.705854
O14	O	1.070260	-0.624028	0.551676
O15	O	1.318134	-0.530742	0.712252
O16	O	1.332770	-0.790777	0.455986
O17	O	1.215974	-0.789935	0.560056
C18	C	1.040831	-0.559463	0.494584
C19	C	0.940888	-0.552948	0.488838
C20	C	1.274383	-0.825357	0.508035
C21	C	1.274436	-0.932575	0.508057
C22	C	0.746485	-0.670908	0.592867
C23	C	0.652579	-0.664790	0.587471
C24	C	0.659168	-0.534590	0.472656
C25	C	0.753074	-0.540708	0.478051
C26	C	0.796729	-0.608870	0.538158
C27	C	0.890637	-0.614992	0.543549
C28	C	0.897224	-0.484788	0.428738
C29	C	0.803318	-0.478670	0.423343
C30	C	1.274527	-1.128880	0.508119
C31	C	1.274474	-1.019642	0.508087
C32	C	1.508975	-0.590094	0.521599
C33	C	1.608918	-0.596634	0.527367
C34	C	1.260963	-0.588307	0.742590
C35	C	1.255216	-0.594084	0.842531
C36	C	1.274535	-0.323164	0.508116
C37	C	1.274572	-0.215954	0.508138
C38	C	1.287931	-0.561177	0.274455
C39	C	1.293851	-0.555139	0.174525
C40	C	1.359466	-0.489073	1.036993
C41	C	1.354070	-0.494498	1.130897
C42	C	1.239023	-0.610355	1.124242
C43	C	1.244420	-0.604930	1.030339
C44	C	1.304644	-0.544287	0.986718
C45	C	1.310044	-0.538868	0.892813
C46	C	1.194994	-0.654719	0.886160
C47	C	1.189597	-0.660144	0.980064
H48	H	0.926180	-0.670495	0.592489
O49	O	1.417849	-0.430114	0.994508
C50	C	1.436084	-0.294523	0.889244
C51	C	1.369867	-0.361236	0.937280
H52	H	1.397315	-0.238806	0.842978
H53	H	1.485597	-0.339291	0.847924
H54	H	1.474366	-0.256041	0.941325
H55	H	1.331523	-0.399732	0.885259
H56	H	1.320413	-0.316417	0.978616
H57	H	1.398709	-0.449534	1.171828
H58	H	0.938142	-0.434274	0.384188
O59	O	1.368420	-0.479896	0.850333
C60	C	1.386631	-0.344289	0.745082
C61	C	1.320427	-0.411024	0.793108
H62	H	1.347853	-0.288577	0.698819
H63	H	1.436156	-0.389040	0.703760
H64	H	1.424901	-0.305802	0.797169
H65	H	1.282095	-0.449525	0.741082
H66	H	1.270961	-0.366222	0.834446
H67	H	1.189991	-0.659727	1.159775
O68	O	1.131226	-0.719163	1.022489
C69	C	1.112998	-0.854685	1.127835
C70	C	1.179202	-0.787928	1.079836
H71	H	1.151758	-0.910285	1.174224
H72	H	1.074756	-0.893293	1.075811
H73	H	1.063451	-0.809844	1.169050
H74	H	1.228803	-0.832698	1.038622
H75	H	1.217378	-0.749315	1.131905
O76	O	0.788754	-0.737146	0.651325
C77	C	0.772315	-0.865688	0.764591
C78	C	0.724333	-0.790703	0.698441
H79	H	0.720252	-0.909022	0.802689
H80	H	0.813560	-0.827115	0.814264
H81	H	0.818667	-0.916485	0.725739
H82	H	0.677936	-0.739884	0.737218
H83	H	0.683144	-0.829339	0.648769
O84	O	0.603725	-0.724920	0.640706
C85	C	0.490712	-0.738197	0.755951
C86	C	0.545996	-0.669991	0.695727
H87	H	0.444011	-0.693814	0.800438
H88	H	0.538002	-0.787947	0.799900
H89	H	0.449150	-0.783332	0.712047
H90	H	0.587563	-0.624794	0.739562
H91	H	0.498658	-0.620305	0.651772
H92	H	1.150356	-0.699682	0.845216
H93	H	0.623607	-0.479089	0.423726
H94	H	0.767761	-0.423172	0.374408
