data_functionalizedCrystal
_audit_creation_method	'MofGen! by Chris Wilmer'
_symmetry_space_group_name_H-M	'P1'
_symmetry_Int_Tables_number	1
_symmetry_cell_setting	triclinic
loop_
_symmetry_equiv_pos_as_xyz
  x,y,z
_cell_length_a	27.732064
_cell_length_b	27.732048
_cell_length_c	17.766277
_cell_angle_alpha	89.988664
_cell_angle_beta	89.998268
_cell_angle_gamma	82.646040
loop_
_atom_site_label
_atom_site_type_symbol
_atom_site_fract_x
_atom_site_fract_y
_atom_site_fract_z
O1	O	0.640925	0.057556	-0.062468
O2	O	0.974259	0.390889	0.270865
O3	O	1.307592	0.724223	0.604199
O4	O	0.500133	0.066293	-0.062500
O5	O	0.833466	0.399626	0.270833
O6	O	1.166800	0.732960	0.604167
O7	O	0.574902	-0.008472	-0.062469
O8	O	0.908235	0.324861	0.270865
O9	O	1.241568	0.658195	0.604198
O10	O	0.566156	0.132321	-0.062499
O11	O	0.899490	0.465654	0.270834
O12	O	1.232823	0.798988	0.604167
O13	O	0.574889	-0.008476	0.062720
O14	O	0.908222	0.324858	0.396053
O15	O	1.241555	0.658191	0.729387
O16	O	0.500120	0.066289	0.062688
O17	O	0.833453	0.399623	0.396022
O18	O	1.166787	0.732956	0.729355
O19	O	0.640912	0.057552	0.062721
O20	O	0.974245	0.390886	0.396054
O21	O	1.307579	0.724219	0.729387
Cu22	Cu	0.570515	0.061920	0.074135
Cu23	Cu	0.903848	0.395254	0.407469
Cu24	Cu	1.237181	0.728587	0.740802
Cu25	Cu	0.570530	0.061925	-0.073915
Cu26	Cu	0.903864	0.395258	0.259419
Cu27	Cu	1.237197	0.728591	0.592752
O28	O	0.566143	0.132317	0.062689
O29	O	0.899477	0.465651	0.396023
O30	O	1.232810	0.798984	0.729356
C31	C	0.482120	0.066106	0.000090
C32	C	0.815453	0.399440	0.333424
C33	C	1.148786	0.732773	0.666757
C34	C	0.428465	0.065551	0.000079
C35	C	0.761798	0.398884	0.333412
C36	C	1.095132	0.732217	0.666745
C37	C	0.051392	0.017583	0.000132
C38	C	0.384726	0.350917	0.333465
C39	C	0.718059	0.684250	0.666799
C40	C	0.253053	0.019630	0.000112
C41	C	0.586386	0.352963	0.333445
C42	C	0.919719	0.686296	0.666779
O43	O	0.284305	-0.017591	0.000148
O44	O	0.617639	0.315742	0.333482
O45	O	0.950972	0.649075	0.666815
N46	N	0.272180	0.063964	0.000099
N47	N	0.605513	0.397297	0.333432
N48	N	0.938847	0.730631	0.666766
C49	C	0.240889	0.107790	0.000096
C50	C	0.574222	0.441123	0.333429
C51	C	0.907556	0.774456	0.666763
O52	O	0.261785	0.145546	0.000092
O53	O	0.595119	0.478879	0.333425
O54	O	0.928452	0.812212	0.666759
C55	C	0.039230	0.105743	0.000121
C56	C	0.372563	0.439076	0.333455
C57	C	0.705896	0.772410	0.666788
C58	C	0.020105	0.061406	0.000127
C59	C	0.353439	0.394739	0.333460
C60	C	0.686772	0.728072	0.666793
C61	C	0.032267	-0.026750	0.000138
C62	C	0.365601	0.306583	0.333472
C63	C	0.698934	0.639916	0.666805
C64	C	-0.018145	-0.027261	0.000139
C65	C	0.315189	0.306072	0.333472
C66	C	0.648522	0.639405	0.666806
C67	C	-0.049432	0.016561	0.000134
C68	C	0.283901	0.349895	0.333467
C69	C	0.617235	0.683228	0.666800
C70	C	-0.030307	0.060895	0.000128
C71	C	0.303027	0.394228	0.333461
C72	C	0.636360	0.727561	0.666794
C73	C	0.007940	0.149568	0.000124
C74	C	0.341273	0.482902	0.333457
C75	C	0.674606	0.816235	0.666790
C76	C	-0.042478	0.149053	0.000132
C77	C	0.290855	0.482386	0.333465
C78	C	0.624189	0.815719	0.666799
C79	C	-0.061602	0.104716	0.000137
C80	C	0.271731	0.438049	0.333471
C81	C	0.605064	0.771382	0.666804
C82	C	-0.112006	0.104206	0.000123
C83	C	0.221327	0.437539	0.333457
C84	C	0.554661	0.770873	0.666790
N85	N	-0.131134	0.059872	0.000136
N86	N	0.202200	0.393205	0.333470
N87	N	0.535533	0.726539	0.666803
C88	C	-0.099846	0.016049	0.000142
C89	C	0.233487	0.349383	0.333475
C90	C	0.566820	0.682716	0.666808
C91	C	0.346763	0.108861	0.000081
C92	C	0.680097	0.442194	0.333414
C93	C	1.013430	0.775528	0.666748
C94	C	0.397178	0.109373	0.000073
C95	C	0.730511	0.442706	0.333407
C96	C	1.063845	0.776040	0.666740
C97	C	0.409338	0.021213	0.000091
C98	C	0.742672	0.354546	0.333424
C99	C	1.076005	0.687879	0.666758
C100	C	0.358923	0.020701	0.000093
C101	C	0.692256	0.354035	0.333427
C102	C	1.025589	0.687368	0.666760
C103	C	0.327636	0.064527	0.000094
C104	C	0.660969	0.397860	0.333427
C105	C	0.994303	0.731194	0.666761
C106	C	-0.205716	0.014979	0.000143
C107	C	0.127617	0.348313	0.333476
C108	C	0.460951	0.681646	0.666809
C109	C	-0.256133	0.014472	0.000141
C110	C	0.077200	0.347806	0.333474
C111	C	0.410534	0.681139	0.666807
C112	C	-0.268289	0.102632	0.000127
C113	C	0.065045	0.435966	0.333460
C114	C	0.398378	0.769299	0.666794
C115	C	-0.217876	0.103140	0.000125
C116	C	0.115457	0.436473	0.333459
C117	C	0.448791	0.769806	0.666792
C118	C	-0.186590	0.059309	0.000136
C119	C	0.146743	0.392643	0.333469
C120	C	0.480076	0.725976	0.666802
O121	O	-0.143287	0.141407	0.000095
O122	O	0.190046	0.474741	0.333429
O123	O	0.523380	0.808074	0.666762
O124	O	-0.120752	-0.021701	0.000162
O125	O	0.212581	0.311632	0.333495
O126	O	0.545914	0.644966	0.666829
C127	C	0.101804	0.018094	0.000131
C128	C	0.435138	0.351428	0.333464
C129	C	0.768471	0.684761	0.666798
C130	C	0.120930	0.062428	0.000125
C131	C	0.454263	0.395761	0.333458
C132	C	0.787596	0.729095	0.666792
C133	C	0.089642	0.106250	0.000120
C134	C	0.422976	0.439584	0.333453
C135	C	0.756309	0.772917	0.666786
C136	C	0.171344	0.062940	0.000117
C137	C	0.504677	0.396273	0.333451
C138	C	0.838011	0.729606	0.666784
C139	C	0.202631	0.019117	0.000123
C140	C	0.535965	0.352451	0.333456
C141	C	0.869298	0.685784	0.666789
C142	C	0.183504	-0.025217	0.000136
C143	C	0.516837	0.308116	0.333469
C144	C	0.850170	0.641450	0.666802
C145	C	0.133092	-0.025728	0.000136
C146	C	0.466425	0.307605	0.333470
C147	C	0.799758	0.640939	0.666803
C148	C	0.108770	0.150585	0.000107
C149	C	0.442103	0.483918	0.333440
C150	C	0.775437	0.817251	0.666773
C151	C	0.159183	0.151092	0.000105
C152	C	0.492516	0.484426	0.333438
C153	C	0.825849	0.817759	0.666771
C154	C	0.190470	0.107270	0.000110
C155	C	0.523803	0.440603	0.333443
C156	C	0.857136	0.773936	0.666777
C157	C	0.574712	-0.026481	0.000128
C158	C	0.908045	0.306853	0.333461
C159	C	1.241378	0.640186	0.666794
C160	C	0.574159	-0.080136	0.000134
C161	C	0.907492	0.253198	0.333467
C162	C	1.240826	0.586531	0.666800
C163	C	0.614862	-0.418948	0.000104
C164	C	0.948196	-0.085615	0.333438
C165	C	1.281529	0.247718	0.666771
C166	C	0.612811	-0.620608	0.000093
C167	C	0.946145	-0.287275	0.333427
C168	C	1.279478	0.046059	0.666760
O169	O	0.650032	-0.651862	0.000069
O170	O	0.983365	-0.318528	0.333402
O171	O	1.316698	0.014805	0.666736
N172	N	0.568476	-0.639735	0.000084
N173	N	0.901810	-0.306401	0.333417
N174	N	1.235143	0.026932	0.666751
C175	C	0.524651	-0.608442	0.000072
C176	C	0.857985	-0.275109	0.333406
C177	C	1.191318	0.058224	0.666739
O178	O	0.486895	-0.629338	0.000056
O179	O	0.820228	-0.296004	0.333390
O180	O	1.153561	0.037329	0.666723
C181	C	0.526703	-0.406784	0.000078
C182	C	0.860036	-0.073450	0.333411
C183	C	1.193369	0.259883	0.666745
C184	C	0.571040	-0.387660	0.000095
C185	C	0.904374	-0.054327	0.333428
C186	C	1.237707	0.279006	0.666762
C187	C	0.659196	-0.399824	0.000121
C188	C	0.992530	-0.066491	0.333454
C189	C	1.325863	0.266842	0.666787
C190	C	0.659709	-0.349412	0.000127
C191	C	0.993042	-0.016079	0.333461
C192	C	1.326375	0.317254	0.666794
C193	C	0.615887	-0.318124	0.000118
C194	C	0.949220	0.015209	0.333451
C195	C	1.282554	0.348542	0.666785
C196	C	0.571553	-0.337248	0.000102
C197	C	0.904886	-0.003915	0.333435
C198	C	1.238219	0.329418	0.666768
C199	C	0.482878	-0.375493	0.000061
C200	C	0.816211	-0.042159	0.333394
C201	C	1.149545	0.291174	0.666728
C202	C	0.483395	-0.325075	0.000060
C203	C	0.816728	0.008258	0.333394
C204	C	1.150062	0.341591	0.666727
C205	C	0.527733	-0.305952	0.000077
C206	C	0.861066	0.027381	0.333411
C207	C	1.194399	0.360715	0.666744
C208	C	0.528243	-0.255548	0.000099
C209	C	0.861576	0.077785	0.333433
C210	C	1.194910	0.411118	0.666766
N211	N	0.572578	-0.236422	0.000109
N212	N	0.905911	0.096911	0.333442
N213	N	1.239245	0.430245	0.666775
C214	C	0.616400	-0.267710	0.000118
C215	C	0.949733	0.065623	0.333451
C216	C	1.283067	0.398957	0.666785
C217	C	0.523577	-0.714317	0.000071
C218	C	0.856911	-0.380983	0.333404
C219	C	1.190244	-0.047650	0.666738
C220	C	0.523064	-0.764731	0.000071
C221	C	0.856398	-0.431398	0.333404
C222	C	1.189731	-0.098064	0.666738
C223	C	0.611225	-0.776893	0.000090
C224	C	0.944558	-0.443560	0.333424
C225	C	1.277891	-0.110227	0.666757
C226	C	0.611737	-0.726478	0.000096
C227	C	0.945070	-0.393145	0.333429
C228	C	1.278404	-0.059811	0.666763
C229	C	0.567912	-0.695190	0.000080
C230	C	0.901245	-0.361857	0.333414
C231	C	1.234579	-0.028524	0.666747
C232	C	0.617472	-0.161841	0.000133
C233	C	0.950806	0.171493	0.333466
C234	C	1.284139	0.504826	0.666800
C235	C	0.617981	-0.111424	0.000143
C236	C	0.951314	0.221910	0.333476
C237	C	1.284647	0.555243	0.666810
C238	C	0.529821	-0.099266	0.000119
C239	C	0.863154	0.234067	0.333453
C240	C	1.196487	0.567401	0.666786
C241	C	0.529312	-0.149679	0.000113
C242	C	0.862645	0.183655	0.333447
C243	C	1.195979	0.516988	0.666780
C244	C	0.573142	-0.180965	0.000118
C245	C	0.906475	0.152368	0.333451
C246	C	1.239808	0.485701	0.666784
O247	O	0.491043	-0.224267	0.000115
O248	O	0.824376	0.109067	0.333449
O249	O	1.157709	0.442400	0.666782
O250	O	0.654151	-0.246805	0.000117
O251	O	0.987484	0.086528	0.333451
O252	O	1.320818	0.419861	0.666784
C253	C	0.614350	-0.469360	0.000097
C254	C	0.947683	-0.136027	0.333431
C255	C	1.281017	0.197306	0.666764
C256	C	0.570016	-0.488484	0.000081
C257	C	0.903349	-0.155151	0.333415
C258	C	1.236683	0.178182	0.666748
C259	C	0.526194	-0.457196	0.000072
C260	C	0.859527	-0.123863	0.333405
C261	C	1.192861	0.209470	0.666739
C262	C	0.569503	-0.538899	0.000081
C263	C	0.902836	-0.205565	0.333415
C264	C	1.236170	0.127768	0.666748
C265	C	0.613325	-0.570187	0.000091
C266	C	0.946658	-0.236853	0.333424
C267	C	1.279991	0.096480	0.666757
C268	C	0.657660	-0.551060	0.000100
C269	C	0.990993	-0.217727	0.333433
C270	C	1.324326	0.115606	0.666767
C271	C	0.658172	-0.500648	0.000107
C272	C	0.991505	-0.167315	0.333440
C273	C	1.324839	0.166018	0.666774
C274	C	0.481859	-0.476323	0.000063
C275	C	0.815193	-0.142989	0.333396
C276	C	1.148526	0.190344	0.666729
C277	C	0.481351	-0.526735	0.000057
C278	C	0.814684	-0.193402	0.333390
C279	C	1.148017	0.139932	0.666723
C280	C	0.525172	-0.558023	0.000066
C281	C	0.858506	-0.224690	0.333399
C282	C	1.191839	0.108643	0.666733
C283	C	0.658925	0.057739	0.000129
C284	C	0.992259	0.391072	0.333462
C285	C	1.325592	0.724405	0.666795
C286	C	0.712580	0.058295	0.000135
C287	C	1.045913	0.391628	0.333469
C288	C	1.379247	0.724961	0.666802
C289	C	0.566333	0.150326	0.000091
C290	C	0.899667	0.483659	0.333425
C291	C	1.233000	0.816993	0.666758
C292	C	0.566886	0.203981	0.000080
C293	C	0.900219	0.537314	0.333414
C294	C	1.233553	0.870648	0.666747
N295	N	0.570508	0.061917	0.178266
N296	N	0.903841	0.395250	0.511599
N297	N	1.237174	0.728584	0.844932
N298	N	0.570541	0.061924	-0.178045
N299	N	0.903875	0.395258	0.155288
N300	N	1.237208	0.728591	0.488622
C301	C	0.603626	0.028827	0.217666
C302	C	0.936959	0.362160	0.551000
C303	C	1.270292	0.695494	0.884333
C304	C	0.603629	0.028825	0.296468
C305	C	0.936962	0.362158	0.629802
C306	C	1.270295	0.695491	0.963135
C307	C	0.570518	0.061921	0.335866
C308	C	0.903851	0.395254	0.669199
C309	C	1.237184	0.728587	1.002533
C310	C	0.537393	0.095013	0.296456
C311	C	0.870727	0.428347	0.629789
C312	C	1.204060	0.761680	0.963122
C313	C	0.537388	0.095011	0.217656
C314	C	0.870722	0.428345	0.550989
C315	C	1.204055	0.761678	0.884322
C316	C	0.563855	0.105992	0.460694
C317	C	0.897189	0.439325	0.794027
C318	C	1.230522	0.772659	1.127360
C319	C	0.563864	0.105994	0.539492
C320	C	0.897197	0.439328	0.872826
C321	C	1.230530	0.772661	1.206159
C322	C	0.570531	0.061927	0.578912
C323	C	0.903864	0.395260	0.912246
C324	C	1.237197	0.728593	1.245579
C325	C	0.577199	0.017854	0.539524
C326	C	0.910533	0.351187	0.872857
C327	C	1.243866	0.684521	1.206191
C328	C	0.577194	0.017852	0.460724
C329	C	0.910527	0.351186	0.794057
C330	C	1.243861	0.684519	1.127390
C331	C	0.570519	0.061926	0.421312
C332	C	0.903853	0.395260	0.754645
C333	C	1.237186	0.728593	1.087978
C334	C	0.603654	0.028831	0.703759
C335	C	0.936987	0.362165	1.037093
C336	C	1.270320	0.695498	1.370426
C337	C	0.603653	0.028829	0.782562
C338	C	0.936986	0.362162	1.115896
C339	C	1.270320	0.695495	1.449229
C340	C	0.537420	0.095021	0.782549
C341	C	0.870753	0.428354	1.115882
C342	C	1.204087	0.761688	1.449215
C343	C	0.537418	0.095020	0.703747
C344	C	0.870752	0.428353	1.037080
C345	C	1.204085	0.761687	1.370414
C346	C	0.570538	0.061926	0.664357
C347	C	0.903871	0.395259	0.997690
C348	C	1.237204	0.728592	1.331024
H349	H	-0.033711	-0.063365	0.000147
H350	H	0.299623	0.269968	0.333480
H351	H	0.632956	0.603302	0.666813
C352	C	0.481621	-0.064843	0.000105
C353	C	0.814954	0.268490	0.333438
C354	C	1.148287	0.601823	0.666772
H355	H	0.488280	-0.032081	0.000102
H356	H	0.821613	0.301253	0.333435
H357	H	1.154946	0.634586	0.666769
H358	H	0.463415	-0.070608	0.043752
H359	H	0.796748	0.262725	0.377085
H360	H	1.130082	0.596059	0.710418
H361	H	0.463434	-0.070599	-0.043566
H362	H	0.796767	0.262734	0.289768
H363	H	1.130100	0.596067	0.623101
C364	C	-0.277167	-0.034301	0.000151
C365	C	0.056166	0.299033	0.333484
C366	C	0.389500	0.632366	0.666818
H367	H	-0.251310	-0.060325	0.000162
H368	H	0.082023	0.273008	0.333496
H369	H	0.415356	0.606342	0.666829
H370	H	-0.296581	-0.036333	-0.043503
H371	H	0.036752	0.297000	0.289830
H372	H	0.370085	0.630333	0.623164
H373	H	-0.296580	-0.036334	0.043815
H374	H	0.036754	0.296999	0.377148
H375	H	0.370087	0.630332	0.710481
C376	C	0.584529	-0.030623	0.582875
C377	C	0.917862	0.302710	0.916208
C378	C	1.251196	0.636043	1.249541
H379	H	0.583571	-0.024312	0.635446
H380	H	0.916904	0.309021	0.968780
H381	H	1.250237	0.642354	1.302113
H382	H	0.615143	-0.048071	0.569965
H383	H	0.948476	0.285262	0.903298
H384	H	1.281809	0.618595	1.236632
H385	H	0.559387	-0.049390	0.569968
H386	H	0.892721	0.283944	0.903301
H387	H	1.226054	0.617277	1.236634
C388	C	0.640066	-0.007562	0.174338
C389	C	0.973400	0.325771	0.507671
C390	C	1.306733	0.659104	0.841005
H391	H	0.635328	-0.002819	0.121763
H392	H	0.968661	0.330515	0.455097
H393	H	1.301995	0.663848	0.788430
H394	H	0.635078	-0.039795	0.187254
H395	H	0.968412	0.293539	0.520588
H396	H	1.301745	0.626872	0.853921
H397	H	0.672281	-0.002512	0.187257
H398	H	1.005615	0.330822	0.520590
H399	H	1.338948	0.664155	0.853923
C400	C	0.432576	-0.547765	0.000035
C401	C	0.765909	-0.214432	0.333369
C402	C	1.099242	0.118902	0.666702
H403	H	0.406553	-0.521906	0.000023
H404	H	0.739886	-0.188573	0.333356
H405	H	1.073220	0.144760	0.666690
H406	H	0.430531	-0.567188	0.043685
H407	H	0.763865	-0.233854	0.377018
H408	H	1.097198	0.099479	0.710351
H409	H	0.430550	-0.567168	-0.043633
H410	H	0.763884	-0.233835	0.289701
H411	H	1.097217	0.099498	0.623034
H412	H	0.630620	0.001883	0.671687
H413	H	0.963953	0.335216	1.005020
H414	H	1.297287	0.668549	1.338353
C415	C	0.028966	0.198340	0.000129
C416	C	0.362299	0.531673	0.333462
C417	C	0.695632	0.865007	0.666796
H418	H	0.003105	0.224361	0.000138
H419	H	0.336439	0.557694	0.333472
H420	H	0.669772	0.891028	0.666805
H421	H	0.048380	0.200385	-0.043525
H422	H	0.381713	0.533719	0.289808
H423	H	0.715046	0.867052	0.623142
H424	H	0.048377	0.200367	0.043792
H425	H	0.381710	0.533700	0.377126
H426	H	0.715044	0.867034	0.710459
C427	C	0.112061	-0.074499	0.000150
C428	C	0.445394	0.258834	0.333483
C429	C	0.778728	0.592167	0.666817
H430	H	0.137920	-0.100521	0.000160
H431	H	0.471254	0.232812	0.333493
H432	H	0.804587	0.566145	0.666827
H433	H	0.092646	-0.076535	-0.043502
H434	H	0.425979	0.256799	0.289831
H435	H	0.759312	0.590132	0.623165
H436	H	0.092650	-0.076535	0.043815
H437	H	0.425984	0.256798	0.377149
H438	H	0.759317	0.590132	0.710482
H439	H	0.446774	-0.391054	0.000043
H440	H	0.780107	-0.057720	0.333376
H441	H	1.113440	0.275613	0.666709
H442	H	0.694276	-0.485083	0.000120
H443	H	1.027609	-0.151750	0.333454
H444	H	1.360943	0.181583	0.666787
H445	H	0.083300	0.186271	0.000103
H446	H	0.416634	0.519604	0.333437
H447	H	0.749967	0.852938	0.666770
C448	C	0.217924	-0.073422	0.000139
C449	C	0.551257	0.259912	0.333472
C450	C	0.884590	0.593245	0.666806
H451	H	0.199317	-0.099903	0.000139
H452	H	0.532650	0.233431	0.333473
H453	H	0.865984	0.566764	0.666806
H454	H	0.237845	-0.075054	0.043793
H455	H	0.571178	0.258279	0.377126
H456	H	0.904511	0.591613	0.710460
H457	H	0.237841	-0.075048	-0.043524
H458	H	0.571175	0.258285	0.289809
H459	H	0.904508	0.591618	0.623142
H460	H	-0.180248	-0.020712	0.000151
H461	H	0.153085	0.312622	0.333484
H462	H	0.486418	0.645955	0.666818
H463	H	-0.067950	0.184742	0.000136
H464	H	0.265384	0.518075	0.333469
H465	H	0.598717	0.851408	0.666803
H466	H	0.057737	-0.062438	0.000145
H467	H	0.391070	0.270896	0.333478
H468	H	0.724404	0.604229	0.666812
H469	H	0.630620	0.001880	0.814643
H470	H	0.963954	0.335214	1.147977
H471	H	1.297287	0.668547	1.481310
H472	H	-0.202304	0.139243	0.000120
H473	H	0.131029	0.472576	0.333453
H474	H	0.464362	0.805909	0.666787
C475	C	0.640061	-0.007575	0.339818
C476	C	0.973394	0.325759	0.673152
C477	C	1.306727	0.659092	1.006485
H478	H	0.659786	-0.027283	0.305073
H479	H	0.993119	0.306051	0.638406
H480	H	1.326452	0.639384	0.971740
H481	H	0.622828	-0.027578	0.370572
H482	H	0.956162	0.305755	0.703905
H483	H	1.289495	0.639089	1.037238
H484	H	0.660052	0.009685	0.370545
H485	H	0.993385	0.343018	0.703878
H486	H	1.326719	0.676351	1.037212
C487	C	0.500999	0.131426	0.825877
C488	C	0.834332	0.464759	1.159210
C489	C	1.167665	0.798093	1.492543
H490	H	0.505746	0.126690	0.878451
H491	H	0.839079	0.460024	1.211784
H492	H	1.172413	0.793357	1.545118
H493	H	0.468778	0.126397	0.812970
H494	H	0.802112	0.459730	1.146303
H495	H	1.135445	0.793064	1.479637
H496	H	0.506008	0.163653	0.812950
H497	H	0.839341	0.496987	1.146283
H498	H	1.172675	0.830320	1.479617
C499	C	0.705862	-0.585484	0.000105
C500	C	1.039196	-0.252150	0.333438
C501	C	1.372529	0.081183	0.666771
H502	H	0.699202	-0.618246	0.000092
H503	H	1.032535	-0.284913	0.333425
H504	H	1.365869	0.048421	0.666759
H505	H	0.724059	-0.579733	0.043762
H506	H	1.057392	-0.246399	0.377096
H507	H	1.390725	0.086934	0.710429
H508	H	0.724059	-0.579715	-0.043555
H509	H	1.057392	-0.246382	0.289778
H510	H	1.390726	0.086952	0.623112
C511	C	0.665684	-0.196249	0.000144
C512	C	0.999017	0.137084	0.333477
C513	C	1.332350	0.470418	0.666811
H514	H	0.692157	-0.177633	0.000162
H515	H	1.025491	0.155701	0.333495
H516	H	1.358824	0.489034	0.666828
H517	H	0.667328	-0.216164	-0.043512
H518	H	1.000661	0.117170	0.289822
H519	H	1.333994	0.450503	0.623155
H520	H	0.667312	-0.216173	0.043806
H521	H	1.000645	0.117160	0.377139
H522	H	1.333979	0.450494	0.710473
C523	C	0.180214	0.199866	0.000101
C524	C	0.513547	0.533200	0.333434
C525	C	0.846880	0.866533	0.666767
H526	H	0.154356	0.225890	0.000105
H527	H	0.487689	0.559223	0.333439
H528	H	0.821022	0.892556	0.666772
H529	H	0.199629	0.201908	-0.043553
H530	H	0.532963	0.535241	0.289781
H531	H	0.866296	0.868574	0.623114
H532	H	0.199624	0.201894	0.043765
H533	H	0.532957	0.535228	0.377098
H534	H	0.866291	0.868561	0.710431
C535	C	0.666753	-0.090389	0.000162
C536	C	1.000086	0.242945	0.333496
C537	C	1.333419	0.576278	0.666829
H538	H	0.660785	-0.055882	0.000173
H539	H	0.994118	0.277451	0.333506
H540	H	1.327451	0.610784	0.666839
H541	H	0.684786	-0.101143	-0.043489
H542	H	1.018119	0.232190	0.289845
H543	H	1.351453	0.565524	0.623178
H544	H	0.684773	-0.101159	0.043829
H545	H	1.018106	0.232174	0.377162
H546	H	1.351439	0.565508	0.710495
H547	H	0.582623	-0.018033	0.428657
H548	H	0.915956	0.315300	0.761990
H549	H	1.249289	0.648634	1.095323
H550	H	0.646906	-0.802377	0.000098
H551	H	0.980239	-0.469043	0.333432
H552	H	1.313573	-0.135710	0.666765
C553	C	0.433652	-0.441912	0.000060
C554	C	0.766986	-0.108579	0.333393
C555	C	1.100319	0.224755	0.666727
H556	H	0.407178	-0.460528	0.000060
H557	H	0.740512	-0.127194	0.333393
H558	H	1.073845	0.206139	0.666727
H559	H	0.432017	-0.421982	-0.043591
H560	H	0.765350	-0.088649	0.289743
H561	H	1.098684	0.244685	0.623076
H562	H	0.432016	-0.422003	0.043727
H563	H	0.765350	-0.088670	0.377060
H564	H	1.098683	0.244664	0.710393
H565	H	0.343355	-0.015402	0.000098
H566	H	0.676689	0.317931	0.333431
H567	H	1.010022	0.651265	0.666765
H568	H	0.321293	0.144551	0.000081
H569	H	0.654627	0.477885	0.333414
H570	H	0.987960	0.811218	0.666747
C571	C	-0.302710	0.150833	0.000127
C572	C	0.030623	0.484166	0.333460
C573	C	0.363956	0.817500	0.666794
H574	H	-0.335473	0.144175	0.000138
H575	H	-0.002140	0.477508	0.333472
H576	H	0.331193	0.810841	0.666805
H577	H	-0.296953	0.169037	-0.043528
H578	H	0.036380	0.502370	0.289805
H579	H	0.369714	0.835704	0.623138
H580	H	-0.296946	0.169021	0.043789
H581	H	0.036387	0.502355	0.377123
H582	H	0.369720	0.835688	0.710456
C583	C	0.474293	-0.785761	0.000058
C584	C	0.807626	-0.452428	0.333392
C585	C	1.140960	-0.119095	0.666725
H586	H	0.448270	-0.759903	0.000045
H587	H	0.781604	-0.426570	0.333378
H588	H	1.114937	-0.093236	0.666711
H589	H	0.472251	-0.805181	0.043711
H590	H	0.805584	-0.471848	0.377045
H591	H	1.138918	-0.138515	0.710378
H592	H	0.472265	-0.805168	-0.043606
H593	H	0.805599	-0.471834	0.289727
H594	H	1.138932	-0.138501	0.623061
C595	C	0.556532	0.154471	0.582813
C596	C	0.889865	0.487804	0.916146
C597	C	1.223199	0.821138	1.249479
H598	H	0.552553	0.180716	0.548052
H599	H	0.885886	0.514049	0.881385
H600	H	1.219219	0.847382	1.214718
H601	H	0.584133	0.156967	0.613544
H602	H	0.917466	0.490301	0.946877
H603	H	1.250800	0.823634	1.280210
H604	H	0.528379	0.155640	0.613560
H605	H	0.861713	0.488974	0.946893
H606	H	1.195046	0.822307	1.280227
C607	C	0.500998	0.131427	0.660400
C608	C	0.834331	0.464760	0.993734
C609	C	1.167664	0.798094	1.327067
H610	H	0.505736	0.126685	0.607828
H611	H	0.839069	0.460019	0.941161
H612	H	1.172403	0.793352	1.274494
H613	H	0.506009	0.163651	0.673305
H614	H	0.839343	0.496985	1.006638
H615	H	1.172676	0.830318	1.339972
H616	H	0.468775	0.126399	0.673318
H617	H	0.802109	0.459733	1.006652
H618	H	1.135442	0.793066	1.339985
H619	H	0.487888	-0.688846	0.000058
H620	H	0.821221	-0.355513	0.333392
H621	H	1.154554	-0.022179	0.666725
H622	H	0.434821	-0.014469	0.000092
H623	H	0.768154	0.318864	0.333426
H624	H	1.101488	0.652197	0.666759
C625	C	0.556525	0.154470	0.417339
C626	C	0.889858	0.487803	0.750672
C627	C	1.223192	0.821136	1.084006
H628	H	0.552563	0.180717	0.452081
H629	H	0.885896	0.514050	0.785415
H630	H	1.219229	0.847383	1.118748
H631	H	0.528371	0.155643	0.386602
H632	H	0.861705	0.488976	0.719935
H633	H	1.195038	0.822310	1.053268
H634	H	0.584127	0.156959	0.386596
H635	H	0.917460	0.490292	0.719929
H636	H	1.250794	0.823626	1.053263
C637	C	0.500974	0.131419	0.339790
C638	C	0.834307	0.464752	0.673123
C639	C	1.167640	0.798086	1.006457
H640	H	0.505723	0.126685	0.392364
H641	H	0.839057	0.460018	0.725698
H642	H	1.172390	0.793351	1.059031
H643	H	0.468753	0.126390	0.326887
H644	H	0.802086	0.459723	0.660221
H645	H	1.135420	0.793056	0.993554
H646	H	0.505983	0.163646	0.326860
H647	H	0.839316	0.496980	0.660193
H648	H	1.172649	0.830313	0.993527
C649	C	0.418210	0.158144	0.000060
C650	C	0.751543	0.491477	0.333393
C651	C	1.084876	0.824810	0.666726
H652	H	0.392352	0.184167	0.000065
H653	H	0.725685	0.517500	0.333398
H654	H	1.059018	0.850834	0.666732
H655	H	0.437622	0.160182	-0.043598
H656	H	0.770956	0.493515	0.289736
H657	H	1.104289	0.826849	0.623069
H658	H	0.437623	0.160174	0.043720
H659	H	0.770957	0.493507	0.377053
H660	H	1.104290	0.826841	0.710387
H661	H	0.447706	-0.299603	0.000047
H662	H	0.781040	0.033731	0.333380
H663	H	1.114373	0.367064	0.666713
H664	H	0.695813	-0.333847	0.000138
H665	H	1.029146	-0.000514	0.333471
H666	H	1.362480	0.332819	0.666805
H667	H	0.694883	-0.425295	0.000125
H668	H	1.028217	-0.091962	0.333459
H669	H	1.361550	0.241372	0.666792
C670	C	0.480542	-0.170716	0.000093
C671	C	0.813876	0.162618	0.333426
C672	C	1.147209	0.495951	0.666760
H673	H	0.454517	-0.144859	0.000084
H674	H	0.787851	0.188474	0.333417
H675	H	1.121184	0.521808	0.666750
H676	H	0.478500	-0.190141	0.043740
H677	H	0.811833	0.143192	0.377073
H678	H	1.145167	0.476526	0.710407
H679	H	0.478518	-0.190117	-0.043578
H680	H	0.811852	0.143216	0.289756
H681	H	1.145185	0.476550	0.623089
C682	C	0.500960	0.131415	0.174313
C683	C	0.834293	0.464748	0.507646
C684	C	1.167627	0.798082	0.840979
H685	H	0.481241	0.151128	0.209060
H686	H	0.814575	0.484461	0.542393
H687	H	1.147908	0.817795	0.875727
H688	H	0.480969	0.114164	0.143579
H689	H	0.814303	0.447498	0.476912
H690	H	1.147636	0.780831	0.810246
H691	H	0.518199	0.151420	0.143567
H692	H	0.851533	0.484754	0.476900
H693	H	1.184866	0.818087	0.810233
H694	H	0.647841	-0.710911	0.000109
H695	H	0.981174	-0.377578	0.333442
H696	H	1.314507	-0.044245	0.666776
