data_functionalizedCrystal
_audit_creation_method	'MofGen! by Chris Wilmer'
_symmetry_space_group_name_H-M	'P1'
_symmetry_Int_Tables_number	1
_symmetry_cell_setting	triclinic
loop_
_symmetry_equiv_pos_as_xyz
  x,y,z
_cell_length_a	21.295411
_cell_length_b	11.169417
_cell_length_c	11.169416
_cell_angle_alpha	89.988781
_cell_angle_beta	89.981809
_cell_angle_gamma	90.013079
loop_
_atom_site_label
_atom_site_type_symbol
_atom_site_fract_x
_atom_site_fract_y
_atom_site_fract_z
Zn1	Zn	-0.355901	-1.834882	-0.477832
Zn2	Zn	-0.250646	-1.834795	-0.678528
Zn3	Zn	-0.250652	-1.634192	-0.477861
Zn4	Zn	-0.355884	-1.634176	-0.678475
O5	O	-0.303271	-1.734511	-0.578174
O6	O	-0.341943	-2.002821	-0.504465
O7	O	-0.162557	-1.808155	-0.651943
O8	O	-0.264624	-1.660857	-0.309907
O9	O	-0.264613	-2.002757	-0.651916
O10	O	-0.341949	-1.808304	-0.309886
O11	O	-0.162562	-1.660773	-0.504514
O12	O	-0.264607	-1.466240	-0.504462
O13	O	-0.443975	-1.660830	-0.651825
O14	O	-0.341920	-1.466228	-0.651853
O15	O	-0.443988	-1.808288	-0.504413
O16	O	-0.264596	-1.808140	-0.846471
O17	O	-0.341914	-1.660745	-0.846432
C18	C	-0.303266	-1.734464	-0.889999
C19	C	-0.303285	-1.734553	-1.023399
C20	C	-0.303262	-1.422687	-0.578156
C21	C	-0.303274	-1.289287	-0.578177
C22	C	-0.467461	-1.734567	-0.578110
C23	C	-0.537429	-1.734590	-0.578083
C24	C	-1.036885	-1.811466	-0.654600
C25	C	-0.971143	-1.811444	-0.654639
C26	C	-0.938269	-1.734704	-0.577896
C27	C	-0.971143	-1.657957	-0.501130
C28	C	-1.036884	-1.657972	-0.501102
N29	N	-0.835054	-1.725499	-0.472882
N30	N	-0.772602	-1.725492	-0.472912
C31	C	-0.740194	-1.734651	-0.577976
N32	N	-0.772596	-1.743841	-0.683012
N33	N	-0.835054	-1.743855	-0.682981
C34	C	-0.866983	-1.734678	-0.577918
C35	C	-0.636042	-1.811363	-0.654785
C36	C	-0.570299	-1.811333	-0.654825
C37	C	-0.570300	-1.657852	-0.501306
C38	C	-0.636042	-1.657876	-0.501276
C39	C	-0.668910	-1.734638	-0.578014
C40	C	-0.139719	-1.734525	-0.578151
C41	C	-0.069751	-1.734734	-0.577840
C42	C	-0.303279	-2.047554	-0.578193
C43	C	-0.303283	-2.180954	-0.578201
C44	C	-0.303289	-1.734592	-0.265132
C45	C	-0.303297	-1.734626	-0.131732
H46	H	-1.063642	-1.873969	-0.717090
Cl47	Cl	-0.929816	-1.561486	-0.404650
H48	H	-0.543534	-1.595365	-0.438823
H49	H	-1.063643	-1.595487	-0.438592
H50	H	-0.662804	-1.873865	-0.717272
H51	H	-0.543540	-1.873811	-0.717344
Cl52	Cl	-0.929817	-1.907914	-0.751145
H53	H	-0.662802	-1.595397	-0.438765
