data_functionalizedCrystal
_audit_creation_method	'MofGen! by Chris Wilmer'
_symmetry_space_group_name_H-M	'P1'
_symmetry_Int_Tables_number	1
_symmetry_cell_setting	triclinic
loop_
_symmetry_equiv_pos_as_xyz
  x,y,z
_cell_length_a	16.974829
_cell_length_b	10.723023
_cell_length_c	16.053802
_cell_angle_alpha	92.591082
_cell_angle_beta	83.771117
_cell_angle_gamma	83.931822
loop_
_atom_site_label
_atom_site_type_symbol
_atom_site_fract_x
_atom_site_fract_y
_atom_site_fract_z
O1	O	1.056716	0.148418	-0.140825
O2	O	0.825877	0.169846	-0.125230
O3	O	0.946621	-0.022552	-0.133384
O4	O	0.935972	0.340816	-0.132671
O5	O	0.939975	-0.012005	0.005924
O6	O	0.819231	0.180392	0.014078
O7	O	1.050070	0.158964	-0.001517
Zn8	Zn	0.933595	0.171353	0.028399
Zn9	Zn	0.942352	0.157457	-0.155145
O10	O	0.929326	0.351362	0.006637
C11	C	0.792996	0.174499	-0.053579
C12	C	0.704924	0.172635	-0.047629
C13	C	0.942523	-0.063763	-0.063678
C14	C	0.940205	-0.202270	-0.063524
C15	C	0.208776	0.162800	-0.005984
C16	C	0.291530	0.164551	-0.011577
C17	C	0.336530	0.159669	-0.090311
C18	C	0.298772	0.153047	-0.163457
C19	C	0.216019	0.151304	-0.157864
C20	C	0.584413	0.164270	-0.115182
C21	C	0.667171	0.166009	-0.120770
C22	C	0.659923	0.177516	0.031112
C23	C	0.577169	0.175766	0.036698
C24	C	0.539418	0.169151	-0.036448
N25	N	0.421118	0.161455	-0.096029
N26	N	0.454831	0.167374	-0.030729
C27	C	0.942615	-0.269479	-0.135621
C28	C	0.940219	-0.412634	-0.135464
C29	C	1.082951	0.154311	-0.073170
C30	C	1.171024	0.156175	-0.079125
C31	C	0.933424	0.392573	-0.063070
C32	C	0.935742	0.531080	-0.063230
N33	N	0.927625	0.180836	0.153662
N34	N	0.948329	0.147965	-0.280409
C35	C	0.979021	0.098999	0.193885
C36	C	0.974852	0.105644	0.281574
C37	C	0.919290	0.194132	0.329037
C38	C	0.867888	0.275973	0.288808
C39	C	0.872054	0.269321	0.201122
C40	C	0.901093	0.223153	0.591675
C41	C	0.896933	0.229801	0.679368
C42	C	1.003895	0.059470	0.672127
C43	C	1.008059	0.052831	0.584439
C44	C	0.956655	0.134667	0.544218
N45	N	0.915029	0.200929	0.418668
N46	N	0.960913	0.127863	0.454588
H47	H	0.172141	0.166782	0.058130
H48	H	1.053302	-0.019223	0.545796
C49	C	0.947803	-0.204043	-0.219170
N50	N	0.951714	-0.154759	-0.282101
H51	H	0.936363	-0.250711	-0.001683
C52	C	1.060430	-0.030553	0.716378
N53	N	1.103011	-0.098367	0.749708
H54	H	0.822645	0.348018	0.327458
C55	C	0.844650	0.313337	0.547437
N56	N	0.802171	0.381326	0.514111
H57	H	0.553686	0.158879	-0.174743
H58	H	0.540537	0.179715	0.100812
H59	H	0.830201	0.335960	0.168373
H60	H	0.690669	0.182905	0.090663
H61	H	0.703809	0.162043	-0.184888
C62	C	0.943000	-0.490684	-0.218854
N63	N	0.945094	-0.549474	-0.281666
C64	C	0.835805	0.327146	0.731576
N65	N	0.789767	0.400463	0.770900
C66	C	1.040143	0.001653	0.141683
N67	N	1.086180	-0.071675	0.102367
H68	H	0.322264	0.169943	0.047983
C69	C	0.932959	-0.390877	0.020164
N70	N	0.930860	-0.332086	0.082977
H71	H	0.185283	0.145913	-0.217424
C72	C	1.031373	0.015586	0.325816
N73	N	1.073939	-0.052261	0.359139
H74	H	0.335418	0.149079	-0.227565
