data_functionalizedCrystal
_audit_creation_method	'MofGen! by Chris Wilmer'
_symmetry_space_group_name_H-M	'P1'
_symmetry_Int_Tables_number	1
_symmetry_cell_setting	triclinic
loop_
_symmetry_equiv_pos_as_xyz
  x,y,z
_cell_length_a	11.792254
_cell_length_b	11.792241
_cell_length_c	10.268362
_cell_angle_alpha	90.005428
_cell_angle_beta	89.995475
_cell_angle_gamma	95.803993
loop_
_atom_site_label
_atom_site_type_symbol
_atom_site_fract_x
_atom_site_fract_y
_atom_site_fract_z
O1	O	1.506900	-0.155637	-0.108300
O2	O	2.006900	0.344363	0.391700
O3	O	1.176561	-0.171655	-0.108303
O4	O	1.676561	0.328345	0.391697
O5	O	1.349747	0.001524	-0.108292
O6	O	1.849747	0.501524	0.391708
O7	O	1.333714	-0.328816	-0.108310
O8	O	1.833714	0.171184	0.391690
O9	O	1.349732	0.001531	0.108309
O10	O	1.849732	0.501531	0.608309
O11	O	1.176546	-0.171648	0.108298
O12	O	1.676546	0.328352	0.608298
O13	O	1.506885	-0.155630	0.108301
O14	O	2.006885	0.344370	0.608301
Cu15	Cu	1.341714	-0.163638	0.128077
Cu16	Cu	1.841714	0.336362	0.628077
Cu17	Cu	1.341732	-0.163647	-0.128079
Cu18	Cu	1.841732	0.336353	0.371921
O19	O	1.333699	-0.328809	0.108290
O20	O	1.833699	0.171191	0.608290
C21	C	1.134263	-0.170642	-0.000003
C22	C	1.634263	0.329358	0.499997
C23	C	1.008250	-0.167622	-0.000003
C24	C	1.508250	0.332378	0.499997
C25	C	1.348732	0.043819	0.000008
C26	C	1.848732	0.543819	0.500008
C27	C	1.345718	0.169832	0.000007
C28	C	1.845718	0.669832	0.500007
N29	N	1.341710	-0.163632	0.308243
N30	N	1.841710	0.336368	0.808243
C31	C	0.905913	-0.165168	-0.000009
C32	C	1.405913	0.334832	0.499991
C33	C	0.777527	-0.162100	-0.000010
C34	C	1.277527	0.337900	0.499990
C35	C	1.549183	-0.156643	-0.000002
C36	C	2.049183	0.343357	0.499998
C37	C	1.675196	-0.159663	-0.000010
C38	C	2.175196	0.340337	0.499990
C39	C	1.334714	-0.371104	-0.000012
C40	C	1.834714	0.128896	0.499988
C41	C	1.337728	-0.497118	-0.000020
C42	C	1.837728	0.002882	0.499980
C43	C	1.340175	0.400545	-0.000015
C44	C	1.840175	0.900545	0.499985
C45	C	1.343255	0.272160	-0.000003
C46	C	1.843255	0.772160	0.499997
N47	N	1.341745	-0.163645	-0.308244
N48	N	1.841745	0.336355	0.191756
C49	C	1.341726	-0.163644	0.573913
C50	C	1.841726	0.336356	1.073913
C51	C	1.341713	-0.163641	0.426075
C52	C	1.841713	0.336359	0.926075
