data_functionalizedCrystal
_audit_creation_method	'MofGen! by Chris Wilmer'
_symmetry_space_group_name_H-M	'P1'
_symmetry_Int_Tables_number	1
_symmetry_cell_setting	triclinic
loop_
_symmetry_equiv_pos_as_xyz
  x,y,z
_cell_length_a	10.489741
_cell_length_b	15.995350
_cell_length_c	15.072220
_cell_angle_alpha	89.992853
_cell_angle_beta	90.001214
_cell_angle_gamma	95.984226
loop_
_atom_site_label
_atom_site_type_symbol
_atom_site_fract_x
_atom_site_fract_y
_atom_site_fract_z
O1	O	1.692399	-0.118137	0.073723
O2	O	1.321048	-0.129225	0.073736
O3	O	1.516874	-0.001854	0.073728
O4	O	1.496572	-0.245507	0.073731
O5	O	1.516861	-0.001839	-0.073837
O6	O	1.321035	-0.129210	-0.073829
O7	O	1.692386	-0.118121	-0.073842
Zn8	Zn	1.506708	-0.123663	-0.097265
Zn9	Zn	1.506725	-0.123683	0.097159
O10	O	1.496559	-0.245492	-0.073834
C11	C	1.273521	-0.128380	-0.000045
C12	C	1.131927	-0.125874	-0.000039
C13	C	1.064921	-0.044832	-0.000048
C14	C	0.972265	-0.083123	0.072707
C15	C	0.972286	-0.083127	-0.072780
C16	C	1.041136	-0.164199	0.072777
C17	C	1.041166	-0.164192	-0.072776
C18	C	0.948537	-0.202542	-0.000003
C19	C	1.516029	0.029353	-0.000053
C20	C	1.513512	0.122319	-0.000047
C21	C	1.739912	-0.118966	-0.000060
C22	C	1.881507	-0.121472	-0.000059
C23	C	1.497405	-0.276699	-0.000052
C24	C	1.499921	-0.369665	-0.000051
N25	N	1.506706	-0.123648	-0.229954
C26	C	1.504476	0.460121	-0.000050
C27	C	1.365012	0.413527	0.000286
C28	C	1.367528	0.316822	-0.000047
C29	C	1.508958	0.292533	-0.000048
C30	C	1.577739	0.333205	-0.084316
C31	C	1.574236	0.429862	-0.084387
C32	C	1.577131	0.430185	0.083423
C33	C	1.577098	0.333239	0.084536
C34	C	1.511499	0.197820	-0.000050
C35	C	1.501939	0.554834	-0.000054
C36	C	1.506726	-0.123677	-0.589155
C37	C	1.611849	-0.055755	-0.551525
C38	C	1.611575	-0.055500	-0.448699
C39	C	1.506717	-0.123663	-0.410951
C40	C	1.373644	-0.103780	-0.448289
C41	C	1.374266	-0.103299	-0.551147
C42	C	1.533478	-0.211677	-0.551232
C43	C	1.536499	-0.211106	-0.448368
C44	C	1.506704	-0.123656	-0.310238
C45	C	1.506731	-0.123682	-0.689868
N46	N	1.506738	-0.123691	0.229847
H47	H	1.309274	0.432389	0.060716
H48	H	1.529957	0.305118	-0.147024
H49	H	0.941782	-0.048815	-0.134290
H50	H	1.634393	-0.226175	-0.423965
H51	H	1.313461	0.288720	0.060360
N52	N	0.885328	-0.286196	0.000025
N53	N	0.904389	-0.335410	-0.061852
H54	H	0.859737	-0.394488	-0.061831
N55	N	1.590703	0.025682	-0.583958
N56	N	1.498548	0.033914	-0.634667
H57	H	1.483605	0.091428	-0.657572
H58	H	1.594482	0.009789	-0.424101
N59	N	1.519938	0.456300	0.163541
N60	N	1.424922	0.497299	0.160090
H61	H	1.384517	0.515745	0.216669
H62	H	1.464894	-0.264080	-0.422670
H63	H	1.350688	-0.039097	-0.575147
H64	H	1.309511	0.433462	-0.059804
H65	H	1.680235	0.317255	0.089623
N66	N	1.299232	0.282292	-0.075954
N67	N	1.249566	0.329625	-0.128853
H68	H	1.201330	0.305240	-0.182468
N69	N	1.511301	0.453201	-0.163409
N70	N	1.470265	0.398129	-0.218122
H71	H	1.425814	0.414607	-0.273934
N72	N	1.702686	0.469536	-0.089196
N73	N	1.794631	0.425813	-0.092496
H74	H	1.885349	0.453829	-0.095900
N75	N	1.708086	0.314699	-0.088240
N76	N	1.751847	0.271223	-0.028833
H77	H	1.843905	0.258152	-0.031602
N78	N	1.437303	-0.275101	-0.581744
N79	N	1.322122	-0.270346	-0.563252
H80	H	1.254193	-0.315134	-0.584802
N81	N	1.079165	-0.207200	0.150033
N82	N	1.036151	-0.281991	0.163352
H83	H	1.063005	-0.312361	0.217916
N84	N	1.735664	-0.070486	-0.417007
N85	N	1.756694	-0.072852	-0.335461
H86	H	1.844339	-0.083431	-0.313080
H87	H	0.941736	-0.048839	0.134218
N88	N	1.128366	0.038760	0.000047
N89	N	1.110798	0.087545	0.062616
H90	H	1.155605	0.146581	0.062687
N91	N	1.652616	-0.235411	-0.583744
N92	N	1.690091	-0.303808	-0.560623
H93	H	1.774238	-0.320563	-0.583583
N94	N	1.736359	-0.070545	-0.582541
N95	N	1.749078	-0.131313	-0.632747
H96	H	1.837017	-0.141763	-0.654655
H97	H	1.526811	0.306287	0.146875
N98	N	1.079499	-0.207161	-0.149949
N99	N	1.057820	-0.179539	-0.225443
H100	H	1.084894	-0.209880	-0.279954
N101	N	1.273173	-0.162940	-0.582369
N102	N	1.202380	-0.204781	-0.528191
H103	H	1.130974	-0.246895	-0.550236
N104	N	1.706129	0.469242	0.084116
N105	N	1.744536	0.518920	0.023466
H106	H	1.835639	0.546505	0.023946
H107	H	1.293533	-0.151900	-0.423839
H108	H	1.349486	-0.040303	-0.422537
