data_functionalizedCrystal
_audit_creation_method	'MofGen! by Chris Wilmer'
_symmetry_space_group_name_H-M	'P1'
_symmetry_Int_Tables_number	1
_symmetry_cell_setting	triclinic
loop_
_symmetry_equiv_pos_as_xyz
  x,y,z
_cell_length_a	15.538191
_cell_length_b	16.098538
_cell_length_c	17.038272
_cell_angle_alpha	87.079695
_cell_angle_beta	69.191825
_cell_angle_gamma	91.654063
loop_
_atom_site_label
_atom_site_type_symbol
_atom_site_fract_x
_atom_site_fract_y
_atom_site_fract_z
O1	O	1.233865	0.069263	-0.252876
O2	O	1.733865	0.569263	0.247124
O3	O	0.966680	0.069263	-0.164606
O4	O	1.466680	0.569263	0.335394
O5	O	1.098684	0.069256	-0.322106
O6	O	1.598684	0.569256	0.177894
O7	O	1.101861	0.069270	-0.095377
O8	O	1.601861	0.569270	0.404623
O9	O	1.090971	-0.069256	-0.312932
O10	O	1.590971	0.430744	0.187068
O11	O	0.958967	-0.069249	-0.155433
O12	O	1.458967	0.430751	0.344567
O13	O	1.226152	-0.069250	-0.243703
O14	O	1.726152	0.430750	0.256297
Zn15	Zn	1.091335	-0.091241	-0.198111
Zn16	Zn	1.591335	0.408759	0.301889
Zn17	Zn	1.101497	0.091255	-0.210198
Zn18	Zn	1.601497	0.591255	0.289802
O19	O	1.094148	-0.069243	-0.086203
O20	O	1.594148	0.430757	0.413797
C21	C	0.928468	0.000007	-0.150784
C22	C	1.428468	0.500007	0.349216
C23	C	0.826099	0.000007	-0.123275
C24	C	1.326099	0.500007	0.376725
N25	N	1.084406	-0.215790	-0.189865
N26	N	1.584406	0.284210	0.310135
C27	C	0.516406	0.000004	-0.396570
C28	C	1.016406	0.500004	0.103430
C29	C	0.420214	0.000006	-0.370702
C30	C	0.920214	0.500006	0.129298
C31	C	0.409432	0.000015	-0.225200
C32	C	0.909432	0.500015	0.274800
C33	C	0.505625	0.000008	-0.251056
C34	C	1.005625	0.500008	0.248944
C35	C	0.559105	0.000004	-0.336742
C36	C	1.059105	0.500004	0.163258
C37	C	0.548324	0.000008	-0.191227
C38	C	1.048324	0.500008	0.308773
C39	C	0.644509	0.000006	-0.217081
C40	C	1.144509	0.500006	0.282919
C41	C	0.697996	0.000005	-0.302764
C42	C	1.197996	0.500005	0.197236
C43	C	0.655290	0.000002	-0.362596
C44	C	1.155290	0.500002	0.137404
C45	C	0.494843	0.000018	-0.105542
C46	C	0.994843	0.500018	0.394458
C47	C	0.537542	0.000018	-0.045713
C48	C	1.037542	0.500018	0.454287
C49	C	0.633728	0.000011	-0.071567
C50	C	1.133728	0.500011	0.428433
C51	C	0.687215	0.000009	-0.157249
C52	C	1.187215	0.500009	0.342751
C53	C	0.676434	0.000013	-0.011735
C54	C	1.176434	0.500013	0.488265
C55	C	0.772619	0.000011	-0.037589
C56	C	1.272619	0.500011	0.462411
C57	C	0.783400	0.000007	-0.183104
C58	C	1.283400	0.500007	0.316896
C59	C	1.140457	-0.259378	-0.256703
C60	C	1.640457	0.240622	0.243297
C61	C	1.135619	-0.346567	-0.250929
C62	C	1.635619	0.153433	0.249071
C63	C	1.074734	-0.390166	-0.178315
C64	C	1.574734	0.109834	0.321685
C65	C	1.018676	-0.346572	-0.111473
C66	C	1.518676	0.153428	0.388527
C67	C	1.023510	-0.259385	-0.117250
C68	C	1.523510	0.240615	0.382750
C69	C	1.057209	-0.653415	-0.157387
C70	C	1.557209	-0.153415	0.342613
C71	C	1.052382	-0.740608	-0.151614
C72	C	1.552382	-0.240608	0.348386
C73	C	1.169323	-0.740597	-0.291072
C74	C	1.669323	-0.240597	0.208928
C75	C	1.174156	-0.653408	-0.296840
C76	C	1.674156	-0.153408	0.203160
C77	C	1.118095	-0.609822	-0.230000
C78	C	1.618095	-0.109822	0.270000
C79	C	1.069789	-0.479287	-0.172411
C80	C	1.569789	0.020713	0.327589
C81	C	1.123036	-0.520703	-0.235907
C82	C	1.623036	-0.020703	0.264093
C83	C	1.264364	0.000008	-0.257525
C84	C	1.764364	0.500008	0.242475
C85	C	1.366733	0.000014	-0.285034
C86	C	1.866733	0.500014	0.214966
C87	C	1.091939	0.000000	-0.345828
C88	C	1.591939	0.500000	0.154172
C89	C	1.083321	0.000000	-0.430177
C90	C	1.583321	0.500000	0.069823
N91	N	1.108433	0.215804	-0.218452
N92	N	1.608433	0.715804	0.281548
C93	C	1.162444	-0.000001	-0.502728
C94	C	1.662444	0.499999	-0.002728
C95	C	1.154342	0.000007	-0.581982
C96	C	1.654342	0.500007	-0.081982
C97	C	1.067115	0.000010	-0.588682
C98	C	1.567115	0.500010	-0.088682
C99	C	0.987985	0.000014	-0.516123
C100	C	1.487985	0.500014	-0.016123
C101	C	0.996089	0.000012	-0.436872
C102	C	1.496089	0.500012	0.063128
C103	C	1.038486	0.000022	-0.826322
C104	C	1.538486	0.500022	-0.326322
C105	C	1.030388	0.000021	-0.905581
C106	C	1.530388	0.500021	-0.405581
C107	C	1.196745	0.000016	-0.971435
C108	C	1.696745	0.500016	-0.471435
C109	C	1.204841	0.000009	-0.892179
C110	C	1.704841	0.500009	-0.392179
C111	C	1.125712	0.000017	-0.819627
C112	C	1.625712	0.500017	-0.319627
C113	C	1.058830	0.000016	-0.669690
C114	C	1.558830	0.500016	-0.169690
C115	C	1.133997	0.000018	-0.738621
C116	C	1.633997	0.500018	-0.238621
C117	C	1.100893	0.000015	-0.062481
C118	C	1.600893	0.500015	0.437519
C119	C	1.109511	0.000020	0.021868
C120	C	1.609511	0.500020	0.521868
H121	H	0.826947	-0.000001	-0.252877
H122	H	1.326947	0.499999	0.247123
H123	H	0.959352	0.000010	-0.911027
H124	H	1.459352	0.500010	-0.411027
F125	F	0.480615	0.000028	0.045477
F126	F	0.980615	0.500028	0.545477
F127	F	1.228981	-0.786990	-0.362204
F128	F	1.728981	-0.286990	0.137796
H129	H	0.974053	0.000028	-0.767258
H130	H	1.474053	0.500028	-0.267258
F131	F	0.392473	0.000021	-0.078027
F132	F	0.892473	0.500021	0.421973
H133	H	0.559953	-0.000004	-0.466344
H134	H	1.059953	0.499996	0.033656
F135	F	1.238557	0.000005	-0.659195
F136	F	1.738557	0.500005	-0.159195
H137	H	1.223733	-0.617912	-0.355968
H138	H	1.723733	-0.117912	0.144032
F139	F	0.965999	0.000023	-0.676829
F140	F	1.465999	0.500023	-0.176829
F141	F	0.800366	0.000008	-0.330281
F142	F	1.300366	0.500008	0.169719
F143	F	0.374774	-0.000004	-0.434386
F144	F	0.874774	0.499996	0.065614
F145	F	0.712213	-0.000012	-0.453793
F146	F	1.212213	0.499988	0.046207
F147	F	0.911875	0.000016	-0.359656
F148	F	1.411875	0.500016	0.140344
H149	H	0.365876	0.000021	-0.155434
H150	H	0.865876	0.500021	0.344566
F151	F	1.195274	-0.392957	-0.322066
F152	F	1.695274	0.107043	0.177934
F153	F	0.895151	0.000027	-0.523256
F154	F	1.395151	0.500027	-0.023256
F155	F	0.953872	-0.392974	-0.034193
F156	F	1.453872	0.107026	0.465807
H157	H	0.632876	0.000025	0.058030
H158	H	1.132876	0.500025	0.558030
F159	F	1.226828	0.000019	-0.731488
F160	F	1.726828	0.500019	-0.231488
F161	F	1.187828	-0.474300	-0.313188
F162	F	1.687828	0.025700	0.186812
F163	F	0.818065	0.000013	0.026087
F164	F	1.318065	0.500013	0.526087
H165	H	1.020217	-0.514793	-0.113286
H166	H	1.520217	-0.014793	0.386714
H167	H	1.002799	-0.776103	-0.092479
H168	H	1.502799	-0.276103	0.407521
F169	F	1.255284	-0.000012	-0.495607
F170	F	1.755284	0.499988	0.004393
H171	H	1.190040	-0.223885	-0.315831
H172	H	1.690040	0.276115	0.184169
F173	F	0.997548	-0.607034	-0.086251
F174	F	1.497548	-0.107034	0.413749
F175	F	0.963849	-0.212997	-0.046113
F176	F	1.463849	0.287003	0.453887
H177	H	1.275871	0.000007	-0.886733
H178	H	1.775871	0.500007	-0.386733
H179	H	1.261167	0.000011	-1.030513
H180	H	1.761167	0.500011	-0.530513
