data_functionalizedCrystal
_audit_creation_method	'MofGen! by Chris Wilmer'
_symmetry_space_group_name_H-M	'P1'
_symmetry_Int_Tables_number	1
_symmetry_cell_setting	triclinic
loop_
_symmetry_equiv_pos_as_xyz
  x,y,z
_cell_length_a	23.532407
_cell_length_b	10.654541
_cell_length_c	9.730217
_cell_angle_alpha	89.995122
_cell_angle_beta	89.998387
_cell_angle_gamma	96.333697
loop_
_atom_site_label
_atom_site_type_symbol
_atom_site_fract_x
_atom_site_fract_y
_atom_site_fract_z
O1	O	0.756251	-0.152440	0.114118
O2	O	0.590532	-0.174496	0.114158
O3	O	0.677202	0.019392	0.114129
O4	O	0.669581	-0.346328	0.114147
O5	O	0.677196	0.019400	-0.114451
O6	O	0.590525	-0.174489	-0.114422
O7	O	0.756245	-0.152432	-0.114462
Zn8	Zn	0.673384	-0.163459	-0.150734
Zn9	Zn	0.673393	-0.163469	0.150430
O10	O	0.669574	-0.346321	-0.114433
C11	C	0.569309	-0.173931	-0.000127
C12	C	0.506081	-0.172242	-0.000112
N13	N	0.673383	-0.163452	-0.356271
C14	C	0.676640	0.066176	-0.000160
C15	C	0.674967	0.205567	-0.000158
C16	C	0.107656	-0.276390	-0.000168
C17	C	0.048245	-0.274821	-0.000177
O18	O	0.012130	-0.371367	-0.000222
N19	N	0.024869	-0.159554	-0.000181
C20	C	0.060906	-0.045849	-0.000190
O21	O	0.035567	0.052339	-0.000195
C22	C	0.120315	-0.047419	-0.000191
C23	C	0.143688	-0.162693	-0.000173
C24	C	0.131030	-0.391654	-0.000152
C25	C	0.190436	-0.393223	-0.000141
C26	C	0.226469	-0.279526	-0.000146
C27	C	0.203095	-0.164261	-0.000162
C28	C	0.156351	0.066285	-0.000210
C29	C	0.215764	0.064705	-0.000212
C30	C	0.239137	-0.050569	-0.000195
C31	C	0.298534	-0.052133	-0.000156
N32	N	0.321910	-0.167399	-0.000153
C33	C	0.285878	-0.281096	-0.000148
C34	C	-0.063858	-0.042560	-0.000189
C35	C	-0.123266	-0.040989	-0.000178
C36	C	-0.135923	-0.269962	-0.000168
C37	C	-0.076513	-0.271532	-0.000169
C38	C	-0.040481	-0.157827	-0.000186
C39	C	0.410636	-0.284381	-0.000123
C40	C	0.470048	-0.285939	-0.000107
C41	C	0.482699	-0.056967	-0.000124
C42	C	0.423293	-0.055408	-0.000133
C43	C	0.387262	-0.169125	-0.000138
O44	O	0.334685	0.044362	-0.000117
O45	O	0.311225	-0.379267	-0.000161
C46	C	0.777468	-0.152998	-0.000174
C47	C	0.840696	-0.154686	-0.000180
C48	C	0.670137	-0.393105	-0.000141
C49	C	0.671810	-0.532495	-0.000134
C50	C	0.778605	0.236821	-0.000200
C51	C	0.829636	0.317932	-0.000224
C52	C	0.828060	0.448901	-0.000219
C53	C	0.775448	0.498759	-0.000187
C54	C	0.724417	0.417648	-0.000163
C55	C	0.725998	0.286678	-0.000172
C56	C	0.620780	0.386394	-0.000110
C57	C	0.622354	0.255425	-0.000125
C58	C	0.568167	0.436252	-0.000078
C59	C	0.517136	0.355140	-0.000064
C60	C	0.518714	0.224165	-0.000070
C61	C	0.571324	0.174314	-0.000101
C62	C	0.603716	-0.011883	-0.356317
C63	C	0.568889	0.063905	-0.428280
C64	C	0.568897	0.063905	-0.572160
C65	C	0.603736	-0.011893	-0.644080
C66	C	0.638563	-0.087680	-0.572117
C67	C	0.638552	-0.087669	-0.428234
C68	C	0.708226	-0.239254	-0.572070
C69	C	0.708221	-0.239249	-0.428190
C70	C	0.743064	-0.315052	-0.643990
C71	C	0.777895	-0.390834	-0.572027
C72	C	0.777885	-0.390830	-0.428138
C73	C	0.743048	-0.315037	-0.356227
N74	N	0.673398	-0.163467	0.355967
H75	H	0.381306	-0.376980	-0.000131
H76	H	0.477158	0.158130	-0.000045
H77	H	0.572614	0.067675	-0.000114
C78	C	0.815791	-0.472900	-0.650183
C79	C	0.854069	-0.396333	-0.732768
C80	C	0.888993	-0.471885	-0.804777
H81	H	0.792748	-0.530971	-0.706416
H82	H	0.836569	-0.518005	-0.586766
H83	H	0.833293	-0.351248	-0.796178
H84	H	0.877124	-0.338263	-0.676569
H85	H	0.909771	-0.516990	-0.741360
H86	H	0.865945	-0.529953	-0.861002
H87	H	0.914972	-0.419945	-0.860809
H88	H	0.743039	-0.315023	-0.239073
H89	H	0.603734	-0.011897	-0.761234
H90	H	0.603710	-0.011866	-0.239163
H91	H	0.872472	0.277323	-0.000263
H92	H	0.540523	0.125615	-0.369707
H93	H	0.566888	0.542894	-0.000065
H94	H	0.869613	0.514942	-0.000228
H95	H	0.806243	-0.452553	-0.369555
H96	H	0.540535	0.125611	-0.630752
C97	C	0.460003	0.409203	0.000260
C98	C	0.429137	0.367927	0.117887
C99	C	0.376507	0.417722	0.118240
H100	H	0.438894	0.381371	-0.079351
H101	H	0.466350	0.498824	0.000344
H102	H	0.422788	0.278325	0.117790
H103	H	0.450228	0.395756	0.197516
H104	H	0.382854	0.507342	0.118324
H105	H	0.355403	0.389887	0.038625
H106	H	0.355560	0.389733	0.198054
H107	H	0.489075	-0.379813	-0.000092
H108	H	0.209461	-0.487090	-0.000127
H109	H	-0.142291	0.052879	-0.000171
H110	H	0.101697	-0.484245	-0.000153
H111	H	0.743065	-0.315052	-0.761145
H112	H	-0.057487	-0.365398	-0.000163
H113	H	0.774169	0.605401	-0.000166
H114	H	0.779893	0.130182	-0.000223
H115	H	-0.165271	-0.362539	-0.000170
C116	C	-0.024835	0.081035	-0.000112
C117	C	-0.058029	0.182305	-0.000076
C118	C	-0.022105	0.296178	0.000012
H119	H	-0.001381	0.085379	-0.079799
H120	H	-0.001407	0.085250	0.079633
H121	H	-0.081447	0.178092	-0.079814
H122	H	-0.081482	0.178003	0.079604
H123	H	0.001323	0.300392	0.079758
H124	H	0.001347	0.300508	-0.079676
H125	H	-0.044621	0.364903	0.000049
H126	H	0.137332	0.160154	-0.000225
H127	H	0.245099	0.157300	-0.000227
H128	H	0.404261	0.038458	-0.000128
H129	H	0.512048	0.035602	-0.000123
