data_functionalizedCrystal
_audit_creation_method	'MofGen! by Chris Wilmer'
_symmetry_space_group_name_H-M	'P1'
_symmetry_Int_Tables_number	1
_symmetry_cell_setting	triclinic
loop_
_symmetry_equiv_pos_as_xyz
  x,y,z
_cell_length_a	6.817900
_cell_length_b	15.300992
_cell_length_c	17.329378
_cell_angle_alpha	91.623359
_cell_angle_beta	103.025558
_cell_angle_gamma	104.175078
loop_
_atom_site_label
_atom_site_type_symbol
_atom_site_fract_x
_atom_site_fract_y
_atom_site_fract_z
V1	V	-4.013211	-0.106312	-0.245231
V2	V	-3.513211	0.393688	0.254769
O3	O	-3.997439	0.024071	-0.240319
O4	O	-3.497439	0.524071	0.259681
O5	O	-3.968228	-0.229037	-0.243788
O6	O	-3.468228	0.270963	0.256212
O7	O	-3.957346	-0.096356	-0.352077
O8	O	-3.457346	0.403644	0.147923
O9	O	-4.008397	-0.109528	-0.131280
O10	O	-3.508397	0.390472	0.368720
V11	V	-4.497364	-0.091700	-0.231573
V12	V	-3.997364	0.408300	0.268427
O13	O	-4.273089	-0.138366	-0.275190
O14	O	-3.773089	0.361634	0.224810
O15	O	-4.687683	-0.059647	-0.201613
O16	O	-4.187683	0.440353	0.298387
O17	O	-4.319140	0.031025	-0.233016
O18	O	-3.819140	0.531025	0.266984
O19	O	-4.630532	-0.222084	-0.236484
O20	O	-4.130532	0.277916	0.263516
O21	O	-4.619574	-0.088485	-0.345524
O22	O	-4.119574	0.411515	0.154476
O23	O	-4.330022	-0.101656	-0.124726
O24	O	-3.830022	0.398344	0.375274
C25	C	-3.814302	-0.259215	-0.239980
C26	C	-3.314302	0.240785	0.260020
C27	C	-3.858761	-0.359490	-0.239512
C28	C	-3.358761	0.140510	0.260488
C29	C	-3.844035	-0.399137	-0.167310
C30	C	-3.344035	0.100863	0.332690
C31	C	-3.885829	-0.493357	-0.166874
C32	C	-3.385829	0.006643	0.333126
C33	C	-3.942332	-0.547929	-0.238639
C34	C	-3.442332	-0.047929	0.261361
C35	C	-3.957063	-0.508276	-0.310846
C36	C	-3.457063	-0.008276	0.189154
C37	C	-3.915285	-0.414058	-0.311282
C38	C	-3.415285	0.085942	0.188718
C39	C	-4.044135	-0.704656	-0.309932
C40	C	-3.544135	-0.204656	0.190068
C41	C	-4.085913	-0.798881	-0.309496
C42	C	-3.585913	-0.298881	0.190504
C43	C	-4.014679	-0.783955	-0.165523
C44	C	-3.514679	-0.283955	0.334477
C45	C	-3.972901	-0.689737	-0.165959
C46	C	-3.472901	-0.189737	0.334041
C47	C	-3.987631	-0.650091	-0.238167
C48	C	-3.487631	-0.150091	0.261833
C49	C	-3.800419	-0.089966	-0.378113
C50	C	-3.300419	0.410034	0.121887
C51	C	-3.836050	-0.082638	-0.465462
C52	C	-3.336050	0.417362	0.034538
C53	C	-3.894484	-0.160915	-0.517877
C54	C	-3.394484	0.339085	-0.017877
C55	C	-3.927971	-0.154028	-0.599951
C56	C	-3.427971	0.345972	-0.099951
C57	C	-3.903007	-0.068864	-0.629608
C58	C	-3.403007	0.431136	-0.129608
C59	C	-3.844573	0.009419	-0.577187
C60	C	-3.344573	0.509419	-0.077187
C61	C	-3.811102	0.002531	-0.495115
C62	C	-3.311102	0.502531	0.004885
C63	C	-4.001994	-0.043978	-0.876843
C64	C	-3.501994	0.456022	-0.376843
C65	C	-4.035465	-0.037096	-0.958922
C66	C	-3.535465	0.462904	-0.458922
C67	C	-4.118864	-0.200544	-0.981680
C68	C	-3.618864	0.299456	-0.481680
C69	C	-4.085377	-0.207425	-0.899605
C70	C	-3.585377	0.292575	-0.399605
C71	C	-4.026956	-0.129142	-0.847192
C72	C	-3.526956	0.370858	-0.347192
C73	C	-3.937228	-0.061822	-0.713500
C74	C	-3.437228	0.438178	-0.213500
C75	C	-3.992751	-0.136185	-0.763301
C76	C	-3.492751	0.363815	-0.263301
C77	C	-4.136408	0.061197	-0.236822
C78	C	-3.636408	0.561197	0.263178
C79	C	-4.071188	0.161473	-0.237295
C80	C	-3.571188	0.661473	0.262705
C81	C	-4.150291	-0.108049	-0.098687
C82	C	-3.650291	0.391951	0.401313
C83	C	-4.093899	-0.115373	-0.011336
C84	C	-3.593899	0.384627	0.488664
H85	H	-3.927298	-0.381780	-0.370077
H86	H	-3.427298	0.118220	0.129923
Br87	Br	-4.198194	-0.306780	-1.052817
Br88	Br	-3.698194	0.193220	-0.552817
Br89	Br	-3.896192	-0.615675	-0.068562
Br90	Br	-3.396192	-0.115675	0.431438
H91	H	-3.914801	-0.230265	-0.493737
H92	H	-3.414801	0.269735	0.006263
H93	H	-4.105716	-0.276775	-0.875465
H94	H	-3.605716	0.223225	-0.375465
Br95	Br	-3.767331	-0.325084	-0.069908
Br96	Br	-3.267331	0.174916	0.430092
Br97	Br	-4.064145	-0.650852	-0.407929
Br98	Br	-3.564145	-0.150852	0.092071
Br99	Br	-4.026646	-0.251763	-0.723051
Br100	Br	-3.526646	0.248237	-0.223051
Br101	Br	-4.001580	0.078493	-0.999170
Br102	Br	-3.501580	0.578493	-0.499170
Br103	Br	-3.994666	-0.837759	-0.067527
Br104	Br	-3.494666	-0.337759	0.432473
H105	H	-4.003086	-0.552716	-0.369279
H106	H	-3.503086	-0.052716	0.130721
Br107	Br	-3.922530	0.062267	-0.805717
Br108	Br	-3.422530	0.562267	-0.305717
Br109	Br	-3.865873	-0.547161	-0.068882
Br110	Br	-3.365873	-0.047161	0.431118
H111	H	-3.975560	-0.217770	-0.642624
H112	H	-3.475560	0.282230	-0.142624
H113	H	-3.824262	0.078762	-0.601341
H114	H	-3.324262	0.578762	-0.101341
H115	H	-3.916901	0.007520	-0.737656
H116	H	-3.416901	0.507520	-0.237656
H117	H	-4.131917	-0.843311	-0.367934
H118	H	-3.631917	-0.343311	0.132066
H119	H	-3.763523	0.066273	-0.452439
H120	H	-3.263523	0.566273	0.047561
