data_functionalizedCrystal
_audit_creation_method	'MofGen! by Chris Wilmer'
_symmetry_space_group_name_H-M	'P1'
_symmetry_Int_Tables_number	1
_symmetry_cell_setting	triclinic
loop_
_symmetry_equiv_pos_as_xyz
  x,y,z
_cell_length_a	12.645331
_cell_length_b	25.639239
_cell_length_c	12.645323
_cell_angle_alpha	89.968126
_cell_angle_beta	89.977324
_cell_angle_gamma	90.037665
loop_
_atom_site_label
_atom_site_type_symbol
_atom_site_fract_x
_atom_site_fract_y
_atom_site_fract_z
Zn1	Zn	1.620577	-0.208161	-0.599395
Zn2	Zn	1.620393	-0.295600	-0.422113
Zn3	Zn	1.443291	-0.208179	-0.422139
Zn4	Zn	1.443208	-0.295566	-0.599328
O5	O	1.531867	-0.251876	-0.510744
O6	O	1.768900	-0.219767	-0.575895
O7	O	1.596858	-0.284025	-0.273769
O8	O	1.466920	-0.135011	-0.445691
O9	O	1.768765	-0.284008	-0.445647
O10	O	1.597171	-0.134998	-0.575920
O11	O	1.466742	-0.219797	-0.273788
O12	O	1.294933	-0.219764	-0.445627
O13	O	1.466778	-0.283949	-0.747685
O14	O	1.294872	-0.283967	-0.575807
O15	O	1.597090	-0.219734	-0.747733
O16	O	1.596778	-0.368760	-0.445582
O17	O	1.466600	-0.368735	-0.575782
C18	C	1.256438	-0.251864	-0.510713
C19	C	1.138607	-0.251871	-0.510725
C20	C	0.971047	-0.211295	-0.429281
C21	C	1.093606	-0.211400	-0.428922
C22	C	1.094046	-0.306949	-0.480197
C23	C	0.971448	-0.306727	-0.479641
C24	C	0.971468	-0.237893	-0.623013
C25	C	1.094075	-0.236663	-0.622389
C26	C	1.531689	-0.387719	-0.510695
C27	C	1.531710	-0.445833	-0.510710
C28	C	1.599827	-0.806196	-0.443064
C29	C	1.599869	-0.860801	-0.443079
O30	O	1.657600	-0.889038	-0.385511
N31	N	1.532054	-0.888115	-0.510814
C32	C	1.464201	-0.860823	-0.578547
O33	O	1.406523	-0.889070	-0.636163
C34	C	1.464166	-0.806219	-0.578538
C35	C	1.531978	-0.778908	-0.510790
C36	C	1.667635	-0.778884	-0.375323
C37	C	1.667592	-0.724284	-0.375308
C38	C	1.599742	-0.696995	-0.443034
C39	C	1.531935	-0.724307	-0.510775
C40	C	1.396319	-0.778928	-0.646275
C41	C	1.396290	-0.724321	-0.646260
C42	C	1.464102	-0.697009	-0.578513
C43	C	1.464042	-0.642418	-0.578485
N44	N	1.531857	-0.615103	-0.510750
C45	C	1.599707	-0.642392	-0.443024
C46	C	1.464281	-0.975493	-0.578564
C47	C	1.464309	-1.030096	-0.578569
C48	C	1.599979	-1.030070	-0.443101
C49	C	1.599944	-0.975466	-0.443092
C50	C	1.532096	-0.948179	-0.510828
C51	C	1.599611	-0.527727	-0.442997
C52	C	1.599560	-0.473122	-0.442984
C53	C	1.463894	-0.473152	-0.578455
C54	C	1.463942	-0.527753	-0.578464
C55	C	1.531809	-0.555039	-0.510731
O56	O	1.406343	-0.614146	-0.636027
O57	O	1.657385	-0.614138	-0.385428
C58	C	1.808372	-0.251889	-0.510775
C59	C	1.926203	-0.251895	-0.510788
C60	C	1.531945	-0.251836	-0.787249
C61	C	1.531979	-0.251819	-0.905079
C62	C	1.532075	-0.115503	-0.510816
C63	C	1.532164	-0.057389	-0.510846
C64	C	1.449747	-0.292026	-1.072613
C65	C	1.449962	-0.292225	-0.950053
C66	C	1.643667	-0.266773	-0.949595
C67	C	1.643216	-0.267025	-1.072194
C68	C	1.503578	-0.196432	-1.072291
C69	C	1.501086	-0.196764	-0.949684
C70	C	1.531850	-0.251879	-0.235314
C71	C	1.532023	-0.251749	-0.117485
H72	H	1.123193	-0.338007	-0.537699
H73	H	1.123737	-0.170558	-0.448058
H74	H	1.409021	-0.953278	-0.633720
C75	C	1.133162	-0.223905	-0.316583
H76	H	1.208289	-0.224008	-0.315977
H77	H	1.107709	-0.257220	-0.295683
H78	H	1.107905	-0.198195	-0.268781
C79	C	1.389274	-0.443130	-0.652960
H80	H	1.348889	-0.467213	-0.693310
H81	H	1.429803	-0.421796	-0.699171
H82	H	1.343084	-0.421864	-0.612363
H83	H	0.942793	-0.318601	-0.397599
C84	C	0.932289	-0.277837	-0.705057
H85	H	0.888556	-0.302925	-0.671143
H86	H	0.991239	-0.294841	-0.736312
H87	H	0.892875	-0.260384	-0.758321
C88	C	0.929362	-0.223649	-0.317595
H89	H	0.956830	-0.198935	-0.268840
H90	H	0.951212	-0.257689	-0.297561
H91	H	0.854318	-0.221934	-0.317482
C92	C	0.931363	-0.348931	-0.556433
H93	H	0.990009	-0.366143	-0.587813
H94	H	0.889702	-0.333114	-0.610074
H95	H	0.889664	-0.373568	-0.518803
C96	C	1.135441	-0.273701	-0.708819
H97	H	1.180608	-0.299040	-0.677796
H98	H	1.173779	-0.254254	-0.760048
H99	H	1.077442	-0.290674	-0.741923
C100	C	1.674160	-0.443081	-0.368464
H101	H	1.714582	-0.467157	-0.328142
H102	H	1.633623	-0.421816	-0.322228
H103	H	1.720317	-0.421745	-0.409061
C104	C	1.674621	-1.060092	-0.368607
H105	H	1.715002	-1.036008	-0.328253
H106	H	1.720798	-1.081357	-0.409212
H107	H	1.634100	-1.081428	-0.322383
C108	C	1.133463	-0.181919	-0.653518
H109	H	1.106265	-0.172944	-0.721140
H110	H	1.208548	-0.181812	-0.655876
H111	H	1.109870	-0.157227	-0.602748
C112	C	1.674255	-0.557734	-0.368485
H113	H	1.714620	-0.533641	-0.328136
H114	H	1.720448	-0.578999	-0.409071
H115	H	1.633735	-0.579068	-0.322256
C116	C	1.337524	-0.279510	-1.112423
H117	H	1.289059	-0.304263	-1.084449
H118	H	1.336295	-0.281032	-1.187468
H119	H	1.317975	-0.245514	-1.089898
H120	H	1.341094	-0.801156	-0.701438
H121	H	1.124693	-0.319027	-0.399035
C122	C	0.929776	-0.184584	-0.660517
H123	H	0.884369	-0.170366	-0.608077
H124	H	0.891626	-0.188892	-0.724621
H125	H	0.987620	-0.161600	-0.671965
H126	H	1.468338	-0.332779	-1.103422
H127	H	1.468736	-0.333234	-0.920729
H128	H	1.706611	-0.238364	-0.920467
H129	H	1.722813	-0.702050	-0.320146
C130	C	0.931286	-0.155953	-0.454841
H131	H	0.959245	-0.132037	-0.404748
H132	H	0.856239	-0.155343	-0.451733
H133	H	0.953861	-0.146331	-0.523813
C134	C	1.338083	-0.279577	-0.909385
H135	H	1.292090	-0.274274	-0.967792
H136	H	1.340364	-0.248850	-0.867508
H137	H	1.312762	-0.307813	-0.867781
H138	H	1.722892	-0.801097	-0.320173
H139	H	1.341041	-0.702106	-0.701423
C140	C	1.674544	-0.945428	-0.368579
H141	H	1.714959	-0.969506	-0.328253
H142	H	1.634011	-0.924159	-0.322345
H143	H	1.720708	-0.924096	-0.409177
H144	H	1.409080	-1.052328	-0.633725
H145	H	1.408727	-0.549991	-0.633633
C146	C	1.728847	-0.229126	-1.112302
H147	H	1.763761	-0.213646	-1.053667
H148	H	1.696857	-0.202671	-1.154039
H149	H	1.778770	-0.247686	-1.153931
C150	C	1.675782	-0.321652	-1.110837
H151	H	1.689157	-0.343482	-1.051609
H152	H	1.737953	-0.318995	-1.152690
H153	H	1.620309	-0.336187	-1.152036
C154	C	1.676804	-0.320830	-0.908139
H155	H	1.622732	-0.334357	-0.863715
H156	H	1.740595	-0.317726	-0.868992
H157	H	1.687505	-0.343760	-0.966145
H158	H	1.556637	-0.165168	-0.919071
H159	H	1.423555	-0.182801	-1.103198
C160	C	1.390059	-0.181522	-0.910369
H161	H	1.362640	-0.208593	-0.866946
H162	H	1.344635	-0.176403	-0.969275
H163	H	1.394415	-0.150170	-0.870601
C164	C	1.584517	-0.155890	-1.111509
H165	H	1.635400	-0.172566	-1.155213
H166	H	1.618985	-0.140453	-1.052575
H167	H	1.549095	-0.129646	-1.150963
