data_functionalizedCrystal
_audit_creation_method	'MofGen! by Chris Wilmer'
_symmetry_space_group_name_H-M	'P1'
_symmetry_Int_Tables_number	1
_symmetry_cell_setting	triclinic
loop_
_symmetry_equiv_pos_as_xyz
  x,y,z
_cell_length_a	12.759394
_cell_length_b	12.759387
_cell_length_c	12.759395
_cell_angle_alpha	89.981972
_cell_angle_beta	89.981521
_cell_angle_gamma	90.031332
loop_
_atom_site_label
_atom_site_type_symbol
_atom_site_fract_x
_atom_site_fract_y
_atom_site_fract_z
Zn1	Zn	0.418112	-0.593970	1.606253
Zn2	Zn	0.593828	-0.418287	1.606147
Zn3	Zn	0.418175	-0.418310	1.430555
Zn4	Zn	0.593761	-0.593930	1.430543
O5	O	0.505969	-0.506124	1.518375
O6	O	0.441423	-0.570672	1.753260
O7	O	0.570582	-0.271269	1.582816
O8	O	0.271146	-0.441637	1.453911
O9	O	0.570521	-0.441599	1.753182
O10	O	0.271100	-0.570694	1.582995
O11	O	0.441530	-0.271286	1.453809
O12	O	0.441465	-0.441599	1.283533
O13	O	0.570407	-0.740956	1.453890
O14	O	0.570467	-0.570626	1.283523
O15	O	0.441358	-0.740986	1.582983
O16	O	0.740841	-0.441561	1.582804
O17	O	0.740791	-0.570604	1.453788
C18	C	0.505967	-0.506111	1.245407
C19	C	0.505991	-0.506130	1.128630
C20	C	0.778937	-0.506099	1.518312
C21	C	0.895713	-0.506123	1.518381
C22	C	0.505868	-0.780158	1.518447
C23	C	0.505825	-0.896934	1.518478
C24	C	0.231936	-0.506173	1.518467
C25	C	0.115159	-0.506193	1.518506
C26	C	0.895712	-0.371850	1.652826
C27	C	0.950571	-0.304727	1.720076
C28	C	1.060293	-0.304755	1.720137
C29	C	1.115157	-0.371917	1.652944
C30	C	1.060297	-0.439041	1.585694
C31	C	0.950573	-0.439003	1.585637
C32	C	1.060299	-0.573317	1.451256
C33	C	0.950578	-0.573285	1.451187
C34	C	1.115164	-0.640479	1.384063
C35	C	1.060304	-0.707599	1.316806
C36	C	0.950576	-0.707567	1.316746
C37	C	0.895718	-0.640409	1.383937
C38	C	0.371373	-1.116408	1.652970
C39	C	0.304204	-1.061562	1.720168
C40	C	0.304238	-0.951840	1.720139
C41	C	0.371452	-0.896963	1.652905
C42	C	0.438621	-0.951809	1.585706
C43	C	0.438576	-1.061534	1.585741
C44	C	0.572994	-0.951781	1.451279
C45	C	0.572955	-1.061503	1.451302
C46	C	0.640207	-0.896904	1.384046
C47	C	0.707372	-0.951751	1.316840
C48	C	0.707334	-1.061479	1.316872
C49	C	0.640124	-1.116350	1.384103
C50	C	0.505994	-0.233157	1.518363
C51	C	0.505742	-0.116380	1.518536
C52	C	0.505973	-0.506138	1.792408
C53	C	0.505974	-0.506144	1.909185
C54	C	0.640296	-0.640509	1.909184
C55	C	0.707456	-0.707693	1.964044
C56	C	0.707464	-0.707693	2.073765
C57	C	0.640305	-0.640499	2.128629
C58	C	0.573144	-0.573315	2.073769
C59	C	0.573142	-0.573324	1.964045
C60	C	0.438830	-0.438946	2.073770
C61	C	0.438816	-0.438950	1.964049
C62	C	0.371671	-0.371752	2.128634
C63	C	0.304504	-0.304571	2.073774
C64	C	0.304498	-0.304575	1.964046
C65	C	0.371655	-0.371765	1.909188
H66	H	0.806371	-0.371807	1.652769
Cl67	Cl	0.757782	-0.640668	1.384174
H68	H	0.905914	-0.762231	1.261987
Cl69	Cl	0.371507	-0.759026	1.652883
Cl70	Cl	0.219803	-0.882887	1.804623
H71	H	0.640235	-0.807563	1.384031
H72	H	0.905891	-0.250046	1.774786
Cl73	Cl	0.791864	-0.882758	1.232332
H74	H	0.371324	-1.205750	1.652987
Cl75	Cl	0.791786	-1.130420	1.232393
H76	H	1.104960	-0.250102	1.774903
H77	H	0.640079	-1.205691	1.384129
H78	H	1.104983	-0.762282	1.262107
H79	H	0.640286	-0.640526	1.819842
Cl80	Cl	1.253093	-0.371506	1.652579
Cl81	Cl	0.219715	-1.130555	1.804690
H82	H	0.640326	-0.640496	2.217970
H83	H	1.204505	-0.640502	1.384122
Cl84	Cl	0.791895	-0.792147	1.895068
H85	H	0.762154	-0.762398	2.118432
Cl86	Cl	0.220091	-0.220103	2.142750
H87	H	0.371687	-0.371752	2.217975
H88	H	0.249808	-0.249864	1.919385
H89	H	0.371652	-0.371780	1.819847
