data_functionalizedCrystal
_audit_creation_method	'MofGen! by Chris Wilmer'
_symmetry_space_group_name_H-M	'P1'
_symmetry_Int_Tables_number	1
_symmetry_cell_setting	triclinic
loop_
_symmetry_equiv_pos_as_xyz
  x,y,z
_cell_length_a	12.827893
_cell_length_b	12.645330
_cell_length_c	12.827885
_cell_angle_alpha	90.028978
_cell_angle_beta	90.019272
_cell_angle_gamma	90.017662
loop_
_atom_site_label
_atom_site_type_symbol
_atom_site_fract_x
_atom_site_fract_y
_atom_site_fract_z
Zn1	Zn	1.597653	-0.421989	0.590855
Zn2	Zn	2.097653	0.078011	1.090855
Zn3	Zn	1.597540	-0.599290	0.416117
Zn4	Zn	2.097540	-0.099290	0.916117
Zn5	Zn	1.422894	-0.422040	0.416128
Zn6	Zn	1.922894	0.077960	0.916128
Zn7	Zn	1.422873	-0.599211	0.590817
Zn8	Zn	1.922873	-0.099211	1.090817
O9	O	1.510240	-0.510632	0.503479
O10	O	2.010240	-0.010632	1.003479
O11	O	1.743874	-0.445520	0.567686
O12	O	2.243874	0.054480	1.067686
O13	O	1.574335	-0.575832	0.269883
O14	O	2.074335	-0.075832	0.769883
O15	O	1.446133	-0.273686	0.439326
O16	O	1.946133	0.226314	0.939326
O17	O	1.743791	-0.575782	0.439308
O18	O	2.243791	-0.075782	0.939308
O19	O	1.574527	-0.273648	0.567697
O20	O	2.074527	0.226352	1.067697
O21	O	1.446023	-0.445608	0.269891
O22	O	1.946023	0.054392	0.769891
O23	O	1.276655	-0.445531	0.439290
O24	O	1.776655	0.054469	0.939290
O25	O	1.446096	-0.575647	0.737058
O26	O	1.946096	-0.075647	1.237058
O27	O	1.276639	-0.575697	0.567633
O28	O	1.776639	-0.075697	1.067633
O29	O	1.574506	-0.445443	0.737086
O30	O	2.074506	0.054557	1.237086
O31	O	1.574314	-0.747626	0.439271
O32	O	2.074314	-0.247626	0.939271
O33	O	1.445986	-0.747568	0.567623
O34	O	1.945986	-0.247568	1.067623
C35	C	1.238730	-0.510612	0.503459
C36	C	1.738730	-0.010612	1.003459
C37	C	1.122577	-0.510629	0.503476
C38	C	1.622577	-0.010629	1.003476
C39	C	1.510164	-0.786062	0.503465
C40	C	2.010164	-0.286062	1.003465
C41	C	1.510227	-0.903892	0.503493
C42	C	2.010227	-0.403892	1.003493
C43	C	1.070812	-0.575140	0.566886
C44	C	1.570812	-0.075140	1.066886
C45	C	0.950762	-0.575159	0.566904
C46	C	1.450762	-0.075159	1.066904
C47	C	1.429829	-1.071464	0.584488
C48	C	1.929829	-0.571464	1.084488
C49	C	1.429418	-0.948904	0.584228
C50	C	1.929418	-0.448904	1.084228
C51	C	1.480414	-0.948494	0.393362
C52	C	1.980414	-0.448494	0.893362
C53	C	1.479923	-1.071093	0.393854
C54	C	1.979923	-0.571093	0.893854
C55	C	1.620929	-1.070979	0.531736
C56	C	2.120929	-0.570979	1.031736
C57	C	1.620251	-0.948372	0.534144
C58	C	2.120251	-0.448372	1.034144
C59	C	1.782810	-0.510654	0.503500
C60	C	2.282810	-0.010654	1.003500
C61	C	1.898963	-0.510663	0.503509
C62	C	2.398963	-0.010663	1.003509
C63	C	1.510311	-0.510531	0.776050
C64	C	2.010311	-0.010531	1.276050
C65	C	1.510341	-0.510487	0.892203
C66	C	2.010341	-0.010487	1.392203
C67	C	1.510345	-0.234127	0.503517
C68	C	2.010345	0.265873	1.003517
C69	C	1.510390	-0.116297	0.503533
C70	C	2.010390	0.383703	1.003533
C71	C	1.510229	-0.510657	0.231969
C72	C	2.010229	-0.010657	0.731969
C73	C	1.510401	-0.510402	0.115817
C74	C	2.010401	-0.010402	0.615817
C75	C	1.573890	-0.446045	0.944001
C76	C	2.073890	0.053955	1.444001
C77	C	1.573923	-0.445999	1.064052
C78	C	2.073923	0.054001	1.564052
H79	H	0.906245	-0.630392	0.621189
H80	H	1.406245	-0.130392	1.121189
H81	H	1.628268	-0.390905	0.899471
H82	H	2.128268	0.109095	1.399471
N83	N	1.452812	-0.911042	0.686663
N84	N	1.952812	-0.411042	1.186663
N85	N	1.456509	-0.813832	0.703995
N86	N	1.956509	-0.313832	1.203995
H87	H	1.473033	-0.787094	0.776343
H88	H	1.973033	-0.287094	1.276343
N89	N	1.442109	-0.579667	0.948039
N90	N	1.942109	-0.079667	1.448039
N91	N	1.382362	-0.640251	0.899401
N92	N	1.882362	-0.140251	1.399401
H93	H	1.334168	-0.689110	0.938832
H94	H	1.834168	-0.189110	1.438832
H95	H	0.943473	-0.455433	0.449214
H96	H	1.443473	0.044567	0.949214
H97	H	1.078018	-0.455408	0.449206
H98	H	1.578018	0.044592	0.949206
H99	H	1.680949	-1.099972	0.472773
H100	H	2.180949	-0.599972	0.972773
N101	N	1.126716	-0.644395	0.634981
N102	N	1.626716	-0.144395	1.134981
N103	N	1.224158	-0.644277	0.634874
N104	N	1.724158	-0.144277	1.134874
H105	H	1.263640	-0.693189	0.682970
H106	H	1.763640	-0.193189	1.182970
N107	N	1.551685	-0.911902	0.315632
N108	N	2.051685	-0.411902	0.815632
N109	N	1.561732	-0.814986	0.299334
N110	N	2.061732	-0.314986	0.799334
H111	H	1.612068	-0.789139	0.244439
H112	H	2.112068	-0.289139	0.744439
H113	H	1.448310	-1.100870	0.666417
H114	H	1.948310	-0.600870	1.166417
H115	H	1.348392	-1.102366	0.566042
H116	H	1.848392	-0.602366	1.066042
N117	N	1.326610	-0.912239	0.560791
N118	N	1.826610	-0.412239	1.060791
N119	N	1.254941	-0.977194	0.544567
N120	N	1.754941	-0.477194	1.044567
H121	H	1.182328	-0.951301	0.528013
H122	H	1.682328	-0.451301	1.028013
N123	N	1.378554	-1.107079	0.363873
N124	N	1.878554	-0.607079	0.863873
N125	N	1.308662	-1.041650	0.342735
N126	N	1.808662	-0.541650	0.842735
H127	H	1.237067	-1.067059	0.321560
H128	H	1.737067	-0.567059	0.821560
H129	H	1.683433	-0.917726	0.479474
H130	H	2.183433	-0.417726	0.979474
N131	N	1.648494	-0.911782	0.635805
N132	N	2.148494	-0.411782	1.135805
N133	N	1.733806	-0.938417	0.674887
N134	N	2.233806	-0.438417	1.174887
H135	H	1.753755	-0.912566	0.746683
H136	H	2.253755	-0.412566	1.246683
H137	H	1.536054	-1.100754	0.331479
H138	H	2.036054	-0.600754	0.831479
N139	N	1.380103	-0.910089	0.362854
N140	N	1.880103	-0.410089	0.862854
N141	N	1.330397	-0.849883	0.422030
N142	N	1.830397	-0.349883	0.922030
H143	H	1.259550	-0.822758	0.400489
H144	H	1.759550	-0.322758	0.900489
N145	N	1.655039	-1.109677	0.630766
N146	N	2.155039	-0.609677	1.130766
N147	N	1.598286	-1.171134	0.681763
N148	N	2.098286	-0.671134	1.181763
H149	H	1.622366	-1.198467	0.751705
H150	H	2.122366	-0.698467	1.251705
N151	N	1.642180	-0.376798	1.119940
N152	N	2.142180	0.123202	1.619940
N153	N	1.642114	-0.376861	1.217382
N154	N	2.142114	0.123139	1.717382
H155	H	1.690323	-0.327987	1.256857
H156	H	2.190323	0.172013	1.756857
N157	N	1.442139	-0.579605	1.059936
N158	N	1.942139	-0.079605	1.559936
N159	N	1.375604	-0.542264	0.999009
N160	N	1.875604	-0.042264	1.499009
H161	H	1.327393	-0.591137	0.959535
H162	H	1.827393	-0.091137	1.459535
