data_functionalizedCrystal
_audit_creation_method	'MofGen! by Chris Wilmer'
_symmetry_space_group_name_H-M	'P1'
_symmetry_Int_Tables_number	1
_symmetry_cell_setting	triclinic
loop_
_symmetry_equiv_pos_as_xyz
  x,y,z
_cell_length_a	15.944551
_cell_length_b	11.792241
_cell_length_c	10.268362
_cell_angle_alpha	89.999703
_cell_angle_beta	90.000094
_cell_angle_gamma	96.153923
loop_
_atom_site_label
_atom_site_type_symbol
_atom_site_fract_x
_atom_site_fract_y
_atom_site_fract_z
O1	O	-1.115185	0.146381	-0.108150
O2	O	-0.865185	0.396381	0.141850
O3	O	-0.615185	0.646381	0.391850
O4	O	-0.365185	0.896381	0.641850
O5	O	-0.870717	0.164428	-0.108180
O6	O	-0.620717	0.414428	0.141820
O7	O	-0.370717	0.664428	0.391820
O8	O	-0.120717	0.914428	0.641820
O9	O	-0.998883	-0.009815	-0.108172
O10	O	-0.748883	0.240185	0.141828
O11	O	-0.498883	0.490185	0.391828
O12	O	-0.248883	0.740185	0.641828
O13	O	-0.987018	0.320624	-0.108158
O14	O	-0.737018	0.570624	0.141842
O15	O	-0.487018	0.820624	0.391842
O16	O	-0.237018	1.070624	0.641842
O17	O	-0.998872	-0.009822	0.108428
O18	O	-0.748872	0.240178	0.358428
O19	O	-0.498872	0.490178	0.608428
O20	O	-0.248872	0.740178	0.858428
O21	O	-0.870705	0.164421	0.108420
O22	O	-0.620705	0.414421	0.358420
O23	O	-0.370705	0.664421	0.608420
O24	O	-0.120705	0.914421	0.858420
O25	O	-1.115173	0.146373	0.108451
O26	O	-0.865173	0.396373	0.358451
O27	O	-0.615173	0.646373	0.608451
O28	O	-0.365173	0.896373	0.858451
Cu29	Cu	-0.992938	0.155396	0.128213
Cu30	Cu	-0.742938	0.405396	0.378213
Cu31	Cu	-0.492938	0.655396	0.628213
Cu32	Cu	-0.242938	0.905396	0.878213
Cu33	Cu	-0.992952	0.155405	-0.127942
Cu34	Cu	-0.742952	0.405405	0.122058
Cu35	Cu	-0.492952	0.655405	0.372058
Cu36	Cu	-0.242952	0.905405	0.622058
O37	O	-0.987007	0.320616	0.108443
O38	O	-0.737007	0.570616	0.358443
O39	O	-0.487007	0.820616	0.608443
O40	O	-0.237007	1.070616	0.858443
C41	C	-0.839414	0.163675	0.000116
C42	C	-0.589414	0.413675	0.250116
C43	C	-0.339414	0.663675	0.500116
C44	C	-0.089414	0.913675	0.750116
C45	C	-0.746157	0.161429	0.000103
C46	C	-0.496157	0.411429	0.250103
C47	C	-0.246157	0.661429	0.500103
C48	C	0.003843	0.911429	0.750103
C49	C	-1.146476	0.147126	0.000152
C50	C	-0.896476	0.397126	0.250152
C51	C	-0.646476	0.647126	0.500152
C52	C	-0.396476	0.897126	0.750152
C53	C	-1.239733	0.149372	0.000156
C54	C	-0.989733	0.399372	0.250156
C55	C	-0.739733	0.649372	0.500156
C56	C	-0.489733	0.899372	0.750156
C57	C	-0.987758	0.362905	0.000144
C58	C	-0.737758	0.612905	0.250144
C59	C	-0.487758	0.862905	0.500144
C60	C	-0.237758	1.112905	0.750144
C61	C	-0.989989	0.488900	0.000150
C62	C	-0.739989	0.738900	0.250150
C63	C	-0.489989	0.988900	0.500150
C64	C	-0.239989	1.238900	0.750150
C65	C	-0.530789	0.048056	0.000124
C66	C	-0.280789	0.298056	0.250124
C67	C	-0.030789	0.548056	0.500124
C68	C	0.219211	0.798056	0.750124
C69	C	-0.470012	0.100706	-0.106670
C70	C	-0.220012	0.350706	0.143330
C71	C	0.029988	0.600706	0.393330
C72	C	0.279988	0.850706	0.643330
C73	C	-0.575413	0.157365	0.000119
C74	C	-0.325413	0.407365	0.250119
C75	C	-0.075413	0.657365	0.500119
C76	C	0.174587	0.907365	0.750119
C77	C	-0.470023	0.100725	0.106882
C78	C	-0.220023	0.350725	0.356882
C79	C	0.029977	0.600725	0.606882
C80	C	0.279977	0.850725	0.856882
C81	C	-0.410483	0.153432	0.000139
C82	C	-0.160483	0.403432	0.250139
C83	C	0.089517	0.653432	0.500139
C84	C	0.339517	0.903432	0.750139
C85	C	-0.515864	0.210045	-0.106763
C86	C	-0.265864	0.460045	0.143237
C87	C	-0.015864	0.710045	0.393237
C88	C	0.234136	0.960045	0.643237
C89	C	-0.515882	0.210049	0.106884
C90	C	-0.265882	0.460049	0.356884
C91	C	-0.015882	0.710049	0.606884
C92	C	0.234118	0.960049	0.856884
C93	C	-0.455123	0.262778	0.000065
C94	C	-0.205123	0.512778	0.250065
C95	C	0.044877	0.762778	0.500065
C96	C	0.294877	1.012778	0.750065
C97	C	-0.670426	0.159628	0.000106
C98	C	-0.420426	0.409628	0.250106
C99	C	-0.170426	0.659628	0.500106
C100	C	0.079574	0.909628	0.750106
C101	C	-0.315471	0.151178	0.000142
C102	C	-0.065471	0.401178	0.250142
C103	C	0.184529	0.651178	0.500142
C104	C	0.434529	0.901178	0.750142
C105	C	-0.998132	-0.052104	0.000123
C106	C	-0.748132	0.197896	0.250123
C107	C	-0.498132	0.447896	0.500123
C108	C	-0.248132	0.697896	0.750123
C109	C	-0.995901	-0.178099	0.000109
C110	C	-0.745901	0.071901	0.250109
C111	C	-0.495901	0.321901	0.500109
C112	C	-0.245901	0.571901	0.750109
N113	N	-0.992935	0.155390	0.308379
N114	N	-0.742935	0.405390	0.558379
N115	N	-0.492935	0.655390	0.808379
N116	N	-0.242935	0.905390	1.058379
C117	C	-0.994091	0.719579	0.000118
C118	C	-0.744091	0.969579	0.250118
C119	C	-0.494091	1.219579	0.500118
C120	C	-0.244091	1.469579	0.750118
C121	C	-0.991811	0.591212	0.000136
C122	C	-0.741811	0.841212	0.250136
C123	C	-0.491811	1.091212	0.500136
C124	C	-0.241811	1.341212	0.750136
N125	N	-0.992961	0.155402	-0.308108
N126	N	-0.742961	0.405402	-0.058108
N127	N	-0.492961	0.655402	0.191892
N128	N	-0.242961	0.905402	0.441892
C129	C	-0.992947	0.155403	0.574049
C130	C	-0.742947	0.405403	0.824049
C131	C	-0.492947	0.655403	1.074049
C132	C	-0.242947	0.905403	1.324049
C133	C	-0.992938	0.155399	0.426211
C134	C	-0.742938	0.405399	0.676211
C135	C	-0.492938	0.655399	0.926211
C136	C	-0.242938	0.905399	1.176211
H137	H	-0.563713	-0.042662	-0.000012
H138	H	-0.313713	0.207338	0.249988
H139	H	-0.063713	0.457338	0.499988
H140	H	0.186287	0.707338	0.749988
H141	H	-0.449698	0.054476	-0.196960
H142	H	-0.199698	0.304476	0.053040
H143	H	0.050302	0.554476	0.303040
H144	H	0.300302	0.804476	0.553040
F145	F	-0.542464	0.270426	0.224906
F146	F	-0.292464	0.520426	0.474906
F147	F	-0.042464	0.770426	0.724906
F148	F	0.207536	1.020426	0.974906
F149	F	-0.542265	0.270435	-0.224902
F150	F	-0.292265	0.520435	0.025098
F151	F	-0.042265	0.770435	0.275098
F152	F	0.207735	1.020435	0.525098
F153	F	-0.412315	0.381473	-0.000005
F154	F	-0.162315	0.631473	0.249995
F155	F	0.087685	0.881473	0.499995
F156	F	0.337685	1.131473	0.749995
F157	F	-0.443492	0.040268	0.224889
F158	F	-0.193492	0.290268	0.474889
F159	F	0.056508	0.540268	0.724889
F160	F	0.306508	0.790268	0.974889
