data_functionalizedCrystal
_audit_creation_method	'MofGen! by Chris Wilmer'
_symmetry_space_group_name_H-M	'P1'
_symmetry_Int_Tables_number	1
_symmetry_cell_setting	triclinic
loop_
_symmetry_equiv_pos_as_xyz
  x,y,z
_cell_length_a	10.723024
_cell_length_b	19.288865
_cell_length_c	18.366186
_cell_angle_alpha	89.993214
_cell_angle_beta	90.006101
_cell_angle_gamma	96.197942
loop_
_atom_site_label
_atom_site_type_symbol
_atom_site_fract_x
_atom_site_fract_y
_atom_site_fract_z
O1	O	1.655147	-0.097414	0.060554
O2	O	1.291799	-0.106738	0.060558
O3	O	1.483972	-0.001014	0.060541
O4	O	1.462974	-0.203138	0.060570
O5	O	1.483947	-0.001017	-0.060558
O6	O	1.291774	-0.106742	-0.060542
O7	O	1.655122	-0.097417	-0.060545
Zn8	Zn	1.473444	-0.102080	-0.079771
Zn9	Zn	1.473477	-0.102075	0.079783
O10	O	1.462949	-0.203141	-0.060529
C11	C	1.245301	-0.106061	0.000008
C12	C	1.106789	-0.104031	0.000009
C13	C	1.030564	-0.163189	0.000018
C14	C	0.887405	-0.161092	0.000018
C15	C	1.483284	0.024865	-0.000010
C16	C	1.481256	0.101982	-0.000017
C17	C	1.701620	-0.098094	0.000006
C18	C	1.840131	-0.100124	0.000010
C19	C	1.463637	-0.229020	0.000025
C20	C	1.465665	-0.306137	0.000036
N21	N	1.473431	-0.102083	-0.188662
C22	C	1.594014	0.145945	-0.000021
C23	C	1.592109	0.218404	-0.000010
C24	C	1.477438	0.246898	-0.000008
C25	C	1.364665	0.202925	0.000000
C26	C	1.366574	0.130468	-0.000004
C27	C	1.387285	0.355770	-0.042426
C28	C	1.385381	0.428227	-0.042426
C29	C	1.471547	0.470382	0.000008
C30	C	1.559637	0.440072	0.042433
C31	C	1.561546	0.367614	0.042429
C32	C	1.475356	0.325465	-0.000003
C33	C	1.582247	0.592914	0.000017
C34	C	1.580336	0.665374	0.000033
C35	C	1.352890	0.649894	0.000036
C36	C	1.354803	0.577435	0.000027
C37	C	1.469485	0.548949	0.000014
C38	C	1.548937	-0.144572	-0.773206
C39	C	1.548924	-0.144579	-0.696978
C40	C	1.473488	-0.102068	-0.658873
C41	C	1.398036	-0.059560	-0.697002
C42	C	1.398042	-0.059560	-0.773229
C43	C	1.470386	-0.039423	-0.538116
C44	C	1.470389	-0.039422	-0.461891
C45	C	1.473464	-0.102069	-0.423765
C46	C	1.476561	-0.164719	-0.461875
C47	C	1.476566	-0.164719	-0.538101
C48	C	1.473473	-0.102064	-0.576218
C49	C	1.548890	-0.144585	-0.302990
C50	C	1.548869	-0.144593	-0.226761
C51	C	1.397988	-0.059568	-0.226787
C52	C	1.398003	-0.059567	-0.303015
C53	C	1.473461	-0.102074	-0.341112
N54	N	1.473500	-0.102067	0.188674
H55	H	1.687397	0.122757	-0.000029
N56	N	0.800657	-0.228179	-0.000001
H57	H	0.851880	-0.269153	-0.000004
H58	H	0.745988	-0.230118	0.044885
N59	N	1.630292	-0.190420	-0.655845
H60	H	1.605409	-0.240833	-0.669101
H61	H	1.721124	-0.177115	-0.669118
H62	H	1.271299	0.226130	0.000003
N63	N	1.084493	-0.232338	0.000023
H64	H	1.179117	-0.224034	0.000021
H65	H	1.055165	-0.259620	0.044921
H66	H	0.905620	-0.049478	0.000007
N67	N	1.316683	-0.013706	-0.655905
H68	H	1.341583	0.036704	-0.669179
H69	H	1.225850	-0.027005	-0.669190
N70	N	1.467009	0.028144	-0.420793
H71	H	1.467469	0.018639	-0.366719
H72	H	1.542961	0.061317	-0.434109
H73	H	1.336560	-0.024959	-0.195763
N74	N	1.052849	-0.034886	-0.000008
H75	H	0.999522	-0.031313	0.044883
H76	H	1.123451	0.004267	-0.000042
H77	H	1.675628	0.569720	0.000010
H78	H	1.336609	-0.024947	-0.804266
H79	H	1.683933	0.254205	-0.000011
N80	N	1.316658	-0.013709	-0.344133
H81	H	1.328108	-0.020158	-0.398204
H82	H	1.225832	-0.026970	-0.330817
N83	N	1.656546	0.334920	0.088184
H84	H	1.710846	0.372615	0.115068
H85	H	1.611425	0.301727	0.124420
N86	N	1.467045	0.028149	-0.579233
H87	H	1.465087	0.067835	-0.543527
H88	H	1.544223	0.036682	-0.610859
N89	N	1.294338	0.310306	-0.088193
H90	H	1.238253	0.340501	-0.115071
H91	H	1.341037	0.283372	-0.124434
N92	N	1.652586	0.485527	0.088203
H93	H	1.638010	0.536028	0.081773
H94	H	1.641266	0.472056	0.141122
N95	N	1.701960	0.712795	0.000031
H96	H	1.774895	0.683752	0.000020
H97	H	1.706102	0.743204	-0.044859
N98	N	1.229206	0.680615	0.000046
H99	H	1.245105	0.733189	0.000050
H100	H	1.179867	0.664579	-0.044847
H101	H	1.610327	-0.179200	-0.334011
H102	H	1.274749	0.094672	-0.000000
N103	N	1.630365	-0.190392	-0.814296
H104	H	1.678167	-0.217312	-0.778575
H105	H	1.575821	-0.224081	-0.845938
H106	H	1.262983	0.541639	0.000027
N107	N	1.290379	0.460909	-0.088191
H108	H	1.202923	0.442324	-0.072347
H109	H	1.302353	0.513202	-0.081741
N110	N	1.479894	-0.232285	-0.579206
H111	H	1.481839	-0.271975	-0.543493
H112	H	1.402711	-0.240806	-0.610836
N113	N	1.479857	-0.232308	-0.420787
H114	H	1.557296	-0.229322	-0.389148
H115	H	1.402616	-0.240870	-0.389218
N116	N	1.630236	-0.190440	-0.185642
H117	H	1.678039	-0.217364	-0.221346
H118	H	1.691391	-0.160460	-0.154013
