data_functionalizedCrystal
_audit_creation_method	'MofGen! by Chris Wilmer'
_symmetry_space_group_name_H-M	'P1'
_symmetry_Int_Tables_number	1
_symmetry_cell_setting	triclinic
loop_
_symmetry_equiv_pos_as_xyz
  x,y,z
_cell_length_a	12.759401
_cell_length_b	12.594516
_cell_length_c	12.759393
_cell_angle_alpha	89.962719
_cell_angle_beta	90.017451
_cell_angle_gamma	89.983361
loop_
_atom_site_label
_atom_site_type_symbol
_atom_site_fract_x
_atom_site_fract_y
_atom_site_fract_z
Zn1	Zn	1.606223	0.423704	0.593943
Zn2	Zn	2.106223	0.923704	1.093943
Zn3	Zn	1.606112	0.601724	0.418246
Zn4	Zn	2.106112	1.101724	0.918246
Zn5	Zn	1.430528	0.423757	0.418282
Zn6	Zn	1.930528	0.923757	0.918282
Zn7	Zn	1.430504	0.601638	0.593888
Zn8	Zn	1.930504	1.101638	1.093888
O9	O	1.518342	0.512706	0.506090
O10	O	2.018342	1.012706	1.006090
O11	O	1.753229	0.447333	0.570645
O12	O	2.253229	0.947333	1.070645
O13	O	1.582783	0.578175	0.271230
O14	O	2.082783	1.078175	0.771230
O15	O	1.453891	0.274804	0.441622
O16	O	1.953891	0.774804	0.941622
O17	O	1.753147	0.578123	0.441561
O18	O	2.253147	1.078123	0.941561
O19	O	1.582973	0.274766	0.570680
O20	O	2.082973	0.774766	1.070680
O21	O	1.453783	0.447423	0.271256
O22	O	1.953783	0.947423	0.771256
O23	O	1.283504	0.447340	0.441568
O24	O	1.783504	0.947340	0.941568
O25	O	1.453850	0.577977	0.740916
O26	O	1.953850	1.077977	1.240916
O27	O	1.283487	0.578028	0.570585
O28	O	1.783487	1.078028	1.070585
O29	O	1.582950	0.447250	0.740957
O30	O	2.082950	0.947250	1.240957
O31	O	1.582760	0.750659	0.441507
O32	O	2.082760	1.250659	0.941507
O33	O	1.453743	0.750596	0.570550
O34	O	1.953743	1.250596	1.070550
C35	C	1.245374	0.512681	0.506075
C36	C	1.745374	1.012681	1.006075
C37	C	1.128598	0.512696	0.506094
C38	C	1.628598	1.012696	1.006094
C39	C	1.073771	0.444722	0.573412
C40	C	1.573771	0.944722	1.073412
C41	C	0.964047	0.444742	0.573418
C42	C	1.464047	0.944742	1.073418
C43	C	0.963986	0.580720	0.438786
C44	C	1.463986	1.080720	0.938786
C45	C	1.073708	0.580694	0.438775
C46	C	1.573708	1.080694	0.938775
C47	C	1.073806	0.366219	0.651144
C48	C	1.573806	0.866219	1.151144
C49	C	0.964082	0.366240	0.651151
C50	C	1.464082	0.866240	1.151151
C51	C	1.518265	0.789247	0.506042
C52	C	2.018265	1.289247	1.006042
C53	C	1.518329	0.907552	0.506056
C54	C	2.018329	1.407552	1.006056
C55	C	1.588576	0.976801	0.435937
C56	C	2.088576	1.476801	0.935937
C57	C	1.614243	1.047493	0.531822
C58	C	2.114243	1.547493	1.031822
C59	C	1.492773	1.047660	0.410210
C60	C	1.992773	1.547660	0.910210
C61	C	1.544045	0.976686	0.601991
C62	C	2.044045	1.476686	1.101991
C63	C	1.422530	0.976847	0.480314
C64	C	1.922530	1.476847	0.980314
C65	C	1.448160	1.047506	0.576265
C66	C	1.948160	1.547506	1.076265
C67	C	1.792375	0.512732	0.506105
C68	C	2.292375	1.012732	1.006105
C69	C	1.909152	0.512743	0.506112
C70	C	2.409152	1.012743	1.006112
C71	C	1.518410	0.512598	0.780123
C72	C	2.018410	1.012598	1.280123
C73	C	1.518439	0.512552	0.896900
C74	C	2.018439	1.012552	1.396900
C75	C	1.518422	1.235085	0.506134
C76	C	2.018422	1.735085	1.006134
C77	C	1.518392	1.116780	0.506083
C78	C	2.018392	1.616780	1.006083
C79	C	1.518334	0.512737	0.233122
C80	C	2.018334	1.012737	0.733122
C81	C	1.518509	0.512484	0.116346
C82	C	2.018509	1.012484	0.616346
C83	C	1.451297	0.444457	0.951782
C84	C	1.951297	0.944457	1.451782
C85	C	1.451329	0.444425	1.061506
C86	C	1.951329	0.944425	1.561506
C87	C	1.585654	0.580586	1.061457
C88	C	2.085654	1.080586	1.561457
C89	C	1.585616	0.580622	0.951735
C90	C	2.085616	1.080622	1.451735
C91	C	1.373749	0.365842	0.951811
C92	C	1.873749	0.865842	1.451811
C93	C	1.373780	0.365810	1.061535
C94	C	1.873780	0.865810	1.561535
H95	H	1.107868	0.395834	0.728379
H96	H	1.607868	0.895834	1.228379
H97	H	1.341511	0.945789	0.458495
H98	H	1.841511	1.445789	0.958495
H99	H	1.402917	0.287552	0.917802
H100	H	1.902917	0.787552	1.417802
H101	H	1.695285	1.078528	0.553613
H102	H	2.195285	1.578528	1.053613
F103	F	1.132054	0.653015	0.367101
F104	F	1.632054	1.153015	0.867101
H105	H	1.565606	0.945643	0.683129
H106	H	2.065606	1.445643	1.183129
H107	H	0.930045	0.287900	0.622159
H108	H	1.430045	0.787900	1.122159
H109	H	1.103577	0.283751	0.629498
H110	H	1.603577	0.783751	1.129498
F111	F	1.402184	0.258017	1.100498
F112	F	1.902184	0.758017	1.600498
H113	H	0.934334	0.388421	0.732484
H114	H	1.434334	0.888421	1.232484
F115	F	1.370547	1.087833	0.653873
F116	F	1.870547	1.587833	1.153873
F117	F	1.657066	0.653109	0.893329
F118	F	2.157066	1.153109	1.393329
F119	F	1.666245	0.936219	0.358512
F120	F	2.166245	1.436219	0.858512
F121	F	0.905559	0.653083	0.367144
F122	F	1.405559	1.153083	0.867144
F123	F	1.464485	1.088408	0.304250
F124	F	1.964485	1.588408	0.804250
H125	H	1.640347	0.636006	1.106117
H126	H	2.140347	1.136006	1.606117
H127	H	1.296482	0.395315	1.095558
H128	H	1.796482	0.895315	1.595558
F129	F	1.267369	0.394695	0.912882
F130	F	1.767369	0.894695	1.412882
