data_functionalizedCrystal
_audit_creation_method	'MofGen! by Chris Wilmer'
_symmetry_space_group_name_H-M	'P1'
_symmetry_Int_Tables_number	1
_symmetry_cell_setting	triclinic
loop_
_symmetry_equiv_pos_as_xyz
  x,y,z
_cell_length_a	14.519709
_cell_length_b	11.792254
_cell_length_c	12.996460
_cell_angle_alpha	90.006814
_cell_angle_beta	89.994177
_cell_angle_gamma	83.939371
loop_
_atom_site_label
_atom_site_type_symbol
_atom_site_fract_x
_atom_site_fract_y
_atom_site_fract_z
O1	O	0.126461	1.506180	-0.085568
O2	O	0.376461	1.756180	0.164432
O3	O	0.626461	2.006180	0.414432
O4	O	0.876461	2.256180	0.664432
O5	O	0.139476	1.175769	-0.085571
O6	O	0.389476	1.425769	0.164429
O7	O	0.639476	1.675769	0.414429
O8	O	0.889476	1.925769	0.664429
O9	O	-0.001237	1.349735	-0.085560
O10	O	0.248763	1.599735	0.164440
O11	O	0.498763	1.849735	0.414440
O12	O	0.748763	2.099735	0.664440
O13	O	0.267175	1.332214	-0.085579
O14	O	0.517175	1.582214	0.164421
O15	O	0.767175	1.832214	0.414421
O16	O	1.017175	2.082214	0.664421
O17	O	-0.001245	1.349758	0.085574
O18	O	0.248755	1.599758	0.335574
O19	O	0.498755	1.849758	0.585574
O20	O	0.748755	2.099758	0.835574
O21	O	0.139468	1.175792	0.085563
O22	O	0.389468	1.425792	0.335563
O23	O	0.639468	1.675792	0.585563
O24	O	0.889468	1.925792	0.835563
O25	O	0.126453	1.506203	0.085565
O26	O	0.376453	1.756203	0.335565
O27	O	0.626453	2.006203	0.585565
O28	O	0.876453	2.256203	0.835565
Cu29	Cu	0.132960	1.340999	0.101190
Cu30	Cu	0.382960	1.590999	0.351190
Cu31	Cu	0.632960	1.840999	0.601190
Cu32	Cu	0.882960	2.090999	0.851190
Cu33	Cu	0.132970	1.340973	-0.101195
Cu34	Cu	0.382970	1.590973	0.148805
Cu35	Cu	0.632970	1.840973	0.398805
Cu36	Cu	0.882970	2.090973	0.648805
O37	O	0.267167	1.332237	0.085555
O38	O	0.517167	1.582237	0.335555
O39	O	0.767167	1.832237	0.585555
O40	O	1.017167	2.082237	0.835555
C41	C	0.138652	1.133494	-0.000004
C42	C	0.388652	1.383494	0.249996
C43	C	0.638652	1.633494	0.499996
C44	C	0.888652	1.883494	0.749996
C45	C	0.136199	1.007495	-0.000005
C46	C	0.386199	1.257495	0.249995
C47	C	0.636199	1.507495	0.499995
C48	C	0.886199	1.757495	0.749995
C49	C	-0.035604	1.348930	0.000007
C50	C	0.214396	1.598930	0.250007
C51	C	0.464396	1.848930	0.500007
C52	C	0.714396	2.098930	0.750007
C53	C	-0.137994	1.346483	0.000007
C54	C	0.112006	1.596483	0.250007
C55	C	0.362006	1.846483	0.500007
C56	C	0.612006	2.096483	0.750007
C57	C	0.134205	0.905169	-0.000009
C58	C	0.384205	1.155169	0.249991
C59	C	0.634205	1.405169	0.499991
C60	C	0.884205	1.655169	0.749991
C61	C	0.131711	0.776796	-0.000010
C62	C	0.381711	1.026796	0.249990
C63	C	0.631711	1.276796	0.499990
C64	C	0.881711	1.526796	0.749990
C65	C	-0.512923	1.337475	-0.000019
C66	C	-0.262923	1.587475	0.249981
C67	C	-0.012923	1.837475	0.499981
C68	C	0.237077	2.087475	0.749981
C69	C	-0.408606	1.339976	-0.000012
C70	C	-0.158606	1.589976	0.249988
C71	C	0.091394	1.839976	0.499988
C72	C	0.341394	2.089976	0.749988
C73	C	-0.325462	1.341979	-0.000005
C74	C	-0.075462	1.591979	0.249995
C75	C	0.174538	1.841979	0.499995
C76	C	0.424538	2.091979	0.749995
C77	C	-0.221138	1.344481	0.000001
C78	C	0.028862	1.594481	0.250001
C79	C	0.278862	1.844481	0.500001
C80	C	0.528862	2.094481	0.750001
C81	C	0.301534	1.333042	-0.000014
C82	C	0.551534	1.583042	0.249986
C83	C	0.801534	1.833042	0.499986
C84	C	1.051534	2.083042	0.749986
C85	C	0.403924	1.335489	-0.000022
C86	C	0.653924	1.585489	0.249978
C87	C	0.903924	1.835489	0.499978
C88	C	1.153924	2.085489	0.749978
C89	C	0.127277	1.548478	-0.000003
C90	C	0.377277	1.798478	0.249997
C91	C	0.627277	2.048478	0.499997
C92	C	0.877277	2.298478	0.749997
C93	C	0.129731	1.674477	-0.000010
C94	C	0.379731	1.924477	0.249990
C95	C	0.629731	2.174477	0.499990
C96	C	0.879731	2.424477	0.749990
N97	N	0.132969	1.340955	-0.243543
N98	N	0.382969	1.590955	0.006457
N99	N	0.632969	1.840955	0.256457
N100	N	0.882969	2.090955	0.506457
C101	C	0.132970	1.340958	-0.336649
C102	C	0.382970	1.590958	-0.086649
C103	C	0.632970	1.840958	0.163351
C104	C	0.882970	2.090958	0.413351
C105	C	0.132969	1.340974	-0.453454
C106	C	0.382969	1.590974	-0.203454
C107	C	0.632969	1.840974	0.046546
C108	C	0.882969	2.090974	0.296546
C109	C	0.132962	1.340993	-0.546552
C110	C	0.382962	1.590993	-0.296552
C111	C	0.632962	1.840993	-0.046552
C112	C	0.882962	2.090993	0.203448
C113	C	0.132959	1.341007	-0.663365
C114	C	0.382959	1.591007	-0.413365
C115	C	0.632959	1.841007	-0.163365
C116	C	0.882959	2.091007	0.086635
N117	N	0.132953	1.341026	0.243537
N118	N	0.382953	1.591026	0.493537
N119	N	0.632953	1.841026	0.743537
N120	N	0.882953	2.091026	0.993537
