data_functionalizedCrystal
_audit_creation_method	'MofGen! by Chris Wilmer'
_symmetry_space_group_name_H-M	'P1'
_symmetry_Int_Tables_number	1
_symmetry_cell_setting	triclinic
loop_
_symmetry_equiv_pos_as_xyz
  x,y,z
_cell_length_a	17.077404
_cell_length_b	17.077402
_cell_length_c	17.077396
_cell_angle_alpha	89.973827
_cell_angle_beta	90.021457
_cell_angle_gamma	89.976501
loop_
_atom_site_label
_atom_site_type_symbol
_atom_site_fract_x
_atom_site_fract_y
_atom_site_fract_z
Zn1	Zn	-1.200046	-0.312527	-0.443896
Zn2	Zn	-0.700046	0.187473	0.056104
Zn3	Zn	-1.199950	-0.443802	-0.312636
Zn4	Zn	-0.699950	0.056198	0.187364
Zn5	Zn	-1.068778	-0.312552	-0.312640
Zn6	Zn	-0.568778	0.187448	0.187360
Zn7	Zn	-1.068743	-0.443753	-0.443855
Zn8	Zn	-0.568743	0.056247	0.056145
O9	O	-1.134379	-0.378158	-0.378257
O10	O	-0.634379	0.121842	0.121743
O11	O	-1.309881	-0.329951	-0.426500
O12	O	-0.809881	0.170049	0.073500
O13	O	-1.182524	-0.426422	-0.202789
O14	O	-0.682524	0.073578	0.297211
O15	O	-1.086246	-0.202702	-0.330070
O16	O	-0.586246	0.297298	0.169930
O17	O	-1.309810	-0.426398	-0.330063
O18	O	-0.809810	0.073602	0.169937
O19	O	-1.182689	-0.202683	-0.426504
O20	O	-0.682689	0.297317	0.073496
O21	O	-1.086153	-0.329993	-0.202792
O22	O	-0.586153	0.170007	0.297208
O23	O	-0.958927	-0.329946	-0.330030
O24	O	-0.458927	0.170054	0.169970
O25	O	-1.086186	-0.426314	-0.553707
O26	O	-0.586186	0.073686	-0.053707
O27	O	-0.958901	-0.426338	-0.426433
O28	O	-0.458901	0.073662	0.073567
O29	O	-1.182654	-0.329903	-0.553738
O30	O	-0.682654	0.170097	-0.053738
O31	O	-1.182490	-0.553642	-0.330023
O32	O	-0.682490	-0.053642	0.169977
O33	O	-1.086092	-0.553606	-0.426429
O34	O	-0.586092	-0.053606	0.073571
C35	C	-0.930431	-0.378140	-0.378228
C36	C	-0.430431	0.121860	0.121772
C37	C	-0.843182	-0.378151	-0.378234
C38	C	-0.343182	0.121849	0.121766
C39	C	-1.134298	-0.582106	-0.378238
C40	C	-0.634298	-0.082106	0.121762
C41	C	-1.134335	-0.669356	-0.378256
C42	C	-0.634335	-0.169356	0.121744
C43	C	-1.184735	-1.045163	-0.328149
C44	C	-0.684735	-0.545163	0.171851
C45	C	-1.184695	-0.963183	-0.328135
C46	C	-0.684695	-0.463183	0.171865
C47	C	-1.134449	-0.922205	-0.378284
C48	C	-0.634449	-0.422205	0.121716
C49	C	-1.084234	-0.963212	-0.428445
C50	C	-0.584234	-0.463212	0.071555
C51	C	-1.084271	-1.045191	-0.428454
C52	C	-0.584271	-0.545191	0.071546
C53	C	-1.084162	-0.792342	-0.428423
C54	C	-0.584162	-0.292342	0.071577
C55	C	-1.084126	-0.710357	-0.428415
C56	C	-0.584126	-0.210357	0.071585
C57	C	-1.184586	-0.710334	-0.328104
C58	C	-0.684586	-0.210334	0.171896
C59	C	-1.184623	-0.792313	-0.328113
C60	C	-0.684623	-0.292313	0.171887
C61	C	-1.134409	-0.833314	-0.378275
C62	C	-0.634409	-0.333314	0.121725
C63	C	-0.802199	-0.428418	-0.428349
C64	C	-0.302199	0.071582	0.071651
C65	C	-0.720218	-0.428418	-0.428359
C66	C	-0.220218	0.071582	0.071641
C67	C	-0.679222	-0.378155	-0.378249
C68	C	-0.179222	0.121845	0.121751
C69	C	-0.720211	-0.327883	-0.328132
C70	C	-0.220211	0.172117	0.171868
C71	C	-0.802190	-0.327879	-0.328127
C72	C	-0.302190	0.172121	0.171873
C73	C	-0.549341	-0.327895	-0.328145
C74	C	-0.049341	0.172105	0.171855
C75	C	-0.467357	-0.327899	-0.328149
C76	C	0.032643	0.172101	0.171851
C77	C	-0.467369	-0.428433	-0.428377
C78	C	0.032631	0.071567	0.071623
C79	C	-0.549348	-0.428430	-0.428372
C80	C	-0.049348	0.071570	0.071628
C81	C	-0.590331	-0.378159	-0.378254
C82	C	-0.090331	0.121841	0.121746
C83	C	-0.339124	-0.378172	-0.378277
C84	C	0.160876	0.121828	0.121723
C85	C	-0.426373	-0.378166	-0.378264
C86	C	0.073627	0.121834	0.121736
C87	C	-1.134482	-0.173414	-0.378292
C88	C	-0.634482	0.326586	0.121708
C89	C	-1.134526	-0.086164	-0.378307
C90	C	-0.634526	0.413836	0.121693
C91	C	-1.134427	-0.378100	-0.583001
C92	C	-0.634427	0.121900	-0.083001
C93	C	-1.134447	-0.378076	-0.670251
C94	C	-0.634447	0.121924	-0.170251
C95	C	-1.184680	-0.327870	-0.711258
C96	C	-0.684680	0.172130	-0.211258
C97	C	-1.184689	-0.327844	-0.793239
C98	C	-0.684689	0.172156	-0.293239
C99	C	-1.134469	-0.378028	-0.834210
C100	C	-0.634469	0.121972	-0.334210
C101	C	-1.084231	-0.428236	-0.793197
C102	C	-0.584231	0.071764	-0.293197
C103	C	-1.084218	-0.428257	-0.711218
C104	C	-0.584218	0.071743	-0.211218
C105	C	-1.084263	-0.428188	-0.964067
C106	C	-0.584263	0.071812	-0.464067
C107	C	-1.084276	-0.428168	-1.046052
C108	C	-0.584276	0.071832	-0.546052
C109	C	-1.184734	-0.327776	-1.046088
C110	C	-0.684734	0.172224	-0.546088
C111	C	-1.184721	-0.327797	-0.964109
C112	C	-0.684721	0.172203	-0.464109
C113	C	-1.134483	-0.378006	-0.923101
C114	C	-0.634483	0.121994	-0.423101
C115	C	-1.134377	-0.378159	-0.174309
C116	C	-0.634377	0.121841	0.325691
C117	C	-1.134509	-0.377963	-0.087059
C118	C	-0.634509	0.122037	0.412941
H119	H	-1.225656	-1.078521	-0.287316
H120	H	-0.725656	-0.578521	0.212684
H121	H	-0.686853	-0.469351	-0.469167
H122	H	-0.186853	0.030649	0.030833
H123	H	-0.582725	-0.469363	-0.469172
H124	H	-0.082725	0.030637	0.030828
H125	H	-0.433997	-0.469364	-0.469188
H126	H	0.066003	0.030636	0.030812
H127	H	-1.225472	-0.676946	-0.287260
H128	H	-0.725472	-0.176946	0.212740
H129	H	-1.225577	-0.287007	-0.677905
H130	H	-0.725577	0.212993	-0.177905
H131	H	-1.225596	-0.286964	-0.826623
H132	H	-0.725596	0.213036	-0.326623
H133	H	-1.043209	-0.676997	-0.469251
H134	H	-0.543209	-0.176997	0.030749
H135	H	-1.043389	-1.078573	-0.469302
H136	H	-0.543389	-0.578573	0.030698
H137	H	-1.225638	-0.286892	-1.079480
H138	H	-0.725638	0.213108	-0.579480
H139	H	-0.433980	-0.286961	-0.287354
H140	H	0.066020	0.213039	0.212646
H141	H	-1.225619	-0.286937	-0.930752
H142	H	-0.725619	0.213063	-0.430752
H143	H	-1.043381	-0.469030	-1.079409
H144	H	-0.543381	0.030970	-0.579409
H145	H	-0.835558	-0.286943	-0.287322
H146	H	-0.335558	0.213057	0.212678
H147	H	-1.043342	-0.469062	-0.930682
H148	H	-0.543342	0.030938	-0.430682
H149	H	-1.043277	-0.825722	-0.469274
H150	H	-0.543277	-0.325722	0.030726
H151	H	-1.043338	-0.469093	-0.826563
H152	H	-0.543338	0.030907	-0.326563
H153	H	-1.225579	-0.929800	-0.287292
H154	H	-0.725579	-0.429800	0.212708
H155	H	-1.043305	-0.469132	-0.677831
H156	H	-0.543305	0.030868	-0.177831
H157	H	-0.582707	-0.286952	-0.287340
H158	H	-0.082707	0.213048	0.212660
H159	H	-1.225542	-0.825674	-0.287281
H160	H	-0.725542	-0.325674	0.212719
H161	H	-0.835571	-0.469350	-0.469152
H162	H	-0.335571	0.030650	0.030848
H163	H	-1.043318	-0.929843	-0.469274
H164	H	-0.543318	-0.429843	0.030726
H165	H	-0.686826	-0.286954	-0.287335
H166	H	-0.186826	0.213046	0.212665
