data_functionalizedCrystal
_audit_creation_method	'MofGen! by Chris Wilmer'
_symmetry_space_group_name_H-M	'P1'
_symmetry_Int_Tables_number	1
_symmetry_cell_setting	triclinic
loop_
_symmetry_equiv_pos_as_xyz
  x,y,z
_cell_length_a	10.654558
_cell_length_b	9.730223
_cell_length_c	14.971486
_cell_angle_alpha	90.001545
_cell_angle_beta	95.948825
_cell_angle_gamma	89.998620
loop_
_atom_site_label
_atom_site_type_symbol
_atom_site_fract_x
_atom_site_fract_y
_atom_site_fract_z
O1	O	-1.666480	0.114328	0.125662
O2	O	-1.300874	0.114323	0.137623
O3	O	-1.493476	0.114316	0.001496
O4	O	-1.473878	0.114335	0.261789
O5	O	-1.493474	-0.114264	0.001499
O6	O	-1.300872	-0.114257	0.137627
O7	O	-1.666478	-0.114252	0.125665
Zn8	Zn	-1.483675	-0.150546	0.131646
Zn9	Zn	-1.483678	0.150618	0.131642
O10	O	-1.473876	-0.114245	0.261792
C11	C	-1.254085	0.000032	0.136745
C12	C	-1.114670	0.000030	0.134113
N13	N	-1.483682	-0.356083	0.131649
C14	C	-0.933022	0.000040	0.049013
C15	C	-1.064017	0.000027	0.051486
C16	C	-1.034322	0.000031	0.214273
C17	C	-0.903329	0.000034	0.211799
C18	C	-0.950167	0.000043	-0.044970
C19	C	-1.081162	0.000031	-0.042498
C20	C	-1.568988	-0.428012	0.071392
C21	C	-1.568984	-0.571895	0.071382
C22	C	-1.398365	-0.571907	0.191892
C23	C	-1.398364	-0.428027	0.191898
C24	C	-1.667497	-0.428006	0.001819
C25	C	-1.667494	-0.571889	0.001808
C26	C	-0.713268	0.000040	0.126541
C27	C	-0.852683	0.000046	0.129167
C28	C	-1.492599	0.000026	-0.031832
C29	C	-1.489972	0.000028	-0.131143
N30	N	-1.483680	0.356154	0.131632
C31	C	-1.603121	0.000028	-0.187751
C32	C	-1.600645	0.000042	-0.281064
C33	C	-1.485020	0.000045	-0.317767
C34	C	-1.371863	0.000049	-0.261153
C35	C	-1.374340	0.000045	-0.167842
C36	C	-1.366709	0.000054	-0.455643
C37	C	-1.364232	0.000055	-0.548961
C38	C	-1.593014	0.000051	-0.568865
C39	C	-1.595491	0.000047	-0.475554
C40	C	-1.482333	0.000048	-0.418946
C41	C	-1.474753	0.000048	0.295120
C42	C	-1.477380	0.000056	0.394432
H43	H	-0.837921	0.000023	0.277068
C44	C	-1.788755	-0.368700	0.031026
C45	C	-1.803718	-0.413395	0.118182
C46	C	-1.915414	-0.358817	0.145121
H47	H	-1.784726	-0.271194	0.030119
H48	H	-1.858410	-0.398890	-0.008911
H49	H	-1.734080	-0.383197	0.158109
H50	H	-1.807770	-0.510894	0.119112
H51	H	-1.985069	-0.389007	0.105184
H52	H	-1.911375	-0.261312	0.144209
H53	H	-1.925587	-0.389144	0.204255
H54	H	-1.274564	0.000058	-0.409555
C55	C	-1.627821	-0.631136	-0.084915
C56	C	-1.601519	-0.523723	-0.142352
C57	C	-1.565003	-0.578251	-0.222255
H58	H	-1.554509	-0.686082	-0.071919
H59	H	-1.694221	-0.686028	-0.113161
H60	H	-1.535124	-0.468854	-0.114111
H61	H	-1.674813	-0.468768	-0.155372
H62	H	-1.631403	-0.633143	-0.250502
H63	H	-1.491694	-0.633196	-0.209251
H64	H	-1.547164	-0.505380	-0.261239
C65	C	-1.142393	-0.131480	-0.080545
C66	C	-1.117980	-0.146660	-0.170122
C67	C	-1.174379	-0.267781	-0.205199
H68	H	-1.108677	-0.207843	-0.046548
H69	H	-1.230940	-0.126969	-0.077585
H70	H	-1.029451	-0.151183	-0.173076
H71	H	-1.151698	-0.070328	-0.204141
H72	H	-1.262926	-0.263269	-0.202239
H73	H	-1.140659	-0.344133	-0.171196
H74	H	-1.157833	-0.278090	-0.265983
H75	H	-0.914861	0.098738	-0.074899
H76	H	-1.075574	0.000021	0.281549
C77	C	-1.246416	0.000267	-0.301124
C78	C	-1.238328	0.117847	-0.354129
C79	C	-1.122790	0.118081	-0.390973
H80	H	-1.179273	0.000339	-0.254138
H81	H	-1.240683	-0.079404	-0.337162
H82	H	-1.244049	0.197497	-0.318093
H83	H	-1.305444	0.117800	-0.401129
H84	H	-1.117056	0.038411	-0.427011
H85	H	-1.055656	0.118149	-0.343982
H86	H	-1.117291	0.197851	-0.426947
H87	H	-0.921198	-0.095613	-0.081727
H88	H	-1.763841	-0.610937	0.017136
H89	H	-1.123300	0.095690	-0.077906
H90	H	-1.328890	-0.369463	0.240955
H91	H	-1.328901	-0.630499	0.240944
H92	H	-1.646792	-0.388958	-0.066931
C93	C	-1.723630	-0.000038	-0.342373
C94	C	-1.825419	-0.000090	-0.290258
C95	C	-1.938736	-0.000183	-0.346705
H96	H	-1.727610	0.079653	-0.379204
H97	H	-1.727480	-0.079780	-0.379177
H98	H	-1.821571	0.079643	-0.253470
H99	H	-1.821481	-0.079775	-0.253428
H100	H	-1.942586	-0.079925	-0.383509
H101	H	-1.942703	0.079509	-0.383533
H102	H	-2.007813	-0.000231	-0.311353
H103	H	-1.697276	0.000017	-0.157874
H104	H	-1.689643	0.000034	-0.445673
C105	C	-1.715974	0.000272	-0.630212
C106	C	-1.785608	0.117847	-0.613493
C107	C	-1.898887	0.118081	-0.669982
H108	H	-1.698126	0.000353	-0.691072
H109	H	-1.763442	-0.079402	-0.618999
H110	H	-1.738149	0.197501	-0.624713
H111	H	-1.803489	0.117792	-0.552644
H112	H	-1.946356	0.038407	-0.658769
H113	H	-1.881028	0.118158	-0.730838
H114	H	-1.946153	0.197847	-0.658640
H115	H	-1.270080	0.000036	-0.578842
H116	H	-1.282203	0.000044	-0.121752
