data_functionalizedCrystal
_audit_creation_method	'MofGen! by Chris Wilmer'
_symmetry_space_group_name_H-M	'P1'
_symmetry_Int_Tables_number	1
_symmetry_cell_setting	triclinic
loop_
_symmetry_equiv_pos_as_xyz
  x,y,z
_cell_length_a	10.685976
_cell_length_b	12.594516
_cell_length_c	10.686551
_cell_angle_alpha	85.594704
_cell_angle_beta	89.651515
_cell_angle_gamma	85.648466
loop_
_atom_site_label
_atom_site_type_symbol
_atom_site_fract_x
_atom_site_fract_y
_atom_site_fract_z
Zn1	Zn	1.972239	-0.514686	-0.561886
Zn2	Zn	1.956023	-0.705236	-0.352133
Zn3	Zn	1.746367	-0.512687	-0.368261
Zn4	Zn	1.762460	-0.678033	-0.577960
O5	O	1.859272	-0.602660	-0.465060
O6	O	2.145623	-0.552183	-0.520585
O7	O	1.914691	-0.690242	-0.178731
O8	O	1.776381	-0.364008	-0.393969
O9	O	2.133710	-0.692180	-0.366481
O10	O	1.942328	-0.365477	-0.536224
O11	O	1.760657	-0.548777	-0.190580
O12	O	1.572966	-0.522399	-0.409555
O13	O	1.803809	-0.645817	-0.751370
O14	O	1.584790	-0.643878	-0.563620
O15	O	1.957933	-0.525806	-0.739560
O16	O	1.930295	-0.850571	-0.382067
O17	O	1.788085	-0.830585	-0.547981
C18	C	1.533364	-0.579971	-0.490083
C19	C	1.393941	-0.570288	-0.500817
C20	C	1.859212	-0.879199	-0.465043
C21	C	1.859305	-0.997508	-0.465069
C22	C	1.936757	-1.077594	-0.374910
C23	C	1.976201	-1.143574	-0.487052
C24	C	1.820024	-1.142334	-0.352988
C25	C	1.898812	-1.061930	-0.577266
C26	C	1.742575	-1.060685	-0.443129
C27	C	1.781982	-1.126625	-0.555353
C28	C	2.186454	-0.625439	-0.439941
C29	C	2.325879	-0.635146	-0.429237
C30	C	1.884475	-0.583000	-0.792254
C31	C	1.895214	-0.574622	-0.931684
C32	C	1.859369	-0.325043	-0.465103
C33	C	1.859410	-0.206739	-0.465121
C34	C	1.834240	-0.622173	-0.139134
C35	C	1.823743	-0.630268	0.000314
H36	H	1.374277	-0.698093	-0.359741
H37	H	1.345550	-0.507354	-0.570319
H38	H	2.002272	-1.055710	-0.298729
H39	H	2.074962	-1.179783	-0.505640
Br40	Br	1.954466	-1.003562	-0.735313
Br41	Br	1.672894	-1.162768	-0.682598
Br42	Br	1.708066	-0.720367	-0.918938
Br43	Br	2.010918	-0.484537	-1.012435
H44	H	1.643839	-1.024457	-0.424504
H45	H	1.786758	-1.177497	-0.258181
