data_functionalizedCrystal
_audit_creation_method	'MofGen! by Chris Wilmer'
_symmetry_space_group_name_H-M	'P1'
_symmetry_Int_Tables_number	1
_symmetry_cell_setting	triclinic
loop_
_symmetry_equiv_pos_as_xyz
  x,y,z
_cell_length_a	10.967819
_cell_length_b	10.540510
_cell_length_c	9.482900
_cell_angle_alpha	99.430215
_cell_angle_beta	68.706355
_cell_angle_gamma	84.614685
loop_
_atom_site_label
_atom_site_type_symbol
_atom_site_fract_x
_atom_site_fract_y
_atom_site_fract_z
O1	O	1.746322	0.087060	-0.558401
O2	O	1.368060	0.119543	-0.463635
O3	O	1.565841	-0.081765	-0.513185
O4	O	1.548541	0.288368	-0.508852
O5	O	1.525668	-0.040716	-0.261328
O6	O	1.327887	0.160592	-0.211779
O7	O	1.706150	0.128109	-0.306544
Cu8	Cu	1.513350	0.148099	-0.236165
Cu9	Cu	1.560859	0.099554	-0.534015
O10	O	1.508369	0.329417	-0.256995
C11	C	1.299538	0.140805	-0.325573
C12	C	1.155215	0.142985	-0.289416
C13	C	0.962526	0.124954	-0.366424
C14	C	1.111691	0.122693	-0.403785
C15	C	1.544466	-0.108491	-0.386936
C16	C	1.540610	-0.249283	-0.385979
C17	C	1.677916	-0.472321	-0.419825
C18	C	1.682122	-0.325989	-0.421431
C19	C	1.491110	-0.314489	-0.511650
C20	C	1.488016	-0.461140	-0.510983
C21	C	1.439385	-0.414147	-0.223837
C22	C	1.445795	-0.267774	-0.223625
C23	C	1.774672	0.106847	-0.444610
C24	C	1.918997	0.104665	-0.480777
C25	C	1.529744	0.356143	-0.383247
C26	C	1.533601	0.496933	-0.384214
N27	N	1.479945	0.182242	-0.026676
N28	N	1.594274	0.065400	-0.743506
C29	C	1.550997	0.109618	0.027723
C30	C	1.523212	0.138035	0.202101
H31	H	0.889361	0.144005	-0.240863
H32	H	1.398541	0.265451	0.055848
O33	O	1.415391	0.248287	0.311377
H34	H	1.340098	0.208811	0.399617
H35	H	1.184851	0.103655	-0.529354
O36	O	1.772195	-0.555081	-0.573866
H37	H	1.873770	-0.532616	-0.597873
H38	H	1.632392	0.026399	-0.054797
O39	O	1.298446	-0.437476	-0.187286
H40	H	1.234331	-0.344979	-0.174782
O41	O	1.058296	0.168435	-0.123071
H42	H	0.956331	0.166325	-0.119821
H43	H	0.992160	0.085629	-0.606338
O44	O	1.702100	-0.044840	0.147199
H45	H	1.749912	-0.093721	0.213578
O46	O	1.735449	-0.267955	-0.303713
H47	H	1.758462	-0.344397	-0.245124
O48	O	1.779436	-0.313757	-0.577151
H49	H	1.823664	-0.412458	-0.651607
O50	O	1.729134	-0.508614	-0.301469
H51	H	1.731032	-0.614468	-0.304145
O52	O	1.576877	-0.540377	-0.669565
H53	H	1.621591	-0.473793	-0.746033
H54	H	1.383212	-0.480825	-0.490983
O55	O	1.354250	-0.247174	-0.484192
H56	H	1.319980	-0.166331	-0.380438
H57	H	1.558489	-0.303155	-0.631284
O58	O	1.475597	-0.449257	-0.094273
H59	H	1.561162	-0.530487	-0.142749
H60	H	1.481535	-0.223999	-0.130434
O61	O	1.307117	-0.195219	-0.177822
H62	H	1.266711	-0.232560	-0.265286
