data_functionalizedCrystal
_audit_creation_method	'MofGen! by Chris Wilmer'
_symmetry_space_group_name_H-M	'P1'
_symmetry_Int_Tables_number	1
_symmetry_cell_setting	triclinic
loop_
_symmetry_equiv_pos_as_xyz
  x,y,z
_cell_length_a	16.992694
_cell_length_b	16.053789
_cell_length_c	17.699083
_cell_angle_alpha	87.106298
_cell_angle_beta	93.024381
_cell_angle_gamma	92.715794
loop_
_atom_site_label
_atom_site_type_symbol
_atom_site_fract_x
_atom_site_fract_y
_atom_site_fract_z
O1	O	1.043024	0.069328	-0.163487
O2	O	0.814743	0.069352	-0.161727
O3	O	0.935333	0.069332	-0.052819
O4	O	0.922435	0.069348	-0.272395
O5	O	0.929437	-0.069527	-0.046767
O6	O	0.808847	-0.069507	-0.155675
O7	O	1.037128	-0.069531	-0.157435
Zn8	Zn	0.922051	-0.091566	-0.155594
Zn9	Zn	0.929820	0.091387	-0.163568
O10	O	0.916538	-0.069511	-0.266343
C11	C	0.782587	-0.000074	-0.156437
C12	C	0.695556	-0.000065	-0.149680
N13	N	0.916755	-0.216426	-0.150152
C14	C	0.962362	-0.260119	-0.197052
C15	C	0.958667	-0.347525	-0.193240
C16	C	0.909361	-0.391239	-0.142533
C17	C	0.863753	-0.347540	-0.095628
C18	C	0.867452	-0.260135	-0.099436
C19	C	0.893213	-0.652649	-0.125908
C20	C	0.889516	-0.740060	-0.122105
C21	C	0.984432	-0.740039	-0.219716
C22	C	0.988123	-0.652632	-0.223523
C23	C	0.942518	-0.608942	-0.176616
N24	N	0.905582	-0.480582	-0.138638
N25	N	0.946302	-0.519599	-0.180508
C26	C	0.645192	-0.000061	-0.214878
C27	C	0.563417	-0.000073	-0.208524
C28	C	0.532008	-0.000083	-0.136971
C29	C	0.582379	-0.000090	-0.071769
C30	C	0.664152	-0.000084	-0.078123
C31	C	0.288459	-0.000107	-0.110634
C32	C	0.206680	-0.000111	-0.104285
C33	C	0.187723	-0.000095	-0.241041
C34	C	0.269499	-0.000084	-0.247389
C35	C	0.319863	-0.000095	-0.182186
N36	N	0.448421	-0.000093	-0.130475
N37	N	0.403448	-0.000092	-0.188683
C38	C	1.069284	-0.000103	-0.162726
C39	C	1.156315	-0.000107	-0.169483
C40	C	0.931923	-0.000098	-0.021567
C41	C	0.930536	-0.000098	0.062537
N42	N	0.935123	0.216248	-0.169005
C43	C	0.919949	-0.000079	-0.297595
C44	C	0.921336	-0.000074	-0.381700
C45	C	1.001320	-0.000106	0.106751
C46	C	1.000012	-0.000099	0.185776
C47	C	0.927920	-0.000089	0.220585
C48	C	0.857131	-0.000077	0.176364
C49	C	0.858440	-0.000079	0.097341
C50	C	0.851854	-0.000070	0.495056
C51	C	0.850551	-0.000071	0.574085
C52	C	0.993427	-0.000090	0.583490
C53	C	0.994735	-0.000092	0.504467
C54	C	0.923946	-0.000076	0.460254
C55	C	0.925365	-0.000082	0.374566
C56	C	0.926501	-0.000088	0.306271
H57	H	0.995807	-0.383096	-0.231430
C58	C	0.815886	-0.481532	-0.046488
C59	C	0.809551	-0.395585	-0.039890
H60	H	0.782417	-0.511188	-0.012081
H61	H	0.868935	-0.495883	-0.035098
H62	H	0.800587	-0.495813	-0.096761
H63	H	0.824856	-0.381303	0.010382
H64	H	0.756490	-0.381228	-0.051275
C65	C	0.731908	-0.071436	0.195782
C66	C	0.777883	-0.000063	0.214620
H67	H	0.682981	-0.071424	0.219394
H68	H	0.758987	-0.119855	0.212784
H69	H	0.722566	-0.071426	0.142388
H70	H	0.787230	-0.000076	0.268013
H71	H	0.750798	0.048368	0.197622
C72	C	0.780055	0.071316	-0.000098
C73	C	0.780632	-0.000069	0.048738
H74	H	0.732016	0.071326	-0.030099
H75	H	0.823172	0.071304	-0.032133
H76	H	0.784573	0.119732	0.028822
H77	H	0.776120	-0.048485	0.019817
H78	H	0.737503	-0.000064	0.080776
C79	C	1.119948	0.071282	0.485036
C80	C	1.073980	-0.000099	0.466205
H81	H	1.168869	0.071280	0.461411
H82	H	1.129299	0.071274	0.538421
H83	H	1.092854	0.119701	0.468036
H84	H	1.101071	-0.048518	0.483211
H85	H	1.064631	-0.000099	0.412809
C86	C	1.055815	-0.268887	-0.293147
C87	C	1.016562	-0.212073	-0.252791
H88	H	1.089282	-0.239225	-0.327554
H89	H	1.018234	-0.302974	-0.320469
H90	H	1.086563	-0.302981	-0.258786
H91	H	0.985810	-0.177983	-0.287152
H92	H	1.054149	-0.177971	-0.225467
C93	C	1.081584	-0.661395	-0.319615
C94	C	1.042329	-0.604586	-0.279257
H95	H	1.115051	-0.631731	-0.354020
H96	H	1.044004	-0.695482	-0.346940
H97	H	1.112331	-0.695491	-0.285255
H98	H	1.011577	-0.570494	-0.313617
H99	H	1.079914	-0.570484	-0.251931
C100	C	0.708519	0.071297	0.033369
C101	C	0.719519	-0.000082	-0.006458
H102	H	0.742704	0.071297	0.077610
H103	H	0.655330	0.071287	0.047394
H104	H	0.720076	0.119718	0.002114
H105	H	0.707957	-0.048502	0.024795
H106	H	0.772720	-0.000078	-0.020481
H107	H	0.830313	-0.224562	-0.061246
C108	C	0.790409	-0.000048	0.369748
C109	C	0.774045	-0.000054	0.446462
H110	H	0.742370	-0.000032	0.339748
H111	H	0.817911	-0.048473	0.360843
H112	H	0.822036	0.048374	0.356627
H113	H	0.742423	-0.048479	0.459585
H114	H	0.746531	0.048376	0.455371
H115	H	0.556799	-0.000110	-0.013508
C116	C	0.386435	-0.000010	-0.317853
C117	C	0.304023	-0.000037	-0.326043
H118	H	0.407748	0.000038	-0.366412
H119	H	0.401688	-0.048444	-0.288719
H120	H	0.405761	0.048402	-0.292882
H121	H	0.284698	-0.048453	-0.351009
H122	H	0.288764	0.048402	-0.355189
C123	C	0.149404	0.071299	-0.358755
C124	C	0.132361	-0.000089	-0.312707
H125	H	0.115221	0.071301	-0.402998
H126	H	0.202593	0.071297	-0.372776
H127	H	0.141943	0.119713	-0.331721
H128	H	0.139827	-0.048504	-0.339740
H129	H	0.079159	-0.000095	-0.298687
H130	H	0.181111	-0.000118	-0.046015
C131	C	0.618231	-0.000056	-0.349415
C132	C	0.679712	-0.000052	-0.293532
H133	H	0.639542	-0.000057	-0.397972
H134	H	0.588782	0.048363	-0.346203
H135	H	0.584682	-0.048484	-0.341974
H136	H	0.713258	0.048381	-0.300969
H137	H	0.709174	-0.048475	-0.296746
H138	H	0.329456	-0.000117	-0.057541
H139	H	1.060025	-0.000120	0.078416
C140	C	1.141373	-0.000139	0.187136
C141	C	1.077820	-0.000118	0.234377
H142	H	1.189409	-0.000156	0.217142
H143	H	1.140973	0.048282	0.154007
H144	H	1.136841	-0.048565	0.158230
H145	H	1.082348	0.048312	0.263279
H146	H	1.078221	-0.048543	0.267519
H147	H	0.849361	-0.775649	-0.080813
H148	H	0.522413	-0.000068	-0.261615
C149	C	1.085709	-0.838318	-0.226597
C150	C	1.034568	-0.788065	-0.271268
H151	H	1.116666	-0.867962	-0.258424
H152	H	1.055813	-0.876858	-0.195863
H153	H	1.119339	-0.804212	-0.195217
H154	H	1.000934	-0.822172	-0.302644
H155	H	1.064467	-0.749521	-0.302015
H156	H	1.051066	-0.000099	0.619498
C157	C	0.799014	-0.661461	-0.029051
C158	C	0.843076	-0.604631	-0.074355
H159	H	0.768056	-0.631813	0.002773
H160	H	0.833711	-0.695551	0.001241
H161	H	0.765382	-0.695552	-0.060444
H162	H	0.876712	-0.570545	-0.042962
H163	H	0.808376	-0.570527	-0.104649
C164	C	0.731402	0.071346	0.587292
C165	C	0.771303	-0.000049	0.612350
H166	H	0.682483	0.071360	0.610920
H167	H	0.722047	0.071342	0.533908
H168	H	0.762613	0.119755	0.600066
H169	H	0.740094	-0.048459	0.599570
H170	H	0.780655	-0.000053	0.665745
