data_functionalizedCrystal
_audit_creation_method	'MofGen! by Chris Wilmer'
_symmetry_space_group_name_H-M	'P1'
_symmetry_Int_Tables_number	1
_symmetry_cell_setting	triclinic
loop_
_symmetry_equiv_pos_as_xyz
  x,y,z
_cell_length_a	12.827893
_cell_length_b	13.897447
_cell_length_c	12.827885
_cell_angle_alpha	90.031004
_cell_angle_beta	90.019272
_cell_angle_gamma	90.019501
loop_
_atom_site_label
_atom_site_type_symbol
_atom_site_fract_x
_atom_site_fract_y
_atom_site_fract_z
Zn1	Zn	1.597640	-0.383969	0.590840
Zn2	Zn	2.097640	0.116031	1.090840
Zn3	Zn	1.597521	-0.545295	0.416096
Zn4	Zn	2.097521	-0.045295	0.916096
Zn5	Zn	1.422881	-0.384016	0.416113
Zn6	Zn	1.922881	0.115984	0.916113
Zn7	Zn	1.422854	-0.545224	0.590796
Zn8	Zn	1.922854	-0.045224	1.090796
O9	O	1.510224	-0.464626	0.503462
O10	O	2.010224	0.035374	1.003462
O11	O	1.743860	-0.405380	0.567671
O12	O	2.243860	0.094620	1.067671
O13	O	1.574316	-0.523951	0.269863
O14	O	2.074316	-0.023951	0.769863
O15	O	1.446124	-0.249028	0.439317
O16	O	1.946124	0.250972	0.939317
O17	O	1.743773	-0.523905	0.439288
O18	O	2.243773	-0.023905	0.939288
O19	O	1.574518	-0.248994	0.567687
O20	O	2.074518	0.251006	1.067687
O21	O	1.446009	-0.405460	0.269875
O22	O	1.946009	0.094540	0.769875
O23	O	1.276641	-0.405390	0.439274
O24	O	1.776641	0.094610	0.939274
O25	O	1.446077	-0.523783	0.737038
O26	O	1.946077	-0.023783	1.237038
O27	O	1.276621	-0.523829	0.567613
O28	O	1.776621	-0.023829	1.067613
O29	O	1.574492	-0.405310	0.737070
O30	O	2.074492	0.094690	1.237070
O31	O	1.574290	-0.680267	0.439245
O32	O	2.074290	-0.180267	0.939245
O33	O	1.445963	-0.680215	0.567597
O34	O	1.945963	-0.180215	1.067597
C35	C	1.238714	-0.464607	0.503442
C36	C	1.738714	0.035393	1.003442
C37	C	1.122561	-0.464623	0.503458
C38	C	1.622561	0.035377	1.003458
C39	C	1.510139	-0.715240	0.503437
C40	C	2.010139	-0.215240	1.003437
C41	C	1.510198	-0.822454	0.503462
C42	C	2.010198	-0.322454	1.003462
C43	C	1.070794	-0.523321	0.566866
C44	C	1.570794	-0.023321	1.066866
C45	C	0.950743	-0.523338	0.566884
C46	C	1.450743	-0.023338	1.066884
C47	C	1.510249	-0.909524	0.503486
C48	C	2.010249	-0.409524	1.003486
C49	C	1.510322	-1.018756	0.503513
C50	C	2.010322	-0.518756	1.003513
C51	C	1.782794	-0.464645	0.503482
C52	C	2.282794	0.035355	1.003482
C53	C	1.898947	-0.464654	0.503491
C54	C	2.398947	0.035346	1.003491
C55	C	1.510295	-0.464533	0.776032
C56	C	2.010295	0.035467	1.276032
C57	C	1.510325	-0.464494	0.892185
C58	C	2.010325	0.035506	1.392185
C59	C	1.510338	-0.213033	0.503509
C60	C	2.010338	0.286967	1.003509
C61	C	1.510386	-0.105819	0.503529
C62	C	2.010386	0.394181	1.003529
C63	C	1.510213	-0.464649	0.231952
C64	C	2.010213	0.035351	0.731952
C65	C	1.510385	-0.464416	0.115799
C66	C	2.010385	0.035584	0.615799
C67	C	1.573876	-0.405858	0.943986
C68	C	2.073876	0.094142	1.443986
C69	C	1.573908	-0.405816	1.064036
C70	C	2.073908	0.094184	1.564036
H71	H	1.115351	-0.573559	0.621142
H72	H	1.615351	-0.073559	1.121142
H73	H	0.906225	-0.573595	0.621167
H74	H	1.406225	-0.073595	1.121167
H75	H	1.455935	-0.514656	0.936713
H76	H	1.955935	-0.014656	1.436713
H77	H	1.455978	-0.514623	1.071259
H78	H	1.955978	-0.014623	1.571259
H79	H	0.943459	-0.414400	0.449198
H80	H	1.443459	0.085600	0.949198
O81	O	1.063542	-0.398086	0.431550
O82	O	1.563542	0.101914	0.931550
H83	H	1.013833	-0.349114	0.478457
H84	H	1.513833	0.150886	0.978457
H85	H	1.628255	-0.355686	0.899457
H86	H	2.128255	0.144314	1.399457
H87	H	1.628320	-0.355619	1.108583
H88	H	2.128320	0.144381	1.608583
