data_functionalizedCrystal
_audit_creation_method	'MofGen! by Chris Wilmer'
_symmetry_space_group_name_H-M	'P1'
_symmetry_Int_Tables_number	1
_symmetry_cell_setting	triclinic
loop_
_symmetry_equiv_pos_as_xyz
  x,y,z
_cell_length_a	12.759401
_cell_length_b	18.101395
_cell_length_c	12.759401
_cell_angle_alpha	90.007333
_cell_angle_beta	90.004861
_cell_angle_gamma	90.032629
loop_
_atom_site_label
_atom_site_type_symbol
_atom_site_fract_x
_atom_site_fract_y
_atom_site_fract_z
Zn1	Zn	1.605980	-0.294947	0.594006
Zn2	Zn	1.605870	-0.418752	0.418320
Zn3	Zn	1.430328	-0.294932	0.418341
Zn4	Zn	1.430220	-0.418754	0.593957
O5	O	1.518099	-0.356846	0.506156
O6	O	1.752986	-0.311375	0.570712
O7	O	1.582583	-0.402320	0.271302
O8	O	1.453720	-0.191301	0.441672
O9	O	1.752906	-0.402334	0.441637
O10	O	1.582770	-0.191312	0.570733
O11	O	1.453613	-0.311350	0.271317
O12	O	1.283293	-0.311352	0.441626
O13	O	1.453536	-0.402338	0.740985
O14	O	1.283213	-0.402324	0.570650
O15	O	1.582666	-0.311377	0.741020
O16	O	1.582479	-0.522385	0.441590
O17	O	1.453429	-0.522387	0.570630
C18	C	1.245132	-0.356837	0.506135
C19	C	1.128355	-0.356851	0.506151
C20	C	1.073480	-0.404292	0.573229
C21	C	0.963756	-0.404295	0.573250
C22	C	0.963793	-0.309414	0.439107
C23	C	1.073515	-0.309408	0.439092
C24	C	0.813814	-0.430906	0.697109
C25	C	0.758935	-0.478359	0.764177
C26	C	0.794499	-0.550636	0.780121
C27	C	0.884940	-0.575476	0.728982
C28	C	0.939814	-0.528027	0.661906
C29	C	0.904252	-0.455739	0.645982
C30	C	1.223458	-0.282804	0.315231
C31	C	1.278334	-0.235359	0.248149
C32	C	1.242772	-0.163080	0.232194
C33	C	1.152327	-0.138243	0.283315
C34	C	1.097451	-0.185689	0.350397
C35	C	1.133021	-0.257966	0.366353
C36	C	1.517959	-0.549257	0.506125
C37	C	1.517995	-0.631571	0.506147
C38	C	1.518225	-0.930662	0.506204
C39	C	1.437219	-0.899369	0.587594
C40	C	1.436835	-0.813751	0.587339
C41	C	1.518111	-0.782279	0.506177
C42	C	1.488159	-0.813404	0.395451
C43	C	1.487637	-0.899049	0.395938
C44	C	1.629360	-0.899010	0.534565
C45	C	1.628706	-0.813360	0.536993
C46	C	1.518048	-0.698420	0.506155
C47	C	1.518286	-1.014521	0.506219
C48	C	1.792133	-0.356856	0.506178
C49	C	1.908909	-0.356860	0.506187
C50	C	1.518101	-0.356860	0.780189
C51	C	1.518102	-0.356865	0.896966
C52	C	1.518269	-0.163684	0.506210
C53	C	1.518341	-0.081370	0.506233
C54	C	1.585246	-0.404228	0.951824
C55	C	1.585248	-0.404224	1.061548
C56	C	1.450953	-0.309491	1.061547
C57	C	1.450957	-0.309493	0.951825
C58	C	1.709124	-0.430688	1.211509
C59	C	1.776258	-0.478063	1.266370
C60	C	1.792325	-0.550325	1.230750
C61	C	1.741241	-0.575227	1.140270
C62	C	1.674099	-0.527856	1.085414
C63	C	1.658052	-0.455584	1.121033
C64	C	1.327080	-0.283036	0.801862
C65	C	1.259931	-0.235668	0.747004
C66	C	1.243854	-0.163405	0.782622
C67	C	1.294919	-0.138506	0.873106
C68	C	1.362068	-0.185873	0.927964
C69	C	1.378147	-0.258136	0.892338
C70	C	1.518093	-0.356853	1.233189
C71	C	1.518100	-0.356860	1.116412
H72	H	1.013449	-0.548251	0.620270
H73	H	1.544080	-0.919750	0.333229
H74	H	1.846981	-0.588900	1.275431
H75	H	1.406399	-0.919088	0.371913
H76	H	1.656672	-0.920577	0.613930
H77	H	1.639929	-0.442796	0.907161
H78	H	1.632503	-0.548132	1.011749
H79	H	1.545305	-0.793017	0.333156
H80	H	1.118128	-0.442922	0.627835
H81	H	1.355344	-0.920952	0.569044
H82	H	1.692251	-0.791933	0.482034
H83	H	1.754317	-0.634074	1.111283
H84	H	1.407782	-0.792015	0.370995
H85	H	1.651293	-0.793016	0.618481
H86	H	1.218342	-0.255950	0.673334
H87	H	1.817852	-0.457781	1.340039
H88	H	1.351979	-0.255588	0.206524
H89	H	1.696059	-0.371845	1.240513
H90	H	1.689712	-0.919244	0.475286
H91	H	0.913883	-0.634334	0.741961
H92	H	1.354458	-0.793324	0.568553
H93	H	0.784856	-0.372050	0.684144
H94	H	1.396285	-0.270923	1.106226
H95	H	0.749808	-0.589272	0.834731
H96	H	1.403661	-0.165590	1.001631
H97	H	1.281829	-0.079663	0.902108
H98	H	1.189168	-0.124841	0.737951
H99	H	1.123360	-0.079392	0.270307
H100	H	0.685298	-0.458127	0.805815
H101	H	0.919128	-0.270788	0.384508
H102	H	1.023811	-0.165458	0.392029
H103	H	1.287457	-0.124453	0.177561
H104	H	1.340171	-0.341877	0.772848
H105	H	1.252428	-0.341657	0.328226
H106	H	1.455769	-0.919936	0.669962
H107	H	1.455571	-0.792706	0.669441
