data_functionalizedCrystal
_audit_creation_method	'MofGen! by Chris Wilmer'
_symmetry_space_group_name_H-M	'P1'
_symmetry_Int_Tables_number	1
_symmetry_cell_setting	triclinic
loop_
_symmetry_equiv_pos_as_xyz
  x,y,z
_cell_length_a	17.019311
_cell_length_b	27.732048
_cell_length_c	16.098538
_cell_angle_alpha	92.695138
_cell_angle_beta	83.390489
_cell_angle_gamma	83.020427
loop_
_atom_site_label
_atom_site_type_symbol
_atom_site_fract_x
_atom_site_fract_y
_atom_site_fract_z
O1	O	1.053368	0.057078	-0.144808
O2	O	0.822758	0.065443	-0.128272
O3	O	0.945224	-0.009124	-0.137038
O4	O	0.930901	0.131645	-0.136042
O5	O	0.938071	-0.004785	0.001987
O6	O	0.815604	0.069782	0.010753
O7	O	1.046214	0.061417	-0.005783
Zn8	Zn	0.929773	0.066288	0.024558
Zn9	Zn	0.939199	0.060572	-0.158613
O10	O	0.923748	0.135984	0.002982
C11	C	0.789687	0.067380	-0.056645
C12	C	0.701804	0.066683	-0.050343
C13	C	0.204555	0.062871	-0.010898
C14	C	0.287131	0.063526	-0.016822
C15	C	0.332319	0.061485	-0.095567
C16	C	0.294927	0.058793	-0.168394
C17	C	0.212352	0.058141	-0.162470
C18	C	0.581836	0.063339	-0.117245
C19	C	0.664417	0.063989	-0.123164
C20	C	0.656615	0.068723	0.028409
C21	C	0.574040	0.068068	0.034326
C22	C	0.536654	0.065379	-0.038501
C23	C	0.416725	0.062154	-0.101624
C24	C	0.452249	0.064714	-0.032443
C25	C	0.941347	-0.024962	-0.067501
C26	C	0.940441	-0.078618	-0.067430
C27	C	1.007113	-0.417324	-0.072253
C28	C	1.003754	-0.618990	-0.072024
O29	O	1.064721	-0.650146	-0.076432
N30	N	0.931136	-0.638233	-0.066816
C31	C	0.859353	-0.607057	-0.061671
O32	O	0.797510	-0.628053	-0.057245
C33	C	0.862713	-0.405393	-0.061906
C34	C	0.935335	-0.386152	-0.067106
C35	C	1.079730	-0.398083	-0.077453
C36	C	1.080568	-0.347669	-0.077506
C37	C	1.008791	-0.316497	-0.072358
C38	C	0.936174	-0.335738	-0.067158
C39	C	0.790931	-0.374218	-0.056767
C40	C	0.791777	-0.323799	-0.056828
C41	C	0.864400	-0.304558	-0.062028
C42	C	0.865235	-0.254153	-0.062064
N43	N	0.937853	-0.234909	-0.067271
C44	C	1.009631	-0.266081	-0.072419
C45	C	0.857594	-0.712934	-0.061546
C46	C	0.856754	-0.763350	-0.061486
C47	C	1.001156	-0.775279	-0.071840
C48	C	1.001995	-0.724862	-0.071894
C49	C	0.930212	-0.693691	-0.066754
C50	C	1.011387	-0.160209	-0.072528
C51	C	1.012219	-0.109790	-0.072577
C52	C	0.867818	-0.097865	-0.062227
C53	C	0.866985	-0.148279	-0.062174
C54	C	0.938776	-0.179450	-0.067328
O55	O	0.804301	-0.222968	-0.057667
O56	O	1.071465	-0.245077	-0.076863
C57	C	1.006274	-0.467738	-0.072200
C58	C	0.933658	-0.486979	-0.067000
C59	C	0.861880	-0.455807	-0.061853
C60	C	0.932818	-0.537395	-0.066940
C61	C	1.004595	-0.568567	-0.072087
C62	C	1.077214	-0.549324	-0.077295
C63	C	1.078052	-0.498910	-0.077348
C64	C	0.789262	-0.475050	-0.056645
C65	C	0.788429	-0.525464	-0.056592
C66	C	0.860207	-0.556637	-0.061739
C67	C	1.079285	0.059480	-0.077412
C68	C	1.167169	0.060177	-0.083720
C69	C	0.927626	0.151822	-0.066556
C70	C	0.928532	0.205478	-0.066633
N71	N	0.923347	0.070190	0.149567
N72	N	0.945632	0.056667	-0.283623
C73	C	0.975345	0.038552	0.189431
C74	C	0.970857	0.041285	0.276941
C75	C	0.914373	0.075659	0.324586
C76	C	0.862369	0.107299	0.284717
C77	C	0.866854	0.104563	0.197208
C78	C	0.898113	0.085570	0.589000
C79	C	0.893633	0.088305	0.676514
C80	C	1.002121	0.022290	0.668732
C81	C	1.006604	0.019559	0.581222
C82	C	0.954597	0.051197	0.541361
C83	C	0.909785	0.078455	0.414035
C84	C	0.959182	0.048398	0.451913
H85	H	0.331725	0.057134	-0.232510
H86	H	1.052598	-0.008431	0.542431
H87	H	1.044461	-0.003468	0.701195
Br88	Br	0.694353	-0.281497	-0.049855
H89	H	1.061130	-0.709200	-0.076129
Br90	Br	1.052011	-0.008098	0.124778
Br91	Br	0.390920	0.067488	0.074422
Br92	Br	0.512716	0.070849	0.141199
H93	H	0.181913	0.055950	-0.221769
H94	H	0.731794	-0.389875	-0.052538
H95	H	0.847635	0.116299	0.715303
H96	H	0.855769	0.111332	0.556551
Br97	Br	1.174625	-0.591638	-0.084274
H98	H	0.824511	0.130325	0.164753
Br99	Br	0.531109	0.059687	-0.216083
Br100	Br	0.785705	0.153947	0.349375
Br101	Br	0.689860	-0.551570	-0.049528
H102	H	1.139705	-0.332009	-0.081743
H103	H	0.687064	0.070914	0.087700
Br104	Br	1.110784	-0.083681	-0.079633
H105	H	0.453527	0.060490	-0.165739
Br106	Br	1.108818	-0.202504	-0.079524
H107	H	1.005168	0.020409	0.413118
Br108	Br	1.177156	-0.440380	-0.084441
H109	H	0.863796	0.106444	0.452835
Br110	Br	1.098568	-0.817594	-0.078828
Br111	Br	0.725745	0.061218	-0.230040
Br112	Br	0.758190	-0.789455	-0.054409
H113	H	0.167768	0.064535	0.053225
Br114	Br	0.760165	-0.670636	-0.054570
H115	H	0.807849	-0.163945	-0.057916
H116	H	0.809378	-0.072476	-0.058033
H117	H	0.317567	0.065718	0.042477
Br118	Br	0.691839	-0.432752	-0.049663
H119	H	1.013197	0.015523	0.309397
H120	H	1.137189	-0.483249	-0.081582
