data_functionalizedCrystal
_audit_creation_method	'MofGen! by Chris Wilmer'
_symmetry_space_group_name_H-M	'P1'
_symmetry_Int_Tables_number	1
_symmetry_cell_setting	triclinic
loop_
_symmetry_equiv_pos_as_xyz
  x,y,z
_cell_length_a	12.759401
_cell_length_b	16.959447
_cell_length_c	12.759399
_cell_angle_alpha	90.028084
_cell_angle_beta	89.984458
_cell_angle_gamma	89.984999
loop_
_atom_site_label
_atom_site_type_symbol
_atom_site_fract_x
_atom_site_fract_y
_atom_site_fract_z
Zn1	Zn	1.606215	-0.446880	0.418233
Zn2	Zn	2.106215	0.053120	0.918233
Zn3	Zn	1.606119	-0.314707	0.593940
Zn4	Zn	2.106119	0.185293	1.093940
Zn5	Zn	1.430528	-0.314722	0.418277
Zn6	Zn	1.930528	0.185278	0.918277
Zn7	Zn	1.430504	-0.446850	0.593872
Zn8	Zn	1.930504	0.053150	1.093872
O9	O	1.518341	-0.380790	0.506080
O10	O	2.018341	0.119210	1.006080
O11	O	1.753223	-0.429354	0.441551
O12	O	2.253223	0.070646	0.941551
O13	O	1.582796	-0.204098	0.570684
O14	O	2.082796	0.295902	1.070684
O15	O	1.453883	-0.332272	0.271250
O16	O	1.953883	0.167728	0.771250
O17	O	1.753153	-0.332247	0.570642
O18	O	2.253153	0.167753	1.070642
O19	O	1.582960	-0.429368	0.271218
O20	O	2.082960	0.070632	0.771218
O21	O	1.453790	-0.204110	0.441626
O22	O	1.953790	0.295890	0.941626
O23	O	1.283504	-0.332243	0.441560
O24	O	1.783504	0.167757	0.941560
O25	O	1.453843	-0.557465	0.570526
O26	O	1.953843	-0.057465	1.070526
O27	O	1.283486	-0.429317	0.570568
O28	O	1.783486	0.070683	1.070568
O29	O	1.582937	-0.557487	0.441485
O30	O	2.082937	-0.057487	0.941485
O31	O	1.582773	-0.332217	0.740952
O32	O	2.082773	0.167783	1.240952
O33	O	1.453750	-0.429302	0.740902
O34	O	1.953750	0.070698	1.240902
C35	C	1.245374	-0.380779	0.506062
C36	C	1.745374	0.119221	1.006062
C37	C	1.128597	-0.380793	0.506080
C38	C	1.628597	0.119207	1.006080
C39	C	1.073773	-0.431435	0.438983
C40	C	1.573773	0.068565	0.938983
C41	C	0.964049	-0.431440	0.438994
C42	C	1.464049	0.068560	0.938994
C43	C	0.963984	-0.330160	0.573206
C44	C	1.463984	0.169840	1.073206
C45	C	1.073706	-0.330151	0.573190
C46	C	1.573706	0.169849	1.073190
C47	C	1.518398	-0.586958	0.505993
C48	C	2.018398	-0.086958	1.005993
C49	C	1.518422	-0.674815	0.505956
C50	C	2.018422	-0.174815	1.005956
C51	C	1.451347	-1.046303	0.438650
C52	C	1.951347	-0.546303	0.938650
C53	C	1.585682	-1.046279	0.573040
C54	C	2.085682	-0.546279	1.073040
C55	C	1.585663	-0.963733	0.573065
C56	C	2.085663	-0.463733	1.073065
C57	C	1.518485	-0.922468	0.505882
C58	C	2.018485	-0.422468	1.005882
C59	C	1.451324	-0.963749	0.438675
C60	C	1.951324	-0.463749	0.938675
C61	C	1.652815	-0.922446	0.640278
C62	C	2.152815	-0.422446	1.140278
C63	C	1.652799	-0.839895	0.640306
C64	C	2.152799	-0.339895	1.140306
C65	C	1.585625	-0.798628	0.573117
C66	C	2.085625	-0.298628	1.073117
C67	C	1.518462	-0.839915	0.505906
C68	C	2.018462	-0.339915	1.005906
C69	C	1.451284	-0.798650	0.438724
C70	C	1.951284	-0.298650	0.938724
C71	C	1.384126	-0.839935	0.371507
C72	C	1.884126	-0.339935	0.871507
C73	C	1.384150	-0.922483	0.371486
C74	C	1.884150	-0.422483	0.871486
C75	C	1.585600	-0.716080	0.573138
C76	C	2.085600	-0.216080	1.073138
C77	C	1.451261	-0.716096	0.438748
C78	C	1.951261	-0.216096	0.938748
C79	C	1.792375	-0.380802	0.506099
C80	C	2.292375	0.119198	1.006099
C81	C	1.909151	-0.380807	0.506107
C82	C	2.409151	0.119193	1.006107
C83	C	1.518277	-0.380772	0.779048
C84	C	2.018277	0.119228	1.279048
C85	C	1.518346	-0.380791	0.895824
C86	C	2.018346	0.119209	1.395824
C87	C	1.518346	-0.175424	0.506091
C88	C	2.018346	0.324576	1.006091
C89	C	1.518525	-0.087568	0.505833
C90	C	2.018525	0.412432	1.005833
C91	C	1.518435	-0.380825	0.232047
C92	C	2.018435	0.119175	0.732047
C93	C	1.518474	-0.380841	0.115270
C94	C	2.018474	0.119159	0.615270
C95	C	1.585605	-0.330296	0.950677
C96	C	2.085605	0.169704	1.450677
C97	C	1.585672	-0.330323	1.060401
C98	C	2.085672	0.169677	1.560401
C99	C	1.451212	-0.431341	1.060409
C100	C	1.951212	0.068659	1.560409
C101	C	1.451151	-0.431318	0.950687
C102	C	1.951151	0.068682	1.450687
H103	H	0.919278	-0.288929	0.627846
H104	H	1.419278	0.211071	1.127846
H105	H	1.707482	-0.806287	0.695039
H106	H	2.207482	-0.306287	1.195039
H107	H	1.396503	-0.472477	1.105092
H108	H	1.896503	0.027523	1.605092
C109	C	1.134017	-0.274445	0.647003
C110	C	1.634017	0.225555	1.147003
H111	H	1.085613	-0.244294	0.686984
H112	H	1.585613	0.255706	1.186984
H113	H	1.176809	-0.240056	0.606750
H114	H	1.676809	0.259944	1.106750
H115	H	1.176827	-0.304625	0.692825
H116	H	1.676827	0.195375	1.192825
C117	C	1.377477	-1.091707	0.364715
C118	C	1.877477	-0.591707	0.864715
H119	H	1.337471	-1.055306	0.324705
H120	H	1.837471	-0.555306	0.824705
H121	H	1.331695	-1.123903	0.404886
H122	H	1.831695	-0.623903	0.904886
H123	H	1.417699	-1.123916	0.318924
H124	H	1.917699	-0.623916	0.818924
C125	C	1.377357	-0.670711	0.364852
C126	C	1.877357	-0.170711	0.864852
H127	H	1.337361	-0.707123	0.324828
H128	H	1.837361	-0.207123	0.824828
H129	H	1.417545	-0.638514	0.319089
H130	H	1.917545	-0.138514	0.819089
H131	H	1.331551	-0.638506	0.405061
H132	H	1.831551	-0.138506	0.905061
C133	C	1.310221	-0.794542	0.297619
C134	C	1.810221	-0.294542	0.797619
H135	H	1.270220	-0.830947	0.257590
H136	H	1.770220	-0.330947	0.757590
H137	H	1.350410	-0.762341	0.251860
H138	H	1.850410	-0.262341	0.751860
H139	H	1.264421	-0.762338	0.337836
H140	H	1.764421	-0.262338	0.837836
H141	H	1.640368	-1.079882	0.627745
H142	H	2.140368	-0.579882	1.127745
C143	C	1.310277	-0.967893	0.297561
C144	C	1.810277	-0.467893	0.797561
H145	H	1.270270	-0.931497	0.257545
H146	H	1.770270	-0.431497	0.757545
H147	H	1.264497	-1.000084	0.337741
H148	H	1.764497	-0.500084	0.837741
H149	H	1.350496	-1.000108	0.251775
H150	H	1.850496	-0.500108	0.751775
H151	H	0.919415	-0.472676	0.384356
H152	H	1.419415	0.027324	0.884356
H153	H	1.707497	-0.956049	0.694987
H154	H	2.207497	-0.456049	1.194987
C155	C	1.659459	-0.670670	0.647071
C156	C	2.159459	-0.170670	1.147071
H157	H	1.699471	-0.707069	0.687079
H158	H	2.199471	-0.207069	1.187079
H159	H	1.619241	-0.638455	0.692849
H160	H	2.119241	-0.138455	1.192849
H161	H	1.705251	-0.638480	0.606893
H162	H	2.205251	-0.138480	1.106893
H163	H	1.640320	-0.289155	0.906010
H164	H	2.140320	0.210845	1.406010
C165	C	1.134150	-0.487132	0.365158
C166	C	1.634150	0.012868	0.865158
H167	H	1.085780	-0.517287	0.325193
H168	H	1.585780	-0.017287	0.825193
H169	H	1.176966	-0.521517	0.405394
H170	H	1.676966	-0.021517	0.905394
H171	H	1.176942	-0.456946	0.319321
H172	H	1.676942	0.043054	0.819321
C173	C	1.659652	-0.274775	1.120735
C174	C	2.159652	0.225225	1.620735
H175	H	1.699654	-0.244678	1.072343
H176	H	2.199654	0.255322	1.572343
H177	H	1.705434	-0.305046	1.163469
H178	H	2.205434	0.194954	1.663469
H179	H	1.619505	-0.240317	1.163606
H180	H	2.119505	0.259683	1.663606
H181	H	1.396380	-0.472440	0.906023
H182	H	1.896380	0.027560	1.406023
