data_functionalizedCrystal
_audit_creation_method	'MofGen! by Chris Wilmer'
_symmetry_space_group_name_H-M	'P1'
_symmetry_Int_Tables_number	1
_symmetry_cell_setting	triclinic
loop_
_symmetry_equiv_pos_as_xyz
  x,y,z
_cell_length_a	19.188930
_cell_length_b	11.792241
_cell_length_c	17.666332
_cell_angle_alpha	89.991220
_cell_angle_beta	90.005240
_cell_angle_gamma	96.330902
loop_
_atom_site_label
_atom_site_type_symbol
_atom_site_fract_x
_atom_site_fract_y
_atom_site_fract_z
O1	O	0.926933	-0.141703	0.063192
O2	O	0.723730	-0.160777	0.063140
O3	O	0.830263	0.014005	0.063162
O4	O	0.820401	-0.316484	0.063170
O5	O	0.830282	0.014028	-0.062735
O6	O	0.723749	-0.160754	-0.062756
O7	O	0.926952	-0.141679	-0.062705
Cu8	Cu	0.825352	-0.151214	-0.074226
Cu9	Cu	0.825330	-0.151242	0.074662
O10	O	0.820419	-0.316461	-0.062726
C11	C	0.697725	-0.160148	0.000185
C12	C	0.620210	-0.158293	0.000165
N13	N	0.825372	-0.151195	-0.178945
C14	C	0.829653	0.056298	0.000214
C15	C	0.827798	0.182284	0.000214
C16	C	0.575867	-0.260849	0.000180
C17	C	0.503033	-0.259107	0.000188
C18	C	0.474546	-0.154804	0.000197
C19	C	0.518899	-0.052234	0.000178
C20	C	0.591731	-0.053979	0.000163
N21	N	0.366108	-0.075084	0.043074
N22	N	0.296920	-0.073433	0.043090
C23	C	0.255107	-0.149540	0.000243
N24	N	0.285095	-0.227377	-0.042612
N25	N	0.354289	-0.229031	-0.042625
C26	C	0.395573	-0.152900	0.000214
C27	C	0.131789	-0.250214	0.000266
C28	C	0.058955	-0.248468	0.000269
C29	C	0.074822	-0.041591	0.000267
C30	C	0.147655	-0.043341	0.000256
C31	C	0.176134	-0.147655	0.000259
C32	C	0.952957	-0.142309	0.000252
C33	C	1.030472	-0.144163	0.000277
C34	C	0.821029	-0.358754	0.000224
C35	C	0.822884	-0.484740	0.000228
C36	C	0.824389	0.412945	0.000226
C37	C	0.826283	0.284588	0.000220
N38	N	0.825315	-0.151253	0.179381
C39	C	0.867833	-0.220051	0.219008
C40	C	0.867838	-0.220052	0.298256
C41	C	0.825332	-0.151234	0.337873
C42	C	0.782805	-0.082431	0.298236
C43	C	0.782797	-0.082441	0.218990
N44	N	0.823215	-0.051772	0.462282
N45	N	0.823227	-0.051766	0.537563
C46	C	0.825354	-0.151203	0.576637
N47	N	0.827483	-0.250648	0.537587
N48	N	0.827474	-0.250652	0.462300
C49	C	0.825337	-0.151217	0.423802
C50	C	0.867880	-0.220009	0.702194
C51	C	0.867879	-0.220012	0.781443
C52	C	0.782851	-0.082380	0.781422
C53	C	0.782847	-0.082388	0.702174
C54	C	0.825366	-0.151200	0.662565
H55	H	0.599050	-0.345790	0.000183
H56	H	0.022850	-0.331985	0.000277
H57	H	0.902454	-0.276086	0.186763
H58	H	0.902461	-0.276081	0.330527
Cl59	Cl	0.447277	-0.388045	0.000204
Cl60	Cl	0.921327	-0.306518	0.652395
Cl61	Cl	0.039016	0.089535	0.000270
Cl62	Cl	0.483087	0.078891	0.000185
H63	H	0.183760	0.040172	0.000248
Cl64	Cl	0.729366	0.004078	0.348040
H65	H	0.627836	0.029537	0.000151
Cl66	Cl	0.729341	0.004057	0.169171
H67	H	0.902501	-0.276043	0.813706
Cl68	Cl	0.729409	0.004126	0.831219
H69	H	0.748228	-0.026359	0.669910
H70	H	0.154978	-0.335153	0.000257
