data_functionalizedCrystal
_audit_creation_method	'MofGen! by Chris Wilmer'
_symmetry_space_group_name_H-M	'P1'
_symmetry_Int_Tables_number	1
_symmetry_cell_setting	triclinic
loop_
_symmetry_equiv_pos_as_xyz
  x,y,z
_cell_length_a	6.817900
_cell_length_b	9.582889
_cell_length_c	16.305550
_cell_angle_alpha	93.101692
_cell_angle_beta	103.455250
_cell_angle_gamma	111.207298
loop_
_atom_site_label
_atom_site_type_symbol
_atom_site_fract_x
_atom_site_fract_y
_atom_site_fract_z
V1	V	-4.066503	-0.208318	-0.262876
O2	O	-4.012158	0.008711	-0.258031
O3	O	-4.057279	-0.411810	-0.260925
O4	O	-4.017400	-0.205684	-0.377595
O5	O	-4.052313	-0.198842	-0.140553
V6	V	-4.545146	-0.182291	-0.248264
O7	O	-4.338467	-0.265409	-0.294929
O8	O	-4.723380	-0.125200	-0.216211
O9	O	-4.331164	0.021200	-0.250215
O10	O	-4.716889	-0.399320	-0.253109
O11	O	-4.676734	-0.191768	-0.370586
O12	O	-4.371043	-0.184926	-0.133545
C13	C	-3.911833	-0.461399	-0.256739
C14	C	-3.985574	-0.627759	-0.255908
C15	C	-3.860962	-0.198463	-0.405562
C16	C	-3.902358	-0.197656	-0.499344
C17	C	-4.052840	-0.194528	-0.840092
C18	C	-3.814998	-0.185242	-0.799170
C19	C	-3.772086	-0.186701	-0.701674
C20	C	-3.978183	-0.196079	-0.671043
C21	C	-4.173778	-0.343877	-0.721559
C22	C	-4.215480	-0.343041	-0.819109
C23	C	-4.081056	-0.057197	-0.794351
C24	C	-4.032901	-0.056027	-0.696509
C25	C	-3.936003	-0.196961	-0.575504
C26	C	-4.095031	-0.193656	-0.935631
C27	C	-4.139953	0.070781	-0.254399
C28	C	-4.045451	0.237141	-0.255234
C29	C	-4.190824	-0.192151	-0.105574
C30	C	-4.128665	-0.192951	-0.011790
H31	H	-3.688226	-0.078474	-0.811613
O32	O	-3.596818	-0.059775	-0.660079
C33	C	-3.640055	0.069344	-0.680162
H34	H	-3.770907	0.039041	-0.743553
H35	H	-3.484069	0.162567	-0.685404
H36	H	-3.700148	0.110831	-0.627770
O37	O	-4.425887	-0.358698	-0.852623
C38	C	-4.535843	-0.490779	-0.913798
H39	H	-4.411677	-0.521683	-0.938805
H40	H	-4.654018	-0.469615	-0.968943
H41	H	-4.630745	-0.587841	-0.883115
H42	H	-4.254182	-0.062686	-0.821163
O43	O	-3.945993	0.076275	-0.810447
C44	C	-3.823926	0.047547	-0.863387
H45	H	-3.815687	-0.068129	-0.856615
H46	H	-3.651438	0.138674	-0.843745
H47	H	-3.905942	0.048869	-0.932607
H48	H	-3.788975	-0.283908	-0.830609
O49	O	-3.716242	-0.305945	-0.682205
C50	C	-3.888155	-0.441955	-0.726075
H51	H	-4.047929	-0.423439	-0.743050
H52	H	-3.902493	-0.533925	-0.683664
H53	H	-3.853056	-0.478482	-0.786983
H54	H	-4.199426	-0.447004	-0.849413
O55	O	-4.359095	-0.358260	-0.698862
C56	C	-4.314554	-0.234517	-0.636839
H57	H	-4.132443	-0.183769	-0.602779
H58	H	-4.411626	-0.274771	-0.588481
H59	H	-4.363575	-0.144951	-0.669101
H60	H	-4.179833	-0.054188	-0.675163
O61	O	-4.131513	-0.467837	-0.701263
C62	C	-4.102383	-0.471000	-0.612994
H63	H	-4.052402	-0.351656	-0.578506
H64	H	-3.969157	-0.515390	-0.587794
H65	H	-4.262028	-0.548510	-0.601305
H66	H	-3.890728	0.053292	-0.662212
