data_functionalizedCrystal
_audit_creation_method	'MofGen! by Chris Wilmer'
_symmetry_space_group_name_H-M	'P1'
_symmetry_Int_Tables_number	1
_symmetry_cell_setting	triclinic
loop_
_symmetry_equiv_pos_as_xyz
  x,y,z
_cell_length_a	19.288864
_cell_length_b	27.732048
_cell_length_c	18.366186
_cell_angle_alpha	89.988789
_cell_angle_beta	89.977106
_cell_angle_gamma	82.889449
loop_
_atom_site_label
_atom_site_type_symbol
_atom_site_fract_x
_atom_site_fract_y
_atom_site_fract_z
O1	O	0.920977	0.060300	-0.060791
O2	O	1.170977	0.310300	0.189209
O3	O	1.420977	0.560300	0.439209
O4	O	1.670977	0.810300	0.689209
O5	O	0.718665	0.068434	-0.060742
O6	O	0.968665	0.318434	0.189258
O7	O	1.218665	0.568434	0.439258
O8	O	1.468665	0.818434	0.689258
O9	O	0.826104	-0.006011	-0.060754
O10	O	1.076104	0.243989	0.189246
O11	O	1.326104	0.493989	0.439246
O12	O	1.576104	0.743989	0.689246
O13	O	0.813538	0.134745	-0.060779
O14	O	1.063538	0.384745	0.189221
O15	O	1.313538	0.634745	0.439221
O16	O	1.563538	0.884745	0.689221
O17	O	0.826086	-0.006014	0.060345
O18	O	1.076086	0.243986	0.310345
O19	O	1.326086	0.493986	0.560345
O20	O	1.576086	0.743986	0.810345
O21	O	0.718647	0.068430	0.060357
O22	O	0.968647	0.318430	0.310357
O23	O	1.218647	0.568430	0.560357
O24	O	1.468647	0.818430	0.810357
O25	O	0.920959	0.060296	0.060309
O26	O	1.170959	0.310296	0.310309
O27	O	1.420959	0.560296	0.560309
O28	O	1.670959	0.810296	0.810309
Zn29	Zn	0.819800	0.064363	0.079560
Zn30	Zn	1.069800	0.314363	0.329560
Zn31	Zn	1.319800	0.564363	0.579560
Zn32	Zn	1.569800	0.814363	0.829560
Zn33	Zn	0.819824	0.064368	-0.079994
Zn34	Zn	1.069824	0.314368	0.170006
Zn35	Zn	1.319824	0.564368	0.420006
Zn36	Zn	1.569824	0.814368	0.670006
O37	O	0.813520	0.134741	0.060321
O38	O	1.063520	0.384741	0.310321
O39	O	1.313520	0.634741	0.560321
O40	O	1.563520	0.884741	0.810321
C41	C	0.692781	0.068171	-0.000186
C42	C	0.942781	0.318171	0.249814
C43	C	1.192781	0.568171	0.499814
C44	C	1.442781	0.818171	0.749814
C45	C	0.615683	0.067385	-0.000167
C46	C	0.865683	0.317385	0.249833
C47	C	1.115683	0.567385	0.499833
C48	C	1.365683	0.817385	0.749833
C49	C	0.825831	-0.024020	-0.000202
C50	C	1.075831	0.225980	0.249798
C51	C	1.325831	0.475980	0.499798
C52	C	1.575831	0.725980	0.749798
C53	C	0.825037	-0.077678	-0.000196
C54	C	1.075037	0.172322	0.249804
C55	C	1.325037	0.422322	0.499804
C56	C	1.575037	0.672322	0.749804
C57	C	0.570714	0.111066	-0.000186
C58	C	0.820714	0.361066	0.249814
C59	C	1.070714	0.611066	0.499814
C60	C	1.320714	0.861066	0.749814
C61	C	0.498271	0.110328	-0.000194
C62	C	0.748271	0.360328	0.249806
C63	C	0.998271	0.610328	0.499806
C64	C	1.248271	0.860328	0.749806
C65	C	0.470801	0.065906	-0.000197
C66	C	0.720801	0.315906	0.249803
C67	C	0.970801	0.565906	0.499803
C68	C	1.220801	0.815906	0.749803
C69	C	0.515780	0.022219	-0.000174
C70	C	0.765780	0.272219	0.249826
C71	C	1.015780	0.522219	0.499826
C72	C	1.265780	0.772219	0.749826
C73	C	0.588220	0.022959	-0.000159
C74	C	0.838220	0.272959	0.249841
C75	C	1.088220	0.522959	0.499841
C76	C	1.338220	0.772959	0.749841
C77	C	0.362763	0.030987	-0.042642
C78	C	0.612763	0.280987	0.207358
C79	C	0.862763	0.530987	0.457358
C80	C	1.112763	0.780987	0.707358
C81	C	0.290323	0.030250	-0.042662
C82	C	0.540323	0.280250	0.207338
C83	C	0.790323	0.530250	0.457338
C84	C	1.040323	0.780250	0.707338
C85	C	0.247370	0.063624	-0.000241
C86	C	0.497370	0.313624	0.249759
C87	C	0.747370	0.563624	0.499759
C88	C	0.997370	0.813624	0.749759
C89	C	0.276863	0.097744	0.042190
C90	C	0.526863	0.347744	0.292190
C91	C	0.776863	0.597744	0.542190
C92	C	1.026863	0.847744	0.792190
C93	C	0.349304	0.098483	0.042206
C94	C	0.599304	0.348483	0.292206
C95	C	0.849304	0.598483	0.542206
C96	C	1.099304	0.848483	0.792206
C97	C	0.392252	0.065099	-0.000213
C98	C	0.642252	0.315099	0.249787
C99	C	0.892252	0.565099	0.499787
C100	C	1.142252	0.815099	0.749787
C101	C	0.123850	0.106507	-0.000268
C102	C	0.373850	0.356507	0.249732
C103	C	0.623850	0.606507	0.499732
C104	C	0.873850	0.856507	0.749732
C105	C	0.051406	0.105767	-0.000271
C106	C	0.301406	0.355767	0.249729
C107	C	0.551406	0.605767	0.499729
C108	C	0.801406	0.855767	0.749729
C109	C	0.068916	0.017658	-0.000258
C110	C	0.318916	0.267658	0.249742
C111	C	0.568916	0.517658	0.499742
C112	C	0.818916	0.767658	0.749742
C113	C	0.141358	0.018399	-0.000248
C114	C	0.391358	0.268399	0.249752
C115	C	0.641358	0.518399	0.499752
C116	C	0.891358	0.768399	0.749752
C117	C	0.168820	0.062825	-0.000256
C118	C	0.418820	0.312825	0.249744
C119	C	0.668820	0.562825	0.499744
C120	C	0.918820	0.812825	0.749744
C121	C	0.883526	-0.416316	-0.000248
C122	C	1.133526	-0.166316	0.249752
C123	C	1.383526	0.083684	0.499752
C124	C	1.633526	0.333684	0.749752
C125	C	0.880579	-0.617985	-0.000257
C126	C	1.130579	-0.367985	0.249743
C127	C	1.380579	-0.117985	0.499743
C128	C	1.630579	0.132015	0.749743
O129	O	0.934063	-0.649079	-0.000302
O130	O	1.184063	-0.399079	0.249698
O131	O	1.434063	-0.149079	0.499698
O132	O	1.684063	0.100921	0.749698
N133	N	0.816872	-0.637301	-0.000241
N134	N	1.066872	-0.387301	0.249759
N135	N	1.316872	-0.137301	0.499759
N136	N	1.566872	0.112699	0.749759
C137	C	0.753897	-0.606196	-0.000227
C138	C	1.003897	-0.356196	0.249773
C139	C	1.253897	-0.106196	0.499773
C140	C	1.503897	0.143804	0.749773
O141	O	0.699643	-0.627253	-0.000222
O142	O	0.949643	-0.377253	0.249778
O143	O	1.199643	-0.127253	0.499778
O144	O	1.449643	0.122747	0.749778
C145	C	0.756845	-0.404529	-0.000223
C146	C	1.006845	-0.154529	0.249777
C147	C	1.256845	0.095471	0.499777
C148	C	1.506845	0.345471	0.749777
C149	C	0.820556	-0.385216	-0.000232
C150	C	1.070556	-0.135216	0.249768
C151	C	1.320556	0.114784	0.499768
C152	C	1.570556	0.364784	0.749768
C153	C	0.947232	-0.397002	-0.000257
C154	C	1.197232	-0.147002	0.249743
C155	C	1.447232	0.102998	0.499743
C156	C	1.697232	0.352998	0.749743
C157	C	0.947968	-0.346588	-0.000251
C158	C	1.197968	-0.096588	0.249749
C159	C	1.447968	0.153412	0.499749
C160	C	1.697968	0.403412	0.749749
C161	C	0.884998	-0.315488	-0.000235
C162	C	1.134998	-0.065488	0.249765
C163	C	1.384998	0.184512	0.499765
C164	C	1.634998	0.434512	0.749765
C165	C	0.821292	-0.334801	-0.000226
C166	C	1.071292	-0.084801	0.249774
C167	C	1.321292	0.165199	0.499774
C168	C	1.571292	0.415199	0.749774
C169	C	0.693871	-0.373425	-0.000215
C170	C	0.943871	-0.123425	0.249785
C171	C	1.193871	0.126575	0.499785
C172	C	1.443871	0.376575	0.749785
C173	C	0.694614	-0.323006	-0.000216
C174	C	0.944614	-0.073006	0.249784
C175	C	1.194614	0.176994	0.499784
C176	C	1.444614	0.426994	0.749784
C177	C	0.758325	-0.303693	-0.000224
C178	C	1.008325	-0.053693	0.249776
C179	C	1.258325	0.196307	0.499776
C180	C	1.508325	0.446307	0.749776
C181	C	0.759059	-0.253287	-0.000203
C182	C	1.009059	-0.003287	0.249797
C183	C	1.259059	0.246713	0.499797
C184	C	1.509059	0.496713	0.749797
N185	N	0.822766	-0.233971	-0.000219
N186	N	1.072766	0.016029	0.249781
N187	N	1.322766	0.266029	0.499781
N188	N	1.572766	0.516029	0.749781
C189	C	0.885735	-0.265071	-0.000235
C190	C	1.135735	-0.015071	0.249765
C191	C	1.385735	0.234929	0.499765
C192	C	1.635735	0.484929	0.749765
C193	C	0.752354	-0.712075	-0.000228
C194	C	1.002354	-0.462075	0.249772
C195	C	1.252354	-0.212075	0.499772
C196	C	1.502354	0.037925	0.749772
C197	C	0.751617	-0.762492	-0.000228
C198	C	1.001617	-0.512492	0.249772
C199	C	1.251617	-0.262492	0.499772
C200	C	1.501617	-0.012492	0.749772
C201	C	0.878299	-0.774276	-0.000259
C202	C	1.128299	-0.524276	0.249741
C203	C	1.378299	-0.274276	0.499741
C204	C	1.628299	-0.024276	0.749741
C205	C	0.879035	-0.723859	-0.000254
C206	C	1.129035	-0.473859	0.249746
C207	C	1.379035	-0.223859	0.499746
C208	C	1.629035	0.026141	0.749746
C209	C	0.816061	-0.692759	-0.000244
C210	C	1.066061	-0.442759	0.249756
C211	C	1.316061	-0.192759	0.499756
C212	C	1.566061	0.057241	0.749756
C213	C	0.887276	-0.159197	-0.000221
C214	C	1.137276	0.090803	0.249779
C215	C	1.387276	0.340803	0.499779
C216	C	1.637276	0.590803	0.749779
C217	C	0.888007	-0.108778	-0.000212
C218	C	1.138007	0.141222	0.249788
C219	C	1.388007	0.391222	0.499788
C220	C	1.638007	0.641222	0.749788
C221	C	0.761325	-0.096998	-0.000185
C222	C	1.011325	0.153002	0.249815
C223	C	1.261325	0.403002	0.499815
C224	C	1.511325	0.653002	0.749815
C225	C	0.760595	-0.147412	-0.000190
C226	C	1.010595	0.102588	0.249810
C227	C	1.260595	0.352588	0.499810
C228	C	1.510595	0.602588	0.749810
C229	C	0.823576	-0.178511	-0.000211
C230	C	1.073576	0.071489	0.249789
C231	C	1.323576	0.321489	0.499789
C232	C	1.573576	0.571489	0.749789
O233	O	0.705603	-0.222164	-0.000167
O234	O	0.955603	0.027836	0.249833
O235	O	1.205603	0.277836	0.499833
O236	O	1.455603	0.527836	0.749833
O237	O	0.939982	-0.244005	-0.000257
O238	O	1.189982	0.005995	0.249743
O239	O	1.439982	0.255995	0.499743
O240	O	1.689982	0.505995	0.749743
C241	C	0.882790	-0.466730	-0.000254
C242	C	1.132790	-0.216730	0.249746
C243	C	1.382790	0.033270	0.499746
C244	C	1.632790	0.283270	0.749746
C245	C	0.819084	-0.486044	-0.000245
C246	C	1.069084	-0.236044	0.249755
C247	C	1.319084	0.013956	0.499755
C248	C	1.569084	0.263956	0.749755
C249	C	0.756114	-0.454943	-0.000229
C250	C	1.006114	-0.204943	0.249771
C251	C	1.256114	0.045057	0.499771
C252	C	1.506114	0.295057	0.749771
C253	C	0.818347	-0.536461	-0.000244
C254	C	1.068347	-0.286461	0.249756
C255	C	1.318347	-0.036461	0.499756
C256	C	1.568347	0.213539	0.749756
C257	C	0.881317	-0.567561	-0.000260
C258	C	1.131317	-0.317561	0.249740
C259	C	1.381317	-0.067561	0.499740
C260	C	1.631317	0.182439	0.749740
C261	C	0.945023	-0.548245	-0.000276
C262	C	1.195023	-0.298245	0.249724
C263	C	1.445023	-0.048245	0.499724
C264	C	1.695023	0.201755	0.749724
C265	C	0.945760	-0.497831	-0.000270
C266	C	1.195760	-0.247831	0.249730
C267	C	1.445760	0.002169	0.499730
C268	C	1.695760	0.252169	0.749730
C269	C	0.692407	-0.474260	-0.000213
C270	C	0.942407	-0.224260	0.249787
C271	C	1.192407	0.025740	0.499787
C272	C	1.442407	0.275740	0.749787
C273	C	0.691676	-0.524674	-0.000218
C274	C	0.941676	-0.274674	0.249782
C275	C	1.191676	-0.024674	0.499782
C276	C	1.441676	0.225326	0.749782
C277	C	0.754646	-0.555775	-0.000234
C278	C	1.004646	-0.305775	0.249766
C279	C	1.254646	-0.055775	0.499766
C280	C	1.504646	0.194225	0.749766
C281	C	0.946842	0.060560	-0.000249
C282	C	1.196842	0.310560	0.249751
C283	C	1.446842	0.560560	0.499751
C284	C	1.696842	0.810560	0.749751
C285	C	1.023941	0.061345	-0.000273
C286	C	1.273941	0.311345	0.249727
C287	C	1.523941	0.561345	0.499727
C288	C	1.773941	0.811345	0.749727
C289	C	0.813792	0.152751	-0.000233
C290	C	1.063792	0.402751	0.249767
C291	C	1.313792	0.652751	0.499767
C292	C	1.563792	0.902751	0.749767
C293	C	0.814587	0.206408	-0.000244
C294	C	1.064587	0.456408	0.249756
C295	C	1.314587	0.706408	0.499756
C296	C	1.564587	0.956408	0.749756
N297	N	0.819789	0.064359	0.188451
N298	N	1.069789	0.314359	0.438451
N299	N	1.319789	0.564359	0.688451
N300	N	1.569789	0.814359	0.938451
N301	N	0.819841	0.064367	-0.188885
N302	N	1.069841	0.314367	0.061115
N303	N	1.319841	0.564367	0.311115
N304	N	1.569841	0.814367	0.561115
C305	C	0.867378	0.031411	0.226546
C306	C	1.117378	0.281411	0.476546
C307	C	1.367378	0.531411	0.726546
C308	C	1.617378	0.781411	0.976546
C309	C	0.867383	0.031409	0.302774
C310	C	1.117383	0.281409	0.552774
C311	C	1.367383	0.531409	0.802774
C312	C	1.617383	0.781409	1.052774
C313	C	0.819804	0.064363	0.340904
C314	C	1.069804	0.314363	0.590904
C315	C	1.319804	0.564363	0.840904
C316	C	1.569804	0.814363	1.090904
C317	C	0.772206	0.097314	0.302800
C318	C	1.022206	0.347314	0.552800
C319	C	1.272206	0.597314	0.802800
C320	C	1.522206	0.847314	1.052800
C321	C	0.772198	0.097312	0.226573
C322	C	1.022198	0.347312	0.476573
C323	C	1.272198	0.597312	0.726573
C324	C	1.522198	0.847312	0.976573
C325	C	0.810231	0.108406	0.461658
C326	C	1.060231	0.358406	0.711658
C327	C	1.310231	0.608406	0.961658
C328	C	1.560231	0.858406	1.211658
C329	C	0.810244	0.108409	0.537883
C330	C	1.060244	0.358409	0.787883
C331	C	1.310244	0.608409	1.037883
C332	C	1.560244	0.858409	1.287883
C333	C	0.819824	0.064369	0.576011
C334	C	1.069824	0.314369	0.826011
C335	C	1.319824	0.564369	1.076011
C336	C	1.569824	0.814369	1.326011
C337	C	0.829406	0.020325	0.537906
C338	C	1.079406	0.270325	0.787906
C339	C	1.329406	0.520325	1.037906
C340	C	1.579406	0.770325	1.287906
C341	C	0.829398	0.020323	0.461679
C342	C	1.079398	0.270323	0.711679
C343	C	1.329398	0.520323	0.961679
C344	C	1.579398	0.770323	1.211679
C345	C	0.819807	0.064369	0.423559
C346	C	1.069807	0.314369	0.673559
C347	C	1.319807	0.564369	0.923559
C348	C	1.569807	0.814369	1.173559
C349	C	0.867421	0.031416	0.696761
C350	C	1.117421	0.281416	0.946761
C351	C	1.367421	0.531416	1.196761
C352	C	1.617421	0.781416	1.446761
C353	C	0.867420	0.031413	0.772991
C354	C	1.117420	0.281413	1.022991
C355	C	1.367420	0.531413	1.272991
C356	C	1.617420	0.781413	1.522991
C357	C	0.772247	0.097322	0.773015
C358	C	1.022247	0.347322	1.023015
C359	C	1.272247	0.597322	1.273015
C360	C	1.522247	0.847322	1.523015
C361	C	0.772244	0.097321	0.696787
C362	C	1.022244	0.347321	0.946787
C363	C	1.272244	0.597321	1.196787
C364	C	1.522244	0.847321	1.446787
C365	C	0.819835	0.064368	0.658665
C366	C	1.069835	0.314368	0.908665
C367	C	1.319835	0.564368	1.158665
C368	C	1.569835	0.814368	1.408665
H369	H	0.593069	0.147241	-0.000194
H370	H	0.843069	0.397241	0.249806
H371	H	1.093069	0.647241	0.499806
H372	H	1.343069	0.897241	0.749806
H373	H	0.802446	0.144272	0.568903
H374	H	1.052446	0.394272	0.818903
H375	H	1.302446	0.644272	1.068903
H376	H	1.552446	0.894272	1.318903
H377	H	0.906127	0.004578	0.195509
H378	H	1.156127	0.254578	0.445509
H379	H	1.406127	0.504578	0.695509
H380	H	1.656127	0.754578	0.945509
Cl381	Cl	0.841456	-0.035042	0.585830
Cl382	Cl	1.091456	0.214958	0.835830
Cl383	Cl	1.341456	0.464958	1.085830
Cl384	Cl	1.591456	0.714958	1.335830
Cl385	Cl	0.386380	0.141372	0.095548
Cl386	Cl	0.636380	0.391372	0.345548
Cl387	Cl	0.886380	0.641372	0.595548
Cl388	Cl	1.136380	0.891372	0.845548
H389	H	0.461651	0.145899	-0.000207
H390	H	0.711651	0.395899	0.249793
H391	H	0.961651	0.645899	0.499793
H392	H	1.211651	0.895899	0.749793
H393	H	0.906137	0.004578	0.333797
H394	H	1.156137	0.254578	0.583797
H395	H	1.406137	0.504578	0.833797
H396	H	1.656137	0.754578	1.083797
H397	H	0.733466	0.124145	0.333849
H398	H	0.983466	0.374145	0.583849
H399	H	1.233466	0.624145	0.833849
H400	H	1.483466	0.874145	1.083849
Cl401	Cl	0.682168	-0.057891	-0.000167
Cl402	Cl	0.932168	0.192109	0.249833
Cl403	Cl	1.182168	0.442109	0.499833
Cl404	Cl	1.432168	0.692109	0.749833
Cl405	Cl	0.416755	-0.010973	-0.095976
Cl406	Cl	0.666755	0.239027	0.154024
Cl407	Cl	0.916755	0.489027	0.404024
Cl408	Cl	1.166755	0.739027	0.654024
Cl409	Cl	0.712429	0.138747	0.820944
Cl410	Cl	0.962429	0.388747	1.070944
Cl411	Cl	1.212429	0.638747	1.320944
Cl412	Cl	1.462429	0.888747	1.570944
Cl413	Cl	0.671520	-0.786765	-0.000203
Cl414	Cl	0.921520	-0.536765	0.249797
Cl415	Cl	1.171520	-0.286765	0.499797
Cl416	Cl	1.421520	-0.036765	0.749797
H417	H	0.929571	-0.799607	-0.000271
H418	H	1.179571	-0.549607	0.249729
H419	H	1.429571	-0.299607	0.499729
H420	H	1.679571	-0.049607	0.749729
H421	H	0.241891	0.124920	0.076734
H422	H	0.491891	0.374920	0.326734
H423	H	0.741891	0.624920	0.576734
H424	H	0.991891	0.874920	0.826734
H425	H	0.733495	0.124152	0.665768
H426	H	0.983495	0.374152	0.915768
H427	H	1.233495	0.624152	1.165768
H428	H	1.483495	0.874152	1.415768
H429	H	0.802418	0.144270	0.430620
H430	H	1.052418	0.394270	0.680620
H431	H	1.302418	0.644270	0.930620
H432	H	1.552418	0.894270	1.180620
Cl433	Cl	0.712368	0.138736	0.178679
Cl434	Cl	0.962368	0.388736	0.428679
Cl435	Cl	1.212368	0.638736	0.678679
Cl436	Cl	1.462368	0.888736	0.928679
Cl437	Cl	0.158377	0.162356	-0.000270
Cl438	Cl	0.408377	0.412356	0.249730
Cl439	Cl	0.658377	0.662356	0.499730
Cl440	Cl	0.908377	0.912356	0.749730
H441	H	0.177973	-0.017171	-0.000236
H442	H	0.427973	0.232829	0.249764
H443	H	0.677973	0.482829	0.499764
H444	H	0.927973	0.732829	0.749764
Cl445	Cl	-0.005128	0.160686	-0.000291
Cl446	Cl	0.244872	0.410686	0.249709
Cl447	Cl	0.494872	0.660686	0.499709
Cl448	Cl	0.744872	0.910686	0.749709
H449	H	0.998512	-0.422320	-0.000273
H450	H	1.248512	-0.172320	0.249727
H451	H	1.498512	0.077680	0.499727
H452	H	1.748512	0.327680	0.749727
Cl453	Cl	0.481246	-0.033625	-0.000174
Cl454	Cl	0.731246	0.216375	0.249826
Cl455	Cl	0.981246	0.466375	0.499826
Cl456	Cl	1.231246	0.716375	0.749826
H457	H	0.266315	0.002469	-0.077215
H458	H	0.516315	0.252469	0.172785
H459	H	0.766315	0.502469	0.422785
H460	H	1.016315	0.752469	0.672785
Cl461	Cl	1.025858	-0.473559	-0.000287
Cl462	Cl	1.275858	-0.223559	0.249713
Cl463	Cl	1.525858	0.026441	0.499713
Cl464	Cl	1.775858	0.276441	0.749713
H465	H	0.046551	-0.018511	-0.000306
H466	H	0.296551	0.231489	0.249694
H467	H	0.546551	0.481489	0.499694
H468	H	0.796551	0.731489	0.749694
Cl469	Cl	0.968107	-0.084502	-0.000224
Cl470	Cl	1.218107	0.165498	0.249776
Cl471	Cl	1.468107	0.415498	0.499776
Cl472	Cl	1.718107	0.665498	0.749776
H473	H	0.708716	-0.163138	-0.000163
H474	H	0.958716	0.086862	0.249837
H475	H	1.208716	0.336862	0.499837
H476	H	1.458716	0.586862	0.749837
Cl477	Cl	1.024185	-0.587352	-0.000293
Cl478	Cl	1.274185	-0.337352	0.249707
Cl479	Cl	1.524185	-0.087352	0.499707
Cl480	Cl	1.774185	0.162648	0.749707
H481	H	0.641991	-0.389141	-0.000212
H482	H	0.891991	-0.139141	0.249788
H483	H	1.141991	0.110859	0.499788
H484	H	1.391991	0.360859	0.749788
Cl485	Cl	0.966454	-0.198285	-0.000246
Cl486	Cl	1.216454	0.051715	0.249754
Cl487	Cl	1.466454	0.301715	0.499754
Cl488	Cl	1.716454	0.551715	0.749754
Cl489	Cl	0.841436	-0.035043	0.413777
Cl490	Cl	1.091436	0.214957	0.663777
Cl491	Cl	1.341436	0.464957	0.913777
Cl492	Cl	1.591436	0.714957	1.163777
H493	H	0.643331	-0.297686	-0.000209
H494	H	0.893331	-0.047686	0.249791
H495	H	1.143331	0.202314	0.499791
H496	H	1.393331	0.452314	0.749791
Cl497	Cl	0.611574	-0.548947	-0.000204
Cl498	Cl	0.861574	-0.298947	0.249796
Cl499	Cl	1.111574	-0.048947	0.499796
Cl500	Cl	1.361574	0.201053	0.749796
Cl501	Cl	0.927248	-0.010013	0.820885
Cl502	Cl	1.177248	0.239987	1.070885
Cl503	Cl	1.427248	0.489987	1.320885
Cl504	Cl	1.677248	0.739987	1.570885
Cl505	Cl	1.028066	-0.322317	-0.000282
Cl506	Cl	1.278066	-0.072317	0.249718
Cl507	Cl	1.528066	0.177683	0.499718
Cl508	Cl	1.778066	0.427683	0.749718
H509	H	0.701070	-0.686757	-0.000220
H510	H	0.951070	-0.436757	0.249780
H511	H	1.201070	-0.186757	0.499780
H512	H	1.451070	0.063243	0.749780
H513	H	0.624835	-0.012613	-0.000144
H514	H	0.874835	0.237387	0.249856
H515	H	1.124835	0.487387	0.499856
H516	H	1.374835	0.737387	0.749856
Cl517	Cl	0.959132	-0.699585	-0.000266
Cl518	Cl	1.209132	-0.449585	0.249734
Cl519	Cl	1.459132	-0.199585	0.499734
Cl520	Cl	1.709132	0.050415	0.749734
H521	H	0.641128	-0.448942	-0.000201
H522	H	0.891128	-0.198942	0.249799
H523	H	1.141128	0.051058	0.499799
H524	H	1.391128	0.301058	0.749799
Cl525	Cl	0.927245	-0.010012	0.648835
Cl526	Cl	1.177245	0.239988	0.898835
Cl527	Cl	1.427245	0.489988	1.148835
Cl528	Cl	1.677245	0.739988	1.398835
