data_functionalizedCrystal
_audit_creation_method	'MofGen! by Chris Wilmer'
_symmetry_space_group_name_H-M	'P1'
_symmetry_Int_Tables_number	1
_symmetry_cell_setting	triclinic
loop_
_symmetry_equiv_pos_as_xyz
  x,y,z
_cell_length_a	27.440280
_cell_length_b	27.440280
_cell_length_c	17.052862
_cell_angle_alpha	70.256841
_cell_angle_beta	89.995587
_cell_angle_gamma	59.994730
loop_
_atom_site_label
_atom_site_type_symbol
_atom_site_fract_x
_atom_site_fract_y
_atom_site_fract_z
Zr1	Zr	0.478044	0.516300	-0.091390
O2	O	0.410631	0.597169	-0.202429
O3	O	0.498711	0.421004	-0.057334
O4	O	0.512307	0.495484	-0.202411
O5	O	0.386309	0.544141	0.057068
O6	O	0.592509	0.495475	-0.202415
O7	O	0.397035	0.522689	-0.057352
O8	O	0.568188	0.362244	0.057100
O9	O	0.410630	0.677372	-0.202447
O10	O	0.567378	0.465538	-0.042833
O11	O	0.499519	0.481553	0.042561
O12	O	0.515526	0.569244	-0.128247
O13	O	0.447667	0.585259	-0.042854
Zr14	Zr	0.588850	0.550499	0.091091
Zr15	Zr	0.605957	0.516287	-0.091396
Zr16	Zr	0.460937	0.550513	0.091098
Zr17	Zr	0.478042	0.644214	-0.091419
Zr18	Zr	0.588852	0.422586	0.091120
O19	O	0.568184	0.645796	0.057036
O20	O	0.592507	0.597150	-0.202438
O21	O	0.386307	0.645815	0.057045
O22	O	0.656263	0.469631	0.202130
O23	O	0.680587	0.420985	-0.057344
O24	O	0.474387	0.469650	0.202140
O25	O	0.680586	0.522659	-0.057367
O26	O	0.554587	0.571316	0.202112
O27	O	0.474385	0.571325	0.202116
O28	O	0.669859	0.544111	0.057054
O29	O	0.512304	0.677361	-0.202452
O30	O	0.554590	0.389439	0.202154
O31	O	0.656265	0.389428	0.202148
O32	O	0.669862	0.362234	0.057095
O33	O	0.397032	0.704566	-0.057394
O34	O	0.498706	0.704556	-0.057399
O35	O	0.551368	0.497556	0.127949
O36	O	0.619227	0.481541	0.042555
O37	O	0.567376	0.585247	-0.042860
O38	O	0.499517	0.601262	0.042534
C39	C	0.533450	0.373399	-0.000113
C40	C	0.533451	0.319096	-0.000100
C41	C	0.495173	0.014769	-0.063217
C42	C	0.495173	-0.036249	-0.063226
O43	O	0.462635	-0.035109	-0.116861
N44	N	0.533448	-0.094138	-0.000183
C45	C	0.571729	-0.101009	0.062869
O46	O	0.604286	-0.154933	0.116490
C47	C	0.571731	-0.049992	0.062873
C48	C	0.533450	0.007898	-0.000169
C49	C	0.456895	0.072656	-0.126254
C50	C	0.456894	0.123671	-0.126244
C51	C	0.495171	0.116800	-0.063197
C52	C	0.533449	0.058913	-0.000159
C53	C	0.610014	-0.056864	0.125920
C54	C	0.610013	-0.005840	0.125919
C55	C	0.571732	0.052050	0.062877
C56	C	0.571724	0.103057	0.062899
N57	N	0.533449	0.160946	-0.000144
C58	C	0.495173	0.167817	-0.063192
C59	C	0.571723	-0.208147	0.062853
C60	C	0.571719	-0.259163	0.062853
C61	C	0.495163	-0.194400	-0.063243
C62	C	0.495165	-0.143383	-0.063238
C63	C	0.533448	-0.150258	-0.000190
C64	C	0.495173	0.274951	-0.063166
C65	C	0.495174	0.325968	-0.063148
C66	C	0.571731	0.261200	0.062944
C67	C	0.571728	0.210187	0.062930
C68	C	0.533447	0.217067	-0.000133
O69	O	0.604247	0.101962	0.116505
O70	O	0.462627	0.221742	-0.116811
C71	C	0.373447	0.533417	-0.000141
C72	C	0.319144	0.533423	-0.000138
C73	C	-0.011643	0.521567	-0.063186
C74	C	-0.062661	0.521562	-0.063186
O75	O	-0.084012	0.511488	-0.116777
N76	N	-0.094088	0.533380	-0.000152
C77	C	-0.074492	0.545199	0.062892
O78	O	-0.105907	0.555251	0.116508
C79	C	-0.023473	0.545200	0.062895
C80	C	0.007949	0.533386	-0.000148
C81	C	0.019778	0.509753	-0.126223
C82	C	0.070792	0.509759	-0.126224
C83	C	0.090384	0.521579	-0.063186
C84	C	0.058963	0.533392	-0.000148
C85	C	-0.003875	0.557014	0.125942
C86	C	0.047148	0.557013	0.125940
C87	C	0.078570	0.545199	0.062897
C88	C	0.129569	0.545218	0.062889
N89	N	0.160996	0.533399	-0.000145
C90	C	0.141403	0.521579	-0.063183
C91	C	-0.181634	0.545196	0.062881
C92	C	-0.232655	0.545200	0.062875
C93	C	-0.220820	0.521561	-0.063202
C94	C	-0.169801	0.521562	-0.063199
C95	C	-0.150208	0.533377	-0.000153
C96	C	0.248535	0.521594	-0.063179
C97	C	0.299552	0.521603	-0.063176
C98	C	0.287714	0.545239	0.062904
C99	C	0.236701	0.545232	0.062898
C100	C	0.217114	0.533407	-0.000147
O101	O	0.150956	0.555283	0.116455
O102	O	0.172828	0.511521	-0.116783
C103	C	0.693447	0.533383	-0.000157
C104	C	0.747750	0.533377	-0.000160
C105	C	0.554845	0.490605	-0.228413
C106	C	0.562108	0.476081	-0.305884
C107	C	0.533444	0.693401	-0.000186
C108	C	0.533444	0.747703	-0.000198
C109	C	0.474307	0.651679	-0.702609
C110	C	0.467480	0.665327	-0.629823
C111	C	0.491136	0.618017	-0.548835
C112	C	0.521620	0.557056	-0.540639
C113	C	0.528444	0.543406	-0.613433
C114	C	0.545274	0.509744	-0.459659
C115	C	0.575758	0.448783	-0.451463
C116	C	0.582581	0.435136	-0.524250
C117	C	0.558924	0.482447	-0.605238
C118	C	0.538450	0.523394	-0.386866
C119	C	0.592588	0.415121	-0.297690
C120	C	0.599414	0.401473	-0.370476
C121	C	0.512049	0.576195	0.228115
C122	C	0.504787	0.590719	0.305586
C123	C	0.693450	0.373382	-0.000121
C124	C	0.747754	0.319073	-0.000111
C125	C	0.512052	0.416194	0.228151
C126	C	0.504790	0.376416	0.305635
C127	C	0.672052	0.416177	0.228143
C128	C	0.719093	0.376393	0.305623
C129	C	0.394842	0.650623	-0.228442
C130	C	0.347801	0.690407	-0.305922
C131	C	0.373444	0.693418	-0.000177
C132	C	0.319141	0.747726	-0.000187
C133	C	0.554843	0.650606	-0.228450
C134	C	0.562104	0.690384	-0.305933
C135	C	0.746191	0.285215	-0.044686
C136	C	0.797212	0.234190	-0.044694
C137	C	0.849794	0.217022	-0.000122
C138	C	0.851355	0.250886	0.044454
C139	C	0.800336	0.301912	0.044456
C140	C	0.528444	0.366090	0.386601
C141	C	0.521618	0.328722	0.459411
C142	C	0.491142	0.301677	0.451254
C143	C	0.467485	0.312006	0.370279
C144	C	0.474307	0.349377	0.297471
C145	C	0.776611	0.349349	0.297434
C146	C	0.820817	0.311974	0.370228
C147	C	0.807503	0.301638	0.451211
C148	C	0.749979	0.328686	0.459398
C149	C	0.705775	0.366064	0.386605
C150	C	0.290283	0.717457	-0.297733
C151	C	0.246077	0.754848	-0.370527
C152	C	0.259391	0.765187	-0.451509
C153	C	0.316915	0.738135	-0.459697
C154	C	0.361119	0.700748	-0.386903
C155	C	0.320704	0.781589	0.044380
C156	C	0.269685	0.832624	0.044368
C157	C	0.217103	0.849793	-0.000207
C158	C	0.215542	0.815928	-0.044779
C159	C	0.266560	0.764896	-0.044772
C160	C	0.592584	0.717418	-0.297748
C161	C	0.599418	0.754789	-0.370545
C162	C	0.575768	0.765129	-0.451525
C163	C	0.545287	0.738090	-0.459708
C164	C	0.538457	0.700717	-0.386913
H165	H	0.463989	-0.096249	-0.114568
Br166	Br	0.640784	0.791480	-0.359420
H167	H	0.801615	0.329475	0.080759
H168	H	0.581333	0.795562	-0.510794
H169	H	0.894174	0.236900	0.080743
Br170	Br	0.623940	0.352404	-0.513127
H171	H	-0.029452	0.566633	0.177278
Br172	Br	0.553730	0.314712	0.569294
H173	H	-0.144220	0.511942	-0.114534
Br174	Br	0.264428	0.718943	-0.105257
H175	H	0.172722	0.829915	-0.081070
Br176	Br	0.443220	0.284295	-0.148752
Br177	Br	0.674837	0.308503	-0.105187
Br178	Br	0.569811	0.402783	0.397695
H179	H	0.624234	0.351838	-0.363814
H180	H	0.526033	0.746515	-0.525652
H181	H	0.485591	0.271249	0.510547
H182	H	0.442670	0.289981	0.363650
Br183	Br	0.497083	0.664037	-0.398036
Br184	Br	0.334974	0.752171	-0.569608
Br185	Br	0.627715	0.402760	0.397734
H186	H	0.611849	0.376597	-0.231746
H187	H	0.407953	0.678723	-0.393581
H188	H	0.463996	0.373105	-0.114484
Br189	Br	0.919030	0.147770	-0.000134
H190	H	0.223391	0.795631	-0.510775
Br191	Br	0.271818	0.878573	0.104866
H192	H	0.363513	0.767616	0.080684
Br193	Br	0.113432	0.493722	-0.211782
H194	H	0.602885	-0.306295	0.114196
H195	H	0.455046	0.357777	0.231547
H196	H	0.787462	0.357758	0.231501
H197	H	0.867652	0.289954	0.363547
H198	H	0.843503	0.271201	0.510477
Br199	Br	0.731921	0.314653	0.569310
H200	H	0.425726	0.170803	-0.177587
Br201	Br	0.661975	-0.015177	0.211485
Br202	Br	0.147868	0.919053	-0.000208
Br203	Br	0.272199	0.703434	-0.187837
Br204	Br	0.168015	0.791552	-0.359395
Br205	Br	0.623677	0.131623	0.148494
Br206	Br	0.661969	-0.135417	0.211486
Br207	Br	-0.006801	0.493709	-0.211784
H208	H	0.611844	0.709007	-0.231817
H209	H	0.425725	0.078261	-0.177600
H210	H	0.463998	-0.188813	-0.114582
H211	H	0.063099	0.566633	0.177282
H212	H	0.602896	-0.213753	0.114202
H213	H	0.602894	0.255616	0.114278
Br214	Br	0.221962	0.505544	-0.148741
Br215	Br	0.342192	0.505573	-0.148743
Br216	Br	-0.247421	0.505520	-0.148753
H217	H	0.795929	0.206623	-0.080993
Br218	Br	-0.275300	0.561248	0.148425
H219	H	0.211112	0.554861	0.114227
Br220	Br	0.314311	0.561281	0.148450
Br221	Br	-0.155051	0.561238	0.148447
H222	H	0.513629	0.573029	-0.393547
Br223	Br	0.481872	0.636540	-0.450053
H224	H	0.455046	0.690192	-0.768551
Br225	Br	0.426088	0.748056	-0.640947
H226	H	0.564482	0.471338	-0.664510
