data_functionalizedCrystal
_audit_creation_method	'MofGen! by Chris Wilmer'
_symmetry_space_group_name_H-M	'P1'
_symmetry_Int_Tables_number	1
_symmetry_cell_setting	triclinic
loop_
_symmetry_equiv_pos_as_xyz
  x,y,z
_cell_length_a	11.792254
_cell_length_b	19.188925
_cell_length_c	10.268362
_cell_angle_alpha	89.995070
_cell_angle_beta	89.995475
_cell_angle_gamma	83.670573
loop_
_atom_site_label
_atom_site_type_symbol
_atom_site_fract_x
_atom_site_fract_y
_atom_site_fract_z
O1	O	1.505464	0.095738	-0.108298
O2	O	1.174977	0.105591	-0.108301
O3	O	1.349761	-0.000937	-0.108292
O4	O	1.330680	0.202266	-0.108307
O5	O	1.349746	-0.000942	0.108309
O6	O	1.174962	0.105586	0.108300
O7	O	1.505449	0.095733	0.108303
Cu8	Cu	1.340204	0.100659	0.128079
Cu9	Cu	1.340222	0.100665	-0.128077
O10	O	1.330665	0.202261	0.108294
C11	C	1.132688	0.104968	-0.000001
C12	C	1.006703	0.103110	-0.000002
C13	C	0.904389	0.101601	-0.000007
C14	C	0.776031	0.099713	-0.000008
C15	C	1.349137	-0.026954	0.000007
C16	C	1.347285	-0.104470	0.000005
C17	C	1.437443	-0.665727	-0.000027
C18	C	1.439193	-0.592893	-0.000016
C19	C	1.336635	-0.548543	-0.000017
C20	C	1.232320	-0.577031	0.000004
C21	C	1.230573	-0.649863	0.000005
N22	N	1.262393	-0.428283	-0.073743
N23	N	1.264059	-0.359097	-0.073747
C24	C	1.341892	-0.329104	-0.000018
N25	N	1.418013	-0.370913	0.073699
N26	N	1.416350	-0.440106	0.073697
C27	C	1.338518	-0.469568	-0.000017
C28	C	1.448098	-0.221650	-0.000016
C29	C	1.449844	-0.148815	0.000004
C30	C	1.242968	-0.132954	0.000010
C31	C	1.241225	-0.205787	0.000003
C32	C	1.343794	-0.250131	-0.000016
C33	C	1.547738	0.096356	-0.000000
C34	C	1.673723	0.098214	-0.000008
C35	C	1.331290	0.228278	-0.000008
C36	C	1.333141	0.305793	-0.000014
N37	N	1.340200	0.100655	0.308244
N38	N	1.340235	0.100663	-0.308243
C39	C	1.340216	0.100663	0.573915
C40	C	1.340204	0.100661	0.426077
H41	H	1.148817	-0.540916	0.000007
C42	C	1.548922	-0.713754	0.000037
C43	C	1.640640	-0.673217	0.000065
C44	C	1.743351	-0.717437	0.000146
H45	H	1.552709	-0.742510	-0.075473
H46	H	1.552600	-0.742485	0.075604
H47	H	1.636964	-0.644498	-0.075495
H48	H	1.636891	-0.644462	0.075568
H49	H	1.747029	-0.746169	0.075714
H50	H	1.747126	-0.746191	-0.075364
H51	H	1.805594	-0.689939	0.000177
C52	C	1.552356	-0.561864	-0.000244
C53	C	1.559371	-0.520496	-0.111669
C54	C	1.663591	-0.491894	-0.111918
H55	H	1.613291	-0.598630	-0.000321
H56	H	1.557351	-0.533743	0.075247
H57	H	1.554388	-0.548616	-0.187140
H58	H	1.498461	-0.483719	-0.111616
H59	H	1.668586	-0.463774	-0.036428
H60	H	1.724518	-0.528665	-0.111992
H61	H	1.668360	-0.463819	-0.187512
C62	C	1.117209	-0.680653	-0.000058
C63	C	1.027763	-0.626228	-0.000084
C64	C	0.923316	-0.654566	-0.000163
H65	H	1.112063	-0.708731	0.075452
H66	H	1.112170	-0.708709	-0.075625
H67	H	1.032799	-0.598183	0.075476
H68	H	1.032871	-0.598145	-0.075588
H69	H	0.918277	-0.682622	-0.075730
H70	H	0.918182	-0.682644	0.075348
H71	H	0.862614	-0.617643	-0.000192
H72	H	1.531615	-0.257757	-0.000031
H73	H	1.156292	-0.228975	0.000004
C74	C	1.563209	-0.118026	-0.000072
C75	C	1.652653	-0.172453	-0.000123
C76	C	1.757102	-0.144117	-0.000209
H77	H	1.568356	-0.089960	0.075444
H78	H	1.568249	-0.089958	-0.075633
H79	H	1.647615	-0.200510	0.075431
H80	H	1.647544	-0.200524	-0.075633
H81	H	1.762142	-0.116048	-0.075771
H82	H	1.762236	-0.116051	0.075307
H83	H	1.817801	-0.181040	-0.000256
C84	C	1.131494	-0.084927	0.000078
C85	C	1.039774	-0.125462	0.000114
C86	C	0.937064	-0.081241	0.000201
H87	H	1.127714	-0.056165	-0.075433
H88	H	1.127812	-0.056201	0.075644
H89	H	1.043454	-0.154176	-0.075444
H90	H	1.043516	-0.154222	0.075619
H91	H	0.933382	-0.052515	0.075767
H92	H	0.933296	-0.052481	-0.075311
H93	H	0.874820	-0.108737	0.000238
