data_functionalizedCrystal
_audit_creation_method	'MofGen! by Chris Wilmer'
_symmetry_space_group_name_H-M	'P1'
_symmetry_Int_Tables_number	1
_symmetry_cell_setting	triclinic
loop_
_symmetry_equiv_pos_as_xyz
  x,y,z
_cell_length_a	10.654541
_cell_length_b	10.268362
_cell_length_c	11.792241
_cell_angle_alpha	90.005428
_cell_angle_beta	84.338672
_cell_angle_gamma	90.003229
loop_
_atom_site_label
_atom_site_type_symbol
_atom_site_fract_x
_atom_site_fract_y
_atom_site_fract_z
O1	O	1.667393	0.108261	0.159408
O2	O	1.301871	0.108272	0.174599
O3	O	1.493502	0.108257	0.001853
O4	O	1.475762	0.108276	0.332154
O5	O	1.493485	-0.108343	0.001846
O6	O	1.301854	-0.108328	0.174592
O7	O	1.667376	-0.108340	0.159400
Cu8	Cu	1.484614	-0.128111	0.166995
Cu9	Cu	1.484634	0.128044	0.167004
O10	O	1.475745	-0.108325	0.332146
C11	C	1.255068	-0.000027	0.173481
C12	C	1.115634	-0.000022	0.170145
C13	C	1.087078	0.000006	0.376710
C14	C	1.007297	0.000025	0.478420
C15	C	0.876287	0.000026	0.475279
C16	C	0.825059	0.000004	0.370416
C17	C	0.904841	-0.000015	0.268706
C18	C	1.035851	-0.000013	0.271858
C19	C	0.933396	-0.000053	0.062144
C20	C	1.064405	-0.000044	0.065282
C21	C	0.882167	-0.000075	-0.042719
C22	C	0.961949	-0.000085	-0.144432
C23	C	1.092966	-0.000084	-0.141286
C24	C	1.144187	-0.000064	-0.036428
N25	N	1.484609	-0.308277	0.166989
C26	C	1.484627	-0.573948	0.167002
C27	C	1.484613	-0.426110	0.166998
C28	C	1.714180	-0.000038	0.160519
C29	C	1.853614	-0.000033	0.163854
C30	C	1.492380	-0.000043	-0.040444
C31	C	1.489044	-0.000041	-0.166465
N32	N	1.484648	0.308210	0.167002
C33	C	1.482911	-0.000019	-0.397192
C34	C	1.486319	-0.000031	-0.268799
C35	C	1.476868	-0.000022	0.374443
C36	C	1.480203	-0.000015	0.500465
H37	H	1.250860	-0.000048	-0.033857
C38	C	1.306472	-0.000103	-0.228198
C39	C	1.180660	-0.000108	-0.253092
H40	H	1.360605	-0.000126	-0.297224
H41	H	1.322075	0.075436	-0.185262
H42	H	1.322063	-0.075632	-0.185238
H43	H	1.165067	0.075425	-0.296044
H44	H	1.165050	-0.075655	-0.296045
H45	H	0.920227	-0.000101	-0.229803
H46	H	1.193752	0.000033	0.379277
C47	C	1.023301	0.111406	0.655455
C48	C	1.063608	0.000051	0.593683
H49	H	1.058058	0.111412	0.726615
H50	H	1.050648	0.186917	0.613530
H51	H	0.933858	0.111393	0.668130
H52	H	1.153051	0.000068	0.581001
H53	H	1.036268	-0.075480	0.635617
C54	C	0.712387	0.111394	0.591559
C55	C	0.788579	0.000047	0.587076
H56	H	0.658235	0.111400	0.660574
H57	H	0.764095	0.186911	0.588500
H58	H	0.663142	0.111370	0.528651
H59	H	0.837831	0.000076	0.649980
H60	H	0.736864	-0.075489	0.590147
C61	C	0.702287	0.111264	-0.103471
C62	C	0.738160	-0.000071	-0.046177
H63	H	0.613384	0.111263	-0.105613
H64	H	0.726656	0.186789	-0.064616
H65	H	0.742480	0.111232	-0.179050
H66	H	0.697975	-0.000034	0.029405
H67	H	0.713779	-0.075615	-0.085031
H68	H	0.718383	-0.000011	0.367868
