data_functionalizedCrystal
_audit_creation_method	'MofGen! by Chris Wilmer'
_symmetry_space_group_name_H-M	'P1'
_symmetry_Int_Tables_number	1
_symmetry_cell_setting	triclinic
loop_
_symmetry_equiv_pos_as_xyz
  x,y,z
_cell_length_a	27.731994
_cell_length_b	27.732064
_cell_length_c	16.053802
_cell_angle_alpha	92.548353
_cell_angle_beta	87.446826
_cell_angle_gamma	82.634978
loop_
_atom_site_label
_atom_site_type_symbol
_atom_site_fract_x
_atom_site_fract_y
_atom_site_fract_z
O1	O	0.642998	0.055345	-0.069303
O2	O	1.142998	0.555345	0.430697
O3	O	0.502203	0.064117	-0.069330
O4	O	1.002203	0.564117	0.430670
O5	O	0.576969	-0.010666	-0.069319
O6	O	1.076969	0.489334	0.430681
O7	O	0.568232	0.130128	-0.069314
O8	O	1.068232	0.630128	0.430686
O9	O	0.572854	-0.006567	0.069539
O10	O	1.072854	0.493433	0.569539
O11	O	0.498087	0.068216	0.069528
O12	O	0.998087	0.568216	0.569528
O13	O	0.638883	0.059444	0.069555
O14	O	1.138883	0.559444	0.569555
Zn15	Zn	0.567832	0.064481	0.091588
Zn16	Zn	1.067832	0.564481	0.591588
Zn17	Zn	0.573254	0.059080	-0.091363
Zn18	Zn	1.073254	0.559080	0.408637
O19	O	0.564117	0.134227	0.069544
O20	O	1.064117	0.634227	0.569544
C21	C	0.574727	-0.026624	0.000107
C22	C	1.074727	0.473376	0.500107
C23	C	0.574171	-0.080278	0.000100
C24	C	1.074171	0.419722	0.500100
C25	C	0.482138	0.065986	0.000096
C26	C	0.982138	0.565986	0.500096
C27	C	0.428482	0.065444	0.000085
C28	C	0.928482	0.565444	0.500085
C29	C	0.526203	-0.457342	0.000087
C30	C	1.026203	0.042658	0.500087
C31	C	0.528250	-0.255682	0.000087
C32	C	1.028250	0.244318	0.500087
O33	O	0.491029	-0.224423	0.000046
O34	O	0.991029	0.275577	0.500046
N35	N	0.572585	-0.236563	0.000095
N36	N	1.072585	0.263437	0.500095
C37	C	0.616412	-0.267862	0.000098
C38	C	1.116412	0.232138	0.500098
O39	O	0.654169	-0.246974	0.000096
O40	O	1.154169	0.253026	0.500096
C41	C	0.614365	-0.469522	0.000093
C42	C	1.114365	0.030478	0.500093
C43	C	0.570027	-0.488637	0.000093
C44	C	1.070027	0.011363	0.500093
C45	C	0.481869	-0.476458	0.000086
C46	C	0.981869	0.023542	0.500086
C47	C	0.481357	-0.526870	0.000091
C48	C	0.981357	-0.026870	0.500091
C49	C	0.525181	-0.558166	0.000097
C50	C	1.025181	-0.058166	0.500097
C51	C	0.569515	-0.539049	0.000097
C52	C	1.069515	-0.039049	0.500097
C53	C	0.658192	-0.500820	0.000090
C54	C	1.158192	-0.000820	0.500090
C55	C	0.657676	-0.551238	0.000086
C56	C	1.157676	-0.051238	0.500086
C57	C	0.613338	-0.570354	0.000086
C58	C	1.113338	-0.070354	0.500086
C59	C	0.612828	-0.620757	0.000108
C60	C	1.112828	-0.120757	0.500108
N61	N	0.568492	-0.639876	0.000099
N62	N	1.068492	-0.139876	0.500099
C63	C	0.524669	-0.608580	0.000094
C64	C	1.024669	-0.108580	0.500094
C65	C	0.617483	-0.161988	0.000102
C66	C	1.117483	0.338012	0.500102
C67	C	0.617995	-0.111574	0.000105
C68	C	1.117995	0.388426	0.500105
C69	C	0.529832	-0.099397	0.000092
C70	C	1.029832	0.400603	0.500092
C71	C	0.529321	-0.149812	0.000095
C72	C	1.029321	0.350188	0.500095
C73	C	0.573148	-0.181107	0.000094
C74	C	1.073148	0.318893	0.500094
C75	C	0.523599	-0.714449	0.000105
C76	C	1.023599	-0.214449	0.500105
C77	C	0.523091	-0.764866	0.000113
C78	C	1.023091	-0.264866	0.500113
C79	C	0.611253	-0.777039	0.000121
C80	C	1.111253	-0.277039	0.500121
C81	C	0.611761	-0.726626	0.000117
C82	C	1.111761	-0.226626	0.500117
C83	C	0.567930	-0.695332	0.000106
C84	C	1.067930	-0.195332	0.500106
O85	O	0.650029	-0.652044	0.000139
O86	O	1.150029	-0.152044	0.500139
O87	O	0.486918	-0.629479	0.000077
O88	O	0.986918	-0.129479	0.500077
C89	C	0.526714	-0.406930	0.000083
C90	C	1.026714	0.093070	0.500083
C91	C	0.571049	-0.387814	0.000083
C92	C	1.071049	0.112186	0.500083
C93	C	0.614873	-0.419109	0.000089
C94	C	1.114873	0.080891	0.500089
C95	C	0.571561	-0.337399	0.000086
C96	C	1.071561	0.162601	0.500086
C97	C	0.527737	-0.306104	0.000081
C98	C	1.027737	0.193896	0.500081
C99	C	0.483402	-0.325223	0.000072
C100	C	0.983402	0.174777	0.500072
C101	C	0.482891	-0.375635	0.000077
C102	C	0.982891	0.124365	0.500077
C103	C	0.659208	-0.399990	0.000097
C104	C	1.159208	0.100010	0.500097
C105	C	0.659716	-0.349578	0.000093
C106	C	1.159716	0.150422	0.500093
C107	C	0.615892	-0.318282	0.000088
C108	C	1.115892	0.181718	0.500088
C109	C	0.093519	0.064263	0.075809
C110	C	0.593519	0.564263	0.575809
C111	C	-0.108140	0.062202	0.075818
C112	C	0.391860	0.562202	0.575818
O113	O	-0.136120	0.063815	0.140191
O114	O	0.363880	0.563815	0.640191
N115	N	-0.131111	0.059711	0.000127
N116	N	0.368889	0.559711	0.500127
C117	C	-0.103665	0.057733	-0.075573
C118	C	0.396335	0.557733	0.424427
O119	O	-0.127830	0.055562	-0.139953
O120	O	0.372170	0.555562	0.360047
C121	C	0.097993	0.059791	-0.075581
C122	C	0.597993	0.559791	0.424419
C123	C	0.120962	0.062286	0.000115
C124	C	0.620962	0.562286	0.500115
C125	C	0.116487	0.066758	0.151499
C126	C	0.616487	0.566758	0.651499
C127	C	0.166899	0.067276	0.151496
C128	C	0.666899	0.567276	0.651496
C129	C	0.194341	0.065299	0.075803
C130	C	0.694341	0.565299	0.575803
C131	C	0.171373	0.062804	0.000112
C132	C	0.671373	0.562804	0.500112
C133	C	0.125440	0.057809	-0.151280
C134	C	0.625440	0.557809	0.348720
C135	C	0.175857	0.058322	-0.151275
C136	C	0.675857	0.558322	0.348725
C137	C	0.198825	0.060818	-0.075578
C138	C	0.698825	0.560818	0.424422
C139	C	0.249227	0.061345	-0.075584
C140	C	0.749227	0.561345	0.424416
N141	N	0.272199	0.063836	0.000107
N142	N	0.772199	0.563836	0.500107
C143	C	0.244756	0.065813	0.075801
C144	C	0.744756	0.565813	0.575801
C145	C	-0.209538	0.056654	-0.075563
C146	C	0.290462	0.556654	0.424437
C147	C	-0.259953	0.056140	-0.075561
C148	C	0.240047	0.556140	0.424439
C149	C	-0.264424	0.060608	0.075830
C150	C	0.235576	0.560608	0.575830
C151	C	-0.214009	0.061125	0.075828
C152	C	0.285991	0.561125	0.575828
C153	C	-0.186567	0.059144	0.000129
C154	C	0.313433	0.559144	0.500129
C155	C	0.350623	0.066901	0.075789
C156	C	0.850623	0.566901	0.575789
C157	C	0.401039	0.067421	0.075779
C158	C	0.901039	0.567421	0.575779
C159	C	0.405506	0.062950	-0.075612
C160	C	0.905506	0.562950	0.424388
C161	C	0.355095	0.062432	-0.075603
C162	C	0.855095	0.562432	0.424397
C163	C	0.327654	0.064407	0.000104
C164	C	0.827654	0.564407	0.500104
O165	O	0.277238	0.059728	-0.139923
O166	O	0.777238	0.559728	0.360077
O167	O	0.268931	0.067973	0.140171
O168	O	0.768931	0.567973	0.640171
C169	C	0.043108	0.063745	0.075812
C170	C	0.543108	0.563745	0.575812
C171	C	0.020139	0.061251	0.000122
C172	C	0.520139	0.561251	0.500122
C173	C	0.047582	0.059273	-0.075572
C174	C	0.547582	0.559273	0.424428
C175	C	-0.030275	0.060737	0.000124
C176	C	0.469725	0.560737	0.500124
C177	C	-0.057718	0.062714	0.075817
C178	C	0.442282	0.562714	0.575817
C179	C	-0.034747	0.065205	0.151509
C180	C	0.465253	0.565205	0.651509
C181	C	0.015665	0.065722	0.151506
C182	C	0.515665	0.565722	0.651506
C183	C	0.024610	0.056783	-0.151263
C184	C	0.524610	0.556783	0.348737
C185	C	-0.025801	0.056266	-0.151254
C186	C	0.474199	0.556266	0.348746
C187	C	-0.053244	0.058243	-0.075561
C188	C	0.446756	0.558243	0.424439
C189	C	0.658948	0.057574	0.000128
C190	C	1.158948	0.557574	0.500128
C191	C	0.712604	0.058117	0.000133
C192	C	1.212604	0.558117	0.500133
C193	C	0.566359	0.150184	0.000116
C194	C	1.066359	0.650184	0.500116
C195	C	0.566915	0.203839	0.000118
C196	C	1.066915	0.703839	0.500118
N197	N	0.564135	0.068167	0.216448
N198	N	1.064135	0.568167	0.716448
N199	N	0.576955	0.055390	-0.216223
N200	N	1.076955	0.555390	0.283777
C201	C	0.595960	0.036358	0.260147
C202	C	1.095960	0.536358	0.760147
C203	C	0.593378	0.038940	0.347553
C204	C	1.093378	0.538940	0.847553
C205	C	0.558974	0.073335	0.391259
C206	C	1.058974	0.573335	0.891259
C207	C	0.527146	0.105146	0.347555
C208	C	1.027146	0.605146	0.847555
C209	C	0.529725	0.102560	0.260150
C210	C	1.029725	0.602560	0.760150
C211	C	0.547706	0.084615	0.652667
C212	C	1.047706	0.584615	1.152667
C213	C	0.545130	0.087199	0.740078
C214	C	1.045130	0.587199	1.240078
C215	C	0.611362	0.020993	0.740071
C216	C	1.111362	0.520993	1.240071
C217	C	0.613940	0.018413	0.652664
C218	C	1.113940	0.518413	1.152664
C219	C	0.582111	0.050221	0.608967
C220	C	1.082111	0.550221	1.108967
N221	N	0.556335	0.075977	0.480603
N222	N	1.056335	0.575977	0.980603
N223	N	0.584747	0.047577	0.519625
N224	N	1.084747	0.547577	1.019625
H225	H	0.486984	-0.780427	0.000117
H226	H	0.986984	-0.280427	0.500117
H227	H	0.336392	0.060408	-0.137241
H228	H	0.836392	0.560408	0.362759
C229	C	0.659457	-0.811473	0.000126
C230	C	1.159457	-0.311473	0.500126
N231	N	0.695764	-0.837411	0.000123
N232	N	1.195764	-0.337411	0.500123
H233	H	0.046949	0.055171	-0.212904
H234	H	0.546949	0.555171	0.287096
H235	H	0.637276	-0.004905	0.775657
H236	H	1.137276	0.495095	1.275657
H237	H	0.503810	0.128462	0.224571
H238	H	1.003810	0.628462	0.724571
C239	C	0.666770	-0.090552	0.000116
C240	C	1.166770	0.409448	0.500116
N241	N	0.703509	-0.074721	0.000119
N242	N	1.203509	0.425279	0.500119
C243	C	0.435196	-0.290788	0.000063
C244	C	0.935196	0.209212	0.500063
N245	N	0.398890	-0.264850	0.000050
N246	N	0.898890	0.235150	0.500050
C247	C	0.100187	0.055055	-0.234553
C248	C	0.600187	0.555055	0.265447
N249	N	0.081168	0.052978	-0.297280
N250	N	0.581168	0.552978	0.202720
H251	H	0.198199	0.056709	-0.212920
H252	H	0.698199	0.556709	0.287080
C253	C	0.651785	-0.019427	0.604594
C254	C	1.151785	0.480573	1.104594
N255	N	0.680291	-0.047928	0.568387
N256	N	1.180291	0.452072	1.068387
H257	H	0.694895	-0.425467	0.000101
H258	H	1.194895	0.074533	0.500101
C259	C	0.628377	0.003936	0.395618
C260	C	1.128377	0.503936	0.895618
N261	N	0.654735	-0.022435	0.431819
N262	N	1.154735	0.477565	0.931819
H263	H	0.653174	-0.187465	0.000102
H264	H	1.153174	0.312535	0.500102
C265	C	0.507279	0.125036	0.788153
C266	C	1.007279	0.625036	1.288153
N267	N	0.478772	0.153534	0.824364
N268	N	0.978772	0.653534	1.324364
C269	C	0.481626	-0.064962	0.000079
C270	C	0.981626	0.435038	0.500079
N271	N	0.445320	-0.039025	0.000063
N272	N	0.945320	0.460975	0.500063
H273	H	0.499131	0.133149	0.383145
H274	H	0.999131	0.633149	0.883145
H275	H	0.695824	-0.334019	0.000100
H276	H	1.195824	0.165981	0.500100
C277	C	-0.064943	0.067378	0.234772
C278	C	0.435057	0.567378	0.734772
N279	N	-0.087689	0.069012	0.297482
N280	N	0.412311	0.569012	0.797482
C281	C	0.475382	-0.680033	0.000098
C282	C	0.975382	-0.180033	0.500098
N283	N	0.439065	-0.654110	0.000099
N284	N	0.939065	-0.154110	0.500099
C285	C	0.426301	0.070164	0.159054
C286	C	0.926301	0.570164	0.659054
N287	N	0.445327	0.072228	0.221776
N288	N	0.945327	0.572228	0.721776
H289	H	0.445253	-0.542429	0.000084
H290	H	0.945253	-0.042429	0.500084
C291	C	0.512754	0.119669	0.604612
C292	C	1.012754	0.619669	1.104612
N293	N	0.486449	0.146095	0.568414
N294	N	0.986449	0.646095	1.068414
C295	C	0.633807	-0.001480	0.212078
C296	C	1.133807	0.498520	0.712078
N297	N	0.662314	-0.029982	0.175875
N298	N	1.162314	0.470018	0.675875
H299	H	0.693366	-0.576717	0.000081
H300	H	1.193366	-0.076717	0.500081
C301	C	0.433655	-0.442040	0.000080
C302	C	0.933655	0.057960	0.500080
N303	N	0.397337	-0.416119	0.000081
N304	N	0.897337	0.083881	0.500081
H305	H	-0.044498	0.054237	-0.212900
H306	H	0.455502	0.554237	0.287100
C307	C	0.706968	-0.479805	0.000085
C308	C	1.206968	0.020195	0.500085
N309	N	0.743710	-0.463977	0.000080
N310	N	1.243710	0.036023	0.500080
H311	H	0.493217	-0.165372	0.000099
H312	H	0.993217	0.334628	0.500099
H313	H	-0.195312	0.063158	0.137466
H314	H	0.304688	0.563158	0.637466
C315	C	0.660535	-0.705598	0.000122
C316	C	1.160535	-0.205598	0.500122
N317	N	0.697273	-0.689763	0.000116
N318	N	1.197273	-0.189763	0.500116
C319	C	0.435703	0.060772	-0.158871
C320	C	0.935703	0.560772	0.341129
N321	N	0.458450	0.059127	-0.221582
N322	N	0.958450	0.559127	0.278418
C323	C	0.320445	0.069077	0.159070
C324	C	0.820445	0.569077	0.659070
N325	N	0.297715	0.070721	0.221798
N326	N	0.797715	0.570721	0.721798
C327	C	0.192158	0.070015	0.234769
C328	C	0.692158	0.570015	0.734769
N329	N	0.211180	0.072074	0.297495
N330	N	0.711180	0.572074	0.797495
H331	H	0.446786	-0.391194	0.000078
H332	H	0.946786	0.108806	0.500078
C333	C	0.086307	0.068940	0.234776
C334	C	0.586307	0.568940	0.734776
N335	N	0.063577	0.070590	0.297505
N336	N	0.563577	0.570590	0.797505
H337	H	-0.286777	0.062219	0.137463
H338	H	0.213223	0.562219	0.637463
H339	H	0.034361	0.067755	0.213146
H340	H	0.534361	0.567755	0.713146
H341	H	-0.187199	0.055040	-0.137209
H342	H	0.312801	0.555040	0.362791
C343	C	-0.285213	0.053398	-0.158833
C344	C	0.214787	0.553398	0.341167
N345	N	-0.304236	0.051330	-0.221557
N346	N	0.195764	0.551330	0.278443
