data_functionalizedCrystal
_audit_creation_method	'MofGen! by Chris Wilmer'
_symmetry_space_group_name_H-M	'P1'
_symmetry_Int_Tables_number	1
_symmetry_cell_setting	triclinic
loop_
_symmetry_equiv_pos_as_xyz
  x,y,z
_cell_length_a	21.395362
_cell_length_b	21.295417
_cell_length_c	21.395355
_cell_angle_alpha	89.978549
_cell_angle_beta	89.956060
_cell_angle_gamma	90.046383
loop_
_atom_site_label
_atom_site_type_symbol
_atom_site_fract_x
_atom_site_fract_y
_atom_site_fract_z
Zn1	Zn	0.957860	-0.250415	-0.354573
Zn2	Zn	1.291194	0.082918	-0.021239
Zn3	Zn	1.624527	0.416251	0.312094
Zn4	Zn	0.957763	-0.355667	-0.249790
Zn5	Zn	1.291097	-0.022334	0.083543
Zn6	Zn	1.624430	0.311000	0.416877
Zn7	Zn	0.853075	-0.250445	-0.249774
Zn8	Zn	1.186409	0.082889	0.083559
Zn9	Zn	1.519742	0.416222	0.416893
Zn10	Zn	0.853045	-0.355680	-0.354495
Zn11	Zn	1.186378	-0.022346	-0.021161
Zn12	Zn	1.519712	0.310987	0.312172
O13	O	0.905436	-0.303052	-0.302158
O14	O	1.238769	0.030282	0.031175
O15	O	1.572103	0.363615	0.364509
O16	O	1.045525	-0.264359	-0.340713
O17	O	1.378859	0.068974	-0.007379
O18	O	1.712192	0.402307	0.325954
O19	O	0.943848	-0.341716	-0.162110
O20	O	1.277182	-0.008382	0.171223
O21	O	1.610515	0.324951	0.504557
O22	O	0.867029	-0.162351	-0.263702
O23	O	1.200362	0.170982	0.069631
O24	O	1.533695	0.504315	0.402965
O25	O	1.045454	-0.341687	-0.263729
O26	O	1.378787	-0.008354	0.069604
O27	O	1.712121	0.324979	0.402938
O28	O	0.944014	-0.162330	-0.340697
O29	O	1.277347	0.171004	-0.007364
O30	O	1.610680	0.504337	0.325970
O31	O	0.866934	-0.264409	-0.162098
O32	O	1.200268	0.068924	0.171235
O33	O	1.533601	0.402257	0.504568
O34	O	0.765393	-0.264422	-0.263626
O35	O	1.098727	0.068911	0.069707
O36	O	1.432060	0.402245	0.403041
O37	O	0.866977	-0.341709	-0.442183
O38	O	1.200310	-0.008376	-0.108850
O39	O	1.533643	0.324957	0.224484
O40	O	0.765371	-0.341738	-0.340564
O41	O	1.098704	-0.008404	-0.007231
O42	O	1.432038	0.324929	0.326103
O43	O	0.943984	-0.264372	-0.442240
O44	O	1.277318	0.068961	-0.108907
O45	O	1.610651	0.402295	0.224426
O46	O	0.943819	-0.443758	-0.263653
O47	O	1.277152	-0.110425	0.069680
O48	O	1.610485	0.222909	0.403013
O49	O	0.866883	-0.443767	-0.340579
O50	O	1.200216	-0.110434	-0.007246
O51	O	1.533549	0.222899	0.326087
C52	C	0.742648	-0.303085	-0.302085
C53	C	1.075982	0.030248	0.031248
C54	C	1.409315	0.363582	0.364581
C55	C	0.673007	-0.303114	-0.302069
C56	C	1.006340	0.030219	0.031264
C57	C	1.339674	0.363552	0.364598
C58	C	0.640299	-0.343426	-0.342070
C59	C	0.973632	-0.010093	-0.008737
C60	C	1.306965	0.323241	0.324596
C61	C	0.574863	-0.343411	-0.342098
C62	C	0.908197	-0.010077	-0.008765
C63	C	1.241530	0.323256	0.324568
C64	C	0.542139	-0.303090	-0.302114
C65	C	0.875472	0.030243	0.031220
C66	C	1.208805	0.363577	0.364553
C67	C	0.574855	-0.262771	-0.262109
C68	C	0.908188	0.070563	0.071224
C69	C	1.241522	0.403896	0.404557
C70	C	0.640289	-0.262783	-0.262087
C71	C	0.973622	0.070551	0.071246
C72	C	1.306956	0.403884	0.404580
C73	C	0.438414	-0.298019	-0.245709
C74	C	0.771747	0.035314	0.087625
C75	C	1.105081	0.368648	0.420958
C76	C	0.372981	-0.298011	-0.245730
C77	C	0.706314	0.035322	0.087603
C78	C	1.039648	0.368655	0.420937
C79	C	0.340318	-0.303049	-0.302183
C80	C	0.673651	0.030284	0.031151
C81	C	1.006985	0.363618	0.364484
C82	C	0.373096	-0.308108	-0.358616
C83	C	0.706429	0.025226	-0.025283
C84	C	1.039763	0.358559	0.308051
C85	C	0.438530	-0.308120	-0.358594
C86	C	0.771863	0.025213	-0.025261
C87	C	1.105197	0.358547	0.308073
C88	C	0.471186	-0.303072	-0.302134
C89	C	0.804520	0.030261	0.031200
C90	C	1.137853	0.363594	0.364533
C91	C	0.236657	-0.343346	-0.342218
C92	C	0.569990	-0.010013	-0.008885
C93	C	0.903324	0.323321	0.324449
C94	C	0.171221	-0.343326	-0.342247
C95	C	0.504554	-0.009993	-0.008914
C96	C	0.837887	0.323340	0.324420
C97	C	0.171214	-0.262690	-0.262252
C98	C	0.504547	0.070644	0.071081
C99	C	0.837880	0.403977	0.404414
C100	C	0.236649	-0.262706	-0.262229
C101	C	0.569982	0.070627	0.071104
C102	C	0.903316	0.403961	0.404438
C103	C	0.269367	-0.303038	-0.302211
C104	C	0.602700	0.030296	0.031122
C105	C	0.936033	0.363629	0.364456
C106	C	0.905354	-0.466603	-0.302123
C107	C	1.238687	-0.133270	0.031210
C108	C	1.572020	0.200063	0.364543
C109	C	0.905376	-0.536571	-0.302129
C110	C	1.238709	-0.203238	0.031204
C111	C	1.572043	0.130095	0.364537
C112	C	0.945472	-0.569412	-0.262115
C113	C	1.278806	-0.236079	0.071218
C114	C	1.612139	0.097254	0.404552
C115	C	0.945502	-0.635155	-0.262129
C116	C	1.278835	-0.301821	0.071204
C117	C	1.612168	0.031512	0.404538
C118	C	0.905424	-0.668054	-0.302151
C119	C	1.238757	-0.334721	0.031182
C120	C	1.572090	-0.001387	0.364516
C121	C	0.865324	-0.635205	-0.342173
C122	C	1.198658	-0.301872	-0.008840
C123	C	1.531991	0.031462	0.324494
C124	C	0.865301	-0.569464	-0.342162
C125	C	1.198634	-0.236131	-0.008829
C126	C	1.531967	0.097203	0.324504
N127	N	0.850614	-0.771336	-0.306903
N128	N	1.183947	-0.438002	0.026430
N129	N	1.517280	-0.104669	0.359764
N130	N	0.850638	-0.833787	-0.306910
N131	N	1.183971	-0.500454	0.026424
N132	N	1.517305	-0.167121	0.359757
C133	C	0.905494	-0.866129	-0.302187
C134	C	1.238827	-0.532795	0.031146
C135	C	1.572160	-0.199462	0.364480
N136	N	0.960325	-0.833659	-0.297445
N137	N	1.293659	-0.500326	0.035888
N138	N	1.626992	-0.166993	0.369222
N139	N	0.960300	-0.771202	-0.297435
N140	N	1.293634	-0.437869	0.035898
N141	N	1.626967	-0.104535	0.369231
C142	C	0.905445	-0.739339	-0.302167
C143	C	1.238778	-0.406006	0.031166
C144	C	1.572112	-0.072673	0.364499
C145	C	0.945625	-0.970255	-0.262186
C146	C	1.278959	-0.636922	0.071148
C147	C	1.612292	-0.303588	0.404481
C148	C	0.945656	-1.035999	-0.262204
C149	C	1.278989	-0.702665	0.071129
C150	C	1.612322	-0.369332	0.404463
C151	C	0.865473	-1.036048	-0.342245
C152	C	1.198806	-0.702714	-0.008912
C153	C	1.532140	-0.369381	0.324422
C154	C	0.865448	-0.970305	-0.342230
C155	C	1.198781	-0.636972	-0.008896
C156	C	1.532115	-0.303639	0.324437
C157	C	0.905523	-0.937413	-0.302197
C158	C	1.238857	-0.604079	0.031137
C159	C	1.572190	-0.270746	0.364470
C160	C	1.068859	-0.303019	-0.302231
C161	C	1.402193	0.030315	0.031102
C162	C	1.735526	0.363648	0.364435
C163	C	1.138501	-0.303005	-0.302262
C164	C	1.471834	0.030329	0.031071
C165	C	1.805167	0.363662	0.364404
C166	C	0.905488	-0.303039	-0.465581
C167	C	1.238821	0.030294	-0.132248
C168	C	1.572155	0.363628	0.201085
C169	C	0.905510	-0.303033	-0.535223
C170	C	1.238843	0.030300	-0.201889
C171	C	1.572177	0.363633	0.131444
C172	C	0.905535	-0.138861	-0.302206
C173	C	1.238869	0.194472	0.031127
C174	C	1.572202	0.527805	0.364460
C175	C	0.905578	-0.068893	-0.302227
C176	C	1.238911	0.264440	0.031106
C177	C	1.572245	0.597773	0.364439
C178	C	0.945606	-0.262762	-0.567967
C179	C	1.278940	0.070571	-0.234633
C180	C	1.612273	0.403904	0.098700
C181	C	0.945605	-0.262735	-0.633402
C182	C	1.278939	0.070598	-0.300069
C183	C	1.612272	0.403932	0.033265
C184	C	0.905515	-0.302991	-0.666091
C185	C	1.238848	0.030343	-0.332758
C186	C	1.572182	0.363676	0.000576
C187	C	0.865411	-0.343265	-0.633339
C188	C	1.198744	-0.009931	-0.300006
C189	C	1.532078	0.323402	0.033328
C190	C	0.865409	-0.343286	-0.567905
C191	C	1.198742	-0.009953	-0.234571
C192	C	1.532075	0.323381	0.098762
C193	C	0.900539	-0.359672	-0.769752
C194	C	1.233873	-0.026339	-0.436419
C195	C	1.567206	0.306995	-0.103085
C196	C	0.900546	-0.359652	-0.835185
C197	C	1.233879	-0.026318	-0.501852
C198	C	1.567213	0.307015	-0.168518
C199	C	0.905519	-0.302924	-0.867912
C200	C	1.238852	0.030409	-0.534578
C201	C	1.572186	0.363743	-0.201245
C202	C	0.910498	-0.246215	-0.835198
C203	C	1.243831	0.087118	-0.501864
C204	C	1.577165	0.420452	-0.168531
C205	C	0.910496	-0.246237	-0.769763
C206	C	1.243829	0.087097	-0.436430
C207	C	1.577162	0.420430	-0.103097
C208	C	0.905513	-0.302972	-0.737043
C209	C	1.238846	0.030362	-0.403710
C210	C	1.572180	0.363695	-0.070377
C211	C	0.945616	-0.262620	-0.971608
C212	C	1.278950	0.070713	-0.638275
C213	C	1.612283	0.404047	-0.304942
C214	C	0.945611	-0.262592	-1.037045
C215	C	1.278944	0.070741	-0.703712
C216	C	1.612278	0.404075	-0.370378
C217	C	0.865420	-0.343127	-1.036981
C218	C	1.198753	-0.009794	-0.703647
C219	C	1.532087	0.323540	-0.370314
C220	C	0.865422	-0.343150	-0.971545
C221	C	1.198755	-0.009816	-0.638212
C222	C	1.532089	0.323517	-0.304879
C223	C	0.905523	-0.302897	-0.938863
C224	C	1.238857	0.030436	-0.605530
C225	C	1.572190	0.363770	-0.272196
C226	C	0.905420	-0.303019	-0.139370
C227	C	1.238754	0.030314	0.193963
C228	C	1.572087	0.363648	0.527296
C229	C	0.905519	-0.302847	-0.069729
C230	C	1.238853	0.030486	0.263604
C231	C	1.572186	0.363820	0.596937
H232	H	0.346503	-0.312209	-0.404586
H233	H	0.679837	0.021124	-0.071252
H234	H	1.013170	0.354458	0.262081
Br235	Br	0.999922	-0.679734	-0.207820
Br236	Br	1.333255	-0.346401	0.125513
Br237	Br	1.666589	-0.013068	0.458846
H238	H	0.263297	-0.376183	-0.374777
H239	H	0.596631	-0.042850	-0.041444
H240	H	0.929964	0.290483	0.291890
H241	H	0.896322	-0.405855	-0.743111
H242	H	1.229656	-0.072521	-0.409778
H243	H	1.562989	0.260812	-0.076445
H244	H	0.832694	-0.661996	-0.374760
H245	H	1.166027	-0.328663	-0.041427
H246	H	1.499360	0.004671	0.291906
H247	H	0.832843	-1.062834	-0.374834
H248	H	1.166177	-0.729500	-0.041501
H249	H	1.499510	-0.396167	0.291832
H250	H	0.978255	-0.229938	-0.660067
H251	H	1.311588	0.103395	-0.326734
H252	H	1.644922	0.436729	0.006599
Br253	Br	0.917252	-0.169222	-0.879604
Br254	Br	1.250586	0.164111	-0.546271
Br255	Br	1.583919	0.497445	-0.212937
Br256	Br	0.328503	-0.291147	-0.169143
Br257	Br	0.661837	0.042186	0.164190
Br258	Br	0.995170	0.375519	0.497523
Br259	Br	0.999868	-0.524775	-0.207794
Br260	Br	1.333202	-0.191442	0.125540
Br261	Br	1.666535	0.141892	0.458873
Br262	Br	0.917249	-0.169279	-0.725367
Br263	Br	1.250583	0.164055	-0.392034
Br264	Br	1.583916	0.497388	-0.058700
H265	H	0.666920	-0.229954	-0.229513
H266	H	1.000253	0.103379	0.103821
H267	H	1.333587	0.436713	0.437154
Br268	Br	1.000083	-1.080570	-0.207900
Br269	Br	1.333417	-0.747236	0.125433
Br270	Br	1.666750	-0.413903	0.458766
H271	H	0.832795	-0.943565	-0.374811
H272	H	1.166129	-0.610231	-0.041477
H273	H	1.499462	-0.276898	0.291856
H274	H	0.832649	-0.542724	-0.374747
H275	H	1.165982	-0.209391	-0.041414
H276	H	1.499316	0.123942	0.291919
Br277	Br	0.530445	-0.208044	-0.207849
Br278	Br	0.863778	0.125289	0.125484
Br279	Br	1.197112	0.458622	0.458818
H280	H	0.978259	-0.943473	-0.229590
H281	H	1.311592	-0.610139	0.103743
H282	H	1.644926	-0.276806	0.437076
Br283	Br	1.000027	-0.208132	-0.523615
Br284	Br	1.333360	0.125202	-0.190281
Br285	Br	1.666693	0.458535	0.143052
H286	H	0.978266	-0.229840	-0.944997
H287	H	1.311599	0.103493	-0.611664
H288	H	1.644932	0.436826	-0.278330
H289	H	0.978261	-0.229795	-1.063704
H290	H	1.311594	0.103539	-0.730371
H291	H	1.644928	0.436872	-0.397037
H292	H	0.832771	-0.375897	-1.063595
H293	H	1.166105	-0.042564	-0.730262
H294	H	1.499438	0.290769	-0.396929
H295	H	0.832775	-0.375947	-0.944885
H296	H	1.166108	-0.042613	-0.611552
H297	H	1.499442	0.290720	-0.278218
H298	H	0.896496	-0.405828	-0.861816
H299	H	1.229829	-0.072494	-0.528482
H300	H	1.563162	0.260839	-0.195149
Br301	Br	0.810998	-0.397893	-0.677701
Br302	Br	1.144331	-0.064560	-0.344367
Br303	Br	1.477665	0.268773	-0.011034
H304	H	0.666933	-0.376266	-0.374628
H305	H	1.000267	-0.042933	-0.041295
H306	H	1.333600	0.290400	0.292039
Br307	Br	0.530463	-0.398122	-0.396391
Br308	Br	0.863797	-0.064789	-0.063058
Br309	Br	1.197130	0.268545	0.270275
H310	H	0.465215	-0.312237	-0.404544
H311	H	0.798549	0.021096	-0.071210
H312	H	1.131882	0.354430	0.262123
H313	H	0.144590	-0.376152	-0.374825
H314	H	0.477924	-0.042818	-0.041491
H315	H	0.811257	0.290515	0.291842
H316	H	0.832755	-0.376079	-0.541245
H317	H	1.166088	-0.042746	-0.207912
H318	H	1.499421	0.290588	0.125422
Br319	Br	0.126809	-0.207962	-0.207992
Br320	Br	0.460142	0.125372	0.125341
Br321	Br	0.793476	0.458705	0.458675
H322	H	0.263280	-0.229883	-0.229652
H323	H	0.596614	0.103450	0.103681
H324	H	0.929947	0.436784	0.437015
H325	H	0.465003	-0.293914	-0.199735
H326	H	0.798336	0.039419	0.133599
H327	H	1.131669	0.372753	0.466932
