data_functionalizedCrystal
_audit_creation_method	'MofGen! by Chris Wilmer'
_symmetry_space_group_name_H-M	'P1'
_symmetry_Int_Tables_number	1
_symmetry_cell_setting	triclinic
loop_
_symmetry_equiv_pos_as_xyz
  x,y,z
_cell_length_a	10.489716
_cell_length_b	7.088929
_cell_length_c	8.597299
_cell_angle_alpha	76.027625
_cell_angle_beta	95.068608
_cell_angle_gamma	83.732812
loop_
_atom_site_label
_atom_site_type_symbol
_atom_site_fract_x
_atom_site_fract_y
_atom_site_fract_z
O1	O	1.679064	0.198704	-0.241257
O2	O	1.307685	0.202199	-0.262436
O3	O	1.503781	0.162194	-0.019613
O4	O	1.482968	0.238709	-0.484080
O5	O	1.529987	-0.161140	0.012912
O6	O	1.333891	-0.121135	-0.229911
O7	O	1.705270	-0.124630	-0.208732
Cu8	Cu	1.521974	-0.152405	-0.216352
Cu9	Cu	1.490982	0.229974	-0.254816
O10	O	1.509175	-0.084625	-0.451555
C11	C	1.273269	0.040271	-0.244582
C12	C	1.131678	0.039489	-0.239822
N13	N	1.543781	-0.421350	-0.189297
C14	C	1.032748	0.064024	-0.388729
C15	C	0.968987	-0.108367	-0.294006
C16	C	0.943157	0.210409	-0.326038
C17	C	1.069794	-0.133023	-0.145149
C18	C	1.043957	0.185899	-0.177216
C19	C	0.980250	0.013451	-0.082381
C20	C	1.739686	0.037303	-0.226586
C21	C	1.881276	0.038097	-0.231348
C22	C	1.516109	-0.009266	0.056123
C23	C	1.513787	-0.038448	0.233338
N24	N	1.469184	0.498917	-0.281858
C25	C	1.496847	0.086840	0.472708
C26	C	1.499172	0.116037	0.295493
H27	H	1.056336	0.085213	-0.518239
H28	H	1.621106	-0.518808	-0.093382
H29	H	1.488432	0.270634	0.213130
H30	H	1.524509	-0.193055	0.315707
H31	H	1.077058	0.310342	-0.127964
H32	H	0.935899	-0.232795	-0.343308
H33	H	1.124575	-0.278291	-0.068754
H34	H	0.956921	-0.007995	0.047249
H35	H	0.888220	0.355534	-0.402484
H36	H	1.391874	-0.403634	-0.377778
