data_functionalizedCrystal
_audit_creation_method	'MofGen! by Chris Wilmer'
_symmetry_space_group_name_H-M	'P1'
_symmetry_Int_Tables_number	1
_symmetry_cell_setting	triclinic
loop_
_symmetry_equiv_pos_as_xyz
  x,y,z
_cell_length_a	12.759401
_cell_length_b	21.295417
_cell_length_c	21.295411
_cell_angle_alpha	90.028718
_cell_angle_beta	90.013236
_cell_angle_gamma	90.030668
loop_
_atom_site_label
_atom_site_type_symbol
_atom_site_fract_x
_atom_site_fract_y
_atom_site_fract_z
Zn1	Zn	1.606085	-0.250634	0.355857
Zn2	Zn	1.605947	-0.355899	0.250583
Zn3	Zn	1.430404	-0.250648	0.250608
Zn4	Zn	1.430328	-0.355870	0.355821
O5	O	1.518191	-0.303263	0.303217
O6	O	1.753088	-0.264604	0.341897
O7	O	1.582635	-0.341955	0.162497
O8	O	1.453798	-0.162557	0.264596
O9	O	1.752987	-0.341942	0.264553
O10	O	1.582870	-0.162547	0.341922
O11	O	1.453664	-0.264628	0.162516
O12	O	1.283372	-0.264599	0.264560
O13	O	1.453668	-0.341892	0.443915
O14	O	1.283317	-0.341906	0.341859
O15	O	1.582797	-0.264576	0.443942
O16	O	1.582562	-0.443985	0.264517
O17	O	1.453534	-0.443963	0.341834
C18	C	1.245224	-0.303251	0.303209
C19	C	1.128447	-0.303261	0.303220
C20	C	1.073583	-0.343579	0.343403
C21	C	0.963859	-0.343587	0.343410
C22	C	0.963872	-0.262958	0.263045
C23	C	1.073594	-0.262947	0.263042
C24	C	1.073575	-0.390132	0.389799
C25	C	0.963851	-0.390140	0.389806
C26	C	1.518053	-0.466815	0.303182
C27	C	1.518090	-0.536783	0.303189
C28	C	1.585335	-0.569640	0.262971
C29	C	1.585384	-0.635382	0.262985
C30	C	1.518170	-0.668265	0.303210
C31	C	1.450921	-0.635400	0.343436
C32	C	1.450881	-0.569659	0.343425
N33	N	1.426262	-0.771531	0.308006
N34	N	1.426303	-0.833983	0.308013
C35	C	1.518288	-0.866340	0.303246
N36	N	1.610232	-0.833886	0.298461
N37	N	1.610190	-0.771429	0.298451
C38	C	1.518206	-0.739550	0.303227
C39	C	1.585591	-0.970482	0.263042
C40	C	1.585642	-1.036226	0.263060
C41	C	1.451170	-1.036243	0.343508
C42	C	1.451129	-0.970500	0.343493
C43	C	1.518338	-0.937624	0.303256
C44	C	1.792224	-0.303275	0.303226
C45	C	1.909001	-0.303280	0.303230
C46	C	1.518239	-0.303229	0.467408
C47	C	1.518260	-0.303215	0.537376
C48	C	1.518358	-0.139073	0.303266
C49	C	1.518429	-0.069104	0.303287
C50	C	1.518203	-0.303251	0.139666
C51	C	1.518386	-0.303088	0.069698
C52	C	1.585533	-0.343349	1.036825
C53	C	1.585514	-0.343369	0.971082
C54	C	1.518359	-0.303117	0.938215
C55	C	1.451200	-0.262853	0.971097
C56	C	1.451213	-0.262838	1.036838
N57	N	1.510334	-0.248037	0.835010
N58	N	1.510328	-0.248053	0.772559
C59	C	1.518313	-0.303159	0.740141
N60	N	1.526326	-0.358251	0.772533
N61	N	1.526338	-0.358234	0.834990
C62	C	1.518337	-0.303128	0.866930
C63	C	1.585443	-0.343446	0.635982
C64	C	1.585416	-0.343467	0.570238
C65	C	1.451108	-0.262945	0.570254
C66	C	1.451129	-0.262930	0.635996
C67	C	1.518302	-0.303179	0.668856
H68	H	1.118260	-0.230113	0.230326
H69	H	1.640227	-0.376125	1.063575
C70	C	1.085568	-0.501617	0.404942
C71	C	1.119479	-0.452612	0.366110
H72	H	1.113914	-0.540188	0.390317
H73	H	1.011223	-0.503748	0.404133
H74	H	1.108588	-0.494153	0.446711
H75	H	1.096452	-0.460074	0.324342
H76	H	1.193840	-0.450482	0.366912
H77	H	1.396521	-0.230080	0.944332
H78	H	0.919198	-0.230135	0.230335
C79	C	1.391265	-0.736186	0.379165
C80	C	1.377035	-0.671543	0.387651
H81	H	1.345646	-0.758496	0.406462
H82	H	1.461843	-0.746913	0.388417
H83	H	1.375937	-0.746988	0.336862
H84	H	1.392371	-0.660740	0.429954
H85	H	1.306441	-0.660811	0.378404
H86	H	1.103382	-0.377139	0.438576
H87	H	1.396534	-0.230052	1.063603
H88	H	1.640136	-0.376221	0.662738
H89	H	1.640320	-0.943713	0.230280
C90	C	0.808343	-0.367852	0.449225
C91	C	0.917944	-0.366662	0.452372
H92	H	0.780003	-0.353354	0.487848
H93	H	0.785331	-0.409597	0.441635
H94	H	0.785367	-0.341403	0.416063
H95	H	0.940921	-0.393115	0.485532
H96	H	0.940965	-0.324911	0.459969
H97	H	1.396368	-0.943746	0.376240
C98	C	0.862590	-0.451936	0.317533
C99	C	0.923589	-0.455931	0.372052
H100	H	0.837731	-0.492551	0.306576
H101	H	0.903944	-0.435692	0.284201
H102	H	0.804715	-0.424864	0.324854
H103	H	0.981469	-0.482999	0.364730
H104	H	0.882233	-0.472184	0.405391
H105	H	1.640063	-0.542874	0.230209
H106	H	1.640146	-0.662139	0.230235
C107	C	1.317968	-0.576281	0.422946
C108	C	1.376955	-0.533539	0.387632
H109	H	1.272324	-0.553979	0.450234
H110	H	1.363734	-0.601877	0.447053
H111	H	1.277828	-0.601966	0.395497
H112	H	1.417101	-0.507856	0.415081
H113	H	1.331183	-0.507931	0.363523
C114	C	1.718536	-1.029602	0.183529
C115	C	1.659562	-1.072345	0.218848
H116	H	1.764165	-1.051902	0.156232
H117	H	1.758681	-1.003920	0.210968
H118	H	1.672753	-1.004001	0.159426
H119	H	1.705344	-1.097943	0.242955
H120	H	1.619414	-1.098037	0.191405
H121	H	1.396448	-1.063016	0.376264
C122	C	1.718285	-0.422953	0.977663
C123	C	1.659326	-0.387627	0.934938
H124	H	1.763856	-0.450273	0.955349
H125	H	1.672497	-0.447026	1.003294
H126	H	1.758502	-0.395514	1.003317
H127	H	1.619104	-0.415065	0.909287
H128	H	1.705120	-0.363551	0.909297
C129	C	1.718196	-0.423043	0.576830
C130	C	1.659233	-0.387724	0.534101
H131	H	1.763773	-0.450361	0.554519
H132	H	1.672411	-0.447118	0.602461
H133	H	1.758407	-0.395600	0.602482
H134	H	1.619017	-0.415166	0.508452
H135	H	1.705024	-0.363647	0.508459
H136	H	1.396455	-0.230142	0.662762
C137	C	1.391452	-0.227214	0.469488
C138	C	1.377288	-0.218699	0.534134
H139	H	1.345878	-0.199896	0.447188
H140	H	1.376033	-0.269507	0.458706
H141	H	1.462052	-0.218003	0.458726
H142	H	1.306690	-0.227915	0.544897
H143	H	1.392700	-0.176397	0.544920
