data_functionalizedCrystal
_audit_creation_method	'MofGen! by Chris Wilmer'
_symmetry_space_group_name_H-M	'P1'
_symmetry_Int_Tables_number	1
_symmetry_cell_setting	triclinic
loop_
_symmetry_equiv_pos_as_xyz
  x,y,z
_cell_length_a	21.295420
_cell_length_b	21.295417
_cell_length_c	10.686551
_cell_angle_alpha	94.412210
_cell_angle_beta	94.397452
_cell_angle_gamma	90.026289
loop_
_atom_site_label
_atom_site_type_symbol
_atom_site_fract_x
_atom_site_fract_y
_atom_site_fract_z
Zn1	Zn	0.989667	-0.223330	0.713459
Zn2	Zn	0.981491	-0.336693	0.502426
Zn3	Zn	0.876313	-0.231432	0.502465
Zn4	Zn	0.884356	-0.328561	0.713373
O5	O	0.932957	-0.280004	0.607931
O6	O	1.076673	-0.238380	0.685485
O7	O	0.960751	-0.329524	0.325848
O8	O	0.891406	-0.142266	0.530507
O9	O	1.070666	-0.321667	0.530440
O10	O	0.974686	-0.136313	0.685523
O11	O	0.883478	-0.252189	0.325877
O12	O	0.789290	-0.244304	0.530423
O13	O	0.905114	-0.307807	0.889968
O14	O	0.795199	-0.315664	0.685376
O15	O	0.982485	-0.230495	0.890031
O16	O	0.968550	-0.423705	0.530356
O17	O	0.897186	-0.417731	0.685338
C18	C	0.769404	-0.279981	0.607895
C19	C	0.699436	-0.279985	0.607910
C20	C	0.932872	-0.443558	0.607861
C21	C	0.932894	-0.513526	0.607873
C22	C	0.203112	-0.236725	0.688813
C23	C	0.268855	-0.236721	0.688813
C24	C	0.298599	-0.280022	0.607960
C25	C	0.262596	-0.323342	0.527125
C26	C	0.196855	-0.323349	0.527136
N27	N	0.397559	-0.289004	0.497468
N28	N	0.460010	-0.288993	0.497461
C29	C	0.496672	-0.280003	0.607923
N30	N	0.468524	-0.271011	0.718396
N31	N	0.406067	-0.271019	0.718402
C32	C	0.369883	-0.280019	0.607940
C33	C	0.603953	-0.236683	0.688760
C34	C	0.669697	-0.236683	0.688762
C35	C	0.663436	-0.323301	0.527062
C36	C	0.597694	-0.323304	0.527072
C37	C	0.567956	-0.279992	0.607919
C38	C	0.970093	-0.549479	0.527257
C39	C	0.970123	-0.615221	0.527286
C40	C	0.932944	-0.645007	0.607917
C41	C	0.895743	-0.609045	0.688549
C42	C	0.895719	-0.543304	0.688527
N43	N	0.878245	-0.747900	0.617525
N44	N	0.878270	-0.810351	0.617538
C45	C	0.933017	-0.843079	0.607989
N46	N	0.987739	-0.810997	0.598402
N47	N	0.987713	-0.748541	0.598382
C48	C	0.932967	-0.716291	0.607950
C49	C	0.970252	-0.950317	0.527399
C50	C	0.970284	-1.016059	0.527437
C51	C	0.895898	-1.009882	0.688693
C52	C	0.895872	-0.944140	0.688663
C53	C	0.933048	-0.914362	0.608009
C54	C	1.097149	-0.280027	0.607968
C55	C	1.167117	-0.280037	0.607983
C56	C	0.945609	-0.267340	0.937066
C57	C	0.951000	-0.261944	1.077324
C58	C	0.933061	-0.115810	0.608029
C59	C	0.933105	-0.045840	0.608070
C60	C	0.920391	-0.292573	0.280076
C61	C	0.915121	-0.297792	0.139819
H62	H	0.178904	-0.201460	0.754650
C63	C	0.868048	-0.344832	1.067145
N64	N	0.832592	-0.380262	1.012398
H65	H	0.699003	-0.201415	0.754592
H66	H	0.985847	-0.227124	1.131126
C67	C	0.157259	-0.370993	0.438202
N68	N	0.127434	-0.406876	0.371211
C69	C	0.308456	-0.189070	0.777729
N70	N	0.338283	-0.153177	0.844699
C71	C	0.295316	-0.370971	0.438182
N72	N	0.319960	-0.406847	0.371188
H73	H	0.865473	-0.633300	0.754202
H74	H	0.687654	-0.358562	0.461241
C75	C	1.011043	-0.654778	0.438591
N76	N	1.041861	-0.684570	0.371783
H77	H	0.579739	-0.201416	0.754590
C78	C	0.558097	-0.370943	0.438133
N79	N	0.528273	-0.406826	0.371139
H80	H	0.865427	-0.514030	0.754176
C81	C	1.010980	-0.516728	0.438522
N82	N	1.041774	-0.492058	0.371680
H83	H	1.000525	-0.926070	0.461730
H84	H	1.000579	-1.045331	0.461792
H85	H	0.865629	-1.034132	0.754351
H86	H	0.865579	-0.914865	0.754303
