data_functionalizedCrystal
_audit_creation_method	'MofGen! by Chris Wilmer'
_symmetry_space_group_name_H-M	'P1'
_symmetry_Int_Tables_number	1
_symmetry_cell_setting	triclinic
loop_
_symmetry_equiv_pos_as_xyz
  x,y,z
_cell_length_a	14.044220
_cell_length_b	14.519709
_cell_length_c	13.596369
_cell_angle_alpha	90.006934
_cell_angle_beta	90.000253
_cell_angle_gamma	88.434511
loop_
_atom_site_label
_atom_site_type_symbol
_atom_site_fract_x
_atom_site_fract_y
_atom_site_fract_z
O1	O	-1.258085	-0.222370	-0.081691
O2	O	-0.982102	-0.214346	-0.081716
O3	O	-1.127410	-0.084710	-0.081694
O4	O	-1.112776	-0.352006	-0.081713
O5	O	-1.127396	-0.084701	0.081889
O6	O	-0.982087	-0.214337	0.081867
O7	O	-1.258070	-0.222361	0.081892
Zn8	Zn	-1.120076	-0.218348	0.107852
Zn9	Zn	-1.120095	-0.218359	-0.107676
O10	O	-1.112761	-0.351997	0.081870
C11	C	-0.946774	-0.210829	0.000073
C12	C	-0.841531	-0.200352	0.000064
C13	C	-1.293398	-0.225878	0.000101
C14	C	-1.398641	-0.236355	0.000104
C15	C	-1.126721	-0.050290	0.000098
C16	C	-1.124677	0.052256	0.000098
C17	C	-0.648837	-0.181197	0.000084
C18	C	-0.591329	-0.255505	0.000083
C19	C	-0.484108	-0.244848	0.000095
C20	C	-0.756068	-0.191854	0.000073
C21	C	-1.113451	-0.386416	0.000076
C22	C	-1.115494	-0.488963	0.000070
N23	N	-1.120070	-0.218340	0.254944
C24	C	-1.117153	0.427758	0.000072
C25	C	-1.119243	0.323282	0.000079
C26	C	-1.120915	0.240010	0.000086
C27	C	-1.123005	0.135527	0.000092
N28	N	-1.120109	-0.218360	-0.254767
C29	C	-1.120094	-0.218360	0.656235
C30	C	-1.120085	-0.218357	0.544583
C31	C	-1.120083	-0.218351	0.455593
C32	C	-1.120072	-0.218347	0.343934
H33	H	-0.622622	-0.327127	0.000073
C34	C	-0.606571	-0.084445	0.000086
C35	C	-0.497777	-0.073787	0.000090
C36	C	-0.455498	0.022964	0.000086
C37	C	-0.522011	0.109056	0.000079
C38	C	-0.630811	0.098401	0.000075
C39	C	-0.673090	0.001650	0.000079
H40	H	-0.448534	-0.137520	0.000095
H41	H	-0.374957	0.030851	0.000088
H42	H	-0.490713	0.180677	0.000076
H43	H	-0.680054	0.162134	0.000070
H44	H	-0.753631	-0.006237	0.000077
