data_functionalizedCrystal
_audit_creation_method	'MofGen! by Chris Wilmer'
_symmetry_space_group_name_H-M	'P1'
_symmetry_Int_Tables_number	1
_symmetry_cell_setting	triclinic
loop_
_symmetry_equiv_pos_as_xyz
  x,y,z
_cell_length_a	10.489741
_cell_length_b	12.837943
_cell_length_c	11.892113
_cell_angle_alpha	93.959850
_cell_angle_beta	94.331487
_cell_angle_gamma	89.684057
loop_
_atom_site_label
_atom_site_type_symbol
_atom_site_fract_x
_atom_site_fract_y
_atom_site_fract_z
O1	O	0.339882	1.383902	0.093983
O2	O	0.323488	1.081975	0.093989
O3	O	0.146844	1.239808	0.093979
O4	O	0.516526	1.226069	0.093993
O5	O	0.130836	1.227850	-0.094028
O6	O	0.307480	1.070016	-0.094018
O7	O	0.323874	1.371944	-0.094025
Zn8	Zn	0.313135	1.219081	-0.123872
Zn9	Zn	0.334227	1.234837	0.123836
O10	O	0.500518	1.214110	-0.094015
C11	C	0.309946	1.037334	-0.000014
C12	C	0.293428	0.922133	-0.000011
C13	C	0.492003	0.682657	-0.000020
C14	C	0.476489	0.574415	-0.000019
C15	C	0.246887	0.597406	-0.000015
C16	C	0.262401	0.705648	-0.000016
C17	C	0.384963	0.748269	-0.000017
C18	C	0.400476	0.856513	-0.000011
C19	C	0.170874	0.879501	-0.000015
C20	C	0.155361	0.771260	-0.000014
C21	C	0.091194	1.232791	-0.000024
C22	C	-0.050778	1.229687	-0.000022
C23	C	-0.129989	1.129262	-0.000011
C24	C	-0.224774	1.170806	-0.092710
C25	C	-0.208963	1.182620	0.092651
C26	C	-0.143700	1.271267	-0.092797
C27	C	-0.127873	1.283072	0.092647
C28	C	-0.222625	1.324687	-0.000074
C29	C	0.556168	1.221127	-0.000009
C30	C	0.698141	1.224233	-0.000004
C31	C	0.337417	1.416585	-0.000019
C32	C	0.353935	1.531786	-0.000014
N33	N	0.298741	1.208336	-0.292926
C34	C	0.448839	1.320351	-0.529572
C35	C	0.438768	1.312848	-0.647914
C36	C	0.268521	1.185834	-0.647954
C37	C	0.278592	1.193337	-0.529612
C38	C	0.368756	1.260596	-0.470425
C39	C	0.378833	1.268093	-0.352081
C40	C	0.208580	1.141085	-0.352123
C41	C	0.198509	1.133582	-0.470465
N42	N	0.348613	1.245591	0.292891
H43	H	0.591798	0.717360	-0.000019
H44	H	0.147094	0.562679	-0.000108
H45	H	0.055572	0.736541	-0.000026
H46	H	0.195101	1.131085	-0.696165
O47	O	0.055411	0.950268	-0.000023
H48	H	0.063516	1.005010	0.076601
H49	H	0.522265	1.375107	-0.481381
O50	O	0.525147	1.377292	-0.711714
H51	H	0.589538	1.425313	-0.650672
O52	O	-0.280899	1.107930	-0.196525
H53	H	-0.243679	1.026837	-0.196337
O54	O	-0.105532	1.320897	-0.196728
H55	H	-0.048849	1.264312	-0.247310
H56	H	0.125096	1.078824	-0.518672
O57	O	-0.276052	1.434146	-0.000137
H58	H	-0.250012	1.470669	-0.077160
O59	O	0.476077	1.340637	-0.288246
H60	H	0.543212	1.294827	-0.234346
H61	H	-0.237939	1.145100	0.171028
O62	O	0.532662	0.902489	-0.000012
H63	H	0.538682	0.946388	-0.076638
H64	H	-0.085475	1.330513	0.171019
O65	O	0.122180	1.076640	-0.288333
H66	H	0.144319	1.093161	-0.196098
H67	H	0.563652	0.520997	-0.000024
O68	O	-0.076267	1.019890	-0.000124
H69	H	-0.115270	0.973552	-0.077192
