data_functionalizedCrystal
_audit_creation_method	'MofGen! by Chris Wilmer'
_symmetry_space_group_name_H-M	'P1'
_symmetry_Int_Tables_number	1
_symmetry_cell_setting	triclinic
loop_
_symmetry_equiv_pos_as_xyz
  x,y,z
_cell_length_a	19.851628
_cell_length_b	14.560438
_cell_length_c	19.851628
_cell_angle_alpha	60.005725
_cell_angle_beta	90.005228
_cell_angle_gamma	59.997979
loop_
_atom_site_label
_atom_site_type_symbol
_atom_site_fract_x
_atom_site_fract_y
_atom_site_fract_z
Zr1	Zr	0.648981	1.005157	-0.088303
O2	O	0.541418	1.196757	-0.195867
O3	O	0.681955	0.813556	-0.055330
O4	O	0.681959	1.005134	-0.195853
O5	O	0.541410	1.005197	0.055504
O6	O	0.792821	1.005116	-0.195839
O7	O	0.541413	1.005179	-0.055345
O8	O	0.792813	0.662418	0.055530
O9	O	0.541418	1.347895	-0.195865
O10	O	0.778753	0.892351	-0.041256
O11	O	0.696016	0.892377	0.041459
O12	O	0.696021	1.117936	-0.123988
O13	O	0.613283	1.117963	-0.041273
Zr14	Zr	0.825788	1.005157	0.088510
Zr15	Zr	0.825793	1.005128	-0.088281
Zr16	Zr	0.648976	1.005185	0.088488
Zr17	Zr	0.648982	1.246204	-0.088299
Zr18	Zr	0.825787	0.764109	0.088506
O19	O	0.792814	1.196757	0.055537
O20	O	0.792822	1.196717	-0.195837
O21	O	0.541410	1.196798	0.055507
O22	O	0.933351	0.813556	0.196074
O23	O	0.933358	0.813516	-0.055300
O24	O	0.681947	0.813596	0.196044
O25	O	0.933359	1.005116	-0.055297
O26	O	0.792809	1.005179	0.196060
O27	O	0.681948	1.005197	0.196046
O28	O	0.933355	1.005134	0.055552
O29	O	0.681960	1.347873	-0.195848
O30	O	0.792809	0.662441	0.196055
O31	O	0.933351	0.662418	0.196072
O32	O	0.933355	0.662396	0.055547
O33	O	0.541414	1.347918	-0.055340
O34	O	0.681956	1.347895	-0.055323
O35	O	0.778748	0.892377	0.124195
O36	O	0.861485	0.892351	0.041480
O37	O	0.778753	1.117936	-0.041253
O38	O	0.696016	1.117963	0.041463
C39	C	0.737384	0.703643	0.000099
C40	C	0.737384	0.601312	0.000098
C41	C	0.780570	0.553222	-0.043079
C42	C	0.780573	0.457063	-0.043071
C43	C	0.694197	0.457095	0.043291
C44	C	0.694199	0.553246	0.043288
C45	C	0.871711	0.272122	-0.055687
C46	C	0.914888	0.224045	-0.098878
C47	C	0.913758	0.308761	-0.176263
C48	C	0.869436	0.441575	-0.210476
C49	C	0.826253	0.489656	-0.167291
C50	C	0.827400	0.404920	-0.089892
C51	C	0.603059	0.738196	0.055895
C52	C	0.559870	0.786285	0.099076
C53	C	0.560992	0.701576	0.176462
C54	C	0.605299	0.568773	0.210669
C55	C	0.648488	0.520684	0.167488
C56	C	0.647368	0.605397	0.090104
C57	C	0.516220	1.005192	0.000077
C58	C	0.441159	1.005204	0.000067
C59	C	0.214705	1.128174	-0.045014
C60	C	0.192344	1.066682	-0.077701
C61	C	0.303752	1.005171	0.000091
C62	C	0.192372	1.066671	0.032763
C63	C	0.171020	1.005147	0.000114
C64	C	0.282380	0.943678	-0.032642
C65	C	0.282405	0.943684	0.077866
C66	C	0.260098	0.882102	0.045198
C67	C	0.380214	1.005188	0.000076
C68	C	0.094563	1.005120	0.000127
C69	C	0.958549	1.005121	0.000130
C70	C	1.033610	1.005109	0.000139
C71	C	0.737391	1.005121	-0.221035
C72	C	0.737393	1.005109	-0.296088
C73	C	0.737385	1.306671	0.000108
C74	C	0.737385	1.409002	0.000109
C75	C	0.782500	0.882140	-0.432345
C76	C	0.704706	0.943632	-0.499806
C77	C	0.737385	1.005143	-0.433519
C78	C	0.815163	0.943643	-0.499792
C79	C	0.737384	1.005166	-0.566268
C80	C	0.659546	1.066636	-0.499992
C81	C	0.770059	1.066629	-0.499968
C82	C	0.692219	1.128211	-0.567442
C83	C	0.737387	1.005126	-0.357044
C84	C	0.737374	1.005193	-0.642745
C85	C	0.737378	1.005192	0.221242
C86	C	0.737375	1.005204	0.296294
C87	C	0.958549	0.703608	0.000126
C88	C	1.033610	0.601264	0.000134
C89	C	0.737377	0.703678	0.221238
C90	C	0.737375	0.601359	0.296289
C91	C	0.958542	0.703643	0.221265
C92	C	1.033601	0.601312	0.296325
C93	C	0.516227	1.306671	-0.221058
C94	C	0.441168	1.409002	-0.296118
C95	C	0.516220	1.306706	0.000081
C96	C	0.441159	1.409049	0.000073
C97	C	0.737392	1.306635	-0.221031
C98	C	0.737394	1.408954	-0.296082
C99	C	1.025674	0.553203	-0.043057
C100	C	1.096195	0.457054	-0.043066
C101	C	1.174651	0.408962	0.000121
C102	C	1.182585	0.457033	0.043313
C103	C	1.112065	0.553187	0.043317
C104	C	0.780559	0.553309	0.374728
C105	C	0.780554	0.457183	0.445253
C106	C	0.737368	0.409102	0.437337
C107	C	0.694179	0.457162	0.358890
C108	C	0.694180	0.553293	0.288367
C109	C	1.112045	0.553242	0.288397
C110	C	1.182577	0.457105	0.358918
C111	C	1.174664	0.409032	0.437365
C112	C	1.096212	0.457111	0.445290
C113	C	1.025681	0.553253	0.374771
C114	C	0.362724	1.457083	-0.288191
C115	C	0.292192	1.553250	-0.358711
C116	C	0.300105	1.601328	-0.437158
C117	C	0.378557	1.553243	-0.445083
C118	C	0.449088	1.457084	-0.374564
C119	C	0.449095	1.457120	0.043256
C120	C	0.378574	1.553296	0.043246
C121	C	0.300118	1.601391	0.000057
C122	C	0.292183	1.553316	-0.043132
C123	C	0.362704	1.457149	-0.043126
C124	C	0.780588	1.457005	-0.288140
C125	C	0.780606	1.553131	-0.358651
C126	C	0.737425	1.601213	-0.437104
C127	C	0.694230	1.553153	-0.445045
C128	C	0.694217	1.457021	-0.374534
H129	H	0.523786	0.894427	0.071213
H130	H	0.356265	1.417943	-0.224322
H131	H	0.961797	0.592359	-0.078235
Br132	Br	0.816156	1.153196	-0.498786
H133	H	1.246474	0.417862	0.078474
H134	H	0.659074	1.592315	-0.508931
H135	H	1.089781	0.417956	0.509171
Br136	Br	0.635570	0.618487	0.181916
Br137	Br	0.635574	0.391895	0.348161
H138	H	0.880942	0.891630	-0.500437
Br139	Br	0.845986	0.708796	-0.335944
Br140	Br	1.289037	0.391872	0.348142
Br141	Br	0.658633	0.857005	-0.500940
H142	H	1.118503	0.592369	0.224528
Br143	Br	1.270350	0.278466	0.000107
Br144	Br	0.839180	0.618448	-0.101690
Br145	Br	0.766113	0.669886	-0.213710
H146	H	0.872646	0.203127	0.007331
H147	H	0.512959	1.417937	-0.381028
Br148	Br	1.270394	0.278552	0.533063
H149	H	0.815726	0.592446	0.381189
Br150	Br	0.839174	0.391978	0.551706
H151	H	0.659037	0.417950	0.078453
Br152	Br	0.185732	1.618486	-0.347935
Br153	Br	1.085407	0.391833	-0.101686
Br154	Br	0.737375	0.278638	0.533058
Br155	Br	0.919224	0.618474	0.385545
H156	H	0.242668	1.679626	-0.494572
H157	H	0.948914	0.269609	-0.211430
H158	H	0.384991	1.592400	-0.508963
H159	H	0.512972	1.417968	0.078432
Br160	Br	0.737451	1.731680	-0.532791
H161	H	0.659040	1.417909	-0.381012
Br162	Br	0.183959	1.301518	-0.108675
Br163	Br	0.204419	1.731906	0.000058
Br164	Br	0.389362	1.618517	0.101866
Br165	Br	0.291020	0.708661	0.108721
H166	H	0.593739	1.118591	-0.499403
Br167	Br	0.839197	1.391773	-0.181677
Br168	Br	0.185700	1.618599	-0.101740
Br169	Br	0.839228	1.618340	-0.347855
H170	H	0.868511	0.510551	-0.273496
Br171	Br	0.975035	0.043805	-0.052449
Br172	Br	0.351918	1.391915	-0.101734
H173	H	0.606208	0.499798	0.273680
Br174	Br	0.708619	0.340448	0.213912
H175	H	0.525814	0.740747	0.211613
H176	H	0.153536	1.118660	-0.143466
Br177	Br	0.601545	0.853166	-0.049127
H178	H	0.321211	0.891750	0.143617
Br179	Br	0.346858	0.857114	-0.078832
Br180	Br	0.127697	1.153367	0.078802
H181	H	1.118538	0.592306	0.078493
Br182	Br	0.628546	1.301699	-0.663688
