data_functionalizedCrystal
_audit_creation_method	'MofGen! by Chris Wilmer'
_symmetry_space_group_name_H-M	'P1'
_symmetry_Int_Tables_number	1
_symmetry_cell_setting	triclinic
loop_
_symmetry_equiv_pos_as_xyz
  x,y,z
_cell_length_a	18.050591
_cell_length_b	18.050588
_cell_length_c	18.050582
_cell_angle_alpha	90.021152
_cell_angle_beta	90.020922
_cell_angle_gamma	90.025567
loop_
_atom_site_label
_atom_site_type_symbol
_atom_site_fract_x
_atom_site_fract_y
_atom_site_fract_z
Zn1	Zn	1.135286	-0.295786	0.420039
Zn2	Zn	1.135193	-0.419969	0.295852
Zn3	Zn	1.011105	-0.295789	0.295850
Zn4	Zn	1.011050	-0.419930	0.419987
O5	O	1.073158	-0.357868	0.357932
O6	O	1.239198	-0.312274	0.403587
O7	O	1.118717	-0.403514	0.191927
O8	O	1.027639	-0.191864	0.312344
O9	O	1.239130	-0.403511	0.312348
O10	O	1.118874	-0.191862	0.403586
O11	O	1.027550	-0.312279	0.191925
O12	O	0.907173	-0.312241	0.312295
O13	O	1.027546	-0.403444	0.523919
O14	O	0.907133	-0.403447	0.403498
O15	O	1.118821	-0.312236	0.523957
O16	O	1.118664	-0.523888	0.312298
O17	O	1.027456	-0.523860	0.403500
C18	C	0.880206	-0.357841	0.357891
C19	C	0.797661	-0.357847	0.357891
C20	C	1.073064	-0.550821	0.357910
C21	C	1.073092	-0.633366	0.357925
C22	C	1.023571	-0.882203	0.407521
C23	C	1.091288	-0.832739	0.425752
C24	C	1.073246	-0.930487	0.357966
C25	C	1.005457	-0.832869	0.339750
C26	C	1.073167	-0.784502	0.357948
C27	C	1.140999	-0.882110	0.376233
C28	C	1.055123	-0.882244	0.290199
C29	C	1.122886	-0.832802	0.308404
C30	C	1.073291	-1.014585	0.357979
C31	C	1.073130	-0.700405	0.357935
C32	C	0.598210	-0.308191	0.308409
C33	C	0.548789	-0.375927	0.290134
C34	C	0.646530	-0.357869	0.357924
C35	C	0.548870	-0.290157	0.376197
C36	C	0.500545	-0.357885	0.357955
C37	C	0.598196	-0.425641	0.339615
C38	C	0.598281	-0.339825	0.425709
C39	C	0.548882	-0.407607	0.407460
C40	C	0.730628	-0.357859	0.357905
C41	C	0.416449	-0.357903	0.357975
C42	C	1.266864	-0.357897	0.357974
C43	C	1.349410	-0.357909	0.357991
C44	C	1.073188	-0.357835	0.551638
C45	C	1.073200	-0.357821	0.634183
C46	C	1.073273	-0.164163	0.357971
C47	C	1.073322	-0.081617	0.357987
C48	C	1.073172	-0.357848	0.164980
C49	C	1.073304	-0.357652	0.082434
C50	C	1.023602	-0.407353	0.833614
C51	C	1.091357	-0.425511	0.883013
C52	C	1.073237	-0.357765	0.785314
C53	C	1.005519	-0.339586	0.882997
C54	C	1.073266	-0.357711	0.931299
C55	C	1.141027	-0.375958	0.833626
C56	C	1.055143	-0.290002	0.833605
C57	C	1.122945	-0.308134	0.882982
C58	C	1.073219	-0.357797	0.701216
C59	C	1.073292	-0.357679	1.015396
H60	H	0.981648	-0.903892	0.449467
O61	O	0.937048	-0.807164	0.321449
C62	C	0.884900	-0.832328	0.373859
H63	H	0.906923	-0.884283	0.402188
H64	H	0.830495	-0.845725	0.344680
H65	H	0.875114	-0.787325	0.417087
H66	H	1.039802	-0.232736	0.811887
H67	H	0.619869	-0.266226	0.266490
H68	H	0.527163	-0.232894	0.391613
O69	O	0.522884	-0.394028	0.221721
C70	C	0.548026	-0.341518	0.169663
H71	H	0.561922	-0.287482	0.199289
H72	H	0.502811	-0.331052	0.126821
H73	H	0.599674	-0.363559	0.140785
H74	H	0.981668	-0.449342	0.811938
H75	H	0.619773	-0.482928	0.324109
O76	O	1.109514	-0.493891	0.908875
C77	C	1.057043	-0.546037	0.883711
H78	H	1.002982	-0.516500	0.869842
H79	H	1.046615	-0.588889	0.928903
H80	H	1.079102	-0.574888	0.832042
O81	O	1.209434	-0.394339	0.807993
C82	C	1.257295	-0.407180	0.868380
H83	H	1.235386	-0.377087	0.919397
H84	H	1.315023	-0.385668	0.854462
H85	H	1.260179	-0.469166	0.880112
H86	H	0.948239	-0.324232	0.904684
O87	O	1.209423	-0.907677	0.394669
C88	C	1.257238	-0.847243	0.407568
H89	H	1.235294	-0.796260	0.377467
H90	H	1.314979	-0.861124	0.386105
H91	H	1.260108	-0.835478	0.469560
O92	O	1.173189	-0.258163	0.908651
C93	C	1.244477	-0.277566	0.883343
H94	H	1.245850	-0.339187	0.869554
H95	H	1.286948	-0.265092	0.928416
H96	H	1.258280	-0.244111	0.831596
O97	O	1.172957	-0.806959	0.258406
C98	C	1.171955	-0.728855	0.258528
H99	H	1.116367	-0.708569	0.280558
H100	H	1.180275	-0.707619	0.199643
H101	H	1.218413	-0.707222	0.295478
O102	O	1.109418	-0.806827	0.494155
C103	C	1.056961	-0.832008	0.546247
H104	H	1.002913	-0.845937	0.516658
H105	H	1.046494	-0.786803	0.589100
H106	H	1.079056	-0.883643	0.575107
H107	H	0.527360	-0.449673	0.449347
H108	H	0.620037	-0.324530	0.483002
O109	O	1.036719	-0.908176	0.221881
C110	C	0.965223	-0.883119	0.202890
H111	H	0.933139	-0.869252	0.255481
H112	H	0.934809	-0.928374	0.170974
H113	H	0.969907	-0.831472	0.166858
