data_functionalizedCrystal
_audit_creation_method	'MofGen! by Chris Wilmer'
_symmetry_space_group_name_H-M	'P1'
_symmetry_Int_Tables_number	1
_symmetry_cell_setting	triclinic
loop_
_symmetry_equiv_pos_as_xyz
  x,y,z
_cell_length_a	19.805407
_cell_length_b	12.645330
_cell_length_c	19.805399
_cell_angle_alpha	89.976144
_cell_angle_beta	89.979591
_cell_angle_gamma	90.014586
loop_
_atom_site_label
_atom_site_type_symbol
_atom_site_fract_x
_atom_site_fract_y
_atom_site_fract_z
Zn1	Zn	1.034800	-0.422009	-0.382752
Zn2	Zn	1.534800	0.077991	0.117248
Zn3	Zn	1.034742	-0.599287	-0.269571
Zn4	Zn	1.534742	-0.099287	0.230429
Zn5	Zn	0.921615	-0.422044	-0.269575
Zn6	Zn	1.421615	0.077956	0.230425
Zn7	Zn	0.921606	-0.599237	-0.382717
Zn8	Zn	1.421606	-0.099237	0.117283
O9	O	0.978191	-0.510644	-0.326154
O10	O	1.478191	-0.010644	0.173846
O11	O	1.129509	-0.445532	-0.367752
O12	O	1.629509	0.054468	0.132248
O13	O	1.019716	-0.575811	-0.174855
O14	O	1.519716	-0.075811	0.325145
O15	O	0.936658	-0.273692	-0.284605
O16	O	1.436658	0.226308	0.215395
O17	O	1.129467	-0.575777	-0.284598
O18	O	1.629467	-0.075777	0.215402
O19	O	1.019814	-0.273666	-0.367756
O20	O	1.519814	0.226334	0.132244
O21	O	0.936601	-0.445592	-0.174858
O22	O	1.436601	0.054408	0.325142
O23	O	0.826897	-0.445543	-0.284570
O24	O	1.326897	0.054457	0.215430
O25	O	0.936642	-0.575691	-0.477438
O26	O	1.436642	-0.075691	0.022562
O27	O	0.826890	-0.575726	-0.367695
O28	O	1.326890	-0.075726	0.132305
O29	O	1.019805	-0.445483	-0.477464
O30	O	1.519805	0.054517	0.022536
O31	O	1.019706	-0.747628	-0.284564
O32	O	1.519706	-0.247628	0.215436
O33	O	0.936585	-0.747591	-0.367691
O34	O	1.436585	-0.247591	0.132309
C35	C	0.802335	-0.510633	-0.326129
C36	C	1.302335	-0.010633	0.173871
C37	C	0.727103	-0.510654	-0.326135
C38	C	1.227103	-0.010654	0.173865
C39	C	0.265338	-0.442952	-0.369544
C40	C	0.765338	0.057048	0.130456
C41	C	0.336026	-0.442954	-0.369539
C42	C	0.836026	0.057046	0.130461
C43	C	0.371341	-0.510660	-0.326176
C44	C	0.871341	-0.010660	0.173824
C45	C	0.335964	-0.578377	-0.282819
C46	C	0.835964	-0.078377	0.217181
C47	C	0.265277	-0.578379	-0.282828
C48	C	0.765277	-0.078379	0.217172
C49	C	0.621038	-0.578369	-0.282783
C50	C	1.121038	-0.078369	0.217217
C51	C	0.691730	-0.578358	-0.282776
C52	C	1.191730	-0.078358	0.217224
C53	C	0.691786	-0.442943	-0.369495
C54	C	1.191786	0.057057	0.130505
C55	C	0.621099	-0.442946	-0.369504
C56	C	1.121099	0.057054	0.130496
C57	C	0.585729	-0.510666	-0.326150
C58	C	1.085729	-0.010666	0.173850
C59	C	0.509080	-0.510664	-0.326156
C60	C	1.009080	-0.010664	0.173844
C61	C	0.447988	-0.510657	-0.326165
C62	C	0.947988	-0.010657	0.173835
C63	C	0.978157	-0.786074	-0.326138
C64	C	1.478157	-0.286074	0.173862
C65	C	0.978204	-0.903904	-0.326154
C66	C	1.478204	-0.403904	0.173846
C67	C	1.030412	-1.071447	-0.273752
C68	C	1.530412	-0.571447	0.226248
C69	C	1.030582	-0.948887	-0.273880
C70	C	1.530582	-0.448887	0.226120
C71	C	0.997546	-0.948291	-0.397501
C72	C	1.497546	-0.448291	0.102499
C73	C	0.997960	-1.070889	-0.397223
C74	C	1.497960	-0.570889	0.102777
C75	C	0.906635	-1.071234	-0.307911
C76	C	1.406635	-0.571234	0.192089
C77	C	0.906978	-0.948629	-0.306311
C78	C	1.406978	-0.448629	0.193689
C79	C	1.154734	-0.510656	-0.326179
C80	C	1.654734	-0.010656	0.173821
C81	C	1.229966	-0.510661	-0.326189
C82	C	1.729966	-0.010661	0.173811
C83	C	0.978229	-0.510578	-0.502697
C84	C	1.478229	-0.010578	-0.002697
C85	C	0.978245	-0.510549	-0.577929
C86	C	1.478245	-0.010549	-0.077929
C87	C	0.978243	-0.234139	-0.326185
C88	C	1.478243	0.265861	0.173815
C89	C	0.978266	-0.116309	-0.326198
C90	C	1.478266	0.383691	0.173802
C91	C	1.021549	-0.442746	-0.613288
C92	C	1.521549	0.057254	-0.113288
C93	C	1.021556	-0.442715	-0.683976
C94	C	1.521556	0.057285	-0.183976
C95	C	0.978262	-0.510494	-0.719304
C96	C	1.478262	-0.010494	-0.219304
C97	C	0.934953	-0.578300	-0.683940
C98	C	1.434953	-0.078300	-0.183940
C99	C	0.934943	-0.578324	-0.613253
C100	C	1.434943	-0.078324	-0.113253
C101	C	0.934991	-0.578201	-0.969014
C102	C	1.434991	-0.078201	-0.469014
C103	C	0.935006	-0.578173	-1.039706
C104	C	1.435006	-0.078173	-0.539706
C105	C	1.021604	-0.442592	-1.039737
C106	C	1.521604	0.057408	-0.539737
C107	C	1.021594	-0.442617	-0.969050
C108	C	1.521594	0.057383	-0.469050
C109	C	0.978283	-0.510418	-0.933692
C110	C	1.478283	-0.010418	-0.433692
C111	C	0.978275	-0.510449	-0.857043
C112	C	1.478275	-0.010449	-0.357043
C113	C	0.978273	-0.510469	-0.795952
C114	C	1.478273	-0.010469	-0.295952
C115	C	0.978192	-0.510634	-0.150298
C116	C	1.478192	-0.010634	0.349702
C117	C	0.978307	-0.510364	-0.075066
C118	C	1.478307	-0.010364	0.424934
H119	H	0.592349	-0.387809	-0.404812
H120	H	1.092349	0.112191	0.095188
H121	H	0.866030	-0.918020	-0.341709
H122	H	1.366030	-0.418020	0.158291
N123	N	1.015379	-0.911217	-0.207526
N124	N	1.515379	-0.411217	0.292474
N125	N	1.012892	-0.814038	-0.196272
N126	N	1.512892	-0.314038	0.303728
H127	H	1.002144	-0.787436	-0.149409
H128	H	1.502144	-0.287436	0.350591
H129	H	1.056807	-0.387556	-0.584528
H130	H	1.556807	0.112444	-0.084528
H131	H	0.720594	-0.387806	-0.404798
H132	H	1.220594	0.112194	0.095202
H133	H	1.050318	-1.099400	-0.412713
H134	H	1.550318	-0.599400	0.087287
H135	H	1.056821	-0.387506	-0.712762
H136	H	1.556821	0.112494	-0.212762
N137	N	1.065832	-0.373323	-1.075867
N138	N	1.565832	0.126677	-0.575867
N139	N	1.042036	-0.305752	-1.115312
N140	N	1.542036	0.194248	-0.615312
H141	H	1.073271	-0.256834	-1.140829
H142	H	1.573271	0.243166	-0.640829
H143	H	0.720481	-0.633498	-0.247463
H144	H	1.220481	-0.133498	0.252537
H145	H	0.592247	-0.633507	-0.247480
H146	H	1.092247	-0.133507	0.252520
H147	H	0.960721	-0.919151	-0.437624
H148	H	1.460721	-0.419151	0.062376
N149	N	0.890762	-0.647466	-0.932898
N150	N	1.390762	-0.147466	-0.432898
N151	N	0.914552	-0.715034	-0.893447
N152	N	1.414552	-0.215034	-0.393447
H153	H	0.883313	-0.763954	-0.867936
H154	H	1.383313	-0.263954	-0.367936
H155	H	0.364724	-0.633508	-0.247514
H156	H	0.864724	-0.133508	0.252486
H157	H	0.899673	-0.633526	-0.584465
H158	H	1.399673	-0.133526	-0.084465
N159	N	0.229154	-0.647554	-0.238540
N160	N	0.729154	-0.147554	0.261460
N161	N	0.260691	-0.708003	-0.199826
N162	N	0.760691	-0.208003	0.300174
H163	H	0.235180	-0.756864	-0.168548
H164	H	0.735180	-0.256864	0.331452
H165	H	0.364823	-0.387822	-0.404846
H166	H	0.864823	0.112178	0.095154
N167	N	1.015422	-1.108531	-0.207195
N168	N	1.515422	-0.608531	0.292805
N169	N	0.966135	-1.168462	-0.197633
N170	N	1.466135	-0.668462	0.302367
H171	H	0.955547	-1.194660	-0.150625
H172	H	1.455547	-0.694660	0.349375
H173	H	0.961642	-1.100562	-0.437645
H174	H	1.461642	-0.600562	0.062355
H175	H	0.889046	-1.102239	-0.256791
H176	H	1.389046	-0.602239	0.243209
H177	H	0.236589	-0.387811	-0.404852
H178	H	0.736589	0.112189	0.095148
N179	N	1.096608	-1.110002	-0.288760
N180	N	1.596608	-0.610002	0.211240
N181	N	1.105547	-1.170375	-0.337913
N182	N	1.605547	-0.670375	0.162087
H183	H	1.152298	-1.197606	-0.348514
H184	H	1.652298	-0.697606	0.151486
N185	N	1.062485	-0.909658	-0.417253
N186	N	1.562485	-0.409658	0.082747
N187	N	1.094634	-0.849448	-0.378908
N188	N	1.594634	-0.349448	0.121092
H189	H	1.140499	-0.822162	-0.392854
H190	H	1.640499	-0.322162	0.107146
N191	N	0.888691	-0.912250	-0.240441
N192	N	1.388691	-0.412250	0.259559
N193	N	0.927931	-0.853599	-0.208192
N194	N	1.427931	-0.353599	0.291808
H195	H	0.915019	-0.827903	-0.161670
H196	H	1.415019	-0.327903	0.338330
N197	N	0.890727	-0.647519	-0.720035
N198	N	1.390727	-0.147519	-0.220035
N199	N	0.890741	-0.647490	-0.783148
N200	N	1.390741	-0.147490	-0.283148
H201	H	0.859506	-0.696378	-0.808641
H202	H	1.359506	-0.196378	-0.308641
N203	N	0.857900	-1.107635	-0.355833
N204	N	1.357900	-0.607635	0.144167
N205	N	0.875751	-1.166516	-0.403267
N206	N	1.375751	-0.666516	0.096733
H207	H	0.841337	-1.192230	-0.437115
H208	H	1.341337	-0.692230	0.062885
N209	N	1.097141	-0.912000	-0.289053
N210	N	1.597141	-0.412000	0.210947
N211	N	1.143611	-0.976801	-0.299585
N212	N	1.643611	-0.476801	0.200415
H213	H	1.190621	-0.950752	-0.310303
H214	H	1.690621	-0.450752	0.189697
H215	H	1.056852	-0.387428	-0.940289
H216	H	1.556852	0.112572	-0.440289
N217	N	0.890772	-0.647414	-1.075784
N218	N	1.390772	-0.147414	-0.575784
N219	N	0.852102	-0.707942	-1.044208
N220	N	1.352102	-0.207942	-0.544208
H221	H	0.820863	-0.756840	-1.069687
H222	H	1.320863	-0.256840	-0.569687
