data_functionalizedCrystal
_audit_creation_method	'MofGen! by Chris Wilmer'
_symmetry_space_group_name_H-M	'P1'
_symmetry_Int_Tables_number	1
_symmetry_cell_setting	triclinic
loop_
_symmetry_equiv_pos_as_xyz
  x,y,z
_cell_length_a	29.839125
_cell_length_b	14.908750
_cell_length_c	14.908520
_cell_angle_alpha	90.164565
_cell_angle_beta	93.282079
_cell_angle_gamma	86.709930
loop_
_atom_site_label
_atom_site_type_symbol
_atom_site_fract_x
_atom_site_fract_y
_atom_site_fract_z
Zn1	Zn	-0.227608	-1.353839	-0.437396
Zn2	Zn	-0.157052	-1.345077	-0.587727
Zn3	Zn	-0.156569	-1.203501	-0.428716
Zn4	Zn	-0.236231	-1.194771	-0.579038
O5	O	-0.194365	-1.274297	-0.508219
O6	O	-0.214842	-1.478497	-0.464606
O7	O	-0.094121	-1.326283	-0.566637
O8	O	-0.162181	-1.230765	-0.304043
O9	O	-0.163005	-1.472060	-0.575053
O10	O	-0.214373	-1.341217	-0.310420
O11	O	-0.093766	-1.222268	-0.449813
O12	O	-0.170542	-1.076523	-0.441388
O13	O	-0.297954	-1.215885	-0.560246
O14	O	-0.229070	-1.070109	-0.551830
O15	O	-0.291618	-1.332752	-0.456181
O16	O	-0.171367	-1.317818	-0.712398
O17	O	-0.229539	-1.207389	-0.706015
C18	C	-0.200690	-1.040692	-0.494725
C19	C	-0.203407	-0.940753	-0.488974
C20	C	-0.311542	-1.274322	-0.508213
C21	C	-0.361476	-1.274333	-0.508210
C22	C	-0.234270	-0.803236	-0.423465
C23	C	-0.231719	-0.897138	-0.428862
C24	C	-0.177645	-0.890460	-0.543696
C25	C	-0.180196	-0.796559	-0.538300
C26	C	-0.208509	-0.752950	-0.478182
C27	C	-0.211057	-0.659047	-0.472782
C28	C	-0.156986	-0.652371	-0.587620
C29	C	-0.154435	-0.746272	-0.593016
C30	C	-0.667818	-1.335254	-0.453876
C31	C	-0.855487	-1.335303	-0.453802
O32	O	-0.876949	-1.387029	-0.407687
N33	N	-0.882251	-1.274466	-0.507976
C34	C	-0.862095	-1.213608	-0.562167
O35	O	-0.889165	-1.161857	-0.608237
C36	C	-0.674426	-1.213555	-0.562236
C37	C	-0.647664	-1.274403	-0.508066
C38	C	-0.641056	-1.396096	-0.399710
C39	C	-0.594142	-1.396086	-0.399732
C40	C	-0.573989	-1.335235	-0.453922
C41	C	-0.600750	-1.274393	-0.508088
C42	C	-0.654270	-1.152693	-0.616422
C43	C	-0.607350	-1.152684	-0.616433
C44	C	-0.580588	-1.213532	-0.562262
C45	C	-0.533682	-1.213532	-0.562301
N46	N	-0.506918	-1.274369	-0.508127
C47	C	-0.527072	-1.335221	-0.453938
C48	C	-0.960623	-1.213641	-0.562129
C49	C	-1.007540	-1.213655	-0.562113
C50	C	-1.000930	-1.335349	-0.453746
C51	C	-0.954012	-1.335339	-0.453768
C52	C	-0.933860	-1.274478	-0.507955
C53	C	-0.428548	-1.335197	-0.453990
C54	C	-0.381630	-1.335184	-0.454020
C55	C	-0.388244	-1.213487	-0.562383
C56	C	-0.435159	-1.213502	-0.562357
C57	C	-0.455309	-1.274360	-0.508153
O58	O	-0.512190	-1.161826	-0.608384
O59	O	-0.499994	-1.386951	-0.407860
C60	C	-0.714732	-1.335264	-0.453854
C61	C	-0.741494	-1.274422	-0.508020
C62	C	-0.721340	-1.213570	-0.562210
C63	C	-0.788411	-1.274436	-0.508004
C64	C	-0.808564	-1.335287	-0.453815
C65	C	-0.781800	-1.396125	-0.399642
C66	C	-0.734886	-1.396115	-0.399664
C67	C	-0.748104	-1.152733	-0.616383
C68	C	-0.795018	-1.152748	-0.616357
C69	C	-0.815172	-1.213600	-0.562167
C70	C	-0.077640	-1.274328	-0.508164
C71	C	-0.027694	-1.274506	-0.507924
C72	C	-0.201450	-1.260730	-0.741833
C73	C	-0.204494	-1.255008	-0.841779
C74	C	-0.188012	-0.508815	-0.521758
C75	C	-0.185295	-0.608754	-0.527504
C76	C	-0.149682	-1.359364	-1.036180
C77	C	-0.152541	-1.353991	-1.130088
C78	C	-0.213071	-1.238893	-1.123505
C79	C	-0.210213	-1.244267	-1.029597
C80	C	-0.178517	-1.304503	-0.985938
C81	C	-0.175656	-1.309871	-0.892028
C82	C	-0.236189	-1.194779	-0.885447
C83	C	-0.239047	-1.189406	-0.979355
C84	C	-0.187261	-1.287942	-0.273695
C85	C	-0.184234	-1.293757	-0.173754
H86	H	-0.234109	-0.623543	-0.423826
H87	H	-0.257318	-0.767730	-0.374506
H88	H	-1.029326	-1.164116	-0.606234
C89	C	-0.146982	-0.937933	-0.609023
C90	C	-0.172662	-0.988529	-0.669811
C91	C	-0.144431	-1.032284	-0.729996
H92	H	-0.131992	-0.894640	-0.640935
H93	H	-0.125405	-0.976604	-0.576699
H94	H	-0.194231	-0.949862	-0.702131
H95	H	-0.187652	-1.031837	-0.637925
H96	H	-0.122854	-1.070955	-0.697672
H97	H	-0.129442	-0.988985	-0.761901
H98	H	-0.161850	-1.066625	-0.771242
C99	C	-0.924935	-1.401494	-0.395101
C100	C	-0.897989	-1.456173	-0.449342
C101	C	-0.871205	-1.517132	-0.395325
H102	H	-0.906337	-1.369477	-0.353930
H103	H	-0.943645	-1.437787	-0.362846
H104	H	-0.879281	-1.419884	-0.481582
H105	H	-0.916575	-1.488210	-0.490512
H106	H	-0.889915	-1.553425	-0.363070
H107	H	-0.852610	-1.485107	-0.354156
H108	H	-0.852922	-1.554244	-0.432120
H109	H	-0.264854	-1.140366	-1.014915
C110	C	-0.267473	-1.135319	-0.830740
C111	C	-0.258194	-1.152927	-0.739155
C112	C	-0.287006	-1.098178	-0.688733
H113	H	-0.263004	-1.074003	-0.842597
H114	H	-0.297785	-1.147564	-0.846798
H115	H	-0.227890	-1.140675	-0.723103
H116	H	-0.262666	-1.214232	-0.727271
H117	H	-0.317317	-1.110423	-0.704791
H118	H	-0.282534	-1.036866	-0.700597
H119	H	-0.280717	-1.110123	-0.626587
C120	C	-0.121305	-1.413544	-1.184800
C121	C	-0.130605	-1.395980	-1.276388
C122	C	-0.101851	-1.450850	-1.326816
H123	H	-0.090979	-1.401395	-1.168820
H124	H	-0.125823	-1.474834	-1.172869
H125	H	-0.126083	-1.334703	-1.288313
H126	H	-0.160926	-1.408134	-1.292395
H127	H	-0.106369	-1.512141	-1.314886
H128	H	-0.071526	-1.438697	-1.310829
H129	H	-0.108160	-1.438947	-1.388964
C130	C	-0.247460	-1.173365	-1.170790
C131	C	-0.239365	-1.085719	-1.142893
C132	C	-0.271040	-1.025333	-1.186422
H133	H	-0.245067	-1.177903	-1.233921
H134	H	-0.276833	-1.187312	-1.156093
H135	H	-0.209999	-1.071777	-1.157596
H136	H	-0.241762	-1.081153	-1.079769
H137	H	-0.300413	-1.039280	-1.171725
H138	H	-0.268644	-1.029879	-1.249551
H139	H	-0.265554	-0.965860	-1.167494
H140	H	-0.816804	-1.103200	-0.660477
C141	C	-0.141261	-1.375181	-0.844456
C142	C	-0.144919	-1.368130	-0.751459
C143	C	-0.113237	-1.428274	-0.707610
H144	H	-0.146662	-1.434747	-0.863166
H145	H	-0.111883	-1.361182	-0.859073
H146	H	-0.174289	-1.382135	-0.736848
H147	H	-0.139513	-1.308577	-0.732723
H148	H	-0.083860	-1.414276	-0.722228
H149	H	-0.118641	-1.487837	-0.726327
H150	H	-0.115712	-1.423493	-0.644508
H151	H	-0.131385	-0.781791	-0.641964
H152	H	-0.798217	-1.445675	-0.355522
H153	H	-0.731700	-1.103180	-0.660513
H154	H	-0.252696	-0.938078	-0.384306
H155	H	-0.136011	-0.611417	-0.632176
H156	H	-0.359842	-1.384737	-0.409908
H157	H	-0.444949	-1.384750	-0.409849
H158	H	-0.572356	-1.445633	-0.355620
H159	H	-1.017346	-1.384898	-0.409624
H160	H	-0.657460	-1.445649	-0.355577
H161	H	-0.944220	-1.164081	-0.606261
C162	C	-0.683240	-1.086522	-0.675259
C163	C	-0.655539	-1.033216	-0.722688
C164	C	-0.682210	-0.972235	-0.776890
H165	H	-0.701810	-1.118522	-0.716499
H166	H	-0.701549	-1.049301	-0.638607
H167	H	-0.637239	-1.070432	-0.759338
H168	H	-0.636970	-1.001197	-0.681472
H169	H	-0.700518	-0.935015	-0.740238
H170	H	-0.700778	-1.004243	-0.818124
H171	H	-0.663419	-0.936055	-0.809071
H172	H	-0.456949	-1.163963	-0.606475
H173	H	-0.590945	-1.103114	-0.660550
H174	H	-0.371827	-1.163946	-0.606506
H175	H	-0.713100	-1.445663	-0.355553
H176	H	-0.123871	-1.408404	-1.000632
