data_functionalizedCrystal
_audit_creation_method	'MofGen! by Chris Wilmer'
_symmetry_space_group_name_H-M	'P1'
_symmetry_Int_Tables_number	1
_symmetry_cell_setting	triclinic
loop_
_symmetry_equiv_pos_as_xyz
  x,y,z
_cell_length_a	15.944551
_cell_length_b	14.044220
_cell_length_c	12.503572
_cell_angle_alpha	86.156832
_cell_angle_beta	86.485927
_cell_angle_gamma	91.656192
loop_
_atom_site_label
_atom_site_type_symbol
_atom_site_fract_x
_atom_site_fract_y
_atom_site_fract_z
O1	O	1.128105	-0.116774	-0.089210
O2	O	0.884686	-0.131845	-0.089237
O3	O	1.002741	0.013675	-0.089213
O4	O	1.010050	-0.262294	-0.089234
O5	O	0.993864	0.002713	0.089427
O6	O	0.875808	-0.142807	0.089403
O7	O	1.119228	-0.127736	0.089430
Cu8	Cu	0.996708	-0.136272	0.105728
Cu9	Cu	1.007206	-0.123309	-0.105535
O10	O	1.001173	-0.273256	0.089406
C11	C	0.848906	-0.136700	0.000080
C12	C	0.755520	-0.134823	0.000070
N13	N	0.989330	-0.145390	0.254319
C14	C	0.995104	0.043508	0.000107
C15	C	0.985563	0.148735	0.000107
C16	C	0.533573	-0.040141	0.000097
C17	C	0.480222	-0.078704	-0.087985
C18	C	0.584540	-0.131431	0.000083
C19	C	0.471493	-0.089533	0.088140
C20	C	0.419380	-0.128147	0.000100
C21	C	0.532423	-0.170014	-0.088073
C22	C	0.523696	-0.180836	0.088132
C23	C	0.470368	-0.219464	0.000028
C24	C	0.679684	-0.133320	0.000072
C25	C	0.324238	-0.126264	0.000103
C26	C	1.155007	-0.122881	0.000111
C27	C	1.248394	-0.124757	0.000114
C28	C	1.008810	-0.303089	0.000084
C29	C	1.018352	-0.408315	0.000076
C30	C	0.968120	0.341398	0.000090
C31	C	1.035790	0.399027	0.000094
C32	C	1.026085	0.506232	0.000084
C33	C	0.977824	0.234184	0.000099
N34	N	1.014590	-0.114183	-0.254126
C35	C	0.978477	-0.158810	0.473432
C36	C	1.025440	-0.100766	0.526768
C37	C	1.019401	-0.108234	0.648690
C38	C	0.984515	-0.151344	0.351499
H39	H	0.460921	-0.035522	-0.162447
C40	C	0.568323	-0.215977	-0.188768
H41	H	0.627849	-0.216863	-0.188173
H42	H	0.546153	-0.279470	-0.189001
H43	H	0.553126	-0.179944	-0.251253
H44	H	0.933740	-0.214108	0.519330
H45	H	1.101018	0.367856	0.000029
H46	H	1.070181	-0.045466	0.480864
H47	H	0.561238	0.035630	-0.000006
C48	C	0.880012	0.383503	0.000078
H49	H	0.838827	0.333250	0.000071
H50	H	0.870330	0.417803	0.062369
H51	H	0.876521	0.425430	-0.062230
H52	H	0.543015	-0.223986	0.162597
C53	C	0.433240	-0.321909	-0.000044
H54	H	0.454279	-0.350338	-0.062671
H55	H	0.448833	-0.358380	0.061928
H56	H	0.373695	-0.320205	0.000542
C57	C	0.435455	-0.043529	0.188737
H58	H	0.457207	0.020175	0.188625
H59	H	0.375905	-0.043193	0.188367
H60	H	0.451037	-0.079177	0.251283
