data_functionalizedCrystal
_audit_creation_method	'MofGen! by Chris Wilmer'
_symmetry_space_group_name_H-M	'P1'
_symmetry_Int_Tables_number	1
_symmetry_cell_setting	triclinic
loop_
_symmetry_equiv_pos_as_xyz
  x,y,z
_cell_length_a	13.339070
_cell_length_b	17.699083
_cell_length_c	16.776229
_cell_angle_alpha	90.007545
_cell_angle_beta	90.006797
_cell_angle_gamma	99.456154
loop_
_atom_site_label
_atom_site_type_symbol
_atom_site_fract_x
_atom_site_fract_y
_atom_site_fract_z
O1	O	-1.341354	-0.379243	-0.066323
O2	O	-0.841354	0.120757	0.433677
O3	O	-1.046949	-0.329465	-0.066318
O4	O	-0.546949	0.170535	0.433682
O5	O	-1.202469	-0.245923	-0.066314
O6	O	-0.702469	0.254077	0.433686
O7	O	-1.185834	-0.462785	-0.066327
O8	O	-0.685834	0.037215	0.433673
O9	O	-1.202449	-0.245911	0.066263
O10	O	-0.702449	0.254089	0.566263
O11	O	-1.046929	-0.329454	0.066259
O12	O	-0.546929	0.170546	0.566259
O13	O	-1.341334	-0.379231	0.066253
O14	O	-0.841334	0.120769	0.566253
Zn15	Zn	-1.194128	-0.354341	0.087305
Zn16	Zn	-0.694128	0.145659	0.587305
Zn17	Zn	-1.194155	-0.354356	-0.087370
Zn18	Zn	-0.694155	0.145644	0.412630
O19	O	-1.185814	-0.462773	0.066249
O20	O	-0.685814	0.037227	0.566249
C21	C	-1.201863	-0.217594	-0.000025
C22	C	-0.701863	0.282406	0.499975
C23	C	-1.200075	-0.133198	-0.000025
C24	C	-0.700075	0.366802	0.499975
C25	C	-1.009271	-0.321051	-0.000029
C26	C	-0.509271	0.178949	0.499971
C27	C	-0.897030	-0.295987	-0.000026
C28	C	-0.397030	0.204013	0.499974
C29	C	-1.379012	-0.387645	-0.000038
C30	C	-0.879012	0.112355	0.499962
C31	C	-1.491253	-0.412709	-0.000045
C32	C	-0.991253	0.087291	0.499955
C33	C	-0.531758	-0.490868	-0.000051
C34	C	-0.031758	0.009132	0.499949
C35	C	-0.637213	-0.514418	-0.000056
C36	C	-0.137213	-0.014418	0.499944
C37	C	-0.702173	-0.459813	-0.000048
C38	C	-0.202173	0.040187	0.499952
C39	C	-0.661667	-0.381652	-0.000037
C40	C	-0.161667	0.118348	0.499963
C41	C	-0.556202	-0.358099	-0.000038
C42	C	-0.056202	0.141901	0.499962
C43	C	-0.726616	-0.327044	-0.000035
C44	C	-0.226616	0.172956	0.499965
C45	C	-0.686110	-0.248884	-0.000023
C46	C	-0.186110	0.251116	0.499977
C47	C	-0.580655	-0.225335	-0.000024
C48	C	-0.080655	0.274665	0.499976
C49	C	-0.515696	-0.279940	-0.000032
C50	C	-0.015696	0.220060	0.499968
C51	C	-0.832081	-0.350597	-0.000034
C52	C	-0.332081	0.149403	0.499966
C53	C	-0.856524	-0.217829	-0.000020
C54	C	-0.356524	0.282171	0.499980
C55	C	-0.751070	-0.194278	-0.000016
C56	C	-0.251070	0.305722	0.499984
C57	C	-1.186420	-0.491102	-0.000041
C58	C	-0.686420	0.008898	0.499959
C59	C	-1.188208	-0.575498	-0.000047
C60	C	-0.688208	-0.075498	0.499953
N61	N	-1.194117	-0.354331	0.206517
N62	N	-0.694117	0.145669	0.706517
C63	C	-1.291362	-0.103873	-0.000026
C64	C	-0.791362	0.396127	0.499974
C65	C	-1.289675	-0.024573	-0.000033
C66	C	-0.789675	0.475427	0.499967
C67	C	-1.196701	0.025400	-0.000033
C68	C	-0.696701	0.525400	0.499967
C69	C	-1.105407	-0.003930	-0.000035
C70	C	-0.605407	0.496070	0.499965
C71	C	-1.107095	-0.083228	-0.000034
C72	C	-0.607095	0.416772	0.499966
C73	C	-1.098600	0.315872	-0.000041
C74	C	-0.598600	0.815872	0.499959
C75	C	-1.096920	0.395175	-0.000040
C76	C	-0.596920	0.895175	0.499960
C77	C	-1.281181	0.374527	-0.000040
C78	C	-0.781181	0.874527	0.499960
C79	C	-1.282869	0.295229	-0.000039
C80	C	-0.782869	0.795229	0.499961
C81	C	-1.191575	0.265906	-0.000045
C82	C	-0.691575	0.765906	0.499955
C83	C	-1.193405	0.179920	-0.000039
C84	C	-0.693405	0.679920	0.499961
C85	C	-1.194871	0.111385	-0.000034
C86	C	-0.694871	0.611385	0.499966
N87	N	-1.194174	-0.354361	-0.206581
N88	N	-0.694174	0.145639	0.293419
C89	C	-1.263002	-0.317364	0.248235
C90	C	-0.763002	0.182636	0.748235
C91	C	-1.263008	-0.317365	0.331688
C92	C	-0.763008	0.182635	0.831688
C93	C	-1.194132	-0.354337	0.373419
C94	C	-0.694132	0.145663	0.873419
C95	C	-1.125240	-0.391305	0.331695
C96	C	-0.625240	0.108695	0.831695
C97	C	-1.125230	-0.391300	0.248244
C98	C	-0.625230	0.108700	0.748244
C99	C	-1.125276	-0.391328	0.668242
C100	C	-0.625276	0.108672	1.168242
C101	C	-1.125293	-0.391333	0.751698
C102	C	-0.625293	0.108667	1.251698
C103	C	-1.263054	-0.317393	0.751686
C104	C	-0.763054	0.182607	1.251686
C105	C	-1.263044	-0.317387	0.668235
C106	C	-0.763044	0.182613	1.168235
C107	C	-1.194149	-0.354352	0.626517
C108	C	-0.694149	0.145648	1.126517
C109	C	-1.194142	-0.354349	0.536029
C110	C	-0.694142	0.145651	1.036029
C111	C	-1.194143	-0.354345	0.463906
C112	C	-0.694143	0.145655	0.963906
H113	H	-0.865050	-0.414236	-0.000040
H114	H	-0.365050	0.085764	0.499960
N115	N	-1.337329	-0.277506	0.376672
N116	N	-0.837329	0.222494	0.876672
H117	H	-1.298808	-0.235874	0.411312
H118	H	-0.798808	0.264126	0.911312
H119	H	-1.380940	-0.254145	0.337510
H120	H	-0.880940	0.245855	0.837510
H121	H	-0.788038	-0.478992	-0.000054
H122	H	-0.288038	0.021008	0.499946
H123	H	-1.029706	0.036765	-0.000041
H124	H	-0.529706	0.536765	0.499959
N125	N	-1.000139	0.284250	-0.000045
N126	N	-0.500139	0.784250	0.499955
H127	H	-0.940987	0.327943	-0.000041
H128	H	-0.440987	0.827943	0.499959
H129	H	-0.996816	0.251806	0.049103
H130	H	-0.496816	0.751806	0.549103
N131	N	-0.707365	-0.109981	-0.000010
N132	N	-0.207365	0.390019	0.499990
H133	H	-0.731067	-0.085058	-0.049152
H134	H	-0.231067	0.414942	0.450848
H135	H	-0.731058	-0.085115	0.049172
H136	H	-0.231058	0.414885	0.549172
N137	N	-1.379646	0.406162	-0.000044
N138	N	-0.879646	0.906162	0.499956
H139	H	-1.420231	0.387838	-0.049187
H140	H	-0.920231	0.887838	0.450813
H141	H	-1.420127	0.387851	0.049137
H142	H	-0.920127	0.887851	0.549137
N143	N	-1.050937	-0.431178	0.203246
N144	N	-0.550937	0.068822	0.703246
H145	H	-1.061379	-0.425562	0.144048
H146	H	-0.561379	0.074438	0.644048
H147	H	-0.979238	-0.407345	0.217850
H148	H	-0.479238	0.092655	0.717850
H149	H	-0.478860	-0.535319	-0.000064
H150	H	0.021140	-0.035319	0.499936
H151	H	-0.429825	-0.260769	-0.000028
H152	H	0.070175	0.239231	0.499972
N153	N	-1.337335	-0.277514	0.623224
N154	N	-0.837335	0.222486	1.123224
H155	H	-1.380974	-0.254094	0.662316
H156	H	-0.880974	0.245906	1.162316
H157	H	-1.298707	-0.235925	0.588614
H158	H	-0.798707	0.264075	1.088614
H159	H	-0.547679	-0.161691	-0.000023
H160	H	-0.047679	0.338309	0.499977
N161	N	-0.680901	-0.598713	-0.000081
N162	N	-0.180901	-0.098713	0.499919
H163	H	-0.623750	-0.629732	-0.000087
H164	H	-0.123750	-0.129732	0.499913
H165	H	-0.724119	-0.611381	0.049063
H166	H	-0.224119	-0.111381	0.549063
H167	H	-0.909415	-0.173364	-0.000017
H168	H	-0.409415	0.326636	0.499983
N169	N	-1.391644	-0.157768	-0.000023
N170	N	-0.891644	0.342232	0.499977
H171	H	-1.378865	-0.212454	-0.000017
H172	H	-0.878865	0.287546	0.499983
H173	H	-1.431568	-0.148401	0.049126
H174	H	-0.931568	0.351599	0.549126
N175	N	-1.388134	0.007057	-0.000029
N176	N	-0.888134	0.507057	0.499971
H177	H	-1.447289	-0.036633	-0.000021
H178	H	-0.947289	0.463367	0.499979
H179	H	-1.391431	0.039517	0.049119
H180	H	-0.891431	0.539517	0.549119
H181	H	-1.358578	0.254543	-0.000034
H182	H	-0.858578	0.754543	0.499966
N183	N	-1.337364	-0.277521	0.796680
N184	N	-0.837364	0.222479	1.296680
H185	H	-1.326921	-0.283131	0.855879
H186	H	-0.826921	0.216869	1.355879
H187	H	-1.325825	-0.221398	0.782104
H188	H	-0.825825	0.278602	1.282104
N189	N	-0.996636	0.449079	-0.000037
N190	N	-0.496636	0.949079	0.499963
H191	H	-0.939057	0.418471	-0.000041
H192	H	-0.439057	0.918471	0.499959
H193	H	-0.991936	0.482426	-0.049182
H194	H	-0.491936	0.982426	0.450818
H195	H	-1.032759	-0.107103	-0.000033
H196	H	-0.532759	0.392897	0.499967
N197	N	-1.050997	-0.431206	0.796712
N198	N	-0.550997	0.068794	1.296712
H199	H	-1.007346	-0.454619	0.757622
H200	H	-0.507346	0.045381	1.257622
H201	H	-1.006389	-0.392834	0.831351
H202	H	-0.506389	0.107166	1.331351
N203	N	-1.337296	-0.277492	0.203227
N204	N	-0.837296	0.222508	0.703227
H205	H	-1.380933	-0.254073	0.242323
H206	H	-0.880933	0.245927	0.742323
H207	H	-1.298671	-0.235901	0.168617
H208	H	-0.798671	0.264099	0.668617
H209	H	-1.069181	-0.421427	0.634282
H210	H	-0.569181	0.078573	1.134282
H211	H	-1.069155	-0.421406	0.365678
H212	H	-0.569155	0.078594	0.865678
