data_functionalizedCrystal
_audit_creation_method	'MofGen! by Chris Wilmer'
_symmetry_space_group_name_H-M	'P1'
_symmetry_Int_Tables_number	1
_symmetry_cell_setting	triclinic
loop_
_symmetry_equiv_pos_as_xyz
  x,y,z
_cell_length_a	19.188905
_cell_length_b	19.188925
_cell_length_c	17.666332
_cell_angle_alpha	89.993867
_cell_angle_beta	89.983521
_cell_angle_gamma	83.138552
loop_
_atom_site_label
_atom_site_type_symbol
_atom_site_fract_x
_atom_site_fract_y
_atom_site_fract_z
O1	O	0.926159	0.087086	-0.063072
O2	O	0.722845	0.098838	-0.063047
O3	O	0.830371	-0.008694	-0.063056
O4	O	0.818633	0.194619	-0.063063
O5	O	0.830352	-0.008700	0.062841
O6	O	0.722826	0.098833	0.062850
O7	O	0.926140	0.087080	0.062824
Cu8	Cu	0.824482	0.092956	0.074333
Cu9	Cu	0.824504	0.092963	-0.074555
O10	O	0.818614	0.194613	0.062834
C11	C	0.696824	0.098458	-0.000095
C12	C	0.619319	0.097324	-0.000085
C13	C	0.582937	0.096783	-0.068713
C14	C	0.510114	0.095710	-0.068723
C15	C	0.473676	0.095164	-0.000100
C16	C	0.510066	0.095710	0.068538
C17	C	0.582887	0.096790	0.068545
N18	N	0.364649	0.053733	0.050971
N19	N	0.295472	0.052706	0.050959
C20	C	0.254270	0.091911	-0.000118
N21	N	0.284859	0.132175	-0.051194
N22	N	0.354042	0.133199	-0.051185
C23	C	0.394714	0.093993	-0.000100
C24	C	0.138924	0.090207	-0.068761
C25	C	0.066099	0.089139	-0.068768
C26	C	0.066054	0.089132	0.068495
C27	C	0.138877	0.090207	0.068499
C28	C	0.175308	0.090742	-0.000131
C29	C	0.829982	-0.034708	-0.000108
C30	C	0.828843	-0.112213	-0.000109
C31	C	0.884308	-0.673988	-0.000136
C32	C	0.885384	-0.601165	-0.000129
C33	C	0.822291	-0.556225	-0.000121
C34	C	0.758117	-0.584113	-0.000101
C35	C	0.757043	-0.656935	-0.000100
N36	N	0.776621	-0.435538	-0.042967
N37	N	0.777646	-0.366361	-0.042970
C38	C	0.825526	-0.336816	-0.000122
N39	N	0.872351	-0.379063	0.042719
N40	N	0.871328	-0.448247	0.042718
C41	C	0.823450	-0.477261	-0.000122
C42	C	0.890863	-0.229973	-0.000130
C43	C	0.891937	-0.157148	-0.000119
C44	C	0.764668	-0.140097	-0.000098
C45	C	0.763596	-0.212921	-0.000102
C46	C	0.826695	-0.257855	-0.000121
C47	C	0.952161	0.087461	-0.000129
C48	C	1.029666	0.088594	-0.000144
C49	C	0.819003	0.220627	-0.000116
C50	C	0.820142	0.298131	-0.000119
N51	N	0.824471	0.092951	0.179052
N52	N	0.824520	0.092962	-0.179274
C53	C	0.872099	0.045358	0.218658
C54	C	0.872103	0.045355	0.297905
C55	C	0.824486	0.092956	0.337544
C56	C	0.776849	0.140552	0.297929
C57	C	0.776842	0.140549	0.218683
N58	N	0.815408	0.154764	0.461961
N59	N	0.815419	0.154765	0.537242
C60	C	0.824504	0.092966	0.576308
N61	N	0.833591	0.031165	0.537250
N62	N	0.833583	0.031165	0.461963
C63	C	0.824488	0.092964	0.423473
C64	C	0.872139	0.045366	0.701843
C65	C	0.872138	0.045362	0.781092
C66	C	0.776888	0.140564	0.781115
C67	C	0.776885	0.140563	0.701867
C68	C	0.824514	0.092964	0.662236
H69	H	0.935689	-0.710569	-0.000147
H70	H	0.036478	0.088702	-0.124655
H71	H	0.910889	0.006598	0.330158
H72	H	0.036386	0.088692	0.124369
O73	O	0.696810	-0.540491	0.000038
C74	C	0.657821	-0.553113	0.065238
H75	H	0.694752	-0.578121	0.110807
H76	H	0.617523	-0.590066	0.050506
C77	C	0.574421	-0.452484	0.038836
C78	C	0.619781	-0.483194	0.094807
H79	H	0.550953	-0.409356	0.057075
H80	H	0.600686	-0.443981	-0.005092
H81	H	0.540845	-0.483285	0.026564
H82	H	0.653360	-0.452396	0.107071
H83	H	0.593520	-0.491689	0.138739
O84	O	0.952135	-0.273656	-0.000273
C85	C	0.955323	-0.316293	-0.065469
H86	H	0.919545	-0.289503	-0.111038
H87	H	0.937409	-0.369194	-0.050728
C88	C	1.075276	-0.360501	-0.039075
C89	C	1.031338	-0.327595	-0.095045
H90	H	1.122166	-0.367476	-0.057317
H91	H	1.073128	-0.331778	0.004851
H92	H	1.060339	-0.404582	-0.026795
H93	H	1.046270	-0.283512	-0.107316
H94	H	1.033490	-0.356311	-0.138973
H95	H	0.738114	0.179319	0.813388
H96	H	0.168500	0.090644	0.124384
O97	O	0.947779	-0.574188	-0.000187
C98	C	1.003240	-0.629463	-0.000186
H99	H	0.983821	-0.678875	-0.024007
H100	H	1.022698	-0.639829	0.060206
C101	C	1.087623	-0.548404	-0.020328
C102	C	1.063773	-0.609091	-0.049592
H103	H	1.124964	-0.535837	-0.050801
H104	H	1.050258	-0.511163	-0.020326
H105	H	1.103832	-0.557050	0.029998
H106	H	1.047556	-0.600442	-0.099913
H107	H	1.101137	-0.646330	-0.049603
H108	H	0.910880	0.006599	0.186392
H109	H	0.738105	0.179320	0.669618
H110	H	0.612509	0.097231	0.124432
H111	H	0.910921	0.006602	0.813340
O112	O	0.618213	0.097336	-0.135446
C113	C	0.570482	0.096609	-0.196021
H114	H	0.515603	0.117938	-0.175908
H115	H	0.570252	0.040492	-0.217118
C116	C	0.660189	0.116609	-0.285567
C117	C	0.592787	0.142812	-0.260865
H118	H	0.673949	0.145107	-0.325567
H119	H	0.692348	0.117096	-0.244757
H120	H	0.659989	0.069845	-0.303142
H121	H	0.592990	0.189572	-0.243281
H122	H	0.560629	0.142334	-0.301674
H123	H	0.704790	-0.679634	-0.000085
O124	O	0.954332	-0.130179	-0.000165
C125	C	1.009790	-0.185458	-0.000164
H126	H	0.990371	-0.234865	-0.023998
H127	H	1.029239	-0.195833	0.060230
C128	C	1.094182	-0.104402	-0.020275
C129	C	1.070332	-0.165083	-0.049555
H130	H	1.131528	-0.091834	-0.050739
H131	H	1.056819	-0.067159	-0.020274
H132	H	1.110384	-0.113056	0.030052
H133	H	1.054122	-0.156425	-0.099877
H134	H	1.107693	-0.202324	-0.049566
O135	O	0.703443	-0.096352	-0.000125
C136	C	0.718149	-0.026098	-0.000107
H137	H	0.772985	-0.023476	-0.023950
H138	H	0.715429	-0.005034	0.060292
C139	C	0.596461	0.015430	-0.020187
C140	C	0.663809	0.018650	-0.049477
H141	H	0.562940	0.043034	-0.050638
H142	H	0.586552	-0.031901	-0.020196
H143	H	0.594204	0.032982	0.030145
H144	H	0.666067	0.001090	-0.099805
H145	H	0.673717	0.065980	-0.049478
O146	O	0.730566	0.186696	0.336515
C147	C	0.687606	0.149414	0.382367
H148	H	0.715587	0.094708	0.394235
H149	H	0.636018	0.144799	0.351851
C150	C	0.638203	0.256011	0.443066
C151	C	0.672573	0.188822	0.457648
H152	H	0.628927	0.280321	0.489502
H153	H	0.667144	0.281130	0.412173
H154	H	0.595217	0.252156	0.417635
H155	H	0.715562	0.192678	0.483071
H156	H	0.643639	0.163705	0.488547
O157	O	0.474714	0.095303	-0.135370
C158	C	0.424473	0.155123	-0.139478
H159	H	0.440741	0.197708	-0.100541
H160	H	0.371111	0.140635	-0.121037
C161	C	0.399717	0.130209	-0.269298
C162	C	0.419702	0.182515	-0.221479
H163	H	0.396771	0.147105	-0.319880
H164	H	0.433564	0.089906	-0.266530
H165	H	0.355251	0.118141	-0.253921
H166	H	0.464170	0.194576	-0.236851
H167	H	0.385863	0.222821	-0.224252
H168	H	0.711345	-0.235621	-0.000094
H169	H	0.480394	0.095267	0.124411
H170	H	0.738056	0.179305	0.186435
O171	O	0.918330	-0.000950	0.663349
C172	C	0.907234	-0.070054	0.682704
H173	H	0.851347	-0.070279	0.704526
H174	H	0.946017	-0.090675	0.728667
C175	C	0.986858	-0.117103	0.585476
C176	C	0.918215	-0.117380	0.612273
H177	H	0.993635	-0.146298	0.542033
H178	H	0.994336	-0.070547	0.572438
H179	H	1.019170	-0.134286	0.623786
H180	H	0.885905	-0.100190	0.573967
H181	H	0.910732	-0.163935	0.625303
O182	O	0.174205	0.090769	-0.135492
C183	C	0.126475	0.090054	-0.196070
H184	H	0.071596	0.111380	-0.175953
H185	H	0.126245	0.033941	-0.217179
C186	C	0.216183	0.110071	-0.285608
C187	C	0.148780	0.136270	-0.260902
H188	H	0.229943	0.138576	-0.325601
H189	H	0.248341	0.110550	-0.244796
H190	H	0.215983	0.063311	-0.303193
H191	H	0.148984	0.183026	-0.243308
H192	H	0.116623	0.135800	-0.301712
