data_functionalizedCrystal
_audit_creation_method	'MofGen! by Chris Wilmer'
_symmetry_space_group_name_H-M	'P1'
_symmetry_Int_Tables_number	1
_symmetry_cell_setting	triclinic
loop_
_symmetry_equiv_pos_as_xyz
  x,y,z
_cell_length_a	19.077115
_cell_length_b	16.120484
_cell_length_c	19.077174
_cell_angle_alpha	95.281307
_cell_angle_beta	85.484425
_cell_angle_gamma	90.738480
loop_
_atom_site_label
_atom_site_type_symbol
_atom_site_fract_x
_atom_site_fract_y
_atom_site_fract_z
Zn1	Zn	1.077026	-0.405078	-0.458484
Zn2	Zn	1.066712	-0.538657	-0.346088
Zn3	Zn	0.954891	-0.393424	-0.335404
Zn4	Zn	0.953608	-0.538603	-0.459205
O5	O	1.013059	-0.468940	-0.399795
O6	O	1.174106	-0.427697	-0.447744
O7	O	1.048099	-0.514537	-0.245821
O8	O	0.975947	-0.278308	-0.346958
O9	O	1.166528	-0.525838	-0.365167
O10	O	1.065679	-0.286870	-0.437384
O11	O	0.965945	-0.407835	-0.237972
O12	O	0.856273	-0.407782	-0.347657
O13	O	0.973759	-0.525745	-0.557959
O14	O	0.855330	-0.514445	-0.438613
O15	O	1.064434	-0.427644	-0.557429
O16	O	1.046854	-0.655312	-0.365866
O17	O	0.963757	-0.655272	-0.448973
C18	C	0.830275	-0.459843	-0.392054
C19	C	0.752079	-0.455972	-0.388760
C20	C	0.311970	-0.428174	-0.365139
C21	C	0.385443	-0.431816	-0.368238
C22	C	0.421699	-0.489254	-0.417074
C23	C	0.384477	-0.543049	-0.462819
C24	C	0.311006	-0.539402	-0.459722
C25	C	0.641385	-0.506120	-0.431408
C26	C	0.714862	-0.509764	-0.434500
C27	C	0.715823	-0.398530	-0.339920
C28	C	0.642350	-0.394892	-0.336825
C29	C	0.605135	-0.448683	-0.382572
N30	N	0.496801	-0.492980	-0.420242
N31	N	0.530035	-0.444953	-0.379407
C32	C	1.004067	-0.685543	-0.408673
C33	C	1.000285	-0.778211	-0.412498
C34	C	0.993385	-0.947876	-0.419495
C35	C	1.032860	-0.989171	-0.380112
C36	C	1.029021	-1.083579	-0.384006
C37	C	0.997224	-0.853460	-0.415603
C38	C	1.196557	-0.478074	-0.407567
C39	C	1.274753	-0.481966	-0.410879
C40	C	1.020104	-0.477989	-0.584041
C41	C	1.023106	-0.481844	-0.662555
C42	C	1.022107	-0.251494	-0.390899
C43	C	1.025962	-0.158831	-0.387107
C44	C	0.981745	-0.428103	-0.695354
C45	C	0.984563	-0.431732	-0.769127
C46	C	1.028746	-0.489100	-0.810100
C47	C	1.070108	-0.542848	-0.777296
C48	C	1.067286	-0.539222	-0.703524
C49	C	1.041769	-0.505907	-1.031172
C50	C	1.044590	-0.509527	-1.104948
C51	C	0.959043	-0.398412	-1.096775
C52	C	0.956228	-0.394788	-1.023002
C53	C	0.997588	-0.448538	-0.990205
N54	N	1.031629	-0.492810	-0.885508
N55	N	0.994701	-0.444832	-0.914798
C56	C	1.006085	-0.459869	-0.216266
C57	C	1.003229	-0.455785	-0.137747
H58	H	0.282456	-0.381402	-0.325371
H59	H	1.106079	-0.589562	-0.810662
H60	H	0.956710	-0.983424	-0.456132
H61	H	0.611094	-0.549924	-0.468656
H62	H	1.069537	-0.953621	-0.343471
H63	H	0.945771	-0.381383	-0.661999
H64	H	1.075439	-0.549683	-1.004478
H65	H	0.950880	-0.387973	-0.795829
H66	H	0.920248	-0.348075	-0.989647
H67	H	0.925370	-0.354652	-1.123486
H68	H	1.080571	-0.556244	-1.138307
H69	H	1.100972	-0.582978	-0.676821
H70	H	0.414003	-0.589813	-0.502585
H71	H	0.415742	-0.388016	-0.330989
H72	H	0.746132	-0.354735	-0.302676
H73	H	0.612835	-0.348125	-0.297053
H74	H	0.744380	-0.556538	-0.474271
H75	H	0.280705	-0.583203	-0.496970
