data_functionalizedCrystal
_audit_creation_method	'MofGen! by Chris Wilmer'
_symmetry_space_group_name_H-M	'P1'
_symmetry_Int_Tables_number	1
_symmetry_cell_setting	triclinic
loop_
_symmetry_equiv_pos_as_xyz
  x,y,z
_cell_length_a	21.295418
_cell_length_b	12.759399
_cell_length_c	12.759386
_cell_angle_alpha	90.058757
_cell_angle_beta	89.936506
_cell_angle_gamma	89.969934
loop_
_atom_site_label
_atom_site_type_symbol
_atom_site_fract_x
_atom_site_fract_y
_atom_site_fract_z
Zn1	Zn	0.962550	0.417440	-0.594637
Zn2	Zn	0.962446	0.593254	-0.418968
Zn3	Zn	0.857237	0.417638	-0.418907
Zn4	Zn	0.857272	0.593126	-0.594541
O5	O	0.909876	0.505364	-0.506763
O6	O	1.050625	0.440733	-0.571399
O7	O	0.948431	0.570094	-0.271939
O8	O	0.871235	0.270591	-0.442233
O9	O	1.050549	0.569902	-0.442336
O10	O	0.948609	0.270445	-0.571341
O11	O	0.871134	0.441070	-0.271894
O12	O	0.769152	0.440946	-0.442140
O13	O	0.871296	0.569685	-0.741575
O14	O	0.769178	0.569877	-0.571177
O15	O	0.948643	0.440609	-0.741645
O16	O	0.948466	0.740258	-0.442243
O17	O	0.871195	0.740164	-0.571236
C18	C	0.909840	0.778332	-0.506759
C19	C	0.909882	0.895108	-0.506792
C20	C	0.746324	0.505420	-0.506642
C21	C	0.676356	0.505469	-0.506615
C22	C	0.950163	0.949984	-0.439706
C23	C	0.950205	1.059708	-0.439749
C24	C	0.869678	1.059671	-0.573967
C25	C	0.869641	0.949949	-0.573929
C26	C	1.024499	1.209573	-0.402418
C27	C	1.064775	1.264453	-0.335315
C28	C	1.074435	1.228966	-0.232808
C29	C	1.043811	1.138600	-0.197383
C30	C	1.003531	1.083727	-0.264480
C31	C	0.993882	1.119212	-0.367001
C32	C	0.795346	0.800082	-0.611249
C33	C	0.755062	0.745206	-0.678342
C34	C	0.745395	0.780691	-0.780851
C35	C	0.776008	0.871060	-0.816272
C36	C	0.816292	0.925936	-0.749180
C37	C	0.825960	0.890443	-0.646672
C38	C	0.643520	0.572692	-0.573705
C39	C	0.577777	0.572666	-0.573752
C40	C	0.544874	0.505428	-0.506691
C41	C	0.577718	0.438192	-0.439597
C42	C	0.643460	0.438212	-0.439559
N43	N	0.441578	0.497282	-0.414798
N44	N	0.379126	0.497269	-0.414837
C45	C	0.346799	0.505361	-0.506802
N46	N	0.379283	0.513487	-0.598730
N47	N	0.441740	0.513506	-0.598689
C48	C	0.473589	0.505398	-0.506725
C49	C	0.242677	0.572559	-0.573949
C50	C	0.176934	0.572526	-0.573998
C51	C	0.176876	0.438057	-0.439833
C52	C	0.242618	0.438085	-0.439794
C53	C	0.275515	0.505342	-0.506850
C54	C	1.074066	0.505310	-0.506885
C55	C	1.144035	0.505286	-0.506937
C56	C	0.909985	0.505111	-0.780797
C57	C	0.910032	0.505003	-0.897574
C58	C	0.909932	1.231331	-0.506809
C59	C	0.909961	1.114554	-0.506874
C60	C	0.909804	0.505541	-0.233795
C61	C	0.909879	0.505353	-0.117019
C62	C	0.869381	0.438583	-0.062184
C63	C	0.869458	0.438404	0.047540
C64	C	0.950535	0.571776	0.047583
C65	C	0.950460	0.571948	-0.062139
C66	C	0.846553	0.314548	0.197255
C67	C	0.806045	0.247786	0.252094
C68	C	0.744532	0.232479	0.216674
C69	C	0.723515	0.283949	0.126416
C70	C	0.764021	0.350718	0.071582
C71	C	0.825542	0.366005	0.107001
C72	C	0.973358	0.695807	-0.211856
C73	C	1.013861	0.762582	-0.266692
C74	C	1.075375	0.777900	-0.231273
C75	C	1.096389	0.726449	-0.141012
C76	C	1.055887	0.659674	-0.086176
C77	C	0.994374	0.644354	-0.121602
H78	H	0.982931	0.905336	-0.385041
H79	H	0.550924	0.383444	-0.384998
N80	N	0.143402	0.641213	-0.642533
N81	N	0.150698	0.738155	-0.635387
H82	H	0.127017	0.786669	-0.683792
N83	N	1.116745	0.846129	-0.287270
N84	N	1.102824	0.940610	-0.298687
H85	H	1.132043	0.988795	-0.338230
N86	N	1.014623	1.245812	-0.507132
N87	N	0.978660	1.196810	-0.567033
H88	H	0.971683	1.222408	-0.640988
N89	N	0.276164	0.369412	-0.371267
N90	N	0.268870	0.272468	-0.378401
H91	H	0.292561	0.223962	-0.330004
H92	H	0.996746	0.804475	-0.340188
H93	H	0.670300	0.627456	-0.628309
N94	N	1.053680	1.102329	-0.092678
N95	N	1.026342	1.021643	-0.061070
H96	H	1.033315	0.996017	0.012877
H97	H	0.836340	0.384353	-0.106864
N98	N	0.143285	0.369358	-0.371332
N99	N	0.150681	0.272420	-0.378458
H100	H	0.126956	0.223895	-0.330079
N101	N	0.276297	0.641245	-0.642437
N102	N	0.312919	0.708182	-0.605339
H103	H	0.336663	0.756690	-0.653709
H104	H	0.836914	1.104335	-0.628626
H105	H	0.746909	0.392623	-0.001904
N106	N	0.660673	0.268316	0.090262
N107	N	0.624515	0.208702	0.139232
H108	H	0.580131	0.197659	0.113697
N109	N	0.909391	0.330195	0.233424
N110	N	0.945552	0.389807	0.184457
H111	H	0.989932	0.400861	0.210005
H112	H	0.551037	0.627407	-0.628388
H113	H	0.711550	0.178119	0.261332
H114	H	0.841221	0.999516	-0.778030
N115	N	0.676995	0.369531	-0.371023
N116	N	0.647613	0.309493	-0.311158
H117	H	0.671298	0.260985	-0.262752
N118	N	0.972251	0.991433	-0.228288
N119	N	0.980876	0.959760	-0.136755
H120	H	0.958788	0.894573	-0.111191
N121	N	0.827520	0.195223	0.344287
N122	N	0.882448	0.208886	0.375898
H123	H	0.897613	0.171767	0.441011
N124	N	0.766124	0.907307	-0.920983
N125	N	0.730155	0.858304	-0.980875
H126	H	0.723170	0.883902	-1.054828
N127	N	0.910525	0.680159	-0.248059
N128	N	0.891770	0.726110	-0.328645
H129	H	0.847394	0.715062	-0.354217
N130	N	1.115579	1.284991	-0.164245
N131	N	1.095051	1.322381	-0.080343
H132	H	1.124113	1.361944	-0.031923
H133	H	0.983573	0.625997	0.092279
H134	H	0.803219	0.771175	-0.527781
H135	H	0.712590	0.736002	-0.835475
H136	H	1.073002	0.617780	-0.012680
H137	H	0.730139	0.671618	-0.649495
H138	H	1.146478	0.738923	-0.112172
H139	H	1.089709	1.338028	-0.364168
