data_functionalizedCrystal
_audit_creation_method	'MofGen! by Chris Wilmer'
_symmetry_space_group_name_H-M	'P1'
_symmetry_Int_Tables_number	1
_symmetry_cell_setting	triclinic
loop_
_symmetry_equiv_pos_as_xyz
  x,y,z
_cell_length_a	16.120530
_cell_length_b	21.295417
_cell_length_c	16.120297
_cell_angle_alpha	92.868089
_cell_angle_beta	90.128140
_cell_angle_gamma	87.125028
loop_
_atom_site_label
_atom_site_type_symbol
_atom_site_fract_x
_atom_site_fract_y
_atom_site_fract_z
Zn1	Zn	1.247396	-0.318916	-0.534531
Zn2	Zn	1.497396	-0.068916	-0.284531
Zn3	Zn	1.747396	0.181084	-0.034531
Zn4	Zn	1.997396	0.431084	0.215469
Zn5	Zn	1.254333	-0.419126	-0.395463
Zn6	Zn	1.504333	-0.169126	-0.145463
Zn7	Zn	1.754333	0.080874	0.104537
Zn8	Zn	2.004333	0.330874	0.354537
Zn9	Zn	1.115388	-0.308279	-0.388451
Zn10	Zn	1.365388	-0.058279	-0.138451
Zn11	Zn	1.615388	0.191721	0.111549
Zn12	Zn	1.865388	0.441721	0.361549
Zn13	Zn	1.108290	-0.418546	-0.527433
Zn14	Zn	1.358290	-0.168546	-0.277433
Zn15	Zn	1.608290	0.081454	-0.027433
Zn16	Zn	1.858290	0.331454	0.222567
O17	O	1.181352	-0.366216	-0.461470
O18	O	1.431352	-0.116216	-0.211470
O19	O	1.681352	0.133784	0.038530
O20	O	1.931352	0.383784	0.288530
O21	O	1.364682	-0.336903	-0.521989
O22	O	1.614682	-0.086903	-0.271989
O23	O	1.864682	0.163097	-0.021989
O24	O	2.114682	0.413097	0.228011
O25	O	1.241776	-0.400212	-0.278168
O26	O	1.491776	-0.150212	-0.028168
O27	O	1.741776	0.099788	0.221832
O28	O	1.991776	0.349788	0.471832
O29	O	1.132967	-0.221604	-0.407864
O30	O	1.382967	0.028396	-0.157864
O31	O	1.632967	0.278396	0.092136
O32	O	1.882967	0.528396	0.342136
O33	O	1.369779	-0.410527	-0.419817
O34	O	1.619779	-0.160527	-0.169817
O35	O	1.869779	0.089473	0.080183
O36	O	2.119779	0.339473	0.330183
O37	O	1.229953	-0.229419	-0.515189
O38	O	1.479953	0.020581	-0.265189
O39	O	1.729953	0.270581	-0.015189
O40	O	1.979953	0.520581	0.234811
O41	O	1.139693	-0.318774	-0.273016
O42	O	1.389693	-0.068774	-0.023016
O43	O	1.639693	0.181226	0.226984
O44	O	1.889693	0.431226	0.476984
O45	O	0.998081	-0.318211	-0.400981
O46	O	1.248081	-0.068211	-0.150981
O47	O	1.498081	0.181789	0.099019
O48	O	1.748081	0.431789	0.349019
O49	O	1.120869	-0.409539	-0.644739
O50	O	1.370869	-0.159539	-0.394739
O51	O	1.620869	0.090461	-0.144739
O52	O	1.870869	0.340461	0.105261
O53	O	0.992866	-0.399224	-0.503091
O54	O	1.242866	-0.149224	-0.253091
O55	O	1.492866	0.100776	-0.003091
O56	O	1.742866	0.350776	0.246909
O57	O	1.223070	-0.336341	-0.649955
O58	O	1.473070	-0.086341	-0.399955
O59	O	1.723070	0.163659	-0.149955
O60	O	1.973070	0.413659	0.100045
O61	O	1.234893	-0.507134	-0.412933
O62	O	1.484893	-0.257134	-0.162933
O63	O	1.734893	-0.007134	0.087067
O64	O	1.984893	0.242866	0.337067
O65	O	1.127595	-0.506708	-0.509891
O66	O	1.377595	-0.256708	-0.259891
O67	O	1.627595	-0.006708	-0.009891
O68	O	1.877595	0.243292	0.240109
C69	C	0.965301	-0.357501	-0.450505
C70	C	1.215301	-0.107501	-0.200505
C71	C	1.465301	0.142499	0.049495
C72	C	1.715301	0.392499	0.299495
C73	C	0.872872	-0.353789	-0.445834
C74	C	1.122872	-0.103789	-0.195834
C75	C	1.372872	0.146211	0.054166
C76	C	1.622872	0.396211	0.304166
C77	C	0.703644	-0.346996	-0.437314
C78	C	0.953644	-0.096996	-0.187314
C79	C	1.203644	0.153004	0.062686
C80	C	1.453644	0.403004	0.312686
C81	C	0.659897	-0.385485	-0.485686
C82	C	0.909897	-0.135485	-0.235686
C83	C	1.159897	0.114515	0.014314
C84	C	1.409897	0.364515	0.264314
C85	C	0.565733	-0.381706	-0.480945
C86	C	0.815733	-0.131706	-0.230945
C87	C	1.065733	0.118294	0.019055
C88	C	1.315733	0.368294	0.269055
C89	C	0.797817	-0.350775	-0.442053
C90	C	1.047817	-0.100775	-0.192053
C91	C	1.297817	0.149225	0.057947
C92	C	1.547817	0.399225	0.307947
C93	C	1.181248	-0.529762	-0.461422
C94	C	1.431248	-0.279762	-0.211422
C95	C	1.681248	-0.029762	0.038578
C96	C	1.931248	0.220238	0.288578
C97	C	1.181278	-0.599732	-0.461433
C98	C	1.431278	-0.349732	-0.211433
C99	C	1.681278	-0.099732	0.038567
C100	C	1.931278	0.150268	0.288567
C101	C	1.231746	-0.636611	-0.517354
C102	C	1.481746	-0.386611	-0.267354
C103	C	1.731746	-0.136611	-0.017354
C104	C	1.981746	0.113389	0.232646
C105	C	1.231775	-0.702355	-0.517376
C106	C	1.481775	-0.452355	-0.267376
C107	C	1.731775	-0.202355	-0.017376
C108	C	1.981775	0.047645	0.232624
C109	C	1.181344	-0.731218	-0.461463
C110	C	1.431344	-0.481218	-0.211463
C111	C	1.681344	-0.231218	0.038537
C112	C	1.931344	0.018782	0.288537
C113	C	1.130866	-0.694331	-0.405538
C114	C	1.380866	-0.444331	-0.155538
C115	C	1.630866	-0.194331	0.094462
C116	C	1.880866	0.055669	0.344462
C117	C	1.130833	-0.628588	-0.405523
C118	C	1.380833	-0.378588	-0.155523
C119	C	1.630833	-0.128588	0.094477
C120	C	1.880833	0.121412	0.344477
N121	N	1.178754	-0.831581	-0.388371
N122	N	1.428754	-0.581581	-0.138371
N123	N	1.678754	-0.331581	0.111629
N124	N	1.928754	-0.081581	0.361629
N125	N	1.178790	-0.894035	-0.388388
N126	N	1.428790	-0.644035	-0.138388
N127	N	1.678790	-0.394035	0.111612
N128	N	1.928790	-0.144035	0.361612
C129	C	1.181440	-0.929298	-0.461505
C130	C	1.431440	-0.679298	-0.211505
C131	C	1.681440	-0.429298	0.038495
C132	C	1.931440	-0.179298	0.288495
N133	N	1.184068	-0.899749	-0.534608
N134	N	1.434068	-0.649749	-0.284608
N135	N	1.684068	-0.399749	-0.034608
N136	N	1.934068	-0.149749	0.215392
N137	N	1.184036	-0.837290	-0.534591
N138	N	1.434036	-0.587290	-0.284591
N139	N	1.684036	-0.337290	-0.034591
N140	N	1.934036	-0.087290	0.215409
C141	C	1.181374	-0.802505	-0.461473
C142	C	1.431374	-0.552505	-0.211473
C143	C	1.681374	-0.302505	0.038527
C144	C	1.931374	-0.052505	0.288527
C145	C	1.231941	-1.037465	-0.517455
C146	C	1.481941	-0.787465	-0.267455
C147	C	1.731941	-0.537465	-0.017455
C148	C	1.981941	-0.287465	0.232545
C149	C	1.231963	-1.103210	-0.517478
C150	C	1.481963	-0.853210	-0.267478
C151	C	1.731963	-0.603210	-0.017478
C152	C	1.981963	-0.353210	0.232522
C153	C	1.131059	-1.095184	-0.405633
C154	C	1.381059	-0.845184	-0.155633
C155	C	1.631059	-0.595184	0.094367
C156	C	1.881059	-0.345184	0.344367
C157	C	1.131032	-1.029440	-0.405617
C158	C	1.381032	-0.779440	-0.155617
C159	C	1.631032	-0.529440	0.094383
C160	C	1.881032	-0.279440	0.344383
C161	C	1.181478	-1.000585	-0.461527
C162	C	1.431478	-0.750585	-0.211527
C163	C	1.681478	-0.500585	0.038473
C164	C	1.931478	-0.250585	0.288473
C165	C	1.398246	-0.374966	-0.472477
C166	C	1.648246	-0.124966	-0.222477
C167	C	1.898246	0.125034	0.027523
C168	C	2.148246	0.375034	0.277523
C169	C	1.490674	-0.378695	-0.477168
C170	C	1.740674	-0.128695	-0.227168
C171	C	1.990674	0.121305	0.022832
C172	C	2.240674	0.371305	0.272832
C173	C	1.170404	-0.374062	-0.678363
C174	C	1.420404	-0.124062	-0.428363
C175	C	1.670404	0.125938	-0.178363
C176	C	1.920404	0.375938	0.071637
C177	C	1.165738	-0.377405	-0.770790
C178	C	1.415738	-0.127405	-0.520790
C179	C	1.665738	0.122595	-0.270790
C180	C	1.915738	0.372595	-0.020790
C181	C	1.181478	-0.202034	-0.461536
C182	C	1.431478	0.047966	-0.211536
C183	C	1.681478	0.297966	0.038464
C184	C	1.931478	0.547966	0.288464
C185	C	1.181531	-0.132069	-0.461565
C186	C	1.431531	0.117931	-0.211565
C187	C	1.681531	0.367931	0.038435
C188	C	1.931531	0.617931	0.288435
C189	C	1.157190	-0.383494	-0.940014
C190	C	1.407190	-0.133494	-0.690014
C191	C	1.657190	0.116506	-0.440014
C192	C	1.907190	0.366506	-0.190014
C193	C	1.205678	-0.348757	-0.983785
C194	C	1.455678	-0.098757	-0.733785
C195	C	1.705678	0.151243	-0.483785
C196	C	1.955678	0.401243	-0.233785
C197	C	1.200922	-0.352145	-1.077947
C198	C	1.450922	-0.102145	-0.827947
C199	C	1.700922	0.147855	-0.577947
C200	C	1.950922	0.397855	-0.327947
C201	C	1.161945	-0.380107	-0.845843
C202	C	1.411945	-0.130107	-0.595843
C203	C	1.661945	0.119893	-0.345843
C204	C	1.911945	0.369893	-0.095843
C205	C	1.192305	-0.358358	-0.245422
C206	C	1.442305	-0.108358	0.004578
C207	C	1.692305	0.141642	0.254578
C208	C	1.942305	0.391642	0.504578
C209	C	1.197132	-0.354844	-0.153004
C210	C	1.447132	-0.104844	0.096996
C211	C	1.697132	0.145156	0.346996
C212	C	1.947132	0.395156	0.596996
H213	H	0.693165	-0.421275	-0.530661
H214	H	0.943165	-0.171275	-0.280661
H215	H	1.193165	0.078725	-0.030661
H216	H	1.443165	0.328725	0.219339
F217	F	1.264621	-0.306572	-0.940336
F218	F	1.514621	-0.056572	-0.690336
F219	F	1.764621	0.193428	-0.440336
F220	F	2.014621	0.443428	-0.190336
F221	F	1.077385	-1.125898	-0.346127
F222	F	1.327385	-0.875898	-0.096127
F223	F	1.577385	-0.625898	0.153873
F224	F	1.827385	-0.375898	0.403873
F225	F	1.098267	-0.425689	-0.983464
F226	F	1.348267	-0.175689	-0.733464
F227	F	1.598267	0.074311	-0.483464
F228	F	1.848267	0.324311	-0.233464
F229	F	1.285625	-1.006752	-0.576961
F230	F	1.535625	-0.756752	-0.326961
F231	F	1.785625	-0.506752	-0.076961
F232	F	2.035625	-0.256752	0.173039
F233	F	0.660164	-0.300219	-0.378533
F234	F	0.910164	-0.050219	-0.128533
F235	F	1.160164	0.199781	0.121467
F236	F	1.410164	0.449781	0.371467
H237	H	1.272820	-0.613119	-0.562881
H238	H	1.522820	-0.363119	-0.312881
H239	H	1.772820	-0.113119	-0.062881
H240	H	2.022820	0.136881	0.187119
F241	F	1.077317	-0.990189	-0.346097
F242	F	1.327317	-0.740189	-0.096097
F243	F	1.577317	-0.490189	0.153903
F244	F	1.827317	-0.240189	0.403903
H245	H	1.272864	-0.732388	-0.562923
H246	H	1.522864	-0.482388	-0.312923
H247	H	1.772864	-0.232388	-0.062923
H248	H	2.022864	0.017612	0.187077
H249	H	1.089803	-0.717835	-0.360015
H250	H	1.339803	-0.467835	-0.110015
H251	H	1.589803	-0.217835	0.139985
H252	H	1.839803	0.032165	0.389985
H253	H	1.273060	-1.133237	-0.563019
H254	H	1.523060	-0.883237	-0.313019
H255	H	1.773060	-0.633237	-0.063019
H256	H	2.023060	-0.383237	0.186981
H257	H	1.089735	-0.598560	-0.359985
H258	H	1.339735	-0.348560	-0.109985
H259	H	1.589735	-0.098560	0.140015
H260	H	1.839735	0.151440	0.390015
