data_functionalizedCrystal
_audit_creation_method	'MofGen! by Chris Wilmer'
_symmetry_space_group_name_H-M	'P1'
_symmetry_Int_Tables_number	1
_symmetry_cell_setting	triclinic
loop_
_symmetry_equiv_pos_as_xyz
  x,y,z
_cell_length_a	9.065215
_cell_length_b	19.188930
_cell_length_c	8.140239
_cell_angle_alpha	90.008629
_cell_angle_beta	90.002190
_cell_angle_gamma	84.079739
loop_
_atom_site_label
_atom_site_type_symbol
_atom_site_fract_x
_atom_site_fract_y
_atom_site_fract_z
O1	O	1.956849	0.102360	0.136616
O2	O	2.456849	0.602360	0.636616
O3	O	1.527272	0.110759	0.136625
O4	O	2.027272	0.610759	0.636625
O5	O	1.754457	0.005000	0.136588
O6	O	2.254457	0.505000	0.636588
O7	O	1.729664	0.208119	0.136653
O8	O	2.229664	0.708119	0.636653
O9	O	1.754445	0.004999	-0.136639
O10	O	2.254445	0.504999	0.363361
O11	O	1.527260	0.110757	-0.136602
O12	O	2.027260	0.610757	0.363398
O13	O	1.956837	0.102359	-0.136611
O14	O	2.456837	0.602359	0.363389
Zn15	Zn	1.742046	0.106558	-0.179987
Zn16	Zn	2.242046	0.606558	0.320013
Zn17	Zn	1.742063	0.106559	0.180001
Zn18	Zn	2.242063	0.606559	0.680001
O19	O	1.729652	0.208117	-0.136574
O20	O	2.229652	0.708117	0.363426
C21	C	1.472308	0.109951	0.000012
C22	C	1.972308	0.609951	0.500012
C23	C	1.308548	0.107539	0.000015
C24	C	1.808548	0.607539	0.500015
C25	C	1.753648	-0.021018	-0.000030
C26	C	2.253648	0.478982	0.499970
C27	C	1.751238	-0.098541	-0.000044
C28	C	2.251238	0.401459	0.499956
C29	C	1.884543	-0.142430	-0.000055
C30	C	2.384543	0.357570	0.499945
C31	C	1.882279	-0.215272	-0.000028
C32	C	2.382279	0.284728	0.499972
C33	C	1.746702	-0.244221	-0.000024
C34	C	2.246702	0.255779	0.499976
C35	C	1.613380	-0.200322	-0.000004
C36	C	2.113380	0.299678	0.499996
C37	C	1.615648	-0.127482	-0.000014
C38	C	2.115648	0.372518	0.499986
N39	N	1.643065	-0.353031	-0.093006
N40	N	2.143065	0.146969	0.406994
N41	N	1.640920	-0.422226	-0.093000
N42	N	2.140920	0.077774	0.407000
C43	C	1.739860	-0.463683	0.000009
C44	C	2.239860	0.036317	0.500009
N45	N	1.841049	-0.433331	0.092992
N46	N	2.341049	0.066669	0.592992
N47	N	1.843199	-0.364130	0.092979
N48	N	2.343199	0.135870	0.592979
C49	C	1.744228	-0.323202	-0.000012
C50	C	2.244228	0.176798	0.499988
C51	C	1.870719	-0.586555	0.000029
C52	C	2.370719	-0.086555	0.500029
C53	C	1.868449	-0.659397	0.000066
C54	C	2.368449	-0.159397	0.500066
C55	C	1.599546	-0.644446	0.000073
C56	C	2.099546	-0.144446	0.500073
C57	C	1.601820	-0.571605	0.000053
C58	C	2.101820	-0.071605	0.500053
C59	C	1.737410	-0.542664	0.000024
C60	C	2.237410	-0.042664	0.500024
C61	C	2.011802	0.103166	0.000005
C62	C	2.511802	0.603166	0.500005
C63	C	2.175561	0.105578	0.000014
C64	C	2.675561	0.605578	0.500014
C65	C	1.730461	0.234135	0.000048
C66	C	2.230461	0.734135	0.500048
C67	C	1.732871	0.311659	0.000073
C68	C	2.232871	0.811659	0.500073
N69	N	1.742046	0.106556	-0.425670
N70	N	2.242046	0.606556	0.074330
N71	N	1.742075	0.106556	0.425684
N72	N	2.242075	0.606556	0.925684
H73	H	1.994951	-0.118871	-0.000073
H74	H	2.494951	0.381129	0.499927
O75	O	1.467145	-0.231539	-0.000019
O76	O	1.967145	0.268461	0.499981
H77	H	1.487962	-0.289563	-0.000036
H78	H	1.987962	0.210437	0.499964
H79	H	1.493268	-0.535870	0.000053
H80	H	1.993268	-0.035870	0.500053
H81	H	1.981125	-0.562990	0.000013
H82	H	2.481125	-0.062990	0.500013
O83	O	1.471865	-0.080137	-0.000031
O84	O	1.971865	0.419863	0.499969
H85	H	1.377204	-0.112502	-0.000036
H86	H	1.877204	0.387498	0.499964
H87	H	1.489157	-0.668016	0.000085
H88	H	1.989157	-0.168016	0.500085
O89	O	2.026061	-0.262623	-0.000062
O90	O	2.526061	0.237377	0.499938
H91	H	2.120724	-0.230261	-0.000098
H92	H	2.620724	0.269739	0.499902
O93	O	2.012234	-0.706741	0.000041
O94	O	2.512234	-0.206741	0.500041
H95	H	2.106892	-0.674375	-0.000002
H96	H	2.606892	-0.174375	0.499998
