data_functionalizedCrystal
_audit_creation_method	'MofGen! by Chris Wilmer'
_symmetry_space_group_name_H-M	'P1'
_symmetry_Int_Tables_number	1
_symmetry_cell_setting	triclinic
loop_
_symmetry_equiv_pos_as_xyz
  x,y,z
_cell_length_a	16.625548
_cell_length_b	12.645330
_cell_length_c	16.625539
_cell_angle_alpha	89.975749
_cell_angle_beta	89.979432
_cell_angle_gamma	90.018760
loop_
_atom_site_label
_atom_site_type_symbol
_atom_site_fract_x
_atom_site_fract_y
_atom_site_fract_z
Zn1	Zn	1.232707	-0.422007	-0.455932
Zn2	Zn	1.566041	-0.088674	-0.122599
Zn3	Zn	1.899374	0.244659	0.210735
Zn4	Zn	1.232622	-0.599293	-0.321109
Zn5	Zn	1.565955	-0.265960	0.012224
Zn6	Zn	1.899288	0.067373	0.345558
Zn7	Zn	1.097869	-0.422048	-0.321113
Zn8	Zn	1.431202	-0.088714	0.012221
Zn9	Zn	1.764536	0.244619	0.345554
Zn10	Zn	1.097851	-0.599232	-0.455899
Zn11	Zn	1.431184	-0.265899	-0.122565
Zn12	Zn	1.764517	0.067434	0.210768
O13	O	1.165262	-0.510645	-0.388513
O14	O	1.498595	-0.177312	-0.055180
O15	O	1.831929	0.156022	0.278154
O16	O	1.345528	-0.445533	-0.438060
O17	O	1.678862	-0.112200	-0.104727
O18	O	2.012195	0.221133	0.228607
O19	O	1.214718	-0.575824	-0.208277
O20	O	1.548052	-0.242490	0.125056
O21	O	1.881385	0.090843	0.458390
O22	O	1.115799	-0.273695	-0.339012
O23	O	1.449132	0.059638	-0.005679
O24	O	1.782466	0.392972	0.327654
O25	O	1.345465	-0.575784	-0.339006
O26	O	1.678799	-0.242451	-0.005672
O27	O	2.012132	0.090882	0.327661
O28	O	1.214864	-0.273665	-0.438064
O29	O	1.548197	0.059668	-0.104730
O30	O	1.881531	0.393001	0.228603
O31	O	1.115716	-0.445602	-0.208280
O32	O	1.449049	-0.112269	0.125054
O33	O	1.782383	0.221065	0.458387
O34	O	0.985034	-0.445543	-0.338980
O35	O	1.318368	-0.112210	-0.005647
O36	O	1.651701	0.221124	0.327687
O37	O	1.115768	-0.575681	-0.568736
O38	O	1.449101	-0.242347	-0.235402
O39	O	1.782434	0.090986	0.097931
O40	O	0.985021	-0.575720	-0.438007
O41	O	1.318354	-0.242387	-0.104673
O42	O	1.651687	0.090947	0.228660
O43	O	1.214846	-0.445474	-0.568760
O44	O	1.548180	-0.112141	-0.235427
O45	O	1.881513	0.221192	0.097907
O46	O	1.214701	-0.747632	-0.338973
O47	O	1.548034	-0.414299	-0.005640
O48	O	1.881367	-0.080966	0.327693
O49	O	1.115685	-0.747588	-0.438003
O50	O	1.449018	-0.414254	-0.104670
O51	O	1.782352	-0.080921	0.228664
C52	C	0.955771	-0.510630	-0.388491
C53	C	1.289105	-0.177297	-0.055157
C54	C	1.622438	0.156037	0.278176
C55	C	0.866150	-0.510649	-0.388500
C56	C	1.199484	-0.177316	-0.055167
C57	C	1.532817	0.156018	0.278167
C58	C	0.537975	-0.510656	-0.388534
C59	C	0.871308	-0.177323	-0.055201
C60	C	1.204641	0.156011	0.278132
C61	C	0.629283	-0.510651	-0.388522
C62	C	0.962616	-0.177318	-0.055189
C63	C	1.295950	0.156016	0.278144
C64	C	0.702059	-0.510653	-0.388517
C65	C	1.035393	-0.177320	-0.055183
C66	C	1.368726	0.156014	0.278150
C67	C	0.793374	-0.510647	-0.388506
C68	C	1.126707	-0.177314	-0.055172
C69	C	1.460040	0.156020	0.278161
C70	C	1.165203	-0.786075	-0.388502
C71	C	1.498537	-0.452742	-0.055168
C72	C	1.831870	-0.119408	0.278165
C73	C	1.165252	-0.903905	-0.388524
C74	C	1.498585	-0.570572	-0.055191
C75	C	1.831919	-0.237238	0.278143
C76	C	1.103218	-1.071485	-0.451015
C77	C	1.436551	-0.738152	-0.117682
C78	C	1.769885	-0.404818	0.215651
C79	C	1.102901	-0.948925	-0.450815
C80	C	1.436234	-0.615592	-0.117481
C81	C	1.769567	-0.282259	0.215852
C82	C	1.142250	-0.948498	-0.303549
C83	C	1.475584	-0.615165	0.029785
C84	C	1.808917	-0.281832	0.363118
C85	C	1.141872	-1.071097	-0.303928
C86	C	1.475205	-0.737763	0.029405
C87	C	1.808538	-0.404430	0.362739
C88	C	1.250667	-1.070992	-0.410318
C89	C	1.584000	-0.737659	-0.076985
C90	C	1.917334	-0.404326	0.256348
C91	C	1.250144	-0.948386	-0.412177
C92	C	1.583477	-0.615052	-0.078843
C93	C	1.916810	-0.281719	0.254490
C94	C	1.375571	-0.510661	-0.388536
C95	C	1.708904	-0.177328	-0.055203
C96	C	2.042238	0.156006	0.278131
C97	C	1.465192	-0.510668	-0.388546
C98	C	1.798525	-0.177335	-0.055213
C99	C	2.131859	0.155999	0.278121
C100	C	1.165315	-0.510566	-0.598822
C101	C	1.498648	-0.177233	-0.265489
C102	C	1.831981	0.156101	0.067845
C103	C	1.165337	-0.510533	-0.688443
C104	C	1.498670	-0.177199	-0.355110
C105	C	1.832004	0.156134	-0.021777
C106	C	1.165343	-0.234140	-0.388542
C107	C	1.498677	0.099193	-0.055209
C108	C	1.832010	0.432527	0.278125
C109	C	1.165378	-0.116310	-0.388554
C110	C	1.498711	0.217024	-0.055221
C111	C	1.832044	0.550357	0.278112
C112	C	1.165374	-0.510414	-1.016619
C113	C	1.498707	-0.177080	-0.683286
C114	C	1.832041	0.156253	-0.349952
C115	C	1.165362	-0.510450	-0.925311
C116	C	1.498695	-0.177117	-0.591977
C117	C	1.832028	0.156216	-0.258644
C118	C	1.165356	-0.510474	-0.852534
C119	C	1.498689	-0.177141	-0.519201
C120	C	1.832023	0.156193	-0.185867
C121	C	1.165343	-0.510509	-0.761220
C122	C	1.498676	-0.177175	-0.427886
C123	C	1.832009	0.156158	-0.094553
C124	C	1.165256	-0.510647	-0.179022
C125	C	1.498590	-0.177314	0.154311
C126	C	1.831923	0.156019	0.487644
C127	C	1.165390	-0.510382	-0.089402
C128	C	1.498724	-0.177049	0.243932
C129	C	1.832057	0.156284	0.577265
H130	H	1.117477	-1.100897	-0.514231
H131	H	1.450810	-0.767564	-0.180897
H132	H	1.784144	-0.434231	0.152436
O133	O	1.199239	-1.110399	-0.240188
O134	O	1.532572	-0.777065	0.093146
O135	O	1.865905	-0.443732	0.426479
H136	H	1.165796	-1.159115	-0.195815
H137	H	1.499129	-0.825782	0.137518
H138	H	1.832462	-0.492449	0.470852
H139	H	1.296977	-1.099979	-0.364825
H140	H	1.630311	-0.766645	-0.031492
H141	H	1.963644	-0.433312	0.301841
H142	H	1.117292	-0.918772	-0.513823
H143	H	1.450625	-0.585439	-0.180490
H144	H	1.783958	-0.252105	0.152844
H145	H	1.040384	-1.102387	-0.436781
H146	H	1.373717	-0.769054	-0.103447
H147	H	1.707050	-0.435720	0.229886
H148	H	1.039671	-0.919692	-0.436396
H149	H	1.373004	-0.586359	-0.103062
H150	H	1.706338	-0.253025	0.230271
O151	O	1.059287	-1.109118	-0.279514
O152	O	1.392621	-0.775784	0.053819
O153	O	1.725954	-0.442451	0.387153
H154	H	1.019995	-1.039938	-0.267552
H155	H	1.353329	-0.706605	0.065781
H156	H	1.686662	-0.373272	0.399115
H157	H	1.186089	-0.919338	-0.255739
H158	H	1.519422	-0.586005	0.077595
H159	H	1.852756	-0.252672	0.410928
O160	O	1.060523	-0.907967	-0.278678
O161	O	1.393857	-0.574634	0.054655
O162	O	1.727190	-0.241301	0.387988
H163	H	1.036156	-0.856078	-0.326697
H164	H	1.369489	-0.522744	0.006636
H165	H	1.702823	-0.189411	0.339970
O166	O	1.278465	-1.111831	-0.491006
O167	O	1.611798	-0.778497	-0.157672
O168	O	1.945131	-0.445164	0.175661
H169	H	1.231795	-1.164890	-0.516498
H170	H	1.565128	-0.831556	-0.183164
H171	H	1.898461	-0.498223	0.150169
O172	O	1.273139	-0.909760	-0.495006
O173	O	1.606472	-0.576427	-0.161673
O174	O	1.939806	-0.243093	0.171661
H175	H	1.224318	-0.859089	-0.519233
H176	H	1.557652	-0.525755	-0.185900
H177	H	1.890985	-0.192422	0.147434
O178	O	1.314722	-0.907833	-0.356284
O179	O	1.648055	-0.574500	-0.022951
O180	O	1.981389	-0.241167	0.310383
H181	H	1.287197	-0.855107	-0.310569
H182	H	1.620531	-0.521774	0.022764
H183	H	1.953864	-0.188441	0.356097
