data_functionalizedCrystal
_audit_creation_method	'MofGen! by Chris Wilmer'
_symmetry_space_group_name_H-M	'P1'
_symmetry_Int_Tables_number	1
_symmetry_cell_setting	triclinic
loop_
_symmetry_equiv_pos_as_xyz
  x,y,z
_cell_length_a	12.827893
_cell_length_b	14.908520
_cell_length_c	12.827885
_cell_angle_alpha	93.263527
_cell_angle_beta	89.980538
_cell_angle_gamma	93.320575
loop_
_atom_site_label
_atom_site_type_symbol
_atom_site_fract_x
_atom_site_fract_y
_atom_site_fract_z
Zn1	Zn	1.573617	-0.359115	-0.614817
Zn2	Zn	2.073617	0.140885	-0.114817
Zn3	Zn	1.563403	-0.509998	-0.450147
Zn4	Zn	2.063403	-0.009998	0.049853
Zn5	Zn	1.398854	-0.359159	-0.440093
Zn6	Zn	1.898854	0.140841	0.059907
Zn7	Zn	1.388741	-0.509931	-0.624843
Zn8	Zn	1.888741	-0.009931	-0.124843
O9	O	1.481154	-0.434551	-0.532475
O10	O	1.981154	0.065449	-0.032475
O11	O	1.718497	-0.379139	-0.592984
O12	O	2.218497	0.120861	-0.092984
O13	O	1.541534	-0.490036	-0.302580
O14	O	2.041534	0.009964	0.197420
O15	O	1.430544	-0.232908	-0.454867
O16	O	1.930544	0.267092	0.045133
O17	O	1.710994	-0.489993	-0.472002
O18	O	2.210994	0.010007	0.027998
O19	O	1.558941	-0.232876	-0.583236
O20	O	2.058941	0.267124	-0.083236
O21	O	1.420640	-0.379214	-0.295194
O22	O	1.920640	0.120786	0.204806
O23	O	1.251278	-0.379149	-0.464589
O24	O	1.751278	0.120851	0.035411
O25	O	1.413307	-0.489879	-0.769746
O26	O	1.913307	0.010121	-0.269746
O27	O	1.243847	-0.489921	-0.600323
O28	O	1.743847	0.010079	-0.100323
O29	O	1.549134	-0.379074	-0.762380
O30	O	2.049134	0.120926	-0.262380
O31	O	1.531727	-0.636234	-0.481724
O32	O	2.031727	-0.136234	0.018276
O33	O	1.403403	-0.636184	-0.610072
O34	O	1.903403	-0.136184	-0.110072
C35	C	1.209645	-0.434533	-0.532454
C36	C	1.709645	0.065467	-0.032454
C37	C	1.093491	-0.434548	-0.532471
C38	C	1.593491	0.065452	-0.032471
C39	C	1.038051	-0.489447	-0.599545
C40	C	1.538051	0.010553	-0.099545
C41	C	0.918000	-0.489463	-0.599564
C42	C	1.418000	0.010537	-0.099564
C43	C	1.465388	-0.668943	-0.548100
C44	C	1.965388	-0.168943	-0.048100
C45	C	1.458739	-0.769217	-0.554820
C46	C	1.958739	-0.269217	-0.054820
C47	C	1.580005	-0.957632	-0.433905
C48	C	2.080005	-0.457632	0.066095
C49	C	1.573761	-1.051849	-0.440215
C50	C	2.073761	-0.551849	0.059785
C51	C	1.440013	-1.051867	-0.573755
C52	C	1.940013	-0.551867	-0.073755
C53	C	1.446257	-0.957651	-0.567444
C54	C	1.946257	-0.457651	-0.067444
C55	C	1.516254	-0.910537	-0.497516
C56	C	2.016254	-0.410537	0.002484
C57	C	1.522492	-0.816319	-0.491201
C58	C	2.022492	-0.316319	0.008799
C59	C	1.388750	-0.816339	-0.624745
C60	C	1.888750	-0.316339	-0.124745
C61	C	1.382506	-0.910555	-0.631056
C62	C	1.882506	-0.410555	-0.131056
C63	C	1.753723	-0.434569	-0.532497
C64	C	2.253723	0.065431	-0.032497
C65	C	1.869875	-0.434576	-0.532506
C66	C	2.369875	0.065424	-0.032506
C67	C	1.481232	-0.434464	-0.805039
C68	C	1.981232	0.065536	-0.305039
C69	C	1.481265	-0.434427	-0.921190
C70	C	1.981265	0.065573	-0.421190
C71	C	1.497010	-0.199243	-0.516811
C72	C	1.997010	0.300757	-0.016811
C73	C	1.503767	-0.098969	-0.510137
C74	C	2.003767	0.401031	-0.010137
C75	C	1.421464	-0.379578	-0.969319
C76	C	1.921464	0.120422	-0.469319
C77	C	1.421497	-0.379539	-1.089367
C78	C	1.921497	0.120461	-0.589367
C79	C	1.481141	-0.434572	-0.260966
C80	C	1.981141	0.065428	0.239034
C81	C	1.481327	-0.434355	-0.144799
C82	C	1.981327	0.065645	0.355201
H83	H	0.917531	-0.387576	-0.475075
H84	H	1.417531	0.112424	0.024925
Br85	Br	1.024478	-0.356216	-0.436786
Br86	Br	1.524478	0.143784	0.063214
H87	H	1.579485	-0.777959	-0.434260
H88	H	2.079485	-0.277959	0.065740
H89	H	0.870337	-0.536467	-0.656985
H90	H	1.370337	-0.036467	-0.156985
H91	H	1.636993	-0.919271	-0.376960
H92	H	2.136993	-0.419271	0.123040
Br93	Br	1.345042	-1.115823	-0.668667
Br94	Br	1.845042	-0.615823	-0.168667
H95	H	1.325519	-0.948929	-0.687992
H96	H	1.825519	-0.448929	-0.187992
H97	H	1.370304	-0.332577	-1.130770
H98	H	1.870304	0.167423	-0.630770
H99	H	1.625676	-1.090190	-0.388418
H100	H	2.125676	-0.590190	0.111582
Br101	Br	1.107065	-0.567773	-0.695235
Br102	Br	1.607065	-0.067773	-0.195235
Br103	Br	1.302207	-0.752419	-0.711062
Br104	Br	1.802207	-0.252419	-0.211062
Br105	Br	1.336100	-0.301344	-0.889876
Br106	Br	1.836100	0.198656	-0.389876
Br107	Br	1.566677	-0.512621	-1.075805
Br108	Br	2.066677	-0.012621	-0.575805
H109	H	1.532486	-0.481357	-0.968860
H110	H	2.032486	0.018643	-0.468860
