data_functionalizedCrystal
_audit_creation_method	'MofGen! by Chris Wilmer'
_symmetry_space_group_name_H-M	'P1'
_symmetry_Int_Tables_number	1
_symmetry_cell_setting	triclinic
loop_
_symmetry_equiv_pos_as_xyz
  x,y,z
_cell_length_a	12.827893
_cell_length_b	29.839131
_cell_length_c	12.827885
_cell_angle_alpha	89.955525
_cell_angle_beta	89.980919
_cell_angle_gamma	90.035200
loop_
_atom_site_label
_atom_site_type_symbol
_atom_site_fract_x
_atom_site_fract_y
_atom_site_fract_z
Zn1	Zn	1.597526	-0.178832	-0.590737
Zn2	Zn	1.597359	-0.253969	-0.415952
Zn3	Zn	1.422767	-0.178854	-0.416011
Zn4	Zn	1.422692	-0.253936	-0.590653
O5	O	1.510086	-0.216398	-0.503338
O6	O	1.743739	-0.188804	-0.567562
O7	O	1.574161	-0.244028	-0.269724
O8	O	1.446050	-0.115984	-0.439248
O9	O	1.743617	-0.244007	-0.439148
O10	O	1.574445	-0.115968	-0.567619
O11	O	1.445889	-0.188841	-0.269767
O12	O	1.276521	-0.188809	-0.439167
O13	O	1.445922	-0.243950	-0.736900
O14	O	1.276466	-0.243971	-0.567476
O15	O	1.574372	-0.188771	-0.736962
O16	O	1.574088	-0.316832	-0.439067
O17	O	1.445761	-0.316807	-0.567419
C18	C	1.238576	-0.216389	-0.503319
C19	C	1.122423	-0.216396	-0.503336
C20	C	1.070578	-0.243670	-0.439708
C21	C	0.950528	-0.243678	-0.439724
C22	C	1.509926	-0.333120	-0.503250
C23	C	1.509954	-0.383055	-0.503247
C24	C	1.576926	-0.692655	-0.570276
C25	C	1.577040	-0.880328	-0.570339
O26	O	1.633826	-0.904556	-0.627263
N27	N	1.510263	-0.903840	-0.503454
C28	C	1.443449	-0.880430	-0.436554
O29	O	1.386647	-0.904735	-0.379674
C30	C	1.443331	-0.692758	-0.436497
C31	C	1.510119	-0.669249	-0.503379
C32	C	1.643708	-0.669145	-0.637153
C33	C	1.643683	-0.622230	-0.637132
C34	C	1.576876	-0.598824	-0.570235
C35	C	1.510094	-0.622333	-0.503358
C36	C	1.376512	-0.669350	-0.369603
C37	C	1.376487	-0.622429	-0.369597
C38	C	1.443275	-0.598919	-0.436478
C39	C	1.443262	-0.552012	-0.436441
N40	N	1.510039	-0.528500	-0.503325
C41	C	1.576846	-0.551906	-0.570222
C42	C	1.443517	-0.978961	-0.436587
C43	C	1.443548	-1.025879	-0.436600
C44	C	1.577137	-1.025773	-0.570386
C45	C	1.577111	-0.978854	-0.570367
C46	C	1.510293	-0.955449	-0.503471
C47	C	1.576789	-0.453380	-0.570174
C48	C	1.576761	-0.406461	-0.570144
C49	C	1.443168	-0.406571	-0.436363
C50	C	1.443199	-0.453486	-0.436388
C51	C	1.510013	-0.476890	-0.503302
O52	O	1.386498	-0.527755	-0.379554
O53	O	1.633623	-0.527593	-0.627110
C54	C	1.576951	-0.739570	-0.570296
C55	C	1.510169	-0.763080	-0.503419
C56	C	1.443362	-0.739674	-0.436522
C57	C	1.510200	-0.809997	-0.503432
C58	C	1.577007	-0.833403	-0.570329
C59	C	1.643783	-0.809892	-0.637214
C60	C	1.643758	-0.762976	-0.637193
C61	C	1.376586	-0.763186	-0.369638
C62	C	1.376617	-0.810101	-0.369663
C63	C	1.443424	-0.833507	-0.436560
C64	C	1.782656	-0.216407	-0.503358
C65	C	1.898809	-0.216410	-0.503366
C66	C	1.510157	-0.216354	-0.775908
C67	C	1.510187	-0.216336	-0.892062
C68	C	1.510274	-0.099219	-0.503449
C69	C	1.510355	-0.049285	-0.503497
C70	C	1.573755	-0.189027	-0.943877
C71	C	1.573788	-0.189007	-1.063927
C72	C	1.510075	-0.216408	-0.231828
C73	C	1.510247	-0.216300	-0.115676
H74	H	0.943388	-0.193057	-0.557838
N75	N	1.645379	-1.049693	-0.638709
N76	N	1.645388	-1.091584	-0.638701
H77	H	1.693578	-1.108480	-0.686954
H78	H	1.631188	-0.472430	-0.624669
N79	N	1.308322	-0.739285	-0.301312
N80	N	1.211896	-0.744564	-0.308164
H81	H	1.163679	-0.727687	-0.259903
H82	H	1.698183	-0.828957	-0.691680
H83	H	0.905942	-0.267028	-0.385248
H84	H	1.628214	-0.165628	-1.108487
N85	N	1.441951	-0.245627	-1.059792
N86	N	1.345520	-0.242643	-1.071897
H87	H	1.297283	-0.263355	-1.032423
N88	N	1.711912	-0.598226	-0.705459
N89	N	1.771548	-0.619138	-0.765180
H90	H	1.819737	-0.602188	-0.813442
H91	H	1.628150	-0.165659	-0.899361
H92	H	1.077932	-0.193053	-0.557824
N93	N	1.441934	-0.245653	-0.947879
N94	N	1.382169	-0.271328	-0.899226
H95	H	1.333960	-0.292033	-0.938644
N96	N	1.374911	-0.382664	-0.368037
N97	N	1.315277	-0.403656	-0.308330
H98	H	1.267063	-0.386771	-0.260079
N99	N	1.375017	-0.477496	-0.368020
N100	N	1.315400	-0.456590	-0.308270
H101	H	1.267250	-0.473544	-0.259977
H102	H	1.322232	-0.829238	-0.315190
N103	N	1.126396	-0.272959	-0.371369
N104	N	1.223838	-0.272912	-0.371457
H105	H	1.263259	-0.293599	-0.323191
N106	N	1.644999	-0.382454	-0.638467
N107	N	1.704641	-0.403361	-0.698190
H108	H	1.752833	-0.386408	-0.746442
H109	H	1.698110	-0.688197	-0.691634
N110	N	1.375337	-1.049883	-0.368257
N111	N	1.315698	-1.028974	-0.308534
H112	H	1.267519	-1.045925	-0.260265
N113	N	1.645342	-0.954849	-0.638688
N114	N	1.704988	-0.975758	-0.698405
H115	H	1.753179	-0.958807	-0.746661
H116	H	1.389105	-0.959908	-0.382110
N117	N	1.308269	-0.693349	-0.301290
N118	N	1.248616	-0.672437	-0.241588
H119	H	1.200408	-0.689385	-0.193344
N120	N	1.712003	-0.738971	-0.705501
N121	N	1.808433	-0.744189	-0.698642
H122	H	1.856639	-0.727240	-0.746887
N123	N	1.308219	-0.598529	-0.301262
N124	N	1.248596	-0.619529	-0.241560
H125	H	1.200382	-0.602651	-0.193297
