data_functionalizedCrystal
_audit_creation_method	'MofGen! by Chris Wilmer'
_symmetry_space_group_name_H-M	'P1'
_symmetry_Int_Tables_number	1
_symmetry_cell_setting	triclinic
loop_
_symmetry_equiv_pos_as_xyz
  x,y,z
_cell_length_a	25.639242
_cell_length_b	14.908932
_cell_length_c	14.908308
_cell_angle_alpha	89.790170
_cell_angle_beta	93.269512
_cell_angle_gamma	93.294745
loop_
_atom_site_label
_atom_site_type_symbol
_atom_site_fract_x
_atom_site_fract_y
_atom_site_fract_z
Zn1	Zn	0.770105	-0.387409	-0.487995
Zn2	Zn	1.270105	0.112591	0.012005
Zn3	Zn	0.770652	-0.529110	-0.328983
Zn4	Zn	1.270652	-0.029110	0.171017
Zn5	Zn	0.687991	-0.378757	-0.337630
Zn6	Zn	1.187991	0.121243	0.162370
Zn7	Zn	0.677945	-0.537711	-0.479271
Zn8	Zn	1.177945	-0.037711	0.020729
O9	O	0.726673	-0.458247	-0.408470
O10	O	1.226673	0.041753	0.091530
O11	O	0.843341	-0.406227	-0.466933
O12	O	1.343341	0.093773	0.033067
O13	O	0.764120	-0.501944	-0.204305
O14	O	1.264120	-0.001944	0.295695
O15	O	0.702858	-0.254079	-0.364845
O16	O	1.202858	0.245921	0.135155
O17	O	0.843743	-0.510334	-0.350108
O18	O	1.343743	-0.010334	0.149892
O19	O	0.763187	-0.260436	-0.475318
O20	O	1.263187	0.239564	0.024682
O21	O	0.703389	-0.391480	-0.210658
O22	O	1.203389	0.108520	0.289342
O23	O	0.613495	-0.399821	-0.356387
O24	O	1.113495	0.100179	0.143613
O25	O	0.685737	-0.524994	-0.606253
O26	O	1.185737	-0.024994	-0.106253
O27	O	0.606114	-0.516604	-0.460450
O28	O	1.106114	-0.016604	0.039550
O29	O	0.753446	-0.414568	-0.612662
O30	O	1.253446	0.085432	-0.112662
O31	O	0.754379	-0.656076	-0.341649
O32	O	1.254379	-0.156076	0.158351
O33	O	0.686267	-0.662395	-0.452066
O34	O	1.186267	-0.162395	0.047934
C35	C	0.590834	-0.458208	-0.408411
C36	C	1.090834	0.041792	0.091589
C37	C	0.532720	-0.458214	-0.408406
C38	C	1.032720	0.041786	0.091594
C39	C	0.734083	-0.223720	-0.422019
C40	C	1.234083	0.276280	0.077981
C41	C	0.737240	-0.123779	-0.427793
C42	C	1.237240	0.376221	0.072207
C43	C	0.718410	-0.471705	-0.642995
C44	C	1.218410	0.028295	-0.142995
C45	C	0.714889	-0.477441	-0.742935
C46	C	1.214889	0.022559	-0.242935
C47	C	0.168518	-0.519149	-0.462595
C48	C	0.668518	-0.019149	0.037405
C49	C	0.113913	-0.519155	-0.462609
C50	C	0.613913	-0.019155	0.037391
O51	O	0.082416	-0.570917	-0.508634
O52	O	0.582416	-0.070917	-0.008634
N53	N	0.090431	-0.458275	-0.408527
N54	N	0.590431	0.041725	0.091473
C55	C	0.121557	-0.397378	-0.354434
C56	C	0.621557	0.102622	0.145566
O57	O	0.096570	-0.345595	-0.308434
O58	O	0.596570	0.154405	0.191566
C59	C	0.176161	-0.397368	-0.354425
C60	C	0.676161	0.102632	0.145575
C61	C	0.199640	-0.458259	-0.408505
C62	C	0.699640	0.041741	0.091495
C63	C	0.191997	-0.580033	-0.516671
C64	C	0.691997	-0.080033	-0.016671
C65	C	0.246599	-0.580028	-0.516656
C66	C	0.746599	-0.080028	-0.016656
C67	C	0.277721	-0.519138	-0.462565
C68	C	0.777721	-0.019138	0.037435
C69	C	0.254241	-0.458253	-0.408489
C70	C	0.754241	0.041747	0.091511
C71	C	0.207286	-0.336468	-0.300338
C72	C	0.707286	0.163532	0.199662
C73	C	0.261893	-0.336463	-0.300334
C74	C	0.761893	0.163537	0.199666
C75	C	0.285372	-0.397353	-0.354414
C76	C	0.785372	0.102647	0.145586
C77	C	0.339964	-0.397358	-0.354383
C78	C	0.839964	0.102642	0.145617
N79	N	0.363446	-0.458238	-0.408465
N80	N	0.863446	0.041762	0.091535
C81	C	0.332324	-0.519128	-0.462556
C82	C	0.832324	-0.019128	0.037444
C83	C	0.006885	-0.397403	-0.354457
C84	C	0.506885	0.102597	0.145543
C85	C	-0.047718	-0.397416	-0.354460
C86	C	0.452282	0.102584	0.145540
C87	C	-0.055358	-0.519192	-0.462637
C88	C	0.444642	-0.019192	0.037363
C89	C	-0.000754	-0.519182	-0.462628
C90	C	0.499246	-0.019182	0.037372
C91	C	0.030367	-0.458283	-0.408539
C92	C	0.530367	0.041717	0.091461
C93	C	0.446991	-0.519112	-0.462519
C94	C	0.946991	-0.019112	0.037481
C95	C	0.501598	-0.519104	-0.462496
C96	C	1.001598	-0.019104	0.037504
C97	C	0.509233	-0.397325	-0.354323
C98	C	1.009233	0.102675	0.145677
C99	C	0.454632	-0.397336	-0.354342
C100	C	0.954632	0.102664	0.145658
C101	C	0.423512	-0.458233	-0.408448
C102	C	0.923512	0.041767	0.091552
O103	O	0.371495	-0.345620	-0.308384
O104	O	0.871495	0.154380	0.191616
O105	O	0.357319	-0.570895	-0.508557
O106	O	0.857319	-0.070895	-0.008557
C107	C	0.863043	-0.458286	-0.408529
C108	C	1.363043	0.041714	0.091471
C109	C	0.921155	-0.458303	-0.408555
C110	C	1.421155	0.041697	0.091445
C111	C	0.719306	-0.691862	-0.394992
C112	C	1.219306	-0.191862	0.105008
C113	C	0.716201	-0.791805	-0.389257
C114	C	1.216201	-0.291805	0.110743
C115	C	0.680341	0.070642	-0.323611
C116	C	1.180341	0.570642	0.176389
C117	C	0.683306	0.164546	-0.329033
C118	C	1.183306	0.664546	0.170967
C119	C	0.746132	0.157934	-0.444064
C120	C	1.246132	0.657934	0.055936
C121	C	0.743167	0.064030	-0.438642
C122	C	1.243167	0.564030	0.061358
C123	C	0.710271	0.020387	-0.378412
C124	C	1.210271	0.520387	0.121588
C125	C	0.707309	-0.073518	-0.372986
C126	C	1.207309	0.426482	0.127014
C127	C	0.770132	-0.080128	-0.488021
C128	C	1.270132	0.419872	0.011979
C129	C	0.773097	0.013775	-0.493443
C130	C	1.273097	0.513775	0.006557
C131	C	0.778777	-0.373210	-0.937411
C132	C	1.278777	0.126790	-0.437411
C133	C	0.775470	-0.378596	-1.031314
C134	C	1.275470	0.121404	-0.531314
C135	C	0.704966	-0.493593	-1.024647
C136	C	1.204966	0.006407	-0.524647
C137	C	0.708273	-0.488207	-0.930744
C138	C	1.208273	0.011793	-0.430744
C139	C	0.745180	-0.428015	-0.887129
C140	C	1.245180	0.071985	-0.387129
C141	C	0.748489	-0.422634	-0.793224
C142	C	1.248489	0.077366	-0.293224
C143	C	0.677983	-0.537626	-0.786559
C144	C	1.177983	-0.037626	-0.286559
C145	C	0.674676	-0.543012	-0.880462
C146	C	1.174676	-0.043012	-0.380462
C147	C	0.734936	-0.444775	-0.174861
C148	C	1.234936	0.055225	0.325139
C149	C	0.738567	-0.438786	-0.074935
C150	C	1.238567	0.061214	0.425065
H151	H	0.520711	-0.568691	-0.506535
H152	H	1.020711	-0.068691	-0.006535
Cl153	Cl	0.628281	-0.618677	-0.935301
Cl154	Cl	1.128281	-0.118677	-0.435301
H155	H	0.808831	-0.324204	-0.901899
H156	H	1.308831	0.175796	-0.401899
H157	H	0.188179	-0.286887	-0.256298
H158	H	0.688179	0.213113	0.243702
H159	H	0.287230	-0.286865	-0.256293
H160	H	0.787230	0.213135	0.243707
H161	H	0.650627	-0.582254	-0.745609
H162	H	1.150627	-0.082254	-0.245609
Cl163	Cl	0.425114	-0.320802	-0.286341
Cl164	Cl	0.925114	0.179198	0.213659
Cl165	Cl	0.152882	-0.656592	-0.584680
Cl166	Cl	0.652882	-0.156592	-0.084680
H167	H	0.772912	0.193479	-0.493108
H168	H	1.272912	0.693479	0.006892
H169	H	0.421659	-0.568698	-0.506579
H170	H	0.921659	-0.068698	-0.006579
Cl171	Cl	0.817708	-0.309695	-1.094523
Cl172	Cl	1.317708	0.190305	-0.594523
Cl173	Cl	0.028756	-0.595730	-0.530618
Cl174	Cl	0.528756	-0.095730	-0.030618
H175	H	0.265710	-0.629609	-0.560694
H176	H	0.765710	-0.129609	-0.060694
Cl177	Cl	0.638993	0.015774	-0.247886
Cl178	Cl	1.138993	0.515774	0.252114
Cl179	Cl	0.645676	0.227720	-0.260139
Cl180	Cl	1.145676	0.727720	0.239861
Cl181	Cl	0.794887	-0.346967	-0.738394
Cl182	Cl	1.294887	0.153033	-0.238394
H183	H	0.799879	0.049320	-0.542483
H184	H	1.299879	0.549320	-0.042483
H185	H	0.674918	-0.542598	-1.060174
H186	H	1.174918	-0.042598	-0.560174
H187	H	-0.066829	-0.347841	-0.310414
H188	H	0.433171	0.152159	0.189586
H189	H	-0.080708	-0.568769	-0.506684
H190	H	0.419292	-0.068769	-0.006684
Cl191	Cl	0.807765	-0.143311	-0.556912
Cl192	Cl	1.307765	0.356689	-0.056912
H193	H	0.032221	-0.347811	-0.310404
H194	H	0.532221	0.152189	0.189596
Cl195	Cl	0.665955	-0.128381	-0.297267
Cl196	Cl	1.165955	0.371619	0.202733
Cl197	Cl	0.548368	-0.320781	-0.286328
Cl198	Cl	1.048368	0.179219	0.213672
