data_functionalizedCrystal
_audit_creation_method	'MofGen! by Chris Wilmer'
_symmetry_space_group_name_H-M	'P1'
_symmetry_Int_Tables_number	1
_symmetry_cell_setting	triclinic
loop_
_symmetry_equiv_pos_as_xyz
  x,y,z
_cell_length_a	18.101398
_cell_length_b	25.639234
_cell_length_c	18.101397
_cell_angle_alpha	89.977192
_cell_angle_beta	90.015323
_cell_angle_gamma	89.988672
loop_
_atom_site_label
_atom_site_type_symbol
_atom_site_fract_x
_atom_site_fract_y
_atom_site_fract_z
Zn1	Zn	1.132191	-0.295498	-0.294963
Zn2	Zn	1.382191	-0.045498	-0.044963
Zn3	Zn	1.632191	0.204502	0.205037
Zn4	Zn	1.882191	0.454502	0.455037
Zn5	Zn	1.132108	-0.208066	-0.418798
Zn6	Zn	1.382108	0.041934	-0.168798
Zn7	Zn	1.632108	0.291934	0.081202
Zn8	Zn	1.882108	0.541934	0.331202
Zn9	Zn	1.008346	-0.208090	-0.294965
Zn10	Zn	1.258346	0.041910	-0.044965
Zn11	Zn	1.508346	0.291910	0.205035
Zn12	Zn	1.758346	0.541910	0.455035
Zn13	Zn	1.008325	-0.295483	-0.418757
Zn14	Zn	1.258325	-0.045483	-0.168757
Zn15	Zn	1.508325	0.204517	0.081243
Zn16	Zn	1.758325	0.454517	0.331243
O17	O	1.070243	-0.251784	-0.356871
O18	O	1.320243	-0.001784	-0.106871
O19	O	1.570243	0.248216	0.143129
O20	O	1.820243	0.498216	0.393129
O21	O	1.235813	-0.283897	-0.311406
O22	O	1.485813	-0.033897	-0.061406
O23	O	1.735813	0.216103	0.188594
O24	O	1.985813	0.466103	0.438594
O25	O	1.115665	-0.134904	-0.402389
O26	O	1.365665	0.115096	-0.152389
O27	O	1.615665	0.365096	0.097611
O28	O	1.865665	0.615096	0.347611
O29	O	1.024818	-0.219701	-0.191332
O30	O	1.274818	0.030299	0.058668
O31	O	1.524818	0.280299	0.308668
O32	O	1.774818	0.530299	0.558668
O33	O	1.235752	-0.219660	-0.402387
O34	O	1.485752	0.030340	-0.152387
O35	O	1.735752	0.280340	0.097613
O36	O	1.985752	0.530340	0.347613
O37	O	1.115806	-0.283920	-0.191330
O38	O	1.365806	-0.033920	0.058670
O39	O	1.615806	0.216080	0.308670
O40	O	1.865806	0.466080	0.558670
O41	O	1.024738	-0.134922	-0.311410
O42	O	1.274738	0.115078	-0.061410
O43	O	1.524738	0.365078	0.188590
O44	O	1.774738	0.615078	0.438590
O45	O	0.904711	-0.219687	-0.311370
O46	O	1.154711	0.030313	-0.061370
O47	O	1.404711	0.280313	0.188630
O48	O	1.654711	0.530313	0.438630
O49	O	1.024782	-0.368651	-0.402317
O50	O	1.274782	-0.118651	-0.152317
O51	O	1.524782	0.131349	0.097683
O52	O	1.774782	0.381349	0.347683
O53	O	0.904695	-0.283894	-0.402320
O54	O	1.154695	-0.033894	-0.152320
O55	O	1.404695	0.216106	0.097680
O56	O	1.654695	0.466106	0.347680
O57	O	1.115786	-0.368662	-0.311366
O58	O	1.365786	-0.118662	-0.061366
O59	O	1.615786	0.131338	0.188634
O60	O	1.865786	0.381338	0.438634
O61	O	1.115644	-0.219646	-0.522425
O62	O	1.365644	0.030354	-0.272425
O63	O	1.615644	0.280354	-0.022425
O64	O	1.865644	0.530354	0.227575
O65	O	1.024701	-0.283871	-0.522395
O66	O	1.274701	-0.033871	-0.272395
O67	O	1.524701	0.216129	-0.022395
O68	O	1.774701	0.466129	0.227605
C69	C	0.877832	-0.251792	-0.356842
C70	C	1.127832	-0.001792	-0.106842
C71	C	1.377832	0.248208	0.143158
C72	C	1.627832	0.498208	0.393158
C73	C	0.795518	-0.251807	-0.356847
C74	C	1.045518	-0.001807	-0.106847
C75	C	1.295518	0.248193	0.143153
C76	C	1.545518	0.498193	0.393153
C77	C	0.496427	-0.251785	-0.356890
C78	C	0.746427	-0.001785	-0.106890
C79	C	0.996427	0.248215	0.143110
C80	C	1.246427	0.498215	0.393110
C81	C	0.527767	-0.291984	-0.414390
C82	C	0.777767	-0.041984	-0.164390
C83	C	1.027767	0.208016	0.085610
C84	C	1.277767	0.458016	0.335610
C85	C	0.613385	-0.292149	-0.414210
C86	C	0.863385	-0.042149	-0.164210
C87	C	1.113385	0.207851	0.085790
C88	C	1.363385	0.457851	0.335790
C89	C	0.644809	-0.251796	-0.356870
C90	C	0.894809	-0.001796	-0.106870
C91	C	1.144809	0.248204	0.143130
C92	C	1.394809	0.498204	0.393130
C93	C	0.613740	-0.266854	-0.278869
C94	C	0.863740	-0.016854	-0.028869
C95	C	1.113740	0.233146	0.221131
C96	C	1.363740	0.483146	0.471131
C97	C	0.528095	-0.267140	-0.279215
C98	C	0.778095	-0.017140	-0.029215
C99	C	1.028095	0.232860	0.220785
C100	C	1.278095	0.482860	0.470785
C101	C	0.527976	-0.196433	-0.376703
C102	C	0.777976	0.053567	-0.126703
C103	C	1.027976	0.303567	0.123297
C104	C	1.277976	0.553567	0.373297
C105	C	0.613626	-0.196729	-0.378415
C106	C	0.863626	0.053271	-0.128415
C107	C	1.113626	0.303271	0.121585
C108	C	1.363626	0.553271	0.371585
C109	C	0.728669	-0.251802	-0.356853
C110	C	0.978669	-0.001802	-0.106853
C111	C	1.228669	0.248198	0.143147
C112	C	1.478669	0.498198	0.393147
C113	C	0.412567	-0.251781	-0.356902
C114	C	0.662567	-0.001781	-0.106902
C115	C	0.912567	0.248219	0.143098
C116	C	1.162567	0.498219	0.393098
C117	C	1.070291	-0.388158	-0.356837
C118	C	1.320291	-0.138158	-0.106837
C119	C	1.570291	0.111842	0.143163
C120	C	1.820291	0.361842	0.393163
C121	C	1.070311	-0.446272	-0.356822
C122	C	1.320311	-0.196272	-0.106822
C123	C	1.570311	0.053728	0.143178
C124	C	1.820311	0.303728	0.393178
C125	C	1.022986	-0.806649	-0.309361
C126	C	1.272986	-0.556649	-0.059361
C127	C	1.522986	-0.306649	0.190639
C128	C	1.772986	-0.056649	0.440639
C129	C	1.022990	-0.861254	-0.309348
C130	C	1.272990	-0.611254	-0.059348
C131	C	1.522990	-0.361254	0.190652
C132	C	1.772990	-0.111254	0.440652
O133	O	0.982716	-0.889503	-0.269076
O134	O	1.232716	-0.639503	-0.019076
O135	O	1.482716	-0.389503	0.230924
O136	O	1.732716	-0.139503	0.480924
N137	N	1.070336	-0.888554	-0.356706
N138	N	1.320336	-0.638554	-0.106706
N139	N	1.570336	-0.388554	0.143294
N140	N	1.820336	-0.138554	0.393294
C141	C	1.117675	-0.861248	-0.404087
C142	C	1.367675	-0.611248	-0.154087
C143	C	1.617675	-0.361248	0.095913
C144	C	1.867675	-0.111248	0.345913
O145	O	1.157946	-0.889483	-0.444368
O146	O	1.407946	-0.639483	-0.194368
O147	O	1.657946	-0.389483	0.055632
O148	O	1.907946	-0.139483	0.305632
C149	C	1.117667	-0.806644	-0.404103
C150	C	1.367667	-0.556644	-0.154103
C151	C	1.617667	-0.306644	0.095897
C152	C	1.867667	-0.056644	0.345897
C153	C	1.070323	-0.779347	-0.356736
C154	C	1.320323	-0.529347	-0.106736
C155	C	1.570323	-0.279347	0.143264
C156	C	1.820323	-0.029347	0.393264
C157	C	0.975646	-0.779352	-0.261999
C158	C	1.225646	-0.529352	-0.011999
C159	C	1.475646	-0.279352	0.238001
C160	C	1.725646	-0.029352	0.488001
C161	C	0.975643	-0.724751	-0.262012
C162	C	1.225643	-0.474751	-0.012012
C163	C	1.475643	-0.224751	0.237988
C164	C	1.725643	0.025249	0.487988
C165	C	1.022981	-0.697448	-0.309387
C166	C	1.272981	-0.447448	-0.059387
C167	C	1.522981	-0.197448	0.190613
C168	C	1.772981	0.052552	0.440613
C169	C	1.070321	-0.724746	-0.356749
C170	C	1.320321	-0.474746	-0.106749
C171	C	1.570321	-0.224746	0.143251
C172	C	1.820321	0.025254	0.393251
C173	C	1.165002	-0.779338	-0.451487
C174	C	1.415002	-0.529338	-0.201487
C175	C	1.665002	-0.279338	0.048513
C176	C	1.915002	-0.029338	0.298513
C177	C	1.164989	-0.724731	-0.451499
C178	C	1.414989	-0.474731	-0.201499
C179	C	1.664989	-0.224731	0.048501
C180	C	1.914989	0.025269	0.298501
C181	C	1.117646	-0.697434	-0.404133
C182	C	1.367646	-0.447434	-0.154133
C183	C	1.617646	-0.197434	0.095867
C184	C	1.867646	0.052566	0.345867
C185	C	1.117655	-0.642843	-0.404137
C186	C	1.367655	-0.392843	-0.154137
C187	C	1.617655	-0.142843	0.095863
C188	C	1.867655	0.107157	0.345863
N189	N	1.070309	-0.615542	-0.356778
N190	N	1.320309	-0.365542	-0.106778
N191	N	1.570309	-0.115542	0.143222
N192	N	1.820309	0.134458	0.393222
C193	C	1.022972	-0.642845	-0.309403
C194	C	1.272972	-0.392845	-0.059403
C195	C	1.522972	-0.142845	0.190597
C196	C	1.772972	0.107155	0.440597
C197	C	1.117688	-0.975918	-0.404049
C198	C	1.367688	-0.725918	-0.154049
C199	C	1.617688	-0.475918	0.095951
C200	C	1.867688	-0.225918	0.345951
C201	C	1.117700	-1.030521	-0.404029
C202	C	1.367700	-0.780521	-0.154029
C203	C	1.617700	-0.530521	0.095971
C204	C	1.867700	-0.280521	0.345971
C205	C	1.023014	-1.030523	-0.309291
C206	C	1.273014	-0.780523	-0.059291
C207	C	1.523014	-0.530523	0.190709
C208	C	1.773014	-0.280523	0.440709
C209	C	1.023006	-0.975920	-0.309308
C210	C	1.273006	-0.725920	-0.059308
C211	C	1.523006	-0.475920	0.190692
C212	C	1.773006	-0.225920	0.440692
C213	C	1.070342	-0.948618	-0.356691
C214	C	1.320342	-0.698618	-0.106691
C215	C	1.570342	-0.448618	0.143309
C216	C	1.820342	-0.198618	0.393309
C217	C	1.022970	-0.528180	-0.309433
C218	C	1.272970	-0.278180	-0.059433
C219	C	1.522970	-0.028180	0.190567
C220	C	1.772970	0.221820	0.440567
C221	C	1.022974	-0.473574	-0.309447
C222	C	1.272974	-0.223574	-0.059447
C223	C	1.522974	0.026426	0.190553
C224	C	1.772974	0.276426	0.440553
C225	C	1.117657	-0.473577	-0.404188
C226	C	1.367657	-0.223577	-0.154188
C227	C	1.617657	0.026423	0.095812
C228	C	1.867657	0.276423	0.345812
C229	C	1.117656	-0.528177	-0.404171
C230	C	1.367656	-0.278177	-0.154171
C231	C	1.617656	-0.028177	0.095829
C232	C	1.867656	0.221823	0.345829
C233	C	1.070307	-0.555478	-0.356791
C234	C	1.320307	-0.305478	-0.106791
C235	C	1.570307	-0.055478	0.143209
C236	C	1.820307	0.194522	0.393209
O237	O	1.157907	-0.614559	-0.444390
O238	O	1.407907	-0.364559	-0.194390
O239	O	1.657907	-0.114559	0.055610
O240	O	1.907907	0.135441	0.305610
O241	O	0.982701	-0.614603	-0.269135
O242	O	1.232701	-0.364603	-0.019135
O243	O	1.482701	-0.114603	0.230865
O244	O	1.732701	0.135397	0.480865
C245	C	1.263404	-0.251777	-0.356900
C246	C	1.513404	-0.001777	-0.106900
C247	C	1.763404	0.248223	0.143100
C248	C	2.013404	0.498223	0.393100
C249	C	1.345718	-0.251774	-0.356913
C250	C	1.595718	-0.001774	-0.106913
C251	C	1.845718	0.248226	0.143087
C252	C	2.095718	0.498226	0.393087
C253	C	1.070181	-0.251766	-0.549281
C254	C	1.320181	-0.001766	-0.299281
C255	C	1.570181	0.248234	-0.049281
C256	C	1.820181	0.498234	0.200719
C257	C	1.070223	-0.251775	-0.631595
C258	C	1.320223	-0.001775	-0.381595
C259	C	1.570223	0.248225	-0.131595
C260	C	1.820223	0.498225	0.118405
C261	C	1.070237	-0.115942	-0.356851
C262	C	1.320237	0.134058	-0.106851
C263	C	1.570237	0.384058	0.143149
C264	C	1.820237	0.634058	0.393149
C265	C	1.070360	-0.057828	-0.356657
C266	C	1.320360	0.192172	-0.106657
C267	C	1.570360	0.442172	0.143343
C268	C	1.820360	0.692172	0.393343
C269	C	1.070268	-0.251793	-0.782304
C270	C	1.320268	-0.001793	-0.532304
C271	C	1.570268	0.248207	-0.282304
C272	C	1.820268	0.498207	-0.032304
C273	C	1.127543	-0.211423	-0.813645
C274	C	1.377543	0.038577	-0.563645
C275	C	1.627543	0.288577	-0.313645
C276	C	1.877543	0.538577	-0.063645
C277	C	1.127401	-0.211275	-0.899264
C278	C	1.377401	0.038725	-0.649264
C279	C	1.627401	0.288725	-0.399264
C280	C	1.877401	0.538725	-0.149264
C281	C	1.070314	-0.251810	-0.930686
C282	C	1.320314	-0.001810	-0.680686
C283	C	1.570314	0.248190	-0.430686
C284	C	1.820314	0.498190	-0.180686
C285	C	0.992211	-0.236988	-0.899662
C286	C	1.242211	0.013012	-0.649662
C287	C	1.492211	0.263012	-0.399662
C288	C	1.742211	0.513012	-0.149662
C289	C	0.992516	-0.236685	-0.814017
C290	C	1.242516	0.013315	-0.564017
C291	C	1.492516	0.263315	-0.314017
C292	C	1.742516	0.513315	-0.064017
C293	C	1.090423	-0.307090	-0.813807
C294	C	1.340423	-0.057090	-0.563807
C295	C	1.590423	0.192910	-0.313807
C296	C	1.840423	0.442910	-0.063807
C297	C	1.092171	-0.306805	-0.899457
C298	C	1.342171	-0.056805	-0.649457
C299	C	1.592171	0.193195	-0.399457
C300	C	1.842171	0.443195	-0.149457
C301	C	1.070335	-0.251821	-1.014546
C302	C	1.320335	-0.001821	-0.764546
C303	C	1.570335	0.248179	-0.514546
C304	C	1.820335	0.498179	-0.264546
C305	C	1.070242	-0.251781	-0.698444
C306	C	1.320242	-0.001781	-0.448444
C307	C	1.570242	0.248219	-0.198444
C308	C	1.820242	0.498219	0.051556
C309	C	1.070324	-0.251815	-0.163709
C310	C	1.320324	-0.001815	0.086291
C311	C	1.570324	0.248185	0.336291
C312	C	1.820324	0.498185	0.586291
C313	C	1.070359	-0.251828	-0.081395
C314	C	1.320359	-0.001828	0.168605
C315	C	1.570359	0.248172	0.418605
C316	C	1.820359	0.498172	0.668605
H317	H	0.506373	-0.182749	-0.432608
H318	H	0.756373	0.067251	-0.182608
H319	H	1.006373	0.317251	0.067392
H320	H	1.256373	0.567251	0.317392
Cl321	Cl	0.645167	-0.223064	-0.210928
Cl322	Cl	0.895167	0.026936	0.039072
Cl323	Cl	1.145167	0.276936	0.289072
Cl324	Cl	1.395167	0.526936	0.539072
H325	H	0.507708	-0.166481	-0.334821
H326	H	0.757708	0.083519	-0.084821
H327	H	1.007708	0.333519	0.165179
H328	H	1.257708	0.583519	0.415179
H329	H	0.937089	-0.702530	-0.223443
H330	H	1.187089	-0.452530	0.026557
H331	H	1.437089	-0.202530	0.276557
H332	H	1.687089	0.047470	0.526557
H333	H	0.974875	-0.197020	-0.921160
H334	H	1.224875	0.052980	-0.671160
H335	H	1.474875	0.302980	-0.421160
H336	H	1.724875	0.552980	-0.171160
H337	H	1.156215	-0.550404	-0.442732
H338	H	1.406215	-0.300404	-0.192732
H339	H	1.656215	-0.050404	0.057268
H340	H	1.906215	0.199596	0.307268
Cl341	Cl	0.646873	-0.328650	-0.252451
Cl342	Cl	0.896873	-0.078650	-0.002451
Cl343	Cl	1.146873	0.171350	0.247549
Cl344	Cl	1.396873	0.421350	0.497549
H345	H	0.984415	-0.550401	-0.270851
H346	H	1.234415	-0.300401	-0.020851
H347	H	1.484415	-0.050401	0.229149
H348	H	1.734415	0.199599	0.479149
H349	H	1.156200	-0.451337	-0.442757
H350	H	1.406200	-0.201337	-0.192757
H351	H	1.656200	0.048663	0.057243
H352	H	1.906200	0.298663	0.307243
Cl353	Cl	1.177230	-1.064831	-0.463569
Cl354	Cl	1.427230	-0.814831	-0.213569
Cl355	Cl	1.677230	-0.564831	0.036431
Cl356	Cl	1.927230	-0.314831	0.286431
Cl357	Cl	1.180906	-0.324071	-0.930765
Cl358	Cl	1.430906	-0.074071	-0.680765
Cl359	Cl	1.680906	0.175929	-0.430765
Cl360	Cl	1.930906	0.425929	-0.180765
H361	H	1.185309	-0.220532	-0.920238
H362	H	1.435309	0.029468	-0.670238
H363	H	1.685309	0.279468	-0.420238
H364	H	1.935309	0.529468	-0.170238
Cl365	Cl	1.217212	-0.225545	-0.781784
Cl366	Cl	1.467212	0.024455	-0.531784
Cl367	Cl	1.717212	0.274455	-0.281784
Cl368	Cl	1.967212	0.524455	-0.031784
H369	H	1.146391	-0.320601	-0.792158
H370	H	1.396391	-0.070601	-0.542158
H371	H	1.646391	0.179399	-0.292158
H372	H	1.896391	0.429399	-0.042158
H373	H	1.114058	-0.170307	-0.919798
H374	H	1.364058	0.079693	-0.669798
H375	H	1.614058	0.329693	-0.419798
H376	H	1.864058	0.579693	-0.169798
Cl377	Cl	1.032510	-0.355724	-0.932475
Cl378	Cl	1.282510	-0.105724	-0.682475
Cl379	Cl	1.532510	0.144276	-0.432475
Cl380	Cl	1.782510	0.394276	-0.182475
H381	H	0.506256	-0.332759	-0.401448
H382	H	0.756256	-0.082759	-0.151448
H383	H	1.006256	0.167241	0.098552
H384	H	1.256256	0.417241	0.348552
Cl385	Cl	0.924545	-0.280995	-0.931087
Cl386	Cl	1.174545	-0.030995	-0.681087
Cl387	Cl	1.424545	0.219005	-0.431087
Cl388	Cl	1.674545	0.469005	-0.181087
Cl389	Cl	1.026033	-0.353529	-0.782497
Cl390	Cl	1.276033	-0.103529	-0.532497
Cl391	Cl	1.526033	0.146471	-0.282497
Cl392	Cl	1.776033	0.396471	-0.032497
H393	H	0.633941	-0.185372	-0.435812
H394	H	0.883941	0.064628	-0.185812
H395	H	1.133941	0.314628	0.064188
H396	H	1.383941	0.564628	0.314188
H397	H	0.633887	-0.333162	-0.401101
H398	H	0.883887	-0.083162	-0.151101
H399	H	1.133887	0.166838	0.098899
H400	H	1.383887	0.416838	0.348899
Cl401	Cl	0.646645	-0.148002	-0.318446
Cl402	Cl	0.896645	0.101998	-0.068446
Cl403	Cl	1.146645	0.351998	0.181554
Cl404	Cl	1.396645	0.601998	0.431554
Cl405	Cl	1.107176	-0.148523	-0.780490
Cl406	Cl	1.357176	0.101477	-0.530490
Cl407	Cl	1.607176	0.351477	-0.280490
Cl408	Cl	1.857176	0.601477	-0.030490
H409	H	0.984456	-0.953698	-0.270737
H410	H	1.234456	-0.703698	-0.020737
H411	H	1.484456	-0.453698	0.229263
H412	H	1.734456	-0.203698	0.479263
Cl413	Cl	0.963453	-0.439261	-0.249895
Cl414	Cl	1.213453	-0.189261	0.000105
Cl415	Cl	1.463453	0.060739	0.250105
Cl416	Cl	1.713453	0.310739	0.500105
H417	H	0.937095	-0.801576	-0.223420
H418	H	1.187095	-0.551576	0.026580
H419	H	1.437095	-0.301576	0.276580
H420	H	1.687095	-0.051576	0.526580
Cl421	Cl	0.963503	-1.064857	-0.249735
Cl422	Cl	1.213503	-0.814857	0.000265
Cl423	Cl	1.463503	-0.564857	0.250265
Cl424	Cl	1.713503	-0.314857	0.500265
H425	H	1.203541	-0.702505	-0.490080
H426	H	1.453541	-0.452505	-0.240080
H427	H	1.703541	-0.202505	0.009920
H428	H	1.953541	0.047495	0.259920
Cl429	Cl	1.177209	-0.941601	-0.463615
Cl430	Cl	1.427209	-0.691601	-0.213615
Cl431	Cl	1.677209	-0.441601	0.036385
Cl432	Cl	1.927209	-0.191601	0.286385
Cl433	Cl	1.224517	-0.813642	-0.511044
Cl434	Cl	1.474517	-0.563642	-0.261044
Cl435	Cl	1.724517	-0.313642	-0.011044
Cl436	Cl	1.974517	-0.063642	0.238956
H437	H	0.975463	-0.196268	-0.794089
H438	H	1.225463	0.053732	-0.544089
H439	H	1.475463	0.303732	-0.294089
H440	H	1.725463	0.553732	-0.044089
H441	H	0.634392	-0.282712	-0.472052
H442	H	0.884392	-0.032712	-0.222052
H443	H	1.134392	0.217288	0.027948
H444	H	1.384392	0.467288	0.277948
H445	H	0.507163	-0.282652	-0.472421
H446	H	0.757163	-0.032652	-0.222421
H447	H	1.007163	0.217348	0.027579
H448	H	1.257163	0.467348	0.277579
H449	H	0.508132	-0.307605	-0.262409
H450	H	0.758132	-0.057605	-0.012409
H451	H	1.008132	0.192395	0.237591
H452	H	1.258132	0.442395	0.487591
Cl453	Cl	0.496083	-0.223910	-0.210830
Cl454	Cl	0.746083	0.026090	0.039170
Cl455	Cl	0.996083	0.276090	0.289170
Cl456	Cl	1.246083	0.526090	0.539170
Cl457	Cl	0.924368	-0.280115	-0.782006
Cl458	Cl	1.174368	-0.030115	-0.532006
Cl459	Cl	1.424368	0.219885	-0.282006
Cl460	Cl	1.674368	0.469885	-0.032006
