data_functionalizedCrystal
_audit_creation_method	'MofGen! by Chris Wilmer'
_symmetry_space_group_name_H-M	'P1'
_symmetry_Int_Tables_number	1
_symmetry_cell_setting	triclinic
loop_
_symmetry_equiv_pos_as_xyz
  x,y,z
_cell_length_a	11.169416
_cell_length_b	12.759401
_cell_length_c	12.759393
_cell_angle_alpha	90.018496
_cell_angle_beta	89.971356
_cell_angle_gamma	89.989499
loop_
_atom_site_label
_atom_site_type_symbol
_atom_site_fract_x
_atom_site_fract_y
_atom_site_fract_z
Zn1	Zn	-0.477731	-1.606287	-0.594003
Zn2	Zn	-0.678464	-1.606195	-0.418332
Zn3	Zn	-0.477794	-1.430589	-0.418342
Zn4	Zn	-0.678372	-1.430591	-0.593973
O5	O	-0.578090	-1.518416	-0.506162
O6	O	-0.504371	-1.753296	-0.570708
O7	O	-0.651910	-1.582861	-0.271312
O8	O	-0.309836	-1.453934	-0.441660
O9	O	-0.651849	-1.753228	-0.441643
O10	O	-0.309790	-1.583018	-0.570718
O11	O	-0.504478	-1.453844	-0.271320
O12	O	-0.504389	-1.283568	-0.441632
O13	O	-0.651691	-1.453937	-0.740998
O14	O	-0.651752	-1.283570	-0.570667
O15	O	-0.504282	-1.583020	-0.741020
O16	O	-0.846401	-1.582863	-0.441614
O17	O	-0.846333	-1.453848	-0.570657
C18	C	-0.578068	-1.245448	-0.506148
C19	C	-0.578088	-1.128672	-0.506167
C20	C	-0.889915	-1.518374	-0.506154
C21	C	-1.023315	-1.518452	-0.506186
C22	C	-0.577969	-1.518489	-0.780196
C23	C	-0.577917	-1.518521	-0.896973
C24	C	-0.265048	-1.518486	-0.506193
C25	C	-0.131648	-1.518516	-0.506207
C26	C	-0.578113	-1.792449	-0.506177
C27	C	-0.578123	-1.909226	-0.506184
C28	C	-0.654943	-1.073838	-0.573245
C29	C	-0.654958	-0.964114	-0.573256
C30	C	-0.501260	-0.964067	-0.439103
C31	C	-0.501239	-1.073789	-0.439098
C32	C	-0.743683	-1.073864	-0.650694
C33	C	-0.743698	-0.964140	-0.650705
C34	C	-0.501154	-1.585743	-0.951848
C35	C	-0.501111	-1.585768	-1.061572
C36	C	-0.654605	-1.451345	-1.061536
C37	C	-0.654641	-1.451315	-0.951814
C38	C	-0.412539	-1.663355	-0.951869
C39	C	-0.412496	-1.663380	-1.061593
C40	C	-0.578124	-1.518403	-0.233195
C41	C	-0.577838	-1.518575	-0.116419
H42	H	-0.438649	-1.118431	-0.384484
Br43	Br	-0.468072	-1.792147	-0.895132
Br44	Br	-0.758800	-1.360060	-0.877343
H45	H	-0.438691	-0.919368	-0.384499
Br46	Br	-0.688396	-0.907459	-0.779620
H47	H	-0.831932	-1.107884	-0.621413
Br48	Br	-0.758722	-1.360140	-1.135970
H49	H	-0.718894	-1.103671	-0.732099
Br50	Br	-0.453965	-1.799005	-1.111238
H51	H	-0.319593	-1.641580	-0.922109
Br52	Br	-0.898568	-0.914479	-0.614122
H53	H	-0.324182	-1.634261	-1.095637
