data_functionalizedCrystal
_audit_creation_method	'MofGen! by Chris Wilmer'
_symmetry_space_group_name_H-M	'P1'
_symmetry_Int_Tables_number	1
_symmetry_cell_setting	triclinic
loop_
_symmetry_equiv_pos_as_xyz
  x,y,z
_cell_length_a	11.792241
_cell_length_b	15.944493
_cell_length_c	10.268362
_cell_angle_alpha	90.000590
_cell_angle_beta	89.999626
_cell_angle_gamma	83.834229
loop_
_atom_site_label
_atom_site_type_symbol
_atom_site_fract_x
_atom_site_fract_y
_atom_site_fract_z
O1	O	1.505928	0.115131	-0.108156
O2	O	1.175486	0.126997	-0.108184
O3	O	1.349765	-0.001173	-0.108180
O4	O	1.331649	0.243301	-0.108160
O5	O	1.349750	-0.001179	0.108421
O6	O	1.175471	0.126991	0.108417
O7	O	1.505913	0.115126	0.108445
Cu8	Cu	1.340690	0.121058	0.128208
Cu9	Cu	1.340708	0.121064	-0.127947
O10	O	1.331634	0.243296	0.108441
C11	C	1.133194	0.126249	0.000112
C12	C	1.007199	0.124018	0.000101
C13	C	1.349017	-0.032474	0.000115
C14	C	1.346797	-0.125733	0.000098
C15	C	0.776522	0.119916	0.000138
C16	C	0.904887	0.122195	0.000117
C17	C	1.449381	-0.361030	0.000132
C18	C	1.394069	-0.411845	-0.106668
C19	C	1.342684	-0.296472	0.000114
C20	C	1.394029	-0.411826	0.106883
C21	C	1.338719	-0.461400	0.000135
C22	C	1.287400	-0.346059	-0.106774
C23	C	1.287376	-0.346037	0.106873
C24	C	1.231985	-0.396820	0.000048
C25	C	1.344971	-0.201462	0.000101
C26	C	1.336423	-0.556407	0.000138
C27	C	1.548205	0.115874	0.000146
C28	C	1.674200	0.118105	0.000149
C29	C	1.332382	0.274597	0.000143
C30	C	1.334602	0.367855	0.000152
N31	N	1.340686	0.121053	0.308374
N32	N	1.340721	0.121063	-0.308113
C33	C	1.340702	0.121063	0.574045
C34	C	1.340690	0.121060	0.426207
H35	H	1.541288	-0.344986	0.000032
Cl36	Cl	1.217885	-0.301880	-0.246330
H37	H	1.439135	-0.440585	-0.196952
H38	H	1.140007	-0.412701	-0.000019
Cl39	Cl	1.217880	-0.301617	0.246273
Cl40	Cl	1.463619	-0.456181	0.246278
