data_functionalizedCrystal
_audit_creation_method	'MofGen! by Chris Wilmer'
_symmetry_space_group_name_H-M	'P1'
_symmetry_Int_Tables_number	1
_symmetry_cell_setting	triclinic
loop_
_symmetry_equiv_pos_as_xyz
  x,y,z
_cell_length_a	10.723024
_cell_length_b	8.597340
_cell_length_c	7.088929
_cell_angle_alpha	103.954719
_cell_angle_beta	83.718137
_cell_angle_gamma	84.901851
loop_
_atom_site_label
_atom_site_type_symbol
_atom_site_fract_x
_atom_site_fract_y
_atom_site_fract_z
O1	O	0.171369	2.103244	0.187485
O2	O	0.191739	1.638784	0.110971
O3	O	-0.000106	1.881728	0.151001
O4	O	0.363215	1.860300	0.147456
O5	O	-0.025802	1.914194	0.474325
O6	O	0.166043	1.671250	0.434296
O7	O	0.145673	2.135710	0.510810
Cu8	Cu	0.153512	1.906445	0.502075
Cu9	Cu	0.183901	1.868049	0.119706
O10	O	0.337519	1.892766	0.470781
C11	C	0.178135	1.595546	0.262837
C12	C	0.175867	1.418340	0.233644
C13	C	-0.059441	1.896402	0.312404
C14	C	-0.197958	1.891736	0.311628
C15	C	-0.273999	2.027674	0.334020
C16	C	-0.417165	2.022855	0.333219
C17	C	0.396854	1.878092	0.309374
C18	C	0.535373	1.882757	0.310136
C19	C	0.159278	2.178948	0.358941
C20	C	0.161547	2.356153	0.388120
N21	N	0.132138	1.933462	0.771015
N22	N	0.205265	1.841045	-0.149231
H23	H	0.186394	1.336002	0.079039
C24	C	-0.469873	2.252327	0.207561
C25	C	-0.505356	2.179969	0.359097
H26	H	-0.524317	2.349331	0.223548
H27	H	-0.476009	2.180582	0.084878
H28	H	-0.385231	2.276165	0.211511
H29	H	-0.589995	2.156120	0.355138
H30	H	-0.499231	2.251730	0.481811
C31	C	-0.087673	2.163042	0.356340
C32	C	-0.218817	2.189612	0.360707
H33	H	-0.053612	2.263022	0.372829
H34	H	-0.051269	2.092741	0.233879
H35	H	-0.069201	2.115364	0.459377
H36	H	-0.237289	2.237278	0.257660
H37	H	-0.255233	2.259939	0.483184
C38	C	0.053416	2.215150	0.879360
C39	C	0.029830	2.062777	0.902537
H40	H	-0.009741	2.294979	0.960565
H41	H	0.051949	2.216972	0.746180
H42	H	0.134031	2.236845	0.915650
H43	H	-0.050781	2.041077	0.866233
H44	H	0.031284	2.060952	1.035746
C45	C	-0.287482	1.702721	0.117015
C46	C	-0.376442	1.725636	0.284248
H47	H	-0.233040	1.605715	0.101030
H48	H	-0.239152	1.791229	0.131618
H49	H	-0.329927	1.695650	0.004976
H50	H	-0.333997	1.732719	0.396290
H51	H	-0.424778	1.637105	0.269660
C52	C	0.152403	1.627209	0.586333
C53	C	0.147333	1.467284	0.596827
H54	H	0.143635	1.695819	0.715184
H55	H	0.085778	1.658509	0.520247
H56	H	0.231246	1.635760	0.516476
H57	H	0.068485	1.458730	0.666672
H58	H	0.213963	1.435975	0.662942
C59	C	0.426384	1.743765	0.772760
C60	C	0.307568	1.711738	0.719254
H61	H	0.489542	1.663939	0.691550
H62	H	0.427839	1.741920	0.905935
H63	H	0.442358	1.847150	0.757050
H64	H	0.291590	1.608358	0.734979
H65	H	0.306110	1.713567	0.586047
H66	H	-0.238846	1.771786	0.291855
