data_functionalizedCrystal
_audit_creation_method	'MofGen! by Chris Wilmer'
_symmetry_space_group_name_H-M	'P1'
_symmetry_Int_Tables_number	1
_symmetry_cell_setting	triclinic
loop_
_symmetry_equiv_pos_as_xyz
  x,y,z
_cell_length_a	16.956984
_cell_length_b	12.811415
_cell_length_c	15.455322
_cell_angle_alpha	87.254881
_cell_angle_beta	87.517772
_cell_angle_gamma	80.066662
loop_
_atom_site_label
_atom_site_type_symbol
_atom_site_fract_x
_atom_site_fract_y
_atom_site_fract_z
O1	O	1.061809	0.038377	-0.075153
O2	O	0.829913	0.075021	-0.078036
O3	O	0.951119	-0.095786	-0.064596
O4	O	0.940602	0.209184	-0.088593
O5	O	0.944187	-0.086055	0.078900
O6	O	0.822980	0.084752	0.065461
O7	O	1.054877	0.048108	0.068343
Cu8	Cu	0.938295	0.067318	0.080004
Cu9	Cu	0.946494	0.055811	-0.089697
O10	O	0.933670	0.218915	0.054904
C11	C	0.796752	0.081763	-0.006435
C12	C	0.708271	0.087342	-0.006874
C13	C	0.675521	-0.005934	0.000467
C14	C	0.592384	-0.000687	0.000048
C15	C	0.541997	0.097839	-0.007707
C16	C	0.574752	0.191122	-0.015051
C17	C	0.657888	0.185873	-0.014638
C18	C	0.292410	0.123821	-0.009757
C19	C	0.209268	0.129063	-0.010167
C20	C	0.226906	-0.062747	0.004930
C21	C	0.310043	-0.067987	0.005347
C22	C	0.342791	0.025296	-0.002001
N23	N	0.457017	0.103205	-0.008132
N24	N	0.427770	0.019928	-0.001581
C25	C	0.946851	-0.129761	0.010206
C26	C	0.944453	-0.245492	0.019307
C27	C	0.947490	-0.473559	-0.120049
C28	C	0.945237	-0.582299	-0.111503
C29	C	0.937687	-0.571712	0.044947
C30	C	0.939940	-0.462972	0.036400
C31	C	0.944843	-0.413900	-0.046101
C32	C	0.947102	-0.305160	-0.054647
C33	C	0.939547	-0.294573	0.101802
C34	C	0.937294	-0.403313	0.110349
C35	C	1.088038	0.041366	-0.003259
C36	C	1.176519	0.035787	-0.002826
C37	C	0.937938	0.252890	-0.019901
C38	C	0.940337	0.368620	-0.029007
N39	N	0.932535	0.075411	0.199363
C40	C	0.984046	0.002870	0.250465
C41	C	0.979697	0.008999	0.340791
C42	C	0.923840	0.087675	0.380012
C43	C	0.872324	0.160220	0.328904
C44	C	0.876670	0.154085	0.238580
C45	C	0.905083	0.114126	0.649512
C46	C	0.900743	0.120257	0.739843
C47	C	1.008115	-0.030966	0.751723
C48	C	1.012459	-0.037090	0.661397
C49	C	0.960940	0.035452	0.610297
N50	N	0.919395	0.093944	0.472339
N51	N	0.965382	0.029177	0.517972
N52	N	0.952254	0.047716	0.790945
H53	H	0.319063	0.199778	-0.015746
H54	H	0.933689	-0.611684	0.112115
O55	O	0.952387	-0.252232	-0.143628
H56	H	0.953516	-0.166597	-0.137151
H57	H	0.826840	0.224276	0.360843
H58	H	0.951489	-0.433606	-0.187225
O59	O	0.932023	-0.456245	0.199329
H60	H	0.930911	-0.541885	0.192851
O61	O	1.072698	-0.121955	0.619094
H62	H	1.107781	-0.171376	0.669804
H63	H	0.200233	-0.138693	0.010903
H64	H	1.050059	-0.090026	0.793337
O65	O	0.693211	0.286482	-0.022554
H66	H	0.759485	0.266280	-0.020973
O67	O	0.520412	0.297394	-0.023405
H68	H	0.457098	0.285376	-0.022446
O69	O	0.948078	-0.646648	-0.191260
H70	H	0.951864	-0.594252	-0.250060
H71	H	0.351063	-0.148216	0.011665
O72	O	0.840486	0.205106	0.782152
H73	H	0.805384	0.254510	0.731446
H74	H	0.168244	0.209299	-0.016477
O75	O	0.936689	-0.230228	0.181570
H76	H	0.939075	-0.146368	0.161770
H77	H	1.029533	-0.061192	0.218537
O78	O	0.849527	0.192371	0.594401
H79	H	0.809966	0.248116	0.636851
O80	O	1.035257	-0.069246	0.395904
H81	H	1.022846	-0.051775	0.465302
O82	O	0.729866	-0.112202	0.008830
H83	H	0.693123	-0.176181	0.013856
O84	O	0.557057	-0.101290	0.007981
H85	H	0.606060	-0.170681	0.013458
H86	H	0.834723	0.213155	0.196973
