data_functionalizedCrystal
_audit_creation_method	'MofGen! by Chris Wilmer'
_symmetry_space_group_name_H-M	'P1'
_symmetry_Int_Tables_number	1
_symmetry_cell_setting	triclinic
loop_
_symmetry_equiv_pos_as_xyz
  x,y,z
_cell_length_a	12.759401
_cell_length_b	12.759401
_cell_length_c	12.759400
_cell_angle_alpha	89.989515
_cell_angle_beta	90.012834
_cell_angle_gamma	89.996760
loop_
_atom_site_label
_atom_site_type_symbol
_atom_site_fract_x
_atom_site_fract_y
_atom_site_fract_z
Zn1	Zn	-1.606086	0.594011	0.418475
Zn2	Zn	-1.606031	0.418331	0.594129
Zn3	Zn	-1.430438	0.418347	0.418459
Zn4	Zn	-1.430377	0.593969	0.594107
O5	O	-1.518233	0.506164	0.506292
O6	O	-1.753100	0.570717	0.441792
O7	O	-1.582740	0.271312	0.570829
O8	O	-1.453787	0.441673	0.271440
O9	O	-1.753059	0.441646	0.570844
O10	O	-1.582835	0.570733	0.271452
O11	O	-1.453733	0.271324	0.441765
O12	O	-1.283409	0.441633	0.441743
O13	O	-1.453683	0.740995	0.570806
O14	O	-1.283364	0.570662	0.570791
O15	O	-1.582776	0.741026	0.441770
O16	O	-1.582681	0.441606	0.741147
O17	O	-1.453629	0.570646	0.741131
C18	C	-1.245266	0.506145	0.506263
C19	C	-1.128489	0.506162	0.506276
C20	C	-1.073631	0.573235	0.573577
C21	C	-0.963907	0.573244	0.573586
C22	C	-0.963909	0.439098	0.438992
C23	C	-1.073631	0.439095	0.438978
C24	C	-1.073629	0.650680	0.651287
C25	C	-0.963905	0.650689	0.651297
C26	C	-1.518171	0.506142	0.779260
C27	C	-1.518240	0.506168	0.896036
C28	C	-0.792266	0.506180	0.506313
C29	C	-0.909043	0.506174	0.506300
C30	C	-1.518229	0.780198	0.506287
C31	C	-1.518227	0.896974	0.506285
C32	C	-1.585439	0.951854	0.439110
C33	C	-1.585433	1.061578	0.439112
C34	C	-1.450999	1.061533	0.573474
C35	C	-1.451001	0.951811	0.573466
C36	C	-1.663057	0.951881	0.361540
C37	C	-1.663050	1.061605	0.361542
C38	C	-1.518226	1.233197	0.506314
C39	C	-1.518219	1.116420	0.506296
C40	C	-1.518324	0.506209	0.232259
C41	C	-1.518363	0.506229	0.115482
C42	C	-1.585512	0.439051	0.950872
C43	C	-1.585577	0.439083	1.060596
C44	C	-1.451088	0.573353	1.060639
C45	C	-1.451030	0.573325	0.950917
C46	C	-1.663155	0.361528	0.950848
C47	C	-1.663219	0.361561	1.060572
H48	H	-1.118292	0.384485	0.384168
O49	O	-1.385592	0.898448	0.638558
C50	C	-1.243787	0.774502	0.652636
C51	C	-1.317784	0.834890	0.578800
H52	H	-1.188960	0.723084	0.604353
H53	H	-1.195662	0.832492	0.700636
H54	H	-1.292020	0.723166	0.707598
H55	H	-1.269633	0.886228	0.523775
H56	H	-1.365913	0.776844	0.530874
O57	O	-1.755336	0.911441	0.396295
C58	C	-1.928684	0.947851	0.461761
C59	C	-1.824243	0.993788	0.422396
H60	H	-1.984416	1.014406	0.482895
H61	H	-1.965279	0.897621	0.397569
H62	H	-1.913642	0.897503	0.534037
H63	H	-1.839194	1.044183	0.350140
H64	H	-1.787679	1.043958	0.486652
H65	H	-0.929885	0.728040	0.622280
O66	O	-1.628590	0.269280	0.910179
C67	C	-1.668819	0.119769	0.802061
C68	C	-1.708090	0.224229	0.848032
H69	H	-1.733083	0.083303	0.751823
H70	H	-1.596502	0.134630	0.751751
H71	H	-1.647816	0.064001	0.868649
H72	H	-1.729153	0.280048	0.781511
H73	H	-1.780371	0.209287	0.898370
O74	O	-1.114280	0.615589	0.743350
C75	C	-1.222520	0.486628	0.828894
C76	C	-1.176531	0.526243	0.724566
H77	H	-1.272877	0.414400	0.813740
H78	H	-1.156024	0.465412	0.884694
H79	H	-1.272766	0.550804	0.865480
H80	H	-1.126298	0.462115	0.687889
H81	H	-1.243076	0.547490	0.668838
H82	H	-1.641296	0.922124	0.280164
H83	H	-1.633927	1.095652	0.284245
O84	O	-0.928534	0.624459	0.748377
C85	C	-0.974323	0.576796	0.925287
C86	C	-1.014523	0.606462	0.815393
H87	H	-1.043825	0.562259	0.979505
H88	H	-0.924714	0.502677	0.919935
H89	H	-0.924656	0.643572	0.957795
H90	H	-1.064233	0.539755	0.782821
H91	H	-1.064075	0.680614	0.820811
O92	O	-1.385804	1.114966	0.638702
C93	C	-1.326173	1.283978	0.698217
C94	C	-1.400076	1.223600	0.624307
H95	H	-1.337672	1.371819	0.686589
H96	H	-1.344597	1.262465	0.782957
H97	H	-1.241476	1.262338	0.679768
H98	H	-1.484799	1.245208	0.642662
H99	H	-1.381563	1.245118	0.539589
O100	O	-1.760029	1.097274	0.387676
C101	C	-1.863229	1.198876	0.508854
C102	C	-1.753346	1.158568	0.479371
H103	H	-1.857866	1.248422	0.583003
H104	H	-1.895708	1.248592	0.442078
H105	H	-1.917479	1.129381	0.523342
H106	H	-1.699017	1.228000	0.464900
H107	H	-1.720953	1.108820	0.546164
H108	H	-1.641505	0.280180	1.090404
O109	O	-1.755342	0.396581	1.101141
C110	C	-1.841063	0.525502	1.209259
C111	C	-1.736671	0.485964	1.163365
H112	H	-1.826001	0.597760	1.259595
H113	H	-1.896830	0.546647	1.142712
H114	H	-1.877638	0.461310	1.259506
H115	H	-1.700005	0.550107	1.113130
H116	H	-1.680977	0.464787	1.229961
O117	O	-0.910455	0.373978	0.373729
C118	C	-0.741423	0.314569	0.314060
C119	C	-0.801825	0.388359	0.388037
H120	H	-0.653586	0.326186	0.325586
H121	H	-0.762909	0.229798	0.332383
H122	H	-0.763070	0.333147	0.229380
H123	H	-0.780211	0.369875	0.472742
H124	H	-0.780334	0.473108	0.369623
O125	O	-1.385587	0.638559	0.897811
C126	C	-1.252248	0.771788	0.909437
C127	C	-1.326296	0.697945	0.969709
H128	H	-1.204308	0.819837	0.967540
H129	H	-1.197250	0.723546	0.858162
H130	H	-1.300431	0.826704	0.857977
H131	H	-1.278198	0.643015	1.021226
H132	H	-1.381297	0.746254	1.020919
H133	H	-1.744492	0.383381	0.921001
O134	O	-1.385946	0.638634	1.114068
C135	C	-1.371775	0.780547	1.237842
C136	C	-1.445667	0.706666	1.177422
H137	H	-1.420031	0.835584	1.289061
H138	H	-1.316923	0.732338	1.289349
H139	H	-1.323659	0.828464	1.179780
H140	H	-1.493852	0.658733	1.235409
H141	H	-1.500450	0.754935	1.125899
O142	O	-1.108996	0.747840	0.625373
C143	C	-1.063198	0.924913	0.578307
C144	C	-1.023003	0.814927	0.607618
H145	H	-0.993694	0.979188	0.563965
H146	H	-1.112802	0.919799	0.504158
H147	H	-1.112868	0.957193	0.645178
H148	H	-0.973290	0.782582	0.540815
H149	H	-0.973456	0.820106	0.681799
