data_functionalizedCrystal
_audit_creation_method	'MofGen! by Chris Wilmer'
_symmetry_space_group_name_H-M	'P1'
_symmetry_Int_Tables_number	1
_symmetry_cell_setting	triclinic
loop_
_symmetry_equiv_pos_as_xyz
  x,y,z
_cell_length_a	10.968094
_cell_length_b	22.010155
_cell_length_c	10.967961
_cell_angle_alpha	102.130921
_cell_angle_beta	87.247626
_cell_angle_gamma	77.888262
loop_
_atom_site_label
_atom_site_type_symbol
_atom_site_fract_x
_atom_site_fract_y
_atom_site_fract_z
O1	O	1.657081	-0.104637	0.174989
O2	O	1.293960	-0.064866	0.191749
O3	O	1.483885	-0.104639	0.001794
O4	O	1.467156	-0.064864	0.364944
O5	O	1.483827	-0.205683	0.001793
O6	O	1.293902	-0.165910	0.191748
O7	O	1.657023	-0.205681	0.174988
Cu8	Cu	1.475457	-0.195022	0.183368
Cu9	Cu	1.475526	-0.075525	0.183369
O10	O	1.467098	-0.165909	0.364943
C11	C	1.247435	-0.110648	0.190531
C12	C	1.108893	-0.096525	0.186886
N13	N	1.475419	-0.279071	0.183367
C14	C	0.903898	-0.127973	0.181481
C15	C	1.047088	-0.142575	0.185257
C16	C	1.551858	-0.698857	0.259732
C17	C	1.551872	-0.762466	0.259729
O18	O	1.616819	-0.795360	0.324650
N19	N	1.475550	-0.794293	0.183355
C20	C	1.399217	-0.762508	0.106969
O21	O	1.334302	-0.795420	0.042005
C22	C	1.399210	-0.698901	0.106966
C23	C	1.475528	-0.667076	0.183355
C24	C	1.628170	-0.667032	0.336114
C25	C	1.628154	-0.603427	0.336118
C26	C	1.551824	-0.571646	0.259741
C27	C	1.475511	-0.603471	0.183359
C28	C	1.322885	-0.667120	0.030574
C29	C	1.322885	-0.603508	0.030578
C30	C	1.399203	-0.571683	0.106966
C31	C	1.399165	-0.508085	0.106987
N32	N	1.475488	-0.476259	0.183361
C33	C	1.551817	-0.508039	0.259738
C34	C	1.399240	-0.896087	0.106979
C35	C	1.399240	-0.959692	0.106988
C36	C	1.551896	-0.959646	0.259747
C37	C	1.551889	-0.896039	0.259744
C38	C	1.475562	-0.864261	0.183354
C39	C	1.551775	-0.374463	0.259743
C40	C	1.551748	-0.310851	0.259744
C41	C	1.399097	-0.310904	0.106981
C42	C	1.399118	-0.374509	0.106983
C43	C	1.475468	-0.406288	0.183368
O44	O	1.334256	-0.475152	0.042096
O45	O	1.616734	-0.475122	0.324679
C46	C	1.703548	-0.159898	0.176206
C47	C	1.842091	-0.174017	0.179851
C48	C	1.482634	-0.159900	-0.044706
C49	C	1.478978	-0.174021	-0.183259
N50	N	1.475574	0.008521	0.183361
C51	C	1.473604	-0.142567	-0.388231
C52	C	1.477379	-0.127968	-0.245029
C53	C	1.468349	-0.110646	0.411443
C54	C	1.472006	-0.096521	0.549996
H55	H	0.850807	-0.077745	0.180072
H56	H	1.477542	-0.224253	-0.236381
C57	C	1.473919	-0.029585	-0.378951
C58	C	1.477289	-0.028413	-0.251041
C59	C	1.479044	0.033240	-0.185551
H60	H	1.400740	-0.000532	-0.391206
H61	H	1.546025	-0.017613	-0.409026
H62	H	1.405191	-0.040376	-0.220976
H63	H	1.550463	-0.057452	-0.238748
H64	H	1.551149	0.045211	-0.215627
H65	H	1.405863	0.062288	-0.197817
H66	H	1.481342	0.034042	-0.098760
C67	C	0.913087	-0.240948	0.181785
C68	C	1.040991	-0.242119	0.185187
C69	C	1.106425	-0.303764	0.186985
H70	H	0.900834	-0.270018	0.108604
H71	H	0.882974	-0.252895	0.253899
H72	H	1.071094	-0.230180	0.113079
H73	H	1.053281	-0.213063	0.258363
H74	H	1.076312	-0.315712	0.259099
H75	H	1.094162	-0.332830	0.113802
H76	H	1.193213	-0.304566	0.189305
H77	H	1.336948	-0.285016	0.044800
H78	H	1.055807	-0.046291	0.185487
C79	C	1.634750	-0.276420	0.342723
C80	C	1.701625	-0.317877	0.409579
C81	C	1.778109	-0.286187	0.486014
H82	H	1.584243	-0.240350	0.399798
H83	H	1.691799	-0.262879	0.292135
H84	H	1.644583	-0.331409	0.460163
H85	H	1.752156	-0.353947	0.352536
H86	H	1.835158	-0.272646	0.435426
H87	H	1.727592	-0.250118	0.543081
H88	H	1.823501	-0.314312	0.531376
H89	H	1.613947	-0.400330	0.321942
C90	C	1.710947	-0.568932	0.419255
C91	C	1.677631	-0.567805	0.544686
C92	C	1.753893	-0.536049	0.621307
H93	H	1.700097	-0.526477	0.408499
H94	H	1.796135	-0.590620	0.396911
H95	H	1.592464	-0.546116	0.567023
H96	H	1.688487	-0.610252	0.555482
H97	H	1.839081	-0.557737	0.598964
H98	H	1.743037	-0.493596	0.610540
H99	H	1.731307	-0.535285	0.706420
C100	C	1.711254	-0.701480	0.418970
C101	C	1.836686	-0.702584	0.385719
C102	C	1.913254	-0.734298	0.462043
H103	H	1.700509	-0.743941	0.408122
H104	H	1.688863	-0.679773	0.504154
H105	H	1.859070	-0.724292	0.300556
H106	H	1.847470	-0.660132	0.396573
H107	H	1.890864	-0.712591	0.547228
H108	H	1.902499	-0.776756	0.451190
H109	H	1.998367	-0.735046	0.439502
H110	H	1.614047	-0.985533	0.321939
C111	C	1.316328	-0.994140	0.023927
C112	C	1.249505	-0.952691	-0.042978
C113	C	1.173132	-0.984404	-0.119525
H114	H	1.259241	-1.007704	0.074402
H115	H	1.366947	-1.030201	-0.033110
H116	H	1.198890	-0.916642	0.014052
H117	H	1.306561	-0.939125	-0.093477
H118	H	1.223750	-1.020465	-0.176563
H119	H	1.116052	-0.997967	-0.069041
H120	H	1.127792	-0.956288	-0.164938
C121	C	1.634891	-0.861610	0.342714
C122	C	1.701752	-0.903069	0.409577
C123	C	1.778243	-0.871382	0.486010
H124	H	1.584389	-0.825538	0.399786
H125	H	1.691947	-0.848075	0.292125
H126	H	1.644704	-0.916595	0.460162
H127	H	1.752279	-0.939142	0.352538
H128	H	1.835299	-0.857846	0.435422
H129	H	1.727731	-0.835310	0.543074
H130	H	1.823626	-0.899508	0.531377
H131	H	1.478795	-0.077734	-0.191902
H132	H	1.100176	-0.192809	0.186651
H133	H	1.337073	-0.870216	0.044777
C134	C	1.239993	-0.701566	-0.052506
C135	C	1.173184	-0.660118	-0.119419
C136	C	1.096823	-0.691831	-0.195984
H137	H	1.182897	-0.715131	-0.002042
H138	H	1.290620	-0.737627	-0.109538
H139	H	1.122561	-0.624069	-0.062394
H140	H	1.230248	-0.646551	-0.169907
H141	H	1.147450	-0.727892	-0.253016
H142	H	1.039735	-0.705395	-0.145510
H143	H	1.051493	-0.663715	-0.241402
H144	H	1.472172	-0.192796	-0.441361
H145	H	1.260730	-0.577638	-0.031631
H146	H	1.336959	-0.400419	0.044797
