data_functionalizedCrystal
_audit_creation_method	'MofGen! by Chris Wilmer'
_symmetry_space_group_name_H-M	'P1'
_symmetry_Int_Tables_number	1
_symmetry_cell_setting	triclinic
loop_
_symmetry_equiv_pos_as_xyz
  x,y,z
_cell_length_a	10.654555
_cell_length_b	9.730217
_cell_length_c	10.654550
_cell_angle_alpha	89.996882
_cell_angle_beta	84.485953
_cell_angle_gamma	90.001229
loop_
_atom_site_label
_atom_site_type_symbol
_atom_site_fract_x
_atom_site_fract_y
_atom_site_fract_z
O1	O	-1.667832	0.114206	-0.176427
O2	O	-1.302354	0.114227	-0.193226
O3	O	-1.493496	0.114208	-0.002087
O4	O	-1.476690	0.114226	-0.367566
O5	O	-1.493490	-0.114373	-0.002086
O6	O	-1.302349	-0.114353	-0.193225
O7	O	-1.667826	-0.114374	-0.176425
Zn8	Zn	-1.485086	-0.150655	-0.184824
Zn9	Zn	-1.485094	0.150509	-0.184827
O10	O	-1.476684	-0.114354	-0.367564
C11	C	-1.255554	-0.000060	-0.191991
C12	C	-1.116111	-0.000052	-0.188296
N13	N	-1.485090	-0.356192	-0.184822
C14	C	-0.919568	0.124539	-0.183095
C15	C	-1.050591	0.124546	-0.186559
C16	C	-1.050603	-0.124665	-0.186557
C17	C	-0.919584	-0.124670	-0.183084
C18	C	-1.654416	-0.356200	-0.015618
C19	C	-1.739087	-0.428144	0.068980
C20	C	-1.739100	-0.572024	0.068980
C21	C	-1.654430	-0.643963	-0.015624
C22	C	-1.569759	-0.572019	-0.100222
C23	C	-1.569758	-0.428136	-0.100216
C24	C	-1.400429	-0.572011	-0.269417
C25	C	-1.400420	-0.428131	-0.269426
C26	C	-1.315759	-0.643950	-0.354021
C27	C	-1.231091	-0.572006	-0.438628
C28	C	-1.231083	-0.428118	-0.438626
C29	C	-1.315749	-0.356187	-0.354024
C30	C	-0.714627	-0.000079	-0.177662
C31	C	-0.854069	-0.000063	-0.181360
C32	C	-1.492259	-0.000082	0.044711
C33	C	-1.488567	-0.000079	0.184155
N34	N	-1.485100	0.356045	-0.184819
C35	C	-1.477921	-0.000062	-0.414363
C36	C	-1.481613	-0.000055	-0.553806
C37	C	-1.601109	-0.000085	0.263638
C38	C	-1.597632	-0.000068	0.394659
C39	C	-1.369063	-0.000045	0.366700
C40	C	-1.372541	-0.000052	0.235682
H41	H	-0.866230	0.226002	-0.181690
H42	H	-1.280891	-0.000043	0.170962
Cl43	Cl	-1.132928	0.281197	-0.188735
Cl44	Cl	-1.132972	-0.281304	-0.188738
H45	H	-1.654425	-0.239046	-0.015621
Cl46	Cl	-1.746970	-0.000116	0.198866
H47	H	-1.274598	-0.000026	0.408670
Cl48	Cl	-0.837237	-0.281327	-0.180899
Cl49	Cl	-1.845522	-0.337704	0.175339
H50	H	-1.689275	-0.000070	0.459370
H51	H	-1.808042	-0.630601	0.137872
H52	H	-1.315767	-0.761105	-0.354012
H53	H	-1.654435	-0.761117	-0.015607
Cl54	Cl	-1.124653	-0.662447	-0.544968
H55	H	-1.162129	-0.369549	-0.507511
H56	H	-1.315754	-0.239033	-0.354020
