data_functionalizedCrystal
_audit_creation_method	'MofGen! by Chris Wilmer'
_symmetry_space_group_name_H-M	'P1'
_symmetry_Int_Tables_number	1
_symmetry_cell_setting	triclinic
loop_
_symmetry_equiv_pos_as_xyz
  x,y,z
_cell_length_a	13.635800
_cell_length_b	11.168138
_cell_length_c	11.168144
_cell_angle_alpha	92.019895
_cell_angle_beta	108.508840
_cell_angle_gamma	108.508793
loop_
_atom_site_label
_atom_site_type_symbol
_atom_site_fract_x
_atom_site_fract_y
_atom_site_fract_z
V1	V	-2.054942	-0.174723	-0.393710
O2	O	-2.034734	0.008378	-0.386204
O3	O	-2.043087	-0.346428	-0.391027
O4	O	-2.043088	-0.172043	-0.565415
O5	O	-2.034733	-0.167214	-0.210609
V6	V	-2.293557	-0.152821	-0.371808
O7	O	-2.192474	-0.222766	-0.441752
O8	O	-2.381124	-0.104777	-0.323765
O9	O	-2.193809	0.018885	-0.374490
O10	O	-2.372464	-0.335921	-0.379314
O11	O	-2.372465	-0.160329	-0.554909
O12	O	-2.193808	-0.155500	-0.200102
V13	V	-1.554942	-0.174723	-0.393710
O14	O	-1.534734	0.008378	-0.386204
O15	O	-1.543087	-0.346428	-0.391027
O16	O	-1.543088	-0.172043	-0.565415
O17	O	-1.534733	-0.167214	-0.210609
V18	V	-1.793557	-0.152821	-0.371808
O19	O	-1.692474	-0.222766	-0.441752
O20	O	-1.881124	-0.104777	-0.323765
O21	O	-1.693809	0.018885	-0.374490
O22	O	-1.872464	-0.335921	-0.379314
O23	O	-1.872465	-0.160329	-0.554909
O24	O	-1.693808	-0.155500	-0.200102
C25	C	-1.968191	-0.388286	-0.384819
C26	C	-1.999223	-0.528657	-0.383771
C27	C	-1.968191	-0.165839	-0.607267
C28	C	-1.999222	-0.164784	-0.747637
C29	C	-2.132548	-0.742423	-0.388208
C30	C	-2.100476	-0.597342	-0.389292
C31	C	-2.041465	-0.274207	-0.827364
C32	C	-2.073538	-0.273120	-0.972444
C33	C	-2.100376	0.060736	-0.380695
C34	C	-2.058964	0.201106	-0.381752
C35	C	-1.468191	-0.388286	-0.384819
C36	C	-1.499223	-0.528657	-0.383771
C37	C	-1.484652	-0.574098	-0.273410
C38	C	-1.516725	-0.719178	-0.272324
C39	C	-2.100376	-0.161708	-0.158244
C40	C	-2.058963	-0.162757	-0.017873
C41	C	-1.468191	-0.165839	-0.607267
C42	C	-1.499222	-0.164784	-0.747637
C43	C	-1.600376	0.060736	-0.380695
C44	C	-1.558964	0.201106	-0.381752
C45	C	-1.600376	-0.161708	-0.158244
C46	C	-1.558963	-0.162757	-0.017873
C47	C	-1.600477	-0.170303	-0.816329
C48	C	-1.632551	-0.169213	-0.961409
H49	H	-2.219289	-0.801483	-0.392928
H50	H	-1.719293	-0.173944	-1.020461
H51	H	-1.571385	-0.759759	-0.476239
O52	O	-1.955468	-0.728287	-0.375947
C53	C	-1.904765	-0.634494	-0.266259
H54	H	-1.970847	-0.614736	-0.235250
H55	H	-1.850652	-0.670077	-0.185834
C56	C	-1.752048	-0.534931	-0.335056
C57	C	-1.833212	-0.510655	-0.296977
H58	H	-1.707906	-0.458542	-0.354001
H59	H	-1.786205	-0.598123	-0.408953
H60	H	-1.706965	-0.564586	-0.268028
H61	H	-1.878301	-0.481016	-0.364009
H62	H	-1.799061	-0.447455	-0.223091
O63	O	-1.542578	-0.610506	-0.495463
C64	C	-1.648620	-0.693956	-0.507715
H65	H	-1.656138	-0.699956	-0.409137
H66	H	-1.713367	-0.656387	-0.569421
C67	C	-1.657604	-0.820387	-0.691985
C68	C	-1.666834	-0.827765	-0.570907
H69	H	-1.668843	-0.902925	-0.730970
H70	H	-1.586163	-0.764163	-0.683734
H71	H	-1.711561	-0.789074	-0.743390
H72	H	-1.612870	-0.859061	-0.519499
H73	H	-1.738267	-0.883997	-0.579151
O74	O	-1.675592	-0.177126	-0.758341
C75	C	-1.692528	-0.287920	-0.699532
H76	H	-1.669024	-0.360840	-0.747698
H77	H	-1.639197	-0.262128	-0.594005
C78	C	-1.843687	-0.255722	-0.653622
C79	C	-1.814828	-0.345288	-0.712786
H80	H	-1.919125	-0.291108	-0.661791
H81	H	-1.832275	-0.181076	-0.693238
H82	H	-1.799235	-0.234237	-0.565687
H83	H	-1.859269	-0.366760	-0.800721
H84	H	-1.826250	-0.419940	-0.673185
H85	H	-2.053891	-0.368694	-0.788215
H86	H	-2.109750	-0.366798	-1.040942
O87	O	-1.455561	-0.157321	-0.947355
C88	C	-1.461686	-0.267422	-0.887868
H89	H	-1.546700	-0.309648	-0.879518
H90	H	-1.447379	-0.340868	-0.947481
C91	C	-1.268448	-0.179573	-0.763895
C92	C	-1.372861	-0.231430	-0.753630
H93	H	-1.213655	-0.157374	-0.681093
H94	H	-1.264320	-0.105397	-0.803976
H95	H	-1.256541	-0.240786	-0.813578
H96	H	-1.384773	-0.170211	-0.703962
H97	H	-1.376990	-0.305594	-0.713538
H98	H	-2.163423	-0.548756	-0.394828
H99	H	-1.436278	-0.159244	-0.796233
H100	H	-2.022737	-0.069072	-0.949382
O101	O	-1.984589	-0.052147	-0.794491
C102	C	-2.087097	-0.050730	-0.875809
H103	H	-2.146536	-0.153007	-0.913141
H104	H	-2.122306	0.001831	-0.820415
C105	C	-1.998215	0.143596	-0.943181
C106	C	-2.071216	0.017977	-0.989042
H107	H	-1.988420	0.185982	-1.013026
H108	H	-1.929153	0.142645	-0.888393
H109	H	-2.027566	0.187380	-0.897019
H110	H	-2.041859	-0.025809	-1.035188
H111	H	-2.140273	0.018922	-1.043841
O112	O	-1.502026	-0.766081	-0.159713
C113	C	-1.537309	-0.900493	-0.183697
H114	H	-1.598901	-0.936120	-0.285161
H115	H	-1.463219	-0.931423	-0.172427
C116	C	-1.517083	-0.913653	0.036562
C117	C	-1.592739	-0.957411	-0.088055
H118	H	-1.551270	-0.948764	0.095561
H119	H	-1.493308	-0.823096	0.052723
H120	H	-1.455347	-0.939431	0.045936
H121	H	-1.654466	-0.931619	-0.097431
H122	H	-1.616526	-1.047965	-0.104215
H123	H	-1.936274	-0.577237	-0.378248
H124	H	-1.448438	-0.505594	-0.179731
