data_functionalizedCrystal
_audit_creation_method	'MofGen! by Chris Wilmer'
_symmetry_space_group_name_H-M	'P1'
_symmetry_Int_Tables_number	1
_symmetry_cell_setting	triclinic
loop_
_symmetry_equiv_pos_as_xyz
  x,y,z
_cell_length_a	14.853569
_cell_length_b	13.930277
_cell_length_c	14.853559
_cell_angle_alpha	89.997639
_cell_angle_beta	96.366362
_cell_angle_gamma	90.004857
loop_
_atom_site_label
_atom_site_type_symbol
_atom_site_fract_x
_atom_site_fract_y
_atom_site_fract_z
O1	O	-1.196364	-0.079774	0.117713
O2	O	-0.696364	0.420226	0.617713
O3	O	-0.933904	-0.079786	0.131733
O4	O	-0.433904	0.420214	0.631733
O5	O	-1.072148	-0.079779	-0.006507
O6	O	-0.572148	0.420221	0.493493
O7	O	-1.058119	-0.079781	0.255953
O8	O	-0.558119	0.420219	0.755953
O9	O	-1.072129	0.079883	-0.006510
O10	O	-0.572129	0.579883	0.493490
O11	O	-0.933885	0.079875	0.131730
O12	O	-0.433885	0.579875	0.631730
O13	O	-1.196344	0.079888	0.117710
O14	O	-0.696344	0.579888	0.617710
Zn15	Zn	-1.065111	0.105232	0.124720
Zn16	Zn	-0.565111	0.605232	0.624720
Zn17	Zn	-1.065137	-0.105130	0.124724
Zn18	Zn	-0.565137	0.394870	0.624724
O19	O	-1.058100	0.079881	0.255950
O20	O	-0.558100	0.579881	0.755950
C21	C	-0.900306	0.000043	0.131096
C22	C	-0.400306	0.500043	0.631096
C23	C	-0.800222	0.000038	0.129191
C24	C	-0.300222	0.500038	0.629191
N25	N	-1.065101	0.248798	0.124716
N26	N	-0.565101	0.748798	0.624716
N27	N	-1.065155	-0.248696	0.124720
N28	N	-0.565155	0.251304	0.624720
C29	C	-0.763848	0.000035	0.046180
C30	C	-0.263848	0.500035	0.546180
C31	C	-0.742554	0.000044	0.210413
C32	C	-0.242554	0.500044	0.710413
C33	C	-0.648520	0.000044	0.208626
C34	C	-0.148520	0.500044	0.708626
C35	C	-0.612146	0.000041	0.125615
C36	C	-0.112146	0.500041	0.625615
C37	C	-0.669806	0.000038	0.044390
C38	C	-0.169806	0.500038	0.544390
C39	C	-0.590853	0.000057	0.289849
C40	C	-0.090853	0.500057	0.789849
C41	C	-0.496812	0.000059	0.288066
C42	C	0.003188	0.500059	0.788066
C43	C	-0.460437	0.000049	0.205054
C44	C	0.039563	0.500049	0.705054
C45	C	-0.518103	0.000045	0.123826
C46	C	-0.018103	0.500045	0.623826
C47	C	-0.481729	0.000042	0.040815
C48	C	0.018271	0.500042	0.540815
C49	C	-0.539394	0.000031	-0.040414
C50	C	-0.039394	0.500031	0.459586
C51	C	-0.633430	0.000029	-0.038622
C52	C	-0.133430	0.500029	0.461378
C53	C	-0.366400	0.000051	0.203261
C54	C	0.133600	0.500051	0.703261
C55	C	-0.387687	0.000045	0.039025
C56	C	0.112313	0.500045	0.539025
C57	C	-0.229943	0.000055	0.118347
C58	C	0.270057	0.500055	0.618347
C59	C	-0.330026	0.000049	0.120250
C60	C	0.169974	0.500049	0.620250
C61	C	-1.071505	0.000050	-0.040097
C62	C	-0.571505	0.500050	0.459903
C63	C	-1.069604	0.000045	-0.140182
C64	C	-0.569604	0.500045	0.359818
C65	C	-1.003920	0.701064	0.185912
C66	C	-0.503920	1.201064	0.685912
C67	C	-1.126379	0.701040	0.063528
C68	C	-0.626379	1.201040	0.563528
C69	C	-1.126368	0.600544	0.063525
C70	C	-0.626368	1.100544	0.563525
C71	C	-1.065133	0.550303	0.124718
C72	C	-0.565133	1.050303	0.624718
C73	C	-1.003909	0.600559	0.185913
C74	C	-0.503909	1.100559	0.685913
C75	C	-1.187597	0.550282	0.002337
C76	C	-0.687597	1.050282	0.502337
C77	C	-1.187590	0.449780	0.002332
C78	C	-0.687590	0.949780	0.502332
C79	C	-1.126350	0.399537	0.063521
C80	C	-0.626350	0.899537	0.563521
C81	C	-1.065122	0.449798	0.124718
C82	C	-0.565122	0.949798	0.624718
C83	C	-1.003887	0.399558	0.185911
C84	C	-0.503887	0.899558	0.685911
C85	C	-0.942655	0.449817	0.247104
C86	C	-0.442655	0.949817	0.747104
C87	C	-0.942669	0.550316	0.247102
C88	C	-0.442669	1.050316	0.747102
C89	C	-1.126336	0.299038	0.063524
C90	C	-0.626336	0.799038	0.563524
C91	C	-1.003877	0.299053	0.185912
C92	C	-0.503877	0.799053	0.685912
C93	C	-1.061550	-0.086987	-0.563355
C94	C	-0.561550	0.413013	-0.063355
C95	C	-1.061529	0.087082	-0.563353
C96	C	-0.561529	0.587082	-0.063353
C97	C	-1.063323	0.087083	-0.469320
C98	C	-0.563323	0.587083	0.030680
C99	C	-1.064229	0.000048	-0.422300
C100	C	-0.564229	0.500048	0.077700
C101	C	-1.063341	-0.086989	-0.469313
C102	C	-0.563341	0.413011	0.030687
C103	C	-1.064201	0.174118	-0.422298
C104	C	-0.564201	0.674118	0.077702
C105	C	-1.065994	0.174123	-0.328259
C106	C	-0.565994	0.674123	0.171741
C107	C	-1.066906	0.087086	-0.281238
C108	C	-0.566906	0.587086	0.218762
C109	C	-1.066020	0.000046	-0.328257
C110	C	-0.566020	0.500046	0.171743
C111	C	-1.066925	-0.086990	-0.281237
C112	C	-0.566925	0.413010	0.218763
C113	C	-1.066045	-0.174031	-0.328255
C114	C	-0.566045	0.325969	0.171745
C115	C	-1.064254	-0.174026	-0.422292
C116	C	-0.564254	0.325974	0.077708
C117	C	-1.068698	0.087081	-0.187202
C118	C	-0.568698	0.587081	0.312798
C119	C	-1.068716	-0.086992	-0.187195
C120	C	-0.568716	0.413008	0.312805
C121	C	-1.058744	0.000049	0.289541
C122	C	-0.558744	0.500049	0.789541
C123	C	-1.060645	0.000048	0.389625
C124	C	-0.560645	0.500048	0.889625
H125	H	-0.358079	0.000038	-0.028573
H126	H	0.141921	0.500038	0.471427
H127	H	-0.319454	0.000069	0.269396
H128	H	0.180546	0.500069	0.769396
H129	H	-1.069394	0.157948	-0.148921
H130	H	-0.569394	0.657948	0.351079
H131	H	-1.069458	-0.157868	-0.148918
H132	H	-0.569458	0.342132	0.351082
H133	H	-1.237457	0.591191	-0.047480
H134	H	-0.737457	1.091191	0.452520
H135	H	-0.449869	0.000066	0.354208
H136	H	0.050131	0.500066	0.854208
H137	H	-1.063536	-0.244890	-0.460582
H138	H	-0.563536	0.255110	0.039418
H139	H	-0.509766	0.000022	-0.108002
H140	H	-0.009766	0.500022	0.391998
H141	H	-1.066776	-0.244895	-0.289958
H142	H	-0.566776	0.255105	0.210042
H143	H	-0.810803	0.000022	-0.019955
H144	H	-0.310803	0.500022	0.480045
H145	H	-1.063459	0.244978	-0.460588
H146	H	-0.563459	0.744978	0.039412
H147	H	-0.680388	0.000021	-0.104754
H148	H	-0.180388	0.500021	0.395246
H149	H	-1.176239	0.741949	0.013711
H150	H	-0.676239	1.241949	0.513711
H151	H	-0.892801	0.408900	0.296932
H152	H	-0.392801	0.908900	0.796932
H153	H	-1.060786	0.157943	-0.601642
H154	H	-0.560786	0.657943	-0.101642
H155	H	-0.772175	0.000053	0.277997
H156	H	-0.272175	0.500053	0.777997
H157	H	-1.176194	0.258122	0.013705
H158	H	-0.676194	0.758122	0.513705
H159	H	-1.060837	-0.157854	-0.601642
H160	H	-0.560837	0.342146	-0.101642
H161	H	-1.066714	0.244997	-0.289985
H162	H	-0.566714	0.744997	0.210015
H163	H	-1.237447	0.408865	-0.047495
H164	H	-0.737447	0.908865	0.452505
H165	H	-0.620476	0.000066	0.357433
H166	H	-0.120476	0.500066	0.857433
H167	H	-0.954008	0.258153	0.235739
H168	H	-0.454008	0.758153	0.735739
H169	H	-0.892817	0.591243	0.296924
H170	H	-0.392817	1.091243	0.796924
H171	H	-0.954063	0.741987	0.235733
H172	H	-0.454063	1.241987	0.735733
