data_functionalizedCrystal
_audit_creation_method	'MofGen! by Chris Wilmer'
_symmetry_space_group_name_H-M	'P1'
_symmetry_Int_Tables_number	1
_symmetry_cell_setting	triclinic
loop_
_symmetry_equiv_pos_as_xyz
  x,y,z
_cell_length_a	8.497374
_cell_length_b	29.839131
_cell_length_c	29.839134
_cell_angle_alpha	89.980268
_cell_angle_beta	89.995239
_cell_angle_gamma	90.014356
loop_
_atom_site_label
_atom_site_type_symbol
_atom_site_fract_x
_atom_site_fract_y
_atom_site_fract_z
Zn1	Zn	0.892019	-0.179191	-0.686681
Zn2	Zn	0.628194	-0.254299	-0.686624
Zn3	Zn	0.628232	-0.179155	-0.611575
Zn4	Zn	0.891912	-0.254266	-0.611511
O5	O	0.760089	-0.216728	-0.649098
O6	O	0.857051	-0.189183	-0.749541
O7	O	0.407437	-0.244329	-0.676672
O8	O	0.663285	-0.116293	-0.621588
O9	O	0.663220	-0.244364	-0.749499
O10	O	0.857088	-0.116319	-0.676768
O11	O	0.407465	-0.189122	-0.621534
O12	O	0.663181	-0.189090	-0.548700
O13	O	1.112688	-0.244309	-0.621480
O14	O	0.856905	-0.244274	-0.548653
O15	O	1.112767	-0.189152	-0.676707
O16	O	0.663116	-0.317162	-0.676610
O17	O	0.856869	-0.317138	-0.621425
C18	C	0.760037	-0.216675	-0.532375
C19	C	0.760051	-0.216663	-0.482441
C20	C	0.760011	-0.333450	-0.649017
C21	C	0.760030	-0.383385	-0.649023
C22	C	0.861175	-0.188034	-0.125871
C23	C	0.861153	-0.188006	-0.313544
O24	O	0.947150	-0.163620	-0.337824
N25	N	0.760077	-0.216687	-0.336996
C26	C	0.659007	-0.245380	-0.313526
O27	O	0.573046	-0.269778	-0.337779
C28	C	0.659038	-0.245411	-0.125854
C29	C	0.760109	-0.216724	-0.102405
C30	C	0.962239	-0.159350	-0.102422
C31	C	0.962238	-0.159356	-0.055507
C32	C	0.861172	-0.188046	-0.032040
C33	C	0.760107	-0.216730	-0.055489
C34	C	0.557976	-0.274105	-0.102385
C35	C	0.557996	-0.274111	-0.055464
C36	C	0.659067	-0.245425	-0.032015
C37	C	0.659040	-0.245425	0.014892
N38	N	0.760116	-0.216744	0.038344
C39	C	0.861182	-0.188054	0.014877
C40	C	0.658996	-0.245361	-0.412057
C41	C	0.658986	-0.245353	-0.458975
C42	C	0.861134	-0.187979	-0.458990
C43	C	0.861135	-0.187985	-0.412071
C44	C	0.760071	-0.216680	-0.388605
C45	C	0.861170	-0.188068	0.113403
C46	C	0.861155	-0.188075	0.160323
C47	C	0.659012	-0.245450	0.160334
C48	C	0.659021	-0.245442	0.113418
C49	C	0.760112	-0.216749	0.089954
O50	O	0.573100	-0.269802	0.039201
O51	O	0.947154	-0.163667	0.039139
C52	C	0.861177	-0.188029	-0.172787
C53	C	0.760112	-0.216712	-0.196236
C54	C	0.659046	-0.245402	-0.172770
C55	C	0.760102	-0.216704	-0.243154
C56	C	0.861168	-0.188015	-0.266620
C57	C	0.962244	-0.159333	-0.243169
C58	C	0.962243	-0.159339	-0.196253
C59	C	0.557970	-0.274084	-0.196221
C60	C	0.557979	-0.274075	-0.243137
C61	C	0.659045	-0.245386	-0.266603
C62	C	1.171570	-0.216729	-0.649095
C63	C	1.350214	-0.216733	-0.649096
C64	C	0.659350	-0.693028	-0.677885
C65	C	0.659411	-0.880701	-0.677941
O66	O	0.573749	-0.904966	-0.702416
N67	N	0.760208	-0.904170	-0.649191
C68	C	0.861005	-0.880718	-0.620428
O69	O	0.946752	-0.904986	-0.595979
C70	C	0.860950	-0.693045	-0.620375
C71	C	0.760135	-0.669579	-0.649123
C72	C	0.558545	-0.669562	-0.706631
C73	C	0.558524	-0.622646	-0.706615
C74	C	0.659309	-0.599197	-0.677853
C75	C	0.760115	-0.622664	-0.649107
C76	C	0.961753	-0.669594	-0.591614
C77	C	0.961733	-0.622673	-0.591604
C78	C	0.860919	-0.599207	-0.620353
C79	C	0.860880	-0.552299	-0.620329
N80	N	0.760083	-0.528830	-0.649079
C81	C	0.659297	-0.552279	-0.677841
C82	C	0.861024	-0.979248	-0.620457
C83	C	0.861036	-1.026166	-0.620470
C84	C	0.659444	-1.026146	-0.677983
C85	C	0.659425	-0.979228	-0.677968
C86	C	0.760227	-0.955779	-0.649206
C87	C	0.659261	-0.453753	-0.677805
C88	C	0.659245	-0.406834	-0.677785
C89	C	0.860842	-0.406858	-0.620274
C90	C	0.860853	-0.453773	-0.620292
C91	C	0.760057	-0.477220	-0.649061
O92	O	0.946509	-0.528006	-0.595871
O93	O	0.573588	-0.528003	-0.702293
C94	C	0.659370	-0.739943	-0.677901
C95	C	0.760176	-0.763410	-0.649155
C96	C	0.860961	-0.739961	-0.620393
C97	C	0.760188	-0.810328	-0.649167
C98	C	0.659403	-0.833777	-0.677929
C99	C	0.558606	-0.810308	-0.706679
C100	C	0.558585	-0.763392	-0.706663
C101	C	0.961758	-0.763430	-0.591643
C102	C	0.961769	-0.810345	-0.591661
C103	C	0.860984	-0.833794	-0.620423
C104	C	0.760124	-0.216771	0.233724
C105	C	0.760089	-0.216764	0.183789
C106	C	0.760202	-0.099550	-0.649192
C107	C	0.760251	-0.049615	-0.649232
H108	H	0.943459	-0.164713	0.179413
H109	H	1.044529	-0.135971	-0.262283
H110	H	0.476473	-0.688649	-0.730055
H111	H	0.577381	-1.045246	-0.701402
H112	H	0.576706	-0.268797	0.094325
H113	H	0.942950	-0.472881	-0.596884
H114	H	1.043840	-0.688692	-0.568202
F115	F	0.451288	-0.738423	-0.737262
F116	F	0.968104	-0.381893	-0.589666
F117	F	1.069824	-0.128827	-0.030556
F118	F	1.069820	-0.128813	-0.127390
F119	F	0.551452	-0.275981	0.185317
H120	H	0.577144	-0.387729	-0.701195
F121	F	0.451338	-0.835272	-0.737288
H122	H	1.043823	-0.603584	-0.568184
H123	H	0.943435	-0.164626	-0.392982
F124	F	1.069074	-0.835315	-0.561060
H125	H	1.043832	-0.744341	-0.568222
F126	F	0.968762	-0.157530	0.088438
H127	H	0.475673	-0.297465	-0.121469
H128	H	0.476437	-0.603542	-0.730026
H129	H	0.943423	-0.164618	-0.478104
H130	H	0.576666	-0.268708	-0.478063
F131	F	0.551405	-0.275899	-0.387089
F132	F	0.968316	-0.954299	-0.589843
H133	H	0.475700	-0.297479	-0.036361
H134	H	0.475670	-0.297447	-0.177119
F135	F	1.069820	-0.128807	-0.171303
H136	H	0.475660	-0.297435	-0.262225
F137	F	0.551983	-0.478701	-0.708424
H138	H	0.577334	-0.960124	-0.701377
F139	F	0.968319	-1.051136	-0.589867
