data_functionalizedCrystal
_audit_creation_method	'MofGen! by Chris Wilmer'
_symmetry_space_group_name_H-M	'P1'
_symmetry_Int_Tables_number	1
_symmetry_cell_setting	triclinic
loop_
_symmetry_equiv_pos_as_xyz
  x,y,z
_cell_length_a	22.010155
_cell_length_b	12.837943
_cell_length_c	12.811415
_cell_angle_alpha	90.588083
_cell_angle_beta	95.428981
_cell_angle_gamma	89.986054
loop_
_atom_site_label
_atom_site_type_symbol
_atom_site_fract_x
_atom_site_fract_y
_atom_site_fract_z
O1	O	0.065552	-1.376653	0.272965
O2	O	0.064813	-1.074789	0.259480
O3	O	0.056803	-1.233312	0.114191
O4	O	0.073562	-1.218130	0.418254
O5	O	-0.044247	-1.233266	0.114205
O6	O	-0.036237	-1.074743	0.259494
O7	O	-0.035498	-1.376607	0.272979
Cu8	Cu	-0.045094	-1.225671	0.266238
Cu9	Cu	0.074409	-1.225725	0.266221
O10	O	-0.027488	-1.218084	0.418268
C11	C	0.014037	-1.036126	0.254932
C12	C	0.013290	-0.920990	0.241346
N13	N	-0.129146	-1.225640	0.266250
C14	C	0.004120	-1.232437	0.075009
C15	C	-0.002313	-1.229886	-0.041763
C16	C	-0.425611	-1.162531	0.196196
C17	C	-0.362003	-1.162522	0.196200
O18	O	-0.332388	-1.108826	0.136637
N19	N	-0.326331	-1.225681	0.266221
C20	C	-0.354271	-1.288860	0.336235
O21	O	-0.318089	-1.342581	0.395793
C22	C	-0.417878	-1.288874	0.336226
C23	C	-0.453546	-1.225704	0.266208
C24	C	-0.461279	-1.099367	0.126183
C25	C	-0.524882	-1.099375	0.126181
C26	C	-0.552817	-1.162547	0.196192
C27	C	-0.517149	-1.225711	0.266205
C28	C	-0.445817	-1.352058	0.406234
C29	C	-0.509428	-1.352067	0.406218
C30	C	-0.545097	-1.288897	0.336200
C31	C	-0.608688	-1.288892	0.336214
N32	N	-0.644360	-1.225733	0.266193
C33	C	-0.616424	-1.162561	0.196182
C34	C	-0.220692	-1.288827	0.336249
C35	C	-0.157086	-1.288809	0.336265
C36	C	-0.164823	-1.162472	0.196228
C37	C	-0.228430	-1.162486	0.196218
C38	C	-0.256364	-1.225669	0.266228
C39	C	-0.749996	-1.162582	0.196184
C40	C	-0.813604	-1.162592	0.196191
C41	C	-0.805862	-1.288932	0.336223
C42	C	-0.742259	-1.288918	0.336220
C43	C	-0.714328	-1.225740	0.266192
O44	O	-0.638346	-1.342564	0.395745
O45	O	-0.652614	-1.108859	0.136625
N46	N	0.158460	-1.225764	0.266202
C47	C	0.015279	-1.415270	0.277527
C48	C	0.016030	-1.530406	0.291113
C49	C	0.022284	-0.680739	0.404674
C50	C	0.021581	-0.572558	0.391914
C51	C	0.011179	-0.596444	0.203066
C52	C	0.011881	-0.704625	0.215826
C53	C	0.017435	-0.746769	0.316634
C54	C	0.018141	-0.854952	0.329393
C55	C	0.007735	-0.878836	0.140546
C56	C	0.007033	-0.770655	0.127785
C57	C	0.095778	-1.225124	-0.261196
C58	C	0.089737	-1.222727	-0.370913
C59	C	-0.020434	-1.222687	-0.370918
C60	C	-0.014393	-1.225085	-0.261200
C61	C	0.043714	-1.226304	-0.206343
C62	C	0.049754	-1.228709	-0.096624
C63	C	-0.060416	-1.228662	-0.096630
C64	C	-0.066456	-1.226265	-0.206347
C65	C	0.025197	-1.218959	0.457450
C66	C	0.031633	-1.221510	0.574222
H67	H	-0.842643	-1.111147	0.139173
Cl68	Cl	0.001648	-0.961851	0.029859
H69	H	-0.142066	-1.111034	0.139221
H70	H	0.002504	-0.736326	0.045710
Cl71	Cl	-0.426172	-1.019930	0.038166
Cl72	Cl	-0.840993	-1.368339	0.424237
H73	H	-0.113766	-1.225268	-0.251027
Cl74	Cl	0.004191	-0.543445	0.076347
H75	H	-0.553918	-1.047939	0.069161
Cl76	Cl	0.155191	-1.221240	-0.439868
Cl77	Cl	0.122803	-1.230245	-0.027662
H78	H	-0.727262	-1.111136	0.139160
H79	H	-0.257467	-1.111047	0.139203
H80	H	-0.243432	-1.340275	0.393269
Cl81	Cl	0.168825	-1.226673	-0.192229
Cl82	Cl	0.025124	-0.907931	0.456121
H83	H	-0.067742	-1.221686	-0.415601
H84	H	-0.128050	-1.340236	0.393292
Cl85	Cl	-0.400991	-1.431455	0.494284
H86	H	-0.102810	-1.229627	-0.051957
H87	H	-0.713216	-1.340342	0.393248
H88	H	-0.532169	-1.403521	0.463229
Cl89	Cl	0.029273	-0.733724	0.531400
H90	H	0.025528	-0.518800	0.463606
