data_functionalizedCrystal
_audit_creation_method	'MofGen! by Chris Wilmer'
_symmetry_space_group_name_H-M	'P1'
_symmetry_Int_Tables_number	1
_symmetry_cell_setting	triclinic
loop_
_symmetry_equiv_pos_as_xyz
  x,y,z
_cell_length_a	11.792241
_cell_length_b	11.792254
_cell_length_c	7.681481
_cell_angle_alpha	84.218036
_cell_angle_beta	95.767103
_cell_angle_gamma	84.196007
loop_
_atom_site_label
_atom_site_type_symbol
_atom_site_fract_x
_atom_site_fract_y
_atom_site_fract_z
O1	O	1.496263	0.166234	-0.146261
O2	O	1.165920	0.182270	-0.146302
O3	O	1.339101	0.009082	-0.146268
O4	O	1.323081	0.339423	-0.146295
O5	O	1.360417	-0.012283	0.146594
O6	O	1.187235	0.160905	0.146560
O7	O	1.517578	0.144869	0.146601
Zn8	Zn	1.355791	0.149495	0.193079
Zn9	Zn	1.327707	0.177644	-0.192779
O10	O	1.344397	0.318058	0.146567
C11	C	1.134286	0.170581	0.000124
C12	C	1.008271	0.167568	0.000109
C13	C	0.777562	0.162021	0.000160
C14	C	0.905946	0.165103	0.000132
C15	C	1.348750	-0.043892	0.000163
C16	C	1.345730	-0.169904	0.000161
C17	C	1.343275	-0.272241	0.000154
C18	C	1.340206	-0.400626	0.000137
C19	C	1.549212	0.156559	0.000172
C20	C	1.675226	0.159573	0.000175
C21	C	1.334748	0.371031	0.000133
C22	C	1.337767	0.497045	0.000123
N23	N	1.374966	0.130283	0.456417
N24	N	1.308541	0.196847	-0.456117
H25	H	1.240735	0.264790	0.468672
H26	H	1.442785	0.062344	0.531636
