data_functionalizedCrystal
_audit_creation_method	'MofGen! by Chris Wilmer'
_symmetry_space_group_name_H-M	'P1'
_symmetry_Int_Tables_number	1
_symmetry_cell_setting	triclinic
loop_
_symmetry_equiv_pos_as_xyz
  x,y,z
_cell_length_a	25.639243
_cell_length_b	25.639240
_cell_length_c	12.645324
_cell_angle_alpha	89.954047
_cell_angle_beta	89.974667
_cell_angle_gamma	90.035481
loop_
_atom_site_label
_atom_site_type_symbol
_atom_site_fract_x
_atom_site_fract_y
_atom_site_fract_z
Zn1	Zn	0.799295	-0.208073	-0.599409
Zn2	Zn	0.799213	-0.295522	-0.422105
Zn3	Zn	0.711857	-0.208107	-0.422146
Zn4	Zn	0.711825	-0.295483	-0.599313
O5	O	0.755548	-0.251796	-0.510743
O6	O	0.872449	-0.219676	-0.575912
O7	O	0.787604	-0.283957	-0.273763
O8	O	0.723503	-0.134937	-0.445717
O9	O	0.872389	-0.283924	-0.445648
O10	O	0.787744	-0.134912	-0.575952
O11	O	0.723424	-0.219733	-0.273793
O12	O	0.638688	-0.219696	-0.445625
O13	O	0.723450	-0.283858	-0.747673
O14	O	0.638664	-0.283891	-0.575789
O15	O	0.787713	-0.219638	-0.747744
O16	O	0.787574	-0.368682	-0.445555
O17	O	0.723370	-0.368654	-0.575749
C18	C	0.619705	-0.251793	-0.510701
C19	C	0.561591	-0.251804	-0.510708
C20	C	0.201254	-0.218395	-0.578685
C21	C	0.146649	-0.218394	-0.578692
O22	O	0.118435	-0.189979	-0.636435
N23	N	0.119309	-0.251795	-0.510772
C24	C	0.146575	-0.285194	-0.442835
O25	O	0.118305	-0.313604	-0.385064
C26	C	0.201178	-0.285192	-0.442823
C27	C	0.228516	-0.251793	-0.510755
C28	C	0.228592	-0.184998	-0.646610
C29	C	0.283192	-0.184999	-0.646604
C30	C	0.310455	-0.218397	-0.578674
C31	C	0.283117	-0.251794	-0.510749
C32	C	0.228444	-0.318588	-0.374881
C33	C	0.283051	-0.318583	-0.374875
C34	C	0.310389	-0.285184	-0.442807
C35	C	0.364980	-0.285193	-0.442814
N36	N	0.392321	-0.251793	-0.510733
C37	C	0.365058	-0.218395	-0.578663
C38	C	0.031904	-0.285197	-0.442862
C39	C	-0.022698	-0.285202	-0.442877
C40	C	-0.022620	-0.218401	-0.578733
C41	C	0.031984	-0.218399	-0.578722
C42	C	0.059245	-0.251796	-0.510781
C43	C	0.479723	-0.218400	-0.578647
C44	C	0.534329	-0.218406	-0.578639
C45	C	0.534246	-0.285205	-0.442779
C46	C	0.479645	-0.285201	-0.442791
C47	C	0.452385	-0.251795	-0.510729
O48	O	0.393229	-0.313593	-0.385096
O49	O	0.393334	-0.189985	-0.636414
C50	C	0.755474	-0.387639	-0.510660
C51	C	0.755490	-0.445753	-0.510660
C52	C	0.789014	-0.806065	-0.578679
C53	C	0.789030	-0.860669	-0.578700
O54	O	0.817445	-0.888862	-0.636447
N55	N	0.755620	-0.888035	-0.510846
C56	C	0.722189	-0.860795	-0.442973
O57	O	0.693773	-0.889086	-0.385260
C58	C	0.722172	-0.806192	-0.442957
C59	C	0.755587	-0.778828	-0.510809
C60	C	0.822426	-0.778701	-0.646525
C61	C	0.822412	-0.724100	-0.646502
C62	C	0.788985	-0.696864	-0.578632
C63	C	0.755572	-0.724227	-0.510786
C64	C	0.688739	-0.778952	-0.375091
C65	C	0.688724	-0.724345	-0.375082
C66	C	0.722139	-0.696981	-0.442933
C67	C	0.722130	-0.642390	-0.442893
N68	N	0.755540	-0.615024	-0.510747
C69	C	0.788967	-0.642260	-0.578617
C70	C	0.722228	-0.975465	-0.443012
C71	C	0.722248	-1.030068	-0.443021
C72	C	0.789088	-1.029938	-0.578750
C73	C	0.789070	-0.975335	-0.578735
C74	C	0.755638	-0.948099	-0.510866
C75	C	0.788933	-0.527595	-0.578562
C76	C	0.788917	-0.472990	-0.578530
C77	C	0.722076	-0.473124	-0.442805
C78	C	0.722094	-0.527725	-0.442833
C79	C	0.755524	-0.554959	-0.510720
O80	O	0.693728	-0.614162	-0.385179
O81	O	0.817373	-0.613962	-0.636330
C82	C	0.891921	-0.251800	-0.510786
C83	C	0.950035	-0.251802	-0.510804
C84	C	0.755587	-0.251740	-0.787249
C85	C	0.755604	-0.251715	-0.905079
C86	C	0.755636	-0.115423	-0.510850
C87	C	0.755674	-0.057309	-0.510895
C88	C	0.796189	-0.211432	-1.072687
C89	C	0.796059	-0.211286	-0.950127
C90	C	0.700526	-0.236745	-0.949560
C91	C	0.700772	-0.236440	-1.072159
C92	C	0.769649	-0.307028	-1.072250
C93	C	0.770854	-0.306750	-0.949645
C94	C	0.755539	-0.251815	-0.235313
C95	C	0.755623	-0.251692	-0.117484
H96	H	0.206194	-0.345785	-0.319563
H97	H	0.694888	-0.550006	-0.387575
O98	O	0.058408	-0.317573	-0.376759
C99	C	0.120032	-0.324541	-0.233628
C100	C	0.090044	-0.287816	-0.308405
H101	H	0.145626	-0.300498	-0.178360
H102	H	0.091130	-0.348402	-0.185016
H103	H	0.145568	-0.351917	-0.282210
H104	H	0.064508	-0.260408	-0.259905
H105	H	0.118974	-0.263991	-0.357020
H106	H	0.786774	-0.170294	-0.920834
H107	H	0.556585	-0.191208	-0.633960
O108	O	0.453225	-0.185896	-0.644494
C109	C	0.391609	-0.115329	-0.659078
C110	C	0.421594	-0.152094	-0.584380
H111	H	0.366020	-0.087998	-0.610507
H112	H	0.420512	-0.091426	-0.707602
H113	H	0.366069	-0.139376	-0.714442
H114	H	0.447135	-0.128088	-0.528952
H115	H	0.392663	-0.175999	-0.535930
H116	H	0.305244	-0.345779	-0.319546
O117	O	0.854853	-0.805235	-0.712423
C118	C	0.884545	-0.889288	-0.772569
C119	C	0.847781	-0.859310	-0.697907
H120	H	0.878849	-0.933013	-0.760843
H121	H	0.875340	-0.878557	-0.858051
H122	H	0.926697	-0.878482	-0.754033
H123	H	0.805617	-0.870099	-0.716348
H124	H	0.857032	-0.870043	-0.612447
H125	H	0.688881	-0.195990	-1.100787
H126	H	0.206400	-0.157798	-0.701927
H127	H	0.669479	-0.265168	-0.920376
H128	H	0.457385	-0.312404	-0.387488
H129	H	0.837166	-0.220688	-1.102179
O130	O	0.686049	-0.189001	-0.913157
C131	C	0.661898	-0.100901	-0.957953
C132	C	0.678275	-0.154949	-0.999322
H133	H	0.655620	-0.073352	-1.027595
H134	H	0.624114	-0.104621	-0.910981
H135	H	0.693877	-0.084708	-0.904639
H136	H	0.646332	-0.171173	-1.052677
H137	H	0.716074	-0.151196	-1.046233
H138	H	0.054239	-0.191201	-0.634036
H139	H	0.809109	-0.320657	-1.103232
O140	O	0.656192	-0.697865	-0.309303
C141	C	0.585607	-0.636265	-0.294879
C142	C	0.622406	-0.666230	-0.369494
H143	H	0.558289	-0.610673	-0.343513
H144	H	0.561691	-0.665182	-0.246410
H145	H	0.609627	-0.610730	-0.239460
H146	H	0.598426	-0.691765	-0.424977
H147	H	0.646324	-0.637285	-0.417888
H148	H	0.740105	-0.337027	-1.101225
H149	H	0.816152	-0.549763	-0.633850
O150	O	0.663520	-0.269888	-1.107695
C151	C	0.621096	-0.307803	-1.259291
C152	C	0.663315	-0.269925	-1.219197
H153	H	0.620908	-0.307838	-1.349443
H154	H	0.629778	-0.348811	-1.229182
H155	H	0.581316	-0.294775	-1.228918
H156	H	0.703112	-0.282906	-1.249554
H157	H	0.654587	-0.228926	-1.249295
O158	O	0.656348	-0.805550	-0.309081
C159	C	0.649337	-0.867297	-0.166010
C160	C	0.686084	-0.837198	-0.240679
H161	H	0.673363	-0.892899	-0.110703
H162	H	0.625450	-0.838468	-0.117434
H163	H	0.621985	-0.892834	-0.214674
H164	H	0.713468	-0.811659	-0.192097
H165	H	0.709935	-0.866054	-0.289258
H166	H	-0.044827	-0.191205	-0.634043
O167	O	-0.049170	-0.317667	-0.376798
C168	C	-0.043470	-0.383946	-0.242094
C169	C	-0.013428	-0.347200	-0.316864
H170	H	-0.014585	-0.407841	-0.193634
H171	H	-0.069017	-0.359939	-0.186683
H172	H	-0.069053	-0.411291	-0.290673
H173	H	0.012184	-0.319847	-0.268370
H174	H	0.012087	-0.371240	-0.372278
H175	H	0.787023	-0.170667	-1.103530
H176	H	0.694861	-0.450940	-0.387543
O177	O	0.560793	-0.317671	-0.376941
C178	C	0.622382	-0.388263	-0.362393
C179	C	0.592357	-0.351525	-0.437080
H180	H	0.647900	-0.415651	-0.410986
H181	H	0.647981	-0.364249	-0.307080
H182	H	0.593458	-0.412112	-0.313813
H183	H	0.621243	-0.327668	-0.485728
H184	H	0.566750	-0.375568	-0.492322
H185	H	0.816130	-0.450712	-0.633782
O186	O	0.854885	-0.697604	-0.712519
C187	C	0.921203	-0.703259	-0.847101
C188	C	0.884444	-0.733326	-0.772402
H189	H	0.945118	-0.732127	-0.895520
H190	H	0.897204	-0.677706	-0.902553
H191	H	0.948528	-0.677679	-0.798467
H192	H	0.857111	-0.758934	-0.820951
H193	H	0.908475	-0.758846	-0.716948
H194	H	0.816280	-0.953058	-0.633985
H195	H	0.836901	-0.220661	-0.920055
H196	H	0.816305	-1.052124	-0.634015
H197	H	0.695044	-1.052343	-0.387758
O198	O	0.689738	-0.949091	-0.376969
C199	C	0.623425	-0.954994	-0.242390
C200	C	0.660202	-0.984924	-0.317107
H201	H	0.599527	-0.983952	-0.193987
H202	H	0.647409	-0.929449	-0.186923
H203	H	0.596084	-0.929419	-0.291008
H204	H	0.687550	-1.010527	-0.268574
H205	H	0.636185	-1.010436	-0.372577
H206	H	0.811387	-0.318038	-0.920572
H207	H	0.743455	-0.338361	-0.918974
H208	H	0.305446	-0.157801	-0.701919
