data_functionalizedCrystal
_audit_creation_method	'MofGen! by Chris Wilmer'
_symmetry_space_group_name_H-M	'P1'
_symmetry_Int_Tables_number	1
_symmetry_cell_setting	triclinic
loop_
_symmetry_equiv_pos_as_xyz
  x,y,z
_cell_length_a	20.919287
_cell_length_b	20.919099
_cell_length_c	14.560438
_cell_angle_alpha	61.865560
_cell_angle_beta	86.844643
_cell_angle_gamma	60.197987
loop_
_atom_site_label
_atom_site_type_symbol
_atom_site_fract_x
_atom_site_fract_y
_atom_site_fract_z
Zr1	Zr	0.653372	0.664089	-0.119451
O2	O	0.558125	0.790661	-0.248512
O3	O	0.677730	0.537517	-0.086476
O4	O	0.684709	0.664090	-0.268578
O5	O	0.551148	0.664087	0.084730
O6	O	0.790066	0.664091	-0.276910
O7	O	0.551147	0.664088	-0.066411
O8	O	0.777583	0.437675	0.048836
O9	O	0.563631	0.890503	-0.241017
O10	O	0.772593	0.589578	-0.070670
O11	O	0.693967	0.589577	0.048342
O12	O	0.702183	0.738601	-0.166059
O13	O	0.623557	0.738599	-0.047046
Zr14	Zr	0.821406	0.664088	0.108310
Zr15	Zr	0.821404	0.664090	-0.132741
Zr16	Zr	0.653374	0.664087	0.121600
Zr17	Zr	0.662153	0.823325	-0.107497
Zr18	Zr	0.812625	0.504852	0.096356
O19	O	0.797048	0.790660	0.075335
O20	O	0.797046	0.790662	-0.267408
O21	O	0.558127	0.790659	0.094231
O22	O	0.916653	0.537516	0.237372
O23	O	0.916651	0.537518	-0.105372
O24	O	0.677732	0.537515	0.256268
O25	O	0.923630	0.664090	-0.095870
O26	O	0.790069	0.664087	0.257437
O27	O	0.684712	0.664086	0.265770
O28	O	0.923631	0.664089	0.055270
O29	O	0.697194	0.890504	-0.251581
O30	O	0.777584	0.437673	0.240440
O31	O	0.911147	0.437674	0.229876
O32	O	0.911146	0.437675	0.038273
O33	O	0.563632	0.890502	-0.049414
O34	O	0.697195	0.890502	-0.059977
O35	O	0.772595	0.589577	0.154918
O36	O	0.851221	0.589578	0.035905
O37	O	0.780811	0.738600	-0.059483
O38	O	0.702185	0.738599	0.059530
C39	C	0.726406	0.464908	-0.020523
C40	C	0.722678	0.397308	-0.025598
C41	C	0.698839	0.017624	-0.057729
C42	C	0.702340	0.081159	-0.053006
C43	C	0.759106	0.057936	0.023898
C44	C	0.812370	-0.028828	0.096091
C45	C	0.808865	-0.092361	0.091373
C46	C	0.772437	0.247012	0.041877
C47	C	0.775939	0.310553	0.046588
C48	C	0.665908	0.420536	-0.102509
C49	C	0.662411	0.356997	-0.107224
C50	C	0.715672	0.270239	-0.035027
C51	C	0.762687	0.122877	0.028724
C52	C	0.712087	0.205300	-0.039850
C53	C	0.527206	0.664088	0.011053
C54	C	0.455872	0.664087	0.016695
C55	C	0.422358	0.664090	-0.063921
C56	C	0.355334	0.664086	-0.058615
C57	C	0.321822	0.664084	0.027304
C58	C	0.355342	0.664079	0.107928
C59	C	0.422368	0.664077	0.102625
C60	C	0.119451	0.664083	0.047485
C61	C	0.052420	0.664087	0.052780
C62	C	0.052417	0.664092	-0.113762
C63	C	0.119442	0.664096	-0.119061
C64	C	0.152958	0.664086	-0.038434
C65	C	0.253312	0.664082	0.032728
C66	C	0.221470	0.664082	-0.043855
C67	C	0.947572	0.664090	-0.022194
C68	C	1.018906	0.664090	-0.027836
C69	C	0.737387	0.664091	-0.307089
C70	C	0.737387	0.664092	-0.409421
C71	C	0.748373	0.863269	0.009382
C72	C	0.752100	0.930869	0.014457
C73	C	0.795435	0.664085	-0.558236
C74	C	0.795431	0.664091	-0.462088
C75	C	0.679338	0.664095	-0.452913
C76	C	0.679339	0.664095	-0.549063
C77	C	0.853487	0.664075	-0.610892
C78	C	0.911536	0.664074	-0.567408
C79	C	0.911532	0.664080	-0.471260
C80	C	0.853480	0.664087	-0.418596
C81	C	0.737391	0.664086	0.295948
C82	C	0.737391	0.664086	0.398280
C83	C	0.936588	0.464909	-0.037146
C84	C	1.004195	0.397310	-0.047863
C85	C	0.726407	0.464906	0.280995
C86	C	0.722680	0.397305	0.378253
C87	C	0.936590	0.464907	0.264372
C88	C	1.004197	0.397307	0.355988
C89	C	0.538188	0.863270	-0.275513
C90	C	0.470581	0.930871	-0.367129
C91	C	0.538190	0.863268	0.026006
C92	C	0.470583	0.930868	0.036722
C93	C	0.748371	0.863271	-0.292136
C94	C	0.752098	0.930872	-0.389394
C95	C	0.994901	0.365564	-0.108537
C96	C	1.058418	0.302056	-0.118628
C97	C	1.131229	0.270290	-0.068037
C98	C	1.140522	0.302041	-0.007361
C99	C	1.077005	0.365553	0.002723
C100	C	0.761973	0.365559	0.479568
C101	C	0.758468	0.302050	0.570962
C102	C	0.715675	0.270284	0.561038
C103	C	0.676378	0.302036	0.459713
C104	C	0.679879	0.365549	0.368322
C105	C	1.076995	0.365561	0.336888
C106	C	1.140526	0.302052	0.422961
C107	C	1.131257	0.270286	0.528134
C108	C	1.058451	0.302037	0.547233
C109	C	0.994922	0.365549	0.461161
C110	C	0.397783	0.962624	-0.348028
C111	C	0.334253	1.026152	-0.434100
C112	C	0.343523	1.057922	-0.539273
C113	C	0.416328	1.026167	-0.558372
C114	C	0.479856	0.962644	-0.472300
C115	C	0.479878	0.962620	0.097387
C116	C	0.416361	1.026145	0.107452
C117	C	0.343551	1.057914	0.056859
C118	C	0.334258	1.026159	-0.003814
C119	C	0.397774	0.962639	-0.013884
C120	C	0.794898	0.962618	-0.379436
C121	C	0.798415	1.026127	-0.470813
C122	C	0.759127	1.057894	-0.572145
C123	C	0.716325	1.026142	-0.582101
C124	C	0.712813	0.962629	-0.490726
H125	H	0.622545	0.491178	-0.161286
F126	F	1.218004	0.268269	0.402612
H127	H	0.390195	0.936788	-0.063280
H128	H	0.423942	1.051989	0.156861
H129	H	0.274978	1.051997	-0.418528
F130	F	0.973306	0.664087	-0.424989
F131	F	0.426181	1.059986	-0.670312
H132	H	0.291838	1.109636	0.065068
F133	F	0.256761	1.059976	-0.057651
F134	F	0.829122	0.154685	0.118718
F135	F	0.617560	0.664101	-0.396861
H136	H	0.858587	-0.047732	0.158712
F137	F	0.275902	1.125530	-0.630869
H138	H	0.632074	0.664097	-0.584468
H139	H	0.146726	0.664097	-0.189023
H140	H	0.826891	0.936763	-0.296934
F141	F	0.853476	0.664104	-0.316272
F142	F	1.086877	0.399362	0.224962
H143	H	0.833267	1.051973	-0.462685
H144	H	0.761993	1.109611	-0.646540
F145	F	0.711957	0.202687	0.658315
F146	F	1.198878	0.202689	0.619731
H147	H	0.684339	1.052016	-0.664618
F148	F	0.557332	0.928852	-0.492646
H149	H	0.677958	0.936789	-0.498848
F150	F	0.853497	0.664065	-0.713219
H151	H	1.050916	0.276163	0.632876
F152	F	0.836363	0.285830	0.128439
H153	H	0.652617	0.036543	-0.120357
H154	H	0.025123	0.664099	-0.179403
F155	F	0.638059	0.399325	0.260497
F156	F	0.865551	-0.184695	0.168205
H157	H	0.146733	0.664077	0.113133
H158	H	0.539158	0.936759	0.138595
H159	H	0.790472	0.276205	0.653456
F160	F	0.917416	0.399363	-0.162392
F161	F	0.630837	0.268219	0.449168
H162	H	0.796819	0.391416	0.487668
H163	H	1.050837	0.276212	-0.168036
H164	H	0.658977	0.151797	-0.111799
F165	F	0.917446	0.399324	0.481505
F166	F	0.601991	0.381721	-0.189072
H167	H	0.328055	0.664072	0.177889
F168	F	0.387901	0.928821	-0.236102
F169	F	0.458036	0.664070	0.188430
F170	F	0.823099	0.098169	0.110570
F171	F	0.651672	0.230012	-0.121690
H172	H	1.199812	0.276168	0.033826
F173	F	0.458015	0.664098	-0.155373
H174	H	0.025137	0.664087	0.122750
F175	F	0.319667	0.664087	-0.144414
H176	H	0.248759	0.664078	-0.113808
F177	F	1.086908	0.399327	0.067309
H178	H	0.226020	0.664083	0.102683
F179	F	0.973311	0.664075	-0.623463
F180	F	1.198823	0.202694	-0.078778
