data_functionalizedCrystal
_audit_creation_method	'MofGen! by Chris Wilmer'
_symmetry_space_group_name_H-M	'P1'
_symmetry_Int_Tables_number	1
_symmetry_cell_setting	triclinic
loop_
_symmetry_equiv_pos_as_xyz
  x,y,z
_cell_length_a	12.759401
_cell_length_b	21.395361
_cell_length_c	21.395355
_cell_angle_alpha	90.021511
_cell_angle_beta	89.977763
_cell_angle_gamma	89.967585
loop_
_atom_site_label
_atom_site_type_symbol
_atom_site_fract_x
_atom_site_fract_y
_atom_site_fract_z
Zn1	Zn	1.606168	0.249483	-0.354210
Zn2	Zn	1.606005	0.354242	-0.249427
Zn3	Zn	1.430461	0.249486	-0.249451
Zn4	Zn	1.430410	0.354229	-0.354171
O5	O	1.518261	0.301860	-0.301815
O6	O	1.753167	0.263383	-0.340316
O7	O	1.582672	0.340353	-0.161752
O8	O	1.453859	0.161807	-0.263373
O9	O	1.753047	0.340350	-0.263333
O10	O	1.582950	0.161805	-0.340339
O11	O	1.453701	0.263389	-0.161770
O12	O	1.283433	0.263376	-0.263336
O13	O	1.453771	0.340328	-0.441854
O14	O	1.283395	0.340331	-0.340274
O15	O	1.582900	0.263371	-0.441882
O16	O	1.582621	0.441919	-0.263295
O17	O	1.453613	0.441909	-0.340250
C18	C	1.245294	0.301853	-0.301804
C19	C	1.128517	0.301865	-0.301814
C20	C	0.963998	0.261858	-0.341968
C21	C	1.073722	0.261857	-0.341961
C22	C	1.073582	0.341882	-0.261675
C23	C	0.963860	0.341886	-0.261685
C24	C	0.964080	0.215654	-0.388319
C25	C	1.073805	0.215653	-0.388312
C26	C	1.518122	0.464648	-0.301780
C27	C	1.518159	0.534289	-0.301786
C28	C	1.518348	0.301847	-0.465238
C29	C	1.518385	0.301842	-0.534879
C30	C	1.792294	0.301868	-0.301826
C31	C	1.909071	0.301871	-0.301831
C32	C	1.518429	0.138437	-0.301863
C33	C	1.518500	0.068795	-0.301884
C34	C	1.585393	0.566986	-0.261756
C35	C	1.585442	0.632422	-0.261770
C36	C	1.518238	0.665157	-0.301807
C37	C	1.450999	0.632452	-0.341845
C38	C	1.450959	0.567018	-0.341834
C39	C	1.423640	0.768874	-0.306719
C40	C	1.423678	0.834307	-0.306726
C41	C	1.518360	0.866978	-0.301844
C42	C	1.613008	0.834208	-0.296943
C43	C	1.612969	0.768774	-0.296932
C44	C	1.518274	0.736110	-0.301824
C45	C	1.585653	0.970628	-0.261827
C46	C	1.585704	1.036064	-0.261846
C47	C	1.451251	1.036094	-0.341917
C48	C	1.451210	0.970658	-0.341902
C49	C	1.518410	0.937929	-0.301854
C50	C	1.585620	0.261769	-0.567608
C51	C	1.585618	0.261742	-0.633043
C52	C	1.518393	0.301799	-0.665748
C53	C	1.451146	0.341875	-0.633011
C54	C	1.451142	0.341897	-0.567577
C55	C	1.510050	0.358215	-0.769410
C56	C	1.510061	0.358194	-0.834843
C57	C	1.518400	0.301733	-0.867568
C58	C	1.526749	0.245290	-0.834852
C59	C	1.526745	0.245312	-0.769418
C60	C	1.518390	0.301780	-0.736700
C61	C	1.585637	0.261627	-0.971250
C62	C	1.585628	0.261599	-1.036687
C63	C	1.451161	0.341738	-1.036653
C64	C	1.451164	0.341761	-0.971217
C65	C	1.518408	0.301706	-0.938520
C66	C	1.518234	0.301827	-0.139027
C67	C	1.518401	0.301656	-0.069386
H68	H	1.640196	0.659049	-0.229173
H69	H	1.640384	0.229009	-0.944626
H70	H	1.396208	0.540395	-0.374431
N71	N	1.321599	0.869649	-0.312002
H72	H	1.261613	0.839025	-0.315100
H73	H	1.323094	0.896780	-0.350611
H74	H	1.396282	0.659110	-0.374444
H75	H	1.640461	1.062685	-0.229250
N76	N	0.924674	0.232973	-0.452564
H77	H	0.845517	0.232981	-0.452596
H78	H	0.951166	0.201550	-0.484075
N79	N	1.715041	0.733424	-0.291661
H80	H	1.713646	0.706294	-0.253048
H81	H	1.774981	0.764081	-0.288598
N82	N	0.919017	0.154570	-0.365408
H83	H	0.977947	0.125052	-0.354332
H84	H	0.874487	0.135373	-0.399374
H85	H	1.503269	0.404154	-0.861476
N86	N	0.904610	0.385046	-0.218400
H87	H	0.923678	0.429825	-0.228050
H88	H	0.923695	0.375199	-0.173665
H89	H	1.640374	0.229152	-0.540990
H90	H	1.690108	0.860807	-0.292968
H91	H	1.103613	0.167108	-0.375396
N92	N	1.378773	1.071391	-0.385106
H93	H	1.389001	1.117806	-0.379041
H94	H	1.303738	1.060002	-0.375314
H95	H	1.107861	0.233100	-0.434375
H96	H	1.640377	0.228963	-1.063333
H97	H	1.396457	0.944034	-0.374495
N98	N	1.132675	0.385039	-0.218376
H99	H	1.210519	0.378966	-0.224460
H100	H	1.113466	0.375221	-0.173648
N101	N	1.657885	0.531686	-0.218573
H102	H	1.700491	0.562333	-0.193219
H103	H	1.706466	0.504501	-0.244105
N104	N	1.535737	0.184435	-0.734138
H105	H	1.471737	0.178569	-0.706977
H106	H	1.600512	0.185326	-0.707038
H107	H	1.640375	0.943979	-0.229220
H108	H	1.346532	0.742280	-0.310697
H109	H	1.640367	0.229106	-0.659697
N110	N	1.378662	0.384994	-0.935914
H111	H	1.388860	0.378930	-0.889500
H112	H	1.303637	0.375238	-0.947335
N113	N	1.535754	0.184387	-0.870138
H114	H	1.534487	0.192935	-0.916554
H115	H	1.475030	0.156376	-0.858687
N116	N	1.378643	0.384939	-1.071916
H117	H	1.388844	0.378844	-1.118336
H118	H	1.394946	0.429692	-1.060482
H119	H	1.502978	0.404181	-0.742771
N120	N	1.378621	0.385071	-0.668280
H121	H	1.388823	0.378976	-0.714699
H122	H	1.394910	0.429825	-0.656846
N123	N	1.378607	0.385111	-0.532271
H124	H	1.336010	0.410480	-0.562916
H125	H	1.421328	0.414121	-0.505127
