data_functionalizedCrystal
_audit_creation_method	'MofGen! by Chris Wilmer'
_symmetry_space_group_name_H-M	'P1'
_symmetry_Int_Tables_number	1
_symmetry_cell_setting	triclinic
loop_
_symmetry_equiv_pos_as_xyz
  x,y,z
_cell_length_a	10.654550
_cell_length_b	14.519709
_cell_length_c	9.130313
_cell_angle_alpha	89.997798
_cell_angle_beta	89.996220
_cell_angle_gamma	84.082524
loop_
_atom_site_label
_atom_site_type_symbol
_atom_site_fract_x
_atom_site_fract_y
_atom_site_fract_z
O1	O	1.666589	0.129528	-0.121923
O2	O	1.300991	0.141869	-0.121900
O3	O	1.493483	0.001510	-0.121899
O4	O	1.474097	0.269887	-0.121924
O5	O	1.493481	0.001514	0.121700
O6	O	1.300989	0.141873	0.121699
O7	O	1.666586	0.129532	0.121676
Cu8	Cu	1.483787	0.135703	0.143930
Cu9	Cu	1.483790	0.135698	-0.144154
O10	O	1.474094	0.269891	0.121675
C11	C	1.254201	0.140965	-0.000098
C12	C	1.114784	0.138254	-0.000088
C13	C	1.034504	0.220895	-0.000117
C14	C	0.903507	0.218342	-0.000143
C15	C	0.933085	0.050500	-0.000116
C16	C	1.064078	0.053054	-0.000080
C17	C	1.085209	0.306095	-0.000126
C18	C	1.004928	0.388743	-0.000157
C19	C	0.873931	0.386190	-0.000182
C20	C	0.823217	0.300989	-0.000176
C21	C	1.492579	-0.032852	-0.000099
C22	C	1.489871	-0.135247	-0.000098
C23	C	1.479904	-0.510195	-0.000136
C24	C	1.482672	-0.405873	-0.000125
C25	C	1.484887	-0.322725	-0.000116
C26	C	1.487656	-0.218396	-0.000108
C27	C	1.713377	0.130436	-0.000130
C28	C	1.852794	0.133147	-0.000149
C29	C	1.474999	0.304253	-0.000128
C30	C	1.477707	0.406648	-0.000139
N31	N	1.483795	0.135705	0.346552
N32	N	1.483793	0.135688	-0.346777
C33	C	1.569052	0.073576	0.423205
C34	C	1.569048	0.073565	0.576542
C35	C	1.398527	0.197821	0.576560
C36	C	1.398525	0.197827	0.423226
C37	C	1.654321	0.011454	0.346531
C38	C	1.739586	-0.050679	0.423184
C39	C	1.739583	-0.050691	0.576520
C40	C	1.654315	0.011432	0.653205
H41	H	0.891782	-0.018867	-0.000135
O42	O	1.142021	-0.027246	-0.000322
C43	C	1.119026	-0.078936	-0.126469
H44	H	1.074378	-0.030540	-0.214663
H45	H	1.052212	-0.132751	-0.097961
C46	C	1.299310	-0.187523	-0.075321
C47	C	1.244482	-0.128081	-0.183646
H48	H	1.376695	-0.217842	-0.110588
H49	H	1.314800	-0.152701	0.009671
H50	H	1.243619	-0.232360	-0.051574
H51	H	1.300166	-0.083238	-0.207378
H52	H	1.229004	-0.162897	-0.268643
O53	O	1.822317	-0.110968	0.348473
C54	C	1.803997	-0.097671	0.196698
H55	H	1.757281	-0.024652	0.175746
H56	H	1.740839	-0.150272	0.153228
C57	C	1.989786	-0.200409	0.143666
C58	C	1.932418	-0.110723	0.117931
H59	H	2.069000	-0.208464	0.095075
H60	H	2.002127	-0.209370	0.245919
H61	H	1.937141	-0.244233	0.107440
H62	H	1.985055	-0.066902	0.154172
H63	H	1.920089	-0.101754	0.015681
H64	H	1.046228	0.458110	-0.000149
H65	H	1.654334	0.011460	0.221677
H66	H	1.809000	-0.101288	0.638929
O67	O	1.315536	0.258073	0.650983
C68	C	1.191191	0.242247	0.613503
H69	H	1.190418	0.168407	0.571345
H70	H	1.154412	0.293119	0.524508
C71	C	1.107043	0.346679	0.801505
C72	C	1.106091	0.255984	0.749738
H73	H	1.054547	0.355157	0.885538
H74	H	1.190816	0.357345	0.826754
H75	H	1.076397	0.389062	0.727330
H76	H	1.136752	0.213604	0.823906
H77	H	1.022322	0.245312	0.724505
O78	O	0.796124	0.466555	-0.000269
C79	C	0.868975	0.542297	-0.000229
H80	H	0.966697	0.519510	-0.046322
H81	H	0.878333	0.568378	0.116635
C82	C	0.683879	0.648567	-0.039176
C83	C	0.803900	0.620583	-0.095799
H84	H	0.643737	0.696860	-0.098122
H85	H	0.634797	0.597539	-0.039197
H86	H	0.691695	0.670296	0.058210
H87	H	0.796082	0.598844	-0.193176
H88	H	0.852980	0.671609	-0.095797
O89	O	1.315837	0.258308	0.348819
C90	C	1.336423	0.349744	0.386308
H91	H	1.436962	0.350884	0.428457
H92	H	1.266872	0.376356	0.475311
C93	C	1.193563	0.410734	0.198324
C94	C	1.317052	0.412136	0.250081
H95	H	1.181609	0.449222	0.114296
H96	H	1.179690	0.349132	0.173070
H97	H	1.135619	0.432909	0.272506
H98	H	1.374993	0.389950	0.175906
H99	H	1.330934	0.473735	0.275320
H100	H	1.191871	0.308183	-0.000112
H101	H	0.716549	0.298917	-0.000174
H102	H	1.654311	0.011412	0.778062
