data_functionalizedCrystal
_audit_creation_method	'MofGen! by Chris Wilmer'
_symmetry_space_group_name_H-M	'P1'
_symmetry_Int_Tables_number	1
_symmetry_cell_setting	triclinic
loop_
_symmetry_equiv_pos_as_xyz
  x,y,z
_cell_length_a	16.974885
_cell_length_b	16.974813
_cell_length_c	9.130313
_cell_angle_alpha	86.344195
_cell_angle_beta	93.651792
_cell_angle_gamma	83.628230
loop_
_atom_site_label
_atom_site_type_symbol
_atom_site_fract_x
_atom_site_fract_y
_atom_site_fract_z
O1	O	1.049025	0.100749	-0.009509
O2	O	0.818806	0.113590	-0.038297
O3	O	0.940334	-0.007941	-0.009492
O4	O	0.927497	0.222280	-0.038314
O5	O	0.940332	-0.007937	0.234106
O6	O	0.818804	0.113594	0.205301
O7	O	1.049023	0.100752	0.234089
Cu8	Cu	0.933914	0.107173	0.241938
Cu9	Cu	0.933915	0.107169	-0.046146
O10	O	0.927495	0.222283	0.205284
C11	C	0.789348	0.113105	0.080071
C12	C	0.701573	0.111642	0.069849
C13	C	0.939845	-0.037397	0.115739
C14	C	0.938381	-0.125172	0.125966
C15	C	0.207500	0.103385	-0.002043
C16	C	0.289973	0.104759	0.007582
C17	C	0.331201	0.105454	0.145180
C18	C	0.289951	0.104766	0.273163
C19	C	0.207480	0.103387	0.263538
C20	C	0.577852	0.109575	0.188207
C21	C	0.660329	0.110957	0.197822
C22	C	0.660346	0.110949	-0.067761
C23	C	0.577873	0.109574	-0.077374
C24	C	0.536631	0.108882	0.050609
N25	N	0.415501	0.106861	0.155021
N26	N	0.452332	0.107470	0.040768
C27	C	0.937695	-0.166406	-0.002014
C28	C	0.936315	-0.248879	0.007599
C29	C	0.935625	-0.290117	0.145194
C30	C	0.936308	-0.248877	0.273183
C31	C	0.937683	-0.166405	0.263568
C32	C	0.931507	-0.536773	0.188188
C33	C	0.930134	-0.619252	0.197793
C34	C	0.930139	-0.619248	-0.067792
C35	C	0.931519	-0.536774	-0.077394
C36	C	0.932198	-0.495541	0.050594
N37	N	0.934216	-0.374419	0.155023
N38	N	0.933601	-0.411240	0.040763
C39	C	1.078482	0.101238	0.115718
C40	C	1.166256	0.102700	0.125931
C41	C	0.927984	0.251739	0.080049
C42	C	0.929449	0.339514	0.069813
N43	N	0.933918	0.107175	0.444561
N44	N	0.933917	0.107161	-0.248767
C45	C	0.987744	0.053379	0.533967
C46	C	0.987742	0.053370	0.687305
C47	C	0.880085	0.160959	0.661815
C48	C	0.880084	0.160964	0.508480
C49	C	1.049901	-0.008734	0.548684
C50	C	1.049899	-0.008744	0.702022
H51	H	0.173938	0.102825	-0.114091
N52	N	0.822014	0.218978	0.412061
H53	H	0.831046	0.275095	0.433168
H54	H	0.830203	0.210754	0.305259
N55	N	0.929399	-0.663728	0.346212
H56	H	0.977827	-0.704400	0.362679
H57	H	0.930012	-0.625034	0.425732
H58	H	1.110533	0.004208	0.749284
H59	H	1.107124	0.009961	0.505686
N60	N	0.704826	0.111679	-0.205794
H61	H	0.684014	0.160427	-0.272108
H62	H	0.763318	0.112626	-0.178704
N63	N	0.822029	0.218972	0.730770
H64	H	0.831066	0.275089	0.698514
H65	H	0.765952	0.209823	0.698492
H66	H	0.323551	0.105312	-0.096627
H67	H	0.935760	-0.282449	-0.096616
N68	N	0.162994	0.102643	0.401568
H69	H	0.201698	0.102730	0.490267
H70	H	0.122690	0.151348	0.397248
H71	H	0.693893	0.111528	0.309876
N72	N	1.025220	-0.084582	0.771079
H73	H	0.969722	-0.091487	0.731194
H74	H	1.063334	-0.131196	0.746946
N75	N	1.032805	-0.089063	0.501038
H76	H	1.078883	-0.113424	0.447920
H77	H	1.025156	-0.124852	0.590440
N78	N	0.929409	-0.663722	-0.205828
H79	H	0.880661	-0.642906	-0.272132
H80	H	0.978676	-0.655813	-0.258853
N81	N	0.533409	0.108816	-0.225783
H82	H	0.572052	0.109455	-0.305395
H83	H	0.505661	0.059248	-0.228965
N84	N	0.932248	-0.492307	0.326227
H85	H	0.931609	-0.530949	0.414848
H86	H	0.981813	-0.464554	0.334586
N87	N	0.935573	-0.293353	0.421592
H88	H	0.886016	-0.321115	0.424942
H89	H	0.984032	-0.333988	0.437965
H90	H	0.938261	-0.132836	-0.114058
H91	H	0.544285	0.109000	0.292422
N92	N	0.938434	-0.121931	0.401607
H93	H	0.939409	-0.063428	0.374639
H94	H	0.889201	-0.129883	0.454709
H95	H	0.323525	0.105327	0.385200
H96	H	0.932082	-0.503204	-0.189438
