data_functionalizedCrystal
_audit_creation_method	'MofGen! by Chris Wilmer'
_symmetry_space_group_name_H-M	'P1'
_symmetry_Int_Tables_number	1
_symmetry_cell_setting	triclinic
loop_
_symmetry_equiv_pos_as_xyz
  x,y,z
_cell_length_a	18.215407
_cell_length_b	12.759399
_cell_length_c	12.759393
_cell_angle_alpha	90.026988
_cell_angle_beta	89.977112
_cell_angle_gamma	89.985209
loop_
_atom_site_label
_atom_site_type_symbol
_atom_site_fract_x
_atom_site_fract_y
_atom_site_fract_z
Zn1	Zn	1.125148	0.418203	-0.594100
Zn2	Zn	1.625148	0.918203	-0.094100
Zn3	Zn	1.125073	0.593918	-0.418431
Zn4	Zn	1.625073	1.093918	0.081569
Zn5	Zn	1.002074	0.418255	-0.418430
Zn6	Zn	1.502074	0.918255	0.081570
Zn7	Zn	1.002069	0.593842	-0.594062
Zn8	Zn	1.502069	1.093842	-0.094062
O9	O	1.063591	0.506055	-0.506256
O10	O	1.563591	1.006055	-0.006256
O11	O	1.228122	0.441522	-0.570814
O12	O	1.728122	0.941522	-0.070814
O13	O	1.108727	0.570670	-0.271410
O14	O	1.608727	1.070670	0.228590
O15	O	1.018434	0.271227	-0.441748
O16	O	1.518434	0.771227	0.058252
O17	O	1.228067	0.570619	-0.441751
O18	O	1.728067	1.070619	0.058249
O19	O	1.108856	0.271189	-0.570812
O20	O	1.608856	0.771189	-0.070812
O21	O	1.018361	0.441612	-0.271409
O22	O	1.518361	0.941612	0.228591
O23	O	0.899089	0.441537	-0.441711
O24	O	1.399089	0.941537	0.058289
O25	O	1.018425	0.570489	-0.741089
O26	O	1.518425	1.070489	-0.241089
O27	O	0.899086	0.570540	-0.570748
O28	O	1.399086	1.070540	-0.070748
O29	O	1.108851	0.441448	-0.741116
O30	O	1.608851	0.941448	-0.241116
O31	O	1.108722	0.740929	-0.441714
O32	O	1.608722	1.240929	0.058286
O33	O	1.018352	0.740873	-0.570749
O34	O	1.518352	1.240873	-0.070749
C35	C	0.872385	0.506037	-0.506226
C36	C	1.372385	1.006037	-0.006226
C37	C	0.790586	0.506054	-0.506238
C38	C	1.290586	1.006054	-0.006238
C39	C	1.063548	0.779022	-0.506251
C40	C	1.563548	1.279022	-0.006251
C41	C	1.063598	0.895799	-0.506284
C42	C	1.563598	1.395799	-0.006284
C43	C	1.063646	0.505954	-0.780289
C44	C	1.563646	1.005954	-0.280289
C45	C	1.063670	0.505911	-0.897066
C46	C	1.563670	1.005911	-0.397066
C47	C	0.602409	0.573331	-0.573343
C48	C	1.102409	1.073331	-0.073343
C49	C	0.525551	0.573335	-0.573356
C50	C	1.025551	1.073335	-0.073356
C51	C	0.525525	0.438797	-0.439192
C52	C	1.025525	0.938797	0.060808
C53	C	0.602382	0.438789	-0.439185
C54	C	1.102382	0.938789	0.060815
C55	C	0.640822	0.506062	-0.506259
C56	C	1.140822	1.006062	-0.006259
C57	C	0.487106	0.506073	-0.506279
C58	C	0.987106	1.006073	-0.006279
C59	C	0.403773	0.506076	-0.506293
C60	C	0.903773	1.006076	-0.006293
C61	C	0.724161	0.506058	-0.506247
C62	C	1.224161	1.006058	-0.006247
C63	C	1.255544	0.506073	-0.506287
C64	C	1.755544	1.006073	-0.006287
C65	C	1.337343	0.506081	-0.506300
C66	C	1.837343	1.006081	-0.006300
C67	C	1.110751	1.060386	-0.439213
C68	C	1.610751	1.560386	0.060787
C69	C	1.110706	0.950662	-0.439173
C70	C	1.610706	1.450662	0.060827
C71	C	1.016525	0.950665	-0.573431
C72	C	1.516525	1.450665	-0.073431
C73	C	1.016566	1.060387	-0.573464
C74	C	1.516566	1.560387	-0.073464
C75	C	1.063654	1.232021	-0.506299
C76	C	1.563654	1.732021	-0.006299
C77	C	1.063683	1.115245	-0.506357
C78	C	1.563683	1.615245	-0.006357
C79	C	1.110758	0.438708	-0.951944
C80	C	1.610758	0.938708	-0.451944
C81	C	1.110770	0.438663	-1.061668
C82	C	1.610770	0.938663	-0.561668
C83	C	1.016604	0.573032	-1.061627
C84	C	1.516604	1.073032	-0.561627
C85	C	1.016589	0.573071	-0.951904
C86	C	1.516589	1.073071	-0.451904
C87	C	1.063578	0.506079	-0.233289
C88	C	1.563578	1.006079	0.266711
C89	C	1.063698	0.505826	-0.116512
C90	C	1.563698	1.005826	0.383488
H91	H	0.494278	0.628111	-0.627984
H92	H	0.994278	1.128111	-0.127984
H93	H	0.978164	0.905989	-0.628070
H94	H	1.478164	1.405989	-0.128070
H95	H	1.149032	0.905999	-0.384497
H96	H	1.649032	1.405999	0.115503
C97	C	0.594643	0.305808	-0.306555
C98	C	1.094643	0.805808	0.193445
C99	C	0.644612	0.364844	-0.365436
C100	C	1.144612	0.864844	0.134564
H101	H	0.620715	0.260164	-0.261027
H102	H	1.120715	0.760164	0.238973
H103	H	0.564687	0.265675	-0.352395
H104	H	1.064687	0.765675	0.147605
H105	H	0.564645	0.351550	-0.266297
H106	H	1.064645	0.851550	0.233703
H107	H	0.674606	0.319102	-0.405701
H108	H	1.174606	0.819102	0.094299
H109	H	0.674580	0.404980	-0.319591
H110	H	1.174580	0.904980	0.180409
H111	H	0.494217	0.384027	-0.384581
H112	H	0.994217	0.884027	0.115419
C113	C	0.980715	0.750917	-1.095374
C114	C	1.480715	1.250917	-0.595374
C115	C	0.964860	0.646860	-1.121907
C116	C	1.464860	1.146860	-0.621907
H117	H	0.948767	0.796496	-1.132583
H118	H	1.448767	1.296496	-0.632583
H119	H	1.030154	0.766284	-1.113371
H120	H	1.530154	1.266284	-0.613371
H121	H	0.973963	0.760543	-1.022171
H122	H	1.473963	1.260543	-0.522171
H123	H	0.971617	0.637232	-1.195109
H124	H	1.471617	1.137232	-0.695109
H125	H	0.915408	0.631488	-1.103917
H126	H	1.415408	1.131488	-0.603917
C127	C	0.594712	0.706304	-0.705970
C128	C	1.094712	1.206304	-0.205970
C129	C	0.644664	0.647265	-0.647081
C130	C	1.144664	1.147265	-0.147081
H131	H	0.620798	0.751941	-0.751500
H132	H	1.120798	1.251941	-0.251500
H133	H	0.564718	0.746444	-0.660135
H134	H	1.064718	1.246444	-0.160135
H135	H	0.564752	0.660563	-0.746227
H136	H	1.064752	1.160563	-0.246227
H137	H	0.674621	0.693006	-0.606818
H138	H	1.174621	1.193006	-0.106818
H139	H	0.674671	0.607122	-0.692922
H140	H	1.174671	1.107122	-0.192922
C141	C	1.203834	1.049358	-0.306492
C142	C	1.703834	1.549358	0.193508
C143	C	1.162534	1.120687	-0.365439
C144	C	1.662534	1.620687	0.134561
H145	H	1.235798	1.086586	-0.260941
H146	H	1.735798	1.586586	0.239059
H147	H	1.231951	1.006499	-0.352290
H148	H	1.731951	1.506499	0.147710
H149	H	1.171758	1.006628	-0.266256
H150	H	1.671758	1.506628	0.233744
H151	H	1.194610	1.163412	-0.405682
H152	H	1.694610	1.663412	0.094318
H153	H	1.134414	1.163564	-0.319636
H154	H	1.634414	1.663564	0.180364
H155	H	0.978235	1.105054	-0.628143
H156	H	1.478235	1.605054	-0.128143
C157	C	1.203830	0.305877	-0.963011
C158	C	1.703830	0.805877	-0.463011
C159	C	1.162500	0.364876	-0.891665
C160	C	1.662500	0.864876	-0.391665
H161	H	1.235770	0.260290	-0.925796
H162	H	1.735770	0.760290	-0.425796
H163	H	1.231976	0.351639	-1.005805
H164	H	1.731976	0.851639	-0.505805
H165	H	1.171772	0.265677	-1.005805
H166	H	1.671772	0.765677	-0.505805
H167	H	1.194559	0.405083	-0.848876
H168	H	1.694559	0.905083	-0.348876
H169	H	1.134353	0.319109	-0.848852
H170	H	1.634353	0.819109	-0.348852
H171	H	1.149113	0.383938	-1.106345
H172	H	1.649113	0.883938	-0.606345
H173	H	0.978239	0.627794	-0.907221
H174	H	1.478239	1.127794	-0.407221
