data_functionalizedCrystal
_audit_creation_method	'MofGen! by Chris Wilmer'
_symmetry_space_group_name_H-M	'P1'
_symmetry_Int_Tables_number	1
_symmetry_cell_setting	triclinic
loop_
_symmetry_equiv_pos_as_xyz
  x,y,z
_cell_length_a	16.120530
_cell_length_b	12.827892
_cell_length_c	12.827885
_cell_angle_alpha	90.029976
_cell_angle_beta	92.918515
_cell_angle_gamma	87.111094
loop_
_atom_site_label
_atom_site_type_symbol
_atom_site_fract_x
_atom_site_fract_y
_atom_site_fract_z
Zn1	Zn	1.274617	-0.497098	0.671823
Zn2	Zn	1.524617	-0.247098	0.921823
Zn3	Zn	1.774617	0.002902	1.171823
Zn4	Zn	2.024617	0.252902	1.421823
Zn5	Zn	1.274533	-0.671870	0.497078
Zn6	Zn	1.524533	-0.421870	0.747078
Zn7	Zn	1.774533	-0.171870	0.997078
Zn8	Zn	2.024533	0.078130	1.247078
Zn9	Zn	1.135195	-0.488277	0.488240
Zn10	Zn	1.385195	-0.238277	0.738240
Zn11	Zn	1.635195	0.011723	0.988240
Zn12	Zn	1.885195	0.261723	1.238240
Zn13	Zn	1.135183	-0.662925	0.662925
Zn14	Zn	1.385183	-0.412925	0.912925
Zn15	Zn	1.635183	-0.162925	1.162925
Zn16	Zn	1.885183	0.087075	1.412925
O17	O	1.204882	-0.580043	0.580016
O18	O	1.454882	-0.330043	0.830016
O19	O	1.704882	-0.080043	1.080016
O20	O	1.954882	0.169957	1.330016
O21	O	1.391273	-0.527718	0.656066
O22	O	1.641273	-0.277718	0.906066
O23	O	1.891273	-0.027718	1.156066
O24	O	2.141273	0.222282	1.406066
O25	O	1.256019	-0.647568	0.349667
O26	O	1.506019	-0.397568	0.599667
O27	O	1.756019	-0.147568	0.849667
O28	O	2.006019	0.102432	1.099667
O29	O	1.153730	-0.343213	0.512618
O30	O	1.403730	-0.093213	0.762618
O31	O	1.653730	0.156787	1.012618
O32	O	1.903730	0.406787	1.262618
O33	O	1.391211	-0.656122	0.527681
O34	O	1.641211	-0.406122	0.777681
O35	O	1.891211	-0.156122	1.027681
O36	O	2.141211	0.093878	1.277681
O37	O	1.256163	-0.349695	0.647496
O38	O	1.506163	-0.099695	0.897496
O39	O	1.756163	0.150305	1.147496
O40	O	2.006163	0.400305	1.397496
O41	O	1.153648	-0.512683	0.343174
O42	O	1.403648	-0.262683	0.593174
O43	O	1.653648	-0.012683	0.843174
O44	O	1.903648	0.237317	1.093174
O45	O	1.018527	-0.504008	0.503989
O46	O	1.268527	-0.254008	0.753989
O47	O	1.518527	-0.004008	1.003989
O48	O	1.768527	0.245992	1.253989
O49	O	1.153710	-0.640876	0.810343
O50	O	1.403710	-0.390876	1.060343
O51	O	1.653710	-0.140876	1.310343
O52	O	1.903710	0.109124	1.560343
O53	O	1.018518	-0.632321	0.632330
O54	O	1.268518	-0.382321	0.882330
O55	O	1.518518	-0.132321	1.132330
O56	O	1.768518	0.117679	1.382330
O57	O	1.256151	-0.519044	0.816881
O58	O	1.506151	-0.269044	1.066881
O59	O	1.756151	-0.019044	1.316881
O60	O	2.006151	0.230956	1.566881
O61	O	1.256007	-0.816917	0.519052
O62	O	1.506007	-0.566917	0.769052
O63	O	1.756007	-0.316917	1.019052
O64	O	2.006007	-0.066917	1.269052
O65	O	1.153628	-0.810345	0.640900
O66	O	1.403628	-0.560345	0.890900
O67	O	1.653628	-0.310345	1.140900
O68	O	1.903628	-0.060345	1.390900
C69	C	0.988272	-0.566238	0.566235
C70	C	1.238272	-0.316238	0.816235
C71	C	1.488272	-0.066238	1.066235
C72	C	1.738272	0.183762	1.316235
C73	C	0.895605	-0.560357	0.560364
C74	C	1.145605	-0.310357	0.810364
C75	C	1.395605	-0.060357	1.060364
C76	C	1.645605	0.189643	1.310364
C77	C	1.204830	-0.851549	0.579994
C78	C	1.454830	-0.601549	0.829994
C79	C	1.704830	-0.351549	1.079994
C80	C	1.954830	-0.101549	1.329994
C81	C	1.204884	-0.967706	0.580024
C82	C	1.454884	-0.717706	0.830024
C83	C	1.704884	-0.467706	1.080024
C84	C	1.954884	-0.217706	1.330024
C85	C	1.154325	-1.136419	0.513286
C86	C	1.404325	-0.886419	0.763286
C87	C	1.654325	-0.636419	1.013286
C88	C	1.904325	-0.386419	1.263286
C89	C	1.154268	-1.016365	0.513253
C90	C	1.404268	-0.766365	0.763253
C91	C	1.654268	-0.516365	1.013253
C92	C	1.904268	-0.266365	1.263253
C93	C	0.725942	-0.549596	0.549655
C94	C	0.975942	-0.299596	0.799655
C95	C	1.225942	-0.049596	1.049655
C96	C	1.475942	0.200404	1.299655
C97	C	0.684662	-0.610566	0.610454
C98	C	0.934662	-0.360566	0.860454
C99	C	1.184662	-0.110566	1.110454
C100	C	1.434662	0.139434	1.360454
C101	C	0.590256	-0.604579	0.604495
C102	C	0.840256	-0.354579	0.854495
C103	C	1.090256	-0.104579	1.104495
C104	C	1.340256	0.145421	1.354495
C105	C	0.820357	-0.555582	0.555612
C106	C	1.070357	-0.305582	0.805612
C107	C	1.320357	-0.055582	1.055612
C108	C	1.570357	0.194418	1.305612
C109	C	1.422338	-0.593902	0.593852
C110	C	1.672338	-0.343902	0.843852
C111	C	1.922338	-0.093902	1.093852
C112	C	2.172338	0.156098	1.343852
C113	C	1.515005	-0.599808	0.599748
C114	C	1.765005	-0.349808	0.849748
C115	C	2.015005	-0.099808	1.099748
C116	C	2.265005	0.150192	1.349748
C117	C	1.204939	-0.579946	0.852590
C118	C	1.454939	-0.329946	1.102590
C119	C	1.704939	-0.079946	1.352590
C120	C	1.954939	0.170054	1.602590
C121	C	1.204963	-0.579905	0.968745
C122	C	1.454963	-0.329905	1.218745
C123	C	1.704963	-0.079905	1.468745
C124	C	1.954963	0.170095	1.718745
C125	C	1.204957	-0.307477	0.580063
C126	C	1.454957	-0.057477	0.830063
C127	C	1.704957	0.192523	1.080063
C128	C	1.954957	0.442523	1.330063
C129	C	1.204989	-0.191326	0.580084
C130	C	1.454989	0.058674	0.830084
C131	C	1.704989	0.308674	1.080084
C132	C	1.954989	0.558674	1.330084
C133	C	1.204873	-0.580067	0.308506
C134	C	1.454873	-0.330067	0.558506
C135	C	1.704873	-0.080067	0.808506
C136	C	1.954873	0.169933	1.058506
C137	C	1.205011	-0.579824	0.192362
C138	C	1.455011	-0.329824	0.442362
C139	C	1.705011	-0.079824	0.692362
C140	C	1.955011	0.170176	0.942362
C141	C	1.255660	-0.519606	1.023765
C142	C	1.505660	-0.269606	1.273765
C143	C	1.755660	-0.019606	1.523765
C144	C	2.005660	0.230394	1.773765
C145	C	1.255686	-0.519562	1.143817
C146	C	1.505686	-0.269562	1.393817
C147	C	1.755686	-0.019562	1.643817
C148	C	2.005686	0.230438	1.893817
H149	H	1.110988	-1.178290	0.456126
H150	H	1.360988	-0.928290	0.706126
H151	H	1.610988	-0.678290	0.956126
H152	H	1.860988	-0.428290	1.206126
F153	F	1.261627	-1.136602	0.654809
F154	F	1.511627	-0.886602	0.904809
F155	F	1.761627	-0.636602	1.154809
F156	F	2.011627	-0.386602	1.404809
H157	H	0.720223	-0.667260	0.666983
H158	H	0.970223	-0.417260	0.916983
H159	H	1.220223	-0.167260	1.166983
H160	H	1.470223	0.082740	1.416983
F161	F	0.679465	-0.475497	0.475774
F162	F	0.929465	-0.225497	0.725774
F163	F	1.179465	0.024503	0.975774
F164	F	1.429465	0.274503	1.225774
H165	H	1.299041	-0.468011	0.981992
H166	H	1.549041	-0.218011	1.231992
H167	H	1.799041	0.031989	1.481992
H168	H	2.049041	0.281989	1.731992
F169	F	1.097575	-0.954666	0.438496
F170	F	1.347575	-0.704666	0.688496
F171	F	1.597575	-0.454666	0.938496
F172	F	1.847575	-0.204666	1.188496
H173	H	1.161574	-0.631488	1.010518
H174	H	1.411574	-0.381488	1.260518
H175	H	1.661574	-0.131488	1.510518
H176	H	1.911574	0.118512	1.760518
H177	H	1.299092	-0.467942	1.191121
H178	H	1.549092	-0.217942	1.441121
H179	H	1.799092	0.032058	1.691121
H180	H	2.049092	0.282058	1.941121
F181	F	1.261588	-1.029398	0.654774
F182	F	1.511588	-0.779398	0.904774
F183	F	1.761588	-0.529398	1.154774
F184	F	2.011588	-0.279398	1.404774
F185	F	1.148279	-0.647311	1.130543
F186	F	1.398279	-0.397311	1.380543
F187	F	1.648279	-0.147311	1.630543
F188	F	1.898279	0.102689	1.880543
