data_functionalizedCrystal
_audit_creation_method	'MofGen! by Chris Wilmer'
_symmetry_space_group_name_H-M	'P1'
_symmetry_Int_Tables_number	1
_symmetry_cell_setting	triclinic
loop_
_symmetry_equiv_pos_as_xyz
  x,y,z
_cell_length_a	16.956984
_cell_length_b	16.992695
_cell_length_c	9.730223
_cell_angle_alpha	89.998169
_cell_angle_beta	89.999509
_cell_angle_gamma	83.360821
loop_
_atom_site_label
_atom_site_type_symbol
_atom_site_fract_x
_atom_site_fract_y
_atom_site_fract_z
O1	O	1.060096	0.032351	-0.114297
O2	O	0.829686	0.059766	-0.114299
O3	O	0.943967	-0.068024	-0.114287
O4	O	0.945815	0.160141	-0.114308
O5	O	0.943966	-0.068021	0.114293
O6	O	0.829684	0.059769	0.114281
O7	O	1.060095	0.032354	0.114283
Zn8	Zn	0.944890	0.046062	0.150574
Zn9	Zn	0.944891	0.046058	-0.150590
O10	O	0.945813	0.160144	0.114271
C11	C	0.800066	0.061172	-0.000009
C12	C	0.711812	0.065345	-0.000009
C13	C	0.675280	-0.004440	0.000000
C14	C	0.592355	-0.000513	-0.000010
C15	C	0.545963	0.073199	-0.000020
C16	C	0.582500	0.142990	-0.000033
C17	C	0.665424	0.139063	-0.000033
C18	C	0.297429	0.092638	-0.000031
C19	C	0.214500	0.096560	-0.000027
C20	C	0.224362	-0.046944	-0.000007
C21	C	0.307286	-0.050864	0.000002
C22	C	0.343816	0.018926	-0.000019
N23	N	0.461200	0.077214	-0.000026
N24	N	0.428577	0.014910	-0.000023
C25	C	0.941590	-0.097081	0.000003
C26	C	0.934500	-0.183666	0.000003
C27	C	1.002915	-0.238341	0.000005
C28	C	0.996247	-0.319695	-0.000008
C29	C	0.921165	-0.346373	-0.000014
C30	C	0.852745	-0.291691	-0.000020
C31	C	0.859412	-0.210338	-0.000017
C32	C	0.893529	-0.588180	-0.000033
C33	C	0.886866	-0.669539	-0.000032
C34	C	1.030370	-0.697538	-0.000023
C35	C	1.037031	-0.616182	-0.000012
C36	C	0.968611	-0.561507	-0.000025
N37	N	0.914348	-0.429530	-0.000023
N38	N	0.975428	-0.478352	-0.000026
C39	C	1.089714	0.030948	-0.000010
C40	C	1.177969	0.026774	-0.000018
C41	C	0.948191	0.189201	-0.000021
C42	C	0.955281	0.275786	-0.000030
N43	N	0.944894	0.046064	0.356111
N44	N	0.944892	0.046049	-0.356126
C45	C	0.995513	-0.010505	0.428042
C46	C	0.995510	-0.010514	0.571925
C47	C	0.894268	0.102621	0.571933
C48	C	0.894267	0.102626	0.428052
C49	C	1.053967	-0.075820	0.428039
C50	C	1.053964	-0.075830	0.571922
H51	H	0.562616	-0.057340	-0.000004
O52	O	0.332806	0.160491	-0.000231
C53	C	0.349749	0.281921	-0.118723
C54	C	0.309623	0.205110	-0.118648
H55	H	0.331034	0.318010	-0.214467
H56	H	0.330988	0.318132	-0.023133
H57	H	0.416985	0.266456	-0.118664
H58	H	0.242382	0.220505	-0.118755
H59	H	0.328448	0.168921	-0.214229
H60	H	1.112639	-0.061021	0.383411
O61	O	0.352231	-0.122534	-0.000048
C62	C	0.353258	-0.264456	0.000071
C63	C	0.302264	-0.183342	0.000082
H64	H	0.312881	-0.313640	0.000206
H65	H	0.392314	-0.269941	-0.095607
H66	H	0.392342	-0.269832	0.095714
H67	H	0.263133	-0.177911	-0.095496
H68	H	0.263261	-0.177893	0.095823
H69	H	0.695166	0.195889	-0.000034
O70	O	1.075868	-0.212468	-0.000237
C71	C	1.200575	-0.211548	-0.118624
C72	C	1.117972	-0.240885	-0.118530
H73	H	1.234646	-0.234526	-0.214239
H74	H	1.193638	-0.144011	-0.118709
H75	H	1.234616	-0.234436	-0.022922
H76	H	1.083886	-0.218055	-0.214215
H77	H	1.124965	-0.308422	-0.118373
O78	O	0.537470	0.214613	-0.000288
C79	C	0.503706	0.338482	-0.118682
C80	C	0.554734	0.257386	-0.118585
H81	H	0.517658	0.373094	-0.214300
H82	H	0.438151	0.329348	-0.118765
H83	H	0.517574	0.373062	-0.022983
H84	H	0.540936	0.222763	-0.214267
H85	H	0.620275	0.266576	-0.118430
H86	H	1.051958	-0.364210	-0.000004
O87	O	0.792874	-0.157331	0.000043
C88	C	0.649835	-0.138141	-0.000059
C89	C	0.725127	-0.198256	-0.000083
H90	H	0.595042	-0.171205	-0.000190
H91	H	0.649308	-0.099364	0.095621
H92	H	0.649419	-0.099341	-0.095700
H93	H	0.725592	-0.237108	0.095492
H94	H	0.725624	-0.236978	-0.095827
O95	O	0.826988	-0.535183	0.000033
C96	C	0.683948	-0.516005	-0.000031
C97	C	0.759245	-0.576114	-0.000081
H98	H	0.629160	-0.549074	-0.000153
H99	H	0.683427	-0.477232	0.095654
H100	H	0.683521	-0.477200	-0.095667
H101	H	0.759722	-0.614971	0.095490
H102	H	0.759737	-0.614831	-0.095829
H103	H	0.194610	-0.103763	-0.000006
H104	H	1.098171	-0.594468	-0.000007
O105	O	0.779853	-0.317700	-0.000209
C106	C	0.689026	-0.393258	-0.118672
C107	C	0.771609	-0.363875	-0.118618
H108	H	0.682328	-0.430583	-0.214409
H109	H	0.682301	-0.430697	-0.023076
H110	H	0.641287	-0.340193	-0.118608
H111	H	0.819398	-0.416893	-0.118730
H112	H	0.778266	-0.326411	-0.214206
O113	O	1.096852	-0.750617	0.000218
C114	C	1.217492	-0.799412	0.118583
C115	C	1.142220	-0.739270	0.118506
H116	H	1.254201	-0.790248	0.214193
H117	H	1.199879	-0.862159	0.118665
H118	H	1.254148	-0.790317	0.022877
H119	H	1.105530	-0.748292	0.214195
H120	H	1.159887	-0.676545	0.118351
O121	O	1.027287	-0.141922	0.624940
C122	C	0.977058	-0.266058	0.577178
C123	C	1.007258	-0.191254	0.516949
H124	H	0.960841	-0.305955	0.489897
H125	H	1.025553	-0.299359	0.643053
H126	H	0.922364	-0.248208	0.643188
H127	H	1.061938	-0.209035	0.450877
H128	H	0.958714	-0.157971	0.451152
H129	H	1.115694	-0.066920	0.610971
H130	H	0.176729	0.156589	-0.000029
H131	H	0.713048	-0.064465	0.000014
O132	O	0.845065	0.157649	0.358391
C133	C	0.744601	0.269823	0.373588
C134	C	0.800299	0.207566	0.452650
H135	H	0.708381	0.310187	0.449762
H136	H	0.781324	0.306697	0.306264
H137	H	0.702824	0.238635	0.306190
H138	H	0.842087	0.238689	0.520122
H139	H	0.763527	0.170695	0.519887
O140	O	1.033765	-0.146205	0.381284
C141	C	0.941520	-0.212573	0.248080
C142	C	0.964325	-0.132812	0.300903
H143	H	0.885367	-0.201774	0.183105
H144	H	0.991961	-0.243055	0.182899
H145	H	0.930322	-0.251950	0.339226
H146	H	0.975510	-0.093375	0.209840
H147	H	0.913871	-0.102393	0.366127
H148	H	0.853048	0.148672	0.630523
H149	H	0.825722	-0.691256	-0.000014
