data_functionalizedCrystal
_audit_creation_method	'MofGen! by Chris Wilmer'
_symmetry_space_group_name_H-M	'P1'
_symmetry_Int_Tables_number	1
_symmetry_cell_setting	triclinic
loop_
_symmetry_equiv_pos_as_xyz
  x,y,z
_cell_length_a	10.685661
_cell_length_b	17.637651
_cell_length_c	10.686551
_cell_angle_alpha	75.377812
_cell_angle_beta	80.927213
_cell_angle_gamma	96.040162
loop_
_atom_site_label
_atom_site_type_symbol
_atom_site_fract_x
_atom_site_fract_y
_atom_site_fract_z
Zn1	Zn	1.866708	-0.369047	-0.737056
Zn2	Zn	1.800765	-0.510704	-0.475232
Zn3	Zn	1.638130	-0.369083	-0.508567
Zn4	Zn	1.611504	-0.491801	-0.677808
O5	O	1.729277	-0.435159	-0.599666
O6	O	2.032827	-0.395734	-0.713169
O7	O	1.762737	-0.499845	-0.299252
O8	O	1.707192	-0.258436	-0.577623
O9	O	1.984379	-0.499809	-0.520808
O10	O	1.875127	-0.258409	-0.745493
O11	O	1.643250	-0.395796	-0.323744
O12	O	1.459731	-0.377466	-0.520173
O13	O	1.661811	-0.467591	-0.866069
O14	O	1.440169	-0.467626	-0.644513
O15	O	1.849309	-0.377404	-0.909598
O16	O	1.736918	-0.618839	-0.463358
O17	O	1.597869	-0.604950	-0.612190
C18	C	1.404608	-0.420499	-0.579532
C19	C	1.265710	-0.414245	-0.570942
C20	C	1.657385	-0.640583	-0.527758
C21	C	1.626748	-0.728468	-0.497045
C22	C	1.962873	-1.017112	-0.833442
C23	C	1.934042	-1.099692	-0.804558
C24	C	1.759263	-1.099839	-0.629603
C25	C	1.788083	-1.017258	-0.658468
C26	C	1.889888	-0.975901	-0.760390
C27	C	1.715098	-0.976046	-0.585416
C28	C	1.743911	-0.893472	-0.614284
C29	C	1.845709	-0.852108	-0.716203
C30	C	1.918701	-0.893326	-0.789258
C31	C	1.613288	-1.017405	-0.483501
C32	C	1.540303	-0.976193	-0.410448
C33	C	1.569122	-0.893617	-0.439310
C34	C	1.670920	-0.852254	-0.541229
C35	C	1.496130	-0.852400	-0.366255
C36	C	1.524943	-0.769825	-0.395123
C37	C	1.699733	-0.769679	-0.570097
C38	C	2.055212	-0.449876	-0.619879
C39	C	2.194107	-0.456148	-0.628493
C40	C	1.759946	-0.420384	-0.935918
C41	C	1.773015	-0.414088	-1.079209
C42	C	1.801485	-0.228932	-0.671885
C43	C	1.832256	-0.141051	-0.702661
C44	C	1.698819	-0.449822	-0.264746
C45	C	1.686069	-0.455906	-0.121550
H46	H	1.239072	-0.496808	-0.684342
H47	H	1.782641	-0.736006	-0.653084
O48	O	1.873900	-0.365721	-1.166664
C49	C	1.989439	-0.390034	-1.135514
H50	H	1.970290	-0.455094	-1.076697
H51	H	2.029905	-0.352508	-1.074347
C52	C	2.110369	-0.299493	-1.335808
C53	C	2.086852	-0.379402	-1.263577
H54	H	2.170461	-0.292931	-1.414802
H55	H	2.032529	-0.283110	-1.356793
H56	H	2.144084	-0.268230	-1.284821
H57	H	2.053122	-0.410662	-1.314558
H58	H	2.164688	-0.395790	-1.242604
O59	O	1.873475	-0.771884	-0.744246
C60	C	1.766318	-0.737483	-0.779486
H61	H	1.675723	-0.782825	-0.736281
H62	H	1.778458	-0.717995	-0.891410
C63	C	1.866517	-0.609293	-0.778217
C64	C	1.755245	-0.664980	-0.725142
H65	H	1.859688	-0.564568	-0.744701
H66	H	1.938713	-0.632468	-0.754480
H67	H	1.876621	-0.593062	-0.871484
H68	H	1.745151	-0.681217	-0.631878
H69	H	1.683047	-0.641806	-0.748862
H70	H	2.001610	-0.859652	-0.872244
O71	O	2.061773	-0.977049	-0.932535
C72	C	2.120043	-1.031130	-0.990805
H73	H	2.048721	-1.087514	-0.971461
H74	H	2.207643	-1.046228	-0.946515
C75	C	2.249301	-0.924393	-1.164174
C76	C	2.161699	-0.993643	-1.140425
H77	H	2.275003	-0.901269	-1.256465
H78	H	2.210048	-0.887957	-1.124914
H79	H	2.322291	-0.936984	-1.127256
H80	H	2.088706	-0.981049	-1.177327
H81	H	2.200942	-1.030076	-1.179694
H82	H	1.220754	-0.373581	-0.515110
O83	O	2.004757	-1.139755	-0.875635
C84	C	1.924436	-1.180678	-0.937676
H85	H	1.835405	-1.151038	-0.948132
H86	H	1.894677	-1.244826	-0.875656
C87	C	2.106514	-1.215170	-1.062259
C88	C	1.997169	-1.178762	-1.075111
H89	H	2.151380	-1.213992	-1.147033
H90	H	2.160629	-1.187602	-1.020457
H91	H	2.081699	-1.268623	-1.010571
H92	H	2.021987	-1.125308	-1.126783
H93	H	1.943060	-1.206321	-1.116924
H94	H	1.676371	-1.133523	-0.546621
H95	H	1.589821	-1.084641	-0.460011
H96	H	1.465510	-0.736270	-0.335637
H97	H	1.457411	-1.009877	-0.327466
O98	O	1.585437	-0.504484	-1.034048
C99	C	1.588102	-0.583091	-1.040973
H100	H	1.689877	-0.589974	-1.082864
H101	H	1.520900	-0.597346	-1.107611
C102	C	1.419308	-0.631946	-0.850480
C103	C	1.544312	-0.640402	-0.901921
H104	H	1.392291	-0.667300	-0.764708
H105	H	1.417508	-0.578988	-0.845816
H106	H	1.363322	-0.643825	-0.906024
H107	H	1.600298	-0.628514	-0.846385
H108	H	1.546120	-0.693361	-0.906571
H109	H	1.413233	-0.886085	-0.283279
