data_functionalizedCrystal
_audit_creation_method	'MofGen! by Chris Wilmer'
_symmetry_space_group_name_H-M	'P1'
_symmetry_Int_Tables_number	1
_symmetry_cell_setting	triclinic
loop_
_symmetry_equiv_pos_as_xyz
  x,y,z
_cell_length_a	16.625546
_cell_length_b	17.077404
_cell_length_c	16.625539
_cell_angle_alpha	90.016978
_cell_angle_beta	90.028532
_cell_angle_gamma	90.022693
loop_
_atom_site_label
_atom_site_type_symbol
_atom_site_fract_x
_atom_site_fract_y
_atom_site_fract_z
Zn1	Zn	-0.321010	1.200037	0.455896
Zn2	Zn	-0.071010	1.450037	0.705896
Zn3	Zn	0.178990	1.700037	0.955896
Zn4	Zn	0.428990	1.950037	1.205896
Zn5	Zn	-0.455849	1.199951	0.321058
Zn6	Zn	-0.205849	1.449951	0.571058
Zn7	Zn	0.044151	1.699951	0.821058
Zn8	Zn	0.294151	1.949951	1.071058
Zn9	Zn	-0.321035	1.068775	0.321077
Zn10	Zn	-0.071035	1.318775	0.571077
Zn11	Zn	0.178965	1.568775	0.821077
Zn12	Zn	0.428965	1.818775	1.071077
Zn13	Zn	-0.455805	1.068738	0.455848
Zn14	Zn	-0.205805	1.318738	0.705848
Zn15	Zn	0.044195	1.568738	0.955848
Zn16	Zn	0.294195	1.818738	1.205848
O17	O	-0.388425	1.134375	0.388470
O18	O	-0.138425	1.384375	0.638470
O19	O	0.111575	1.634375	0.888470
O20	O	0.361575	1.884375	1.138470
O21	O	-0.338905	1.309873	0.438022
O22	O	-0.088905	1.559873	0.688022
O23	O	0.161095	1.809873	0.938022
O24	O	0.411095	2.059873	1.188022
O25	O	-0.437994	1.182530	0.208228
O26	O	-0.187994	1.432530	0.458228
O27	O	0.062006	1.682530	0.708228
O28	O	0.312006	1.932530	0.958228
O29	O	-0.208199	1.086239	0.338988
O30	O	0.041801	1.336239	0.588988
O31	O	0.291801	1.586239	0.838988
O32	O	0.541801	1.836239	1.088988
O33	O	-0.437970	1.309810	0.338957
O34	O	-0.187970	1.559810	0.588957
O35	O	0.062030	1.809810	0.838957
O36	O	0.312030	2.059810	1.088957
O37	O	-0.208181	1.182677	0.438040
O38	O	0.041819	1.432677	0.688040
O39	O	0.291819	1.682677	0.938040
O40	O	0.541819	1.932677	1.188040
O41	O	-0.338946	1.086155	0.208242
O42	O	-0.088946	1.336155	0.458242
O43	O	0.161054	1.586155	0.708242
O44	O	0.411054	1.836155	0.958242
O45	O	-0.338904	0.958923	0.338942
O46	O	-0.088904	1.208923	0.588942
O47	O	0.161096	1.458923	0.838942
O48	O	0.411096	1.708923	1.088942
O49	O	-0.437896	1.086176	0.568687
O50	O	-0.187896	1.336176	0.818687
O51	O	0.062104	1.586176	1.068687
O52	O	0.312104	1.836176	1.318687
O53	O	-0.437919	0.958896	0.437958
O54	O	-0.187919	1.208896	0.687958
O55	O	0.062081	1.458896	0.937958
O56	O	0.312081	1.708896	1.187958
O57	O	-0.338862	1.182641	0.568722
O58	O	-0.088862	1.432641	0.818722
O59	O	0.161138	1.682641	1.068722
O60	O	0.411138	1.932641	1.318722
O61	O	-0.568676	1.182494	0.338911
O62	O	-0.318676	1.432494	0.588911
O63	O	-0.068676	1.682494	0.838911
O64	O	0.181324	1.932494	1.088911
O65	O	-0.568643	1.086092	0.437940
O66	O	-0.318643	1.336092	0.687940
O67	O	-0.068643	1.586092	0.937940
O68	O	0.181357	1.836092	1.187940
C69	C	-0.388410	0.930428	0.388448
C70	C	-0.138410	1.180428	0.638448
C71	C	0.111590	1.430428	0.888448
C72	C	0.361590	1.680428	1.138448
C73	C	-0.388423	0.843178	0.388457
C74	C	-0.138423	1.093178	0.638457
C75	C	0.111577	1.343178	0.888457
C76	C	0.361577	1.593178	1.138457
C77	C	-0.440058	0.802194	0.439932
C78	C	-0.190058	1.052194	0.689932
C79	C	0.059942	1.302194	0.939932
C80	C	0.309942	1.552194	1.189932
C81	C	-0.440060	0.720214	0.439945
C82	C	-0.190060	0.970214	0.689945
C83	C	0.059940	1.220214	0.939945
C84	C	0.309940	1.470214	1.189945
C85	C	-0.388430	0.679218	0.388478
C86	C	-0.138430	0.929218	0.638478
C87	C	0.111570	1.179218	0.888478
C88	C	0.361570	1.429218	1.138478
C89	C	-0.336789	0.720208	0.337001
C90	C	-0.086789	0.970208	0.587001
C91	C	0.163211	1.220208	0.837001
C92	C	0.413211	1.470208	1.087001
C93	C	-0.336784	0.802187	0.336993
C94	C	-0.086784	1.052187	0.586993
C95	C	0.163216	1.302187	0.836993
C96	C	0.413216	1.552187	1.086993
C97	C	-0.336805	0.549338	0.337020
C98	C	-0.086805	0.799338	0.587020
C99	C	0.163195	1.049338	0.837020
C100	C	0.413195	1.299338	1.087020
C101	C	-0.336811	0.467353	0.337027
C102	C	-0.086811	0.717353	0.587027
C103	C	0.163189	0.967353	0.837027
C104	C	0.413189	1.217353	1.087027
C105	C	-0.440081	0.467365	0.439973
C106	C	-0.190081	0.717365	0.689973
C107	C	0.059919	0.967365	0.939973
C108	C	0.309919	1.217365	1.189973
C109	C	-0.440076	0.549344	0.439964
C110	C	-0.190076	0.799344	0.689964
C111	C	0.059924	1.049344	0.939964
C112	C	0.309924	1.299344	1.189964
C113	C	-0.388436	0.590327	0.388486
C114	C	-0.138436	0.840327	0.638486
C115	C	0.111564	1.090327	0.888486
C116	C	0.361564	1.340327	1.138486
C117	C	-0.597916	1.134301	0.388436
C118	C	-0.347916	1.384301	0.638436
C119	C	-0.097916	1.634301	0.888436
C120	C	0.152084	1.884301	1.138436
C121	C	-0.687537	1.134341	0.388449
C122	C	-0.437537	1.384341	0.638449
C123	C	-0.187537	1.634341	0.888449
C124	C	0.062463	1.884341	1.138449
C125	C	-1.015712	1.134478	0.388533
C126	C	-0.765712	1.384478	0.638533
C127	C	-0.515712	1.634478	0.888533
C128	C	-0.265712	1.884478	1.138533
C129	C	-0.924404	1.134437	0.388511
C130	C	-0.674404	1.384437	0.638511
C131	C	-0.424404	1.634437	0.888511
C132	C	-0.174404	1.884437	1.138511
C133	C	-0.851627	1.134409	0.388490
C134	C	-0.601627	1.384409	0.638490
C135	C	-0.351627	1.634409	0.888490
C136	C	-0.101627	1.884409	1.138490
C137	C	-0.760313	1.134370	0.388470
C138	C	-0.510313	1.384370	0.638470
C139	C	-0.260313	1.634370	0.888470
C140	C	-0.010313	1.884370	1.138470
C141	C	-0.178116	1.134471	0.388521
C142	C	0.071884	1.384471	0.638521
C143	C	0.321884	1.634471	0.888521
C144	C	0.571884	1.884471	1.138521
C145	C	-0.088495	1.134512	0.388543
C146	C	0.161505	1.384512	0.638543
C147	C	0.411505	1.634512	0.888543
C148	C	0.661505	1.884512	1.138543
C149	C	-0.388371	1.134414	0.598779
C150	C	-0.138371	1.384414	0.848779
C151	C	0.111629	1.634414	1.098779
C152	C	0.361629	1.884414	1.348779
C153	C	-0.388349	1.134430	0.688400
C154	C	-0.138349	1.384430	0.938400
C155	C	0.111651	1.634430	1.188400
C156	C	0.361651	1.884430	1.438400
C157	C	-0.388440	1.339120	0.388493
C158	C	-0.138440	1.589120	0.638493
C159	C	0.111560	1.839120	0.888493
C160	C	0.361560	2.089120	1.138493
C161	C	-0.388446	1.426369	0.388502
C162	C	-0.138446	1.676369	0.638502
C163	C	0.111554	1.926369	0.888502
C164	C	0.361554	2.176369	1.138502
C165	C	-0.388419	1.134382	0.178979
C166	C	-0.138419	1.384382	0.428979
C167	C	0.111581	1.634382	0.678979
C168	C	0.361581	1.884382	0.928979
C169	C	-0.388215	1.134518	0.089358
C170	C	-0.138215	1.384518	0.339358
C171	C	0.111785	1.634518	0.589358
C172	C	0.361785	1.884518	0.839358
C173	C	-0.388331	1.134443	0.761182
C174	C	-0.138331	1.384443	1.011182
C175	C	0.111669	1.634443	1.261182
C176	C	0.361669	1.884443	1.511182
C177	C	-0.388301	1.134461	0.852491
C178	C	-0.138301	1.384461	1.102491
C179	C	0.111699	1.634461	1.352491
C180	C	0.361699	1.884461	1.602491
C181	C	-0.388273	1.134480	0.925267
C182	C	-0.138273	1.384480	1.175267
C183	C	0.111727	1.634480	1.425267
C184	C	0.361727	1.884480	1.675267
C185	C	-0.388243	1.134499	1.016582
C186	C	-0.138243	1.384499	1.266582
C187	C	0.111757	1.634499	1.516582
C188	C	0.361757	1.884499	1.766582
H189	H	-0.482126	0.433992	0.481891
H190	H	-0.232126	0.683992	0.731891
H191	H	0.017874	0.933992	0.981891
H192	H	0.267874	1.183992	1.231891
H193	H	-0.482122	0.582720	0.481869
H194	H	-0.232122	0.832720	0.731869
H195	H	0.017878	1.082720	0.981869
H196	H	0.267878	1.332720	1.231869
H197	H	-0.482104	0.835567	0.481840
H198	H	-0.232104	1.085567	0.731840
H199	H	0.017896	1.335567	0.981840
H200	H	0.267896	1.585567	1.231840
F201	F	-0.281864	0.423724	0.282248
F202	F	-0.031864	0.673724	0.532248
F203	F	0.218136	0.923724	0.782248
F204	F	0.468136	1.173724	1.032248
F205	F	-0.281825	0.845804	0.282208
F206	F	-0.031825	1.095804	0.532208
F207	F	0.218175	1.345804	0.782208
F208	F	0.468175	1.595804	1.032208
F209	F	-0.281843	0.592954	0.282232
F210	F	-0.031843	0.842954	0.532232
F211	F	0.218157	1.092954	0.782232
F212	F	0.468157	1.342954	1.032232
H213	H	-0.294748	0.686823	0.295099
H214	H	-0.044748	0.936823	0.545099
H215	H	0.205252	1.186823	0.795099
H216	H	0.455252	1.436823	1.045099
H217	H	-0.482107	0.686848	0.481860
H218	H	-0.232107	0.936848	0.731860
H219	H	0.017893	1.186848	0.981860
H220	H	0.267893	1.436848	1.231860
