data_functionalizedCrystal
_audit_creation_method	'MofGen! by Chris Wilmer'
_symmetry_space_group_name_H-M	'P1'
_symmetry_Int_Tables_number	1
_symmetry_cell_setting	triclinic
loop_
_symmetry_equiv_pos_as_xyz
  x,y,z
_cell_length_a	10.540539
_cell_length_b	14.971491
_cell_length_c	14.048226
_cell_angle_alpha	89.991693
_cell_angle_beta	89.995726
_cell_angle_gamma	84.070863
loop_
_atom_site_label
_atom_site_type_symbol
_atom_site_fract_x
_atom_site_fract_y
_atom_site_fract_z
O1	O	0.165454	1.187876	-0.079197
O2	O	0.665454	1.687876	0.420803
O3	O	0.185257	0.927588	-0.079189
O4	O	0.685257	1.427588	0.420811
O5	O	-0.009418	1.063671	-0.079192
O6	O	0.490582	1.563671	0.420808
O7	O	0.360129	1.051794	-0.079194
O8	O	0.860129	1.551794	0.420806
O9	O	-0.009430	1.063654	0.079129
O10	O	0.490570	1.563654	0.579129
O11	O	0.185246	0.927572	0.079132
O12	O	0.685246	1.427572	0.579132
O13	O	0.165443	1.187860	0.079124
O14	O	0.665443	1.687860	0.579124
Zn15	Zn	0.175342	1.057713	0.104265
Zn16	Zn	0.675342	1.557713	0.604265
Zn17	Zn	0.175358	1.057735	-0.104330
Zn18	Zn	0.675358	1.557735	0.395670
O19	O	0.360118	1.051777	0.079127
O20	O	0.860118	1.551777	0.579127
C21	C	0.184365	0.894251	-0.000028
C22	C	0.684365	1.394251	0.499972
C23	C	0.181707	0.794939	-0.000025
C24	C	0.681707	1.294939	0.499975
C25	C	0.170246	0.367178	-0.086348
C26	C	0.670246	0.867178	0.413652
C27	C	0.172739	0.460492	-0.086344
C28	C	0.672739	0.960492	0.413656
C29	C	0.173988	0.507136	-0.000040
C30	C	0.673988	1.007136	0.499960
C31	C	0.172730	0.460461	0.086266
C32	C	0.672730	0.960461	0.586266
C33	C	0.170228	0.367150	0.086262
C34	C	0.670228	0.867150	0.586262
C35	C	0.177949	0.654953	0.086270
C36	C	0.677949	1.154953	0.586270
C37	C	0.180454	0.748271	0.086275
C38	C	0.680454	1.248271	0.586275
C39	C	0.180460	0.748295	-0.086336
C40	C	0.680460	1.248295	0.413664
C41	C	0.177958	0.654983	-0.086341
C42	C	0.677958	1.154983	0.413659
C43	C	0.176703	0.608315	-0.000034
C44	C	0.676703	1.108315	0.499966
C45	C	-0.056717	1.062772	-0.000033
C46	C	0.443283	1.562772	0.499967
C47	C	-0.197635	1.060107	-0.000038
C48	C	0.302365	1.560107	0.499962
C49	C	-0.379905	0.957999	-0.000390
C50	C	0.120095	1.457999	0.499610
C51	C	-0.233318	0.960700	-0.000034
C52	C	0.266682	1.460700	0.499966
C53	C	-0.259840	1.107937	0.090370
C54	C	0.240160	1.607937	0.590370
C55	C	-0.406347	1.104544	0.090446
C56	C	0.093653	1.604544	0.590446
C57	C	-0.406875	1.106585	-0.089595
C58	C	0.093125	1.606585	0.410405
C59	C	-0.259903	1.107500	-0.090790
C60	C	0.240097	1.607500	0.409210
C61	C	0.407417	1.052676	-0.000034
C62	C	0.907417	1.552676	0.499966
C63	C	0.548334	1.055341	-0.000035
C64	C	1.048334	1.555341	0.499965
C65	C	0.166335	1.221198	-0.000039
C66	C	0.666335	1.721198	0.499961
C67	C	0.168993	1.320510	-0.000048
C68	C	0.668993	1.820510	0.499952
N69	N	0.175331	1.057705	0.246626
N70	N	0.675331	1.557705	0.746626
N71	N	0.175359	1.057750	-0.246691
N72	N	0.675359	1.557750	0.253309
C73	C	0.089165	1.117981	0.296443
C74	C	0.589165	1.617981	0.796443
C75	C	0.089164	1.117987	0.396100
C76	C	0.589164	1.617987	0.896100
C77	C	0.175337	1.057721	0.445939
C78	C	0.675337	1.557721	0.945939
C79	C	0.261508	0.997437	0.396116
C80	C	0.761508	1.497437	0.896116
C81	C	0.261501	0.997428	0.296460
C82	C	0.761501	1.497428	0.796460
C83	C	0.261517	0.997463	0.603830
C84	C	0.761517	1.497463	1.103830
C85	C	0.261525	0.997474	0.703493
C86	C	0.761525	1.497474	1.203493
C87	C	0.089180	1.118023	0.703470
C88	C	0.589180	1.618023	1.203470
C89	C	0.089173	1.118013	0.603815
C90	C	0.589173	1.618013	1.103815
C91	C	0.175346	1.057731	0.553998
C92	C	0.675346	1.557731	1.053998
H93	H	0.176942	0.616957	0.156550
H94	H	0.676942	1.116957	0.656550
H95	H	0.173752	0.498486	-0.156618
H96	H	0.673752	0.998486	0.343382
H97	H	-0.409675	0.918883	0.064081
H98	H	0.090325	1.418883	0.564081
F99	F	-0.178178	0.911142	0.084817
F100	F	0.321822	1.411142	0.584817
F101	F	-0.442692	1.058320	0.178780
F102	F	0.057308	1.558320	0.678780
F103	F	0.353229	0.933300	0.550815
F104	F	0.853229	1.433300	1.050815
F105	F	0.181775	0.797911	0.178129
F106	F	0.681775	1.297911	0.678129
F107	F	-0.177065	0.911507	-0.084742
F108	F	0.322935	1.411507	0.415258
F109	F	0.174055	0.510106	0.178118
F110	F	0.674055	1.010106	0.678118
H111	H	0.019000	1.167068	0.436661
H112	H	0.519000	1.667068	0.936661
F113	F	0.353215	0.933292	0.449159
F114	F	0.853215	1.433292	0.949159
F115	F	0.168885	0.317483	0.178114
F116	F	0.668885	0.817483	0.678114
H117	H	-0.236502	1.179976	-0.096252
H118	H	0.263498	1.679976	0.403748
H119	H	0.018998	1.167061	0.255870
H120	H	0.518998	1.667061	0.755870
H121	H	-0.408056	0.918737	-0.065223
H122	H	0.091944	1.418737	0.434777
H123	H	0.331665	0.948343	0.255900
H124	H	0.831665	1.448343	0.755900
H125	H	0.019011	1.167091	0.563236
H126	H	0.519011	1.667091	1.063236
F127	F	0.353241	0.933328	0.756528
F128	F	0.853241	1.433328	1.256528
F129	F	0.168927	0.317543	-0.178206
F130	F	0.668927	0.817543	0.321794
F131	F	0.176640	0.605342	-0.178195
F132	F	0.676640	1.105342	0.321805
F133	F	-0.205383	1.062116	-0.178222
F134	F	0.294617	1.562116	0.321778
H135	H	-0.455125	1.176036	0.094545
H136	H	0.044875	1.676036	0.594545
F137	F	0.181808	0.797962	-0.178191
F138	F	0.681808	1.297962	0.321809
H139	H	-0.238313	1.180938	0.093729
H140	H	0.261687	1.680938	0.593729
F141	F	-0.002529	1.182180	0.756493
F142	F	0.497471	1.682180	1.256493
H143	H	-0.438058	1.074419	-0.158118
H144	H	0.061942	1.574419	0.341882
F145	F	-0.203679	1.064492	0.178312
F146	F	0.296321	1.564492	0.678312
H147	H	-0.454913	1.178386	-0.090205
H148	H	0.045087	1.678386	0.409795
