data_functionalizedCrystal
_audit_creation_method	'MofGen! by Chris Wilmer'
_symmetry_space_group_name_H-M	'P1'
_symmetry_Int_Tables_number	1
_symmetry_cell_setting	triclinic
loop_
_symmetry_equiv_pos_as_xyz
  x,y,z
_cell_length_a	23.532355
_cell_length_b	14.519709
_cell_length_c	13.596369
_cell_angle_alpha	90.006934
_cell_angle_beta	90.000488
_cell_angle_gamma	96.746178
loop_
_atom_site_label
_atom_site_type_symbol
_atom_site_fract_x
_atom_site_fract_y
_atom_site_fract_z
O1	O	0.755783	-0.111723	-0.081660
O2	O	0.589989	-0.127971	-0.081691
O3	O	0.677282	0.014445	-0.081666
O4	O	0.668490	-0.254139	-0.081685
O5	O	0.677273	0.014452	0.081917
O6	O	0.589980	-0.127964	0.081892
O7	O	0.755775	-0.111715	0.081923
Zn8	Zn	0.672876	-0.119838	0.107880
Zn9	Zn	0.672888	-0.119848	-0.107648
O10	O	0.668482	-0.254131	0.081898
C11	C	0.568766	-0.127561	0.000096
C12	C	0.505542	-0.126340	0.000084
C13	C	0.113489	-0.118664	0.089295
C14	C	0.054084	-0.117502	0.089299
O15	O	0.023359	-0.116866	0.165133
N16	N	0.024378	-0.116930	0.000130
C17	C	0.054080	-0.117510	-0.089048
O18	O	0.023358	-0.116916	-0.164893
C19	C	0.113484	-0.118665	-0.089051
C20	C	0.143187	-0.119247	0.000124
C21	C	0.143192	-0.119244	0.178462
C22	C	0.202592	-0.120407	0.178458
C23	C	0.232290	-0.120990	0.089287
C24	C	0.202587	-0.120410	0.000119
C25	C	0.143186	-0.119239	-0.178228
C26	C	0.202594	-0.120394	-0.178223
C27	C	0.232297	-0.120975	-0.089049
C28	C	0.291685	-0.122157	-0.089056
N29	N	0.321392	-0.122729	0.000112
C30	C	0.291694	-0.122146	0.089284
C31	C	-0.070672	-0.115083	-0.089035
C32	C	-0.130076	-0.113934	-0.089033
C33	C	-0.130067	-0.113924	0.089314
C34	C	-0.070663	-0.115079	0.089311
C35	C	-0.040966	-0.115655	0.000133
C36	C	0.416439	-0.124590	0.089268
C37	C	0.475844	-0.125757	0.089256
C38	C	0.475831	-0.125762	-0.089091
C39	C	0.416431	-0.124600	-0.089079
C40	C	0.386736	-0.124010	0.000108
O41	O	0.322449	-0.122789	-0.164852
O42	O	0.322424	-0.122728	0.165116
C43	C	0.676868	0.048803	0.000126
C44	C	0.675640	0.151170	0.000126
C45	C	0.776997	-0.112125	0.000133
C46	C	0.840222	-0.113346	0.000139
C47	C	0.668896	-0.288490	0.000104
C48	C	0.670124	-0.390856	0.000097
N49	N	0.672872	-0.119831	0.254971
C50	C	0.671120	0.526011	0.000100
C51	C	0.672375	0.421718	0.000107
C52	C	0.673380	0.338594	0.000114
C53	C	0.674635	0.234294	0.000120
N54	N	0.672896	-0.119848	-0.254740
C55	C	0.672887	-0.119849	0.656262
C56	C	0.672881	-0.119847	0.544611
C57	C	0.672880	-0.119841	0.455621
C58	C	0.672874	-0.119837	0.343962
H59	H	0.392268	-0.124118	0.161893
C60	C	0.235257	-0.121030	-0.276329
N61	N	0.259858	-0.121512	-0.350222
C62	C	0.110532	-0.118615	0.276567
N63	N	0.085937	-0.118153	0.350466
C64	C	-0.037995	-0.115710	0.187409
N65	N	-0.013393	-0.116181	0.261301
H66	H	-0.154256	-0.113476	-0.161648
C67	C	-0.038011	-0.115727	-0.187144
N68	N	-0.013414	-0.116211	-0.261040
H69	H	0.119012	-0.118765	-0.250844
C70	C	0.508511	-0.126397	-0.187175
N71	N	0.533127	-0.126867	-0.261052
C72	C	-0.162746	-0.113273	0.187405
N73	N	-0.187360	-0.112781	0.261283
H74	H	0.500025	-0.126233	0.161876
C75	C	0.383756	-0.123971	-0.187175
N76	N	0.359150	-0.123489	-0.261063
C77	C	0.235258	-0.121033	0.276558
N78	N	0.259859	-0.121499	0.350452
