data_functionalizedCrystal
_audit_creation_method	'MofGen! by Chris Wilmer'
_symmetry_space_group_name_H-M	'P1'
_symmetry_Int_Tables_number	1
_symmetry_cell_setting	triclinic
loop_
_symmetry_equiv_pos_as_xyz
  x,y,z
_cell_length_a	14.853566
_cell_length_b	14.853559
_cell_length_c	13.930277
_cell_angle_alpha	89.997639
_cell_angle_beta	89.995631
_cell_angle_gamma	83.632934
loop_
_atom_site_label
_atom_site_type_symbol
_atom_site_fract_x
_atom_site_fract_y
_atom_site_fract_z
O1	O	1.196365	0.117699	-0.079763
O2	O	1.696365	0.617699	0.420237
O3	O	0.933905	0.131721	-0.079778
O4	O	1.433905	0.631721	0.420222
O5	O	1.072150	-0.006520	-0.079769
O6	O	1.572150	0.493480	0.420231
O7	O	1.058121	0.255940	-0.079772
O8	O	1.558121	0.755940	0.420228
O9	O	1.072131	-0.006523	0.079893
O10	O	1.572131	0.493477	0.579893
O11	O	0.933886	0.131718	0.079884
O12	O	1.433886	0.631718	0.579884
O13	O	1.196346	0.117696	0.079899
O14	O	1.696346	0.617696	0.579899
Zn15	Zn	1.065113	0.124706	0.105241
Zn16	Zn	1.565113	0.624706	0.605241
Zn17	Zn	1.065138	0.124710	-0.105120
Zn18	Zn	1.565138	0.624710	0.394880
O19	O	1.058102	0.255937	0.079890
O20	O	1.558102	0.755937	0.579890
C21	C	0.900307	0.131085	0.000051
C22	C	1.400307	0.631085	0.500051
C23	C	0.800223	0.129181	0.000045
C24	C	1.300223	0.629181	0.500045
C25	C	0.377049	0.121132	-0.086970
C26	C	0.877049	0.621132	0.413030
C27	C	0.377050	0.121129	0.087100
C28	C	0.877050	0.621129	0.587100
C29	C	0.471084	0.122917	0.087097
C30	C	0.971084	0.622917	0.587097
C31	C	0.518105	0.123813	0.000059
C32	C	1.018105	0.623813	0.500059
C33	C	0.471092	0.122922	-0.086975
C34	C	0.971092	0.622922	0.413025
C35	C	0.518103	0.123817	0.174130
C36	C	1.018103	0.623817	0.674130
C37	C	0.612142	0.125606	0.174130
C38	C	1.112142	0.625606	0.674130
C39	C	0.659166	0.126496	0.087092
C40	C	1.159166	0.626496	0.587092
C41	C	0.612147	0.125604	0.000054
C42	C	1.112147	0.625604	0.500054
C43	C	0.659168	0.126500	-0.086984
C44	C	1.159168	0.626500	0.413016
C45	C	0.612152	0.125601	-0.174023
C46	C	1.112152	0.625601	0.325977
C47	C	0.518115	0.123812	-0.174014
C48	C	1.018115	0.623812	0.325986
C49	C	0.753202	0.128285	0.087083
C50	C	1.253202	0.628285	0.587083
C51	C	0.753210	0.128290	-0.086990
C52	C	1.253210	0.628290	0.413010
C53	C	1.071506	-0.040111	0.000060
C54	C	1.571506	0.459889	0.500060
C55	C	1.069605	-0.140195	0.000055
C56	C	1.569605	0.359805	0.500055
C57	C	1.061552	-0.563368	-0.086978
C58	C	1.561552	-0.063368	0.413022
C59	C	1.061531	-0.563366	0.087092
C60	C	1.561531	-0.063366	0.587092
C61	C	1.063324	-0.469333	0.087093
C62	C	1.563324	0.030667	0.587093
C63	C	1.064230	-0.422313	0.000057
C64	C	1.564230	0.077687	0.500057
C65	C	1.063343	-0.469326	-0.086979
C66	C	1.563343	0.030674	0.413021
C67	C	1.064203	-0.422312	0.174128
C68	C	1.564203	0.077688	0.674128
C69	C	1.065995	-0.328272	0.174132
C70	C	1.565995	0.171728	0.674132
C71	C	1.066908	-0.281251	0.087096
C72	C	1.566908	0.218749	0.587096
C73	C	1.066021	-0.328270	0.000056
C74	C	1.566021	0.171730	0.500056
C75	C	1.066927	-0.281250	-0.086980
C76	C	1.566927	0.218750	0.413020
C77	C	1.066047	-0.328268	-0.174021
C78	C	1.566047	0.171732	0.325979
C79	C	1.064255	-0.422305	-0.174016
C80	C	1.564255	0.077695	0.325984
C81	C	1.068700	-0.187215	0.087090
C82	C	1.568700	0.312785	0.587090
C83	C	1.068718	-0.187208	-0.086982
C84	C	1.568718	0.312792	0.413018
C85	C	1.229945	0.118332	0.000068
C86	C	1.729945	0.618332	0.500068
C87	C	1.330028	0.120236	0.000068
C88	C	1.830028	0.620236	0.500068
C89	C	1.058745	0.289528	0.000059
C90	C	1.558745	0.789528	0.500059
C91	C	1.060646	0.389612	0.000058
C92	C	1.560646	0.889612	0.500058
N93	N	1.065102	0.124703	0.248807
N94	N	1.565102	0.624703	0.748807
N95	N	1.065156	0.124706	-0.248686
N96	N	1.565156	0.624706	0.251314
C97	C	1.003921	0.185900	0.701073
C98	C	1.503921	0.685900	1.201073
C99	C	1.126380	0.063514	0.701050
C100	C	1.626380	0.563514	1.201050
C101	C	1.126370	0.063511	0.600554
C102	C	1.626370	0.563511	1.100554
C103	C	1.065135	0.124704	0.550313
C104	C	1.565135	0.624704	1.050313
C105	C	1.003911	0.185901	0.600568
C106	C	1.503911	0.685901	1.100568
C107	C	1.187599	0.002322	0.550292
C108	C	1.687599	0.502322	1.050292
C109	C	1.187591	0.002318	0.449790
C110	C	1.687591	0.502318	0.949790
C111	C	1.126351	0.063507	0.399547
C112	C	1.626351	0.563507	0.899547
C113	C	1.065124	0.124705	0.449808
C114	C	1.565124	0.624705	0.949808
C115	C	1.003889	0.185898	0.399567
C116	C	1.503889	0.685898	0.899567
C117	C	0.942657	0.247093	0.449826
C118	C	1.442657	0.747093	0.949826
C119	C	0.942670	0.247090	0.550325
C120	C	1.442670	0.747090	1.050325
C121	C	1.126337	0.063510	0.299049
C122	C	1.626337	0.563510	0.799049
C123	C	1.003878	0.185899	0.299062
C124	C	1.503878	0.685899	0.799062
H125	H	0.791478	0.129025	0.157948
H126	H	1.291478	0.629025	0.657948
H127	H	0.650415	0.126335	0.245003
H128	H	1.150415	0.626335	0.745003
Br129	Br	1.069958	-0.123403	-0.205108
Br130	Br	1.569958	0.376597	0.294892
H131	H	1.063460	-0.460602	0.244987
H132	H	1.563460	0.039398	0.744987
H133	H	1.066778	-0.289972	-0.244886
H134	H	1.566778	0.210028	0.255114
H135	H	1.063538	-0.460595	-0.244880
H136	H	1.563538	0.039405	0.255120
H137	H	0.892802	0.296921	0.408908
H138	H	1.392802	0.796921	0.908908
H139	H	0.338765	0.120397	-0.157835
H140	H	0.838765	0.620397	0.342165
H141	H	0.954010	0.235727	0.258162
H142	H	1.454010	0.735727	0.758162
Br143	Br	0.817019	0.129496	-0.205119
Br144	Br	1.317019	0.629496	0.294881
Br145	Br	1.067183	-0.264469	0.292256
Br146	Br	1.567183	0.235531	0.792256
H147	H	0.892818	0.296913	0.591252
H148	H	1.392818	0.796913	1.091252
Br149	Br	1.209491	-0.019523	0.769231
Br150	Br	1.709491	0.480477	1.269231
H151	H	0.338759	0.120406	0.157962
H152	H	0.838759	0.620406	0.657962
H153	H	1.237459	-0.047495	0.591202
H154	H	1.737459	0.452505	1.091202
H155	H	1.060839	-0.601655	-0.157844
H156	H	1.560839	-0.101655	0.342156
H157	H	0.479810	0.123093	0.244991
H158	H	0.979810	0.623093	0.744991
Br159	Br	1.069889	-0.123407	0.205207
Br160	Br	1.569889	0.376593	0.705207
Br161	Br	0.675976	0.126828	-0.292141
Br162	Br	1.175976	0.626828	0.207859
H163	H	1.060788	-0.601655	0.157952
H164	H	1.560788	-0.101655	0.657952
H165	H	0.954064	0.235721	0.741996
H166	H	1.454064	0.735721	1.241996
H167	H	1.176196	0.013691	0.258132
H168	H	1.676196	0.513691	0.758132
Br169	Br	0.454308	0.122552	-0.292127
Br170	Br	0.954308	0.622552	0.207873
Br171	Br	1.270688	-0.080730	0.381588
Br172	Br	1.770688	0.419270	0.881588
