data_functionalizedCrystal
_audit_creation_method	'MofGen! by Chris Wilmer'
_symmetry_space_group_name_H-M	'P1'
_symmetry_Int_Tables_number	1
_symmetry_cell_setting	triclinic
loop_
_symmetry_equiv_pos_as_xyz
  x,y,z
_cell_length_a	8.559649
_cell_length_b	10.654550
_cell_length_c	7.088638
_cell_angle_alpha	96.272179
_cell_angle_beta	84.666224
_cell_angle_gamma	77.131797
loop_
_atom_site_label
_atom_site_type_symbol
_atom_site_fract_x
_atom_site_fract_y
_atom_site_fract_z
O1	O	-2.135895	0.057026	0.158961
O2	O	-1.671410	-0.007760	0.158972
O3	O	-1.914330	0.208474	0.158955
O4	O	-1.892974	-0.159208	0.158979
O5	O	-1.881826	0.179536	-0.159033
O6	O	-1.638905	-0.036698	-0.159015
O7	O	-2.103390	0.028088	-0.159026
Cu8	Cu	-1.868180	-0.006948	-0.188056
Cu9	Cu	-1.906620	0.027275	0.188002
O10	O	-1.860470	-0.188147	-0.159008
C11	C	-1.595682	-0.027139	-0.000020
C12	C	-1.418465	-0.041753	-0.000016
C13	C	-2.179118	0.047467	-0.000029
C14	C	-2.356337	0.062082	-0.000021
C15	C	-1.896510	0.240641	-0.000038
C16	C	-1.891818	0.379600	-0.000035
C17	C	-1.878290	-0.220313	-0.000012
C18	C	-1.882984	-0.359271	-0.000002
N19	N	-1.841155	-0.031016	-0.452554
C20	C	-2.034847	0.473860	-0.000038
C21	C	-2.030431	0.604427	-0.000014
C22	C	-1.739945	0.546458	0.000006
C23	C	-1.744364	0.415896	-0.000003
N24	N	-1.933658	0.051355	0.452500
H25	H	-1.336070	-0.141836	0.000000
H26	H	-2.154914	0.444314	-0.000059
H27	H	-2.029484	0.136711	-0.465807
H28	H	-1.745323	-0.116358	-0.534237
H29	H	-1.438725	0.162160	-0.000018
H30	H	-2.146900	0.681171	-0.000012
H31	H	-1.619891	0.576027	0.000028
H32	H	-1.627886	0.339143	0.000004
