data_functionalizedCrystal
_audit_creation_method	'MofGen! by Chris Wilmer'
_symmetry_space_group_name_H-M	'P1'
_symmetry_Int_Tables_number	1
_symmetry_cell_setting	triclinic
loop_
_symmetry_equiv_pos_as_xyz
  x,y,z
_cell_length_a	12.759401
_cell_length_b	18.215405
_cell_length_c	12.759393
_cell_angle_alpha	90.036495
_cell_angle_beta	90.019596
_cell_angle_gamma	90.025162
loop_
_atom_site_label
_atom_site_type_symbol
_atom_site_fract_x
_atom_site_fract_y
_atom_site_fract_z
Zn1	Zn	1.606192	-0.292943	0.593939
Zn2	Zn	1.606052	-0.416027	0.418240
Zn3	Zn	1.430491	-0.292980	0.418278
Zn4	Zn	1.430451	-0.415973	0.593882
O5	O	1.518296	-0.354481	0.506085
O6	O	1.753194	-0.309278	0.570640
O7	O	1.582721	-0.399743	0.271224
O8	O	1.453873	-0.189991	0.441619
O9	O	1.753091	-0.399707	0.441555
O10	O	1.582960	-0.189964	0.570676
O11	O	1.453737	-0.309340	0.271252
O12	O	1.283464	-0.309288	0.441564
O13	O	1.453806	-0.399615	0.740910
O14	O	1.283436	-0.399650	0.570579
O15	O	1.582922	-0.309226	0.740952
O16	O	1.582683	-0.519004	0.441500
O17	O	1.453670	-0.518965	0.570543
C18	C	1.245329	-0.354468	0.506070
C19	C	1.128552	-0.354480	0.506089
C20	C	0.963972	-0.401614	0.573169
C21	C	1.073696	-0.401606	0.573158
C22	C	1.073679	-0.307364	0.439019
C23	C	0.963957	-0.307376	0.439026
C24	C	1.518186	-0.545687	0.506034
C25	C	1.518234	-0.627486	0.506048
C26	C	1.585569	-0.815676	0.438979
C27	C	1.585616	-0.892535	0.439004
C28	C	1.451158	-0.892533	0.573266
C29	C	1.451118	-0.815676	0.573245
C30	C	1.518321	-0.777249	0.506096
C31	C	1.518409	-0.930966	0.506142
C32	C	1.518460	-1.014299	0.506170
C33	C	1.518272	-0.693911	0.506069
C34	C	1.792330	-0.354495	0.506100
C35	C	1.909106	-0.354500	0.506106
C36	C	1.518375	-0.354410	0.780118
C37	C	1.518409	-0.354380	0.896895
C38	C	1.518436	-0.162528	0.506158
C39	C	1.518496	-0.080729	0.506190
C40	C	1.518279	-0.354498	0.233117
C41	C	1.518449	-0.354321	0.116341
C42	C	1.585644	-0.307307	0.951780
C43	C	1.585662	-0.307275	1.061504
C44	C	1.451206	-0.401396	1.061448
C45	C	1.451183	-0.401424	0.951726
H46	H	1.640292	-0.784391	0.384303
H47	H	1.396442	-0.923830	0.627936
H48	H	1.396356	-0.784387	0.627905
H49	H	1.640381	-0.268999	0.907140
H50	H	0.919315	-0.439986	0.627790
H51	H	1.640410	-0.268942	1.106187
H52	H	1.396476	-0.439699	1.106105
C53	C	1.378142	-0.452617	0.892317
C54	C	1.319300	-0.493829	0.963817
C55	C	1.252016	-0.540998	0.909128
H56	H	1.332286	-0.424554	0.849515
H57	H	1.418278	-0.484734	0.849529
H58	H	1.279168	-0.461716	1.006587
H59	H	1.365128	-0.521907	1.006621
H60	H	1.292151	-0.573115	0.866340
H61	H	1.206167	-0.512929	0.866328
H62	H	1.212090	-0.568971	0.957632
H63	H	1.118363	-0.439972	0.627766
H64	H	1.118352	-0.268996	0.384406
C65	C	1.658666	-0.934123	0.366015
C66	C	1.717489	-0.884017	0.307190
C67	C	1.784787	-0.922300	0.239931
H68	H	1.704533	-0.964056	0.406136
H69	H	1.618541	-0.964140	0.320156
H70	H	1.757611	-0.854012	0.353044
H71	H	1.671649	-0.854081	0.267049
H72	H	1.744662	-0.952317	0.194071
H73	H	1.830647	-0.952232	0.280060
H74	H	1.824699	-0.888309	0.200003
H75	H	0.919285	-0.269009	0.384410
