data_functionalizedCrystal
_audit_creation_method	'MofGen! by Chris Wilmer'
_symmetry_space_group_name_H-M	'P1'
_symmetry_Int_Tables_number	1
_symmetry_cell_setting	triclinic
loop_
_symmetry_equiv_pos_as_xyz
  x,y,z
_cell_length_a	14.853567
_cell_length_b	10.268362
_cell_length_c	14.853567
_cell_angle_alpha	89.998511
_cell_angle_beta	96.365070
_cell_angle_gamma	90.001612
loop_
_atom_site_label
_atom_site_type_symbol
_atom_site_fract_x
_atom_site_fract_y
_atom_site_fract_z
O1	O	1.196365	0.108199	-0.117705
O2	O	0.933905	0.108220	-0.131726
O3	O	1.072146	0.108213	0.006514
O4	O	1.058124	0.108206	-0.255945
O5	O	1.072134	-0.108388	0.006520
O6	O	0.933893	-0.108380	-0.131721
O7	O	1.196353	-0.108401	-0.117699
Cu8	Cu	1.065122	-0.128168	-0.124709
Cu9	Cu	1.065136	0.127987	-0.124716
O10	O	1.058112	-0.108394	-0.255940
C11	C	0.900311	-0.000077	-0.131088
C12	C	0.800227	-0.000069	-0.129184
C13	C	0.387693	-0.000096	-0.039019
C14	C	0.366412	-0.000099	-0.203251
C15	C	0.460446	-0.000094	-0.205041
C16	C	0.518108	-0.000089	-0.123819
C17	C	0.481736	-0.000088	-0.040806
C18	C	0.496825	-0.000083	-0.288053
C19	C	0.590864	-0.000077	-0.289846
C20	C	0.648528	-0.000081	-0.208623
C21	C	0.612150	-0.000081	-0.125607
C22	C	0.669812	-0.000075	-0.044384
C23	C	0.633437	-0.000085	0.038633
C24	C	0.539399	-0.000091	0.040417
C25	C	0.742565	-0.000074	-0.210407
C26	C	0.763855	-0.000067	-0.046172
N27	N	1.065118	-0.308334	-0.124704
C28	C	1.065132	-0.574005	-0.124714
C29	C	1.065121	-0.426167	-0.124711
C30	C	1.229947	-0.000101	-0.118337
C31	C	1.330031	-0.000101	-0.120241
C32	C	1.071504	-0.000083	0.040106
C33	C	1.069601	-0.000072	0.140189
N34	N	1.065147	0.308153	-0.124714
C35	C	1.058754	-0.000095	-0.289531
C36	C	1.060657	-0.000098	-0.389615
C37	C	0.979435	-0.000090	0.552723
C38	C	1.143668	-0.000103	0.574004
C39	C	1.145458	-0.000095	0.479971
C40	C	1.064235	-0.000087	0.422309
C41	C	0.981223	-0.000086	0.458680
C42	C	1.228469	-0.000109	0.443591
C43	C	1.230262	-0.000103	0.349552
C44	C	1.149039	-0.000085	0.291889
C45	C	1.066023	-0.000083	0.328266
C46	C	0.984800	-0.000075	0.270604
C47	C	0.901783	-0.000063	0.306979
C48	C	0.899999	-0.000068	0.401017
C49	C	1.150823	-0.000080	0.197851
C50	C	0.986588	-0.000071	0.176561
H51	H	0.358072	-0.000108	0.028572
H52	H	0.319459	-0.000092	-0.269379
H53	H	0.772178	-0.000069	-0.277998
H54	H	0.449870	-0.000074	-0.354180
H55	H	0.680397	-0.000071	0.104764
C56	C	1.317807	-0.000117	0.507014
H57	H	1.367503	-0.000135	0.471884
H58	H	1.320527	0.075417	0.544138
H59	H	1.320515	-0.075659	0.544141
H60	H	0.920445	-0.000059	0.129618
C61	C	0.630874	-0.000073	-0.381157
H62	H	0.695138	-0.000061	-0.370591
H63	H	0.611089	-0.075605	-0.414604
H64	H	0.611090	0.075472	-0.414602
C65	C	0.827280	-0.000063	0.043173
H66	H	0.888496	-0.000062	0.030222
H67	H	0.816237	0.075466	0.077208
H68	H	0.816245	-0.075611	0.077203
C69	C	0.812444	-0.000052	0.243546
H70	H	0.825404	-0.000047	0.182333
H71	H	0.778400	-0.075578	0.254582
H72	H	0.778419	0.075499	0.254578
H73	H	1.209795	-0.000120	0.620958
H74	H	0.832411	-0.000060	0.430643
C75	C	0.888123	-0.000082	0.592731
H76	H	0.898687	-0.000092	0.656995
H77	H	0.854679	0.075451	0.572944
H78	H	0.854676	-0.075625	0.572947
H79	H	0.509774	-0.000130	0.108005
H80	H	1.297860	-0.000111	0.319944
C81	C	1.242129	-0.000096	0.157841
H82	H	1.290246	-0.000100	0.205650
H83	H	1.246232	-0.075626	0.121595
H84	H	1.246248	0.075450	0.121604
