data_functionalizedCrystal
_audit_creation_method	'MofGen! by Chris Wilmer'
_symmetry_space_group_name_H-M	'P1'
_symmetry_Int_Tables_number	1
_symmetry_cell_setting	triclinic
loop_
_symmetry_equiv_pos_as_xyz
  x,y,z
_cell_length_a	19.805407
_cell_length_b	19.805405
_cell_length_c	19.805399
_cell_angle_alpha	89.969291
_cell_angle_beta	89.984884
_cell_angle_gamma	90.023727
loop_
_atom_site_label
_atom_site_type_symbol
_atom_site_fract_x
_atom_site_fract_y
_atom_site_fract_z
Zn1	Zn	1.034718	-0.269518	-0.382680
Zn2	Zn	1.368051	0.063815	-0.049346
Zn3	Zn	1.701384	0.397149	0.283987
Zn4	Zn	1.034638	-0.382709	-0.269488
Zn5	Zn	1.367971	-0.049376	0.063845
Zn6	Zn	1.701305	0.283958	0.397179
Zn7	Zn	0.921538	-0.269534	-0.269508
Zn8	Zn	1.254871	0.063799	0.063826
Zn9	Zn	1.588204	0.397133	0.397159
Zn10	Zn	0.921496	-0.382665	-0.382638
Zn11	Zn	1.254829	-0.049332	-0.049305
Zn12	Zn	1.588163	0.284002	0.284029
O13	O	0.978097	-0.326107	-0.326078
O14	O	1.311431	0.007227	0.007255
O15	O	1.644764	0.340560	0.340588
O16	O	1.129424	-0.284545	-0.367674
O17	O	1.462757	0.048789	-0.034340
O18	O	1.796090	0.382122	0.298993
O19	O	1.019619	-0.367721	-0.174774
O20	O	1.352952	-0.034388	0.158559
O21	O	1.686286	0.298945	0.491893
O22	O	0.936602	-0.174815	-0.284546
O23	O	1.269935	0.158518	0.048788
O24	O	1.603269	0.491851	0.382121
O25	O	1.129365	-0.367706	-0.284512
O26	O	1.462698	-0.034372	0.048821
O27	O	1.796032	0.298961	0.382155
O28	O	1.019755	-0.174804	-0.367693
O29	O	1.353088	0.158530	-0.034359
O30	O	1.686422	0.491863	0.298974
O31	O	0.936525	-0.284572	-0.174788
O32	O	1.269858	0.048761	0.158545
O33	O	1.603191	0.382094	0.491878
O34	O	0.826816	-0.284529	-0.284506
O35	O	1.160149	0.048804	0.048828
O36	O	1.493482	0.382137	0.382161
O37	O	0.936531	-0.367631	-0.477360
O38	O	1.269864	-0.034297	-0.144027
O39	O	1.603198	0.299036	0.189306
O40	O	0.826785	-0.367646	-0.367622
O41	O	1.160118	-0.034313	-0.034289
O42	O	1.493452	0.299020	0.299045
O43	O	1.019715	-0.284502	-0.477391
O44	O	1.353048	0.048831	-0.144057
O45	O	1.686381	0.382165	0.189276
O46	O	1.019578	-0.477420	-0.284472
O47	O	1.352912	-0.144087	0.048861
O48	O	1.686245	0.189247	0.382195
O49	O	0.936453	-0.477387	-0.367603
O50	O	1.269787	-0.144054	-0.034270
O51	O	1.603120	0.189279	0.299064
C52	C	0.802241	-0.326085	-0.326062
C53	C	1.135575	0.007248	0.007271
C54	C	1.468908	0.340581	0.340605
C55	C	0.727009	-0.326093	-0.326071
C56	C	1.060343	0.007241	0.007262
C57	C	1.393676	0.340574	0.340596
C58	C	0.691696	-0.282867	-0.369439
C59	C	1.025030	0.050466	-0.036106
C60	C	1.358363	0.383799	0.297228
C61	C	0.621008	-0.282871	-0.369442
C62	C	0.954341	0.050463	-0.036108
C63	C	1.287675	0.383796	0.297225
C64	C	0.585634	-0.326104	-0.326079
C65	C	0.918967	0.007230	0.007254
C66	C	1.252300	0.340563	0.340588
C67	C	0.620952	-0.369331	-0.282706
C68	C	0.954285	-0.035998	0.050627
C69	C	1.287618	0.297336	0.383960
C70	C	0.691639	-0.369323	-0.282701
C71	C	1.024972	-0.035990	0.050633
C72	C	1.358305	0.297343	0.383966
C73	C	0.335878	-0.369361	-0.282727
C74	C	0.669212	-0.036028	0.050606
C75	C	1.002545	0.297305	0.383940
C76	C	0.265186	-0.369367	-0.282737
C77	C	0.598520	-0.036034	0.050596
C78	C	0.931853	0.297300	0.383929
C79	C	0.265247	-0.282909	-0.369468
C80	C	0.598581	0.050425	-0.036134
C81	C	0.931914	0.383758	0.297199
C82	C	0.335935	-0.282901	-0.369462
C83	C	0.669268	0.050432	-0.036129
C84	C	1.002601	0.383765	0.297204
C85	C	0.371246	-0.326126	-0.326087
C86	C	0.704580	0.007208	0.007246
C87	C	1.037913	0.340541	0.340579
C88	C	0.447895	-0.326120	-0.326084
C89	C	0.781228	0.007213	0.007249
C90	C	1.114561	0.340546	0.340583
C91	C	0.508987	-0.326113	-0.326085
C92	C	0.842320	0.007221	0.007248
C93	C	1.175653	0.340554	0.340581
C94	C	0.978021	-0.501963	-0.326046
C95	C	1.311354	-0.168629	0.007288
C96	C	1.644688	0.164704	0.340621
C97	C	0.978050	-0.577195	-0.326054
C98	C	1.311384	-0.243861	0.007279
C99	C	1.644717	0.089472	0.340612
C100	C	1.021376	-0.612533	-0.282813
C101	C	1.354709	-0.279200	0.050520
C102	C	1.688042	0.054134	0.383853
C103	C	1.021404	-0.683222	-0.282828
C104	C	1.354738	-0.349888	0.050505
C105	C	1.688071	-0.016555	0.383838
C106	C	0.978104	-0.718570	-0.326081
C107	C	1.311437	-0.385237	0.007252
C108	C	1.644771	-0.051903	0.340585
C109	C	0.934777	-0.683227	-0.369327
C110	C	1.268110	-0.349893	-0.035994
C111	C	1.601444	-0.016560	0.297340
C112	C	0.934752	-0.612540	-0.369315
C113	C	1.268085	-0.279206	-0.035982
C114	C	1.601419	0.054127	0.297352
C115	C	0.934877	-0.968300	-0.369377
C116	C	1.268210	-0.634967	-0.036044
C117	C	1.601543	-0.301633	0.297290
C118	C	0.934903	-1.038992	-0.369384
C119	C	1.268237	-0.705659	-0.036051
C120	C	1.601570	-0.372325	0.297282
C121	C	1.021529	-1.038982	-0.282890
C122	C	1.354862	-0.705649	0.050443
C123	C	1.688196	-0.372315	0.383776
C124	C	1.021504	-0.968295	-0.282878
C125	C	1.354838	-0.634961	0.050455
C126	C	1.688171	-0.301628	0.383788
C127	C	0.978180	-0.932957	-0.326126
C128	C	1.311513	-0.599624	0.007207
C129	C	1.644847	-0.266291	0.340540
C130	C	0.978150	-0.856309	-0.326110
C131	C	1.311484	-0.522976	0.007223
C132	C	1.644817	-0.189642	0.340556
C133	C	0.978130	-0.795217	-0.326094
C134	C	1.311463	-0.461884	0.007239
C135	C	1.644797	-0.128551	0.340573
C136	C	1.154640	-0.326128	-0.326095
C137	C	1.487973	0.007205	0.007238
C138	C	1.821307	0.340538	0.340571
C139	C	1.229872	-0.326138	-0.326102
C140	C	1.563205	0.007196	0.007231
C141	C	1.896539	0.340529	0.340564
C142	C	0.978127	-0.326060	-0.502621
C143	C	1.311460	0.007274	-0.169288
C144	C	1.644794	0.340607	0.164046
C145	C	0.978140	-0.326040	-0.577853
C146	C	1.311473	0.007294	-0.244520
C147	C	1.644806	0.340627	0.088814
C148	C	0.978192	-0.149564	-0.326126
C149	C	1.311525	0.183770	0.007207
C150	C	1.644859	0.517103	0.340541
C151	C	0.978233	-0.074332	-0.326146
C152	C	1.311566	0.259002	0.007187
C153	C	1.644899	0.592335	0.340520
C154	C	0.934885	-0.282740	-0.613204
C155	C	1.268218	0.050594	-0.279871
C156	C	1.601551	0.383927	0.053462
C157	C	0.934894	-0.282727	-0.683893
C158	C	1.268227	0.050607	-0.350559
C159	C	1.601561	0.383940	-0.017226
C160	C	0.978162	-0.326010	-0.719229
C161	C	1.311495	0.007323	-0.385895
C162	C	1.644829	0.340656	-0.052562
C163	C	1.021419	-0.369315	-0.683873
C164	C	1.354752	-0.035982	-0.350539
C165	C	1.688086	0.297352	-0.017206
C166	C	1.021406	-0.369331	-0.613185
C167	C	1.354739	-0.035998	-0.279852
C168	C	1.688072	0.297336	0.053481
C169	C	1.021473	-0.369252	-0.968946
C170	C	1.354806	-0.035918	-0.635613
C171	C	1.688139	0.297415	-0.302279
C172	C	1.021484	-0.369231	-1.039638
C173	C	1.354817	-0.035897	-0.706305
C174	C	1.688151	0.297436	-0.372972
C175	C	0.934961	-0.282647	-1.039653
C176	C	1.268294	0.050686	-0.706320
C177	C	1.601628	0.384020	-0.372987
C178	C	0.934948	-0.282663	-0.968966
C179	C	1.268281	0.050670	-0.635633
C180	C	1.601614	0.384003	-0.302300
C181	C	0.978202	-0.325970	-0.933616
C182	C	1.311535	0.007363	-0.600283
C183	C	1.644868	0.340697	-0.266950
C184	C	0.978190	-0.325985	-0.856968
C185	C	1.311523	0.007349	-0.523634
C186	C	1.644857	0.340682	-0.190301
C187	C	0.978178	-0.325993	-0.795876
C188	C	1.311511	0.007341	-0.462543
C189	C	1.644844	0.340674	-0.129209
C190	C	0.978107	-0.326104	-0.150222
C191	C	1.311440	0.007229	0.183111
C192	C	1.644773	0.340562	0.516444
C193	C	0.978225	-0.325934	-0.074991
C194	C	1.311558	0.007399	0.258343
C195	C	1.644892	0.340733	0.591676
H196	H	0.236386	-0.404574	-0.247424
H197	H	0.569720	-0.071241	0.085909
H198	H	0.903053	0.262093	0.419243
H199	H	0.899717	-0.247415	-0.940199
H200	H	1.233050	0.085919	-0.606866
H201	H	1.566384	0.419252	-0.273533
N202	N	0.227161	-0.236284	-0.416251
N203	N	0.560495	0.097049	-0.082918
N204	N	0.893828	0.430383	0.250416
H205	H	0.177014	-0.242844	-0.409676
H206	H	0.510347	0.090489	-0.076342
H207	H	0.843680	0.423822	0.256991
H208	H	0.239531	-0.187929	-0.405806
H209	H	0.572865	0.145404	-0.072473
H210	H	0.906198	0.478737	0.260860
N211	N	1.068208	-0.930169	-0.236229
N212	N	1.401541	-0.596835	0.097104
N213	N	1.734874	-0.263502	0.430438
H214	H	1.095662	-0.963282	-0.208840
H215	H	1.428995	-0.629949	0.124494
H216	H	1.762328	-0.296616	0.457827
H217	H	1.099500	-0.900799	-0.263810
H218	H	1.432833	-0.567466	0.069523
H219	H	1.766167	-0.234133	0.402857
H220	H	0.364621	-0.404558	-0.247409
H221	H	0.697954	-0.071225	0.085924
H222	H	1.031287	0.262109	0.419258
H223	H	0.720390	-0.404522	-0.247386
H224	H	1.053723	-0.071188	0.085948
H225	H	1.387056	0.262145	0.419281
H226	H	1.056633	-0.583757	-0.247589
H227	H	1.389966	-0.250424	0.085745
H228	H	1.723299	0.082910	0.419078
H229	H	1.056685	-0.404522	-0.940173
H230	H	1.390019	-0.071189	-0.606839
H231	H	1.723352	0.262145	-0.273506
N232	N	0.888015	-0.574423	-0.415947
N233	N	1.221348	-0.241090	-0.082614
N234	N	1.554682	0.092243	0.250720
H235	H	0.894570	-0.524280	-0.409377
H236	H	1.227903	-0.190947	-0.076044
H237	H	1.561236	0.142387	0.257290
H238	H	0.898521	-0.586737	-0.464299
H239	H	1.231854	-0.253403	-0.130966
H240	H	1.565188	0.079930	0.202368
H241	H	0.899644	-1.067771	-0.404611
H242	H	1.232977	-0.734438	-0.071278
H243	H	1.566311	-0.401104	0.262055
N244	N	0.888294	-0.235948	-1.077781
N245	N	1.221627	0.097385	-0.744447
N246	N	1.554961	0.430719	-0.411114
H247	H	0.894860	-0.242508	-1.127923
H248	H	1.228193	0.090825	-0.794589
H249	H	1.561527	0.424158	-0.461256
H250	H	0.839950	-0.246488	-1.065409
H251	H	1.173284	0.086846	-0.732076
H252	H	1.506617	0.420179	-0.398742
H253	H	1.056720	-0.404480	-1.068407
H254	H	1.390053	-0.071147	-0.735074
H255	H	1.723386	0.262186	-0.401740
N256	N	1.068092	-0.416000	-0.721976
N257	N	1.401425	-0.082667	-0.388643
N258	N	1.734759	0.250666	-0.055310
H259	H	1.057550	-0.464362	-0.709659
H260	H	1.390883	-0.131029	-0.376326
H261	H	1.724216	0.202304	-0.042992
H262	H	1.061521	-0.409364	-0.772110
H263	H	1.394855	-0.076031	-0.438776
H264	H	1.728188	0.257302	-0.105443
N265	N	0.374088	-0.236276	-0.416235
N266	N	0.707422	0.097058	-0.082902
N267	N	1.040755	0.430391	0.250432
H268	H	0.340991	-0.208891	-0.443709
H269	H	0.674324	0.124442	-0.110376
H270	H	1.007657	0.457775	0.222958
H271	H	0.403417	-0.204915	-0.388737
H272	H	0.736751	0.128418	-0.055404
H273	H	1.070084	0.461752	0.277929
H274	H	1.056633	-0.404585	-0.584403
H275	H	1.389967	-0.071252	-0.251070
H276	H	1.723300	0.262081	0.082263
H277	H	0.899524	-0.712013	-0.404547
H278	H	1.232857	-0.378680	-0.071214
H279	H	1.566191	-0.045346	0.262119
H280	H	0.720493	-0.247664	-0.404752
H281	H	1.053826	0.085670	-0.071418
H282	H	1.387160	0.419003	0.261915
H283	H	1.056808	-1.067762	-0.247678
H284	H	1.390142	-0.734429	0.085655
H285	H	1.723475	-0.401095	0.418988
N286	N	0.888145	-0.930191	-0.416015
N287	N	1.221478	-0.596858	-0.082682
N288	N	1.554812	-0.263524	0.250652
H289	H	0.860716	-0.963312	-0.443412
H290	H	1.194049	-0.629979	-0.110079
H291	H	1.527383	-0.296646	0.223255
H292	H	0.856831	-0.900907	-0.388427
H293	H	1.190164	-0.567574	-0.055094
H294	H	1.523497	-0.234241	0.278240
N295	N	0.888239	-0.236027	-0.722022
N296	N	1.221572	0.097306	-0.388689
N297	N	1.554905	0.430640	-0.055356
H298	H	0.860829	-0.208607	-0.688911
H299	H	1.194163	0.124726	-0.355578
H300	H	1.527496	0.458060	-0.022244
H301	H	0.915812	-0.204703	-0.751365
H302	H	1.249145	0.128631	-0.418032
H303	H	1.582479	0.461964	-0.084699
H304	H	1.056684	-0.711991	-0.247617
H305	H	1.390017	-0.378658	0.085717
H306	H	1.723350	-0.045324	0.419050
N307	N	0.582802	-0.415955	-0.235929
N308	N	0.916135	-0.082621	0.097405
N309	N	1.249469	0.250712	0.430738
H310	H	0.532663	-0.409402	-0.242512
H311	H	0.865996	-0.076069	0.090821
H312	H	1.199330	0.257265	0.424154
H313	H	0.595146	-0.464308	-0.246370
H314	H	0.928479	-0.130975	0.086963
H315	H	1.261813	0.202359	0.420297
H316	H	0.899655	-0.247489	-0.584439
H317	H	1.232988	0.085844	-0.251106
H318	H	1.566321	0.419178	0.082228
N319	N	0.582919	-0.236236	-0.416204
N320	N	0.916253	0.097097	-0.082870
N321	N	1.249586	0.430430	0.250463
H322	H	0.616055	-0.208847	-0.443671
H323	H	0.949388	0.124487	-0.110338
H324	H	1.282722	0.457820	0.222995
H325	H	0.553584	-0.263819	-0.447481
H326	H	0.886918	0.069514	-0.114148
H327	H	1.220251	0.402847	0.219186
