data_functionalizedCrystal
_audit_creation_method	'MofGen! by Chris Wilmer'
_symmetry_space_group_name_H-M	'P1'
_symmetry_Int_Tables_number	1
_symmetry_cell_setting	triclinic
loop_
_symmetry_equiv_pos_as_xyz
  x,y,z
_cell_length_a	19.077236
_cell_length_b	14.908178
_cell_length_c	19.076919
_cell_angle_alpha	91.159747
_cell_angle_beta	90.112677
_cell_angle_gamma	95.467067
loop_
_atom_site_label
_atom_site_type_symbol
_atom_site_fract_x
_atom_site_fract_y
_atom_site_fract_z
Zn1	Zn	1.044195	-0.327444	0.425224
Zn2	Zn	1.544195	0.172556	0.925224
Zn3	Zn	1.042613	-0.472002	0.300956
Zn4	Zn	1.542613	0.027998	0.800956
Zn5	Zn	0.931431	-0.326971	0.303027
Zn6	Zn	1.431431	0.173029	0.803027
Zn7	Zn	0.919914	-0.484036	0.413131
Zn8	Zn	1.419914	0.015964	0.913131
O9	O	0.984538	-0.402613	0.360584
O10	O	1.484538	0.097387	0.860584
O11	O	1.142528	-0.341781	0.412934
O12	O	1.642528	0.158219	0.912934
O13	O	1.032022	-0.447529	0.203144
O14	O	1.532022	0.052471	0.703144
O15	O	0.951872	-0.200803	0.325164
O16	O	1.451872	0.299197	0.825164
O17	O	1.141364	-0.447988	0.321635
O18	O	1.641364	0.052012	0.821635
O19	O	1.034720	-0.201150	0.414943
O20	O	1.534720	0.298850	0.914943
O21	O	0.950338	-0.340975	0.204666
O22	O	1.450338	0.159025	0.704666
O23	O	0.831362	-0.352644	0.313438
O24	O	1.331362	0.147356	0.813438
O25	O	0.932242	-0.468498	0.512821
O26	O	1.432242	0.031502	1.012821
O27	O	0.822900	-0.468040	0.394331
O28	O	1.322900	0.031960	0.894331
O29	O	1.023552	-0.353450	0.521706
O30	O	1.523552	0.146550	1.021706
O31	O	1.020854	-0.599829	0.309908
O32	O	1.520854	-0.099829	0.809908
O33	O	0.930707	-0.608671	0.392322
O34	O	1.430707	-0.108671	0.892322
C35	C	0.801580	-0.411597	0.352797
C36	C	1.301580	0.088403	0.852797
C37	C	0.723308	-0.415463	0.349481
C38	C	1.223308	0.084537	0.849481
C39	C	0.687134	-0.362079	0.395522
C40	C	1.187134	0.137921	0.895522
C41	C	0.613590	-0.365706	0.392401
C42	C	1.113590	0.134294	0.892401
C43	C	0.576219	-0.422724	0.343241
C44	C	1.076219	0.077276	0.843241
C45	C	0.612398	-0.476111	0.297195
C46	C	1.112398	0.023889	0.797195
C47	C	0.685941	-0.472478	0.300314
C48	C	1.185941	0.027522	0.800314
C49	C	0.356204	-0.439505	0.328807
C50	C	0.856204	0.060495	0.828807
C51	C	0.282655	-0.443136	0.325693
C52	C	0.782655	0.056864	0.825693
C53	C	0.283852	-0.332730	0.420898
C54	C	0.783852	0.167270	0.920898
C55	C	0.357397	-0.329106	0.424015
C56	C	0.857397	0.170894	0.924015
C57	C	0.393569	-0.382489	0.377967
C58	C	0.893569	0.117511	0.877967
N59	N	0.501045	-0.426436	0.340051
N60	N	1.001045	0.073564	0.840051
N61	N	0.468742	-0.378772	0.381155
N62	N	0.968742	0.121228	0.881155
C63	C	0.974377	-0.636980	0.349594
C64	C	1.474377	-0.136980	0.849594
C65	C	0.970094	-0.737241	0.344919
C66	C	1.470094	-0.237241	0.844919
C67	C	1.048241	-0.925863	0.429712
C68	C	1.548241	-0.425863	0.929712
C69	C	1.044219	-1.020068	0.425322
C70	C	1.544219	-0.520068	0.925322
C71	C	0.958023	-1.019857	0.331751
C72	C	1.458023	-0.519857	0.831751
C73	C	0.962046	-0.925652	0.336142
C74	C	1.462046	-0.425652	0.836142
C75	C	1.007157	-0.878659	0.385123
C76	C	1.507157	-0.378659	0.885123
C77	C	1.011183	-0.784452	0.389510
C78	C	1.511183	-0.284452	0.889510
C79	C	0.924984	-0.784243	0.295943
C80	C	1.424984	-0.284243	0.795943
C81	C	0.920962	-0.878448	0.291552
C82	C	1.420962	-0.378448	0.791552
C83	C	1.168211	-0.393595	0.368402
C84	C	1.668211	0.106405	0.868402
C85	C	1.246482	-0.389752	0.371734
C86	C	1.746482	0.110248	0.871734
C87	C	0.976789	-0.412369	0.543407
C88	C	1.476789	0.087631	1.043407
C89	C	0.973486	-0.416527	0.621315
C90	C	1.473486	0.083473	1.121315
C91	C	0.994757	-0.167331	0.371634
C92	C	1.494757	0.332669	0.871634
C93	C	0.999112	-0.067068	0.376342
C94	C	1.499112	0.432932	0.876342
C95	C	0.992301	-0.392828	0.178477
C96	C	1.492301	0.107172	0.678477
C97	C	0.995751	-0.388409	0.100587
C98	C	1.495751	0.111591	0.600587
C99	C	1.019472	-0.358584	0.662544
C100	C	1.519472	0.141416	1.162544
C101	C	1.016361	-0.362487	0.735747
C102	C	1.516361	0.137513	1.235747
C103	C	0.967266	-0.424339	0.767720
C104	C	1.467266	0.075661	1.267720
C105	C	0.921276	-0.482285	0.726486
C106	C	1.421276	0.017715	1.226486
C107	C	0.924384	-0.478376	0.653284
C108	C	1.424384	0.021624	1.153284
C109	C	0.952869	-0.442447	0.986152
C110	C	1.452869	0.057553	1.486152
C111	C	0.949765	-0.446353	1.059359
C112	C	1.449765	0.053647	1.559359
C113	C	1.044850	-0.326553	1.068615
C114	C	1.544850	0.173447	1.568615
C115	C	1.047957	-0.322654	0.995411
C116	C	1.547957	0.177346	1.495411
C117	C	1.001964	-0.380597	0.954184
C118	C	1.501964	0.119403	1.454184
N119	N	0.964086	-0.428332	0.842545
N120	N	1.464086	0.071668	1.342545
N121	N	1.005141	-0.376598	0.879361
N122	N	1.505141	0.123402	1.379361
H123	H	0.584141	-0.322237	0.429894
H124	H	1.084141	0.177763	0.929894
H125	H	0.387819	-0.282680	0.464049
H126	H	0.887819	0.217320	0.964049
H127	H	1.077670	-1.058498	0.461634
H128	H	1.577670	-0.558498	0.961634
O129	O	0.721154	-0.524383	0.255690
O130	O	1.221154	-0.024383	0.755690
C131	C	0.799293	-0.641573	0.243915
C132	C	1.299293	-0.141573	0.743915
C133	C	0.759467	-0.582836	0.294533
C134	C	1.259467	-0.082836	0.794533
H135	H	0.830267	-0.688859	0.275299
H136	H	1.330267	-0.188859	0.775299
H137	H	0.837108	-0.596477	0.210733
H138	H	1.337108	-0.096477	0.710733
H139	H	0.759942	-0.682909	0.208229
H140	H	1.259942	-0.182909	0.708229
H141	H	0.798765	-0.541491	0.330263
H142	H	1.298765	-0.041491	0.830263
H143	H	0.721641	-0.627981	0.327665
H144	H	1.221641	-0.127981	0.827665
H145	H	1.053809	-0.315305	0.769312
H146	H	1.553809	0.184695	1.269312
O147	O	0.248607	-0.280902	0.465551
O148	O	0.748607	0.219098	0.965551
C149	C	0.135838	-0.237601	0.502970
C150	C	0.635838	0.262399	1.002970
C151	C	0.175664	-0.296334	0.452349
C152	C	0.675664	0.203666	0.952349
H153	H	0.076855	-0.250071	0.492323
H154	H	0.576855	0.249929	0.992323
H155	H	0.153911	-0.163457	0.494774
H156	H	0.653911	0.336543	0.994774
H157	H	0.147266	-0.255840	0.559329
H158	H	0.647266	0.244160	1.059329
H159	H	0.164254	-0.278174	0.395970
H160	H	0.664254	0.221826	0.895970
H161	H	0.157586	-0.370462	0.460605
H162	H	0.657586	0.129538	0.960605
O163	O	0.885150	-0.738418	0.252526
O164	O	1.385150	-0.238418	0.752526
C165	C	0.857332	-0.705054	0.133152
C166	C	1.357332	-0.205054	0.633152
C167	C	0.902494	-0.756985	0.182242
C168	C	1.402494	-0.256985	0.682242
H169	H	0.871327	-0.720062	0.076316
H170	H	1.371327	-0.220062	0.576316
H171	H	0.867963	-0.629637	0.144641
H172	H	1.367963	-0.129637	0.644641
H173	H	0.799228	-0.727068	0.142162
H174	H	1.299228	-0.227068	0.642162
H175	H	0.960612	-0.735047	0.173259
H176	H	1.460612	-0.235047	0.673259
H177	H	0.891802	-0.832392	0.170742
H178	H	1.391802	-0.332392	0.670742
O179	O	0.879790	-0.534796	0.613257
O180	O	1.379790	-0.034796	1.113257
C181	C	0.839882	-0.688723	0.582217
C182	C	1.339882	-0.188723	1.082217
C183	C	0.890433	-0.624929	0.627578
C184	C	1.390433	-0.124929	1.127578
H185	H	0.848459	-0.761608	0.593790
H186	H	1.348459	-0.261608	1.093790
H187	H	0.850542	-0.675379	0.524396
H188	H	1.350542	-0.175379	1.024396
H189	H	0.783181	-0.676400	0.594920
H190	H	1.283181	-0.176400	1.094920
H191	H	0.947152	-0.637214	0.614936
H192	H	1.447152	-0.137214	1.114936
H193	H	0.879712	-0.638287	0.685386
H194	H	1.379712	-0.138287	1.185386
O195	O	1.095667	-0.262488	0.964469
O196	O	1.595667	0.237512	1.464469
C197	C	1.189677	-0.144112	0.981376
C198	C	1.689677	0.355888	1.481376
C199	C	1.135666	-0.212189	1.016510
C200	C	1.635666	0.287811	1.516510
H201	H	1.222041	-0.103440	1.023435
H202	H	1.722041	0.396560	1.523435
H203	H	1.160887	-0.096641	0.947965
H204	H	1.660887	0.403359	1.447965
H205	H	1.226123	-0.181906	0.946709
H206	H	1.726123	0.318094	1.446709
H207	H	1.099206	-0.174470	1.051211
H208	H	1.599206	0.325530	1.551211
H209	H	1.164502	-0.259658	1.049878
H210	H	1.664502	0.240342	1.549878
H211	H	1.082294	-0.279379	1.102190
H212	H	1.582294	0.220621	1.602190
H213	H	0.909784	-0.496722	1.085389
H214	H	1.409784	0.003278	1.585389
O215	O	0.873646	-0.542340	0.757655
O216	O	1.373646	-0.042340	1.257655
C217	C	0.826688	-0.601419	0.866321
C218	C	1.326688	-0.101419	1.366321
C219	C	0.880673	-0.533376	0.831116
C220	C	1.380673	-0.033376	1.331116
H221	H	0.832341	-0.594182	0.925720
H222	H	1.332341	-0.094182	1.425720
H223	H	0.836502	-0.672803	0.849089
H224	H	1.336502	-0.172803	1.349089
H225	H	0.771216	-0.587602	0.850210
H226	H	1.271216	-0.087602	1.350210
H227	H	0.936167	-0.547110	0.847210
H228	H	1.436167	-0.047110	1.347210
H229	H	0.870798	-0.462014	0.848348
H230	H	1.370798	0.037986	1.348348
H231	H	0.252230	-0.489571	0.285660
H232	H	0.752230	0.010429	0.785660
O233	O	0.391223	-0.491451	0.284048
O234	O	0.891223	0.008549	0.784048
C235	C	0.382271	-0.601300	0.189259
C236	C	0.882271	-0.101300	0.689259
C237	C	0.342519	-0.542533	0.239921
C238	C	0.842519	-0.042533	0.739921
H239	H	0.342912	-0.642600	0.153559
H240	H	0.842912	-0.142600	0.653559
H241	H	0.413286	-0.648605	0.220582
H242	H	0.913286	-0.148605	0.720582
H243	H	0.420057	-0.556143	0.156096
H244	H	0.920057	-0.056143	0.656096
H245	H	0.304697	-0.587620	0.273095
H246	H	0.804697	-0.087620	0.773095
H247	H	0.311550	-0.495221	0.208556
H248	H	0.811550	0.004779	0.708556
H249	H	0.717556	-0.315651	0.435556
H250	H	1.217556	0.184349	0.935556
O251	O	1.091978	-0.880256	0.477384
O252	O	1.591978	-0.380256	0.977384
C253	C	1.122264	-0.856048	0.599438
C254	C	1.622264	-0.356048	1.099438
C255	C	1.072674	-0.907745	0.545525
C256	C	1.572674	-0.407745	1.045525
H257	H	1.106685	-0.878268	0.654541
H258	H	1.606685	-0.378268	1.154541
H259	H	1.118074	-0.780603	0.594977
H260	H	1.618074	-0.280603	1.094977
H261	H	1.178787	-0.871047	0.588699
H262	H	1.678787	-0.371047	1.088699
H263	H	1.016130	-0.892821	0.556229
H264	H	1.516130	-0.392821	1.056229
H265	H	1.076926	-0.983176	0.549998
H266	H	1.576926	-0.483176	1.049998
O267	O	1.067185	-0.298420	0.631602
O268	O	1.567185	0.201580	1.131602
C269	C	1.161192	-0.180041	0.648517
C270	C	1.661192	0.319959	1.148517
C271	C	1.107181	-0.248123	0.683646
C272	C	1.607181	0.251877	1.183646
H273	H	1.193553	-0.139370	0.690578
H274	H	1.693553	0.360630	1.190578
H275	H	1.132402	-0.132570	0.615106
H276	H	1.632402	0.367430	1.115106
H277	H	1.197640	-0.217831	0.613849
H278	H	1.697640	0.282169	1.113849
H279	H	1.070718	-0.210407	0.718347
H280	H	1.570718	0.289593	1.218347
H281	H	1.136017	-0.295591	0.717014
H282	H	1.636017	0.204409	1.217014
H283	H	0.915427	-0.489641	0.952593
H284	H	1.415427	0.010359	1.452593
H285	H	1.047916	-0.746191	0.429391
H286	H	1.547916	-0.246191	0.929391
H287	H	0.884232	-0.916723	0.251675
H288	H	1.384232	-0.416723	0.751675
O289	O	0.914268	-1.065651	0.284191
O290	O	1.414268	-0.565651	0.784191
C291	C	0.869847	-1.210694	0.235991
C292	C	1.369847	-0.710694	0.735991
C293	C	0.919439	-1.158943	0.289875
C294	C	1.419439	-0.658943	0.789875
H295	H	0.874000	-1.286130	0.240578
H296	H	1.374000	-0.786130	0.740578
H297	H	0.885451	-1.188632	0.180855
H298	H	1.385451	-0.688632	0.680855
H299	H	0.813332	-1.195625	0.246682
H300	H	1.313332	-0.695625	0.746682
H301	H	0.975969	-1.173987	0.279249
H302	H	1.475969	-0.673987	0.779249
H303	H	0.903775	-1.181011	0.344993
H304	H	1.403775	-0.681011	0.844993
H305	H	0.581965	-0.522531	0.257165
H306	H	1.081965	-0.022531	0.757165
