data_functionalizedCrystal
_audit_creation_method	'MofGen! by Chris Wilmer'
_symmetry_space_group_name_H-M	'P1'
_symmetry_Int_Tables_number	1
_symmetry_cell_setting	triclinic
loop_
_symmetry_equiv_pos_as_xyz
  x,y,z
_cell_length_a	21.295418
_cell_length_b	25.639239
_cell_length_c	21.295411
_cell_angle_alpha	89.980474
_cell_angle_beta	89.956262
_cell_angle_gamma	90.054499
loop_
_atom_site_label
_atom_site_type_symbol
_atom_site_fract_x
_atom_site_fract_y
_atom_site_fract_z
Zn1	Zn	0.962320	-0.207990	-0.356243
Zn2	Zn	1.462320	0.292010	0.143757
Zn3	Zn	0.962207	-0.295410	-0.250972
Zn4	Zn	1.462207	0.204590	0.249028
Zn5	Zn	0.857043	-0.208014	-0.250953
Zn6	Zn	1.357043	0.291986	0.249047
Zn7	Zn	0.856998	-0.295420	-0.356169
Zn8	Zn	1.356998	0.204580	0.143831
O9	O	0.909642	-0.251708	-0.303584
O10	O	1.409642	0.248292	0.196416
O11	O	1.050395	-0.219572	-0.342318
O12	O	1.550395	0.280428	0.157682
O13	O	0.948229	-0.283822	-0.162880
O14	O	1.448229	0.216178	0.337120
O15	O	0.871075	-0.134846	-0.264943
O16	O	1.371075	0.365154	0.235057
O17	O	1.050312	-0.283799	-0.264976
O18	O	1.550312	0.216201	0.235024
O19	O	0.948421	-0.134828	-0.342299
O20	O	1.448421	0.365172	0.157701
O21	O	0.870965	-0.219613	-0.162866
O22	O	1.370965	0.280387	0.337134
O23	O	0.768948	-0.219623	-0.264871
O24	O	1.268948	0.280377	0.235129
O25	O	0.870997	-0.283816	-0.444268
O26	O	1.370997	0.216184	0.055732
O27	O	0.768914	-0.283840	-0.342172
O28	O	1.268914	0.216160	0.157828
O29	O	0.948377	-0.219582	-0.444322
O30	O	1.448377	0.280418	0.055678
O31	O	0.948185	-0.368576	-0.264904
O32	O	1.448185	0.131424	0.235096
O33	O	0.870888	-0.368584	-0.342191
O34	O	1.370888	0.131416	0.157809
C35	C	0.746090	-0.251736	-0.303512
C36	C	1.246090	0.248264	0.196488
C37	C	0.676122	-0.251760	-0.303496
C38	C	1.176122	0.248240	0.196504
C39	C	0.643255	-0.285242	-0.343686
C40	C	1.143255	0.214758	0.156314
C41	C	0.577512	-0.285229	-0.343715
C42	C	1.077512	0.214771	0.156285
C43	C	0.544640	-0.251740	-0.303541
C44	C	1.044640	0.248260	0.196459
C45	C	0.577515	-0.218252	-0.263347
C46	C	1.077515	0.281748	0.236653
C47	C	0.643257	-0.218262	-0.263325
C48	C	1.143257	0.281738	0.236675
N49	N	0.441365	-0.247648	-0.248483
N50	N	0.941365	0.252352	0.251517
N51	N	0.378913	-0.247641	-0.248506
N52	N	0.878913	0.252359	0.251494
C53	C	0.346565	-0.251707	-0.303608
C54	C	0.846565	0.248293	0.196392
N55	N	0.379028	-0.255789	-0.358686
N56	N	0.879028	0.244211	0.141314
N57	N	0.441485	-0.255799	-0.358662
N58	N	0.941485	0.244201	0.141338
C59	C	0.473354	-0.251725	-0.303561
C60	C	0.973354	0.248275	0.196439
C61	C	0.242412	-0.285176	-0.343832
C62	C	0.742412	0.214824	0.156168
C63	C	0.176668	-0.285160	-0.343862
C64	C	0.676668	0.214840	0.156138
C65	C	0.176673	-0.218185	-0.263489
C66	C	0.676673	0.281815	0.236511
C67	C	0.242415	-0.218199	-0.263465
C68	C	0.742415	0.281801	0.236535
C69	C	0.275281	-0.251697	-0.303636
C70	C	0.775281	0.248303	0.196364
C71	C	0.909536	-0.387551	-0.303555
C72	C	1.409536	0.112449	0.196445
C73	C	0.909548	-0.445665	-0.303564
C74	C	1.409548	0.054335	0.196436
C75	C	0.949996	-0.806011	-0.263409
C76	C	1.449996	-0.306011	0.236591
C77	C	0.950020	-0.860616	-0.263418
C78	C	1.450020	-0.360616	0.236582
O79	O	0.984300	-0.888838	-0.229245
O80	O	1.484300	-0.388838	0.270755
N81	N	0.909753	-0.887947	-0.303626
N82	N	1.409753	-0.387947	0.196374
C83	C	0.869463	-0.860672	-0.343833
C84	C	1.369463	-0.360672	0.156167
O85	O	0.835215	-0.888934	-0.378034
O86	O	1.335215	-0.388934	0.121966
C87	C	0.869442	-0.806069	-0.343827
C88	C	1.369442	-0.306069	0.156173
C89	C	0.909708	-0.778740	-0.303612
C90	C	1.409708	-0.278740	0.196388
C91	C	0.990259	-0.778683	-0.223198
C92	C	1.490259	-0.278683	0.276802
C93	C	0.990233	-0.724082	-0.223188
C94	C	1.490233	-0.224082	0.276812
C95	C	0.949945	-0.696810	-0.263391
C96	C	1.449945	-0.196810	0.236609
C97	C	0.909682	-0.724139	-0.303603
C98	C	1.409682	-0.224139	0.196397
C99	C	0.829156	-0.778794	-0.384037
C100	C	1.329156	-0.278794	0.115963
C101	C	0.829139	-0.724187	-0.384028
C102	C	1.329139	-0.224187	0.115972
C103	C	0.869404	-0.696858	-0.343812
C104	C	1.369404	-0.196858	0.156188
C105	C	0.869369	-0.642267	-0.343796
C106	C	1.369369	-0.142267	0.156204
N107	N	0.909636	-0.614935	-0.303588
N108	N	1.409636	-0.114935	0.196412
C109	C	0.949924	-0.642207	-0.263385
C110	C	1.449924	-0.142207	0.236615
C111	C	0.869510	-0.975343	-0.343842
C112	C	1.369510	-0.475343	0.156158
C113	C	0.869527	-1.029945	-0.343845
C114	C	1.369527	-0.529945	0.156155
C115	C	0.950086	-1.029885	-0.263431
C116	C	1.450086	-0.529885	0.236569
C117	C	0.950065	-0.975282	-0.263425
C118	C	1.450065	-0.475282	0.236575
C119	C	0.909778	-0.948011	-0.303634
C120	C	1.409778	-0.448011	0.196366
C121	C	0.949868	-0.527542	-0.263369
C122	C	1.449868	-0.027542	0.236631
C123	C	0.949837	-0.472937	-0.263361
C124	C	1.449837	0.027063	0.236639
C125	C	0.869281	-0.473001	-0.343778
C126	C	1.369281	0.026999	0.156222
C127	C	0.869309	-0.527602	-0.343783
C128	C	1.369309	-0.027602	0.156217
C129	C	0.909607	-0.554871	-0.303577
C130	C	1.409607	-0.054871	0.196423
O131	O	0.835108	-0.614010	-0.377953
O132	O	1.335108	-0.114010	0.122047
O133	O	0.984172	-0.613939	-0.229195
O134	O	1.484172	-0.113939	0.270805
C135	C	1.073832	-0.251681	-0.303657
C136	C	1.573832	0.248319	0.196343
C137	C	1.143801	-0.251670	-0.303688
C138	C	1.643801	0.248330	0.196312
C139	C	0.909694	-0.251697	-0.467774
C140	C	1.409694	0.248303	0.032226
C141	C	0.909717	-0.251693	-0.537743
C142	C	1.409717	0.248307	-0.037743
C143	C	0.909766	-0.115335	-0.303627
C144	C	1.409766	0.384665	0.196373
C145	C	0.909818	-0.057221	-0.303645
C146	C	1.409818	0.442779	0.196355
C147	C	0.950007	-0.218244	-0.570639
C148	C	1.450007	0.281756	-0.070639
C149	C	0.950006	-0.218221	-0.636381
C150	C	1.450006	0.281779	-0.136381
C151	C	0.909721	-0.251657	-0.669225
C152	C	1.409721	0.248343	-0.169225
C153	C	0.869424	-0.285108	-0.636321
C154	C	1.369424	0.214892	-0.136321
C155	C	0.869421	-0.285126	-0.570580
C156	C	1.369421	0.214874	-0.070580
N157	N	0.904857	-0.297396	-0.772441
N158	N	1.404857	0.202604	-0.272441
N159	N	0.904863	-0.297377	-0.834892
N160	N	1.404863	0.202623	-0.334892
C161	C	0.909725	-0.251604	-0.867300
C162	C	1.409725	0.248396	-0.367300
N163	N	0.914594	-0.205848	-0.834897
N164	N	1.414594	0.294152	-0.334897
N165	N	0.914591	-0.205867	-0.772440
N166	N	1.414591	0.294133	-0.272440
C167	C	0.909719	-0.251641	-0.740511
C168	C	1.409719	0.248359	-0.240511
C169	C	0.950017	-0.218128	-0.971482
C170	C	1.450017	0.281872	-0.471482
C171	C	0.950011	-0.218104	-1.037225
C172	C	1.450011	0.281896	-0.537225
C173	C	0.869433	-0.284995	-1.037164
C174	C	1.369433	0.215005	-0.537164
C175	C	0.869435	-0.285014	-0.971422
C176	C	1.369435	0.214986	-0.471422
C177	C	0.909730	-0.251581	-0.938584
C178	C	1.409730	0.248419	-0.438584
C179	C	0.909626	-0.251682	-0.140032
C180	C	1.409626	0.248318	0.359968
C181	C	0.909726	-0.251539	-0.070065
C182	C	1.409726	0.248461	0.429935
H183	H	0.269176	-0.190937	-0.230734
H184	H	0.769176	0.309063	0.269266
O185	O	0.144809	-0.317661	-0.382993
O186	O	0.644809	0.182339	0.117007
C187	C	0.160950	-0.306313	-0.445753
C188	C	0.660950	0.193687	0.054247
H189	H	0.208711	-0.286223	-0.447087
H190	H	0.708711	0.213777	0.052913
H191	H	0.124011	-0.279455	-0.467033
H192	H	0.624011	0.220545	0.032967
C193	C	0.105299	-0.382009	-0.482125
C194	C	0.605299	0.117991	0.017875
C195	C	0.163963	-0.357339	-0.483763
C196	C	0.663963	0.142661	0.016237
H197	H	0.107156	-0.413484	-0.505573
H198	H	0.607156	0.086516	-0.005573
H199	H	0.094423	-0.389655	-0.439843
H200	H	0.594423	0.110345	0.060157
H201	H	0.074523	-0.359622	-0.499857
H202	H	0.574523	0.140378	0.000143
H203	H	0.194737	-0.379723	-0.466025
H204	H	0.694737	0.120277	0.033975
H205	H	0.174845	-0.349699	-0.526044
H206	H	0.674845	0.150301	-0.026044
O207	O	0.790092	-0.697673	-0.423154
O208	O	1.290092	-0.197673	0.076846
C209	C	0.825898	-0.666023	-0.463840
C210	C	1.325898	-0.166023	0.036160
H211	H	0.875482	-0.682421	-0.467790
H212	H	1.375482	-0.182421	0.032210
H213	H	0.828055	-0.624645	-0.444374
H214	H	1.328055	-0.124645	0.055626
C215	C	0.734214	-0.645054	-0.524392
C216	C	1.234214	-0.145054	-0.024392
C217	C	0.795114	-0.665197	-0.529247
C218	C	1.295114	-0.165197	-0.029247
H219	H	0.715224	-0.644542	-0.564737
H220	H	1.215224	-0.144542	-0.064737
H221	H	0.710090	-0.666375	-0.496979
H222	H	1.210090	-0.166375	0.003021
H223	H	0.736020	-0.610574	-0.508168
H224	H	1.236020	-0.110574	-0.008168
H225	H	0.793306	-0.699678	-0.545463
H226	H	1.293306	-0.199678	-0.045463
H227	H	0.819236	-0.643881	-0.556664
H228	H	1.319236	-0.143881	-0.056664
H229	H	0.670017	-0.190995	-0.230596
H230	H	1.170017	0.309005	0.269404
H231	H	0.982684	-0.549738	-0.230630
H232	H	1.482684	-0.049738	0.269370
O233	O	0.989195	-0.185832	-0.538705
O234	O	1.489195	0.314168	-0.038705
C235	C	1.029814	-0.215589	-0.500680
C236	C	1.529814	0.284411	-0.000680
H237	H	1.033691	-0.256761	-0.520492
H238	H	1.533691	0.243239	-0.020492
H239	H	1.010332	-0.217411	-0.450849
H240	H	1.510332	0.282589	0.049151
C241	C	1.090504	-0.139446	-0.475366
C242	C	1.590504	0.360554	0.024634
C243	C	1.095270	-0.190014	-0.499701
C244	C	1.595270	0.309986	0.000299
H245	H	1.130880	-0.123670	-0.474759
H246	H	1.630880	0.376330	0.025241
H247	H	1.063137	-0.119398	-0.500982
H248	H	1.563137	0.380602	-0.000982
H249	H	1.074267	-0.140972	-0.433841
H250	H	1.574267	0.359028	0.066159
H251	H	1.111500	-0.188487	-0.541227
H252	H	1.611500	0.311513	-0.041227
H253	H	1.122641	-0.210062	-0.474092
H254	H	1.622641	0.289938	0.025908
H255	H	0.149909	-0.190915	-0.230781
H256	H	0.649909	0.309085	0.269219
H257	H	0.670010	-0.312519	-0.376398
H258	H	1.170010	0.187481	0.123602
O259	O	1.029416	-0.805088	-0.184080
O260	O	1.529416	-0.305088	0.315920
C261	C	1.064955	-0.769248	-0.148605
C262	C	1.564955	-0.269248	0.351395
H263	H	1.039151	-0.730355	-0.146401
H264	H	1.539151	-0.230355	0.353599
H265	H	1.112751	-0.763381	-0.171714
H266	H	1.612751	-0.263381	0.328286
C267	C	1.105758	-0.838329	-0.084324
C268	C	1.605758	-0.338329	0.415676
C269	C	1.074063	-0.790562	-0.081612
C270	C	1.574063	-0.290562	0.418388
H271	H	1.111380	-0.851477	-0.043000
H272	H	1.611380	-0.351477	0.457000
H273	H	1.081817	-0.862476	-0.108225
H274	H	1.581817	-0.362476	0.391775
H275	H	1.145585	-0.833434	-0.103583
H276	H	1.645585	-0.333434	0.396417
H277	H	1.034234	-0.795459	-0.062360
H278	H	1.534234	-0.295459	0.437640
H279	H	1.097998	-0.766416	-0.057705
H280	H	1.597998	-0.266416	0.442295
H281	H	0.836524	-0.549854	-0.376532
H282	H	1.336524	-0.049854	0.123468
O283	O	0.545673	-0.317802	-0.382781
O284	O	1.045673	0.182198	0.117219
C285	C	0.588778	-0.347357	-0.418246
C286	C	1.088778	0.152643	0.081754
H287	H	0.635610	-0.349147	-0.392443
H288	H	1.135610	0.150853	0.107557
H289	H	0.595850	-0.328269	-0.466094
H290	H	1.095850	0.171731	0.033906
C291	C	0.505529	-0.400810	-0.458900
C292	C	1.005529	0.099190	0.041100
C293	C	0.563047	-0.403012	-0.427206
C294	C	1.063047	0.096988	0.072794
H295	H	0.489657	-0.435140	-0.464430
H296	H	0.989657	0.064860	0.035570
H297	H	0.476487	-0.380897	-0.435009
H298	H	0.976487	0.119103	0.064991
H299	H	0.511430	-0.384901	-0.498770
H300	H	1.011430	0.115099	0.001230
H301	H	0.557144	-0.418915	-0.387335
H302	H	1.057144	0.081085	0.112665
H303	H	0.592088	-0.422929	-0.451092
H304	H	1.092088	0.077071	0.048908
H305	H	0.982626	-0.450687	-0.230611
H306	H	1.482626	0.049313	0.269389
O307	O	0.989240	-0.948817	-0.224343
O308	O	1.489240	-0.448817	0.275657
C309	C	1.024787	-0.984604	-0.188849
C310	C	1.524787	-0.484604	0.311151
H311	H	1.026965	-1.023514	-0.214643
H312	H	1.526965	-0.523514	0.285357
H313	H	1.001758	-0.990453	-0.141014
H314	H	1.501758	-0.490453	0.358986
C315	C	1.089107	-0.915442	-0.148174
C316	C	1.589107	-0.415442	0.351826
C317	C	1.091787	-0.963231	-0.179857
C318	C	1.591787	-0.463231	0.320143
H319	H	1.130435	-0.902257	-0.142624
H320	H	1.630435	-0.402257	0.357376
H321	H	1.065157	-0.891331	-0.172084
H322	H	1.565157	-0.391331	0.327916
H323	H	1.069914	-0.920322	-0.108314
H324	H	1.569914	-0.420322	0.391686
H325	H	1.110972	-0.958348	-0.219719
H326	H	1.610972	-0.458348	0.280281
H327	H	1.115741	-0.987340	-0.155953
H328	H	1.615741	-0.487340	0.344047
H329	H	0.269173	-0.312450	-0.376545
H330	H	0.769173	0.187550	0.123455
O331	O	0.830094	-0.446585	-0.382855
O332	O	1.330094	0.053415	0.117145
C333	C	0.794572	-0.482411	-0.418369
C334	C	1.294572	0.017589	0.081631
H335	H	0.792406	-0.521346	-0.392589
H336	H	1.292406	-0.021346	0.107411
H337	H	0.817615	-0.488178	-0.466202
H338	H	1.317615	0.011822	0.033798
C339	C	0.730229	-0.413338	-0.459036
C340	C	1.230229	0.086662	0.040964
C341	C	0.727564	-0.461158	-0.427371
C342	C	1.227564	0.038842	0.072629
H343	H	0.688897	-0.400228	-0.464592
H344	H	1.188897	0.099772	0.035408
H345	H	0.754162	-0.389201	-0.435112
H346	H	1.254162	0.110799	0.064888
H347	H	0.749435	-0.418150	-0.498893
H348	H	1.249435	0.081850	0.001107
H349	H	0.708367	-0.456344	-0.387512
H350	H	1.208367	0.043656	0.112488
H351	H	0.703627	-0.485294	-0.451288
H352	H	1.203627	0.014706	0.048712
O353	O	0.545613	-0.185648	-0.224388
O354	O	1.045613	0.314352	0.275612
C355	C	0.561771	-0.133556	-0.238242
C356	C	1.061771	0.366444	0.261758
H357	H	0.579902	-0.130979	-0.288531
H358	H	1.079902	0.369021	0.211469
H359	H	0.599912	-0.119852	-0.204510
H360	H	1.099912	0.380148	0.295490
C361	C	0.481139	-0.101813	-0.169247
C362	C	0.981139	0.398187	0.330753
C363	C	0.503403	-0.098647	-0.231014
C364	C	1.003403	0.401353	0.268986
H365	H	0.445136	-0.080279	-0.164786
H366	H	0.945136	0.419721	0.335214
H367	H	0.470254	-0.136908	-0.159911
H368	H	0.970254	0.363092	0.340089
H369	H	0.512928	-0.090394	-0.141144
H370	H	1.012928	0.409606	0.358856
H371	H	0.471617	-0.110073	-0.259116
H372	H	0.971617	0.389927	0.240884
H373	H	0.514281	-0.063554	-0.240355
H374	H	1.014281	0.436446	0.259645
O375	O	0.989180	-0.185803	-0.668414
O376	O	1.489180	0.314197	-0.168414
C377	C	1.029817	-0.215562	-0.706455
C378	C	1.529817	0.284438	-0.206455
H379	H	1.007573	-0.255183	-0.716284
H380	H	1.507573	0.244817	-0.216284
H381	H	1.076459	-0.221310	-0.681152
H382	H	1.576459	0.278690	-0.181152
C383	C	1.068571	-0.138117	-0.756842
C384	C	1.568571	0.361883	-0.256842
C385	C	1.041247	-0.186780	-0.768918
C386	C	1.541247	0.313220	-0.268918
H387	H	1.075625	-0.120363	-0.795371
H388	H	1.575625	0.379637	-0.295371
H389	H	1.041195	-0.118068	-0.731211
H390	H	1.541195	0.381932	-0.231211
H391	H	1.107437	-0.142915	-0.735754
H392	H	1.607437	0.357085	-0.235754
H393	H	1.002379	-0.181981	-0.789999
H394	H	1.502379	0.318019	-0.289999
H395	H	1.068617	-0.206828	-0.794554
H396	H	1.568617	0.293172	-0.294554
H397	H	0.836630	-0.312254	-0.944637
H398	H	1.336630	0.187746	-0.444637
H399	H	1.023023	-0.701834	-0.190444
H400	H	1.523023	-0.201834	0.309556
O401	O	0.830234	-0.317605	-0.668125
O402	O	1.330234	0.182395	-0.168125
C403	C	0.794682	-0.347142	-0.624989
C404	C	1.294682	0.152858	-0.124989
H405	H	0.792519	-0.325739	-0.578126
H406	H	1.292519	0.174261	-0.078126
H407	H	0.817698	-0.386849	-0.618011
H408	H	1.317698	0.113151	-0.118011
C409	C	0.730338	-0.380971	-0.708158
C410	C	1.230338	0.119029	-0.208158
C411	C	0.727676	-0.354681	-0.650601
C412	C	1.227676	0.145319	-0.150601
H413	H	0.689006	-0.385623	-0.723957
H414	H	1.189006	0.114377	-0.223957
H415	H	0.754291	-0.361072	-0.737220
H416	H	1.254291	0.138928	-0.237220
H417	H	0.749520	-0.414057	-0.702335
H418	H	1.249520	0.085943	-0.202335
H419	H	0.708502	-0.321593	-0.656426
H420	H	1.208502	0.178407	-0.156426
H421	H	0.703719	-0.374574	-0.621540
H422	H	1.203719	0.125426	-0.121540
O423	O	0.989249	-1.056463	-0.224482
O424	O	1.489249	-0.556463	0.275518
C425	C	0.980641	-1.110516	-0.233128
C426	C	1.480641	-0.610516	0.266872
H427	H	0.959943	-1.117960	-0.281661
H428	H	1.459943	-0.617960	0.218339
H429	H	0.947202	-1.126094	-0.195717
H430	H	1.447202	-0.626094	0.304283
C431	C	1.069793	-1.129321	-0.167942
C432	C	1.569793	-0.629321	0.332058
C433	C	1.044376	-1.138464	-0.227553
C434	C	1.544376	-0.638464	0.272447
H435	H	1.109106	-1.146561	-0.164500
H436	H	1.609106	-0.646561	0.335500
H437	H	1.075591	-1.092904	-0.162114
H438	H	1.575591	-0.592904	0.337886
H439	H	1.041921	-1.142302	-0.136772
H440	H	1.541921	-0.642302	0.363228
H441	H	1.072243	-1.125477	-0.258721
H442	H	1.572243	-0.625477	0.241279
H443	H	1.038584	-1.174879	-0.233386
H444	H	1.538584	-0.674879	0.266614
H445	H	0.836698	-0.953141	-0.376584
H446	H	1.336698	-0.453141	0.123416
O447	O	0.830388	-1.056408	-0.382965
O448	O	1.330388	-0.556408	0.117035
C449	C	0.794815	-1.020621	-0.418431
C450	C	1.294815	-0.520621	0.081569
H451	H	0.820584	-0.981671	-0.420633
H452	H	1.320584	-0.481671	0.079367
H453	H	0.747015	-1.014875	-0.395317
H454	H	1.247015	-0.514875	0.104683
C455	C	0.754065	-1.089750	-0.482719
C456	C	1.254065	-0.589750	0.017281
C457	C	0.785718	-1.041911	-0.485427
C458	C	1.285718	-0.541911	0.014573
H459	H	0.748451	-1.102882	-0.524044
H460	H	1.248451	-0.602882	-0.024044
H461	H	0.778030	-1.113860	-0.458823
H462	H	1.278030	-0.613860	0.041177
H463	H	0.714236	-1.084954	-0.463454
H464	H	1.214236	-0.584954	0.036546
H465	H	0.825549	-1.046708	-0.504684
H466	H	1.325549	-0.546708	-0.004684
H467	H	0.761760	-1.017801	-0.509327
H468	H	1.261760	-0.517801	-0.009327
H469	H	0.796364	-0.801036	-0.416781
H470	H	1.296364	-0.301036	0.083219
O471	O	0.830364	-0.317462	-1.069158
O472	O	1.330364	0.182538	-0.569158
C473	C	0.838994	-0.310266	-1.134238
C474	C	1.338994	0.189734	-0.634238
H475	H	0.887587	-0.293126	-1.143252
H476	H	1.387587	0.206874	-0.643252
H477	H	0.801677	-0.282429	-1.152870
H478	H	1.301677	0.217571	-0.652870
C479	C	0.773507	-0.384212	-1.156912
C480	C	1.273507	0.115788	-0.656912
C481	C	0.833192	-0.363165	-1.167983
C482	C	1.333192	0.136835	-0.667983
H483	H	0.769926	-0.416842	-1.177728
H484	H	1.269926	0.083158	-0.677728
H485	H	0.767691	-0.389060	-1.113066
H486	H	1.267691	0.110940	-0.613066
H487	H	0.742416	-0.361010	-1.172439
H488	H	1.242416	0.138990	-0.672439
H489	H	0.864281	-0.386363	-1.152449
H490	H	1.364281	0.113637	-0.652449
H491	H	0.839014	-0.358323	-1.211827
H492	H	1.339014	0.141677	-0.711827
H493	H	0.836609	-0.312363	-0.543796
H494	H	1.336609	0.187637	-0.043796
O495	O	0.989172	-0.185599	-0.939676
O496	O	1.489172	0.314401	-0.439676
C497	C	1.024741	-0.156076	-0.982813
C498	C	1.524741	0.343924	-0.482813
H499	H	0.998959	-0.154256	-1.029656
H500	H	1.498959	0.345744	-0.529656
H501	H	1.072533	-0.175211	-0.989841
H502	H	1.572533	0.324789	-0.489841
C503	C	1.065527	-0.102671	-0.899627
C504	C	1.565527	0.397329	-0.399627
C505	C	1.033859	-0.100432	-0.957159
C506	C	1.533859	0.399568	-0.457159
H507	H	1.071155	-0.068347	-0.883802
H508	H	1.571155	0.431653	-0.383802
H509	H	1.041566	-0.122562	-0.870564
H510	H	1.541566	0.377438	-0.370564
H511	H	1.105351	-0.118619	-0.905492
H512	H	1.605351	0.381381	-0.405492
H513	H	0.994033	-0.084490	-0.951291
H514	H	1.494033	0.415510	-0.451291
H515	H	1.057813	-0.080536	-0.986220
H516	H	1.557813	0.419464	-0.486220
H517	H	0.982819	-0.190863	-1.064008
H518	H	1.482819	0.309137	-0.564008
