data_functionalizedCrystal
_audit_creation_method	'MofGen! by Chris Wilmer'
_symmetry_space_group_name_H-M	'P1'
_symmetry_Int_Tables_number	1
_symmetry_cell_setting	triclinic
loop_
_symmetry_equiv_pos_as_xyz
  x,y,z
_cell_length_a	16.992694
_cell_length_b	9.065218
_cell_length_c	8.140239
_cell_angle_alpha	89.998314
_cell_angle_beta	90.002898
_cell_angle_gamma	87.842054
loop_
_atom_site_label
_atom_site_type_symbol
_atom_site_fract_x
_atom_site_fract_y
_atom_site_fract_z
O1	O	1.042613	0.313082	-0.136397
O2	O	1.542613	0.813082	0.363603
O3	O	0.814303	0.309648	-0.136445
O4	O	1.314303	0.809648	0.363555
O5	O	0.933177	0.097160	-0.136417
O6	O	1.433177	0.597160	0.363583
O7	O	0.923739	0.525570	-0.136425
O8	O	1.423739	1.025570	0.363575
O9	O	0.933170	0.097157	0.136810
O10	O	1.433170	0.597157	0.636810
O11	O	0.814297	0.309644	0.136782
O12	O	1.314297	0.809644	0.636782
O13	O	1.042606	0.313079	0.136830
O14	O	1.542606	0.813079	0.636830
Zn15	Zn	0.928450	0.311361	0.180187
Zn16	Zn	1.428450	0.811361	0.680187
Zn17	Zn	0.928459	0.311366	-0.179802
Zn18	Zn	1.428459	0.811366	0.320198
O19	O	0.923732	0.525566	0.136802
O20	O	1.423732	1.025566	0.636802
C21	C	0.785056	0.305227	0.000162
C22	C	1.285056	0.805227	0.500162
C23	C	0.697918	0.292043	0.000143
C24	C	1.197918	0.792043	0.500143
C25	C	0.932267	0.042088	0.000194
C26	C	1.432267	0.542088	0.500194
C27	C	0.929555	-0.122007	0.000186
C28	C	1.429555	0.377993	0.500186
C29	C	0.648581	0.419249	0.000142
C30	C	1.148581	0.919249	0.500142
C31	C	0.566706	0.406853	0.000165
C32	C	1.066706	0.906853	0.500165
C33	C	0.534170	0.267249	0.000177
C34	C	1.034170	0.767249	0.500177
C35	C	0.583514	0.140034	0.000184
C36	C	1.083514	0.640034	0.500184
C37	C	0.665387	0.152432	0.000173
C38	C	1.165387	0.652432	0.500173
C39	C	0.290208	0.215866	0.000222
C40	C	0.790208	0.715866	0.500222
C41	C	0.208328	0.203477	0.000229
C42	C	0.708328	0.703477	0.500229
C43	C	0.191526	0.470298	0.000213
C44	C	0.691526	0.970298	0.500213
C45	C	0.273402	0.482683	0.000192
C46	C	0.773402	0.982683	0.500192
C47	C	0.322738	0.355468	0.000207
C48	C	0.822738	0.855468	0.500207
N49	N	0.450482	0.254575	0.000196
N50	N	0.950482	0.754575	0.500196
N51	N	0.406425	0.368144	0.000200
N52	N	0.906425	0.868144	0.500200
C53	C	1.071853	0.317499	0.000220
C54	C	1.571853	0.817499	0.500220
C55	C	1.158991	0.330683	0.000227
C56	C	1.658991	0.830683	0.500227
C57	C	0.924643	0.580639	0.000187
C58	C	1.424643	1.080639	0.500187
C59	C	0.927355	0.744733	0.000185
C60	C	1.427355	1.244733	0.500185
N61	N	0.928450	0.311358	0.425869
N62	N	1.428450	0.811358	0.925869
N63	N	0.928465	0.311358	-0.425484
N64	N	1.428465	0.811358	0.074516
H65	H	0.675065	0.532930	0.000131
H66	H	1.175065	1.032930	0.500131
Br67	Br	0.499751	0.579498	0.000158
Br68	Br	0.999751	1.079498	0.500158
H69	H	0.299886	0.596363	0.000163
H70	H	0.799886	1.096363	0.500163
H71	H	0.151349	0.573869	0.000204
H72	H	0.651349	1.073869	0.500204
Br73	Br	0.539359	-0.049431	0.000217
Br74	Br	1.039359	0.450569	0.500217
Br75	Br	0.164173	0.014003	0.000281
Br76	Br	0.664173	0.514003	0.500281
Br77	Br	0.357154	0.043214	0.000247
Br78	Br	0.857154	0.543214	0.500247
Br79	Br	0.732346	-0.020212	0.000189
Br80	Br	1.232346	0.479788	0.500189
