data_functionalizedCrystal
_audit_creation_method	'MofGen! by Chris Wilmer'
_symmetry_space_group_name_H-M	'P1'
_symmetry_Int_Tables_number	1
_symmetry_cell_setting	triclinic
loop_
_symmetry_equiv_pos_as_xyz
  x,y,z
_cell_length_a	12.759401
_cell_length_b	18.050589
_cell_length_c	12.759393
_cell_angle_alpha	90.029266
_cell_angle_beta	90.018202
_cell_angle_gamma	90.028382
loop_
_atom_site_label
_atom_site_type_symbol
_atom_site_fract_x
_atom_site_fract_y
_atom_site_fract_z
Zn1	Zn	1.606154	-0.295622	0.593988
Zn2	Zn	1.606007	-0.419830	0.418311
Zn3	Zn	1.430456	-0.295658	0.418328
Zn4	Zn	1.430403	-0.419775	0.593953
O5	O	1.518255	-0.357721	0.506145
O6	O	1.753155	-0.312106	0.570692
O7	O	1.582681	-0.403396	0.271292
O8	O	1.453847	-0.191729	0.441651
O9	O	1.753048	-0.403361	0.441623
O10	O	1.582931	-0.191703	0.570708
O11	O	1.453705	-0.312168	0.271304
O12	O	1.283428	-0.312115	0.441617
O13	O	1.453755	-0.403269	0.740979
O14	O	1.283389	-0.403303	0.570648
O15	O	1.582879	-0.312054	0.741005
O16	O	1.582629	-0.523747	0.441589
O17	O	1.453613	-0.523707	0.570632
C18	C	1.245288	-0.357708	0.506131
C19	C	1.128511	-0.357720	0.506149
C20	C	1.073656	-0.405278	0.573225
C21	C	0.963932	-0.405287	0.573236
C22	C	0.963928	-0.310179	0.439088
C23	C	1.073650	-0.310166	0.439083
C24	C	1.128517	-0.452831	0.640292
C25	C	1.073662	-0.500393	0.707372
C26	C	0.963938	-0.500403	0.707383
C27	C	0.909069	-0.452850	0.640314
C28	C	1.518128	-0.550674	0.506127
C29	C	1.518170	-0.633219	0.506155
C30	C	1.448080	-0.832675	0.576304
C31	C	1.422466	-0.882122	0.480436
C32	C	1.518273	-0.784350	0.506169
C33	C	1.543939	-0.881984	0.602048
C34	C	1.518371	-0.930335	0.506191
C35	C	1.492609	-0.832710	0.410250
C36	C	1.614126	-0.832567	0.531927
C37	C	1.588549	-0.881992	0.435992
C38	C	1.518214	-0.700251	0.506158
C39	C	1.518430	-1.014431	0.506191
C40	C	1.792288	-0.357736	0.506160
C41	C	1.909065	-0.357742	0.506166
C42	C	1.518327	-0.357651	0.780178
C43	C	1.518358	-0.357621	0.896955
C44	C	1.518411	-0.164016	0.506185
C45	C	1.518477	-0.081470	0.506203
C46	C	1.518244	-0.357738	0.233178
C47	C	1.518417	-0.357559	0.116401
C48	C	1.585554	-0.405070	1.061540
C49	C	1.585523	-0.405103	0.951816
C50	C	1.451213	-0.310108	0.951824
C51	C	1.451240	-0.310079	1.061547
C52	C	1.652731	-0.452550	1.116395
C53	C	1.719876	-0.500064	1.061533
C54	C	1.719844	-0.500097	0.951809
C55	C	1.652668	-0.452616	0.896946
H56	H	1.118314	-0.271435	0.384472
C57	C	1.377336	-0.257878	0.891478
H58	H	1.386944	-0.264695	0.818274
H59	H	1.306740	-0.268734	0.909449
H60	H	1.392767	-0.207973	0.909472
C61	C	1.313026	-0.911533	0.451003
H62	H	1.317848	-0.940506	0.389013
H63	H	1.286688	-0.941225	0.506522
H64	H	1.267024	-0.871003	0.439303
H65	H	0.919245	-0.271464	0.384483
H66	H	1.647951	-0.903510	0.376622
C67	C	1.793761	-0.552289	1.121876
H68	H	1.784173	-0.545461	1.195081
H69	H	1.778345	-0.602193	1.103889
H70	H	1.864358	-0.541422	1.103896
C71	C	1.367779	-0.803414	0.656312
H72	H	1.299740	-0.820384	0.637842
H73	H	1.385307	-0.821009	0.724241
H74	H	1.368736	-0.750788	0.656190
H75	H	1.396573	-0.271389	1.106216
H76	H	1.217860	-0.452830	0.640288
H77	H	1.118344	-0.539104	0.761983
C78	C	1.723561	-0.803165	0.561372
H79	H	1.741666	-0.820013	0.629539
H80	H	1.773606	-0.820803	0.512239
H81	H	1.722922	-0.750541	0.560524
H82	H	1.774510	-0.538790	0.907143
C83	C	1.652631	-0.452656	0.776252
H84	H	1.702240	-0.487751	0.751433
H85	H	1.584816	-0.465500	0.751426
H86	H	1.670839	-0.404737	0.751439
C87	C	1.463199	-0.803597	0.300697
H88	H	1.463305	-0.750967	0.301368
H89	H	1.512778	-0.820875	0.250841
H90	H	1.395349	-0.820978	0.282306
H91	H	0.919278	-0.539125	0.762010
H92	H	1.565608	-0.903629	0.683124
H93	H	0.819724	-0.452855	0.640338
C94	C	1.652714	-0.452554	1.237087
H95	H	1.702315	-0.487649	1.261901
H96	H	1.670904	-0.404633	1.261972
H97	H	1.584893	-0.465406	1.261846
