data_functionalizedCrystal
_audit_creation_method	'MofGen! by Chris Wilmer'
_symmetry_space_group_name_H-M	'P1'
_symmetry_Int_Tables_number	1
_symmetry_cell_setting	triclinic
loop_
_symmetry_equiv_pos_as_xyz
  x,y,z
_cell_length_a	13.033293
_cell_length_b	12.759387
_cell_length_c	13.032721
_cell_angle_alpha	82.852552
_cell_angle_beta	74.815879
_cell_angle_gamma	82.790328
loop_
_atom_site_label
_atom_site_type_symbol
_atom_site_fract_x
_atom_site_fract_y
_atom_site_fract_z
Zn1	Zn	1.570238	-0.822551	0.216729
Zn2	Zn	1.547550	-0.666640	0.394391
Zn3	Zn	1.392595	-0.627044	0.239325
Zn4	Zn	1.370017	-0.822430	0.416834
O5	O	1.470100	-0.734666	0.316820
O6	O	1.715871	-0.818490	0.221447
O7	O	1.526949	-0.514368	0.373885
O8	O	1.435103	-0.636458	0.087687
O9	O	1.699202	-0.703943	0.351974
O10	O	1.565617	-0.780096	0.071085
O11	O	1.413104	-0.485278	0.259958
O12	O	1.240957	-0.636341	0.281721
O13	O	1.396623	-0.969465	0.390226
O14	O	1.224369	-0.779890	0.412137
O15	O	1.543724	-0.969554	0.243209
O16	O	1.505056	-0.703826	0.546008
O17	O	1.374623	-0.818284	0.562498
C18	C	1.194122	-0.703807	0.351817
C19	C	1.076054	-0.690633	0.366815
C20	C	1.031650	-0.741545	0.309019
C21	C	0.909621	-0.727930	0.324518
C22	C	1.470186	-1.008696	0.316701
C23	C	1.470222	-1.125471	0.316650
C24	C	1.351686	-1.095198	0.198008
C25	C	1.292439	-1.134922	0.138664
C26	C	1.292476	-1.244643	0.138622
C27	C	1.351763	-1.314644	0.197933
C28	C	1.411009	-1.274920	0.257277
C29	C	1.410969	-1.165194	0.257310
C30	C	1.529539	-1.305192	0.375923
C31	C	1.529509	-1.195472	0.375961
C32	C	1.588825	-1.375194	0.435234
C33	C	1.648079	-1.335470	0.494574
C34	C	1.648041	-1.225742	0.494613
C35	C	1.588756	-1.155748	0.435305
C36	C	1.747156	-0.765647	0.281686
C37	C	1.865220	-0.778849	0.266714
C38	C	1.434956	-0.765365	0.592790
C39	C	1.420019	-0.778544	0.710839
C40	C	1.470085	-0.461701	0.316854
C41	C	1.470292	-0.344916	0.316579
C42	C	1.505410	-0.703874	0.039768
C43	C	1.520456	-0.690752	-0.078295
C44	C	1.477952	-0.727842	0.755269
C45	C	1.462515	-0.741461	0.877279
H46	H	0.857298	-0.674256	0.385476
Cl47	Cl	0.945994	-0.861706	0.172586
Cl48	Cl	1.217931	-1.046917	0.064086
Cl49	Cl	1.588860	-1.513129	0.435193
Cl50	Cl	0.995276	-0.607765	0.460924
Cl51	Cl	1.588707	-1.017810	0.435345
Cl52	Cl	1.722594	-1.423473	0.569136
Cl53	Cl	1.722520	-1.175813	0.569229
Cl54	Cl	1.351650	-0.957260	0.198042
Cl55	Cl	1.325800	-0.861139	0.791561
H56	H	1.581492	-0.637262	0.869419
Cl57	Cl	1.218000	-1.294584	0.064011
H58	H	1.538984	-0.674355	0.702981
Cl59	Cl	1.368292	-0.824061	0.957997
H60	H	1.083976	-0.795208	0.248059
H61	H	1.351777	-1.403983	0.197903
