data_functionalizedCrystal
_audit_creation_method	'MofGen! by Chris Wilmer'
_symmetry_space_group_name_H-M	'P1'
_symmetry_Int_Tables_number	1
_symmetry_cell_setting	triclinic
loop_
_symmetry_equiv_pos_as_xyz
  x,y,z
_cell_length_a	10.723024
_cell_length_b	8.559649
_cell_length_c	7.088929
_cell_angle_alpha	95.344185
_cell_angle_beta	96.263408
_cell_angle_gamma	102.876733
loop_
_atom_site_label
_atom_site_type_symbol
_atom_site_fract_x
_atom_site_fract_y
_atom_site_fract_z
O1	O	1.619870	-0.240138	-0.158966
O2	O	1.254520	-0.261568	-0.158971
O3	O	1.469383	-0.018604	-0.158966
O4	O	1.405007	-0.483102	-0.158971
O5	O	1.498104	0.013940	0.159010
O6	O	1.283241	-0.229024	0.159005
O7	O	1.648591	-0.207595	0.159010
Cu8	Cu	1.468539	-0.215338	0.188041
Cu9	Cu	1.434572	-0.253824	-0.188002
O10	O	1.433728	-0.450559	0.159005
C11	C	1.222541	-0.243736	0.000016
C12	C	1.084465	-0.239071	0.000013
N13	N	1.492438	-0.188267	0.452530
C14	C	1.488622	0.057144	0.000019
C15	C	1.503142	0.234364	0.000008
C16	C	0.995544	-0.375021	0.000011
C17	C	0.852834	-0.370202	0.000008
C18	C	1.680570	-0.225426	0.000019
C19	C	1.818645	-0.230093	0.000009
C20	C	1.414489	-0.526307	0.000016
C21	C	1.399967	-0.703528	0.000014
N22	N	1.410684	-0.280882	-0.452491
H23	H	1.025068	-0.494979	0.000020
H24	H	1.602593	0.316782	0.000025
H25	H	1.054937	-0.119117	-0.000034
H26	H	1.325957	-0.376858	0.465861
H27	H	0.776469	-0.486586	-0.000002
H28	H	1.577179	-0.092297	0.534188
H29	H	0.895002	-0.113704	-0.000001
Cl30	Cl	1.246430	0.169246	0.000016
