data_functionalizedCrystal
_audit_creation_method	'MofGen! by Chris Wilmer'
_symmetry_space_group_name_H-M	'P1'
_symmetry_Int_Tables_number	1
_symmetry_cell_setting	triclinic
loop_
_symmetry_equiv_pos_as_xyz
  x,y,z
_cell_length_a	16.974829
_cell_length_b	15.995292
_cell_length_c	15.455313
_cell_angle_alpha	92.667666
_cell_angle_beta	83.671566
_cell_angle_gamma	83.433527
loop_
_atom_site_label
_atom_site_type_symbol
_atom_site_fract_x
_atom_site_fract_y
_atom_site_fract_z
O1	O	1.056154	0.099317	-0.146261
O2	O	0.825166	0.113728	-0.130048
O3	O	0.946998	-0.015398	-0.138601
O4	O	0.934321	0.228443	-0.137708
O5	O	0.940031	-0.008045	0.006151
O6	O	0.818199	0.121081	0.014703
O7	O	1.049187	0.106671	-0.001510
Cu8	Cu	0.933057	0.114548	0.019814
Cu9	Cu	0.941296	0.105851	-0.151371
O10	O	0.927354	0.235797	0.007043
C11	C	0.792124	0.116992	-0.055598
C12	C	0.704051	0.115753	-0.049416
C13	C	0.207880	0.109236	-0.006150
C14	C	0.290634	0.110400	-0.011960
C15	C	0.335810	0.106967	-0.093770
C16	C	0.298226	0.102379	-0.169775
C17	C	0.215473	0.101221	-0.163964
C18	C	0.583714	0.110006	-0.119610
C19	C	0.666473	0.111162	-0.125416
C20	C	0.658875	0.119185	0.032401
C21	C	0.576121	0.118022	0.038204
C22	C	0.538544	0.113438	-0.037801
N23	N	0.420398	0.108155	-0.099711
N24	N	0.453956	0.112256	-0.031859
C25	C	0.942999	-0.042915	-0.066191
C26	C	0.941452	-0.135861	-0.066089
C27	C	0.935765	-0.473572	-0.065682
C28	C	1.023685	-0.450655	-0.071531
C29	C	1.025372	-0.354004	-0.071977
C30	C	0.938587	-0.306030	-0.065883
C31	C	0.898602	-0.339124	-0.145455
C32	C	0.897547	-0.435913	-0.145447
C33	C	0.887828	-0.427399	0.019289
C34	C	0.891034	-0.330866	0.020149
C35	C	0.940177	-0.211341	-0.066000
C36	C	0.934173	-0.568260	-0.065571
C37	C	1.082228	0.103406	-0.075962
C38	C	1.170302	0.104645	-0.082149
C39	C	0.931354	0.263313	-0.065369
C40	C	0.932900	0.356259	-0.065476
N41	N	0.927267	0.120664	0.140216
N42	N	0.947091	0.099728	-0.271774
C43	C	0.979044	0.065827	0.181975
C44	C	0.974673	0.070460	0.273090
C45	C	0.918529	0.129935	0.322443
C46	C	0.866747	0.184774	0.280678
C47	C	0.871114	0.180137	0.189565
C48	C	0.899677	0.149930	0.595348
C49	C	0.895315	0.154565	0.686467
C50	C	1.003240	0.040249	0.678872
C51	C	1.007606	0.035620	0.587758
C52	C	0.955821	0.090457	0.546001
N53	N	0.914062	0.134674	0.415577
N54	N	0.960286	0.085713	0.452869
H55	H	0.553129	0.106270	-0.181499
H56	H	0.828951	0.224790	0.155566
H57	H	0.912505	-0.452434	0.079999
C58	C	0.700204	0.124245	0.116005
C59	C	0.694711	0.054700	0.181281
C60	C	0.736037	0.059768	0.264891
C61	C	0.782856	0.134382	0.283225
C62	C	0.788352	0.203933	0.217947
C63	C	0.747026	0.198864	0.134337
H64	H	0.660051	-0.000539	0.167711
H65	H	0.731968	0.008281	0.313214
H66	H	0.813448	0.138133	0.345118
H67	H	0.823012	0.259171	0.231518
H68	H	0.751094	0.250351	0.086014
C69	C	1.076010	-0.333428	-0.155453
C70	C	1.164501	-0.370264	-0.173567
C71	C	1.215137	-0.349689	-0.257049
C72	C	1.177283	-0.292279	-0.322418
C73	C	1.088788	-0.255439	-0.304306
C74	C	1.038152	-0.276013	-0.220824
H75	H	1.192527	-0.412766	-0.125175
H76	H	1.280647	-0.376961	-0.270457
H77	H	1.214767	-0.277048	-0.384217
H78	H	1.060762	-0.212937	-0.352698
H79	H	0.972642	-0.248742	-0.207417
C80	C	0.930301	-0.301772	0.099718
C81	C	0.937575	-0.207582	0.117395
C82	C	0.976846	-0.178474	0.196957
C83	C	1.008842	-0.243556	0.258842
C84	C	1.001569	-0.337752	0.241167
C85	C	0.962298	-0.366860	0.161605
H86	H	0.913889	-0.159399	0.071582
H87	H	0.982230	-0.108743	0.210040
H88	H	1.037913	-0.222008	0.317738
H89	H	1.025256	-0.385935	0.286979
H90	H	0.956914	-0.436590	0.148521
C91	C	0.804986	0.250199	0.334962
C92	C	0.800215	0.255347	0.435180
C93	C	0.738455	0.320776	0.489461
C94	C	0.681465	0.381056	0.443524
C95	C	0.686234	0.375910	0.343301
C96	C	0.747995	0.310482	0.289020
H97	H	0.842404	0.210722	0.469191
H98	H	0.734925	0.324585	0.563654
H99	H	0.635747	0.429491	0.483706
H100	H	0.644046	0.420535	0.309290
H101	H	0.751525	0.306672	0.214827
C102	C	0.158190	0.113013	0.083845
C103	C	0.109275	0.040615	0.108917
C104	C	0.059588	0.044395	0.198914
C105	C	0.058817	0.120573	0.263839
C106	C	0.107734	0.192976	0.238767
C107	C	0.157421	0.189196	0.148770
H108	H	0.109844	-0.015781	0.060855
H109	H	0.023376	-0.009203	0.217474
H110	H	0.022035	0.123371	0.330460
H111	H	0.107164	0.249373	0.286830
H112	H	0.193632	0.242795	0.130211
H113	H	0.335014	0.099589	-0.236387
H114	H	0.857513	0.194582	0.561356
H115	H	0.823074	-0.441058	0.024390
C116	C	0.526435	0.121794	0.128201
C117	C	0.525662	0.197964	0.193136
C118	C	0.475980	0.201728	0.283134
C119	C	0.427072	0.129322	0.308198
C120	C	0.427844	0.053147	0.243262
C121	C	0.477525	0.049383	0.153263
H122	H	0.561868	0.251568	0.174583
H123	H	0.475409	0.258119	0.331205
H124	H	0.390294	0.132109	0.374821
H125	H	0.391637	-0.000457	0.261814
H126	H	0.478096	-0.007008	0.105193
C127	C	0.943845	-0.316450	-0.231457
C128	C	1.032817	-0.349595	-0.254851
C129	C	1.078064	-0.326923	-0.340850
C130	C	1.034340	-0.271106	-0.403456
C131	C	0.945364	-0.237958	-0.380064
C132	C	0.900116	-0.260630	-0.294064
H133	H	1.065188	-0.390917	-0.208505
H134	H	1.143931	-0.351462	-0.358166
H135	H	1.067836	-0.254324	-0.467118
H136	H	0.912992	-0.196636	-0.426410
H137	H	0.834249	-0.236091	-0.276748
H138	H	0.321226	0.114137	0.049927
H139	H	1.056951	-0.332131	-0.015144
C140	C	0.805133	-0.285587	0.032908
C141	C	0.776533	-0.224999	-0.034875
C142	C	0.690628	-0.179720	-0.022122
C143	C	0.633323	-0.195028	0.058413
C144	C	0.661922	-0.255619	0.126202
C145	C	0.747827	-0.300899	0.113449
H146	H	0.818954	-0.213664	-0.094497
H147	H	0.669458	-0.134866	-0.072304
H148	H	0.569732	-0.161509	0.067854
H149	H	0.619501	-0.266954	0.185824
H150	H	0.768997	-0.345752	0.163631
H151	H	0.184878	0.097485	-0.225851
H152	H	1.054726	-0.475800	-0.014633
C153	C	0.716172	0.107399	-0.215410
C154	C	0.783128	0.034390	-0.241740
C155	C	0.832829	0.030629	-0.331727
C156	C	0.815575	0.099878	-0.395384
C157	C	0.748616	0.172893	-0.369055
C158	C	0.698914	0.176653	-0.279068
H159	H	0.795904	-0.016877	-0.194616
H160	H	0.882397	-0.023422	-0.351217
H161	H	0.852366	0.097094	-0.461998
H162	H	0.735840	0.224160	-0.416179
H163	H	0.649347	0.230704	-0.259578
C164	C	1.073055	-0.494109	-0.154359
C165	C	1.147728	-0.556523	-0.146768
C166	C	1.197094	-0.599978	-0.229597
C167	C	1.171787	-0.581020	-0.320017
C168	C	1.097111	-0.518604	-0.327611
C169	C	1.047744	-0.475148	-0.244782
H170	H	1.166465	-0.570559	-0.079831
H171	H	1.252375	-0.646184	-0.223975
H172	H	1.208331	-0.613189	-0.381332
H173	H	1.078374	-0.504567	-0.394548
H174	H	0.992464	-0.428943	-0.250404
C175	C	0.942703	-0.476581	-0.231802
C176	C	1.016986	-0.541364	-0.230726
C177	C	1.062146	-0.582027	-0.317081
C178	C	1.033023	-0.557906	-0.404513
C179	C	0.958736	-0.493120	-0.405593
C180	C	0.913576	-0.452457	-0.319237
H181	H	1.038548	-0.559222	-0.166000
H182	H	1.117138	-0.629986	-0.316282
H183	H	1.066453	-0.588007	-0.468439
H184	H	0.937174	-0.475262	-0.470318
H185	H	0.858584	-0.404498	-0.320037
C186	C	0.810694	-0.455427	-0.144413
C187	C	0.742518	-0.382969	-0.143601
C188	C	0.655669	-0.402480	-0.142574
C189	C	0.636996	-0.494449	-0.142360
C190	C	0.705174	-0.566913	-0.143171
C191	C	0.792023	-0.547402	-0.144198
H192	H	0.756339	-0.314883	-0.143760
H193	H	0.605199	-0.348837	-0.141973
H194	H	0.572705	-0.508892	-0.141600
H195	H	0.691353	-0.635000	-0.143012
H196	H	0.842493	-0.601045	-0.144799
C197	C	1.040805	0.000402	0.127691
C198	C	1.045616	-0.004704	0.027470
C199	C	1.107376	-0.070133	-0.026811
C200	C	1.164325	-0.130456	0.019128
C201	C	1.159516	-0.125352	0.119355
C202	C	1.097756	-0.059923	0.173636
H203	H	1.003457	0.039952	-0.006543
H204	H	1.110936	-0.073910	-0.101006
H205	H	1.210044	-0.178890	-0.021054
H206	H	1.201675	-0.170008	0.153367
H207	H	1.094196	-0.056145	0.247831
H208	H	0.834887	-0.307113	-0.144044
H209	H	1.016833	0.025806	0.307089
H210	H	1.053323	-0.012809	0.547576
H211	H	1.045400	-0.004397	0.712880
H212	H	0.849593	0.203001	0.726647
