data_functionalizedCrystal
_audit_creation_method	'MofGen! by Chris Wilmer'
_symmetry_space_group_name_H-M	'P1'
_symmetry_Int_Tables_number	1
_symmetry_cell_setting	triclinic
loop_
_symmetry_equiv_pos_as_xyz
  x,y,z
_cell_length_a	19.188929
_cell_length_b	9.065218
_cell_length_c	7.540329
_cell_angle_alpha	89.996962
_cell_angle_beta	90.025368
_cell_angle_gamma	95.919666
loop_
_atom_site_label
_atom_site_type_symbol
_atom_site_fract_x
_atom_site_fract_y
_atom_site_fract_z
O1	O	-0.102370	1.956847	-0.147586
O2	O	0.397630	2.456847	0.352414
O3	O	-0.110766	1.527271	-0.147597
O4	O	0.389234	2.027271	0.352403
O5	O	-0.005009	1.754456	-0.147482
O6	O	0.494991	2.254456	0.352518
O7	O	-0.208127	1.729662	-0.147701
O8	O	0.291873	2.229662	0.352299
O9	O	-0.005007	1.754442	0.147483
O10	O	0.494993	2.254442	0.647483
O11	O	-0.110765	1.527257	0.147368
O12	O	0.389235	2.027257	0.647368
O13	O	-0.102368	1.956833	0.147379
O14	O	0.397632	2.456833	0.647379
Cu15	Cu	-0.106566	1.742044	0.174306
Cu16	Cu	0.393434	2.242044	0.674306
Cu17	Cu	-0.106568	1.742060	-0.174524
Cu18	Cu	0.393432	2.242060	0.325476
O19	O	-0.208126	1.729649	0.147264
O20	O	0.291874	2.229649	0.647264
C21	C	-0.109959	1.472305	-0.000114
C22	C	0.390041	1.972305	0.499886
C23	C	-0.107546	1.308546	-0.000112
C24	C	0.392454	1.808546	0.499888
C25	C	-0.234144	1.730458	-0.000247
C26	C	0.265856	2.230458	0.499753
C27	C	-0.311667	1.732869	-0.000331
C28	C	0.188333	2.232869	0.499669
C29	C	-0.355555	1.599564	-0.000299
C30	C	0.144445	2.099564	0.499701
C31	C	-0.428397	1.601828	-0.000259
C32	C	0.071603	2.101828	0.499741
C33	C	-0.457347	1.737405	-0.000216
C34	C	0.042653	2.237405	0.499784
C35	C	-0.413449	1.870727	-0.000258
C36	C	0.086551	2.370727	0.499742
C37	C	-0.340609	1.868459	-0.000316
C38	C	0.159391	2.368459	0.499684
N39	N	-0.566120	1.841031	0.100282
N40	N	-0.066120	2.341031	0.600282
N41	N	-0.635315	1.843177	0.100341
N42	N	-0.135315	2.343177	0.600341
C43	C	-0.676808	1.744247	-0.000045
C44	C	-0.176808	2.244247	0.499955
N45	N	-0.646494	1.643068	-0.100469
N46	N	-0.146494	2.143068	0.399531
N47	N	-0.577292	1.640918	-0.100520
N48	N	-0.077292	2.140918	0.399480
C49	C	-0.536328	1.739879	-0.000154
C50	C	-0.036328	2.239879	0.499846
C51	C	-0.799680	1.613388	0.000029
C52	C	-0.299680	2.113388	0.500029
C53	C	-0.872523	1.615658	0.000058
C54	C	-0.372523	2.115658	0.500058
C55	C	-0.857573	1.884560	0.000076
C56	C	-0.357573	2.384560	0.500076
C57	C	-0.784732	1.882287	0.000029
C58	C	-0.284732	2.382287	0.500029
C59	C	-0.755790	1.746696	0.000014
C60	C	-0.255790	2.246696	0.500014
C61	C	0.021009	1.753646	0.000025
C62	C	0.521009	2.253646	0.500025
C63	C	0.098533	1.751236	0.000098
C64	C	0.598533	2.251236	0.500098
C65	C	-0.103176	2.011799	-0.000108
C66	C	0.396824	2.511799	0.499892
C67	C	-0.105589	2.175558	-0.000121
C68	C	0.394411	2.675558	0.499879
N69	N	-0.106565	1.742044	0.419655
N70	N	0.393435	2.242044	0.919655
N71	N	-0.106564	1.742072	-0.419873
N72	N	0.393436	2.242072	0.080127
H73	H	-0.331996	1.489156	-0.000327
H74	H	0.168004	1.989156	0.499673
C75	C	-0.476683	1.455188	-0.000212
C76	C	0.023317	1.955188	0.499788
H77	H	-0.449013	1.374113	-0.000220
H78	H	0.050987	1.874113	0.499780
H79	H	-0.505442	1.450481	-0.103046
H80	H	-0.005442	1.950481	0.396954
H81	H	-0.505374	1.450495	0.102689
H82	H	-0.005374	1.950495	0.602689
H83	H	-0.748997	1.990838	0.000014
H84	H	-0.248997	2.490838	0.500014
C85	C	-0.445291	2.019857	-0.000201
C86	C	0.054709	2.519857	0.499799
H87	H	-0.494958	2.002116	-0.000142
H88	H	0.005042	2.502116	0.499858
H89	H	-0.430315	2.074736	-0.103067
H90	H	0.069685	2.574736	0.396933
H91	H	-0.430250	2.074716	0.102668
H92	H	0.069750	2.574716	0.602668
C93	C	-0.767841	1.464249	-0.000028
C94	C	-0.267841	1.964249	0.499972
H95	H	-0.804415	1.385178	-0.000035
H96	H	-0.304415	1.885178	0.499965
H97	H	-0.739706	1.457756	0.102807
H98	H	-0.239706	1.957756	0.602807
H99	H	-0.739768	1.457794	-0.102927
H100	H	-0.239768	1.957794	0.397073
C101	C	-0.292330	2.015100	-0.000335
C102	C	0.207670	2.515100	0.499665
H103	H	-0.320001	2.096173	-0.000295
H104	H	0.179999	2.596173	0.499705
H105	H	-0.263630	2.019811	-0.103210
H106	H	0.236370	2.519811	0.396790
H107	H	-0.263579	2.019794	0.102524
H108	H	0.236421	2.519794	0.602524
C109	C	-0.920800	1.469015	0.000097
C110	C	-0.420800	1.969015	0.500097
H111	H	-0.893128	1.387944	0.000097
H112	H	-0.393128	1.887944	0.500097
H113	H	-0.949556	1.464303	-0.102742
H114	H	-0.449556	1.964303	0.397258
H115	H	-0.949495	1.464319	0.102993
H116	H	-0.449495	1.964319	0.602993
C117	C	-0.889409	2.033692	0.000132
C118	C	-0.389409	2.533692	0.500132
H119	H	-0.939076	2.015953	0.000183
H120	H	-0.439076	2.515953	0.500183
H121	H	-0.874431	2.088575	-0.102729
H122	H	-0.374431	2.588575	0.397271
H123	H	-0.874371	2.088547	0.103006
H124	H	-0.374371	2.588547	0.603006
