data_functionalizedCrystal
_audit_creation_method	'MofGen! by Chris Wilmer'
_symmetry_space_group_name_H-M	'P1'
_symmetry_Int_Tables_number	1
_symmetry_cell_setting	triclinic
loop_
_symmetry_equiv_pos_as_xyz
  x,y,z
_cell_length_a	14.044190
_cell_length_b	14.044220
_cell_length_c	12.503572
_cell_angle_alpha	86.164750
_cell_angle_beta	93.839403
_cell_angle_gamma	93.190328
loop_
_atom_site_label
_atom_site_type_symbol
_atom_site_fract_x
_atom_site_fract_y
_atom_site_fract_z
O1	O	0.225116	1.282207	-0.089227
O2	O	0.475116	1.532207	0.160773
O3	O	0.725116	1.782207	0.410773
O4	O	0.975116	2.032207	0.660773
O5	O	0.216809	1.005537	-0.089254
O6	O	0.466809	1.255537	0.160746
O7	O	0.716809	1.505537	0.410746
O8	O	0.966809	1.755537	0.660746
O9	O	0.082627	1.139714	-0.089220
O10	O	0.332627	1.389714	0.160780
O11	O	0.582627	1.639714	0.410780
O12	O	0.832627	1.889714	0.660780
O13	O	0.359297	1.148029	-0.089261
O14	O	0.609297	1.398029	0.160739
O15	O	0.859297	1.648029	0.410739
O16	O	1.109297	1.898029	0.660739
O17	O	0.092737	1.129625	0.089420
O18	O	0.342737	1.379625	0.339420
O19	O	0.592737	1.629625	0.589420
O20	O	0.842737	1.879625	0.839420
O21	O	0.226918	0.995447	0.089386
O22	O	0.476918	1.245447	0.339386
O23	O	0.726918	1.495447	0.589386
O24	O	0.976918	1.745447	0.839386
O25	O	0.235226	1.272117	0.089412
O26	O	0.485226	1.522117	0.339412
O27	O	0.735226	1.772117	0.589412
O28	O	0.985226	2.022117	0.839412
Cu29	Cu	0.231995	1.132861	0.105710
Cu30	Cu	0.481995	1.382861	0.355710
Cu31	Cu	0.731995	1.632861	0.605710
Cu32	Cu	0.981995	1.882861	0.855710
Cu33	Cu	0.220039	1.144793	-0.105552
Cu34	Cu	0.470039	1.394793	0.144448
Cu35	Cu	0.720039	1.644793	0.394448
Cu36	Cu	0.970039	1.894793	0.644448
O37	O	0.369407	1.137940	0.089378
O38	O	0.619407	1.387940	0.339378
O39	O	0.869407	1.637940	0.589378
O40	O	1.119407	1.887940	0.839378
C41	C	0.218228	0.964870	0.000063
C42	C	0.468228	1.214870	0.250063
C43	C	0.718228	1.464870	0.500063
C44	C	0.968228	1.714870	0.750063
C45	C	0.207383	0.858728	0.000054
C46	C	0.457383	1.108728	0.250054
C47	C	0.707383	1.358728	0.500054
C48	C	0.957383	1.608728	0.750054
C49	C	0.187558	0.664388	0.000078
C50	C	0.437558	0.914388	0.250078
C51	C	0.687558	1.164388	0.500078
C52	C	0.937558	1.414388	0.750078
C53	C	0.264472	0.613260	0.000071
C54	C	0.514472	0.863260	0.250071
C55	C	0.764472	1.113260	0.500071
C56	C	1.014472	1.363260	0.750071
C57	C	0.253441	0.505123	0.000085
C58	C	0.503441	0.755123	0.250085
C59	C	0.753441	1.005123	0.500085
C60	C	1.003441	1.255123	0.750085
C61	C	0.198587	0.772535	0.000065
C62	C	0.448587	1.022535	0.250065
C63	C	0.698587	1.272535	0.500065
C64	C	0.948587	1.522535	0.750065
C65	C	0.052060	1.131033	0.000103
C66	C	0.302060	1.381033	0.250103
C67	C	0.552060	1.631033	0.500103
C68	C	0.802060	1.881033	0.750103
C69	C	-0.054082	1.120185	0.000111
C70	C	0.195918	1.370185	0.250111
C71	C	0.445918	1.620185	0.500111
C72	C	0.695918	1.870185	0.750111
C73	C	-0.299543	1.177287	0.000075
C74	C	-0.049543	1.427287	0.250075
C75	C	0.200457	1.677287	0.500075
C76	C	0.450457	1.927287	0.750075
C77	C	-0.248417	1.100371	0.000075
C78	C	0.001583	1.350371	0.250075
C79	C	0.251583	1.600371	0.500075
C80	C	0.501583	1.850371	0.750075
C81	C	-0.140279	1.111398	0.000095
C82	C	0.109721	1.361398	0.250095
C83	C	0.359721	1.611398	0.500095
C84	C	0.609721	1.861398	0.750095
C85	C	-0.407691	1.166262	0.000054
C86	C	-0.157691	1.416262	0.250054
C87	C	0.092309	1.666262	0.500054
C88	C	0.342309	1.916262	0.750054
C89	C	0.399974	1.146621	0.000053
C90	C	0.649974	1.396621	0.250053
C91	C	0.899974	1.646621	0.500053
C92	C	1.149974	1.896621	0.750053
C93	C	0.506116	1.157469	0.000038
C94	C	0.756116	1.407469	0.250038
C95	C	1.006116	1.657469	0.500038
C96	C	1.256116	1.907469	0.750038
C97	C	0.233806	1.312784	0.000093
C98	C	0.483806	1.562784	0.250093
C99	C	0.733806	1.812784	0.500093
C100	C	0.983806	2.062784	0.750093
C101	C	0.244651	1.418927	0.000095
C102	C	0.494651	1.668927	0.250095
C103	C	0.744651	1.918927	0.500095
C104	C	0.994651	2.168927	0.750095
N105	N	0.240404	1.124476	0.254300
N106	N	0.490404	1.374476	0.504300
N107	N	0.740404	1.624476	0.754300
N108	N	0.990404	1.874476	1.004300
N109	N	0.211623	1.153185	-0.254142
N110	N	0.461623	1.403185	-0.004142
N111	N	0.711623	1.653185	0.245858
N112	N	0.961623	1.903185	0.495858
C113	C	0.252782	1.112141	0.473412
C114	C	0.502782	1.362141	0.723412
C115	C	0.752782	1.612141	0.973412
C116	C	1.002782	1.862141	1.223412
C117	C	0.199248	1.165517	0.526753
C118	C	0.449248	1.415517	0.776753
C119	C	0.699248	1.665517	1.026753
C120	C	0.949248	1.915517	1.276753
C121	C	0.206136	1.158654	0.648675
C122	C	0.456136	1.408654	0.898675
C123	C	0.706136	1.658654	1.148675
C124	C	0.956136	1.908654	1.398675
C125	C	0.245896	1.119003	0.351480
C126	C	0.495896	1.369003	0.601480
C127	C	0.745896	1.619003	0.851480
C128	C	0.995896	1.869003	1.101480
H129	H	0.338605	0.650703	0.000055
H130	H	0.588605	0.900703	0.250055
H131	H	0.838605	1.150703	0.500055
H132	H	1.088605	1.400703	0.750055
H133	H	0.113431	0.626948	0.000095
H134	H	0.363431	0.876948	0.250095
H135	H	0.613431	1.126948	0.500095
H136	H	0.863431	1.376948	0.750095
Cl137	Cl	-0.306224	0.985916	0.000062
Cl138	Cl	-0.056224	1.235916	0.250062
Cl139	Cl	0.193776	1.485916	0.500062
Cl140	Cl	0.443776	1.735916	0.750062
Cl141	Cl	0.120898	1.244423	0.455893
Cl142	Cl	0.370898	1.494423	0.705893
Cl143	Cl	0.620898	1.744423	0.955893
Cl144	Cl	0.870898	1.994423	1.205893
Cl145	Cl	0.331528	1.033638	0.544272
Cl146	Cl	0.581528	1.283638	0.794272
Cl147	Cl	0.831528	1.533638	1.044272
Cl148	Cl	1.081528	1.783638	1.294272
H149	H	-0.262101	1.251413	0.000093
H150	H	-0.012101	1.501413	0.250093
H151	H	0.237899	1.751413	0.500093
H152	H	0.487899	2.001413	0.750093
