data_functionalizedCrystal
_audit_creation_method	'MofGen! by Chris Wilmer'
_symmetry_space_group_name_H-M	'P1'
_symmetry_Int_Tables_number	1
_symmetry_cell_setting	triclinic
loop_
_symmetry_equiv_pos_as_xyz
  x,y,z
_cell_length_a	20.453700
_cell_length_b	7.190339
_cell_length_c	7.190334
_cell_angle_alpha	82.319600
_cell_angle_beta	60.612203
_cell_angle_gamma	60.612152
loop_
_atom_site_label
_atom_site_type_symbol
_atom_site_fract_x
_atom_site_fract_y
_atom_site_fract_z
V1	V	-1.436202	0.291660	0.663470
O2	O	-1.400514	-0.017558	0.652392
O3	O	-1.447999	0.581719	0.657439
O4	O	-1.448001	0.285637	0.953530
O5	O	-1.400513	0.280574	0.354251
V6	V	-1.590172	0.254851	0.626661
O7	O	-1.539089	0.372391	0.744199
O8	O	-1.637350	0.174116	0.545928
O9	O	-1.503973	-0.035206	0.632694
O10	O	-1.664992	0.564067	0.637738
O11	O	-1.664993	0.265935	0.935879
O12	O	-1.503972	0.260876	0.336603
V13	V	-1.256837	0.254860	0.626671
O14	O	-1.292526	0.265946	0.935889
O15	O	-1.245039	0.260884	0.336611
O16	O	-1.245040	-0.035199	0.632701
O17	O	-1.292525	0.564078	0.637749
V18	V	-1.102867	0.291669	0.663479
O19	O	-1.153950	0.174129	0.545941
O20	O	-1.055690	0.372405	0.744213
O21	O	-1.189067	0.285644	0.953537
O22	O	-1.028046	0.280585	0.354262
O23	O	-1.028047	-0.017547	0.652402
O24	O	-1.189066	0.581726	0.657447
V25	V	-0.923504	0.254863	0.626673
O26	O	-0.959191	0.265947	0.935890
O27	O	-0.911709	0.260889	0.336616
O28	O	-0.911711	-0.035193	0.632707
O29	O	-0.959190	0.564079	0.637750
V30	V	-0.769530	0.291657	0.663467
O31	O	-0.820617	0.174125	0.545937
O32	O	-0.722349	0.372386	0.744195
O33	O	-0.855729	0.285635	0.953529
O34	O	-0.694710	0.280571	0.354248
O35	O	-0.694711	-0.017561	0.652389
O36	O	-0.855727	0.581718	0.657438
C37	C	-1.402231	0.652481	0.646598
C38	C	-1.439853	0.894055	0.643549
C39	C	-1.402228	0.274786	1.024279
C40	C	-1.439847	0.271720	1.265850
C41	C	-1.290807	0.271727	0.265849
C42	C	-1.253187	0.274782	0.024276
C43	C	-1.290813	-0.105947	0.643555
C44	C	-1.253196	-0.347516	0.646631
C45	C	-0.919877	0.274871	0.024304
C46	C	-0.957494	0.271774	0.265871
C47	C	-0.957485	-0.105936	0.643566
C48	C	-0.919870	-0.347506	0.646642
