data_functionalizedCrystal
_audit_creation_method	'MofGen! by Chris Wilmer'
_symmetry_space_group_name_H-M	'P1'
_symmetry_Int_Tables_number	1
_symmetry_cell_setting	triclinic
loop_
_symmetry_equiv_pos_as_xyz
  x,y,z
_cell_length_a	17.038272
_cell_length_b	11.792241
_cell_length_c	10.868271
_cell_angle_alpha	90.005281
_cell_angle_beta	89.998595
_cell_angle_gamma	87.652486
loop_
_atom_site_label
_atom_site_type_symbol
_atom_site_fract_x
_atom_site_fract_y
_atom_site_fract_z
O1	O	-1.038456	-0.246565	-0.102169
O2	O	-0.810808	-0.242650	-0.102206
O3	O	-0.930157	-0.079921	-0.102178
O4	O	-0.919108	-0.409294	-0.102197
O5	O	-0.930147	-0.079913	0.102467
O6	O	-0.810798	-0.242642	0.102439
O7	O	-1.038446	-0.246557	0.102475
Zn8	Zn	-0.924621	-0.244598	0.134949
Zn9	Zn	-0.924634	-0.244609	-0.134679
O10	O	-0.919098	-0.409286	0.102448
C11	C	-0.781659	-0.239085	0.000112
C12	C	-0.694819	-0.228461	0.000099
C13	C	-0.929458	-0.037565	0.000144
C14	C	-0.927380	0.088630	0.000142
C15	C	-1.067595	-0.250122	0.000155
C16	C	-1.154435	-0.260746	0.000160
C17	C	-0.645136	-0.326001	0.000094
C18	C	-0.563542	-0.316012	0.000112
C19	C	-0.531632	-0.208482	0.000125
C20	C	-0.581321	-0.110935	0.000133
C21	C	-0.662914	-0.120925	0.000125
C22	C	-0.285718	-0.173189	0.000160
C23	C	-0.204118	-0.163206	0.000165
C24	C	-0.186344	-0.368284	0.000145
C25	C	-0.267940	-0.378265	0.000129
C26	C	-0.317622	-0.280718	0.000144
C27	C	-0.448229	-0.198269	0.000139
C28	C	-0.401023	-0.290932	0.000139
C29	C	-0.919797	-0.451642	0.000123
C30	C	-0.921874	-0.577837	0.000117
N31	N	-0.924618	-0.244591	0.318963
C32	C	-0.923561	0.319677	0.000121
C33	C	-0.925683	0.191106	0.000133
N34	N	-0.924643	-0.244607	-0.318693
C35	C	-0.924630	-0.244606	0.569969
C36	C	-0.924620	-0.244601	0.430292
H37	H	-0.671111	-0.413563	0.000082
F38	F	-0.133464	-0.472093	0.000132
F39	F	-0.510668	-0.419828	0.000101
F40	F	-0.547358	0.003507	0.000156
H41	H	-0.703366	-0.041497	0.000128
F42	F	-0.414261	-0.083831	0.000149
F43	F	-0.434986	-0.405369	0.000130
H44	H	-0.178141	-0.075638	0.000175
H45	H	-0.293914	-0.465827	0.000104
F46	F	-0.338583	-0.069369	0.000175
