data_functionalizedCrystal
_audit_creation_method	'MofGen! by Chris Wilmer'
_symmetry_space_group_name_H-M	'P1'
_symmetry_Int_Tables_number	1
_symmetry_cell_setting	triclinic
loop_
_symmetry_equiv_pos_as_xyz
  x,y,z
_cell_length_a	23.532407
_cell_length_b	22.610064
_cell_length_c	23.532416
_cell_angle_alpha	90.006497
_cell_angle_beta	97.149538
_cell_angle_gamma	90.002839
loop_
_atom_site_label
_atom_site_type_symbol
_atom_site_fract_x
_atom_site_fract_y
_atom_site_fract_z
O1	O	0.755266	0.049108	-0.069127
O2	O	0.589403	0.049125	-0.079130
O3	O	0.677333	0.049116	0.008803
O4	O	0.667335	0.049117	-0.157060
O5	O	0.677318	-0.049254	0.008790
O6	O	0.589387	-0.049244	-0.079143
O7	O	0.755250	-0.049261	-0.069140
Zn8	Zn	0.672316	-0.064871	-0.074143
Zn9	Zn	0.672337	0.064734	-0.074126
O10	O	0.667320	-0.049252	-0.157073
C11	C	0.568179	-0.000058	-0.078882
C12	C	0.504962	-0.000051	-0.078116
N13	N	0.672306	-0.153324	-0.074154
C14	C	0.105860	-0.000078	-0.125349
C15	C	0.046460	-0.000081	-0.124638
O16	O	0.009717	-0.000102	-0.168423
N17	N	0.023832	-0.000081	-0.072361
C18	C	0.060608	-0.000082	-0.020793
O19	O	0.035907	-0.000083	0.023737
C20	C	0.120007	-0.000083	-0.021506
C21	C	0.142631	-0.000078	-0.073785
C22	C	0.128485	-0.000073	-0.177624
C23	C	0.187881	-0.000068	-0.178335
C24	C	0.224652	-0.000068	-0.126771
C25	C	0.202028	-0.000073	-0.074496
C26	C	0.156782	-0.000089	0.030062
C27	C	0.216184	-0.000090	0.029345
C28	C	0.238809	-0.000085	-0.022934
C29	C	0.298195	-0.000068	-0.023643
N30	N	0.320823	-0.000069	-0.075919
C31	C	0.284052	-0.000069	-0.127483
C32	C	-0.064135	-0.000082	-0.019302
C33	C	-0.123532	-0.000077	-0.018589
C34	C	-0.137677	-0.000077	-0.122434
C35	C	-0.078278	-0.000078	-0.123146
C36	C	-0.041507	-0.000083	-0.071578
C37	C	0.408788	-0.000058	-0.128973
C38	C	0.468190	-0.000051	-0.129680
C39	C	0.482329	-0.000054	-0.025836
C40	C	0.422933	-0.000058	-0.025129
C41	C	0.386163	-0.000062	-0.076702
O42	O	0.334973	-0.000050	0.020119
O43	O	0.308761	-0.000076	-0.172006
C44	C	0.711274	-0.561969	-0.035196
C45	C	0.711277	-0.623889	-0.035191
O46	O	0.744384	-0.655911	-0.002076
N47	N	0.672336	-0.654861	-0.074114
C48	C	0.633386	-0.623909	-0.113040
O49	O	0.600264	-0.655939	-0.146147
C50	C	0.633381	-0.561991	-0.113041
C51	C	0.672328	-0.531022	-0.074120
C52	C	0.750217	-0.531000	0.003724
C53	C	0.750215	-0.469085	0.003719
C54	C	0.711269	-0.438138	-0.035206
C55	C	0.672326	-0.469106	-0.074125
C56	C	0.594429	-0.531040	-0.151964
C57	C	0.594427	-0.469117	-0.151961
C58	C	0.633374	-0.438149	-0.113040
C59	C	0.633378	-0.376244	-0.113054
N60	N	0.672318	-0.345272	-0.074131
C61	C	0.711264	-0.376219	-0.035206
C62	C	0.633399	-0.753943	-0.113035
C63	C	0.633407	-0.815861	-0.113037
C64	C	0.711297	-0.815836	-0.035187
C65	C	0.711292	-0.753917	-0.035188
C66	C	0.672340	-0.722971	-0.074112
C67	C	0.711256	-0.246192	-0.035220
C68	C	0.711252	-0.184271	-0.035230
C69	C	0.633360	-0.184301	-0.113078
C70	C	0.633366	-0.246216	-0.113070
C71	C	0.672317	-0.277160	-0.074137
O72	O	0.600285	-0.344182	-0.146151
O73	O	0.744376	-0.344182	-0.002101
C74	C	0.776474	-0.000078	-0.069388
C75	C	0.839691	-0.000080	-0.070154
C76	C	0.677070	-0.000068	0.030013
C77	C	0.676302	-0.000064	0.093229
N78	N	0.672351	0.153187	-0.074111
C79	C	0.673045	0.053557	0.366480
C80	C	0.673758	0.053558	0.307080
O81	O	0.674154	0.099159	0.276362
N82	N	0.674103	-0.000064	0.277371
C83	C	0.673740	-0.053690	0.307066
O84	O	0.674099	-0.099299	0.276342
C85	C	0.673031	-0.053690	0.366466
C86	C	0.672681	-0.000065	0.396171
C87	C	0.672696	0.107178	0.396186
C88	C	0.671981	0.107177	0.455582
C89	C	0.671617	0.053555	0.485272
C90	C	0.671967	-0.000066	0.455567
C91	C	0.672672	-0.107315	0.396160
C92	C	0.671964	-0.107311	0.455564
C93	C	0.671613	-0.053686	0.485269
C94	C	0.670888	-0.053688	0.544653
N95	N	0.670544	-0.000067	0.574362
C96	C	0.670908	0.053555	0.544671
C97	C	0.675230	-0.053686	0.182323
C98	C	0.675935	-0.053686	0.122925
C99	C	0.675954	0.053562	0.122943
C100	C	0.675245	0.053561	0.182342
C101	C	0.674885	-0.000064	0.212033
C102	C	0.669408	0.053549	0.669407
C103	C	0.668691	0.053543	0.728808
C104	C	0.668675	-0.053704	0.728784
C105	C	0.669389	-0.053699	0.669388
C106	C	0.669757	-0.000068	0.639701
O107	O	0.670494	-0.099266	0.575410
O108	O	0.670557	0.099157	0.575404
C109	C	0.667577	-0.000070	0.821717
C110	C	0.668327	-0.000079	0.758498
H111	H	0.486607	-0.000046	-0.172254
H112	H	0.562714	-0.556246	-0.183657
H113	H	0.138372	-0.000094	0.072633
H114	H	0.668404	0.097213	0.752991
F115	F	0.668283	-0.110769	0.760393
H116	H	0.676249	0.097223	0.098758
F117	F	0.752746	-0.848784	0.006240
F118	F	0.521474	-0.000055	0.029039
F119	F	0.752708	-0.151315	0.006196
H120	H	0.742973	-0.271379	-0.003516
F121	F	0.791665	-0.436131	0.045147
F122	F	0.752744	-0.720964	0.006238
F123	F	0.674841	-0.110765	0.213916
F124	F	0.398853	-0.000065	0.030512
F125	F	0.791672	-0.563928	0.045156
F126	F	0.369663	-0.000063	-0.183863
F127	F	0.676295	-0.110761	0.091315
F128	F	0.671614	0.164252	0.487189
F129	F	0.591961	-0.848814	-0.154470
F130	F	0.673084	0.164254	0.364596
F131	F	0.673039	-0.164392	0.364558
F132	F	0.591914	-0.151355	-0.154503
H133	H	0.601682	-0.728750	-0.144736
H134	H	0.562706	-0.443924	-0.183657
H135	H	0.674959	0.097228	0.206524
H136	H	0.669708	0.097221	0.645243
H137	H	0.669651	-0.097365	0.645198
H138	H	0.671671	-0.150980	0.479734
F139	F	0.089358	-0.000073	-0.232511
F140	F	0.211952	-0.000065	-0.233979
F141	F	-0.176822	-0.000079	-0.177313
F142	F	-0.054205	-0.000073	-0.178788
H143	H	-0.141947	-0.000073	0.023982
F144	F	0.591920	-0.279174	-0.154502
H145	H	-0.034198	-0.000081	0.022693
H146	H	0.246121	-0.000095	0.071339
