data_functionalizedCrystal
_audit_creation_method	'MofGen! by Chris Wilmer'
_symmetry_space_group_name_H-M	'P1'
_symmetry_Int_Tables_number	1
_symmetry_cell_setting	triclinic
loop_
_symmetry_equiv_pos_as_xyz
  x,y,z
_cell_length_a	16.120490
_cell_length_b	12.759400
_cell_length_c	16.120297
_cell_angle_alpha	87.117795
_cell_angle_beta	89.870317
_cell_angle_gamma	87.095889
loop_
_atom_site_label
_atom_site_type_symbol
_atom_site_fract_x
_atom_site_fract_y
_atom_site_fract_z
Zn1	Zn	1.247594	-0.532374	0.534605
Zn2	Zn	1.747594	-0.032374	1.034605
Zn3	Zn	1.254591	-0.699630	0.395570
Zn4	Zn	1.754591	-0.199630	0.895570
Zn5	Zn	1.115579	-0.514611	0.388524
Zn6	Zn	1.615579	-0.014611	0.888524
Zn7	Zn	1.108547	-0.698653	0.527542
Zn8	Zn	1.608547	-0.198653	1.027542
O9	O	1.181578	-0.611317	0.461560
O10	O	1.681578	-0.111317	0.961560
O11	O	1.364891	-0.562404	0.522066
O12	O	1.864891	-0.062404	1.022066
O13	O	1.242022	-0.668062	0.278269
O14	O	1.742022	-0.168062	0.778269
O15	O	1.133106	-0.369948	0.407909
O16	O	1.633106	0.130052	0.907909
O17	O	1.370032	-0.685286	0.419917
O18	O	1.870032	-0.185286	0.919917
O19	O	1.230097	-0.382998	0.515234
O20	O	1.730097	0.117002	1.015234
O21	O	1.139891	-0.532129	0.273092
O22	O	1.639891	-0.032129	0.773092
O23	O	0.998277	-0.531181	0.401061
O24	O	1.498277	-0.031181	0.901061
O25	O	1.121120	-0.683620	0.644846
O26	O	1.621120	-0.183620	1.144846
O27	O	0.993110	-0.666396	0.503197
O28	O	1.493110	-0.166396	1.003197
O29	O	1.223278	-0.561456	0.650035
O30	O	1.723278	-0.061456	1.150035
O31	O	1.235203	-0.846520	0.413069
O32	O	1.735203	-0.346520	0.913069
O33	O	1.127905	-0.845802	0.510029
O34	O	1.627905	-0.345802	1.010029
C35	C	1.181572	-0.884284	0.461566
C36	C	1.681572	-0.384284	0.961566
C37	C	1.181644	-1.001068	0.461600
C38	C	1.681644	-0.501068	0.961600
C39	C	0.965520	-0.596756	0.450598
C40	C	1.465520	-0.096756	0.950598
C41	C	0.873089	-0.590553	0.445928
C42	C	1.373089	-0.090553	0.945928
C43	C	1.170634	-0.624411	0.678456
C44	C	1.670634	-0.124411	1.178456
C45	C	1.165971	-0.629990	0.770885
C46	C	1.665971	-0.129990	1.270885
C47	C	0.660142	-0.643484	0.485785
C48	C	1.160142	-0.143484	0.985785
C49	C	0.703861	-0.579238	0.437401
C50	C	1.203861	-0.079238	0.937401
C51	C	0.798028	-0.585536	0.442147
C52	C	1.298028	-0.085536	0.942147
C53	C	0.565966	-0.637187	0.481040
C54	C	1.065966	-0.137187	0.981040
C55	C	1.398479	-0.625936	0.472566
C56	C	1.898479	-0.125936	0.972566
C57	C	1.490909	-0.632165	0.477255
C58	C	1.990909	-0.132165	0.977255
C59	C	1.181605	-0.337286	0.461574
C60	C	1.681605	0.162714	0.961574
C61	C	1.181617	-0.220511	0.461580
C62	C	1.681617	0.279489	0.961580
C63	C	1.131129	-0.158853	0.405704
C64	C	1.631129	0.341147	0.905704
C65	C	1.131140	-0.049131	0.405716
C66	C	1.631140	0.450869	0.905716
C67	C	1.232134	-0.062733	0.517481
C68	C	1.732134	0.437267	1.017481
C69	C	1.232118	-0.172454	0.517473
C70	C	1.732118	0.327546	1.017473
C71	C	1.072824	-0.150999	0.341175
C72	C	1.572824	0.349001	0.841175
C73	C	1.072835	-0.041276	0.341187
C74	C	1.572835	0.458724	0.841187
C75	C	1.192527	-0.598202	0.245510
C76	C	1.692527	-0.098202	0.745510
C77	C	1.197351	-0.592337	0.153091
C78	C	1.697351	-0.092337	0.653091
C79	C	1.157426	-0.640152	0.940111
C80	C	1.657426	-0.140152	1.440111
C81	C	1.205894	-0.582178	0.983870
C82	C	1.705894	-0.082178	1.483870
C83	C	1.201139	-0.587832	1.078033
C84	C	1.701139	-0.087832	1.578033
C85	C	1.162179	-0.634499	0.845939
C86	C	1.662179	-0.134499	1.345939
H87	H	0.670569	-0.519506	0.392414
H88	H	1.170569	-0.019506	0.892414
H89	H	0.693432	-0.703212	0.530768
H90	H	1.193432	-0.203212	1.030768
H91	H	1.093343	-0.008771	0.277662
H92	H	1.593343	0.491229	0.777662
Br93	Br	1.082320	-0.729953	0.995536
Br94	Br	1.582320	-0.229953	1.495536
Br95	Br	1.300617	-0.256130	0.593327
Br96	Br	1.800617	0.243870	1.093327
Br97	Br	1.300664	0.002493	0.593336
Br98	Br	1.800664	0.502493	1.093336
Br99	Br	1.281026	-0.492400	0.928447
Br100	Br	1.781026	0.007600	1.428447
Br101	Br	0.964022	-0.195131	0.364466
Br102	Br	1.464022	0.304869	0.864466
Br103	Br	1.116419	-0.204168	0.241162
Br104	Br	1.616419	0.295832	0.741162
H105	H	1.010492	-0.004513	0.361151
H106	H	1.510492	0.495487	0.861151
