data_functionalizedCrystal
_audit_creation_method	'MofGen! by Chris Wilmer'
_symmetry_space_group_name_H-M	'P1'
_symmetry_Int_Tables_number	1
_symmetry_cell_setting	triclinic
loop_
_symmetry_equiv_pos_as_xyz
  x,y,z
_cell_length_a	12.594516
_cell_length_b	12.759401
_cell_length_c	12.759393
_cell_angle_alpha	90.020826
_cell_angle_beta	89.972571
_cell_angle_gamma	89.983125
loop_
_atom_site_label
_atom_site_type_symbol
_atom_site_fract_x
_atom_site_fract_y
_atom_site_fract_z
Zn1	Zn	-0.423674	-1.606239	-0.594082
Zn2	Zn	-0.601688	-1.606131	-0.418409
Zn3	Zn	-0.423726	-1.430543	-0.418412
Zn4	Zn	-0.601613	-1.430526	-0.594042
O5	O	-0.512675	-1.518360	-0.506236
O6	O	-0.447297	-1.753246	-0.570794
O7	O	-0.578134	-1.582801	-0.271389
O8	O	-0.274774	-1.453902	-0.441733
O9	O	-0.578083	-1.753167	-0.441728
O10	O	-0.274735	-1.582985	-0.570797
O11	O	-0.447386	-1.453797	-0.271391
O12	O	-0.447314	-1.283520	-0.441694
O13	O	-0.577956	-1.453872	-0.741068
O14	O	-0.578007	-1.283507	-0.570728
O15	O	-0.447225	-1.582968	-0.741097
O16	O	-0.750624	-1.582784	-0.441689
O17	O	-0.750569	-1.453768	-0.570726
C18	C	-0.512659	-1.245392	-0.506208
C19	C	-0.512677	-1.128616	-0.506221
C20	C	-0.789216	-1.518291	-0.506226
C21	C	-0.907522	-1.518358	-0.506257
C22	C	-0.580832	-1.073775	-0.573302
C23	C	-0.580835	-0.964051	-0.573320
C24	C	-0.444525	-0.964018	-0.439166
C25	C	-0.444518	-1.073740	-0.439155
C26	C	-0.619026	-0.814150	-0.697178
C27	C	-0.687197	-0.759305	-0.764249
C28	C	-0.791071	-0.794900	-0.780202
C29	C	-0.826795	-0.885338	-0.729069
C30	C	-0.758629	-0.940177	-0.661989
C31	C	-0.654741	-0.904584	-0.646056
C32	C	-0.406338	-1.223643	-0.315295
C33	C	-0.338177	-1.278484	-0.248210
C34	C	-0.234301	-1.242891	-0.232246
C35	C	-0.198581	-1.152450	-0.283361
C36	C	-0.266742	-1.097609	-0.350447
C37	C	-0.370617	-1.133209	-0.366412
C38	C	-0.976784	-1.448179	-0.576390
C39	C	-1.047651	-1.422580	-0.480522
C40	C	-1.047453	-1.544052	-0.602141
C41	C	-0.976831	-1.492709	-0.410338
C42	C	-0.976626	-1.614225	-0.532021
C43	C	-1.047462	-1.588663	-0.436087
C44	C	-0.235054	-1.518458	-0.506270
C45	C	-0.116749	-1.518499	-0.506284
C46	C	-0.512576	-1.518430	-0.780270
C47	C	-0.512534	-1.518461	-0.897046
C48	C	-0.512689	-0.792393	-0.506258
C49	C	-0.512687	-0.909170	-0.506250
C50	C	-0.580528	-1.451295	-1.061626
C51	C	-0.580572	-1.451261	-0.951902
C52	C	-0.444438	-1.585691	-0.951921
C53	C	-0.444389	-1.585720	-1.061643
C54	C	-0.618660	-1.327303	-0.801937
C55	C	-0.686764	-1.260084	-0.747067
C56	C	-0.790604	-1.243925	-0.782672
C57	C	-0.826359	-1.295000	-0.873147
C58	C	-0.758260	-1.362226	-0.928011
C59	C	-0.654406	-1.378365	-0.892407
C60	C	-0.406313	-1.709679	-1.211609
C61	C	-0.338218	-1.776912	-1.266476
C62	C	-0.234377	-1.793082	-1.230873
C63	C	-0.198625	-1.742025	-1.140395
C64	C	-0.266720	-1.674793	-1.085528
C65	C	-0.370560	-1.658621	-1.121139
C66	C	-0.512697	-1.518350	-0.233269
C67	C	-0.512440	-1.518523	-0.116493
H68	H	-0.636329	-1.118451	-0.627914
H69	H	-0.945408	-1.695213	-0.553837
H70	H	-0.846055	-1.189193	-0.737989
H71	H	-0.910920	-1.281847	-0.902123
H72	H	-0.178939	-1.847837	-1.275551
H73	H	-0.635937	-1.396578	-1.106281
H74	H	-0.389036	-1.640402	-0.907249
H75	H	-1.078475	-1.565727	-0.683218
H76	H	-0.237601	-1.633218	-1.011858
H77	H	-0.114004	-1.123457	-0.270346
H78	H	-1.078872	-1.341573	-0.458753
H79	H	-0.178809	-1.287548	-0.177610
H80	H	-0.490919	-1.252638	-0.328297
H81	H	-0.367269	-1.352126	-0.206588
H82	H	-0.787373	-1.403812	-1.001672
H83	H	-0.114071	-1.755196	-1.111402
H84	H	-0.945749	-1.388724	-0.635614
H85	H	-0.945938	-1.470940	-0.329239
H86	H	-0.367338	-1.818488	-1.340146
H87	H	-0.657642	-1.218499	-0.673402
H88	H	-0.534101	-1.340439	-0.772948
H89	H	-0.490863	-1.696503	-1.240618
H90	H	-0.911384	-0.914306	-0.742054
H91	H	-0.787715	-1.013809	-0.620356
H92	H	-0.658101	-0.685671	-0.805883
H93	H	-0.846576	-0.750238	-0.834815
H94	H	-0.534440	-0.785167	-0.684205
H95	H	-0.237647	-1.023972	-0.392075
H96	H	-0.389034	-0.919326	-0.384562
H97	H	-1.078300	-1.648071	-0.376721
