data_functionalizedCrystal
_audit_creation_method	'MofGen! by Chris Wilmer'
_symmetry_space_group_name_H-M	'P1'
_symmetry_Int_Tables_number	1
_symmetry_cell_setting	triclinic
loop_
_symmetry_equiv_pos_as_xyz
  x,y,z
_cell_length_a	31.640172
_cell_length_b	19.376995
_cell_length_c	19.377574
_cell_angle_alpha	55.721819
_cell_angle_beta	104.485386
_cell_angle_gamma	72.108557
loop_
_atom_site_label
_atom_site_type_symbol
_atom_site_fract_x
_atom_site_fract_y
_atom_site_fract_z
Zr1	Zr	0.455538	0.780174	-0.236200
O2	O	0.382560	0.928900	-0.377198
O3	O	0.469622	0.631459	-0.174124
O4	O	0.458785	0.780175	-0.350013
O5	O	0.411374	0.780181	-0.084010
O6	O	0.528339	0.780162	-0.350016
O7	O	0.393398	0.780185	-0.201308
O8	O	0.547725	0.514138	-0.035381
O9	O	0.391988	1.046206	-0.398644
O10	O	0.537549	0.692615	-0.170429
O11	O	0.499057	0.692621	-0.082888
O12	O	0.486297	0.867714	-0.289975
O13	O	0.447805	0.867720	-0.202435
Zr14	Zr	0.595139	0.780149	-0.049127
Zr15	Zr	0.566470	0.780155	-0.236204
Zr16	Zr	0.484208	0.780168	-0.049123
Zr17	Zr	0.470574	0.967263	-0.270405
Zr18	Zr	0.580104	0.593060	-0.014922
O19	O	0.581055	0.928864	-0.111203
O20	O	0.540291	0.928873	-0.377204
O21	O	0.423325	0.928891	-0.111197
O22	O	0.668117	0.631423	0.091871
O23	O	0.627352	0.631432	-0.174129
O24	O	0.510387	0.631450	0.091877
O25	O	0.639304	0.780142	-0.201317
O26	O	0.591893	0.780149	0.064686
O27	O	0.522338	0.780161	0.064689
O28	O	0.657280	0.780138	-0.084019
O29	O	0.480164	1.046190	-0.398647
O30	O	0.570514	0.514133	0.113320
O31	O	0.658690	0.514117	0.113317
O32	O	0.635901	0.514122	-0.035385
O33	O	0.414777	1.046201	-0.249942
O34	O	0.502952	1.046185	-0.249945
O35	O	0.564380	0.692609	0.004649
O36	O	0.602872	0.692603	-0.082892
O37	O	0.551621	0.867702	-0.202439
O38	O	0.513128	0.867708	-0.114898
C39	C	0.506531	0.546142	-0.099879
C40	C	0.500148	0.466718	-0.085359
C41	C	0.471060	0.354777	-0.019202
C42	C	0.477060	0.429407	-0.032851
C43	C	0.517243	0.429411	-0.124243
C44	C	0.511243	0.354783	-0.110606
C45	C	0.488152	0.317470	-0.058083
C46	C	0.528335	0.317476	-0.149487
C47	C	0.522339	0.242851	-0.135846
C48	C	0.499250	0.205531	-0.083324
C49	C	0.482155	0.242845	-0.044442
C50	C	0.551430	0.354785	-0.202003
C51	C	0.568522	0.317478	-0.240885
C52	C	0.562522	0.242856	-0.227250
C53	C	0.539434	0.205537	-0.174728
C54	C	0.579617	0.205543	-0.266132
C55	C	0.573620	0.130917	-0.252491
C56	C	0.533437	0.130911	-0.161087
C57	C	0.386580	0.780186	-0.142658
C58	C	0.339487	0.780194	-0.142657
C59	C	0.037573	0.780146	-0.207279
C60	C	-0.139416	0.780133	-0.207283
O61	O	-0.170711	0.780090	-0.262211
N62	N	-0.151643	0.780133	-0.142664
C63	C	-0.119618	0.780129	-0.078034
O64	O	-0.134076	0.780118	-0.023064
C65	C	0.057371	0.780135	-0.078026
C66	C	0.069593	0.780145	-0.142656
C67	C	0.049795	0.780155	-0.271904
C68	C	0.094038	0.780163	-0.271906
C69	C	0.126059	0.780163	-0.207283
C70	C	0.113836	0.780154	-0.142659
C71	C	0.089398	0.780124	-0.013392
C72	C	0.133648	0.780123	-0.013394
C73	C	0.145869	0.780133	-0.078025
C74	C	0.190099	0.780162	-0.078038
N75	N	0.202327	0.780162	-0.142657
C76	C	0.170306	0.780162	-0.207280
C77	C	-0.212542	0.780128	-0.078044
C78	C	-0.256789	0.780129	-0.078048
C79	C	-0.276583	0.780131	-0.207296
C80	C	-0.232337	0.780137	-0.207297
C81	C	-0.200314	0.780128	-0.142664
C82	C	0.263220	0.780181	-0.207280
C83	C	0.307467	0.780194	-0.207279
C84	C	0.327258	0.780187	-0.078028
C85	C	0.283014	0.780180	-0.078032
C86	C	0.250996	0.780173	-0.142662
O87	O	0.221421	0.780193	-0.023131
O88	O	0.184780	0.780151	-0.262226
C89	C	-0.006670	0.780137	-0.207277
C90	C	-0.018893	0.780128	-0.142652
C91	C	0.013127	0.780127	-0.078030
C92	C	-0.063141	0.780128	-0.142655
C93	C	-0.095161	0.780129	-0.207278
C94	C	-0.082934	0.780129	-0.271898
C95	C	-0.038691	0.780137	-0.271900
C96	C	0.000900	0.780127	-0.013410
C97	C	-0.043344	0.780119	-0.013414
C98	C	-0.075365	0.780120	-0.078037
C99	C	0.664097	0.780137	-0.142668
C100	C	0.711190	0.780129	-0.142670
C101	C	0.489477	0.780169	-0.376669
C102	C	0.477306	0.780172	-0.456089
C103	C	0.544146	1.014181	-0.185448
C104	C	0.550529	1.093605	-0.199968
C105	C	0.628853	0.780141	-0.717313
C106	C	0.617403	0.780145	-0.791941
C107	C	0.540771	0.780158	-0.791920
C108	C	0.552213	0.780159	-0.717294
C109	C	0.596255	0.780149	-0.679996
C110	C	0.519616	0.780167	-0.679977
C111	C	0.531059	0.780163	-0.605354
C112	C	0.575100	0.780150	-0.568048
C113	C	0.607699	0.780145	-0.605373
C114	C	0.475576	0.780170	-0.717271
C115	C	0.442979	0.780178	-0.679954
C116	C	0.454420	0.780181	-0.605334
C117	C	0.498460	0.780168	-0.568029
C118	C	0.421821	0.780186	-0.568010
C119	C	0.433264	0.780182	-0.493387
C120	C	0.509904	0.780164	-0.493406
C121	C	0.561200	0.780154	0.091342
C122	C	0.573371	0.780151	0.170762
C123	C	0.645290	0.546118	-0.099884
C124	C	0.686000	0.466686	-0.085365
C125	C	0.542393	0.546134	0.134127
C126	C	0.548181	0.466708	0.228067
C127	C	0.681151	0.546110	0.134122
C128	C	0.734033	0.466676	0.228060
C129	C	0.369526	1.014213	-0.419448
C130	C	0.316645	1.093647	-0.513387
C131	C	0.405388	1.014205	-0.185443
C132	C	0.364678	1.093637	-0.199962
C133	C	0.508285	1.014189	-0.419453
C134	C	0.502496	1.093615	-0.513393
C135	C	0.671019	0.429390	-0.124248
C136	C	0.709264	0.354765	-0.110625
C137	C	0.762491	0.317433	-0.058114
C138	C	0.777472	0.354736	-0.019231
C139	C	0.739226	0.429365	-0.032860
C140	C	0.584998	0.429402	0.317883
C141	C	0.590437	0.354783	0.406155
C142	C	0.559060	0.317465	0.404609
C143	C	0.522239	0.354779	0.314783
C144	C	0.516798	0.429402	0.226512
C145	C	0.778964	0.429369	0.226479
C146	C	0.828655	0.354742	0.314735
C147	C	0.833414	0.317418	0.404572
C148	C	0.788479	0.354732	0.406149
C149	C	0.738788	0.429362	0.317894
C150	C	0.271715	1.130963	-0.511808
C151	C	0.222025	1.205613	-0.600068
C152	C	0.217266	1.242941	-0.689905
C153	C	0.262201	1.205623	-0.691482
C154	C	0.311890	1.130979	-0.603224
C155	C	0.379658	1.130941	-0.161088
C156	C	0.341411	1.205586	-0.174735
C157	C	0.288184	1.242921	-0.227250
C158	C	0.273203	1.205614	-0.266129
C159	C	0.311450	1.130975	-0.252487
C160	C	0.533881	1.130909	-0.511815
C161	C	0.528453	1.205529	-0.600073
C162	C	0.491637	1.242859	-0.689909
C163	C	0.460252	1.205558	-0.691484
C164	C	0.465683	1.130934	-0.603226
H165	H	0.536045	0.459797	-0.167004
H166	H	-0.302663	0.780133	-0.259916
H167	H	0.563860	1.100526	-0.438676
H168	H	0.486819	0.459766	0.153384
H169	H	0.587539	0.100541	-0.284151
H170	H	0.620422	0.324411	0.479286
H171	H	0.299245	1.100605	-0.284142
H172	H	0.452251	0.324404	0.023557
H173	H	0.440123	1.100578	-0.604525
H174	H	0.275579	1.100575	-0.438665
H175	H	-0.053293	0.780119	0.039214
H176	H	0.257047	1.303697	-0.238350
H177	H	0.385965	0.780185	-0.598381
H178	H	0.751432	0.459722	-0.001189
H179	H	0.406720	0.780187	-0.463002
H180	H	0.159721	0.780112	0.039241
H181	H	0.775098	0.459747	0.153339
H182	H	0.430277	1.235963	-0.764640
H183	H	0.103987	0.780168	-0.324531
H184	H	0.554011	1.235891	-0.598772
H185	H	0.820814	0.324330	0.023525
H186	H	0.873878	0.256648	0.476428
H187	H	0.643559	0.780147	-0.575011
H188	H	0.563495	0.256703	0.476492
H189	H	0.273060	0.780186	-0.025414
H190	H	0.466263	0.780169	-0.778031
H191	H	0.584417	0.780142	-0.507282
H192	H	-0.222389	0.780145	-0.259924
H193	H	0.587325	0.347864	-0.283645
H194	H	0.865238	0.324368	0.313433
H195	H	0.353335	0.780191	-0.025416
H196	H	0.627680	0.459785	-0.167019
H197	H	0.496693	0.324384	0.313539
H198	H	0.514628	0.100538	-0.118328
H199	H	0.487220	1.303622	-0.761766
H200	H	0.664713	0.780143	-0.686951
H201	H	0.792362	0.324331	0.479306
H202	H	0.353619	1.235949	-0.143069
H203	H	-0.028744	0.780146	-0.324528
H204	H	-0.186470	0.780122	-0.025411
H205	H	0.494369	0.144765	-0.072217
H206	H	0.463346	0.212472	-0.001683
H207	H	0.185442	1.235986	-0.598764
H208	H	0.463136	0.459786	-0.001193
H209	H	0.702206	0.459728	0.319195
H210	H	0.026969	0.780125	0.039215
H211	H	0.348472	1.100597	-0.604520
H212	H	0.610551	0.459777	0.319160
H213	H	0.229861	1.236024	-0.308887
H214	H	0.598423	0.235925	-0.308887
H215	H	0.422996	1.100548	-0.118320
H216	H	0.317414	0.780205	-0.259913
H217	H	0.079454	0.780115	0.039237
H218	H	0.176803	1.303721	-0.761763
H219	H	-0.109014	0.780134	-0.324520
H220	H	0.556307	0.415557	-0.213116
H221	H	0.023728	0.780152	-0.324527
H222	H	0.237156	0.780175	-0.259906
H223	H	-0.266741	0.780136	-0.025430
H224	H	0.545764	0.780166	-0.463044
H225	H	0.643952	0.780137	-0.822320
H226	H	0.258320	1.236025	-0.764638
H227	H	0.407121	0.780183	-0.710328
H228	H	0.697056	0.324402	-0.142291
H229	H	0.504913	0.780162	-0.822294
H230	H	0.793628	0.256665	-0.047022
