data_functionalizedCrystal
_audit_creation_method	'MofGen! by Chris Wilmer'
_symmetry_space_group_name_H-M	'P1'
_symmetry_Int_Tables_number	1
_symmetry_cell_setting	triclinic
loop_
_symmetry_equiv_pos_as_xyz
  x,y,z
_cell_length_a	17.019311
_cell_length_b	19.188924
_cell_length_c	16.098538
_cell_angle_alpha	92.711427
_cell_angle_beta	83.390489
_cell_angle_gamma	83.269696
loop_
_atom_site_label
_atom_site_type_symbol
_atom_site_fract_x
_atom_site_fract_y
_atom_site_fract_z
O1	O	1.053778	0.082446	-0.144832
O2	O	1.553778	0.582446	0.355168
O3	O	0.823228	0.094528	-0.128300
O4	O	1.323228	0.594528	0.371700
O5	O	0.945159	-0.013179	-0.137034
O6	O	1.445159	0.486821	0.362966
O7	O	0.931848	0.190153	-0.136099
O8	O	1.431848	0.690153	0.363901
O9	O	0.938036	-0.006911	0.001989
O10	O	1.438036	0.493089	0.501989
O11	O	0.816106	0.100795	0.010723
O12	O	1.316106	0.600795	0.510723
O13	O	1.046656	0.088713	-0.005809
O14	O	1.546656	0.588713	0.494191
Zn15	Zn	0.930250	0.095749	0.024530
Zn16	Zn	1.430250	0.595749	0.524530
Zn17	Zn	0.939634	0.087492	-0.158639
Zn18	Zn	1.439634	0.587492	0.341361
O19	O	0.924725	0.196420	0.002924
O20	O	1.424725	0.696420	0.502924
C21	C	0.790171	0.097326	-0.056674
C22	C	1.290171	0.597326	0.443326
C23	C	0.702283	0.096318	-0.050371
C24	C	1.202283	0.596318	0.449629
C25	C	0.205007	0.090812	-0.010925
C26	C	0.705007	0.590812	0.489075
C27	C	0.287587	0.091759	-0.016849
C28	C	0.787587	0.591759	0.483151
C29	C	0.332761	0.088811	-0.095594
C30	C	0.832761	0.588811	0.404406
C31	C	0.295349	0.084923	-0.168419
C32	C	0.795349	0.584923	0.331581
C33	C	0.212770	0.083981	-0.162495
C34	C	0.712770	0.583981	0.337505
C35	C	0.582292	0.091488	-0.117273
C36	C	1.082292	0.591488	0.382727
C37	C	0.664877	0.092429	-0.123192
C38	C	1.164877	0.592429	0.376808
C39	C	0.657109	0.099266	0.028380
C40	C	1.157109	0.599266	0.528380
C41	C	0.574529	0.098320	0.034297
C42	C	1.074529	0.598320	0.534297
C43	C	0.537124	0.094435	-0.038529
C44	C	1.037124	0.594435	0.461471
C45	C	0.417172	0.089777	-0.101650
C46	C	0.917172	0.589777	0.398350
C47	C	0.452714	0.093475	-0.032471
C48	C	0.952714	0.593475	0.467529
C49	C	0.941167	-0.036055	-0.067491
C50	C	1.441167	0.463945	0.432509
C51	C	0.939876	-0.113558	-0.067396
C52	C	1.439876	0.386442	0.432604
C53	C	0.943156	-0.153372	-0.143134
C54	C	1.443156	0.346628	0.356866
C55	C	0.941931	-0.226193	-0.143053
C56	C	1.441931	0.273807	0.356947
C57	C	0.937443	-0.259199	-0.067230
C58	C	1.437443	0.240801	0.432770
C59	C	0.934158	-0.219375	0.008519
C60	C	1.434158	0.280625	0.508519
C61	C	0.935375	-0.146555	0.008436
C62	C	1.435375	0.353445	0.508436
N63	N	0.977699	-0.376385	-0.013923
N64	N	1.477699	0.123615	0.486077
N65	N	0.976545	-0.445562	-0.013849
N66	N	1.476545	0.054438	0.486151
C67	C	0.933776	-0.478603	-0.066975
C68	C	1.433776	0.021397	0.433025
N69	N	0.892215	-0.439856	-0.120191
N70	N	1.392215	0.060144	0.379809
N71	N	0.893372	-0.370673	-0.120267
N72	N	1.393372	0.129327	0.379733
C73	C	0.936123	-0.338161	-0.067131
C74	C	1.436123	0.161839	0.432869
C75	C	0.935728	-0.597379	-0.142630
C76	C	1.435728	-0.097379	0.357370
C77	C	0.934498	-0.670200	-0.142545
C78	C	1.434498	-0.170200	0.357455
C79	C	0.926733	-0.663382	0.009028
C80	C	1.426733	-0.163382	0.509028
C81	C	0.927954	-0.590560	0.008942
C82	C	1.427954	-0.090560	0.508942
C83	C	0.932456	-0.557564	-0.066890
C84	C	1.432456	-0.057564	0.433110
C85	C	1.079713	0.085915	-0.077438
C86	C	1.579713	0.585915	0.422562
C87	C	1.167601	0.086922	-0.083746
C88	C	1.667601	0.586922	0.416254
C89	C	0.928717	0.219297	-0.066621
C90	C	1.428717	0.719297	0.433379
C91	C	0.930009	0.296799	-0.066721
C92	C	1.430009	0.796799	0.433279
N93	N	0.923851	0.101384	0.149537
N94	N	1.423851	0.601384	0.649537
N95	N	0.946039	0.081852	-0.283647
N96	N	1.446039	0.581852	0.216353
C97	C	0.975622	0.055685	0.189414
C98	C	1.475622	0.555685	0.689414
C99	C	0.971153	0.059634	0.276923
C100	C	1.471153	0.559634	0.776923
C101	C	0.914917	0.109285	0.324553
C102	C	1.414917	0.609285	0.824553
C103	C	0.863140	0.154986	0.284671
C104	C	1.363140	0.654986	0.784671
C105	C	0.867606	0.151034	0.197164
C106	C	1.367606	0.651034	0.697164
C107	C	0.898728	0.123600	0.588963
C108	C	1.398728	0.623600	1.088963
C109	C	0.894268	0.127551	0.676476
C110	C	1.394268	0.627551	1.176476
C111	C	1.002281	0.032197	0.668722
C112	C	1.502281	0.532197	1.168722
C113	C	1.006745	0.028252	0.581213
C114	C	1.506745	0.528252	1.081213
C115	C	0.954965	0.073950	0.541339
C116	C	1.454965	0.573950	1.041339
C117	C	0.910349	0.113323	0.414002
C118	C	1.410349	0.613323	0.914002
C119	C	0.959530	0.069908	0.451892
C120	C	1.459530	0.569908	0.951892
H121	H	0.318040	0.094925	0.042449
H122	H	0.818040	0.594925	0.542449
C123	C	0.403029	0.096718	0.054144
C124	C	0.903029	0.596718	0.554144
H125	H	0.437131	0.099173	0.096670
H126	H	0.937131	0.599173	0.596670
H127	H	0.376827	0.055778	0.059164
H128	H	0.876827	0.555778	0.559164
H129	H	0.364480	0.137214	0.060040
H130	H	0.864480	0.637214	0.560040
H131	H	0.453962	0.087374	-0.165765
H132	H	0.953962	0.587374	0.334235
H133	H	1.013309	0.022421	0.309390
H134	H	1.513309	0.522421	0.809390
H135	H	0.946818	-0.126511	-0.204882
H136	H	1.446818	0.373489	0.295118
C137	C	0.929220	-0.255675	0.091924
C138	C	1.429220	0.244325	0.591924
H139	H	0.927434	-0.221530	0.137022
H140	H	1.427434	0.278470	0.637022
H141	H	0.974743	-0.289460	0.091801
H142	H	1.474743	0.210540	0.591801
H143	H	0.882418	-0.278420	0.098413
H144	H	1.382418	0.221580	0.598413
C145	C	0.945543	-0.270001	-0.226366
C146	C	1.445543	0.229999	0.273634
H147	H	0.944170	-0.318096	-0.215454
H148	H	1.444170	0.181904	0.284546
H149	H	0.993500	-0.264988	-0.260824
H150	H	1.493500	0.235012	0.239176
H151	H	0.901175	-0.253951	-0.254213
H152	H	1.401175	0.246049	0.245787
C153	C	0.714566	0.089193	-0.209814
C154	C	1.214566	0.589193	0.290186
H155	H	0.680461	0.086753	-0.252339
H156	H	1.180461	0.586753	0.247661
H157	H	0.753118	0.048704	-0.215717
H158	H	1.253118	0.548704	0.284283
H159	H	0.740764	0.130140	-0.214829
H160	H	1.240764	0.630140	0.285171
C161	C	0.810661	0.201305	0.153299
C162	C	1.310661	0.701305	0.653299
H163	H	0.776534	0.231447	0.194197
H164	H	1.276534	0.731447	0.694197
H165	H	0.779536	0.174769	0.121532
H166	H	1.279536	0.674769	0.621532
H167	H	0.840785	0.228725	0.117114
H168	H	1.340785	0.728725	0.617114
C169	C	0.931774	-0.102758	0.091751
C170	C	1.431774	0.397242	0.591751
H171	H	0.928929	-0.132842	0.136922
H172	H	1.428929	0.367158	0.636922
H173	H	0.885931	-0.068686	0.098179
H174	H	1.385931	0.431314	0.598179
H175	H	0.978256	-0.079734	0.091557
H176	H	1.478256	0.420266	0.591557
H177	H	0.923072	-0.690254	0.070765
H178	H	1.423072	-0.190254	0.570765
H179	H	0.848471	0.167986	0.715253
H180	H	1.348471	0.667986	1.215253
H181	H	0.939388	-0.570511	-0.204377
H182	H	1.439388	-0.070511	0.295623
C183	C	0.345038	0.081678	-0.255037
C184	C	0.845038	0.581678	0.244963
H185	H	0.399579	0.082788	-0.248137
H186	H	0.899579	0.582788	0.251863
H187	H	0.326927	0.120832	-0.284771
H188	H	0.826927	0.620832	0.215229
H189	H	0.339273	0.039397	-0.285636
H190	H	0.839273	0.539397	0.214364
H191	H	1.005315	0.029479	0.413109
H192	H	1.505315	0.529479	0.913109
H193	H	0.925290	-0.558144	0.070616
H194	H	1.425290	-0.058144	0.570616
H195	H	0.551847	0.088323	-0.176573
H196	H	1.051847	0.588323	0.323427
C197	C	0.171622	0.079708	-0.242597
C198	C	0.671622	0.579708	0.257403
H199	H	0.210353	0.078083	-0.290344
H200	H	0.710353	0.578083	0.209656
H201	H	0.133396	0.119916	-0.242994
H202	H	0.633396	0.619916	0.257006
H203	H	0.145743	0.038480	-0.243878
H204	H	0.645743	0.538480	0.256122
H205	H	1.044436	-0.005010	0.701196
H206	H	1.544436	0.494990	1.201196
H207	H	0.937165	-0.702616	-0.204223
H208	H	1.437165	-0.202616	0.295777
C209	C	1.037482	0.001067	0.137028
C210	C	1.537482	0.501067	0.637028
H211	H	1.067669	-0.025588	0.173314
H212	H	1.567669	0.474412	0.673314
H213	H	1.072093	0.024517	0.100519
H214	H	1.572093	0.524517	0.600519
H215	H	1.010841	-0.029436	0.104943
H216	H	1.510841	0.470564	0.604943
H217	H	0.168232	0.093216	0.053197
H218	H	0.668232	0.593216	0.553197
H219	H	1.052537	-0.012178	0.542434
H220	H	1.552537	0.487822	1.042434
C221	C	0.841780	0.173873	0.545111
C222	C	1.341780	0.673873	1.045111
H223	H	0.807656	0.204013	0.586012
H224	H	1.307656	0.704013	1.086012
H225	H	0.810651	0.147340	0.513345
H226	H	1.310651	0.647340	1.013345
H227	H	0.871903	0.201293	0.508926
H228	H	1.371903	0.701293	1.008926
C229	C	0.801283	0.209602	0.337061
C230	C	1.301283	0.709602	0.837061
H231	H	0.806042	0.205417	0.394889
H232	H	1.306042	0.705417	0.894889
H233	H	0.749202	0.201569	0.326525
H234	H	1.249202	0.701569	0.826525
H235	H	0.810454	0.255523	0.322099
H236	H	1.310454	0.755523	0.822099
H237	H	0.864561	0.153752	0.452789
H238	H	1.364561	0.653752	0.952789
H239	H	0.687573	0.102430	0.087670
H240	H	1.187573	0.602430	0.587670
C241	C	0.524843	0.101568	0.120916
C242	C	1.024843	0.601568	0.620916
H243	H	0.558947	0.104027	0.163438
H244	H	1.058947	0.604027	0.663438
H245	H	0.498641	0.060629	0.125943
H246	H	0.998641	0.560629	0.625943
H247	H	0.486293	0.142064	0.126810
H248	H	0.986293	0.642064	0.626810
