data_functionalizedCrystal
_audit_creation_method	'MofGen! by Chris Wilmer'
_symmetry_space_group_name_H-M	'P1'
_symmetry_Int_Tables_number	1
_symmetry_cell_setting	triclinic
loop_
_symmetry_equiv_pos_as_xyz
  x,y,z
_cell_length_a	12.837943
_cell_length_b	11.804365
_cell_length_c	12.837942
_cell_angle_alpha	76.894514
_cell_angle_beta	94.828940
_cell_angle_gamma	103.120467
loop_
_atom_site_label
_atom_site_type_symbol
_atom_site_fract_x
_atom_site_fract_y
_atom_site_fract_z
O1	O	1.421392	0.099004	0.253097
O2	O	1.921392	0.599004	0.753097
O3	O	1.118260	0.099011	0.239652
O4	O	1.618260	0.599011	0.739652
O5	O	1.263103	0.099001	0.094809
O6	O	1.763103	0.599001	0.594809
O7	O	1.276549	0.099015	0.397940
O8	O	1.776549	0.599015	0.897940
O9	O	1.224967	-0.099053	0.132898
O10	O	1.724967	0.400947	0.632898
O11	O	1.080124	-0.099042	0.277741
O12	O	1.580124	0.400958	0.777741
O13	O	1.383256	-0.099049	0.291186
O14	O	1.883256	0.400951	0.791186
Cu15	Cu	1.228208	-0.117129	0.287942
Cu16	Cu	1.728208	0.382871	0.787942
Cu17	Cu	1.273308	0.117092	0.242897
Cu18	Cu	1.773308	0.617092	0.742897
O19	O	1.238413	-0.099038	0.436029
O20	O	1.738413	0.400962	0.936029
C21	C	1.060123	-0.000014	0.254155
C22	C	1.560123	0.499986	0.754155
C23	C	0.943709	-0.000012	0.240610
C24	C	1.443709	0.499988	0.740610
N25	N	1.196495	-0.281868	0.319624
N26	N	1.696495	0.218132	0.819624
C27	C	0.718833	-0.000021	0.403441
C28	C	1.218833	0.499979	0.903441
C29	C	0.609451	-0.000020	0.390720
C30	C	1.109451	0.499980	0.890720
C31	C	0.615558	-0.000016	0.202448
C32	C	1.115558	0.499984	0.702448
C33	C	0.724941	-0.000017	0.215170
C34	C	1.224941	0.499983	0.715170
C35	C	0.776574	-0.000018	0.315669
C36	C	1.276574	0.499982	0.815669
C37	C	0.885960	-0.000011	0.328388
C38	C	1.385960	0.499989	0.828388
C39	C	0.892064	-0.000016	0.140119
C40	C	1.392064	0.499984	0.640119
C41	C	0.782682	-0.000015	0.127397
C42	C	1.282682	0.499985	0.627397
C43	C	1.381182	-0.655830	0.135107
C44	C	1.881182	-0.155830	0.635107
C45	C	1.405172	-0.531170	0.111135
C46	C	1.905172	-0.031170	0.611135
C47	C	1.353004	-0.468838	0.163255
C48	C	1.853004	0.031162	0.663255
C49	C	1.276844	-0.531179	0.239351
C50	C	1.776844	-0.031179	0.739351
C51	C	1.252858	-0.655851	0.263332
C52	C	1.752858	-0.155851	0.763332
C53	C	1.224680	-0.468859	0.291480
C54	C	1.724680	0.031141	0.791480
C55	C	1.148520	-0.531200	0.367576
C56	C	1.648520	-0.031200	0.867576
C57	C	1.124537	-0.655859	0.391552
C58	C	1.624537	-0.155859	0.891552
C59	C	1.176705	-0.718191	0.339432
C60	C	1.676705	-0.218191	0.839432
C61	C	1.248666	-0.344187	0.267499
C62	C	1.748666	0.155813	0.767499
C63	C	1.120341	-0.344208	0.395724
C64	C	1.620341	0.155792	0.895724
C65	C	1.096352	-0.468868	0.419696
C66	C	1.596352	0.031132	0.919696
C67	C	1.441394	-0.000021	0.276683
C68	C	1.941394	0.499979	0.776683
C69	C	1.557810	-0.000015	0.290226
C70	C	2.057810	0.499985	0.790226
C71	C	1.239494	-0.000025	0.074784
C72	C	1.739494	0.499975	0.574784
C73	C	1.225950	-0.000023	-0.041631
C74	C	1.725950	0.499977	0.458369
N75	N	1.305029	0.281830	0.211207
N76	N	1.805029	0.781830	0.711207
C77	C	1.388783	-0.000002	-0.266509
C78	C	1.888783	0.499998	0.233491
C79	C	1.376062	0.000000	-0.375892
C80	C	1.876062	0.500000	0.124108
C81	C	1.187790	-0.000008	-0.369783
C82	C	1.687790	0.499992	0.130217
C83	C	1.200511	-0.000010	-0.260400
C84	C	1.700511	0.499990	0.239600
C85	C	1.301010	-0.000009	-0.208767
C86	C	1.801010	0.499991	0.291233
C87	C	1.313729	-0.000020	-0.099380
C88	C	1.813729	0.499980	0.400620
C89	C	1.125459	-0.000019	-0.093275
C90	C	1.625459	0.499981	0.406725
C91	C	1.112738	-0.000017	-0.202658
C92	C	1.612738	0.499983	0.297342
C93	C	1.262023	-0.000010	0.456053
C94	C	1.762023	0.499990	0.956053
C95	C	1.275568	-0.000004	0.572467
C96	C	1.775568	0.499996	1.072467
H97	H	0.927998	-0.000014	0.410221
H98	H	1.427998	0.499986	0.910221
F99	F	1.436704	-0.722171	0.079653
F100	F	1.936704	-0.222171	0.579653
H101	H	0.562441	-0.000025	0.462194
H102	H	1.062441	0.499975	0.962194
H103	H	1.034341	-0.519641	0.481656
H104	H	1.534341	-0.019641	0.981656
F105	F	1.064821	-0.277875	0.451202
F106	F	1.564821	0.222125	0.951202
F107	F	1.495736	-0.000026	-0.211550
F108	F	1.995736	0.499974	0.288450
F109	F	1.420686	-0.000026	-0.044428
F110	F	1.920686	0.499974	0.455572
H111	H	1.157170	-0.819700	0.358947
H112	H	1.657170	-0.319700	0.858947
H113	H	1.030914	-0.000013	-0.244714
H114	H	1.530914	0.499987	0.255286
H115	H	1.062532	-0.706617	0.453523
H116	H	1.562532	-0.206617	0.953523
H117	H	1.447537	0.000010	-0.422903
H118	H	1.947537	0.500010	0.077097
H119	H	1.310676	-0.293440	0.205542
H120	H	1.810676	0.206560	0.705542
H121	H	1.372540	-0.367334	0.143733
H122	H	1.872540	0.132666	0.643733
H123	H	1.105970	0.000004	-0.411845
H124	H	1.605970	0.500004	0.088155
F125	F	1.032036	-0.000039	-0.031812
F126	F	1.532036	0.499961	0.468188
H127	H	0.760874	-0.000020	0.485272
H128	H	1.260874	0.499980	0.985272
F129	F	0.953528	0.000002	0.046697
F130	F	1.453528	0.500002	0.546697
H131	H	1.467182	-0.480417	0.049179
H132	H	1.967182	0.019583	0.549179
H133	H	0.573481	-0.000114	0.120645
H134	H	1.073481	0.499886	0.620645
H135	H	0.740624	-0.000028	0.045576
H136	H	1.240624	0.499972	0.545576
