data_functionalizedCrystal
_audit_creation_method	'MofGen! by Chris Wilmer'
_symmetry_space_group_name_H-M	'P1'
_symmetry_Int_Tables_number	1
_symmetry_cell_setting	triclinic
loop_
_symmetry_equiv_pos_as_xyz
  x,y,z
_cell_length_a	21.295418
_cell_length_b	21.295418
_cell_length_c	11.169409
_cell_angle_alpha	89.957636
_cell_angle_beta	89.962757
_cell_angle_gamma	90.044200
loop_
_atom_site_label
_atom_site_type_symbol
_atom_site_fract_x
_atom_site_fract_y
_atom_site_fract_z
Zn1	Zn	-0.250292	0.962357	-0.679224
Zn2	Zn	0.249708	1.462357	-0.179224
Zn3	Zn	-0.355581	0.962265	-0.478524
Zn4	Zn	0.144419	1.462265	0.021476
Zn5	Zn	-0.250358	0.857082	-0.478479
Zn6	Zn	0.249642	1.357082	0.021521
Zn7	Zn	-0.355557	0.857053	-0.679089
Zn8	Zn	0.144443	1.357053	-0.179089
O9	O	-0.302947	0.909689	-0.578829
O10	O	0.197053	1.409689	-0.078829
O11	O	-0.264241	1.050434	-0.652675
O12	O	0.235759	1.550434	-0.152675
O13	O	-0.341660	0.948287	-0.310568
O14	O	0.158340	1.448287	0.189432
O15	O	-0.162260	0.871098	-0.505146
O16	O	0.337740	1.371098	-0.005146
O17	O	-0.341596	1.050367	-0.505222
O18	O	0.158404	1.550367	-0.005222
O19	O	-0.162212	0.948442	-0.652632
O20	O	0.337788	1.448442	-0.152632
O21	O	-0.264354	0.871009	-0.310535
O22	O	0.235646	1.371009	0.189465
O23	O	-0.264331	0.768989	-0.505016
O24	O	0.235669	1.268989	-0.005016
O25	O	-0.341556	0.871048	-0.847057
O26	O	0.158444	1.371048	-0.347057
O27	O	-0.341620	0.768968	-0.652403
O28	O	0.158380	1.268968	-0.152403
O29	O	-0.264218	0.948414	-0.847156
O30	O	0.235782	1.448414	-0.347156
O31	O	-0.443667	0.948258	-0.505091
O32	O	0.056333	1.448258	-0.005091
O33	O	-0.443649	0.870959	-0.652446
O34	O	0.056351	1.370959	-0.152446
C35	C	-0.302980	0.746138	-0.578691
C36	C	0.197020	1.246138	-0.078691
C37	C	-0.303009	0.676170	-0.578660
C38	C	0.196991	1.176170	-0.078660
C39	C	-0.343307	0.643308	-0.655290
C40	C	0.156693	1.143308	-0.155290
C41	C	-0.343292	0.577566	-0.655344
C42	C	0.156708	1.077566	-0.155344
C43	C	-0.302985	0.544687	-0.578747
C44	C	0.197015	1.044687	-0.078747
C45	C	-0.262680	0.577556	-0.502111
C46	C	0.237320	1.077556	-0.002111
C47	C	-0.262692	0.643298	-0.502068
C48	C	0.237308	1.143298	-0.002068
N49	N	-0.298077	0.441412	-0.473774
N50	N	0.201923	0.941412	0.026226
N51	N	-0.298069	0.378961	-0.473818
N52	N	0.201931	0.878961	0.026182
C53	C	-0.302945	0.346612	-0.578874
C54	C	0.197055	0.846612	-0.078874
N55	N	-0.307841	0.379075	-0.683886
N56	N	0.192159	0.879075	-0.183886
N57	N	-0.307852	0.441532	-0.683840
N58	N	0.192148	0.941532	-0.183840
C59	C	-0.302967	0.473402	-0.578785
C60	C	0.197033	0.973402	-0.078785
C61	C	-0.343228	0.242466	-0.655569
C62	C	0.156772	0.742466	-0.155569
C63	C	-0.343208	0.176722	-0.655625
C64	C	0.156792	0.676722	-0.155625
C65	C	-0.262599	0.176714	-0.502381
C66	C	0.237401	0.676714	-0.002381
C67	C	-0.262616	0.242456	-0.502336
C68	C	0.237384	0.742456	-0.002336
C69	C	-0.302933	0.275328	-0.578928
C70	C	0.197067	0.775328	-0.078928
C71	C	-0.466499	0.909613	-0.578785
C72	C	0.033501	1.409613	-0.078785
C73	C	-0.536467	0.909638	-0.578807
C74	C	-0.036467	1.409638	-0.078807
C75	C	-1.035846	0.950041	-0.655779
C76	C	-0.535846	1.450041	-0.155779
C77	C	-0.970104	0.950023	-0.655760
C78	C	-0.470104	1.450023	-0.155760
C79	C	-0.937306	0.909775	-0.578904
C80	C	-0.437306	1.409775	-0.078904
C81	C	-0.970256	0.869555	-0.502039
C82	C	-0.470256	1.369555	-0.002039
C83	C	-1.035998	0.869579	-0.502052
C84	C	-0.535998	1.369579	-0.002052
N85	N	-0.834153	0.854638	-0.569544
N86	N	-0.334153	1.354638	-0.069544
N87	N	-0.771701	0.854617	-0.569539
N88	N	-0.271701	1.354617	-0.069539
C89	C	-0.739231	0.909701	-0.578859
C90	C	-0.239231	1.409701	-0.078859
N91	N	-0.771572	0.964809	-0.588208
N92	N	-0.271572	1.464809	-0.088208
N93	N	-0.834029	0.964829	-0.588219
N94	N	-0.334029	1.464829	-0.088219
C95	C	-0.866021	0.909745	-0.578881
C96	C	-0.366021	1.409745	-0.078881
C97	C	-0.635003	0.949902	-0.655692
C98	C	-0.135003	1.449902	-0.155692
C99	C	-0.569260	0.949885	-0.655665
C100	C	-0.069260	1.449885	-0.155665
C101	C	-0.569414	0.869411	-0.501950
C102	C	-0.069414	1.369411	-0.001950
C103	C	-0.635156	0.869434	-0.501972
C104	C	-0.135156	1.369434	-0.001972
C105	C	-0.667947	0.909679	-0.578849
C106	C	-0.167947	1.409679	-0.078849
C107	C	-0.138757	0.909783	-0.578899
C108	C	0.361243	1.409783	-0.078899
C109	C	-0.068789	0.909823	-0.578929
C110	C	0.431211	1.409823	-0.078929
C111	C	-0.302877	0.909738	-0.891872
C112	C	0.197123	1.409738	-0.391872
C113	C	-0.302847	0.909758	-1.025272
C114	C	0.197153	1.409758	-0.525272
C115	C	-0.302914	1.073880	-0.578968
C116	C	0.197086	1.573880	-0.078968
C117	C	-0.302900	1.143848	-0.579028
C118	C	0.197100	1.643848	-0.079028
C119	C	-0.302971	0.909677	-0.267004
C120	C	0.197029	1.409677	0.232996
C121	C	-0.302824	0.909779	-0.133605
C122	C	0.197176	1.409779	0.366395
H123	H	-0.229875	0.670053	-0.439667
H124	H	0.270125	1.170053	0.060333
H125	H	-0.542438	0.982639	-0.718241
H126	H	-0.042438	1.482639	-0.218241
N127	N	-0.221507	0.543965	-0.423884
N128	N	0.278493	1.043965	0.076116
N129	N	-0.221501	0.485268	-0.423932
N130	N	0.278499	0.985268	0.076068
H131	H	-0.192419	0.461544	-0.368687
H132	H	0.307581	0.961544	0.131313
H133	H	-0.376106	0.550805	-0.717750
H134	H	0.123894	1.050805	-0.217750
H135	H	-0.229804	0.269212	-0.439929
H136	H	0.270196	0.769212	0.060071
N137	N	-0.384366	0.143140	-0.733900
N138	N	0.115634	0.643140	-0.233900
N139	N	-0.362260	0.106521	-0.810481
N140	N	0.137740	0.606521	-0.310481
H141	H	-0.391328	0.082801	-0.865763
H142	H	0.108672	0.582801	-0.365763
N143	N	-0.221435	0.143136	-0.424122
N144	N	0.278565	0.643136	0.075878
N145	N	-0.225549	0.150408	-0.313357
N146	N	0.274451	0.650408	0.186643
H147	H	-0.196475	0.126691	-0.258085
H148	H	0.303525	0.626691	0.241915
N149	N	-0.668494	0.991015	-0.734219
N150	N	-0.168494	1.491015	-0.234219
N151	N	-0.639069	1.026928	-0.802823
N152	N	-0.139069	1.526928	-0.302823
H153	H	-0.662719	1.055965	-0.858284
H154	H	-0.162719	1.555965	-0.358284
N155	N	-1.069330	0.991152	-0.734314
N156	N	-0.569330	1.491152	-0.234314
N157	N	-1.039904	1.027058	-0.802926
N158	N	-0.539904	1.527058	-0.302926
H159	H	-1.063553	1.056093	-0.858393
H160	H	-0.563553	1.556093	-0.358393
N161	N	-0.936454	0.991112	-0.734267
N162	N	-0.436454	1.491112	-0.234267
N163	N	-0.965739	1.027043	-0.802894
N164	N	-0.465739	1.527043	-0.302894
H165	H	-0.941977	1.056062	-0.858341
H166	H	-0.441977	1.556062	-0.358341
H167	H	-0.943549	0.836785	-0.439460
H168	H	-0.443549	1.336785	0.060540
N169	N	-0.384490	0.676892	-0.733513
N170	N	0.115510	1.176892	-0.233513
N171	N	-0.424584	0.713511	-0.691118
N172	N	0.075416	1.213511	-0.191118
H173	H	-0.453671	0.737231	-0.746362
H174	H	0.046329	1.237231	-0.246362
N175	N	-1.069641	0.828495	-0.423534
N176	N	-0.569641	1.328495	0.076466
N177	N	-1.040354	0.792566	-0.354905
N178	N	-0.540354	1.292566	0.145095
H179	H	-1.064115	0.763550	-0.299449
H180	H	-0.564115	1.263550	0.200551
H181	H	-0.542710	0.836643	-0.439368
H182	H	-0.042710	1.336643	0.060632
N183	N	-0.384413	0.276038	-0.733808
N184	N	0.115587	0.776038	-0.233808
N185	N	-0.420388	0.246686	-0.802232
N186	N	0.079612	0.746686	-0.302232
H187	H	-0.449477	0.270395	-0.857489
H188	H	0.050523	0.770395	-0.357489
H189	H	-0.661978	0.836682	-0.439397
H190	H	-0.161978	1.336682	0.060603
