data_functionalizedCrystal
_audit_creation_method	'MofGen! by Chris Wilmer'
_symmetry_space_group_name_H-M	'P1'
_symmetry_Int_Tables_number	1
_symmetry_cell_setting	triclinic
loop_
_symmetry_equiv_pos_as_xyz
  x,y,z
_cell_length_a	18.050591
_cell_length_b	18.050590
_cell_length_c	19.076919
_cell_angle_alpha	87.729485
_cell_angle_beta	87.714625
_cell_angle_gamma	90.017393
loop_
_atom_site_label
_atom_site_type_symbol
_atom_site_fract_x
_atom_site_fract_y
_atom_site_fract_z
Zn1	Zn	1.118492	-0.312564	0.397865
Zn2	Zn	1.618492	0.187436	0.897865
Zn3	Zn	1.123409	-0.431768	0.280168
Zn4	Zn	1.623409	0.068232	0.780168
Zn5	Zn	0.999295	-0.307594	0.280192
Zn6	Zn	1.499295	0.192406	0.780192
Zn7	Zn	0.994282	-0.436713	0.397833
Zn8	Zn	1.494282	0.063287	0.897833
O9	O	1.058869	-0.372160	0.339015
O10	O	1.558869	0.127840	0.839015
O11	O	1.223069	-0.328387	0.382255
O12	O	1.723069	0.171613	0.882255
O13	O	1.111100	-0.411146	0.181682
O14	O	1.611100	0.088854	0.681682
O15	O	1.015148	-0.204330	0.295825
O16	O	1.515148	0.295670	0.795825
O17	O	1.226681	-0.415965	0.295784
O18	O	1.726681	0.084035	0.795784
O19	O	1.102721	-0.207982	0.382279
O20	O	1.602721	0.292018	0.882279
O21	O	1.019915	-0.319917	0.181700
O22	O	1.519915	0.180083	0.681700
O23	O	0.894706	-0.324712	0.295794
O24	O	1.394706	0.175288	0.795794
O25	O	1.006603	-0.424394	0.496326
O26	O	1.506603	0.075606	0.996326
O27	O	0.891022	-0.419575	0.382224
O28	O	1.391022	0.080425	0.882224
O29	O	1.097860	-0.333183	0.496350
O30	O	1.597860	0.166817	0.996350
O31	O	1.106239	-0.536347	0.295753
O32	O	1.606239	-0.036347	0.795753
O33	O	1.011370	-0.539981	0.382201
O34	O	1.511370	-0.039981	0.882201
C35	C	0.865918	-0.372142	0.339009
C36	C	1.365918	0.127858	0.839009
C37	C	0.783371	-0.372152	0.339023
C38	C	1.283371	0.127848	0.839023
C39	C	0.532567	-0.423839	0.385960
C40	C	1.032567	0.076161	0.885960
C41	C	0.584661	-0.439191	0.321719
C42	C	1.084661	0.060809	0.821719
C43	C	0.486251	-0.372176	0.339022
C44	C	0.986251	0.127824	0.839022
C45	C	0.581239	-0.356846	0.403259
C46	C	1.081239	0.143154	0.903259
C47	C	0.632236	-0.372166	0.339026
C48	C	1.132236	0.127834	0.839026
C49	C	0.537259	-0.387562	0.274747
C50	C	1.037259	0.112438	0.774747
C51	C	0.533831	-0.305187	0.356331
C52	C	1.033831	0.194813	0.856331
C53	C	0.585904	-0.320512	0.292046
C54	C	1.085904	0.179488	0.792046
C55	C	0.402153	-0.372183	0.339020
C56	C	0.902153	0.127817	0.839020
C57	C	0.716333	-0.372158	0.339020
C58	C	1.216333	0.127842	0.839020
C59	C	1.058814	-0.565111	0.338986
C60	C	1.558814	-0.065111	0.838986
C61	C	1.058857	-0.647657	0.338998
C62	C	1.558857	-0.147657	0.838998
C63	C	1.110547	-0.845108	0.292053
C64	C	1.610547	-0.345108	0.792053
C65	C	1.125962	-0.897165	0.356287
C66	C	1.625962	-0.397165	0.856287
C67	C	1.058898	-0.798789	0.339026
C68	C	1.558898	-0.298789	0.839026
C69	C	1.043557	-0.893815	0.274821
C70	C	1.543557	-0.393815	0.774821
C71	C	1.058939	-0.944775	0.339048
C72	C	1.558939	-0.444775	0.839048
C73	C	1.074346	-0.849760	0.403294
C74	C	1.574346	-0.349760	0.903294
C75	C	0.991911	-0.846404	0.321784
C76	C	1.491911	-0.346404	0.821784
C77	C	1.007299	-0.898440	0.386062
C78	C	1.507299	-0.398440	0.886062
C79	C	1.058876	-0.714690	0.339013
C80	C	1.558876	-0.214690	0.839013
C81	C	1.058960	-1.028872	0.339068
C82	C	1.558960	-0.528872	0.839068
C83	C	1.252575	-0.372179	0.339021
C84	C	1.752575	0.127821	0.839021
C85	C	1.335120	-0.372187	0.339023
C86	C	1.835120	0.127813	0.839023
C87	C	1.051124	-0.379895	0.522589
C88	C	1.551124	0.120105	1.022589
C89	C	1.047823	-0.383191	0.600818
C90	C	1.547823	0.116809	1.100818
C91	C	1.058945	-0.178456	0.339058
C92	C	1.558945	0.321544	0.839058
C93	C	1.058977	-0.095911	0.339077
C94	C	1.558977	0.404089	0.839077
C95	C	1.066628	-0.364402	0.156154
C96	C	1.566628	0.135598	0.656154
C97	C	1.070072	-0.360897	0.077926
C98	C	1.570072	0.139103	0.577926
C99	C	1.093783	-0.337252	0.637583
C100	C	1.593783	0.162748	1.137583
C101	C	1.090672	-0.340346	0.711087
C102	C	1.590672	0.159654	1.211087
C103	C	1.041606	-0.389383	0.747825
C104	C	1.541606	0.110617	1.247825
C105	C	0.995641	-0.435323	0.711054
C106	C	1.495641	0.064677	1.211054
C107	C	0.998748	-0.432225	0.637551
C108	C	1.498748	0.067775	1.137551
C109	C	1.027215	-0.403738	0.967653
C110	C	1.527215	0.096262	1.467653
C111	C	1.024113	-0.406835	1.041161
C112	C	1.524113	0.093165	1.541161
C113	C	1.119143	-0.311857	1.041189
C114	C	1.619143	0.188143	1.541189
C115	C	1.122249	-0.308766	0.967684
C116	C	1.622249	0.191234	1.467684
C117	C	1.076282	-0.354703	0.930920
C118	C	1.576282	0.145297	1.430920
N119	N	1.038427	-0.392549	0.822958
N120	N	1.538427	0.107451	1.322958
N121	N	1.079458	-0.351533	0.855789
N122	N	1.579458	0.148467	1.355789
H123	H	1.154237	-0.821757	0.252371
H124	H	1.654237	-0.321757	0.752371
H125	H	1.182628	-0.919440	0.370884
H126	H	1.682628	-0.419440	0.870884
H127	H	1.087280	-0.830413	0.457647
H128	H	1.587280	-0.330413	0.957647
C129	C	1.159408	-0.182055	0.945119
C130	C	1.659408	0.317945	1.445119
C131	C	1.176179	-0.254844	0.927320
C132	C	1.676179	0.245156	1.427320
H133	H	1.192701	-0.148764	0.920201
H134	H	1.692701	0.351236	1.420201
H135	H	1.164128	-0.177344	0.994153
H136	H	1.664128	0.322656	1.494153
H137	H	1.110022	-0.170688	0.933062
H138	H	1.610022	0.329312	1.433062
H139	H	1.225563	-0.266213	0.939382
H140	H	1.725563	0.233787	1.439382
H141	H	1.171465	-0.259558	0.878275
H142	H	1.671465	0.240442	1.378275
C143	C	1.140742	-0.290327	0.524923
C144	C	1.640742	0.209673	1.024923
C145	C	1.147717	-0.283347	0.597204
C146	C	1.647717	0.216653	1.097204
H147	H	1.174041	-0.257048	0.499998
H148	H	1.674041	0.242952	0.999998
H149	H	1.091363	-0.278947	0.512880
H150	H	1.591363	0.221053	1.012880
H151	H	1.152105	-0.339719	0.512872
H152	H	1.652105	0.160281	1.012872
H153	H	1.136348	-0.233956	0.609256
H154	H	1.636348	0.266044	1.109256
H155	H	1.197108	-0.294722	0.609252
H156	H	1.697108	0.205278	1.109252
H157	H	0.961316	-0.469625	0.607618
H158	H	1.461316	0.030375	1.107618
C159	C	1.025566	-0.997664	0.202464
C160	C	1.525566	-0.497664	0.702464
C161	C	1.026013	-0.920059	0.201511
C162	C	1.526013	-0.420059	0.701511
H163	H	1.014744	-1.013863	0.157203
H164	H	1.514744	-0.513863	0.657203
H165	H	0.988840	-1.015966	0.235779
H166	H	1.488840	-0.515966	0.735779
H167	H	1.072816	-1.015793	0.215044
H168	H	1.572816	-0.515793	0.715044
H169	H	0.978760	-0.901930	0.188935
H170	H	1.478760	-0.401930	0.688935
H171	H	1.062741	-0.901749	0.168185
H172	H	1.562741	-0.401749	0.668185
C173	C	0.525740	-0.212805	0.443447
C174	C	1.025740	0.287195	0.943447
C175	C	0.503687	-0.228743	0.376124
C176	C	1.003687	0.271257	0.876124
H177	H	0.507125	-0.165614	0.455673
H178	H	1.007125	0.334386	0.955673
H179	H	0.578331	-0.212372	0.444012
H180	H	1.078331	0.287628	0.944012
H181	H	0.506709	-0.249618	0.476316
H182	H	1.006709	0.250382	0.976316
H183	H	0.522724	-0.191933	0.343254
H184	H	1.022724	0.308067	0.843254
H185	H	0.451086	-0.229170	0.375553
H186	H	0.951086	0.270830	0.875553
C187	C	0.986912	-0.533537	1.063767
C188	C	1.486912	-0.033537	1.563767
C189	C	0.970171	-0.460735	1.081547
C190	C	1.470171	0.039265	1.581547
H191	H	0.953610	-0.566809	1.088699
H192	H	1.453610	-0.066809	1.588699
H193	H	1.036290	-0.544917	1.075813
H194	H	1.536290	-0.044917	1.575813
H195	H	0.982175	-0.538260	1.014730
H196	H	1.482175	-0.038260	1.514730
H197	H	0.974914	-0.456010	1.130584
H198	H	1.474914	0.043990	1.630584
H199	H	0.920781	-0.449351	1.069506
H200	H	1.420781	0.050649	1.569506
H201	H	0.963637	-0.921657	0.425841
H202	H	1.463637	-0.421657	0.925841
H203	H	1.156566	-0.274456	1.071130
H204	H	1.656566	0.225544	1.571130
C205	C	0.467803	-0.469615	0.206084
C206	C	0.967803	0.030385	0.706084
C207	C	0.511193	-0.405160	0.201390
C208	C	1.011193	0.094840	0.701390
H209	H	0.451715	-0.480482	0.160797
H210	H	0.951715	0.019518	0.660797
H211	H	0.425894	-0.462285	0.236715
H212	H	0.925894	0.037715	0.736715
H213	H	0.496379	-0.509793	0.223912
H214	H	0.996379	-0.009793	0.723912
H215	H	0.482615	-0.364980	0.183567
H216	H	0.982615	0.135020	0.683567
H217	H	0.553108	-0.412485	0.170748
H218	H	1.053108	0.087515	0.670748
C219	C	1.184927	-0.246166	0.703732
C220	C	1.684927	0.253834	1.203732
C221	C	1.141198	-0.289854	0.751499
C222	C	1.641198	0.210146	1.251499
H223	H	1.216124	-0.214997	0.728682
H224	H	1.716124	0.285003	1.228682
H225	H	1.153797	-0.216546	0.675068
H226	H	1.653797	0.283454	1.175068
H227	H	1.214528	-0.277329	0.675057
H228	H	1.714528	0.222671	1.175057
H229	H	1.111593	-0.258691	0.780171
H230	H	1.611593	0.241309	1.280171
H231	H	1.172332	-0.319477	0.780175
H232	H	1.672332	0.180523	1.280175
C233	C	0.595021	-0.277755	0.171214
C234	C	1.095021	0.222245	0.671214
C235	C	0.617261	-0.261527	0.238405
C236	C	1.117261	0.238473	0.738405
H237	H	0.614386	-0.241345	0.138098
H238	H	1.114386	0.258655	0.638098
H239	H	0.542428	-0.277711	0.170656
H240	H	1.042428	0.222289	0.670656
H241	H	0.613179	-0.325212	0.159317
H242	H	1.113179	0.174788	0.659317
H243	H	0.599098	-0.214072	0.250304
H244	H	1.099098	0.285928	0.750304
H245	H	0.669865	-0.261563	0.238965
H246	H	1.169865	0.238437	0.738965
H247	H	0.600648	-0.343884	0.457583
H248	H	1.100648	0.156116	0.957583
H249	H	0.935263	-0.824112	0.307168
H250	H	1.435263	-0.324112	0.807168
H251	H	0.989796	-0.441155	0.937728
H252	H	1.489796	0.058845	1.437728
H253	H	0.955687	-0.475247	0.740972
H254	H	1.455687	0.024753	1.240972
H255	H	0.509215	-0.467562	0.425602
H256	H	1.009215	0.032438	0.925602
H257	H	0.606964	-0.495838	0.307075
H258	H	1.106964	0.004162	0.807075
