data_functionalizedCrystal
_audit_creation_method	'MofGen! by Chris Wilmer'
_symmetry_space_group_name_H-M	'P1'
_symmetry_Int_Tables_number	1
_symmetry_cell_setting	triclinic
loop_
_symmetry_equiv_pos_as_xyz
  x,y,z
_cell_length_a	6.394989
_cell_length_b	8.559649
_cell_length_c	7.681481
_cell_angle_alpha	85.086760
_cell_angle_beta	95.906187
_cell_angle_gamma	78.138188
loop_
_atom_site_label
_atom_site_type_symbol
_atom_site_fract_x
_atom_site_fract_y
_atom_site_fract_z
O1	O	0.048509	-2.104046	-0.146402
O2	O	-0.059017	-1.641007	-0.146408
O3	O	0.299864	-1.879099	-0.146406
O4	O	-0.310373	-1.865954	-0.146404
O5	O	0.344125	-1.908402	0.146452
O6	O	-0.014756	-1.670310	0.146450
O7	O	0.092770	-2.133349	0.146456
Zn8	Zn	0.046035	-1.906482	0.192951
Zn9	Zn	-0.012282	-1.867874	-0.192902
O10	O	-0.266111	-1.895257	0.146454
C11	C	-0.045035	-1.596293	0.000021
C12	C	-0.069291	-1.419401	0.000018
C13	C	0.078787	-2.178063	0.000024
C14	C	0.103041	-2.354954	0.000015
N15	N	0.085837	-1.932843	0.456285
C16	C	0.399398	-1.891151	0.000016
C17	C	0.634359	-1.883208	0.000015
N18	N	-0.052066	-1.841525	-0.456237
H19	H	0.269137	-1.435105	0.000005
C20	C	-0.290894	-1.312572	-0.000349
C21	C	-0.424453	-1.328639	-0.151038
C22	C	-0.628595	-1.230238	-0.151450
H23	H	-0.351246	-1.343617	0.101658
H24	H	-0.278422	-1.203863	-0.000450
H25	H	-0.436933	-1.437324	-0.150922
H26	H	-0.364170	-1.297582	-0.253071
H27	H	-0.616123	-1.121530	-0.151550
H28	H	-0.688926	-1.261292	-0.049435
H29	H	-0.719234	-1.241115	-0.253697
C30	C	-0.240043	-1.717418	0.443601
C31	C	-0.433701	-1.752047	0.488281
C32	C	-0.606914	-1.637766	0.396019
H33	H	-0.230391	-1.613558	0.473669
H34	H	-0.235846	-1.720289	0.320623
H35	H	-0.437896	-1.749161	0.611231
H36	H	-0.443423	-1.855887	0.458208
H37	H	-0.602716	-1.640637	0.273041
H38	H	-0.597240	-1.533913	0.426094
H39	H	-0.738330	-1.661255	0.426309
H40	H	0.226592	-2.026079	0.531491
