data_functionalizedCrystal
_audit_creation_method	'MofGen! by Chris Wilmer'
_symmetry_space_group_name_H-M	'P1'
_symmetry_Int_Tables_number	1
_symmetry_cell_setting	triclinic
loop_
_symmetry_equiv_pos_as_xyz
  x,y,z
_cell_length_a	15.944551
_cell_length_b	15.944551
_cell_length_c	10.868271
_cell_angle_alpha	89.993912
_cell_angle_beta	90.000173
_cell_angle_gamma	83.498738
loop_
_atom_site_label
_atom_site_type_symbol
_atom_site_fract_x
_atom_site_fract_y
_atom_site_fract_z
O1	O	1.114524	0.108333	-0.102197
O2	O	0.869974	0.121689	-0.102228
O3	O	0.998927	-0.007264	-0.102200
O4	O	0.985571	0.237285	-0.102224
O5	O	0.998917	-0.007269	0.102445
O6	O	0.869964	0.121684	0.102417
O7	O	1.114513	0.108328	0.102448
Zn8	Zn	0.992237	0.115005	0.134924
Zn9	Zn	0.992251	0.115011	-0.134704
O10	O	0.985560	0.237280	0.102421
C11	C	0.838675	0.121132	0.000091
C12	C	0.745429	0.119470	0.000079
C13	C	0.998367	-0.038561	0.000122
C14	C	0.996705	-0.131807	0.000123
C15	C	0.530572	0.035565	0.000112
C16	C	0.469557	0.074530	-0.100793
C17	C	0.574703	0.116462	0.000094
C18	C	0.469569	0.074544	0.100971
C19	C	0.409790	0.113551	0.000114
C20	C	0.514916	0.155449	-0.100893
C21	C	0.514935	0.155452	0.100961
C22	C	0.453937	0.194476	0.000032
C23	C	0.669705	0.118137	0.000082
C24	C	0.314789	0.111883	0.000118
C25	C	0.912801	-0.346663	0.000095
C26	C	0.951758	-0.407683	0.101002
C27	C	0.993698	-0.302533	0.000113
C28	C	0.951787	-0.407662	-0.100761
C29	C	0.990787	-0.467445	0.000098
C30	C	1.032677	-0.362324	0.101103
C31	C	1.032695	-0.362296	-0.100751
C32	C	1.071711	-0.423298	0.000181
C33	C	0.995372	-0.207530	0.000123
C34	C	0.989119	-0.562446	0.000097
C35	C	1.145813	0.108885	0.000127
C36	C	1.239059	0.110547	0.000130
C37	C	0.986120	0.268577	0.000095
C38	C	0.987782	0.361823	0.000087
N39	N	0.992233	0.115000	0.318938
N40	N	0.992261	0.115010	-0.318718
C41	C	0.992246	0.115010	0.569944
C42	C	0.992236	0.115007	0.430267
H43	H	0.563905	-0.031573	-0.000007
O44	O	0.538849	0.196317	-0.202654
C45	C	0.578884	0.266849	-0.166658
H46	H	0.604639	0.256743	-0.069283
H47	H	0.633043	0.274953	-0.232494
H48	H	0.531346	0.325886	-0.169091
H49	H	0.420779	0.261683	-0.000031
O50	O	0.910849	-0.431508	-0.202499
C51	C	0.827096	-0.392114	-0.202106
H52	H	0.823067	-0.332717	-0.143035
H53	H	0.806967	-0.374401	-0.300236
H54	H	0.783530	-0.437366	-0.162731
O55	O	1.073512	-0.338634	0.203031
C56	C	1.100500	-0.410532	0.274329
H57	H	1.106038	-0.469017	0.213246
H58	H	1.164611	-0.403142	0.316843
H59	H	1.052676	-0.417578	0.350551
H60	H	0.449479	0.040311	0.186275
O61	O	0.832642	-0.307057	0.000255
C62	C	0.774903	-0.367808	0.001387
H63	H	0.806950	-0.429594	0.040644
H64	H	0.718233	-0.344249	0.060937
H65	H	0.752835	-0.378706	-0.096500
O66	O	0.445715	0.033658	-0.202592
C67	C	0.517603	0.005923	-0.273461
H68	H	0.575971	0.000087	-0.212120
H69	H	0.509776	-0.058184	-0.315650
H70	H	0.525194	0.053437	-0.349917
O71	O	0.538934	0.196112	0.202851
C72	C	0.516077	0.153250	0.309035
H73	H	0.509311	0.084770	0.284867
H74	H	0.567002	0.155299	0.382252
H75	H	0.453437	0.185019	0.345849
H76	H	1.138919	-0.456457	0.000246
H77	H	0.917537	-0.427793	0.186303
H78	H	1.066887	-0.342164	-0.186056
