data_functionalizedCrystal
_audit_creation_method	'MofGen! by Chris Wilmer'
_symmetry_space_group_name_H-M	'P1'
_symmetry_Int_Tables_number	1
_symmetry_cell_setting	triclinic
loop_
_symmetry_equiv_pos_as_xyz
  x,y,z
_cell_length_a	17.666332
_cell_length_b	19.188930
_cell_length_c	19.188930
_cell_angle_alpha	83.144779
_cell_angle_beta	89.988397
_cell_angle_gamma	89.976766
loop_
_atom_site_label
_atom_site_type_symbol
_atom_site_fract_x
_atom_site_fract_y
_atom_site_fract_z
O1	O	0.063200	-0.926150	-0.087169
O2	O	0.063149	-0.722838	-0.098903
O3	O	0.063161	-0.830361	0.008620
O4	O	0.063188	-0.818627	-0.194692
O5	O	-0.062735	-0.830342	0.008625
O6	O	-0.062747	-0.722820	-0.098897
O7	O	-0.062697	-0.926131	-0.087163
Cu8	Cu	-0.074217	-0.824473	-0.093030
Cu9	Cu	0.074670	-0.824496	-0.093036
O10	O	-0.062709	-0.818608	-0.194686
C11	C	0.000194	-0.696818	-0.098520
C12	C	0.000174	-0.619313	-0.097380
C13	C	0.000211	-0.829972	0.034634
C14	C	0.000204	-0.828831	0.112138
N15	N	-0.178937	-0.824463	-0.093025
C16	C	-0.218541	-0.872089	-0.045437
C17	C	-0.297789	-0.872093	-0.045433
C18	C	-0.337429	-0.824478	-0.093030
C19	C	-0.297815	-0.776842	-0.140621
C20	C	-0.218569	-0.776835	-0.140619
N21	N	-0.461841	-0.815401	-0.154837
N22	N	-0.537121	-0.815413	-0.154837
C23	C	-0.576193	-0.824496	-0.093040
N24	N	-0.537140	-0.833582	-0.031239
N25	N	-0.461853	-0.833574	-0.031240
C26	C	-0.423358	-0.824480	-0.093038
C27	C	-0.701727	-0.872130	-0.045444
C28	C	-0.780976	-0.872129	-0.045440
C29	C	-0.781000	-0.776881	-0.140634
C30	C	-0.701753	-0.776878	-0.140632
C31	C	-0.662121	-0.824506	-0.093038
N32	N	0.179390	-0.824512	-0.093036
C33	C	0.000260	-0.952151	-0.087546
C34	C	0.000285	-1.029656	-0.088687
C35	C	0.000194	-0.574389	-0.160470
C36	C	0.000203	-0.501566	-0.159399
C37	C	0.000206	-0.473669	-0.095233
C38	C	0.000181	-0.518603	-0.032133
C39	C	0.000166	-0.591425	-0.033207
N40	N	0.043078	-0.365695	-0.046188
N41	N	0.043095	-0.296517	-0.045172
C42	C	0.000252	-0.254260	-0.091994
N43	N	-0.042599	-0.283795	-0.139881
N44	N	-0.042612	-0.352979	-0.140899
C45	C	0.000222	-0.394707	-0.094062
C46	C	0.000280	-0.130372	-0.153928
C47	C	0.000283	-0.057547	-0.152853
C48	C	0.000270	-0.074586	-0.025586
C49	C	0.000258	-0.147409	-0.026662
C50	C	0.000267	-0.175298	-0.090835
C51	C	0.000244	-0.818997	-0.220700
C52	C	0.000255	-0.820138	-0.298204
C53	C	0.000216	-0.891922	0.157062
C54	C	0.000228	-0.890850	0.229886
C55	C	0.000212	-0.826684	0.257782
C56	C	0.000205	-0.763585	0.212849
C57	C	0.000200	-0.764658	0.140026
N58	N	-0.042645	-0.777630	0.365789
N59	N	-0.042642	-0.776615	0.434968
C60	C	0.000227	-0.823446	0.477191
N61	N	0.043084	-0.871341	0.447624
N62	N	0.043079	-0.872359	0.378439
C63	C	0.000218	-0.825513	0.336745
C64	C	0.000253	-0.885379	0.601079
C65	C	0.000270	-0.884305	0.673904
C66	C	0.000239	-0.757038	0.656865
C67	C	0.000230	-0.758114	0.584042
C68	C	0.000233	-0.822287	0.556154
H69	H	-0.330041	-0.910878	-0.006680
O70	O	-0.180128	-0.730640	-0.186948
C71	C	-0.155910	-0.689324	-0.308455
C72	C	-0.199479	-0.741687	-0.256063
H73	H	-0.171551	-0.698227	-0.364346
H74	H	-0.092454	-0.697498	-0.300342
H75	H	-0.171512	-0.633440	-0.299458
H76	H	-0.183940	-0.797592	-0.265028
H77	H	-0.262925	-0.733451	-0.264189
O78	O	-0.819380	-0.730559	-0.186896
C79	C	-0.811041	-0.636116	-0.281342
C80	C	-0.767478	-0.688530	-0.228978
H81	H	-0.769097	-0.602132	-0.315389
H82	H	-0.848147	-0.601286	-0.251321
H83	H	-0.848138	-0.666167	-0.316117
H84	H	-0.730340	-0.658537	-0.194190
H85	H	-0.730419	-0.723360	-0.259043
O86	O	0.000334	-0.014005	-0.214208
C87	C	0.000313	-0.004793	-0.340550
C88	C	0.000273	-0.054186	-0.271118
H89	H	0.000248	-0.037259	-0.386580
H90	H	0.053019	0.029687	-0.343276
H91	H	-0.052356	0.029766	-0.343192
H92	H	0.052907	-0.088789	-0.268430
H93	H	-0.052467	-0.088618	-0.268421
O94	O	-0.663231	-0.918319	0.000867
C95	C	-0.638944	-0.959657	0.122354
C96	C	-0.682587	-0.907299	0.069998
H97	H	-0.654589	-0.950776	0.178257
H98	H	-0.575499	-0.951454	0.114209
H99	H	-0.654475	-1.015543	0.113350
H100	H	-0.667119	-0.851392	0.078970
H101	H	-0.746021	-0.915563	0.078156
O102	O	0.000116	-0.191082	0.034606
C103	C	-0.065103	-0.283185	0.107237
C104	C	-0.065043	-0.233754	0.037830
H105	H	-0.117770	-0.317709	0.109860
H106	H	-0.065147	-0.250777	0.153312
H107	H	-0.012398	-0.317700	0.109901
H108	H	-0.117739	-0.199230	0.035098
H109	H	-0.064960	-0.266205	-0.008213
O110	O	0.000257	-0.694645	0.683839
C111	C	0.000181	-0.568529	0.659254
C112	C	0.000173	-0.639141	0.628609
H113	H	0.000097	-0.523636	0.614615
H114	H	0.052883	-0.564804	0.692882
H115	H	-0.052492	-0.564875	0.692958
H116	H	0.052811	-0.642843	0.594873
H117	H	-0.052564	-0.642836	0.595020
O118	O	0.000185	-0.634969	0.028147
C119	C	0.000126	-0.644184	0.154489
C120	C	0.000119	-0.594790	0.085058
H121	H	0.000057	-0.611719	0.200520
H122	H	0.052821	-0.678716	0.157214
H123	H	-0.052555	-0.678691	0.157131
H124	H	0.052764	-0.560238	0.082370
H125	H	-0.052610	-0.560305	0.082363
O126	O	0.000410	-0.157504	-0.216243
C127	C	0.065594	-0.229907	-0.291301
C128	C	0.065553	-0.199216	-0.220714
H129	H	0.118248	-0.263649	-0.294933
H130	H	0.065649	-0.185315	-0.336242
H131	H	0.012876	-0.263518	-0.294966
H132	H	0.118262	-0.165613	-0.216980
H133	H	0.065458	-0.243841	-0.175807
O134	O	0.000362	-0.457944	-0.220706
C135	C	0.065601	-0.421162	-0.329160
C136	C	0.065520	-0.470589	-0.259750
H137	H	0.118267	-0.431378	-0.360753
H138	H	0.065662	-0.364311	-0.317407
H139	H	0.012894	-0.431239	-0.360726
H140	H	0.118217	-0.460575	-0.228149
H141	H	0.065419	-0.527424	-0.271552
O142	O	0.000344	-0.696845	0.540371
C143	C	0.065521	-0.624225	0.448223
C144	C	0.065492	-0.693635	0.497651
H145	H	0.118180	-0.621614	0.413661
H146	H	0.065561	-0.578152	0.480634
H147	H	0.012807	-0.621547	0.413748
H148	H	0.118197	-0.696382	0.532136
H149	H	0.065412	-0.739675	0.465198
H150	H	0.000319	-0.051874	0.026659
O151	O	0.000258	-0.954318	0.130089
C152	C	0.000235	-1.080433	0.154677
C153	C	0.000204	-1.009820	0.185320
H154	H	0.000175	-1.125325	0.199316
H155	H	0.052933	-1.084178	0.121024
H156	H	-0.052442	-1.084069	0.120996
H157	H	0.052845	-1.006137	0.219032
H158	H	-0.052529	-1.006106	0.218932
H159	H	0.000241	-0.942228	0.266470
H160	H	-0.669505	-0.738099	-0.179386
O161	O	0.000289	-0.701298	0.240027
C162	C	0.065522	-0.626221	0.312312
C163	C	0.065507	-0.696795	0.281594
H164	H	0.118253	-0.622552	0.345914
H165	H	0.012871	-0.622517	0.346036
H166	H	0.065476	-0.581322	0.267680
H167	H	0.065580	-0.741735	0.326182
H168	H	0.118154	-0.700438	0.247853
H169	H	-0.186275	-0.910869	-0.006681
H170	H	-0.330094	-0.738072	-0.179374
H171	H	-0.813222	-0.910910	-0.006684
H172	H	0.000203	-0.597091	-0.212725
H173	H	0.000194	-0.495885	0.020111
H174	H	0.000190	-0.713281	0.103448
H175	H	0.000259	-0.937632	0.578372
H176	H	0.000284	-0.935683	0.710481
