data_functionalizedCrystal
_audit_creation_method	'MofGen! by Chris Wilmer'
_symmetry_space_group_name_H-M	'P1'
_symmetry_Int_Tables_number	1
_symmetry_cell_setting	triclinic
loop_
_symmetry_equiv_pos_as_xyz
  x,y,z
_cell_length_a	15.944564
_cell_length_b	15.944551
_cell_length_c	17.666332
_cell_angle_alpha	90.006373
_cell_angle_beta	90.002819
_cell_angle_gamma	96.498664
loop_
_atom_site_label
_atom_site_type_symbol
_atom_site_fract_x
_atom_site_fract_y
_atom_site_fract_z
O1	O	-1.114513	0.108391	0.062861
O2	O	-0.869965	0.121736	0.062879
O3	O	-0.998917	-0.007211	0.062874
O4	O	-0.985561	0.237338	0.062866
O5	O	-0.998915	-0.007231	-0.063023
O6	O	-0.869963	0.121716	-0.063018
O7	O	-1.114511	0.108370	-0.063036
Cu8	Cu	-0.992236	0.115041	-0.074522
Cu9	Cu	-0.992239	0.115066	0.074365
O10	O	-0.985559	0.237318	-0.063031
C11	C	-0.838670	0.121170	-0.000067
C12	C	-0.745425	0.119504	-0.000060
C13	C	-0.998361	-0.038515	-0.000072
C14	C	-0.996699	-0.131761	-0.000063
C15	C	-0.530569	0.035589	-0.000072
C16	C	-0.469551	0.074559	0.062001
C17	C	-0.574700	0.116488	-0.000069
C18	C	-0.469570	0.074558	-0.062124
C19	C	-0.409788	0.113570	-0.000081
C20	C	-0.514909	0.155481	0.062055
C21	C	-0.514936	0.155468	-0.062125
C22	C	-0.453935	0.194497	-0.000037
C23	C	-0.669701	0.118167	-0.000061
C24	C	-0.314787	0.111898	-0.000083
C25	C	-0.145807	0.108925	-0.000088
C26	C	-0.239057	0.110558	-0.000090
C27	C	-0.986114	0.268622	-0.000083
C28	C	-0.987777	0.361868	-0.000087
N29	N	-0.992241	0.115023	-0.179242
C30	C	-1.071680	0.576729	-0.000081
C31	C	-1.032717	0.637733	-0.062153
C32	C	-0.990784	0.532594	-0.000080
C33	C	-1.032700	0.637739	0.061971
C34	C	-0.993695	0.697507	-0.000071
C35	C	-0.951798	0.592370	-0.062203
C36	C	-0.951793	0.592370	0.061977
C37	C	-0.912771	0.653356	-0.000110
C38	C	-0.989109	0.437592	-0.000086
C39	C	-0.995363	0.792508	-0.000070
N40	N	-0.992242	0.115077	0.179085
C41	C	-1.043065	0.166119	0.781147
C42	C	-1.043071	0.166123	0.701900
C43	C	-0.992238	0.115040	0.662266
C44	C	-0.941410	0.063934	0.701887
C45	C	-0.941412	0.063925	0.781133
N46	N	-0.918677	0.112605	0.537846
N47	N	-0.918677	0.112618	0.462565
C48	C	-0.992231	0.115061	0.423502
N49	N	-1.065785	0.117507	0.462564
N50	N	-1.065783	0.117499	0.537851
C51	C	-0.992231	0.115043	0.576337
C52	C	-1.043066	0.166164	0.297962
C53	C	-1.043074	0.166161	0.218713
C54	C	-0.941406	0.063977	0.218701
C55	C	-0.941406	0.063975	0.297949
C56	C	-0.992235	0.115073	0.337574
H57	H	-0.563902	-0.031547	0.000007
H58	H	-1.084467	0.207767	0.186463
H59	H	-0.900018	0.022383	0.186432
H60	H	-0.449441	0.040351	0.114481
H61	H	-0.900023	0.022316	0.813384
O62	O	-0.538600	0.196331	0.124757
C63	C	-0.466703	0.223327	0.168615
H64	H	-0.408218	0.228853	0.131035
H65	H	-0.474094	0.287444	0.194763
H66	H	-0.459658	0.175514	0.215511
H67	H	-0.535066	0.189648	-0.114608
O68	O	-0.910998	0.568217	0.124530
C69	C	-0.909360	0.480001	0.123286
H70	H	-0.916875	0.456219	0.062536
H71	H	-0.846600	0.464004	0.146994
H72	H	-0.963278	0.448446	0.159321
O73	O	-1.092397	0.215909	0.336378
C74	C	-1.068955	0.301131	0.317042
H75	H	-1.036383	0.304658	0.259504
H76	H	-1.127684	0.335692	0.314337
H77	H	-1.023845	0.331954	0.361648
O78	O	-1.073646	0.661604	0.124553
C79	C	-1.157399	0.622214	0.124298
H80	H	-1.161424	0.562807	0.087958
H81	H	-1.177535	0.604518	0.184664
H82	H	-1.200961	0.667462	0.100065
H83	H	-0.449483	0.040317	-0.114599
O84	O	-1.092523	0.215769	0.819521
C85	C	-1.137369	0.260884	0.767559
H86	H	-1.142331	0.226124	0.711062
H87	H	-1.203393	0.266266	0.790450
H88	H	-1.102647	0.326742	0.759147
H89	H	-0.420776	0.261702	-0.000005
O90	O	-1.151840	0.537130	-0.000195
C91	C	-1.209574	0.597889	-0.000901
H92	H	-1.177518	0.659666	-0.025044
H93	H	-1.266239	0.574329	-0.037547
H94	H	-1.231650	0.608801	0.059315
O95	O	-1.073667	0.661664	-0.124706
C96	C	-1.157411	0.622249	-0.124502
H97	H	-1.176904	0.604012	-0.064098
H98	H	-1.201233	0.667698	-0.147951
H99	H	-1.161812	0.563167	-0.161294
O100	O	-0.911064	0.568368	-0.124853
C101	C	-0.910001	0.480071	-0.124106
H102	H	-0.963925	0.449883	-0.087326
H103	H	-0.917935	0.454610	-0.184292
H104	H	-0.847287	0.464321	-0.100098
H105	H	-1.084458	0.207734	0.669642
H106	H	-0.845564	0.686512	-0.000139
H107	H	-0.900023	0.022341	0.669612
O108	O	-0.891949	0.014324	0.336314
C109	C	-0.847098	-0.030779	0.284343
H110	H	-0.842130	0.003993	0.227859
H111	H	-0.781076	-0.036166	0.307241
H112	H	-0.881819	-0.096636	0.275902
