data_functionalizedCrystal
_audit_creation_method	'MofGen! by Chris Wilmer'
_symmetry_space_group_name_H-M	'P1'
_symmetry_Int_Tables_number	1
_symmetry_cell_setting	triclinic
loop_
_symmetry_equiv_pos_as_xyz
  x,y,z
_cell_length_a	10.967874
_cell_length_b	15.944493
_cell_length_c	9.482900
_cell_angle_alpha	99.338736
_cell_angle_beta	68.707142
_cell_angle_gamma	84.107032
loop_
_atom_site_label
_atom_site_type_symbol
_atom_site_fract_x
_atom_site_fract_y
_atom_site_fract_z
O1	O	1.745495	0.057611	-0.558168
O2	O	1.366932	0.079117	-0.463329
O3	O	1.566593	-0.054139	-0.513361
O4	O	1.545835	0.190867	-0.508136
O5	O	1.526037	-0.026966	-0.261406
O6	O	1.326377	0.106289	-0.211374
O7	O	1.704939	0.084784	-0.306213
Cu8	Cu	1.511955	0.098018	-0.235788
Cu9	Cu	1.559917	0.065883	-0.533754
O10	O	1.505279	0.218039	-0.256181
C11	C	1.298212	0.093191	-0.325216
C12	C	1.153870	0.094636	-0.289056
C13	C	1.110526	0.081204	-0.403455
C14	C	0.961341	0.082697	-0.366084
C15	C	1.545468	-0.071830	-0.387177
C16	C	1.542928	-0.165026	-0.386560
C17	C	1.660446	-0.403312	-0.415973
C18	C	1.617066	-0.465913	-0.524322
C19	C	1.538212	-0.335643	-0.385360
C20	C	1.577053	-0.439099	-0.275907
C21	C	1.533666	-0.500452	-0.384198
C22	C	1.494882	-0.397028	-0.493820
C23	C	1.454869	-0.370199	-0.245298
C24	C	1.411404	-0.432768	-0.353655
C25	C	1.540835	-0.240701	-0.386032
C26	C	1.531035	-0.595392	-0.383534
C27	C	1.773660	0.070709	-0.444329
C28	C	1.918004	0.069263	-0.480500
C29	C	1.526404	0.235730	-0.382368
C30	C	1.528946	0.328925	-0.382996
N31	N	1.478231	0.120619	-0.026217
N32	N	1.593651	0.043275	-0.743328
C33	C	1.549960	0.072545	0.028008
C34	C	1.521911	0.091356	0.202454
H35	H	1.765757	-0.389964	-0.442476
H36	H	1.386385	-0.328801	-0.127348
C37	C	1.367207	0.195033	0.085534
N38	N	1.283581	0.251083	0.169703
H39	H	1.685593	-0.507297	-0.642280
C40	C	1.448063	-0.371917	-0.618409
N41	N	1.412806	-0.353002	-0.712253
C42	C	1.269067	-0.450612	-0.318083
N43	N	1.161861	-0.464054	-0.291297
H44	H	1.183864	0.068604	-0.529062
C45	C	1.623982	-0.464374	-0.151502
N46	N	1.659338	-0.483409	-0.057806
H47	H	1.632133	0.017458	-0.054711
C48	C	1.704682	-0.031142	0.144929
N49	N	1.788313	-0.087190	0.060761
C50	C	0.862273	0.099727	-0.196381
N51	N	0.787654	0.112553	-0.068564
C52	C	1.017070	0.052233	-0.650204
N53	N	1.091687	0.039404	-0.778023
C54	C	1.410882	0.165774	0.314200
N55	N	1.327256	0.221824	0.398370
H56	H	1.080530	0.107246	-0.163448
