data_functionalizedCrystal
_audit_creation_method	'MofGen! by Chris Wilmer'
_symmetry_space_group_name_H-M	'P1'
_symmetry_Int_Tables_number	1
_symmetry_cell_setting	triclinic
loop_
_symmetry_equiv_pos_as_xyz
  x,y,z
_cell_length_a	19.077105
_cell_length_b	19.077068
_cell_length_c	19.076919
_cell_angle_alpha	94.470751
_cell_angle_beta	90.076224
_cell_angle_gamma	90.115316
loop_
_atom_site_label
_atom_site_type_symbol
_atom_site_fract_x
_atom_site_fract_y
_atom_site_fract_z
Zn1	Zn	1.044048	-0.340450	-0.453500
Zn2	Zn	1.043962	-0.453600	-0.340340
Zn3	Zn	0.931660	-0.331023	-0.330931
Zn4	Zn	0.921801	-0.453176	-0.453077
O5	O	0.985368	-0.394562	-0.394462
O6	O	1.142196	-0.359583	-0.442604
O7	O	1.033154	-0.433572	-0.240616
O8	O	0.950731	-0.233799	-0.343429
O9	O	1.142133	-0.442714	-0.359466
O10	O	1.033302	-0.240725	-0.433479
O11	O	0.950647	-0.343516	-0.233703
O12	O	0.832193	-0.343104	-0.343019
O13	O	0.933928	-0.441990	-0.551609
O14	O	0.824949	-0.432849	-0.432759
O15	O	1.023742	-0.359171	-0.551919
O16	O	1.023594	-0.552019	-0.359056
O17	O	0.933844	-0.551707	-0.441883
C18	C	0.803119	-0.386908	-0.386822
C19	C	0.725151	-0.383651	-0.383571
C20	C	0.977658	-0.577398	-0.401461
C21	C	0.974423	-0.655619	-0.404482
C22	C	0.684769	-0.428912	-0.428699
C23	C	0.611510	-0.425842	-0.425647
C24	C	0.578634	-0.377515	-0.377464
C25	C	0.619022	-0.332250	-0.332335
C26	C	0.692280	-0.335317	-0.335390
C27	C	0.359940	-0.363323	-0.363326
C28	C	0.286677	-0.360262	-0.360273
C29	C	0.279170	-0.453853	-0.453586
C30	C	0.352429	-0.456918	-0.456635
C31	C	0.392810	-0.411651	-0.411508
N32	N	0.503752	-0.374378	-0.374342
N33	N	0.467691	-0.414785	-0.414634
C34	C	1.019665	-0.692509	-0.362816
C35	C	1.016626	-0.766007	-0.365661
C36	C	0.968342	-0.802612	-0.410169
C37	C	0.923098	-0.765717	-0.451839
C38	C	0.926141	-0.692221	-0.448997
C39	C	0.954231	-1.022406	-0.423292
C40	C	0.951190	-1.095907	-0.426130
C41	C	1.044720	-1.096192	-0.339952
C42	C	1.047755	-1.022695	-0.337111
C43	C	1.002514	-0.985806	-0.378784
N44	N	0.965233	-0.877738	-0.413077
N45	N	1.005627	-0.910681	-0.375880
C46	C	1.168328	-0.402247	-0.402132
C47	C	1.246295	-0.405522	-0.405400
C48	C	0.977745	-0.401585	-0.578012
C49	C	0.974497	-0.404578	-0.656230
C50	C	0.993126	-0.211015	-0.387451
C51	C	0.996432	-0.132798	-0.384464
C52	C	1.019730	-0.362866	-0.693140
C53	C	1.016669	-0.365675	-0.766634
C54	C	0.968378	-0.410200	-0.803216
C55	C	0.923140	-0.451913	-0.766301
C56	C	0.926198	-0.449100	-0.692809
C57	C	0.954216	-0.423233	-1.022998
C58	C	0.951163	-0.426044	-1.096496
C59	C	1.044691	-0.339805	-1.096823
C60	C	1.047748	-0.337000	-1.023329
C61	C	1.002507	-0.378710	-0.986421
N62	N	0.965250	-0.413073	-0.878339
N63	N	1.005632	-0.375832	-0.911299
C64	C	0.993003	-0.387518	-0.211626
C65	C	0.996396	-0.384333	-0.133406
H66	H	0.711530	-0.468267	-0.467932
H67	H	0.259912	-0.320900	-0.321040
O68	O	0.387888	-0.509036	-0.508609
H69	H	0.347500	-0.539989	-0.539483
O70	O	0.899115	-1.135394	-0.474142
H71	H	0.868172	-1.097397	-0.502649
H72	H	0.889301	-0.662185	-0.482927
H73	H	1.059056	-0.326612	-0.663360
H74	H	0.392810	-0.326468	-0.326576
H75	H	0.578633	-0.462699	-0.462394
H76	H	1.087073	-0.300745	-0.993549
O77	O	0.583569	-0.280141	-0.280347
H78	H	0.525844	-0.285623	-0.285791
O79	O	0.735841	-0.286509	-0.286710
H80	H	0.700674	-0.252395	-0.252685
H81	H	0.883787	-0.795527	-0.488082
O82	O	1.071746	-0.653028	-0.314814
H83	H	1.102700	-0.691032	-0.286326
O84	O	1.093517	-1.135991	-0.295022
H85	H	1.084411	-1.119315	-0.238732
H86	H	0.246283	-0.490707	-0.490327
H87	H	1.053467	-0.796040	-0.331732
O88	O	0.905422	-0.982636	-0.468233
H89	H	0.936677	-0.951801	-0.504094
H90	H	1.087072	-0.992892	-0.300869
H91	H	0.889357	-0.483058	-0.662757
H92	H	0.883818	-0.488163	-0.796093
O93	O	1.065460	-0.320691	-0.806447
H94	H	1.099560	-0.289266	-0.768662
O95	O	1.093469	-0.294815	-1.136643
H96	H	1.148602	-0.308655	-1.125322
O97	O	0.899071	-0.474064	-1.135958
H98	H	0.868121	-0.502590	-1.097946
H99	H	0.917388	-0.457207	-0.992957
