data_functionalizedCrystal
_audit_creation_method	'MofGen! by Chris Wilmer'
_symmetry_space_group_name_H-M	'P1'
_symmetry_Int_Tables_number	1
_symmetry_cell_setting	triclinic
loop_
_symmetry_equiv_pos_as_xyz
  x,y,z
_cell_length_a	14.044191
_cell_length_b	14.044190
_cell_length_c	13.596369
_cell_angle_alpha	89.989293
_cell_angle_beta	89.997249
_cell_angle_gamma	93.191777
loop_
_atom_site_label
_atom_site_type_symbol
_atom_site_fract_x
_atom_site_fract_y
_atom_site_fract_z
O1	O	1.277179	0.230202	-0.081764
O2	O	1.000507	0.221890	-0.081776
O3	O	1.134687	0.087710	-0.081751
O4	O	1.142999	0.364382	-0.081789
O5	O	1.134671	0.087701	0.081832
O6	O	1.000492	0.221881	0.081807
O7	O	1.277164	0.230193	0.081819
Zn8	Zn	1.138825	0.226036	0.107785
Zn9	Zn	1.138846	0.226047	-0.107742
O10	O	1.142984	0.364373	0.081794
C11	C	0.964877	0.218249	0.000014
C12	C	0.858734	0.207401	0.000011
C13	C	1.131043	0.052083	0.000043
C14	C	1.120195	-0.054060	0.000051
C15	C	0.613277	0.264502	0.000013
C16	C	0.664400	0.187585	0.000022
C17	C	0.772537	0.198614	0.000015
C18	C	0.505130	0.253475	0.000019
C19	C	1.177296	-0.299517	0.000015
C20	C	1.100379	-0.248394	0.000019
C21	C	1.111408	-0.140257	0.000037
C22	C	1.166269	-0.407664	-0.000003
C23	C	1.312794	0.233834	0.000026
C24	C	1.418937	0.244682	0.000023
C25	C	1.146628	0.400000	-0.000003
C26	C	1.157476	0.506143	-0.000017
N27	N	1.138819	0.226028	0.254877
N28	N	1.138859	0.226049	-0.254834
C29	C	1.138844	0.226048	0.656168
C30	C	1.138835	0.226046	0.544517
C31	C	1.138832	0.226039	0.455526
C32	C	1.138821	0.226034	0.343867
H33	H	0.626955	0.113453	-0.000037
H34	H	1.026247	-0.285839	0.000010
F35	F	1.274187	-0.250577	0.000031
H36	H	0.650720	0.338629	-0.000001
