data_functionalizedCrystal
_audit_creation_method	'MofGen! by Chris Wilmer'
_symmetry_space_group_name_H-M	'P1'
_symmetry_Int_Tables_number	1
_symmetry_cell_setting	triclinic
loop_
_symmetry_equiv_pos_as_xyz
  x,y,z
_cell_length_a	22.610064
_cell_length_b	17.038275
_cell_length_c	17.038272
_cell_angle_alpha	88.888330
_cell_angle_beta	89.996529
_cell_angle_gamma	90.009308
loop_
_atom_site_label
_atom_site_type_symbol
_atom_site_fract_x
_atom_site_fract_y
_atom_site_fract_z
O1	O	-0.049100	-1.048767	0.170537
O2	O	-0.049119	-0.820956	0.167829
O3	O	-0.049105	-0.933508	0.055277
O4	O	-0.049114	-0.936215	0.283089
O5	O	0.049264	-0.933471	0.055276
O6	O	0.049250	-0.820919	0.167828
O7	O	0.049270	-1.048731	0.170536
Zn8	Zn	0.064878	-0.934819	0.169181
Zn9	Zn	-0.064728	-0.934867	0.169183
O10	O	0.049255	-0.936179	0.283088
C11	C	0.000063	-0.791645	0.165365
C12	C	0.000055	-0.704361	0.158017
N13	N	0.153330	-0.934792	0.169180
C14	C	0.000052	-0.658752	0.225481
C15	C	0.000060	-0.576740	0.218572
C16	C	0.000066	-0.540339	0.144198
C17	C	0.000071	-0.585954	0.076730
C18	C	0.000067	-0.667965	0.083639
C19	C	0.000080	-0.292951	0.119787
C20	C	0.000082	-0.210935	0.112882
C21	C	0.000072	-0.201726	0.254725
C22	C	0.000065	-0.283738	0.261628
C23	C	0.000073	-0.329347	0.194160
C24	C	0.000072	-0.456510	0.137134
C25	C	0.000071	-0.413174	0.201224
C26	C	0.561974	-0.985658	0.220008
C27	C	0.623894	-0.985667	0.220008
O28	O	0.655915	-1.028887	0.263213
N29	N	0.654868	-0.934874	0.169183
C30	C	0.623918	-0.884074	0.118350
O31	O	0.655949	-0.840871	0.075120
C32	C	0.561999	-0.884069	0.118348
C33	C	0.531029	-0.934860	0.169181
C34	C	0.531004	-1.036446	0.270837
C35	C	0.469088	-1.036436	0.270838
C36	C	0.438143	-0.985638	0.220011
C37	C	0.469113	-0.934850	0.169182
C38	C	0.531050	-0.833273	0.067511
C39	C	0.469127	-0.833274	0.067513
C40	C	0.438157	-0.884065	0.118346
C41	C	0.376252	-0.884042	0.118357
N42	N	0.345279	-0.934835	0.169181
C43	C	0.376224	-0.985633	0.220008
C44	C	0.753951	-0.884088	0.118359
C45	C	0.815869	-0.884088	0.118365
C46	C	0.815841	-0.985683	0.220022
C47	C	0.753922	-0.985678	0.220019
C48	C	0.722978	-0.934882	0.169184
C49	C	0.246197	-0.985607	0.220008
C50	C	0.184276	-0.985590	0.220007
C51	C	0.184309	-0.883999	0.118348
C52	C	0.246225	-0.884012	0.118352
C53	C	0.277167	-0.934823	0.169184
O54	O	0.344192	-0.840846	0.075171
O55	O	0.344186	-1.028836	0.263225
N56	N	0.846820	-0.934889	0.169190
C57	C	0.000079	-0.931026	0.025984
C58	C	0.000079	-0.923678	-0.061300
C59	C	0.000084	-0.078042	0.172999
C60	C	0.000079	-0.165325	0.180346
C61	C	0.000085	-0.991142	-0.106909
C62	C	0.000079	-0.984233	-0.188921
C63	C	0.000070	-0.909860	-0.225322
C64	C	0.000062	-0.842391	-0.179707
C65	C	0.000064	-0.849301	-0.097696
C66	C	0.000060	-0.885449	-0.472710
C67	C	0.000060	-0.878545	-0.554726
C68	C	0.000076	-1.020387	-0.563935
C69	C	0.000081	-1.027290	-0.481922
C70	C	0.000070	-0.959822	-0.436314
C71	C	0.000066	-0.902796	-0.309151
C72	C	0.000070	-0.966886	-0.352487
C73	C	0.000070	-0.938660	0.312381
C74	C	0.000066	-0.946008	0.399665
H75	H	0.000047	-0.688383	0.286043
Br76	Br	0.000041	-0.793884	-0.410823
Br77	Br	0.000041	-0.741455	-0.229107
Br78	Br	0.000062	-0.139826	0.346284
H79	H	0.556256	-0.791915	0.026116
H80	H	0.000059	-0.794365	-0.060562
H81	H	0.556193	-1.077816	0.312227
Br82	Br	0.000076	-0.729864	-0.007922
Br83	Br	0.000076	-1.067818	-0.303084
Br84	Br	0.427067	-1.105356	0.339845
H85	H	0.000063	-0.817978	-0.584361
H86	H	0.000057	-0.539608	0.273508
Br87	Br	0.000074	-1.128229	-0.432526
H88	H	0.000053	-0.313370	0.322191
Br89	Br	0.711962	-0.815134	0.049370
H90	H	0.000086	-0.181300	0.052316
H91	H	0.159102	-0.842638	0.076968
Br92	Br	0.857892	-0.815140	0.049388
H93	H	0.000070	-0.442816	0.261779
Br94	Br	0.427135	-0.764339	-0.001490
H95	H	0.000087	-0.330076	0.064849
H96	H	0.000084	-0.556310	0.016173
Br97	Br	0.000079	-0.407102	0.036201
H98	H	0.271442	-0.842645	0.076968
Br99	Br	0.142248	-1.054518	0.289008
Br100	Br	0.288181	-1.054566	0.288995
H101	H	0.000060	-0.842241	-0.338798
Br102	Br	0.711898	-1.054614	0.289007
H103	H	0.000084	-1.075316	-0.601077
H104	H	0.841048	-1.027045	0.261409
H105	H	0.000096	-1.051705	-0.077277
H106	H	0.000085	-1.039169	-0.226052
