data_functionalizedCrystal
_audit_creation_method	'MofGen! by Chris Wilmer'
_symmetry_space_group_name_H-M	'P1'
_symmetry_Int_Tables_number	1
_symmetry_cell_setting	triclinic
loop_
_symmetry_equiv_pos_as_xyz
  x,y,z
_cell_length_a	13.635800
_cell_length_b	13.694001
_cell_length_c	11.168136
_cell_angle_alpha	101.784108
_cell_angle_beta	108.508683
_cell_angle_gamma	73.711921
loop_
_atom_site_label
_atom_site_type_symbol
_atom_site_fract_x
_atom_site_fract_y
_atom_site_fract_z
V1	V	2.036425	-0.140283	0.345245
O2	O	2.035621	0.006726	0.388528
O3	O	2.006373	-0.278143	0.294936
O4	O	2.024854	-0.138132	0.517694
O5	O	2.017012	-0.134255	0.164227
V6	V	2.277361	-0.122699	0.329419
O7	O	2.168866	-0.178857	0.379962
O8	O	2.370019	-0.084125	0.294702
O9	O	2.195810	0.015161	0.379728
O10	O	2.336864	-0.269708	0.286136
O11	O	2.355473	-0.128727	0.510436
O12	O	2.177329	-0.124850	0.156970
V13	V	2.536425	-0.140283	0.345245
O14	O	2.535621	0.006726	0.388528
O15	O	2.506373	-0.278143	0.294936
O16	O	2.524854	-0.138132	0.517694
O17	O	2.517012	-0.134255	0.164227
V18	V	2.777361	-0.122699	0.329419
O19	O	2.668866	-0.178857	0.379962
O20	O	2.870019	-0.084125	0.294702
O21	O	2.695810	0.015161	0.379728
O22	O	2.836864	-0.269708	0.286136
O23	O	2.855473	-0.128727	0.510436
O24	O	2.677329	-0.124850	0.156970
C25	C	1.927042	-0.311750	0.277117
C26	C	1.943198	-0.424453	0.237132
C27	C	2.100670	-0.800075	0.566957
C28	C	2.085498	-0.694187	0.604531
C29	C	2.049922	-0.626748	0.512684
C30	C	2.029520	-0.665208	0.383258
C31	C	2.044701	-0.771107	0.345681
C32	C	1.993954	-0.597780	0.291408
C33	C	1.973551	-0.636240	0.161982
C34	C	1.988731	-0.742129	0.124412
C35	C	2.024306	-0.809568	0.216258
C36	C	1.978772	-0.491881	0.328985
C37	C	1.922804	-0.462913	0.107709
C38	C	1.937975	-0.568802	0.070136
C39	C	1.950615	-0.133151	0.561266
C40	C	1.981758	-0.132305	0.701929
C41	C	2.106812	0.048763	0.397542
C42	C	2.080275	0.161464	0.437534
C43	C	2.083238	-0.129834	0.113390
C44	C	2.041715	-0.130675	-0.027272
C45	C	2.427042	-0.311750	0.277117
C46	C	2.443198	-0.424453	0.237132
C47	C	2.450615	-0.133151	0.561266
C48	C	2.481758	-0.132305	0.701929
C49	C	2.082427	-0.136736	0.769090
C50	C	2.114617	-0.135861	0.914473
C51	C	2.606812	0.048763	0.397542
C52	C	2.580275	0.161464	0.437534
C53	C	2.583238	-0.129834	0.113390
C54	C	2.541715	-0.130675	-0.027272
C55	C	2.542102	-0.482549	0.222878
C56	C	2.557302	-0.588447	0.185327
C57	C	2.473594	-0.636247	0.162021
C58	C	2.374683	-0.578144	0.176281
C59	C	2.359487	-0.472248	0.213841
C60	C	2.653865	0.219560	0.451791
C61	C	2.628938	0.325458	0.489348
C62	C	2.530423	0.373257	0.512657
C63	C	2.456827	0.315155	0.498394
C64	C	2.481752	0.209260	0.460828
C65	C	2.582427	-0.136736	0.769090
C66	C	2.614617	-0.135861	0.914473
H67	H	1.995393	-0.460578	0.434365
Cl68	Cl	2.777720	0.159492	0.422495
H69	H	2.278945	-0.424953	0.225436
Cl70	Cl	2.747771	-0.141724	1.003611
Cl71	Cl	2.247771	-0.141724	1.003611
H72	H	2.421824	0.161965	0.449234
H73	H	1.972129	-0.773440	0.019025
H74	H	2.306533	-0.617079	0.157300
H75	H	2.688877	0.372750	0.500957
Cl76	Cl	2.499105	0.506385	0.559883
Cl77	Cl	2.145402	-0.884858	0.682405
H78	H	2.419401	-0.127857	0.752061
H79	H	2.644782	-0.141170	0.718960
Cl80	Cl	2.332981	0.375263	0.527695
H81	H	2.455474	-0.126888	0.914995
Cl82	Cl	2.030843	-0.493630	0.559922
H83	H	1.919401	-0.127857	0.752061
H84	H	1.921367	-0.600131	-0.035245
H85	H	1.955474	-0.126888	0.914995
Cl86	Cl	2.111143	-0.645844	0.767229
Cl87	Cl	2.043390	-0.942692	0.169028
H88	H	2.144782	-0.141170	0.718960
Cl89	Cl	1.878071	-0.378140	-0.007763
H90	H	2.610271	-0.443643	0.241842
H91	H	2.637845	-0.635740	0.173719
H92	H	2.485982	-0.722475	0.131439
