data_functionalizedCrystal
_audit_creation_method	'MofGen! by Chris Wilmer'
_symmetry_space_group_name_H-M	'P1'
_symmetry_Int_Tables_number	1
_symmetry_cell_setting	triclinic
loop_
_symmetry_equiv_pos_as_xyz
  x,y,z
_cell_length_a	15.944551
_cell_length_b	10.654550
_cell_length_c	9.130313
_cell_angle_alpha	90.003780
_cell_angle_beta	89.997799
_cell_angle_gamma	96.008180
loop_
_atom_site_label
_atom_site_type_symbol
_atom_site_fract_x
_atom_site_fract_y
_atom_site_fract_z
O1	O	0.117973	-1.666308	-0.121923
O2	O	0.129213	-1.300684	-0.121900
O3	O	0.001376	-1.493480	-0.121899
O4	O	0.245810	-1.473511	-0.121924
O5	O	0.001379	-1.493478	0.121700
O6	O	0.129216	-1.300681	0.121699
O7	O	0.117976	-1.666305	0.121676
Cu8	Cu	0.123596	-1.483493	0.143930
Cu9	Cu	0.123592	-1.483496	-0.144154
O10	O	0.245813	-1.473509	0.121675
C11	C	0.128389	-1.253895	-0.000098
C12	C	0.125920	-1.114484	-0.000088
C13	C	-0.029921	-1.492650	-0.000099
C14	C	-0.123182	-1.490165	-0.000098
N15	N	0.123599	-1.483500	0.346552
C16	C	-0.338765	-1.364720	-0.000111
C17	C	-0.399443	-1.422971	0.119995
C18	C	-0.293934	-1.485668	-0.000109
C19	C	-0.399430	-1.423002	-0.120175
C20	C	-0.458872	-1.481317	-0.000126
C21	C	-0.353384	-1.543953	0.120095
C22	C	-0.353364	-1.543967	-0.120182
C23	C	-0.414024	-1.602306	-0.000048
C24	C	-0.198917	-1.488172	-0.000098
C25	C	-0.553887	-1.478822	-0.000127
C26	C	0.277110	-1.474339	-0.000128
C27	C	0.370371	-1.476824	-0.000139
C28	C	0.118800	-1.713094	-0.000130
C29	C	0.121269	-1.852505	-0.000149
C30	C	0.201188	-1.034024	-0.000117
C31	C	0.198863	-0.903034	-0.000142
C32	C	0.045995	-0.932975	-0.000116
C33	C	0.048321	-1.063963	-0.000080
C34	C	0.289446	-1.016737	-0.000139
C35	C	0.287121	-0.885746	-0.000164
N36	N	0.123583	-1.483499	-0.346777
C37	C	0.067012	-1.568892	0.423205
C38	C	0.067002	-1.568889	0.576542
C39	C	0.180173	-1.398098	0.576560
C40	C	0.180178	-1.398096	0.423226
C41	C	0.001676	-1.667501	0.423195
C42	C	0.001666	-1.667498	0.576532
H43	H	-0.419846	-1.371814	0.221540
H44	H	-0.306038	-1.264327	0.000016
C45	C	-0.085014	-0.918130	0.125125
C46	C	-0.039299	-0.877436	-0.000115
H47	H	-0.137669	-0.883838	0.125124
H48	H	-0.094399	-1.007646	0.125134
H49	H	-0.053979	-0.890484	0.210054
H50	H	-0.070332	-0.905091	-0.085045
H51	H	-0.029917	-0.787901	-0.000138
C52	C	-0.507883	-1.757209	-0.125826
C53	C	-0.457982	-1.737963	-0.000006
H54	H	-0.535008	-1.840964	-0.125806
H55	H	-0.549189	-1.699123	-0.126646
H56	H	-0.473289	-1.744611	-0.210355
H57	H	-0.492577	-1.750552	0.084524
H58	H	-0.416670	-1.796066	0.000828
C59	C	-0.091628	-1.505190	0.593350
C60	C	-0.080708	-1.627411	0.640720
H61	H	-0.142488	-1.480456	0.632966
H62	H	-0.045408	-1.448397	0.625514
H63	H	-0.094409	-1.503837	0.489440
H64	H	-0.077921	-1.628762	0.744630
H65	H	-0.126941	-1.684220	0.608564
H66	H	-0.062886	-1.646893	0.381583
C67	C	-0.348771	-1.549448	-0.382922
C68	C	-0.325780	-1.612966	-0.257268
H69	H	-0.331734	-1.592036	-0.467559
H70	H	-0.408203	-1.547712	-0.384395
H71	H	-0.321956	-1.465523	-0.382038
H72	H	-0.352600	-1.696889	-0.258146
H73	H	-0.266337	-1.614716	-0.255796
C74	C	0.281846	-1.139382	0.220972
C75	C	0.336040	-1.055746	0.137482
H76	H	0.310614	-1.163470	0.305926
H77	H	0.233929	-1.099209	0.249279
H78	H	0.264254	-1.212199	0.164336
H79	H	0.353628	-0.982925	0.194114
H80	H	0.383973	-1.095919	0.109177
C81	C	-0.037736	-1.228600	0.125216
C82	C	-0.034416	-1.152408	-0.000033
H83	H	-0.088819	-1.283197	0.125247
H84	H	0.008803	-1.277431	0.125207
H85	H	-0.035460	-1.176840	0.210139
H86	H	-0.036686	-1.204167	-0.084956
H87	H	-0.080968	-1.103572	-0.000037
C88	C	-0.238309	-1.614592	0.256125
C89	C	-0.326003	-1.612947	0.257328
H90	H	-0.221406	-1.657176	0.340853
H91	H	-0.222174	-1.657269	0.170949
H92	H	-0.211874	-1.530443	0.255783
H93	H	-0.352438	-1.697097	0.257660
H94	H	-0.342146	-1.570272	0.342527
C95	C	0.032887	-1.876394	0.513427
C96	C	0.021090	-1.797528	0.632717
H97	H	0.044882	-1.956663	0.548117
H98	H	-0.016901	-1.885953	0.455628
H99	H	0.078693	-1.840058	0.455648
H100	H	-0.024720	-1.833861	0.690490
H101	H	0.070883	-1.787973	0.690541
H102	H	-0.419804	-1.371831	-0.221721
C103	C	0.267695	-1.150096	-0.211642
C104	C	0.327386	-1.064395	-0.142110
H105	H	0.291117	-1.179512	-0.299293
H106	H	0.252406	-1.219478	-0.148350
H107	H	0.219086	-1.109409	-0.234460
H108	H	0.375993	-1.105085	-0.119282
H109	H	0.342688	-0.995001	-0.205415
H110	H	0.313795	-0.839729	0.105001
C111	C	0.292030	-1.229268	0.561176
C112	C	0.242363	-1.304223	0.660843
H113	H	0.330420	-1.171308	0.613210
H114	H	0.322577	-1.281537	0.501379
H115	H	0.256776	-1.184110	0.501362
H116	H	0.277617	-1.349388	0.720651
H117	H	0.211814	-1.251947	0.720666
C118	C	0.329675	-0.697805	-0.137801
C119	C	0.332002	-0.828816	-0.137801
H120	H	0.357385	-0.662661	-0.222765
H121	H	0.272693	-0.679248	-0.137796
H122	H	0.357382	-0.662654	-0.052849
H123	H	0.304289	-0.863968	-0.222748
H124	H	0.388994	-0.847383	-0.137820
H125	H	0.226248	-1.328553	0.360817
H126	H	0.022134	-1.758420	0.375629
