data_functionalizedCrystal
_audit_creation_method	'MofGen! by Chris Wilmer'
_symmetry_space_group_name_H-M	'P1'
_symmetry_Int_Tables_number	1
_symmetry_cell_setting	triclinic
loop_
_symmetry_equiv_pos_as_xyz
  x,y,z
_cell_length_a	16.109301
_cell_length_b	16.109301
_cell_length_c	14.586319
_cell_angle_alpha	89.994467
_cell_angle_beta	90.013784
_cell_angle_gamma	96.538519
loop_
_atom_site_label
_atom_site_type_symbol
_atom_site_fract_x
_atom_site_fract_y
_atom_site_fract_z
O1	O	0.106876	-1.103135	0.076185
O2	O	0.606876	-0.603135	0.576185
O3	O	0.120175	-0.861073	0.076200
O4	O	0.620175	-0.361073	0.576200
O5	O	-0.007505	-0.988754	0.076183
O6	O	0.492495	-0.488754	0.576183
O7	O	0.234557	-0.975455	0.076203
O8	O	0.734557	-0.475455	0.576203
O9	O	-0.007527	-0.988736	-0.076298
O10	O	0.492473	-0.488736	0.423702
O11	O	0.120154	-0.861055	-0.076281
O12	O	0.620154	-0.361055	0.423719
O13	O	0.106854	-1.103117	-0.076296
O14	O	0.606854	-0.603117	0.423704
Cu15	Cu	0.113502	-0.982085	-0.090211
Cu16	Cu	0.613502	-0.482085	0.409789
Cu17	Cu	0.113528	-0.982106	0.090115
Cu18	Cu	0.613528	-0.482106	0.590115
O19	O	0.234535	-0.975437	-0.076278
O20	O	0.734535	-0.475437	0.423722
C21	C	-0.038491	-0.988206	-0.000058
C22	C	0.461509	-0.488206	0.499942
C23	C	-0.130786	-0.986591	-0.000059
C24	C	0.369214	-0.486591	0.499941
C25	C	0.119626	-0.830090	-0.000038
C26	C	0.619626	-0.330090	0.499962
C27	C	0.118011	-0.737794	-0.000033
C28	C	0.618011	-0.237794	0.499967
C29	C	0.107404	-1.134101	-0.000055
C30	C	0.607404	-0.634101	0.499945
C31	C	0.109019	-1.226397	-0.000054
C32	C	0.609019	-0.726397	0.499946
C33	C	-0.353059	-1.058599	-0.000049
C34	C	0.146941	-0.558599	0.499951
C35	C	-0.439779	-1.057075	-0.000041
C36	C	0.060221	-0.557075	0.499959
C37	C	-0.419905	-0.905586	-0.000036
C38	C	0.080095	-0.405586	0.499964
C39	C	-0.333186	-0.907111	-0.000037
C40	C	0.166814	-0.407111	0.499963
C41	C	-0.299766	-0.983620	-0.000048
C42	C	0.200234	-0.483620	0.499952
C43	C	-0.473205	-0.980571	-0.000039
C44	C	0.026795	-0.480571	0.499961
C45	C	-0.567231	-0.978918	-0.000031
C46	C	-0.067231	-0.478918	0.499969
C47	C	-0.205734	-0.985273	-0.000055
C48	C	0.294266	-0.485273	0.499945
C49	C	0.265521	-0.975984	-0.000035
C50	C	0.765521	-0.475984	0.499965
C51	C	0.357816	-0.977600	-0.000028
C52	C	0.857816	-0.477600	0.499972
C53	C	0.190018	-0.515522	-0.000038
C54	C	0.690018	-0.015522	0.499962
C55	C	0.188494	-0.428801	-0.000044
C56	C	0.688494	0.071199	0.499956
C57	C	0.037006	-0.448676	-0.000052
C58	C	0.537006	0.051324	0.499948
C59	C	0.038530	-0.535394	-0.000053
C60	C	0.538530	-0.035394	0.499947
C61	C	0.115039	-0.568815	-0.000041
C62	C	0.615039	-0.068815	0.499959
C63	C	0.111990	-0.395376	-0.000046
C64	C	0.611990	0.104624	0.499954
C65	C	0.110337	-0.301350	-0.000053
C66	C	0.610337	0.198650	0.499947
C67	C	0.116693	-0.662847	-0.000036
C68	C	0.616693	-0.162847	0.499964
N69	N	0.113484	-0.982076	-0.217042
N70	N	0.613484	-0.482076	0.282958
C71	C	0.063079	-0.931693	-0.548072
C72	C	0.563079	-0.431693	-0.048072
C73	C	0.063067	-0.931687	-0.452091
C74	C	0.563067	-0.431687	0.047909
C75	C	0.163946	-1.032510	-0.452030
C76	C	0.663946	-0.532510	0.047970
C77	C	0.163953	-1.032520	-0.548009
C78	C	0.663953	-0.532520	-0.048009
C79	C	0.113521	-0.982107	-0.596028
C80	C	0.613521	-0.482107	-0.096028
C81	C	0.113503	-0.982090	-0.404067
C82	C	0.613503	-0.482090	0.095933
C83	C	0.113490	-0.982083	-0.300000
C84	C	0.613490	-0.482083	0.200000
C85	C	0.113531	-0.982115	-0.700102
C86	C	0.613531	-0.482115	-0.200102
N87	N	0.113539	-0.982122	0.216947
N88	N	0.613539	-0.482122	0.716947
H89	H	-0.325851	-1.120897	-0.000056
H90	H	0.174149	-0.620897	0.499944
H91	H	0.022013	-0.890644	-0.587167
H92	H	0.522013	-0.390644	-0.087167
H93	H	0.021992	-0.890635	-0.413050
H94	H	0.521992	-0.390635	0.086950
H95	H	0.205007	-1.073553	-0.412921
H96	H	0.705007	-0.573553	0.087079
H97	H	0.249550	-0.385413	-0.000043
H98	H	0.749550	0.114587	0.499957
H99	H	0.205029	-1.073578	-0.587056
H100	H	0.705029	-0.573578	-0.087056
C101	C	-0.456676	-0.821431	-0.000041
C102	C	0.043324	-0.321431	0.499959
N103	N	-0.484371	-0.758043	-0.000052
N104	N	0.015629	-0.258043	0.499948
C105	C	-0.274560	-0.824624	-0.000031
C106	C	0.225440	-0.324624	0.499969
N107	N	-0.230402	-0.762497	-0.000024
N108	N	0.269598	-0.262497	0.499976
C109	C	0.274180	-0.552281	-0.000036
C110	C	0.774180	-0.052281	0.499964
N111	N	0.337573	-0.579965	-0.000040
N112	N	0.837573	-0.079965	0.499960
C113	C	-0.498398	-1.139558	-0.000050
C114	C	0.001602	-0.639558	0.499950
N115	N	-0.542550	-1.201688	-0.000059
N116	N	-0.042550	-0.701688	0.499941
H117	H	-0.025285	-0.421454	-0.000067
H118	H	0.474715	0.078546	0.499933
H119	H	-0.022530	-0.578788	-0.000058
H120	H	0.477470	-0.078788	0.499942
