data_functionalizedCrystal
_audit_creation_method	'MofGen! by Chris Wilmer'
_symmetry_space_group_name_H-M	'P1'
_symmetry_Int_Tables_number	1
_symmetry_cell_setting	triclinic
loop_
_symmetry_equiv_pos_as_xyz
  x,y,z
_cell_length_a	17.699083
_cell_length_b	22.010155
_cell_length_c	17.699083
_cell_angle_alpha	89.996646
_cell_angle_beta	83.283015
_cell_angle_gamma	90.002416
loop_
_atom_site_label
_atom_site_type_symbol
_atom_site_fract_x
_atom_site_fract_y
_atom_site_fract_z
O1	O	1.004081	0.050441	0.095701
O2	O	0.783703	0.050461	0.108153
O3	O	0.900118	0.050445	-0.008262
O4	O	0.887666	0.050457	0.212116
O5	O	0.900097	-0.050605	-0.008245
O6	O	0.783682	-0.050589	0.108171
O7	O	1.004060	-0.050609	0.095718
Cu8	Cu	0.893869	-0.059826	0.101946
Cu9	Cu	0.893894	0.059678	0.101925
O10	O	0.887645	-0.050593	0.212134
C11	C	0.755495	-0.000061	0.107716
C12	C	0.671477	-0.000054	0.106377
N13	N	0.893857	-0.143878	0.101960
C14	C	0.622856	-0.000050	0.174711
C15	C	0.543913	-0.000058	0.173448
C16	C	0.513592	-0.000065	0.103852
C17	C	0.562219	-0.000071	0.035513
C18	C	0.641161	-0.000067	0.036776
C19	C	0.243856	-0.000086	0.030418
C20	C	0.164908	-0.000088	0.029160
C21	C	0.146608	-0.000077	0.167090
C22	C	0.225550	-0.000074	0.168353
C23	C	0.274170	-0.000082	0.100015
C24	C	0.359769	-0.000075	0.101384
C25	C	0.427995	-0.000069	0.102481
C26	C	0.945446	-0.563665	0.050384
C27	C	0.945449	-0.627272	0.050379
O28	O	0.989282	-0.660170	0.006537
N29	N	0.893894	-0.659085	0.101910
C30	C	0.842326	-0.627288	0.153444
O31	O	0.798474	-0.660188	0.197274
C32	C	0.842319	-0.563681	0.153445
C33	C	0.893884	-0.531871	0.101916
C34	C	0.997005	-0.531855	-0.001142
C35	C	0.997002	-0.468252	-0.001135
C36	C	0.945440	-0.436458	0.050397
C37	C	0.893881	-0.468268	0.101922
C38	C	0.790749	-0.531884	0.204975
C39	C	0.790746	-0.468274	0.204971
C40	C	0.842310	-0.436464	0.153442
C41	C	0.842316	-0.372872	0.153460
N42	N	0.893872	-0.341059	0.101929
C43	C	0.945434	-0.372852	0.050398
C44	C	0.842343	-0.760865	0.153437
C45	C	0.842352	-0.824471	0.153440
C46	C	0.945475	-0.824451	0.050374
C47	C	0.945468	-0.760845	0.050375
C48	C	0.893898	-0.729052	0.101906
C49	C	0.945424	-0.239281	0.050415
C50	C	0.945419	-0.175672	0.050428
C51	C	0.842294	-0.175697	0.153491
C52	C	0.842302	-0.239300	0.153481
C53	C	0.893870	-0.271090	0.101937
O54	O	0.798504	-0.339934	0.197278
O55	O	0.989272	-0.339944	0.006568
C56	C	1.032268	-0.000085	0.096156
C57	C	1.116286	-0.000089	0.097494
C58	C	0.899662	-0.000080	-0.036451
C59	C	0.898323	-0.000080	-0.120469
N60	N	0.893912	0.143730	0.101905
C61	C	0.966656	-0.000087	-0.169090
C62	C	0.965394	-0.000082	-0.248033
C63	C	0.895798	-0.000073	-0.278354
C64	C	0.827459	-0.000065	-0.229727
C65	C	0.828722	-0.000066	-0.150785
C66	C	0.822364	-0.000059	-0.548090
C67	C	0.821106	-0.000060	-0.627038
C68	C	0.959036	-0.000075	-0.645338
C69	C	0.960299	-0.000076	-0.566396
C70	C	0.891961	-0.000064	-0.517776
C71	C	0.893330	-0.000069	-0.432177
C72	C	0.894427	-0.000073	-0.363951
C73	C	0.888102	-0.000067	0.240322
C74	C	0.889440	-0.000063	0.324340
H75	H	0.647537	-0.000044	0.231384
H76	H	0.764429	-0.000054	-0.651721
C77	C	0.490433	-0.000065	0.248621
N78	N	0.450152	-0.000075	0.305244
H79	H	0.748749	-0.442391	0.246933
H80	H	0.766718	-0.000049	-0.508512
H81	H	0.680748	-0.000070	-0.018868
H82	H	0.140225	-0.000094	-0.027517
C83	C	1.040567	-0.000099	-0.301513
N84	N	1.097190	-0.000116	-0.341794
H85	H	0.250232	-0.000065	0.225025
H86	H	0.800372	-0.850366	0.195408
C87	C	1.002187	-0.725860	-0.006315
N88	N	1.044909	-0.699512	-0.049019
C89	C	1.036860	-0.000085	-0.533048
N90	N	1.094528	-0.000089	-0.507932
C91	C	1.002144	-0.140685	-0.006263
N92	N	1.044865	-0.114335	-0.048963
H93	H	0.107012	-0.000074	0.222734
C94	C	1.002190	-0.859436	-0.006318
N95	N	1.044904	-0.885789	-0.049016
C96	C	0.297329	-0.000091	-0.044757
N97	N	0.337607	-0.000095	-0.101382
C98	C	0.785643	-0.725900	0.210164
N99	N	0.742946	-0.699566	0.252900
C100	C	0.528864	-0.000080	-0.041044
N101	N	0.503741	-0.000084	-0.098708
H102	H	1.014680	-0.000082	-0.684934
C103	C	1.002154	-0.274241	-0.006284
N104	N	1.044886	-0.300572	-0.048987
H105	H	1.038988	-0.442356	-0.043097
C106	C	0.750902	-0.000061	-0.263082
N107	N	0.693238	-0.000062	-0.288205
H108	H	0.800315	-0.149801	0.195450
C109	C	1.053727	-0.566818	-0.057841
N110	N	1.096455	-0.593147	-0.100550
H111	H	0.748760	-0.557775	0.246934
H112	H	0.800321	-0.265200	0.195448
C113	C	1.043219	-0.000096	-0.135745
N114	N	1.100889	-0.000100	-0.110632
H115	H	0.773078	-0.000060	-0.111198
