data_functionalizedCrystal
_audit_creation_method	'MofGen! by Chris Wilmer'
_symmetry_space_group_name_H-M	'P1'
_symmetry_Int_Tables_number	1
_symmetry_cell_setting	triclinic
loop_
_symmetry_equiv_pos_as_xyz
  x,y,z
_cell_length_a	18.101398
_cell_length_b	21.295417
_cell_length_c	21.295411
_cell_angle_alpha	89.979403
_cell_angle_beta	89.970135
_cell_angle_gamma	90.024968
loop_
_atom_site_label
_atom_site_type_symbol
_atom_site_fract_x
_atom_site_fract_y
_atom_site_fract_z
Zn1	Zn	1.132169	-0.250760	-0.356005
Zn2	Zn	1.465502	0.082573	-0.022672
Zn3	Zn	1.798835	0.415906	0.310662
Zn4	Zn	1.132056	-0.356012	-0.250732
Zn5	Zn	1.465389	-0.022679	0.082601
Zn6	Zn	1.798722	0.310654	0.415934
Zn7	Zn	1.008316	-0.250752	-0.250740
Zn8	Zn	1.341649	0.082581	0.082593
Zn9	Zn	1.674982	0.415914	0.415926
Zn10	Zn	1.008281	-0.355987	-0.355954
Zn11	Zn	1.341615	-0.022654	-0.022621
Zn12	Zn	1.674948	0.310680	0.310712
O13	O	1.070205	-0.303378	-0.303358
O14	O	1.403539	0.029955	0.029975
O15	O	1.736872	0.363289	0.363309
O16	O	1.235787	-0.264736	-0.342058
O17	O	1.569120	0.068597	-0.008725
O18	O	1.902453	0.401930	0.324608
O19	O	1.115608	-0.342056	-0.162644
O20	O	1.448942	-0.008723	0.170689
O21	O	1.782275	0.324610	0.504023
O22	O	1.024807	-0.162664	-0.264729
O23	O	1.358140	0.170669	0.068605
O24	O	1.691473	0.504003	0.401938
O25	O	1.235704	-0.342064	-0.264715
O26	O	1.569037	-0.008731	0.068618
O27	O	1.902370	0.324602	0.401952
O28	O	1.115801	-0.162670	-0.342066
O29	O	1.449134	0.170663	-0.008733
O30	O	1.782468	0.503997	0.324601
O31	O	1.024697	-0.264722	-0.162650
O32	O	1.358030	0.068611	0.170683
O33	O	1.691364	0.401944	0.504017
O34	O	0.904678	-0.264698	-0.264679
O35	O	1.238012	0.068636	0.068654
O36	O	1.571345	0.401969	0.401987
O37	O	1.024748	-0.342021	-0.444050
O38	O	1.358082	-0.008688	-0.110717
O39	O	1.691415	0.324645	0.222616
O40	O	0.904653	-0.342013	-0.341980
O41	O	1.237986	-0.008680	-0.008646
O42	O	1.571320	0.324653	0.324687
O43	O	1.115768	-0.264712	-0.444088
O44	O	1.449101	0.068622	-0.110754
O45	O	1.782434	0.401955	0.222579
O46	O	1.115575	-0.444098	-0.264666
O47	O	1.448908	-0.110765	0.068668
O48	O	1.782242	0.222568	0.402001
O49	O	1.024639	-0.444080	-0.341972
O50	O	1.357972	-0.110746	-0.008639
O51	O	1.691305	0.222587	0.324695
C52	C	0.877795	-0.303352	-0.303325
C53	C	1.211128	0.029981	0.030008
C54	C	1.544461	0.363314	0.363341
C55	C	0.795481	-0.303357	-0.303326
C56	C	1.128814	0.029977	0.030007
C57	C	1.462147	0.363310	0.363341
C58	C	0.496390	-0.303396	-0.303379
C59	C	0.829723	0.029937	0.029954
C60	C	1.163056	0.363271	0.363288
C61	C	0.527706	-0.254508	-0.254981
C62	C	0.861039	0.078825	0.078352
C63	C	1.194373	0.412159	0.411686
C64	C	0.613324	-0.254639	-0.254774
C65	C	0.946658	0.078694	0.078559
C66	C	1.279991	0.412028	0.411892
C67	C	0.644772	-0.303376	-0.303353
C68	C	0.978106	0.029957	0.029981
C69	C	1.311439	0.363291	0.363314
C70	C	0.613654	-0.369683	-0.285223
C71	C	0.946987	-0.036350	0.048110
C72	C	1.280321	0.296983	0.381444
C73	C	0.528009	-0.369412	-0.284886
C74	C	0.861342	-0.036078	0.048447
C75	C	1.194675	0.297255	0.381780
C76	C	0.528011	-0.286553	-0.370020
C77	C	0.861345	0.046781	-0.036687
C78	C	1.194678	0.380114	0.296646
C79	C	0.613662	-0.285076	-0.369657
C80	C	0.946995	0.048257	-0.036324
C81	C	1.280329	0.381591	0.297010
C82	C	0.728632	-0.303369	-0.303339
C83	C	1.061965	0.029965	0.029994
C84	C	1.395298	0.363298	0.363328
C85	C	0.412530	-0.303408	-0.303391
C86	C	0.745864	0.029926	0.029942
C87	C	1.079197	0.363259	0.363276
C88	C	1.070111	-0.466930	-0.303326
C89	C	1.403444	-0.133596	0.030007
C90	C	1.736778	0.199737	0.363341
C91	C	1.070138	-0.536898	-0.303334
C92	C	1.403472	-0.203564	0.030000
C93	C	1.736805	0.129769	0.363333
C94	C	1.117492	-0.569710	-0.343632
C95	C	1.450825	-0.236377	-0.010299
C96	C	1.784159	0.096956	0.323035
C97	C	1.117518	-0.635453	-0.343648
C98	C	1.450851	-0.302119	-0.010314
C99	C	1.784185	0.031214	0.323019
C100	C	1.070198	-0.668380	-0.303353
C101	C	1.403532	-0.335047	0.029980
C102	C	1.736865	-0.001713	0.363313
C103	C	1.022836	-0.635560	-0.263052
C104	C	1.356169	-0.302226	0.070281
C105	C	1.689502	0.031107	0.403615
C106	C	1.022806	-0.569818	-0.263042
C107	C	1.356139	-0.236485	0.070291
C108	C	1.689472	0.096848	0.403624
N109	N	1.064599	-0.771632	-0.248262
N110	N	1.397932	-0.438299	0.085071
N111	N	1.731266	-0.104965	0.418405
N112	N	1.064632	-0.834084	-0.248273
N113	N	1.397965	-0.500750	0.085060
N114	N	1.731299	-0.167417	0.418394
C115	C	1.070285	-0.866455	-0.303382
C116	C	1.403618	-0.533122	0.029951
C117	C	1.736952	-0.199788	0.363285
N118	N	1.075918	-0.834015	-0.358480
N119	N	1.409252	-0.500682	-0.025147
N120	N	1.742585	-0.167349	0.308187
N121	N	1.075889	-0.771558	-0.358468
N122	N	1.409222	-0.438225	-0.025135
N123	N	1.742556	-0.104892	0.308198
C124	C	1.070225	-0.739666	-0.303360
C125	C	1.403559	-0.406332	0.029973
C126	C	1.736892	-0.072999	0.363307
C127	C	1.117669	-0.970553	-0.343701
C128	C	1.451003	-0.637220	-0.010367
C129	C	1.784336	-0.303886	0.322966
C130	C	1.117690	-1.036297	-0.343717
C131	C	1.451024	-0.702963	-0.010384
C132	C	1.784357	-0.369630	0.322950
C133	C	1.023012	-1.036402	-0.263116
C134	C	1.356345	-0.703069	0.070217
C135	C	1.689678	-0.369736	0.403551
C136	C	1.022987	-0.970660	-0.263105
C137	C	1.356320	-0.637326	0.070228
C138	C	1.689653	-0.303993	0.403562
C139	C	1.070320	-0.937739	-0.303396
C140	C	1.403653	-0.604406	0.029937
C141	C	1.736986	-0.271072	0.363270
C142	C	1.263367	-0.303404	-0.303391
C143	C	1.596701	0.029929	0.029942
C144	C	1.930034	0.363263	0.363275
C145	C	1.345681	-0.303415	-0.303406
C146	C	1.679015	0.029918	0.029928
C147	C	2.012348	0.363251	0.363261
C148	C	1.070267	-0.303365	-0.467548
C149	C	1.403600	0.029969	-0.134215
C150	C	1.736933	0.363302	0.199118
C151	C	1.070293	-0.303359	-0.537516
C152	C	1.403626	0.029974	-0.204183
C153	C	1.736960	0.363308	0.129150
C154	C	1.070320	-0.139188	-0.303404
C155	C	1.403654	0.194146	0.029930
C156	C	1.736987	0.527479	0.363263
C157	C	1.070369	-0.069220	-0.303423
C158	C	1.403703	0.264114	0.029910
C159	C	1.737036	0.597447	0.363243
C160	C	1.117685	-0.263102	-0.570404
C161	C	1.451018	0.070231	-0.237070
C162	C	1.784351	0.403565	0.096263
C163	C	1.117684	-0.263075	-0.636146
C164	C	1.451017	0.070258	-0.302813
C165	C	1.784350	0.403592	0.030521
C166	C	1.070299	-0.303316	-0.668999
C167	C	1.403632	0.030018	-0.335666
C168	C	1.736965	0.363351	-0.002332
C169	C	1.022898	-0.343575	-0.636104
C170	C	1.356231	-0.010242	-0.302771
C171	C	1.689564	0.323091	0.030563
C172	C	1.022895	-0.343597	-0.570363
C173	C	1.356228	-0.010264	-0.237029
C174	C	1.689562	0.323070	0.096304
N175	N	1.064586	-0.358383	-0.772215
N176	N	1.397919	-0.025050	-0.438882
N177	N	1.731253	0.308284	-0.105548
N178	N	1.064593	-0.358361	-0.834666
N179	N	1.397926	-0.025027	-0.501333
N180	N	1.731260	0.308306	-0.168000
C181	C	1.070303	-0.303252	-0.867074
C182	C	1.403637	0.030082	-0.533741
C183	C	1.736970	0.363415	-0.200407
N184	N	1.076021	-0.248165	-0.834671
N185	N	1.409354	0.085168	-0.501337
N186	N	1.742688	0.418502	-0.168004
N187	N	1.076018	-0.248188	-0.772213
N188	N	1.409351	0.085145	-0.438880
N189	N	1.742684	0.418479	-0.105547
C190	C	1.070296	-0.303296	-0.740284
C191	C	1.403630	0.030037	-0.406951
C192	C	1.736963	0.363370	-0.073618
C193	C	1.117697	-0.262962	-0.971247
C194	C	1.451030	0.070371	-0.637913
C195	C	1.784363	0.403705	-0.304580
C196	C	1.117690	-0.262934	-1.036990
C197	C	1.451024	0.070400	-0.703657
C198	C	1.784357	0.403733	-0.370324
C199	C	1.022908	-0.343440	-1.036947
C200	C	1.356242	-0.010106	-0.703614
C201	C	1.689575	0.323227	-0.370280
C202	C	1.022911	-0.343462	-0.971205
C203	C	1.356244	-0.010129	-0.637871
C204	C	1.689577	0.323204	-0.304538
C205	C	1.070309	-0.303224	-0.938358
C206	C	1.403642	0.030109	-0.605025
C207	C	1.736975	0.363442	-0.271692
C208	C	1.070187	-0.303346	-0.139806
C209	C	1.403520	0.029988	0.193527
C210	C	1.736853	0.363321	0.526860
C211	C	1.070304	-0.303174	-0.069839
C212	C	1.403637	0.030159	0.263495
C213	C	1.736971	0.363493	0.596828
H214	H	0.634006	-0.236281	-0.383327
H215	H	0.967340	0.097052	-0.049994
H216	H	1.300673	0.430385	0.283339
Cl217	Cl	1.177252	-0.212450	-0.677499
Cl218	Cl	1.510585	0.120884	-0.344165
Cl219	Cl	1.843918	0.454217	-0.010832
Cl220	Cl	0.496744	-0.341527	-0.425696
Cl221	Cl	0.830078	-0.008194	-0.092363
Cl222	Cl	1.163411	0.325139	0.240970
H223	H	1.156287	-0.230194	-0.944502
H224	H	1.489620	0.103139	-0.611168
H225	H	1.822954	0.436472	-0.277835
Cl226	Cl	1.177217	-1.077548	-0.394391
Cl227	Cl	1.510551	-0.744214	-0.061057
Cl228	Cl	1.843884	-0.410881	0.272276
H229	H	0.635073	-0.318090	-0.407650
H230	H	0.968406	0.015244	-0.074316
H231	H	1.301739	0.348577	0.259017
H232	H	0.984244	-0.543102	-0.230226
H233	H	1.317577	-0.209768	0.103107
H234	H	1.650910	0.123565	0.436441
Cl235	Cl	0.496020	-0.427555	-0.336931
Cl236	Cl	0.829353	-0.094222	-0.003598
Cl237	Cl	1.162686	0.239112	0.329735
H238	H	1.156031	-0.542908	-0.376441
H239	H	1.489365	-0.209575	-0.043108
H240	H	1.822698	0.123759	0.290226
Cl241	Cl	1.177267	-0.212514	-0.529114
Cl242	Cl	1.510600	0.120820	-0.195781
Cl243	Cl	1.843933	0.454153	0.137552
H244	H	0.984306	-0.662373	-0.230246
H245	H	1.317639	-0.329040	0.103088
H246	H	1.650973	0.004293	0.436421
H247	H	0.634023	-0.407084	-0.319370
H248	H	0.967357	-0.073751	0.013963
H249	H	1.300690	0.259583	0.347296
H250	H	1.156073	-0.662174	-0.376471
H251	H	1.489406	-0.328841	-0.043137
H252	H	1.822740	0.004493	0.290196
H253	H	0.984319	-0.376198	-1.063695
H254	H	1.317652	-0.042865	-0.730362
H255	H	1.650986	0.290468	-0.397029
Cl256	Cl	0.963325	-0.394161	-0.677404
Cl257	Cl	1.296658	-0.060828	-0.344071
Cl258	Cl	1.629992	0.272505	-0.010737
H259	H	1.156208	-0.943748	-0.376510
H260	H	1.489542	-0.610415	-0.043177
H261	H	1.822875	-0.277081	0.290156
H262	H	0.984478	-1.063211	-0.230312
H263	H	1.317812	-0.729878	0.103022
H264	H	1.651145	-0.396544	0.436355
Cl265	Cl	1.177286	-0.212330	-1.078335
Cl266	Cl	1.510619	0.121003	-0.745001
Cl267	Cl	1.843953	0.454337	-0.411668
Cl268	Cl	0.963453	-0.929407	-0.212441
Cl269	Cl	1.296787	-0.596074	0.120892
Cl270	Cl	1.630120	-0.262741	0.454226
Cl271	Cl	0.644900	-0.271826	-0.178534
Cl272	Cl	0.978234	0.061508	0.154800
Cl273	Cl	1.311567	0.394841	0.488133
Cl274	Cl	0.963332	-0.394077	-0.929858
Cl275	Cl	1.296665	-0.060744	-0.596525
Cl276	Cl	1.629998	0.272590	-0.263192
H277	H	0.507992	-0.383697	-0.236168
H278	H	0.841325	-0.050364	0.097165
H279	H	1.174659	0.282970	0.430498
Cl280	Cl	0.645812	-0.178723	-0.272318
Cl281	Cl	0.979146	0.154610	0.061015
Cl282	Cl	1.312479	0.487943	0.394349
H283	H	0.984299	-0.376378	-0.543586
H284	H	1.317633	-0.043045	-0.210253
H285	H	1.650966	0.290288	0.123080
H286	H	0.507136	-0.205188	-0.266220
H287	H	0.840469	0.128146	0.067113
H288	H	1.173802	0.461479	0.400446
H289	H	0.506151	-0.265516	-0.205888
H290	H	0.839485	0.067818	0.127446
H291	H	1.172818	0.401151	0.460779
H292	H	0.506440	-0.239044	-0.386503
H293	H	0.839773	0.094290	-0.053170
H294	H	1.173107	0.427623	0.280163
Cl295	Cl	0.646704	-0.392124	-0.210817
Cl296	Cl	0.980037	-0.058790	0.122516
Cl297	Cl	1.313370	0.274543	0.455850
