data_functionalizedCrystal
_audit_creation_method	'MofGen! by Chris Wilmer'
_symmetry_space_group_name_H-M	'P1'
_symmetry_Int_Tables_number	1
_symmetry_cell_setting	triclinic
loop_
_symmetry_equiv_pos_as_xyz
  x,y,z
_cell_length_a	18.426585
_cell_length_b	23.196402
_cell_length_c	23.196401
_cell_angle_alpha	59.999265
_cell_angle_beta	90.005428
_cell_angle_gamma	60.001912
loop_
_atom_site_label
_atom_site_type_symbol
_atom_site_fract_x
_atom_site_fract_y
_atom_site_fract_z
Zr1	Zr	0.699115	0.631034	-0.075647
O2	O	0.583221	0.751311	-0.167699
O3	O	0.734640	0.510765	-0.047432
O4	O	0.734616	0.631051	-0.167707
O5	O	0.583267	0.631009	0.047455
O6	O	0.854042	0.631055	-0.167709
O7	O	0.583245	0.631026	-0.047424
O8	O	0.854084	0.415886	0.047440
O9	O	0.583225	0.846179	-0.167695
O10	O	0.838920	0.560234	-0.035396
O11	O	0.749810	0.560219	0.035412
O12	O	0.749782	0.701840	-0.106196
O13	O	0.660673	0.701825	-0.035387
Zr14	Zr	0.889621	0.631015	0.075669
Zr15	Zr	0.889585	0.631041	-0.075651
Zr16	Zr	0.699150	0.631008	0.075673
Zr17	Zr	0.699120	0.782337	-0.075641
Zr18	Zr	0.889615	0.479712	0.075663
O19	O	0.854096	0.751284	0.047454
O20	O	0.854046	0.751321	-0.167704
O21	O	0.583271	0.751274	0.047460
O22	O	1.005514	0.510738	0.167721
O23	O	1.005464	0.510775	-0.047438
O24	O	0.734690	0.510728	0.167726
O25	O	1.005468	0.631040	-0.047433
O26	O	0.854120	0.630998	0.167729
O27	O	0.734694	0.630994	0.167731
O28	O	1.005490	0.631023	0.047446
O29	O	0.734623	0.846184	-0.167698
O30	O	0.854112	0.415865	0.167720
O31	O	1.005511	0.415870	0.167717
O32	O	1.005483	0.415891	0.047437
O33	O	0.583253	0.846158	-0.047415
O34	O	0.734651	0.846163	-0.047418
O35	O	0.838953	0.560209	0.106218
O36	O	0.928063	0.560225	0.035409
O37	O	0.838925	0.701831	-0.035390
O38	O	0.749815	0.701815	0.035418
C39	C	0.794361	0.441768	0.000003
C40	C	0.794359	0.377536	0.000000
C41	C	0.840867	0.347374	-0.036964
C42	C	0.840876	0.287013	-0.036958
C43	C	0.794359	0.256828	0.000002
C44	C	0.747849	0.286995	0.036974
C45	C	0.747849	0.347349	0.036973
C46	C	0.716430	0.194797	-0.005271
C47	C	0.716428	0.134448	-0.005275
C48	C	0.794360	0.070673	0.000009
C49	C	0.872294	0.067263	0.005284
C50	C	0.872294	0.127618	0.005283
C51	C	0.794354	0.191384	0.000008
C52	C	0.840882	-0.024940	-0.036950
C53	C	0.840893	-0.085306	-0.036940
C54	C	0.747857	-0.085317	0.036988
C55	C	0.747854	-0.024958	0.036982
C56	C	0.794365	0.005229	0.000009
C57	C	0.556118	0.631016	0.000016
C58	C	0.475258	0.631014	0.000017
C59	C	0.179144	0.631038	0.000005
C60	C	0.261530	0.631035	0.000007
C61	C	0.327198	0.631026	0.000011
C62	C	0.409590	0.631022	0.000013
C63	C	1.032617	0.631033	0.000006
C64	C	1.113477	0.631035	0.000005
C65	C	0.794324	0.631057	-0.189268
C66	C	0.794309	0.631068	-0.253508
C67	C	0.794374	0.820281	0.000019
C68	C	0.794377	0.884513	0.000022
C69	C	0.860103	0.631072	-0.283672
C70	C	0.860123	0.631055	-0.344019
C71	C	0.794334	0.631052	-0.374207
C72	C	0.728534	0.631043	-0.344033
C73	C	0.728521	0.631052	-0.283683
C74	C	0.714044	0.678544	-0.493585
C75	C	0.714057	0.678541	-0.553936
C76	C	0.794374	0.631023	-0.560343
C77	C	0.874684	0.583519	-0.506397
C78	C	0.874671	0.583527	-0.446048
C79	C	0.794341	0.631042	-0.439646
C80	C	0.860195	0.631007	-0.655942
C81	C	0.860216	0.630986	-0.716287
C82	C	0.728619	0.630982	-0.716304
C83	C	0.728606	0.630995	-0.655956
C84	C	0.794393	0.631012	-0.625780
C85	C	0.794412	0.630992	0.189290
C86	C	0.794427	0.630981	0.253530
C87	C	1.032611	0.441776	-0.000002
C88	C	1.113468	0.377547	-0.000006
C89	C	0.794405	0.441736	0.189282
C90	C	0.794418	0.377493	0.253519
C91	C	1.032655	0.441744	0.189277
C92	C	1.113527	0.377504	0.253513
C93	C	0.556081	0.820305	-0.189255
C94	C	0.475208	0.884545	-0.253490
C95	C	0.556125	0.820273	0.000024
C96	C	0.475267	0.884502	0.000028
C97	C	0.794330	0.820313	-0.189260
C98	C	0.794318	0.884556	-0.253497
C99	C	1.104908	0.347389	-0.036974
C100	C	1.180875	0.287048	-0.036993
C101	C	1.265401	0.256861	-0.000038
C102	C	1.273960	0.287025	0.036931
C103	C	1.197993	0.347369	0.036945
C104	C	0.840956	0.347319	0.320651
C105	C	0.840964	0.286964	0.381014
C106	C	0.794440	0.256781	0.374244
C107	C	0.747897	0.286961	0.307104
C108	C	0.747883	0.347318	0.246743
C109	C	1.198028	0.347344	0.246717
C110	C	1.274024	0.286992	0.307067
C111	C	1.265516	0.256796	0.374212
C112	C	1.181007	0.286962	0.381006
C113	C	1.105013	0.347317	0.320657
C114	C	0.390707	0.914713	-0.246695
C115	C	0.314712	0.975084	-0.307045
C116	C	0.323219	1.005282	-0.374190
C117	C	0.407729	0.975112	-0.380984
C118	C	0.483723	0.914746	-0.320635
C119	C	0.483827	0.914666	0.036990
C120	C	0.407860	0.975024	0.036992
C121	C	0.323334	1.005213	0.000035
C122	C	0.314776	0.975047	-0.036931
C123	C	0.390742	0.914694	-0.036936
C124	C	0.840851	0.914721	-0.246704
C125	C	0.840856	0.975076	-0.307055
C126	C	0.794323	1.005269	-0.374199
C127	C	0.747788	0.975099	-0.380991
C128	C	0.747788	0.914741	-0.320640
H129	H	0.878750	0.262450	-0.067060
Cl130	Cl	1.208747	0.385296	0.162313
H131	H	0.794329	1.054417	-0.423335
Cl132	Cl	0.418409	1.013081	-0.465401
H133	H	0.940062	0.544846	-0.402126
H134	H	0.709901	0.999692	-0.435668
H135	H	1.036090	0.371967	-0.067076
Cl136	Cl	0.998786	0.385220	0.329213
Cl137	Cl	1.361061	0.180919	0.450074
H138	H	0.552525	0.890185	-0.326177
Cl139	Cl	0.689273	0.876835	-0.329193
H140	H	0.709982	-0.109893	0.067082
H141	H	0.652969	0.137233	-0.009574
Cl142	Cl	0.208482	1.012996	-0.298487
Cl143	Cl	0.379989	0.876761	-0.162291
H144	H	0.878868	0.262399	0.435676
H145	H	0.245945	0.999636	-0.067020
H146	H	1.327251	0.207723	-0.000055
H147	H	1.174093	0.262369	0.435684
Cl148	Cl	1.170096	0.249136	-0.083468
H149	H	1.342791	0.262438	0.067017
H150	H	0.261333	1.054435	-0.423324
H151	H	0.878741	0.371949	-0.067068
Cl152	Cl	0.590080	0.876731	0.083452
H153	H	0.414846	0.999576	0.067097
H154	H	0.261485	1.054357	0.000045
Cl155	Cl	0.899356	1.012997	-0.298501
Cl156	Cl	0.379965	0.876775	-0.083402
Cl157	Cl	0.899359	0.876775	-0.162301
Cl158	Cl	0.970264	0.123328	0.011918
Cl159	Cl	0.613071	0.738345	-0.485569
H160	H	1.204976	0.371916	0.067052
Cl161	Cl	0.794467	0.180900	0.450135
Cl162	Cl	0.970272	-0.012904	0.011924
H163	H	0.878757	-0.000363	-0.067054
Cl164	Cl	0.899453	0.385249	0.329182
Cl165	Cl	0.613098	0.738264	-0.621749
Cl166	Cl	0.689379	0.385239	0.162350
Cl167	Cl	0.899362	-0.123222	-0.083417
H168	H	0.674969	0.631038	-0.368614
Cl169	Cl	0.645800	0.631048	-0.245760
H170	H	0.652960	0.246732	-0.009589
H171	H	0.710018	0.262376	0.301602
H172	H	0.709975	0.262414	0.067068
Cl173	Cl	0.689381	0.012964	0.083452
H174	H	0.709974	0.371908	0.067074
Cl175	Cl	0.942844	0.631061	-0.381947
Cl176	Cl	0.942810	0.631086	-0.245735
H177	H	0.913766	0.631017	-0.631370
Cl178	Cl	0.975661	0.523782	-0.514445
Cl179	Cl	1.380253	0.249078	0.298509
Cl180	Cl	0.942940	0.630983	-0.754207
Cl181	Cl	0.645918	0.630969	-0.754246
H182	H	0.675026	0.630997	-0.631397
