data_functionalizedCrystal
_audit_creation_method	'MofGen! by Chris Wilmer'
_symmetry_space_group_name_H-M	'P1'
_symmetry_Int_Tables_number	1
_symmetry_cell_setting	triclinic
loop_
_symmetry_equiv_pos_as_xyz
  x,y,z
_cell_length_a	11.026607
_cell_length_b	8.559649
_cell_length_c	7.681481
_cell_angle_alpha	94.930900
_cell_angle_beta	83.010356
_cell_angle_gamma	89.182341
loop_
_atom_site_label
_atom_site_type_symbol
_atom_site_fract_x
_atom_site_fract_y
_atom_site_fract_z
O1	O	-1.536888	-0.663150	-0.146413
O2	O	-1.190497	-0.588949	-0.146417
O3	O	-1.394210	-0.402226	-0.146413
O4	O	-1.333175	-0.849874	-0.146417
O5	O	-1.419290	-0.379177	0.146445
O6	O	-1.215577	-0.565900	0.146441
O7	O	-1.561968	-0.640101	0.146445
Zn8	Zn	-1.392754	-0.599341	0.192941
Zn9	Zn	-1.359710	-0.629709	-0.192913
O10	O	-1.358255	-0.826825	0.146441
C11	C	-1.159101	-0.563736	0.000011
C12	C	-1.028190	-0.522929	0.000009
C13	C	-1.411375	-0.332502	0.000013
C14	C	-1.425142	-0.159083	0.000003
C15	C	-1.593363	-0.665315	0.000013
C16	C	-1.724273	-0.706123	0.000003
C17	C	-0.943884	-0.635604	0.000007
C18	C	-0.808580	-0.593431	0.000005
C19	C	-1.341089	-0.896549	0.000011
C20	C	-1.327321	-1.069969	0.000009
N21	N	-1.415314	-0.578617	0.456275
N22	N	-1.337161	-0.650424	-0.456247
H23	H	-0.971876	-0.763290	0.000016
H24	H	-1.519432	-0.102696	0.000019
H25	H	-0.752257	-0.833818	0.000014
Cl26	Cl	-1.213985	-0.763582	0.427654
Cl27	Cl	-0.765382	-0.396277	0.000020
H28	H	-1.000195	-0.395246	-0.000034
H29	H	-1.495106	-0.505335	0.531483
H30	H	-1.233039	-0.126347	0.000014
