data_functionalizedCrystal
_audit_creation_method	'MofGen! by Chris Wilmer'
_symmetry_space_group_name_H-M	'P1'
_symmetry_Int_Tables_number	1
_symmetry_cell_setting	triclinic
loop_
_symmetry_equiv_pos_as_xyz
  x,y,z
_cell_length_a	8.559649
_cell_length_b	14.044220
_cell_length_c	7.088929
_cell_angle_alpha	83.206932
_cell_angle_beta	95.325015
_cell_angle_gamma	81.483771
loop_
_atom_site_label
_atom_site_type_symbol
_atom_site_fract_x
_atom_site_fract_y
_atom_site_fract_z
O1	O	2.100735	-0.021003	-0.158955
O2	O	1.642435	0.027448	-0.158968
O3	O	1.864708	-0.134262	-0.158943
O4	O	1.878463	0.140708	-0.158981
O5	O	1.894406	-0.155917	0.159035
O6	O	1.672134	0.005793	0.159010
O7	O	2.130433	-0.042657	0.159023
Cu8	Cu	1.903995	-0.020409	0.188051
Cu9	Cu	1.868874	0.005200	-0.187996
O10	O	1.908161	0.119053	0.158998
C11	C	1.598278	0.020292	0.000019
C12	C	1.422455	0.031222	0.000015
C13	C	1.873535	-0.179966	0.000047
C14	C	1.855571	-0.283884	0.000048
C15	C	1.822727	-0.474153	0.000020
C16	C	1.950133	-0.541060	0.000018
C17	C	1.931858	-0.646933	0.000002
C18	C	1.841000	-0.368270	0.000036
C19	C	2.174590	-0.035501	0.000031
C20	C	2.350412	-0.046430	0.000023
C21	C	1.899334	0.164757	0.000004
C22	C	1.917296	0.268676	-0.000011
N23	N	1.928709	-0.038422	0.452541
N24	N	1.844171	0.023205	-0.452487
H25	H	1.349615	0.106070	-0.000005
C26	C	2.116034	-0.511035	0.000045
C27	C	2.215902	-0.530974	-0.165060
C28	C	2.381796	-0.500943	-0.165026
C29	C	2.447820	-0.450972	0.000113
C30	C	2.347951	-0.431030	0.165231
C31	C	2.182057	-0.461062	0.165197
H32	H	2.167028	-0.567968	-0.287317
H33	H	2.455725	-0.515705	-0.287258
H34	H	2.570624	-0.428741	0.000138
H35	H	2.396825	-0.394036	0.287488
H36	H	2.108128	-0.446299	0.287428
C37	C	1.656841	-0.504183	0.000023
C38	C	1.556997	-0.484247	0.165151
C39	C	1.391116	-0.514293	0.165163
C40	C	1.325079	-0.564274	0.000047
C41	C	1.424924	-0.584212	-0.165094
C42	C	1.590805	-0.554166	-0.165105
H43	H	1.605881	-0.447246	0.287392
H44	H	1.317204	-0.499533	0.287412
H45	H	1.202283	-0.586515	0.000055
H46	H	1.376041	-0.621213	-0.287334
H47	H	1.664717	-0.568926	-0.287354
C48	C	1.448790	-0.147543	0.000040
C49	C	1.416311	-0.206554	-0.165069
C50	C	1.514701	-0.307668	-0.165051
C51	C	1.645569	-0.349772	0.000074
C52	C	1.678055	-0.290760	0.165195
C53	C	1.579665	-0.189646	0.165178
H54	H	1.319429	-0.175387	-0.287316
H55	H	1.490652	-0.351352	-0.287286
H56	H	1.718403	-0.424623	0.000087
H57	H	1.774937	-0.321927	0.287443
H58	H	1.603713	-0.145962	0.287413
H59	H	2.016343	-0.102285	0.534207
H60	H	1.756556	0.087069	0.465857
