data_functionalizedCrystal
_audit_creation_method	'MofGen! by Chris Wilmer'
_symmetry_space_group_name_H-M	'P1'
_symmetry_Int_Tables_number	1
_symmetry_cell_setting	triclinic
loop_
_symmetry_equiv_pos_as_xyz
  x,y,z
_cell_length_a	18.215407
_cell_length_b	18.215405
_cell_length_c	18.215399
_cell_angle_alpha	90.032960
_cell_angle_beta	90.017587
_cell_angle_gamma	90.024806
loop_
_atom_site_label
_atom_site_type_symbol
_atom_site_fract_x
_atom_site_fract_y
_atom_site_fract_z
Zn1	Zn	-1.125050	0.292976	-0.416118
Zn2	Zn	-0.625050	0.792976	0.083882
Zn3	Zn	-1.124965	0.416052	-0.293046
Zn4	Zn	-0.624965	0.916052	0.206954
Zn5	Zn	-1.001989	0.293004	-0.293063
Zn6	Zn	-0.501989	0.793004	0.206937
Zn7	Zn	-1.001949	0.416005	-0.416069
Zn8	Zn	-0.501949	0.916005	0.083931
O9	O	-1.063488	0.354509	-0.354574
O10	O	-0.563488	0.854509	0.145426
O11	O	-1.228023	0.309310	-0.399805
O12	O	-0.728023	0.809310	0.100195
O13	O	-1.108633	0.399761	-0.190064
O14	O	-0.608633	0.899761	0.309936
O15	O	-1.018366	0.190016	-0.309414
O16	O	-0.518366	0.690016	0.190586
O17	O	-1.227961	0.399734	-0.309384
O18	O	-0.727961	0.899734	0.190616
O19	O	-1.108778	0.189995	-0.399822
O20	O	-0.608778	0.689995	0.100178
O21	O	-1.018283	0.309358	-0.190077
O22	O	-0.518283	0.809358	0.309923
O23	O	-0.898999	0.309312	-0.309367
O24	O	-0.398999	0.809312	0.190633
O25	O	-1.018297	0.399653	-0.519060
O26	O	-0.518297	0.899653	-0.019060
O27	O	-0.898970	0.399681	-0.399739
O28	O	-0.398970	0.899681	0.100261
O29	O	-1.108739	0.309264	-0.519095
O30	O	-0.608739	0.809264	-0.019095
O31	O	-1.108594	0.519030	-0.309337
O32	O	-0.608594	1.019030	0.190663
O33	O	-1.018214	0.518996	-0.399722
O34	O	-0.518214	1.018996	0.100278
C35	C	-0.872282	0.354495	-0.354550
C36	C	-0.372282	0.854495	0.145450
C37	C	-0.790483	0.354507	-0.354558
C38	C	-0.290483	0.854507	0.145442
C39	C	-1.063410	0.545716	-0.354538
C40	C	-0.563410	1.045716	0.145462
C41	C	-1.063445	0.627515	-0.354548
C42	C	-0.563445	1.127515	0.145452
C43	C	-0.602293	0.401634	-0.401553
C44	C	-0.102293	0.901634	0.098447
C45	C	-0.525434	0.401635	-0.401561
C46	C	-0.025434	0.901635	0.098439
C47	C	-0.525436	0.307389	-0.307598
C48	C	-0.025436	0.807389	0.192402
C49	C	-0.602293	0.307384	-0.307594
C50	C	-0.102293	0.807384	0.192406
C51	C	-0.640720	0.354511	-0.354570
C52	C	-0.140720	0.854511	0.145430
C53	C	-0.487003	0.354517	-0.354582
C54	C	0.012997	0.854517	0.145418
C55	C	-0.403670	0.354519	-0.354591
C56	C	0.096330	0.854519	0.145409
C57	C	-0.724059	0.354509	-0.354563
C58	C	-0.224059	0.854509	0.145437
C59	C	-1.063523	0.354451	-0.546527
C60	C	-0.563523	0.854451	-0.046527
C61	C	-1.063538	0.354425	-0.628326
C62	C	-0.563538	0.854425	-0.128326
C63	C	-0.255441	0.354522	-0.354595
C64	C	0.244559	0.854522	0.145405
C65	C	-0.337240	0.354521	-0.354595
C66	C	0.162760	0.854521	0.145405
C67	C	-1.063586	0.162556	-0.354625
C68	C	-0.563586	0.662556	0.145375
C69	C	-1.063628	0.080757	-0.354648
C70	C	-0.563628	0.580757	0.145352
C71	C	-1.110616	0.815702	-0.307571
C72	C	-0.610616	1.315702	0.192429
C73	C	-1.110649	0.892561	-0.307589
C74	C	-0.610649	1.392561	0.192411
C75	C	-1.016455	0.892565	-0.401629
C76	C	-0.516455	1.392565	0.098371
C77	C	-1.016426	0.815707	-0.401615
C78	C	-0.516426	1.315707	0.098385
C79	C	-1.063506	0.777278	-0.354581
C80	C	-0.563506	1.277278	0.145419
C81	C	-1.063567	0.930994	-0.354614
C82	C	-0.563567	1.430994	0.145386
C83	C	-1.063602	1.014328	-0.354634
C84	C	-0.563602	1.514328	0.145366
C85	C	-1.063471	0.693939	-0.354563
C86	C	-0.563471	1.193939	0.145437
C87	C	-1.016532	0.307321	-0.816527
C88	C	-0.516532	0.807321	-0.316527
C89	C	-1.016545	0.307306	-0.893386
C90	C	-0.516545	0.807306	-0.393386
C91	C	-1.110631	0.401442	-0.893362
C92	C	-0.610631	0.901442	-0.393362
C93	C	-1.110614	0.401460	-0.816505
C94	C	-0.610614	0.901460	-0.316505
C95	C	-1.063566	0.354395	-0.778089
C96	C	-0.563566	0.854395	-0.278089
C97	C	-1.063596	0.354363	-0.931806
C98	C	-0.563596	0.854363	-0.431806
C99	C	-1.063610	0.354347	-1.015139
C100	C	-0.563610	0.854347	-0.515139
C101	C	-1.063550	0.354412	-0.694750
C102	C	-0.563550	0.854412	-0.194750
C103	C	-1.063496	0.354515	-0.163368
C104	C	-0.563496	0.854515	0.336632
C105	C	-1.063624	0.354333	-0.081569
C106	C	-0.563624	0.854333	0.418431
H107	H	-0.633578	0.440005	-0.439805
H108	H	-0.133578	0.940005	0.060195
C109	C	-0.917530	0.297116	-0.730086
C110	C	-0.417530	0.797116	-0.230086
C111	C	-0.964813	0.255596	-0.774298
C112	C	-0.464813	0.755596	-0.274298
H113	H	-0.885602	0.265182	-0.704014
H114	H	-0.385602	0.765182	-0.204014
H115	H	-0.889374	0.329166	-0.760056
H116	H	-0.389374	0.829166	-0.260056
H117	H	-0.945549	0.325150	-0.696196
H118	H	-0.445549	0.825150	-0.196196
H119	H	-0.936794	0.227565	-0.808192
H120	H	-0.436794	0.727565	-0.308192
H121	H	-0.992971	0.223533	-0.744325
H122	H	-0.492971	0.723533	-0.244325
C123	C	-0.923553	0.214252	-0.885685
C124	C	-0.423553	0.714252	-0.385685
C125	C	-0.964848	0.255556	-0.935637
C126	C	-0.464848	0.755556	-0.435637
H127	H	-0.891639	0.182300	-0.911770
H128	H	-0.391639	0.682300	-0.411770
H129	H	-0.895381	0.246320	-0.855695
H130	H	-0.395381	0.746320	-0.355695
H131	H	-0.955635	0.186113	-0.855720
H132	H	-0.455635	0.686113	-0.355720
H133	H	-0.932766	0.283699	-0.965599
H134	H	-0.432766	0.783699	-0.465599
H135	H	-0.993022	0.223484	-0.965640
H136	H	-0.493022	0.723484	-0.465640
H137	H	-1.149012	0.923842	-0.269310
H138	H	-0.649012	1.423842	0.230690
H139	H	-1.148937	0.439760	-0.924649
H140	H	-0.648937	0.939760	-0.424649
H141	H	-0.978063	0.784420	-0.439900
H142	H	-0.478063	1.284420	0.060100
C143	C	-1.146404	0.526085	-0.792802
C144	C	-0.646404	1.026085	-0.292802
C145	C	-1.162319	0.453209	-0.774249
C146	C	-0.662319	0.953209	-0.274249
H147	H	-1.178325	0.558031	-0.766717
H148	H	-0.678325	1.058031	-0.266717
H149	H	-1.096955	0.536850	-0.780196
H150	H	-0.596955	1.036850	-0.280196
H151	H	-1.153152	0.532800	-0.844074
H152	H	-0.653152	1.032800	-0.344074
H153	H	-1.155565	0.446493	-0.722977
H154	H	-0.655565	0.946493	-0.222977
H155	H	-1.211779	0.442440	-0.786850
H156	H	-0.711779	0.942440	-0.286850
C157	C	-0.533158	0.494799	-0.494429
C158	C	-0.033158	0.994799	0.005571
C159	C	-0.483196	0.453438	-0.453202
C160	C	0.016804	0.953438	0.046798
H161	H	-0.507080	0.526783	-0.526309
H162	H	-0.007080	1.026783	-0.026309
H163	H	-0.563156	0.462769	-0.522634
H164	H	-0.063156	0.962769	-0.022634
H165	H	-0.563113	0.522905	-0.462303
H166	H	-0.063113	1.022905	0.037697
H167	H	-0.453244	0.425327	-0.485329
H168	H	0.046756	0.925327	0.014671
H169	H	-0.453184	0.485472	-0.424995
H170	H	0.046816	0.985472	0.075005
H171	H	-0.494139	0.269022	-0.269351
H172	H	0.005861	0.769022	0.230649
H173	H	-0.633581	0.269007	-0.269335
H174	H	-0.133581	0.769007	0.230665
H175	H	-1.148952	0.784415	-0.269275
H176	H	-0.648952	1.284415	0.230725
H177	H	-0.978123	0.923863	-0.439921
H178	H	-0.478123	1.423863	0.060079
