data_functionalizedCrystal
_audit_creation_method	'MofGen! by Chris Wilmer'
_symmetry_space_group_name_H-M	'P1'
_symmetry_Int_Tables_number	1
_symmetry_cell_setting	triclinic
loop_
_symmetry_equiv_pos_as_xyz
  x,y,z
_cell_length_a	6.817900
_cell_length_b	9.582860
_cell_length_c	15.199472
_cell_angle_alpha	97.711188
_cell_angle_beta	89.521223
_cell_angle_gamma	68.793233
loop_
_atom_site_label
_atom_site_type_symbol
_atom_site_fract_x
_atom_site_fract_y
_atom_site_fract_z
V1	V	-3.924024	0.205771	0.274050
O2	O	-3.872307	-0.011211	0.268999
O3	O	-3.915854	0.409282	0.272016
O4	O	-3.812744	0.202026	0.393646
O5	O	-3.976131	0.197480	0.146528
V6	V	-4.410587	0.179886	0.258817
O7	O	-4.178614	0.262552	0.307466
O8	O	-4.606194	0.123105	0.225401
O9	O	-4.195550	-0.023624	0.260851
O10	O	-4.579700	0.396868	0.263868
O11	O	-4.475876	0.188177	0.386339
O12	O	-4.298660	0.183632	0.139221
C13	C	-3.772677	0.458911	0.267652
C14	C	-3.846865	0.625280	0.266786
C15	C	-3.641149	0.194534	0.422801
C16	C	-3.631715	0.192818	0.520570
C17	C	-4.122090	0.192942	0.010463
C18	C	-4.133619	0.191154	0.110066
V19	V	-3.845144	0.204244	-0.138286
O20	O	-3.779888	0.196015	-0.265805
O21	O	-3.957042	0.200441	-0.018696
O22	O	-4.060177	0.407768	-0.140284
O23	O	-3.676038	-0.012747	-0.143375
V24	V	-3.331688	0.178347	-0.153526
O25	O	-3.649522	0.261002	-0.104863
O26	O	-3.077104	0.121573	-0.186951
O27	O	-3.443001	0.182158	-0.273115
O28	O	-3.279545	0.186572	-0.026008
O29	O	-3.383395	0.395334	-0.148437
O30	O	-3.339866	-0.025169	-0.151527
C31	C	-4.002072	-0.073246	0.265213
C32	C	-3.907120	-0.239613	0.266084
C33	C	-4.253657	0.457400	-0.144636
C34	C	-4.348605	0.623776	-0.145477
C35	C	-3.614607	0.189671	-0.302267
C36	C	-3.624066	0.191436	-0.400031
C37	C	-3.483045	-0.074797	-0.147170
C38	C	-3.408856	-0.241172	-0.146330
