data_functionalizedCrystal
_audit_creation_method	'MofGen! by Chris Wilmer'
_symmetry_space_group_name_H-M	'P1'
_symmetry_Int_Tables_number	1
_symmetry_cell_setting	triclinic
loop_
_symmetry_equiv_pos_as_xyz
  x,y,z
_cell_length_a	11.169417
_cell_length_b	13.033855
_cell_length_c	11.169409
_cell_angle_alpha	97.211207
_cell_angle_beta	90.019513
_cell_angle_gamma	82.828133
loop_
_atom_site_label
_atom_site_type_symbol
_atom_site_fract_x
_atom_site_fract_y
_atom_site_fract_z
Zn1	Zn	1.895630	-0.415909	0.617900
Zn2	Zn	1.921015	-0.590694	0.391737
Zn3	Zn	1.694926	-0.415974	0.417226
Zn4	Zn	1.720407	-0.590610	0.592395
O5	O	1.807995	-0.503297	0.504814
O6	O	2.066949	-0.439103	0.587906
O7	O	1.890984	-0.567579	0.227159
O8	O	1.700262	-0.269731	0.465188
O9	O	2.085599	-0.567517	0.421744
O10	O	1.847719	-0.269683	0.612622
O11	O	1.724877	-0.439213	0.245886
O12	O	1.530355	-0.439132	0.440456
O13	O	1.743691	-0.567374	0.763737
O14	O	1.549076	-0.567436	0.569152
O15	O	1.872427	-0.439021	0.782476
O16	O	1.915692	-0.736918	0.397012
O17	O	1.768306	-0.736856	0.544435
C18	C	1.496168	-0.503283	0.504803
C19	C	1.362771	-0.503302	0.504823
C20	C	1.847551	-0.774804	0.465216
C21	C	1.864584	-0.890955	0.448316
C22	C	1.799199	-0.942744	0.513659
C23	C	1.816801	-1.062792	0.496193
C24	C	2.121039	-0.503312	0.504827
C25	C	2.254440	-0.503318	0.504832
C26	C	1.808070	-0.503181	0.817874
C27	C	1.808102	-0.503131	0.951281
C28	C	1.768316	-0.230730	0.544594
C29	C	1.751408	-0.114578	0.561545
C30	C	1.807978	-0.503337	0.192984
C31	C	1.808135	-0.503092	0.059620
H32	H	1.730184	-0.898208	0.582527
H33	H	1.885812	-1.107326	0.427313
C34	C	1.957811	-0.951107	0.355270
H35	H	1.996544	-0.903048	0.316533
H36	H	2.016267	-0.993617	0.395081
H37	H	1.918125	-0.993753	0.296771
H38	H	1.682388	-1.070045	0.630418
