data_functionalizedCrystal
_audit_creation_method	'MofGen! by Chris Wilmer'
_symmetry_space_group_name_H-M	'P1'
_symmetry_Int_Tables_number	1
_symmetry_cell_setting	triclinic
loop_
_symmetry_equiv_pos_as_xyz
  x,y,z
_cell_length_a	14.853569
_cell_length_b	14.586319
_cell_length_c	16.109301
_cell_angle_alpha	90.000846
_cell_angle_beta	96.451349
_cell_angle_gamma	90.001147
loop_
_atom_site_label
_atom_site_type_symbol
_atom_site_fract_x
_atom_site_fract_y
_atom_site_fract_z
O1	O	-1.196183	-0.076180	0.108555
O2	O	-0.696183	0.423820	0.608555
O3	O	-0.933702	-0.076192	0.121484
O4	O	-0.433702	0.423808	0.621484
O5	O	-1.072153	-0.076191	-0.006001
O6	O	-0.572153	0.423809	0.493999
O7	O	-1.057732	-0.076182	0.236040
O8	O	-0.557732	0.423818	0.736040
O9	O	-1.072144	0.076290	-0.006003
O10	O	-0.572144	0.576290	0.493997
O11	O	-0.933693	0.076289	0.121482
O12	O	-0.433693	0.576289	0.621482
O13	O	-1.196173	0.076300	0.108553
O14	O	-0.696173	0.576300	0.608553
Cu15	Cu	-1.064932	0.090217	0.115017
Cu16	Cu	-0.564932	0.590217	0.615017
Cu17	Cu	-1.064944	-0.090109	0.115020
Cu18	Cu	-0.564944	0.409891	0.615020
O19	O	-1.057723	0.076299	0.236038
O20	O	-0.557723	0.576299	0.736038
C21	C	-0.900110	0.000047	0.120897
C22	C	-0.400110	0.500047	0.620897
C23	C	-0.800029	0.000042	0.119140
C24	C	-0.300029	0.500042	0.619140
N25	N	-1.064931	0.217049	0.115015
N26	N	-0.564931	0.717049	0.615015
C27	C	-0.763779	0.000035	0.042587
C28	C	-0.263779	0.500035	0.542587
C29	C	-0.742240	0.000051	0.194043
C30	C	-0.242240	0.500051	0.694043
C31	C	-0.648208	0.000051	0.192396
C32	C	-0.148208	0.500051	0.692396
C33	C	-0.611958	0.000045	0.115843
C34	C	-0.111958	0.500045	0.615843
C35	C	-0.669739	0.000038	0.040937
C36	C	-0.169739	0.500038	0.540937
C37	C	-0.590420	0.000067	0.267300
C38	C	-0.090420	0.500067	0.767300
C39	C	-0.496382	0.000069	0.265655
C40	C	0.003618	0.500069	0.765655
C41	C	-0.460131	0.000056	0.189101
C42	C	0.039869	0.500056	0.689101
C43	C	-0.517918	0.000048	0.114192
C44	C	-0.017918	0.500048	0.614192
C45	C	-0.481668	0.000042	0.037639
C46	C	0.018332	0.500042	0.537639
C47	C	-0.539454	0.000028	-0.037270
C48	C	-0.039454	0.500028	0.462730
C49	C	-0.633488	0.000026	-0.035617
C50	C	-0.133488	0.500026	0.464383
C51	C	-0.366097	0.000058	0.187448
C52	C	0.133903	0.500058	0.687448
C53	C	-0.387628	0.000045	0.035989
C54	C	0.112372	0.500045	0.535989
C55	C	-0.229766	0.000058	0.109140
C56	C	0.270234	0.500058	0.609140
C57	C	-0.329847	0.000052	0.110895
C58	C	0.170153	0.500052	0.610895
N59	N	-1.064952	-0.216941	0.115015
N60	N	-0.564952	0.283059	0.615015
C61	C	-1.126257	0.452056	0.058584
C62	C	-0.626257	0.952056	0.558584
C63	C	-1.126260	0.548037	0.058582
C64	C	-0.626260	1.048037	0.558582
C65	C	-1.003619	0.548045	0.171449
C66	C	-0.503619	1.048045	0.671449
C67	C	-1.003613	0.452066	0.171447
C68	C	-0.503613	0.952066	0.671447
C69	C	-1.064937	0.404074	0.115015
C70	C	-0.564937	0.904074	0.615015
C71	C	-1.064946	0.596034	0.115016
C72	C	-0.564946	1.096034	0.615016
C73	C	-1.064948	0.700102	0.115014
C74	C	-0.564948	1.200102	0.615014
C75	C	-1.064934	0.300000	0.115015
C76	C	-0.564934	0.800000	0.615015
C77	C	-1.058312	0.000060	0.267015
C78	C	-0.558312	0.500060	0.767015
C79	C	-1.060063	0.000063	0.359313
C80	C	-0.560063	0.500063	0.859313
C81	C	-1.071564	0.000046	-0.036978
C82	C	-0.571564	0.500046	0.463022
C83	C	-1.069813	0.000037	-0.129276
C84	C	-0.569813	0.500037	0.370724
C85	C	-0.981981	0.000046	0.581475
C86	C	-0.481981	0.500046	1.081475
C87	C	-0.983634	0.000040	0.668198
C88	C	-0.483634	0.500040	1.168198
C89	C	-1.147901	0.000051	0.648555
C90	C	-0.647901	0.500051	1.148555
C91	C	-1.146247	0.000051	0.561834
C92	C	-0.646247	0.500051	1.061834
C93	C	-1.063285	0.000054	0.528297
C94	C	-0.563285	0.500054	1.028297
C95	C	-1.066591	0.000046	0.701740
C96	C	-0.566591	0.500046	1.201740
C97	C	-1.068384	0.000039	0.795769
C98	C	-0.568384	0.500039	1.295769
C99	C	-1.061492	0.000059	0.434262
C100	C	-0.561492	0.500059	0.934262
H101	H	-0.358121	0.000035	-0.026350
H102	H	0.141879	0.500035	0.473650
H103	H	-0.771760	0.000063	0.256370
H104	H	-0.271760	0.500063	0.756370
F105	F	-1.232787	0.000054	0.505234
F106	F	-0.732787	0.500054	1.005234
H107	H	-0.953675	0.412996	0.217400
H108	H	-0.453675	0.912996	0.717400
H109	H	-0.914428	0.000052	0.554172
H110	H	-0.414428	0.500052	1.054172
H111	H	-0.953692	0.587130	0.217396
H112	H	-0.453692	1.087130	0.717396
H113	H	-1.215446	0.000058	0.675872
H114	H	-0.715446	0.500058	1.175872
F115	F	-0.500863	0.000029	-0.118741
F116	F	-0.000863	0.500029	0.381259
H117	H	-0.319052	0.000078	0.248438
H118	H	0.180948	0.500078	0.748438
H119	H	-0.449340	0.000079	0.326651
H120	H	0.050660	0.500079	0.826651
F121	F	-0.825278	0.000018	-0.037133
F122	F	-0.325278	0.500018	0.462867
F123	F	-0.629005	0.000072	0.348767
F124	F	-0.129005	0.500072	0.848767
F125	F	-0.694992	0.000018	-0.115334
F126	F	-0.194992	0.500018	0.384666
F127	F	-1.191521	0.400983	-0.001478
F128	F	-0.691521	0.900983	0.498522
H129	H	-1.176191	0.587102	0.012630
H130	H	-0.676191	1.087102	0.512630
H131	H	-0.917428	0.000032	0.711493
H132	H	-0.417428	0.500032	1.211493
