data_functionalizedCrystal
_audit_creation_method	'MofGen! by Chris Wilmer'
_symmetry_space_group_name_H-M	'P1'
_symmetry_Int_Tables_number	1
_symmetry_cell_setting	triclinic
loop_
_symmetry_equiv_pos_as_xyz
  x,y,z
_cell_length_a	10.723022
_cell_length_b	10.723024
_cell_length_c	14.586319
_cell_angle_alpha	89.997376
_cell_angle_beta	89.996795
_cell_angle_gamma	84.467548
loop_
_atom_site_label
_atom_site_type_symbol
_atom_site_fract_x
_atom_site_fract_y
_atom_site_fract_z
O1	O	1.657188	0.175016	-0.076232
O2	O	2.157188	0.675016	0.423768
O3	O	1.294035	0.191772	-0.076235
O4	O	1.794035	0.691772	0.423765
O5	O	1.483988	0.001818	-0.076230
O6	O	1.983988	0.501818	0.423770
O7	O	1.467235	0.364970	-0.076237
O8	O	1.967235	0.864970	0.423763
O9	O	1.483975	0.001815	0.076251
O10	O	1.983975	0.501815	0.576251
O11	O	1.294022	0.191769	0.076246
O12	O	1.794022	0.691769	0.576246
O13	O	1.657175	0.175013	0.076249
O14	O	2.157175	0.675013	0.576249
Cu15	Cu	1.475597	0.183391	0.090170
Cu16	Cu	1.975597	0.683391	0.590170
Cu17	Cu	1.475613	0.183394	-0.090156
Cu18	Cu	1.975613	0.683394	0.409844
O19	O	1.467222	0.364967	0.076244
O20	O	1.967222	0.864967	0.576244
C21	C	1.247529	0.190551	0.000005
C22	C	1.747529	0.690551	0.500005
C23	C	1.108975	0.186904	0.000004
C24	C	1.608975	0.686904	0.500004
C25	C	0.890796	0.289421	0.000000
C26	C	1.390796	0.789421	0.500000
C27	C	1.033999	0.293192	0.000002
C28	C	1.533999	0.793192	0.500002
C29	C	1.482763	-0.044683	0.000009
C30	C	1.982763	0.455317	0.500009
C31	C	1.479115	-0.183238	0.000006
C32	C	1.979115	0.316762	0.500006
C33	C	1.585403	-0.258221	0.000006
C34	C	2.085403	0.241779	0.500006
C35	C	1.581635	-0.401424	0.000002
C36	C	2.081635	0.098576	0.500002
C37	C	1.703681	0.176234	0.000007
C38	C	2.203681	0.676234	0.500007
C39	C	1.842235	0.179881	0.000002
C40	C	2.342235	0.679881	0.500002
C41	C	1.468448	0.411468	0.000003
C42	C	1.968448	0.911468	0.500003
C43	C	1.472095	0.550023	-0.000000
C44	C	1.972095	1.050023	0.500000
N45	N	1.475595	0.183388	0.217002
N46	N	1.975595	0.683388	0.717002
N47	N	1.475625	0.183388	-0.216988
N48	N	1.975625	0.683388	0.283012
C49	C	1.559735	0.099305	0.452011
C50	C	2.059735	0.599305	0.952011
C51	C	1.559738	0.099302	0.547992
C52	C	2.059738	0.599302	1.047992
C53	C	1.391476	0.267475	0.547997
C54	C	1.891476	0.767475	1.047997
C55	C	1.391468	0.267471	0.452017
C56	C	1.891468	0.767471	0.952017
C57	C	1.475604	0.183387	0.404027
C58	C	1.975604	0.683387	0.904027
C59	C	1.475616	0.183388	0.595987
C60	C	1.975616	0.683388	1.095987
C61	C	1.475619	0.183386	0.700055
C62	C	1.975619	0.683386	1.200055
C63	C	1.475599	0.183388	0.299953
C64	C	1.975599	0.683388	0.799953
H65	H	0.906678	0.088892	-0.000002
H66	H	1.406678	0.588892	0.499998
H67	H	1.628244	0.030833	0.587058
H68	H	2.128244	0.530833	1.087058
Br69	Br	1.039304	0.030572	0.000017
Br70	Br	1.539304	0.530572	0.500017
H71	H	1.322976	0.335935	0.587080
H72	H	1.822976	0.835935	1.087080
H73	H	0.826354	0.380409	-0.000007
H74	H	1.326354	0.880409	0.499993
Br75	Br	1.733302	-0.508809	0.000013
Br76	Br	2.233302	-0.008809	0.500013
Br77	Br	1.103679	0.449521	0.000010
Br78	Br	1.603679	0.949521	0.500010
Br79	Br	1.277273	0.381580	0.386889
Br80	Br	1.777273	0.881580	0.886889
H81	H	1.381100	-0.385552	0.000007
H82	H	1.881100	0.114448	0.500007
Br83	Br	1.741728	-0.188530	-0.000003
Br84	Br	2.241728	0.311470	0.499997
H85	H	1.628242	0.030837	0.412939
H86	H	2.128242	0.530837	0.912939
Br87	Br	1.322789	-0.252929	-0.000008
Br88	Br	1.822789	0.247071	0.499992
