data_functionalizedCrystal
_audit_creation_method	'MofGen! by Chris Wilmer'
_symmetry_space_group_name_H-M	'P1'
_symmetry_Int_Tables_number	1
_symmetry_cell_setting	triclinic
loop_
_symmetry_equiv_pos_as_xyz
  x,y,z
_cell_length_a	15.995350
_cell_length_b	15.995292
_cell_length_c	10.868271
_cell_angle_alpha	89.998057
_cell_angle_beta	89.999330
_cell_angle_gamma	83.480495
loop_
_atom_site_label
_atom_site_type_symbol
_atom_site_fract_x
_atom_site_fract_y
_atom_site_fract_z
O1	O	1.110963	0.107930	-0.102209
O2	O	0.867185	0.121258	-0.102233
O3	O	0.995763	-0.007297	-0.102223
O4	O	0.982385	0.236485	-0.102220
O5	O	0.995752	-0.007302	0.102422
O6	O	0.867174	0.121253	0.102411
O7	O	1.110952	0.107925	0.102435
Zn8	Zn	0.989062	0.114588	0.134915
Zn9	Zn	0.989075	0.114595	-0.134713
O10	O	0.982374	0.236480	0.102425
C11	C	0.835985	0.120704	0.000086
C12	C	0.743035	0.119053	0.000076
C13	C	0.405288	0.113120	0.000102
C14	C	0.452742	0.021566	0.000557
C15	C	0.549431	0.023218	0.000087
C16	C	0.572848	0.116063	0.000090
C17	C	0.531758	0.161223	-0.116767
C18	C	0.435123	0.158923	-0.116856
C19	C	0.434771	0.160809	0.115863
C20	C	0.531717	0.160788	0.117399
C21	C	0.667546	0.117731	0.000079
C22	C	0.310591	0.111455	0.000104
C23	C	0.995213	-0.038495	0.000097
C24	C	0.993581	-0.131448	0.000087
C25	C	0.987580	-0.469186	0.000098
C26	C	1.080384	-0.445874	0.000564
C27	C	1.082148	-0.349199	0.000099
C28	C	0.990557	-0.301631	0.000093
C29	C	0.944166	-0.330729	-0.116770
C30	C	0.943048	-0.427519	-0.116863
C31	C	0.941141	-0.427382	0.115856
C32	C	0.944580	-0.330890	0.117396
C33	C	0.992235	-0.206934	0.000087
C34	C	0.985899	-0.563882	0.000096
C35	C	1.142152	0.108479	0.000114
C36	C	1.235102	0.110130	0.000115
C37	C	0.982924	0.267678	0.000103
C38	C	0.984556	0.360631	0.000104
N39	N	0.989058	0.114583	0.318929
N40	N	0.989085	0.114593	-0.318727
C41	C	0.989071	0.114593	0.569935
C42	C	0.989061	0.114590	0.430258
H43	H	0.433160	-0.014860	-0.082784
H44	H	0.577301	-0.012516	-0.083827
N45	N	0.428208	-0.026908	0.111568
H46	H	0.365608	-0.030648	0.109964
H47	H	0.459412	-0.085446	0.110024
H48	H	0.877728	-0.297920	0.124450
H49	H	0.577863	-0.012280	0.083855
H50	H	0.872830	-0.441373	0.116639
N51	N	1.130566	-0.324822	-0.111060
H52	H	1.102223	-0.342459	-0.188366
H53	H	1.131910	-0.261849	-0.111726
N54	N	0.989314	-0.306291	0.231920
H55	H	0.959455	-0.325273	0.307060
H56	H	1.049291	-0.333972	0.231065
N57	N	0.410877	0.115305	-0.232561
H58	H	0.462941	0.097748	-0.283027
H59	H	0.382937	0.063912	-0.209811
H60	H	1.115961	-0.474890	-0.082766
N61	N	0.985632	-0.463046	-0.232556
H62	H	0.944647	-0.492855	-0.282274
H63	H	1.004948	-0.415765	-0.282918
N64	N	0.979636	-0.464805	0.233196
H65	H	0.974906	-0.527226	0.234843
H66	H	1.040887	-0.455123	0.236989
N67	N	0.569341	0.119688	-0.231981
H68	H	0.631947	0.123405	-0.233321
H69	H	0.558704	0.058650	-0.233073
N70	N	0.852922	-0.446802	-0.123921
H71	H	0.839368	-0.480128	-0.049016
H72	H	0.814154	-0.392412	-0.126999
H73	H	0.402860	0.226141	-0.122158
N74	N	0.550455	0.251573	-0.122544
H75	H	0.585826	0.264129	-0.049291
H76	H	0.582105	0.260855	-0.200869
H77	H	0.547067	0.228493	0.124459
H78	H	0.876767	-0.298861	-0.121118
N79	N	0.392688	0.250225	0.116920
H80	H	0.354706	0.259832	0.042819
H81	H	0.358245	0.260223	0.194500
H82	H	1.116151	-0.473873	0.084372
N83	N	0.407578	0.121163	0.233196
H84	H	0.375866	0.071882	0.212495
H85	H	0.458841	0.100993	0.283899
H86	H	0.976390	-0.310666	-0.203734
N87	N	0.567897	0.117125	0.231920
H88	H	0.610754	0.068575	0.207926
H89	H	0.595888	0.158366	0.283751
N90	N	1.130251	-0.323988	0.111079
H91	H	1.150501	-0.375722	0.160741
H92	H	1.180179	-0.295528	0.083103
