data_functionalizedCrystal
_audit_creation_method	'MofGen! by Chris Wilmer'
_symmetry_space_group_name_H-M	'P1'
_symmetry_Int_Tables_number	1
_symmetry_cell_setting	triclinic
loop_
_symmetry_equiv_pos_as_xyz
  x,y,z
_cell_length_a	13.897448
_cell_length_b	13.033748
_cell_length_c	13.032268
_cell_angle_alpha	103.297929
_cell_angle_beta	97.148041
_cell_angle_gamma	97.212326
loop_
_atom_site_label
_atom_site_type_symbol
_atom_site_fract_x
_atom_site_fract_y
_atom_site_fract_z
Zn1	Zn	-0.248571	1.547444	-0.394585
Zn2	Zn	-0.386441	1.569898	-0.216997
Zn3	Zn	-0.248640	1.392397	-0.239526
Zn4	Zn	-0.433314	1.369815	-0.417062
O5	O	-0.329241	1.469888	-0.317042
O6	O	-0.247214	1.699046	-0.352192
O7	O	-0.348574	1.565199	-0.071365
O8	O	-0.113646	1.413018	-0.260116
O9	O	-0.348507	1.715542	-0.221719
O10	O	-0.113595	1.526930	-0.374038
O11	O	-0.247332	1.434790	-0.087917
O12	O	-0.292783	1.240778	-0.281911
O13	O	-0.428395	1.374531	-0.562701
O14	O	-0.428462	1.224187	-0.412346
O15	O	-0.292665	1.505034	-0.546187
O16	O	-0.527644	1.543303	-0.243514
O17	O	-0.562081	1.396303	-0.390501
C18	C	-0.365717	1.193946	-0.352013
C19	C	-0.381348	1.075894	-0.366999
C20	C	-0.579862	1.469815	-0.317021
C21	C	-0.687070	1.469876	-0.317036
C22	C	-0.321111	1.031430	-0.309247
C23	C	-0.337265	0.909417	-0.324735
C24	C	-0.883359	1.469979	-0.317088
C25	C	-0.774131	1.469918	-0.317062
C26	C	-0.077641	1.469988	-0.317083
C27	C	0.029576	1.470031	-0.317100
C28	C	-0.365751	1.434759	-0.594057
C29	C	-0.381309	1.419789	-0.712104
C30	C	-0.292624	1.746908	-0.281935
C31	C	-0.277020	1.864957	-0.266975
C32	C	-0.321089	1.477685	-0.756562
C33	C	-0.337168	1.462214	-0.878570
C34	C	-0.292796	1.504943	-0.041098
C35	C	-0.276939	1.520118	0.076975
H36	H	-0.257585	1.083694	-0.248334
H37	H	-0.213488	0.917216	-0.206058
H38	H	-0.444763	1.358761	-0.764368
H39	H	-0.400627	1.401182	-0.930831
H40	H	-0.444880	1.023631	-0.427905
H41	H	-0.400801	0.857158	-0.385645
H42	H	-0.257626	1.538702	-0.704300
H43	H	-0.213470	1.581138	-0.870767
