data_functionalizedCrystal
_audit_creation_method	'MofGen! by Chris Wilmer'
_symmetry_space_group_name_H-M	'P1'
_symmetry_Int_Tables_number	1
_symmetry_cell_setting	triclinic
loop_
_symmetry_equiv_pos_as_xyz
  x,y,z
_cell_length_a	27.732048
_cell_length_b	15.072220
_cell_length_c	15.995350
_cell_angle_alpha	90.001101
_cell_angle_beta	83.067515
_cell_angle_gamma	89.993036
loop_
_atom_site_label
_atom_site_type_symbol
_atom_site_fract_x
_atom_site_fract_y
_atom_site_fract_z
O1	O	0.641363	-0.073664	0.099622
O2	O	0.500635	-0.073691	0.114771
O3	O	0.574846	-0.073676	-0.014741
O4	O	0.567152	-0.073679	0.229134
O5	O	0.574827	0.073889	-0.014734
O6	O	0.500616	0.073875	0.114778
O7	O	0.641344	0.073901	0.099630
Zn8	Zn	0.570977	0.097317	0.107205
Zn9	Zn	0.571002	-0.097107	0.107195
O10	O	0.567133	0.073886	0.229141
C11	C	0.482617	0.000089	0.114456
C12	C	0.428958	0.000078	0.113499
C13	C	0.574518	0.000105	-0.045928
C14	C	0.573565	0.000100	-0.138866
N15	N	0.570964	0.230006	0.107211
C16	C	0.090447	0.000116	0.184004
C17	C	-0.111228	0.000124	0.180451
O18	O	-0.142205	0.000162	0.244923
N19	N	-0.130683	0.000123	0.103656
C20	C	-0.099715	0.000127	0.027744
O21	O	-0.120891	0.000135	-0.037657
C22	C	0.101958	0.000125	0.031297
C23	C	0.121410	0.000117	0.108097
C24	C	0.109900	0.000109	0.260797
C25	C	0.160315	0.000102	0.261685
C26	C	0.191279	0.000102	0.185778
C27	C	0.171826	0.000110	0.108985
C28	C	0.132925	0.000135	-0.044614
C29	C	0.183346	0.000136	-0.043719
C30	C	0.202798	0.000128	0.033081
C31	C	0.253205	0.000103	0.033965
N32	N	0.272660	0.000104	0.110761
C33	C	0.241697	0.000104	0.186667
C34	C	-0.205598	0.000126	0.025883
C35	C	-0.256016	0.000125	0.024995
C36	C	-0.267525	0.000124	0.177703
C37	C	-0.217106	0.000118	0.178590
C38	C	-0.186143	0.000126	0.102679
C39	C	0.347574	0.000088	0.188525
C40	C	0.397995	0.000078	0.189405
C41	C	0.409499	0.000084	0.036698
C42	C	0.359083	0.000089	0.035817
C43	C	0.328121	0.000095	0.111737
O44	O	0.284211	0.000076	-0.030472
O45	O	0.262881	0.000114	0.252058
C46	C	0.040031	0.000123	0.183116
C47	C	0.020579	0.000130	0.106323
C48	C	0.051542	0.000131	0.030416
C49	C	-0.029839	0.000129	0.105434
C50	C	-0.060803	0.000129	0.181340
C51	C	-0.041348	0.000129	0.258135
C52	C	0.009068	0.000122	0.259023
C53	C	0.032087	0.000130	-0.046379
C54	C	-0.018329	0.000136	-0.047260
C55	C	-0.049292	0.000135	0.028646
C56	C	0.659362	0.000120	0.099944
C57	C	0.713021	0.000124	0.100901
N58	N	0.571018	-0.229795	0.107182
C59	C	0.571001	0.589207	0.107192
C60	C	0.531158	0.551592	0.176262
C61	C	0.531250	0.448767	0.176511
C62	C	0.570982	0.411003	0.107202
C63	C	0.621417	0.448304	0.125631
C64	C	0.621193	0.551161	0.126121
C65	C	0.560858	0.551306	0.019484
C66	C	0.559701	0.448442	0.020085
C67	C	0.570975	0.310290	0.107205
C68	C	0.571011	0.689921	0.107190
C69	C	0.570140	0.000102	-0.476569
C70	C	0.517289	-0.000239	-0.428451
C71	C	0.518242	0.000094	-0.331773
C72	C	0.571839	0.000100	-0.309031
C73	C	0.597897	0.084371	-0.350441
C74	C	0.596569	0.084441	-0.447060
C75	C	0.597682	-0.083368	-0.447440
C76	C	0.597669	-0.084482	-0.350495
C77	C	0.572802	0.000102	-0.214346
C78	C	0.569179	0.000106	-0.571255
C79	C	0.567461	0.000103	0.260328
C80	C	0.568414	0.000103	0.353266
H81	H	0.413829	0.000071	0.251948
H82	H	0.117096	0.000142	-0.107153
H83	H	0.343245	0.000083	-0.026720
H84	H	0.579783	0.147077	-0.321822
O85	O	-0.196127	0.000115	0.261424
H86	H	-0.173435	0.060259	0.265483
O87	O	0.491100	-0.079909	-0.293765
H88	H	0.477172	-0.119185	-0.344430
H89	H	0.496172	-0.060671	-0.446713
H90	H	0.208554	0.000143	-0.105537
O91	O	0.076510	0.000105	0.342679
H92	H	0.053261	0.060252	0.345947
O93	O	0.539616	0.585806	0.262017
H94	H	0.572074	0.629482	0.255659
H95	H	0.651767	0.576042	0.077762
O96	O	0.065478	0.000126	-0.128256
H97	H	0.088720	0.060272	-0.131514
H98	H	0.322370	0.000096	0.250346
O99	O	0.442899	0.000097	-0.045171
H100	H	0.481225	0.000105	-0.031644
O101	O	0.030046	0.000131	0.341857
H102	H	0.000039	0.000144	0.394483
H103	H	-0.066567	0.000125	0.319941
H104	H	0.636755	-0.089565	-0.335639
O105	O	-0.039306	0.000143	-0.130101
H106	H	-0.062004	0.060291	-0.134148
O107	O	0.481591	0.415351	0.162112
H108	H	0.457293	0.472659	0.154911
H109	H	0.496251	0.059849	-0.447770
H110	H	0.651773	0.423841	0.076634
H111	H	-0.180391	0.000132	-0.035937
H112	H	0.637272	0.087509	-0.336825
O113	O	0.481337	0.584391	0.162115
H114	H	0.484437	0.627858	0.105708
O115	O	0.539832	0.416150	0.262740
H116	H	0.543937	0.473845	0.304422
O117	O	0.574830	-0.167990	-0.474379
H118	H	0.562032	-0.208175	-0.417887
O119	O	0.490918	0.080248	-0.294496
H120	H	0.476974	0.118927	-0.345532
O121	O	0.599318	0.583592	-0.048603
H122	H	0.591900	0.556572	-0.110328
H123	H	0.578618	-0.146822	-0.323003
H124	H	0.636649	-0.083930	-0.479705
O125	O	0.571374	0.167868	-0.470982
H126	H	0.560250	0.207780	-0.413568
O127	O	0.633032	0.582941	0.210820
H128	H	0.638859	0.524844	0.251046
H129	H	0.176148	0.000095	0.324223
H130	H	0.630568	0.422536	0.188843
O131	O	0.647963	0.089539	-0.490453
H132	H	0.668861	0.031310	-0.472212
O133	O	-0.300925	0.000136	0.259577
H134	H	-0.339250	0.000147	0.246049
O135	O	0.513193	0.585688	-0.004201
H136	H	0.483248	0.565075	0.044273
O137	O	0.510554	0.416164	0.001541
H138	H	0.510521	0.342559	-0.000645
O139	O	-0.276995	0.000132	-0.057838
H140	H	-0.246989	0.000144	-0.110467
O141	O	0.595648	0.414422	-0.051128
H142	H	0.622236	0.370103	-0.025426
