data_functionalizedCrystal
_audit_creation_method	'MofGen! by Chris Wilmer'
_symmetry_space_group_name_H-M	'P1'
_symmetry_Int_Tables_number	1
_symmetry_cell_setting	triclinic
loop_
_symmetry_equiv_pos_as_xyz
  x,y,z
_cell_length_a	14.044220
_cell_length_b	10.654550
_cell_length_c	9.730223
_cell_angle_alpha	89.999807
_cell_angle_beta	89.995496
_cell_angle_gamma	91.163110
loop_
_atom_site_label
_atom_site_type_symbol
_atom_site_fract_x
_atom_site_fract_y
_atom_site_fract_z
O1	O	1.259693	-0.302980	0.114137
O2	O	0.983652	-0.292047	0.114172
O3	O	1.128019	-0.115412	0.114149
O4	O	1.115326	-0.479615	0.114161
O5	O	1.128018	-0.115417	-0.114431
O6	O	0.983650	-0.292052	-0.114408
O7	O	1.259691	-0.302985	-0.114443
Zn8	Zn	1.121671	-0.297519	-0.150717
Zn9	Zn	1.121673	-0.297513	0.150447
O10	O	1.115324	-0.479620	-0.114419
C11	C	0.948305	-0.287263	-0.000113
C12	C	0.842986	-0.272988	-0.000100
N13	N	1.121676	-0.297523	-0.356254
C14	C	1.127086	-0.068523	-0.000139
C15	C	1.124298	0.071201	-0.000134
C16	C	0.650153	-0.246889	-0.000128
C17	C	0.593185	-0.348137	-0.000130
C18	C	0.485886	-0.333615	-0.000146
C19	C	0.757461	-0.261409	-0.000112
C20	C	1.295038	-0.307769	-0.000154
C21	C	1.400358	-0.322044	-0.000159
C22	C	1.116257	-0.526509	-0.000128
C23	C	1.119045	-0.666233	-0.000124
C24	C	1.209299	0.142144	-0.000149
C25	C	1.206673	0.273429	-0.000139
C26	C	1.034038	0.262814	-0.000105
C27	C	1.036664	0.131532	-0.000105
C28	C	1.308969	0.148274	-0.000175
C29	C	1.306343	0.279559	-0.000165
C30	C	1.185618	-0.219340	-0.428190
C31	C	1.185616	-0.219324	-0.572073
C32	C	1.057725	-0.375686	-0.572070
C33	C	1.057724	-0.375694	-0.428190
C34	C	1.259458	-0.129069	-0.428193
C35	C	1.259455	-0.129054	-0.572076
N36	N	1.121675	-0.297500	0.355983
H37	H	0.624998	-0.445725	-0.000121
C38	C	0.607183	-0.115066	-0.000124
H39	H	0.539657	-0.122478	-0.000118
H40	H	0.627689	-0.070689	-0.079826
H41	H	0.627674	-0.070711	0.079605
H42	H	0.967448	0.073774	-0.000074
H43	H	1.243262	-0.030909	-0.389139
C44	C	0.937649	0.329183	-0.000084
H45	H	0.948257	0.417531	-0.000093
H46	H	0.902614	0.305483	0.079630
H47	H	0.902614	0.305489	-0.079802
C48	C	0.987395	-0.461700	-0.349058
H49	H	0.996549	-0.450508	-0.253065
H50	H	0.998245	-0.546734	-0.372653
H51	H	0.923996	-0.440902	-0.372623
H52	H	1.347954	0.115001	0.095474
H53	H	1.328328	-0.166579	-0.383574
H54	H	1.340707	0.109456	-0.098875
H55	H	1.336465	0.322177	0.098526
C56	C	1.357059	0.330881	-0.129400
H57	H	1.379689	0.262899	-0.182563
H58	H	1.409207	0.383635	-0.102847
H59	H	1.313553	0.377757	-0.182534
H60	H	1.005657	-0.439330	-0.630657
H61	H	1.236409	-0.035515	-0.616691
C62	C	1.357921	-0.168021	-0.624852
H63	H	1.398415	-0.184070	-0.548919
H64	H	1.384915	-0.102254	-0.679085
H65	H	1.351177	-0.241802	-0.679097
