data_functionalizedCrystal
_audit_creation_method	'MofGen! by Chris Wilmer'
_symmetry_space_group_name_H-M	'P1'
_symmetry_Int_Tables_number	1
_symmetry_cell_setting	triclinic
loop_
_symmetry_equiv_pos_as_xyz
  x,y,z
_cell_length_a	15.995343
_cell_length_b	15.995350
_cell_length_c	17.766277
_cell_angle_alpha	89.995869
_cell_angle_beta	89.994960
_cell_angle_gamma	83.490779
loop_
_atom_site_label
_atom_site_type_symbol
_atom_site_fract_x
_atom_site_fract_y
_atom_site_fract_z
O1	O	1.110995	0.107897	-0.062515
O2	O	1.610995	0.607897	0.437485
O3	O	0.867219	0.121231	-0.062533
O4	O	1.367219	0.621231	0.437467
O5	O	0.995771	-0.007324	-0.062523
O6	O	1.495771	0.492676	0.437477
O7	O	0.982444	0.236452	-0.062525
O8	O	1.482444	0.736452	0.437475
O9	O	0.995748	-0.007330	0.062666
O10	O	1.495748	0.492670	0.562666
O11	O	0.867197	0.121225	0.062656
O12	O	1.367197	0.621225	0.562656
O13	O	1.110973	0.107890	0.062674
O14	O	1.610973	0.607890	0.562674
Cu15	Cu	0.989083	0.114557	0.074095
Cu16	Cu	1.489083	0.614557	0.574095
Cu17	Cu	0.989109	0.114565	-0.073954
Cu18	Cu	1.489109	0.614565	0.426046
O19	O	0.982421	0.236445	0.062664
O20	O	1.482421	0.736445	0.562664
C21	C	0.836013	0.120678	0.000059
C22	C	1.336013	0.620678	0.500059
C23	C	0.743062	0.119028	0.000053
C24	C	1.243062	0.619028	0.500053
C25	C	0.995209	-0.038522	0.000070
C26	C	1.495209	0.461478	0.500070
C27	C	0.993557	-0.131472	0.000066
C28	C	1.493557	0.368528	0.500066
C29	C	0.572876	0.116035	0.000063
C30	C	1.072876	0.616035	0.500063
C31	C	0.549530	0.023238	0.000063
C32	C	1.049530	0.523238	0.500063
C33	C	0.452852	0.021492	0.000352
C34	C	0.952852	0.521492	0.500352
C35	C	0.405316	0.113086	0.000072
C36	C	0.905316	0.613086	0.500072
C37	C	0.434395	0.159742	0.071418
C38	C	0.934395	0.659742	0.571418
C39	C	0.531187	0.160843	0.071473
C40	C	1.031187	0.660843	0.571473
C41	C	0.531123	0.162209	-0.070894
C42	C	1.031123	0.662209	0.429106
C43	C	0.434629	0.158784	-0.071828
C44	C	0.934629	0.658784	0.428172
C45	C	0.310618	0.111425	0.000079
C46	C	0.810618	0.611425	0.500079
C47	C	0.667574	0.117699	0.000060
C48	C	1.167574	0.617699	0.500060
C49	C	0.987625	-0.469220	0.000068
C50	C	1.487625	0.030780	0.500068
C51	C	0.896072	-0.421783	-0.000219
C52	C	1.396072	0.078217	0.499781
C53	C	0.897725	-0.325093	0.000063
C54	C	1.397725	0.174907	0.500063
C55	C	0.990567	-0.301659	0.000067
C56	C	1.490567	0.198341	0.500067
C57	C	1.035711	-0.342742	0.071557
C58	C	1.535711	0.157258	0.571557
C59	C	1.033411	-0.439377	0.071617
C60	C	1.533411	0.060623	0.571617
C61	C	1.035328	-0.439728	-0.070746
C62	C	1.535328	0.060272	0.429254
C63	C	1.035307	-0.342783	-0.071690
C64	C	1.535307	0.157217	0.428310
C65	C	0.992235	-0.206962	0.000068
C66	C	1.492235	0.293038	0.500068
C67	C	0.985960	-0.563917	0.000071
C68	C	1.485960	-0.063917	0.500071
C69	C	1.142179	0.108444	0.000080
C70	C	1.642179	0.608444	0.500080
C71	C	1.235130	0.110093	0.000082
C72	C	1.735130	0.610093	0.500082
C73	C	0.982983	0.267643	0.000069
C74	C	1.482983	0.767643	0.500069
C75	C	0.984635	0.360594	0.000069
C76	C	1.484635	0.860594	0.500069
N77	N	0.989070	0.114551	0.178226
N78	N	1.489070	0.614551	0.678226
N79	N	0.989129	0.114564	-0.178085
N80	N	1.489129	0.614564	0.321915
C81	C	1.046011	0.057655	0.217617
C82	C	1.546011	0.557655	0.717617
C83	C	1.046016	0.057651	0.296419
C84	C	1.546016	0.557651	0.796419
C85	C	0.989088	0.114557	0.335826
C86	C	1.489088	0.614557	0.835826
C87	C	0.932136	0.171458	0.296426
C88	C	1.432136	0.671458	0.796426
C89	C	0.932127	0.171455	0.217625
C90	C	1.432127	0.671455	0.717625
C91	C	0.978117	0.190814	0.460663
C92	C	1.478117	0.690814	0.960663
C93	C	0.978132	0.190819	0.539462
C94	C	1.478132	0.690819	1.039462
C95	C	0.989110	0.114568	0.578873
C96	C	1.489110	0.614568	1.078873
C97	C	1.000092	0.038309	0.539475
C98	C	1.500092	0.538309	1.039475
C99	C	1.000083	0.038305	0.460675
C100	C	1.500083	0.538305	0.960675
C101	C	0.989090	0.114567	0.421272
C102	C	1.489090	0.614567	0.921272
C103	C	1.046060	0.057662	0.703710
C104	C	1.546060	0.557662	1.203710
C105	C	1.046059	0.057657	0.782513
C106	C	1.546059	0.557657	1.282513
C107	C	0.932182	0.171472	0.782518
C108	C	1.432182	0.671472	1.282518
C109	C	0.932179	0.171470	0.703717
C110	C	1.432179	0.671470	1.203717
C111	C	0.989122	0.114566	0.664317
C112	C	1.489122	0.614566	1.164317
H113	H	0.433842	-0.015030	-0.050781
H114	H	0.933842	0.484970	0.449219
H115	H	1.102829	-0.471491	-0.071223
H116	H	1.602829	0.028509	0.428777
H117	H	0.545137	0.230514	-0.071583
H118	H	1.045137	0.730514	0.428417
N119	N	0.991643	-0.306630	-0.141751
N120	N	1.491643	0.193370	0.358249
H121	H	0.943086	-0.263790	-0.127079
H122	H	1.443086	0.236210	0.372921
H123	H	1.032873	-0.278630	-0.173474
H124	H	1.532873	0.221370	0.326526
N125	N	0.847602	-0.446328	-0.068122
N126	N	1.347602	0.053672	0.431878
H127	H	0.829694	-0.394693	-0.099441
H128	H	1.329694	0.105307	0.400559
H129	H	0.884559	-0.488454	-0.099301
H130	H	1.384559	0.011546	0.400699
N131	N	0.994149	-0.305165	0.142027
N132	N	1.494149	0.194835	0.642027
H133	H	1.023641	-0.332008	0.187723
H134	H	1.523641	0.167992	0.687723
H135	H	0.997871	-0.242560	0.142773
H136	H	1.497871	0.257440	0.642773
H137	H	0.859633	-0.441379	0.050757
H138	H	1.359633	0.058621	0.550757
N139	N	0.566662	0.118526	0.142380
N140	N	1.066662	0.618526	0.642380
H141	H	0.629766	0.118813	0.143125
H142	H	1.129766	0.618813	0.643125
H143	H	0.541226	0.149911	0.187717
H144	H	1.041226	0.649911	0.687717
N145	N	1.124994	-0.322447	-0.077410
N146	N	1.624994	0.177553	0.422590
H147	H	1.125501	-0.259463	-0.080599
H148	H	1.625501	0.240537	0.419401
H149	H	1.157423	-0.344622	-0.031447
H150	H	1.657423	0.155378	0.468553
N151	N	0.870738	0.232839	0.338926
N152	N	1.370738	0.732839	0.838926
H153	H	0.834662	0.268883	0.302011
H154	H	1.334662	0.768883	0.802011
H155	H	0.833732	0.200762	0.371632
H156	H	1.333732	0.700762	0.871632
N157	N	0.870718	0.232829	0.175129
N158	N	1.370718	0.732829	0.675129
H159	H	0.833649	0.200809	0.142443
H160	H	1.333649	0.700809	0.642443
H161	H	0.834707	0.268866	0.212092
H162	H	1.334707	0.768866	0.712092
H163	H	0.578506	-0.012148	0.051151
H164	H	1.078506	0.487852	0.551151
N165	N	1.107421	-0.003725	0.175125
N166	N	1.607421	0.496275	0.675125
H167	H	1.098778	0.004905	0.119227
H168	H	1.598778	0.504905	0.619227
H169	H	1.166815	0.005988	0.188889
H170	H	1.666815	0.505988	0.688889
N171	N	0.850388	-0.288173	0.068057
N172	N	1.350388	0.211827	0.568057
H173	H	0.790216	-0.301523	0.065856
H174	H	1.290216	0.198477	0.565856
H175	H	0.878036	-0.313142	0.115316
H176	H	1.378036	0.186858	0.615316
H177	H	1.092386	0.011317	0.328497
H178	H	1.592386	0.511317	0.828497
H179	H	1.092424	0.011321	0.814586
H180	H	1.592424	0.511321	1.314586
H181	H	1.009022	-0.023787	0.428600
H182	H	1.509022	0.476213	0.928600
H183	H	1.000473	-0.457681	0.125055
H184	H	1.500473	0.042319	0.625055
N185	N	0.995700	-0.466930	-0.142524
N186	N	1.495700	0.033070	0.357476
H187	H	0.946417	-0.498651	-0.129862
H188	H	1.446417	0.001349	0.370138
H189	H	0.975536	-0.415672	-0.173546
H190	H	1.475536	0.084328	0.326454
N191	N	1.107443	-0.003726	0.661196
N192	N	1.607443	0.496274	1.161196
H193	H	1.144512	0.028280	0.628487
H194	H	1.644512	0.528280	1.128487
H195	H	1.143457	-0.039774	0.698149
H196	H	1.643457	0.460226	1.198149
N197	N	0.410063	0.113784	-0.141749
N198	N	0.910063	0.613784	0.358251
H199	H	0.380070	0.064006	-0.126922
H200	H	0.880070	0.564006	0.373078
H201	H	0.371460	0.153724	-0.173591
H202	H	0.871460	0.653724	0.326409
N203	N	0.870768	0.232850	0.661233
N204	N	1.370768	0.732850	1.161233
H205	H	0.902757	0.269940	0.628529
H206	H	1.402757	0.769940	1.128529
H207	H	0.833707	0.200774	0.628592
H208	H	1.333707	0.700774	1.128592
H209	H	1.009031	-0.023782	0.571561
H210	H	1.509031	0.476218	1.071561
N211	N	0.870773	0.232846	0.825010
N212	N	1.370773	0.732846	1.325010
H213	H	0.879416	0.224213	0.880908
H214	H	1.379416	0.724213	1.380908
H215	H	0.880438	0.292251	0.811230
H216	H	1.380438	0.792251	1.311230
N217	N	0.550500	0.250979	0.075504
N218	N	1.050500	0.750979	0.575504
H219	H	0.496158	0.289822	0.077240
H220	H	0.996158	0.789822	0.577240
H221	H	0.584449	0.259077	0.122338
H222	H	1.084449	0.759077	0.622338
H223	H	0.401672	0.225616	-0.076357
H224	H	0.901672	0.725616	0.423643
H225	H	0.969195	0.252913	0.571534
H226	H	1.469195	0.752913	1.071534
N227	N	1.126063	-0.324046	0.075106
N228	N	1.626063	0.175954	0.575106
H229	H	1.164677	-0.378569	0.074407
H230	H	1.664677	0.121431	0.574407
H231	H	1.138570	-0.288653	0.030291
H232	H	1.638570	0.211347	0.530291
H233	H	1.100627	-0.471627	0.074863
H234	H	1.600627	0.028373	0.574863
H235	H	0.414293	0.127725	0.124716
H236	H	0.914293	0.627725	0.624716
H237	H	0.559403	0.132935	-0.124989
H238	H	1.059403	0.632935	0.375011
H239	H	0.402548	0.227153	0.073870
H240	H	0.902548	0.727153	0.573870
N241	N	0.586652	-0.024417	-0.067687
N242	N	1.086652	0.475583	0.432313
H243	H	0.618964	0.013682	-0.099040
H244	H	1.118964	0.513682	0.400960
H245	H	0.625882	-0.074677	-0.050399
H246	H	1.125882	0.425323	0.449601
N247	N	0.428408	-0.026663	0.068494
N248	N	0.928408	0.473337	0.568494
H249	H	0.480465	-0.046833	0.098464
H250	H	0.980465	0.453167	0.598464
H251	H	0.388490	0.011309	0.100895
H252	H	0.888490	0.511309	0.600895
N253	N	0.850718	-0.287437	-0.067819
N254	N	1.350718	0.212563	0.432181
H255	H	0.878453	-0.311973	-0.115205
H256	H	1.378453	0.188027	0.384795
H257	H	0.790512	-0.300714	-0.065896
H258	H	1.290512	0.199286	0.434104
N259	N	0.966277	0.273061	0.418159
N260	N	1.466277	0.773061	0.918159
H261	H	0.959331	0.321369	0.455072
H262	H	1.459331	0.821369	0.955072
H263	H	1.017139	0.277973	0.385457
H264	H	1.517139	0.777973	0.885457
