data_functionalizedCrystal
_audit_creation_method	'MofGen! by Chris Wilmer'
_symmetry_space_group_name_H-M	'P1'
_symmetry_Int_Tables_number	1
_symmetry_cell_setting	triclinic
loop_
_symmetry_equiv_pos_as_xyz
  x,y,z
_cell_length_a	14.519709
_cell_length_b	19.288864
_cell_length_c	17.766277
_cell_angle_alpha	89.987093
_cell_angle_beta	90.008710
_cell_angle_gamma	96.591805
loop_
_atom_site_label
_atom_site_type_symbol
_atom_site_fract_x
_atom_site_fract_y
_atom_site_fract_z
O1	O	0.115049	-0.921756	0.062837
O2	O	0.130568	-0.719552	0.062786
O3	O	-0.011464	-0.826015	0.062806
O4	O	0.257081	-0.815293	0.062817
O5	O	-0.011478	-0.826018	-0.062382
O6	O	0.130554	-0.719554	-0.062402
O7	O	0.115034	-0.921759	-0.062351
Cu8	Cu	0.122793	-0.820657	-0.073808
Cu9	Cu	0.122810	-0.820654	0.074242
O10	O	0.257066	-0.815295	-0.062371
C11	C	0.130061	-0.693675	0.000185
C12	C	0.128562	-0.616566	0.000165
N13	N	0.122815	-0.820652	0.178373
C14	C	-0.045828	-0.825517	0.000212
C15	C	-0.148200	-0.824019	0.000211
C16	C	-0.523061	-0.818507	0.000229
C17	C	-0.418762	-0.820037	0.000224
C18	C	-0.335633	-0.821263	0.000219
C19	C	-0.231329	-0.822794	0.000215
C20	C	0.291430	-0.815794	0.000225
C21	C	0.393802	-0.817291	0.000230
C22	C	0.115541	-0.947636	0.000251
C23	C	0.117040	-1.024745	0.000276
C24	C	0.211900	-0.572169	0.000181
C25	C	0.210492	-0.499717	0.000189
C26	C	0.125741	-0.471665	0.000197
C27	C	0.042392	-0.516071	0.000178
C28	C	0.043803	-0.588521	0.000162
C29	C	0.059122	-0.363162	0.044079
C30	C	0.057715	-0.290712	0.044099
C31	C	0.121387	-0.248203	0.000242
C32	C	0.186481	-0.278151	-0.043625
C33	C	0.187892	-0.350602	-0.043641
C34	C	0.124202	-0.393105	0.000214
C35	C	0.203203	-0.125245	0.000265
C36	C	0.201792	-0.052792	0.000269
C37	C	0.033689	-0.069148	0.000265
C38	C	0.035103	-0.141599	0.000254
C39	C	0.119863	-0.169643	0.000258
N40	N	0.122780	-0.820664	-0.177938
C41	C	0.060045	-0.867879	0.217769
C42	C	0.060044	-0.867885	0.296570
C43	C	0.122803	-0.820652	0.335973
C44	C	0.185584	-0.773422	0.296568
C45	C	0.185590	-0.773422	0.217768
C46	C	0.134945	-0.757408	0.460803
C47	C	0.134932	-0.757407	0.539601
C48	C	0.122789	-0.820652	0.579020
C49	C	0.110639	-0.883901	0.539629
C50	C	0.110645	-0.883901	0.460829
C51	C	0.122803	-0.820647	0.421419
C52	C	0.060015	-0.867889	0.703861
C53	C	0.060020	-0.867896	0.782665
C54	C	0.185555	-0.773427	0.782661
C55	C	0.185555	-0.773427	0.703859
C56	C	0.122780	-0.820657	0.664464
H57	H	0.280918	-0.594998	0.000185
H58	H	0.236685	-0.734965	0.328654
C59	C	0.259485	-0.383543	-0.091902
N60	N	0.313407	-0.408354	-0.128257
C61	C	0.254598	-0.721466	0.660522
N62	N	0.306604	-0.682326	0.627880
H63	H	0.278358	-0.463563	0.000199
C64	C	-0.009022	-0.919824	0.174439
N65	N	-0.061049	-0.958946	0.141802
H66	H	-0.035317	-0.046308	0.000319
C67	C	0.256523	-0.231397	-0.091874
N68	N	0.309277	-0.196178	-0.128214
C69	C	0.254639	-0.721462	0.174431
N70	N	0.306645	-0.682324	0.141788
H71	H	0.272220	-0.148080	0.000257
C72	C	0.097234	-0.953471	0.417502
N73	N	0.087117	-1.005873	0.384869
C74	C	0.293475	-0.003955	0.000275
N75	N	0.362533	0.032829	0.000277
H76	H	-0.032760	-0.177748	0.000246
H77	H	0.236658	-0.734972	0.814742
C78	C	-0.013895	-0.257777	0.092349
N79	N	-0.067836	-0.232973	0.128689
C80	C	-0.009015	-0.919836	0.339915
N81	N	-0.061033	-0.958964	0.372559
C82	C	-0.050834	-0.485212	0.000187
N83	N	-0.121055	-0.461969	0.000193
C84	C	-0.010922	-0.409915	0.092331
N85	N	-0.063677	-0.445129	0.128675
H86	H	0.100758	-0.935401	0.571722
C87	C	-0.047880	-0.637360	0.000150
N88	N	-0.116936	-0.674146	0.000144
H89	H	0.008908	-0.906358	0.814741
H90	H	0.008902	-0.906349	0.671785
H91	H	0.144815	-0.705907	0.571667
H92	H	0.144838	-0.705903	0.428715
