data_functionalizedCrystal
_audit_creation_method	'MofGen! by Chris Wilmer'
_symmetry_space_group_name_H-M	'P1'
_symmetry_Int_Tables_number	1
_symmetry_cell_setting	triclinic
loop_
_symmetry_equiv_pos_as_xyz
  x,y,z
_cell_length_a	12.759400
_cell_length_b	17.077404
_cell_length_c	17.077396
_cell_angle_alpha	90.019501
_cell_angle_beta	89.974414
_cell_angle_gamma	89.985090
loop_
_atom_site_label
_atom_site_type_symbol
_atom_site_fract_x
_atom_site_fract_y
_atom_site_fract_z
Zn1	Zn	-0.418260	-1.200099	-0.443859
Zn2	Zn	0.081740	-0.700099	0.056141
Zn3	Zn	-0.593961	-1.200025	-0.312599
Zn4	Zn	-0.093961	-0.700025	0.187401
Zn5	Zn	-0.418297	-1.068831	-0.312606
Zn6	Zn	0.081703	-0.568831	0.187394
Zn7	Zn	-0.593898	-1.068818	-0.443823
Zn8	Zn	-0.093898	-0.568818	0.056177
O9	O	-0.506104	-1.134443	-0.378222
O10	O	-0.006104	-0.634443	0.121778
O11	O	-0.441578	-1.309936	-0.426459
O12	O	0.058422	-0.809936	0.073541
O13	O	-0.570700	-1.182597	-0.202753
O14	O	-0.070700	-0.682597	0.297247
O15	O	-0.271271	-1.086281	-0.330035
O16	O	0.228729	-0.586281	0.169965
O17	O	-0.570664	-1.309882	-0.330023
O18	O	-0.070664	-0.809882	0.169977
O19	O	-0.271244	-1.182723	-0.426466
O20	O	0.228756	-0.682723	0.073534
O21	O	-0.441641	-1.086209	-0.202759
O22	O	0.058359	-0.586209	0.297241
O23	O	-0.441580	-0.958983	-0.330001
O24	O	0.058420	-0.458983	0.169999
O25	O	-0.570558	-1.086258	-0.553674
O26	O	-0.070558	-0.586258	-0.053674
O27	O	-0.570594	-0.958973	-0.426405
O28	O	-0.070594	-0.458973	0.073595
O29	O	-0.441517	-1.182710	-0.553701
O30	O	0.058483	-0.682710	-0.053701
O31	O	-0.740973	-1.182584	-0.329988
O32	O	-0.240973	-0.682584	0.170012
O33	O	-0.740927	-1.086186	-0.426398
O34	O	-0.240927	-0.586186	0.073602
C35	C	-0.506085	-0.930496	-0.378200
C36	C	-0.006085	-0.430496	0.121800
C37	C	-0.506102	-0.843246	-0.378209
C38	C	-0.006102	-0.343246	0.121791
C39	C	-0.779071	-1.134397	-0.378205
C40	C	-0.279071	-0.634397	0.121795
C41	C	-0.895848	-1.134449	-0.378225
C42	C	-0.395848	-0.634449	0.121775
C43	C	-0.506026	-1.134491	-0.582966
C44	C	-0.006026	-0.634491	-0.082966
C45	C	-0.505993	-1.134511	-0.670216
C46	C	-0.005993	-0.634511	-0.170216
C47	C	-0.950699	-1.184699	-0.328080
C48	C	-0.450699	-0.684699	0.171920
C49	C	-1.060423	-1.184747	-0.328104
C50	C	-0.560423	-0.684747	0.171896
C51	C	-1.060435	-1.084289	-0.428420
C52	C	-0.560435	-0.584289	0.071580
C53	C	-0.950713	-1.084245	-0.428399
C54	C	-0.450713	-0.584245	0.071601
C55	C	-0.895833	-1.234902	-0.277905
C56	C	-0.395833	-0.734902	0.222095
C57	C	-0.950685	-1.285156	-0.227755
C58	C	-0.450685	-0.785156	0.272245
C59	C	-1.060409	-1.285204	-0.227780
C60	C	-0.560409	-0.785204	0.272220
C61	C	-1.115282	-1.234999	-0.277954
C62	C	-0.615282	-0.734999	0.222046
C63	C	-0.232071	-1.134512	-0.378255
C64	C	0.267929	-0.634512	0.121745
C65	C	-0.115294	-1.134541	-0.378270
C66	C	0.384706	-0.634541	0.121730
C67	C	-0.506124	-1.339188	-0.378244
C68	C	-0.006124	-0.839188	0.121756
C69	C	-0.506132	-1.426437	-0.378253
C70	C	-0.006132	-0.926437	0.121747
C71	C	-0.573381	-0.802271	-0.428326
C72	C	-0.073381	-0.302271	0.071674
C73	C	-0.573383	-0.720291	-0.428339
C74	C	-0.073383	-0.220291	0.071661
C75	C	-0.506111	-0.679286	-0.378230
C76	C	-0.006111	-0.179286	0.121770
C77	C	-0.438825	-0.720267	-0.328111
C78	C	0.061175	-0.220267	0.171889
C79	C	-0.438818	-0.802246	-0.328103
C80	C	0.061182	-0.302246	0.171897
C81	C	-0.438846	-0.549397	-0.328130
C82	C	0.061154	-0.049397	0.171870
C83	C	-0.438854	-0.467412	-0.328136
C84	C	0.061146	0.032588	0.171864
C85	C	-0.573410	-0.467442	-0.428366
C86	C	-0.073410	0.032558	0.071634
C87	C	-0.573404	-0.549421	-0.428358
C88	C	-0.073404	-0.049421	0.071642
C89	C	-0.506119	-0.590395	-0.378237
C90	C	-0.006119	-0.090395	0.121763
C91	C	-0.438796	-1.184735	-0.711221
C92	C	0.061204	-0.684735	-0.211221
C93	C	-0.438761	-1.184745	-0.793202
C94	C	0.061239	-0.684745	-0.293202
C95	C	-0.505930	-1.134533	-0.834175
C96	C	-0.005930	-0.634533	-0.334175
C97	C	-0.573130	-1.084304	-0.793165
C98	C	-0.073130	-0.584304	-0.293165
C99	C	-0.573159	-1.084291	-0.711186
C100	C	-0.073159	-0.584291	-0.211186
C101	C	-0.573066	-1.084335	-0.964035
C102	C	-0.073066	-0.584335	-0.464035
C103	C	-0.573039	-1.084349	-1.046019
C104	C	-0.073039	-0.584349	-0.546019
C105	C	-0.438669	-1.184789	-1.046051
C106	C	0.061331	-0.684789	-0.546051
C107	C	-0.438698	-1.184777	-0.964072
C108	C	0.061302	-0.684777	-0.464072
C109	C	-0.505900	-1.134547	-0.923066
C110	C	-0.005900	-0.634547	-0.423066
C111	C	-0.506105	-1.134441	-0.174274
C112	C	-0.006105	-0.634441	0.325726
C113	C	-0.505842	-1.134573	-0.087025
C114	C	-0.005842	-0.634573	0.412975
H115	H	-0.806491	-1.234867	-0.277878
H116	H	-0.306491	-0.734867	0.222122
F117	F	-0.892333	-1.030765	-0.481770
F118	F	-0.392333	-0.530765	0.018230
H119	H	-0.627815	-1.043418	-0.826532
H120	H	-0.127815	-0.543418	-0.326532
H121	H	-0.628165	-0.835651	-0.469129
H122	H	-0.128165	-0.335651	0.030871
H123	H	-0.628193	-0.434076	-0.469178
H124	H	-0.128193	0.065924	0.030822
H125	H	-1.105122	-1.043413	-0.469268
H126	H	-0.605122	-0.543413	0.030732
H127	H	-0.906001	-1.326036	-0.186910
H128	H	-0.406001	-0.826036	0.313090
H129	H	-0.384062	-0.434029	-0.287342
H130	H	0.115938	0.065971	0.212658
F131	F	-0.367222	-0.676625	-0.274786
F132	F	0.132778	-0.176625	0.225214
F133	F	-0.367209	-0.845854	-0.274763
F134	F	0.132791	-0.345854	0.225237
F135	F	-0.644588	-1.030874	-0.920396
F136	F	-0.144588	-0.530874	-0.420396
H137	H	-0.384103	-1.225626	-0.677866
H138	H	0.115897	-0.725626	-0.177866
F139	F	-1.232060	-1.234799	-0.277723
F140	F	-0.732060	-0.734799	0.222277
H141	H	-0.628169	-0.686933	-0.469149
H142	H	-0.128169	-0.186933	0.030851
F143	F	-0.367277	-1.238228	-0.836839
F144	F	0.132723	-0.738228	-0.336839
F145	F	-0.367232	-0.593003	-0.274786
F146	F	0.132768	-0.093003	0.225214
H147	H	-0.628188	-0.582804	-0.469157
H148	H	-0.128188	-0.082804	0.030843
F149	F	-0.367217	-1.238222	-0.920466
F150	F	0.132783	-0.738222	-0.420466
H151	H	-1.105065	-1.326128	-0.186951
H152	H	-0.605065	-0.826128	0.313049
F153	F	-0.644676	-1.030833	-0.667545
F154	F	-0.144676	-0.530833	-0.167545
F155	F	-0.367149	-1.238248	-1.089692
F156	F	0.132851	-0.738248	-0.589692
H157	H	-0.627731	-1.043460	-1.079378
H158	H	-0.127731	-0.543460	-0.579378
