data_functionalizedCrystal
_audit_creation_method	'MofGen! by Chris Wilmer'
_symmetry_space_group_name_H-M	'P1'
_symmetry_Int_Tables_number	1
_symmetry_cell_setting	triclinic
loop_
_symmetry_equiv_pos_as_xyz
  x,y,z
_cell_length_a	12.594517
_cell_length_b	29.839131
_cell_length_c	12.594509
_cell_angle_alpha	89.957380
_cell_angle_beta	89.978673
_cell_angle_gamma	90.035028
loop_
_atom_site_label
_atom_site_type_symbol
_atom_site_fract_x
_atom_site_fract_y
_atom_site_fract_z
Zn1	Zn	1.627125	-0.178842	-0.601754
Zn2	Zn	1.626956	-0.253977	-0.423730
Zn3	Zn	1.449129	-0.178861	-0.423782
Zn4	Zn	1.449052	-0.253946	-0.601660
O5	O	1.538066	-0.216407	-0.512732
O6	O	1.776048	-0.188814	-0.578156
O7	O	1.603329	-0.244034	-0.274791
O8	O	1.472844	-0.115992	-0.447452
O9	O	1.775925	-0.244015	-0.447363
O10	O	1.603617	-0.115978	-0.578206
O11	O	1.472680	-0.188847	-0.274830
O12	O	1.300173	-0.188816	-0.447361
O13	O	1.472712	-0.243962	-0.750619
O14	O	1.300116	-0.243981	-0.578047
O15	O	1.603542	-0.188784	-0.750687
O16	O	1.603254	-0.316840	-0.447272
O17	O	1.472548	-0.316817	-0.577997
C18	C	1.261525	-0.216398	-0.512700
C19	C	1.143219	-0.216404	-0.512712
C20	C	1.073966	-0.186360	-0.441768
C21	C	1.003123	-0.227339	-0.415563
C22	C	1.003264	-0.175445	-0.538935
C23	C	1.073934	-0.257405	-0.486457
C24	C	1.074081	-0.205484	-0.609874
C25	C	1.003270	-0.246491	-0.583706
C26	C	1.537903	-0.333129	-0.512642
C27	C	1.537931	-0.383064	-0.512639
C28	C	1.606144	-0.692665	-0.580913
C29	C	1.606260	-0.880338	-0.580977
O30	O	1.664098	-0.904567	-0.638959
N31	N	1.538246	-0.903849	-0.512850
C32	C	1.470194	-0.880438	-0.444707
O33	O	1.412340	-0.904742	-0.386770
C34	C	1.470074	-0.692766	-0.444649
C35	C	1.538100	-0.669258	-0.512773
C36	C	1.674163	-0.669156	-0.649032
C37	C	1.674138	-0.622241	-0.649011
C38	C	1.606093	-0.598834	-0.580871
C39	C	1.538074	-0.622342	-0.512752
C40	C	1.402017	-0.669357	-0.376513
C41	C	1.401992	-0.622436	-0.376506
C42	C	1.470017	-0.598927	-0.444630
C43	C	1.470004	-0.552020	-0.444592
N44	N	1.538017	-0.528509	-0.512719
C45	C	1.606062	-0.551916	-0.580858
C46	C	1.470264	-0.978969	-0.444741
C47	C	1.470295	-1.025887	-0.444754
C48	C	1.606359	-1.025783	-0.581025
C49	C	1.606333	-0.978864	-0.581006
C50	C	1.538277	-0.955458	-0.512868
C51	C	1.606004	-0.453390	-0.580809
C52	C	1.605976	-0.406471	-0.580779
C53	C	1.469908	-0.406578	-0.444512
C54	C	1.469940	-0.453494	-0.444538
C55	C	1.537991	-0.476899	-0.512695
O56	O	1.412188	-0.527762	-0.386649
O57	O	1.663891	-0.527604	-0.638803
C58	C	1.606170	-0.739580	-0.580933
C59	C	1.538151	-0.763089	-0.512814
C60	C	1.470106	-0.739682	-0.444675
C61	C	1.538182	-0.810006	-0.512827
C62	C	1.606226	-0.833413	-0.580967
C63	C	1.674240	-0.809903	-0.649094
C64	C	1.674214	-0.762987	-0.649073
C65	C	1.402093	-0.763192	-0.376548
C66	C	1.402124	-0.810108	-0.376573
C67	C	1.470169	-0.833515	-0.444713
C68	C	1.815686	-0.216416	-0.512764
C69	C	1.933992	-0.216420	-0.512777
C70	C	1.538137	-0.216367	-0.790353
C71	C	1.538167	-0.216350	-0.908658
C72	C	1.538257	-0.099228	-0.512845
C73	C	1.538339	-0.049294	-0.512893
C74	C	1.467031	-0.246345	-0.977874
C75	C	1.564143	-0.257322	-1.048658
C76	C	1.441131	-0.205346	-1.048674
C77	C	1.635330	-0.227349	-0.977884
C78	C	1.512252	-0.175355	-0.977893
C79	C	1.609431	-0.186316	-1.048645
C80	C	1.538056	-0.216413	-0.236191
C81	C	1.538232	-0.216304	-0.117886
H82	H	1.104848	-0.292061	-0.464214
H83	H	1.414510	-0.387513	-0.389030
C84	C	1.749037	-0.737131	-0.724017
C85	C	1.702855	-0.704863	-0.807534
C86	C	1.777679	-0.679011	-0.882484
C87	C	1.898687	-0.685426	-0.873917
C88	C	1.944875	-0.717695	-0.790398
C89	C	1.870050	-0.743548	-0.715448
H90	H	1.613272	-0.700113	-0.813878
H91	H	1.743487	-0.655123	-0.944311
H92	H	1.954077	-0.666288	-0.929400
H93	H	2.034458	-0.722445	-0.784053
H94	H	1.904243	-0.767435	-0.653621
C95	C	1.593799	-0.304128	-1.090663
C96	C	1.617037	-0.342498	-1.012224
C97	C	1.646682	-0.389306	-1.054225
C98	C	1.653091	-0.397744	-1.174666
C99	C	1.629852	-0.359373	-1.253114
C100	C	1.600207	-0.312565	-1.211112
H101	H	1.612294	-0.336253	-0.923059
H102	H	1.663885	-0.417710	-0.996153
H103	H	1.675036	-0.432394	-1.205759
H104	H	1.634596	-0.365619	-1.342278
H105	H	1.583005	-0.284161	-1.269184
H106	H	1.346731	-0.829245	-0.321089
C107	C	1.115915	-0.152070	-0.360625
C108	C	1.087861	-0.157093	-0.242192
C109	C	1.129812	-0.122805	-0.161048
C110	C	1.199817	-0.083495	-0.198337
C111	C	1.227874	-0.078471	-0.316776
C112	C	1.185924	-0.112758	-0.397920
H113	H	1.036036	-0.186194	-0.214584
H114	H	1.109041	-0.126525	-0.073372
H115	H	1.230871	-0.058114	-0.138270
H116	H	1.279700	-0.049370	-0.344384
H117	H	1.206694	-0.109039	-0.485596
H118	H	0.971956	-0.236586	-0.333424
C119	C	0.961591	-0.280861	-0.664797
C120	C	0.989744	-0.330812	-0.652568
C121	C	0.948065	-0.365182	-0.733655
C122	C	0.878235	-0.349601	-0.826972
C123	C	0.850079	-0.299647	-0.839205
C124	C	0.891757	-0.265277	-0.758118
H125	H	1.041440	-0.342348	-0.583485
H126	H	0.968909	-0.402161	-0.724598
H127	H	0.847382	-0.375044	-0.886997
H128	H	0.798383	-0.288111	-0.908288
H129	H	0.870914	-0.228298	-0.767175
C130	C	1.116229	-0.192978	-0.720805
C131	C	1.088434	-0.147179	-0.769868
C132	C	1.130585	-0.134667	-0.880799
C133	C	1.200531	-0.167953	-0.942667
C134	C	1.228329	-0.213754	-0.893605
C135	C	1.186179	-0.226266	-0.782674
H136	H	1.036653	-0.122537	-0.724069
H137	H	1.110006	-0.100762	-0.917117
H138	H	1.231733	-0.158690	-1.024785
H139	H	1.280111	-0.238397	-0.939404
H140	H	1.206758	-0.260171	-0.746355
H141	H	1.359042	-0.196059	-1.079769
C142	C	1.690826	-0.152026	-1.090386
C143	C	1.809177	-0.157101	-1.062194
C144	C	1.890576	-0.122817	-1.103946
C145	C	1.853623	-0.083457	-1.173889
C146	C	1.735267	-0.078380	-1.202085
C147	C	1.653868	-0.112665	-1.160333
H148	H	1.836536	-0.186240	-1.010415
H149	H	1.978191	-0.126575	-1.083073
H150	H	1.913880	-0.058077	-1.204796
H151	H	1.707908	-0.049242	-1.253864
H152	H	1.566253	-0.108906	-1.181206
C153	C	1.749088	-0.835656	-0.724051
C154	C	1.832687	-0.867902	-0.678019
C155	C	1.907525	-0.893659	-0.752977
C156	C	1.898763	-0.887169	-0.873967
C157	C	1.815161	-0.854921	-0.920005
C158	C	1.740323	-0.829165	-0.845048
H159	H	1.839175	-0.872708	-0.588449
H160	H	1.969413	-0.917531	-0.718895
H161	H	1.954163	-0.906235	-0.929455
H162	H	1.808672	-0.850115	-1.009575
H163	H	1.678435	-0.805293	-0.879129
C164	C	1.327243	-0.737450	-0.301581
C165	C	1.336015	-0.743953	-0.180596
C166	C	1.261165	-0.718214	-0.105617
C167	C	1.177543	-0.685972	-0.151624
C168	C	1.168767	-0.679468	-0.272616
C169	C	1.243617	-0.705207	-0.347594
H170	H	1.397920	-0.767822	-0.146533
H171	H	1.267662	-0.723030	-0.016051
H172	H	1.122134	-0.666919	-0.096120
H173	H	1.106861	-0.655599	-0.306678
H174	H	1.237120	-0.700392	-0.437160
C175	C	0.961324	-0.128643	-0.568870
C176	C	0.989244	-0.087837	-0.499477
C177	C	0.947309	-0.041035	-0.529401
C178	C	0.877453	-0.035039	-0.628719
C179	C	0.849529	-0.075846	-0.698119
C180	C	0.891465	-0.122649	-0.668194
H181	H	1.040959	-0.092274	-0.425950
H182	H	0.967980	-0.010826	-0.478027
H183	H	0.846410	-0.000393	-0.650871
H184	H	0.797814	-0.071409	-0.771646
H185	H	0.870793	-0.152857	-0.719569
C186	C	1.327130	-0.596689	-0.301548
C187	C	1.335883	-0.603185	-0.180559
C188	C	1.261026	-0.577439	-0.105601
C189	C	1.177415	-0.545198	-0.151631
C190	C	1.168659	-0.538701	-0.272626
C191	C	1.243516	-0.564446	-0.347585
H192	H	1.397780	-0.627053	-0.146479
H193	H	1.267509	-0.582249	-0.016032
H194	H	1.122001	-0.526139	-0.096142
H195	H	1.106762	-0.514832	-0.306706
H196	H	1.237034	-0.559636	-0.437154
H197	H	1.490270	-0.140715	-0.946785
H198	H	1.414556	-0.472636	-0.389057
C199	C	1.680866	-0.479131	-0.655775
C200	C	1.801864	-0.472634	-0.647186
C201	C	1.876730	-0.498375	-0.722145
C202	C	1.830599	-0.530613	-0.805693
C203	C	1.709594	-0.537111	-0.814285
C204	C	1.634728	-0.511370	-0.739326
H205	H	1.836019	-0.448769	-0.585336
H206	H	1.966306	-0.493565	-0.715784
H207	H	1.886019	-0.549668	-0.861182
H208	H	1.675439	-0.560976	-0.876135
H209	H	1.545152	-0.516181	-0.745687
H210	H	1.717443	-0.236676	-0.946919
C211	C	1.395403	-0.953227	-0.369773
C212	C	1.404175	-0.959727	-0.248786
C213	C	1.329319	-0.933988	-0.173812
C214	C	1.245691	-0.901750	-0.219825
C215	C	1.236916	-0.895249	-0.340817
C216	C	1.311772	-0.920988	-0.415791
H217	H	1.466085	-0.983593	-0.214719
H218	H	1.335815	-0.938801	-0.084245
H219	H	1.190278	-0.882697	-0.164325
H220	H	1.175006	-0.871384	-0.374884
H221	H	1.305275	-0.916175	-0.505358
C222	C	1.385827	-0.280662	-0.935883
C223	C	1.397793	-0.330638	-0.963827
C224	C	1.316596	-0.364955	-0.921834
C225	C	1.223433	-0.349297	-0.851897
C226	C	1.211464	-0.299318	-0.823950
C227	C	1.292661	-0.265001	-0.865943
H228	H	1.466761	-0.342231	-1.015601
H229	H	1.325457	-0.401953	-0.942523
H230	H	1.163326	-0.374701	-0.820811
H231	H	1.142496	-0.287725	-0.772175
H232	H	1.283800	-0.228003	-0.845254
H233	H	1.729527	-0.603103	-0.704486
H234	H	1.661374	-0.387331	-0.636253
H235	H	1.729573	-0.688209	-0.704525
H236	H	1.661765	-1.044849	-0.636506
H237	H	1.661724	-0.959726	-0.636478
H238	H	1.346624	-0.688489	-0.321039
H239	H	1.414913	-1.045023	-0.389269
