data_functionalizedCrystal
_audit_creation_method	'MofGen! by Chris Wilmer'
_symmetry_space_group_name_H-M	'P1'
_symmetry_Int_Tables_number	1
_symmetry_cell_setting	triclinic
loop_
_symmetry_equiv_pos_as_xyz
  x,y,z
_cell_length_a	13.635800
_cell_length_b	27.923497
_cell_length_c	27.923559
_cell_angle_alpha	82.409873
_cell_angle_beta	98.965071
_cell_angle_gamma	81.035752
loop_
_atom_site_label
_atom_site_type_symbol
_atom_site_fract_x
_atom_site_fract_y
_atom_site_fract_z
V1	V	1.977164	-0.067819	0.151591
O2	O	1.983034	0.002549	0.148377
O3	O	1.942183	-0.133791	0.150871
O4	O	1.942181	-0.067087	0.217561
O5	O	1.983036	-0.064616	0.081225
V6	V	2.221772	-0.059365	0.143136
O7	O	2.101549	-0.086363	0.170137
O8	O	2.322486	-0.040822	0.124590
O9	O	2.145150	0.006606	0.143857
O10	O	2.274601	-0.129733	0.146351
O11	O	2.274598	-0.062568	0.213503
O12	O	2.145152	-0.060097	0.077166
V13	V	2.477164	-0.067819	0.151591
O14	O	2.483034	0.002549	0.148377
O15	O	2.442183	-0.133791	0.150871
O16	O	2.442181	-0.067087	0.217561
O17	O	2.483036	-0.064616	0.081225
V18	V	2.721772	-0.059365	0.143136
O19	O	2.601549	-0.086363	0.170137
O20	O	2.822486	-0.040822	0.124590
O21	O	2.645150	0.006606	0.143857
O22	O	2.774601	-0.129733	0.146351
O23	O	2.774598	-0.062568	0.213503
O24	O	2.645152	-0.060097	0.077166
C25	C	1.862410	-0.149864	0.148561
C26	C	1.874380	-0.203798	0.148411
C27	C	1.937098	-0.531114	0.102970
C28	C	1.982125	-0.733818	0.102382
O29	O	1.978124	-0.753966	0.064493
N30	N	1.999352	-0.766295	0.146773
C31	C	2.005329	-0.748093	0.191313
O32	O	2.021025	-0.780367	0.229057
C33	C	1.960309	-0.545389	0.191901
C34	C	1.943072	-0.512914	0.147507
C35	C	1.919862	-0.498640	0.058579
C36	C	1.908601	-0.447966	0.058727
C37	C	1.914575	-0.429767	0.103264
C38	C	1.931810	-0.462241	0.147654
C39	C	1.966293	-0.527188	0.236441
C40	C	1.955039	-0.476508	0.236584
C41	C	1.937802	-0.444034	0.192190
C42	C	1.926523	-0.393369	0.192339
N43	N	1.909296	-0.360892	0.147948
C44	C	1.903322	-0.379092	0.103411
C45	C	2.028963	-0.854514	0.191002
C46	C	2.040216	-0.905190	0.190855
C47	C	2.017013	-0.890912	0.101924
C48	C	2.005752	-0.840236	0.102071
C49	C	2.011736	-0.822038	0.146611
C50	C	1.879672	-0.272675	0.103723
C51	C	1.868406	-0.221997	0.103874
C52	C	1.891615	-0.236280	0.192806
C53	C	1.902875	-0.286952	0.192655
C54	C	1.896905	-0.305148	0.148110
O55	O	1.930523	-0.373187	0.230208
O56	O	1.887647	-0.346810	0.065673
C57	C	1.948359	-0.581787	0.102822
C58	C	1.965595	-0.614261	0.147212
C59	C	1.971569	-0.596062	0.191750
C60	C	1.976848	-0.664936	0.147066
C61	C	1.970874	-0.683136	0.102528
C62	C	1.953647	-0.650659	0.058138
C63	C	1.942385	-0.599986	0.058285
C64	C	1.988796	-0.628538	0.236140
C65	C	2.000055	-0.679211	0.235989
C66	C	1.994081	-0.697410	0.191452
C67	C	1.862407	-0.064776	0.233630
C68	C	1.874374	-0.064614	0.287563
C69	C	2.056594	0.022677	0.146165
C70	C	2.034242	0.076611	0.146318
C71	C	2.056597	-0.062410	0.061095
C72	C	2.034249	-0.062569	0.007161
C73	C	2.362410	-0.149864	0.148561
C74	C	2.374380	-0.203798	0.148411
C75	C	1.960304	-0.108134	0.629156
C76	C	2.005334	-0.107555	0.831862
O77	O	2.021066	-0.145295	0.864147
N78	N	1.999358	-0.063018	0.850066
C79	C	1.982130	-0.018624	0.817590
O80	O	1.978091	0.019271	0.837726
C81	C	1.937108	-0.019203	0.614886
C82	C	1.943075	-0.063742	0.596684
C83	C	1.966271	-0.152669	0.610954
C84	C	1.955009	-0.152813	0.560280
C85	C	1.937780	-0.108422	0.527809
C86	C	1.931812	-0.063886	0.546011
C87	C	1.919887	0.025191	0.582411
C88	C	1.908634	0.025042	0.531732
C89	C	1.914601	-0.019497	0.513531
C90	C	1.903321	-0.019639	0.462865
N91	N	1.909296	-0.064175	0.444661
C92	C	1.926526	-0.108567	0.477133
C93	C	2.005766	-0.018322	0.924014
C94	C	2.017020	-0.018177	0.974690
C95	C	2.040225	-0.107109	0.988958
C96	C	2.028964	-0.107254	0.938281
C97	C	2.011742	-0.062859	0.905810
C98	C	1.902872	-0.108866	0.370714
C99	C	1.891604	-0.109006	0.320035
C100	C	1.868405	-0.020075	0.305771
C101	C	1.879667	-0.019934	0.356446
C102	C	1.896905	-0.064334	0.388916
O103	O	1.887598	0.018081	0.430552
O104	O	1.930584	-0.146456	0.456988
C105	C	1.971566	-0.107990	0.679830
C106	C	1.965599	-0.063454	0.698032
C107	C	1.948370	-0.019062	0.665560
C108	C	1.976853	-0.063309	0.748707
C109	C	1.994082	-0.107701	0.781179
C110	C	2.000058	-0.152237	0.762975
C111	C	1.988796	-0.152381	0.712301
C112	C	1.942394	0.025474	0.683764
C113	C	1.953656	0.025615	0.734438
C114	C	1.970886	-0.018777	0.766910
C115	C	2.362407	-0.064776	0.233630
C116	C	2.374374	-0.064614	0.287563
C117	C	2.556594	0.022677	0.146165
C118	C	2.534242	0.076611	0.146318
C119	C	2.556597	-0.062410	0.061095
C120	C	2.534249	-0.062569	0.007161
C121	C	2.470256	-0.231612	0.150777
C122	C	2.481520	-0.282291	0.150644
C123	C	2.396905	-0.305155	0.148142
C124	C	2.301021	-0.277338	0.145778
C125	C	2.289760	-0.226660	0.145914
C126	C	2.470248	-0.066969	0.315375
C127	C	2.481505	-0.066811	0.366050
C128	C	2.396889	-0.064301	0.388912
C129	C	2.301007	-0.061945	0.361097
C130	C	2.289750	-0.062100	0.310422
C131	C	2.610859	0.104424	0.143953
C132	C	2.589867	0.155102	0.144089
C133	C	2.492259	0.177966	0.146592
C134	C	2.415635	0.150150	0.148955
C135	C	2.436626	0.099473	0.148816
C136	C	2.436634	-0.065073	-0.015689
C137	C	2.415619	-0.065217	-0.066365
C138	C	2.492222	-0.062860	-0.094190
C139	C	2.589845	-0.060355	-0.071337
C140	C	2.610857	-0.060207	-0.020662
H141	H	1.854367	-0.195558	0.067722
F142	F	2.187710	-0.197064	0.143392
F143	F	2.583573	-0.311886	0.153159
F144	F	2.583558	-0.069321	0.395645
F145	F	1.897964	-0.216901	0.240203
F146	F	2.469933	0.231903	0.146739
H147	H	2.406089	-0.346420	0.148032
H148	H	1.991743	0.017831	0.897579
F149	F	2.408886	-0.064138	0.442846
H150	H	2.054235	-0.931627	0.227005
H151	H	2.539159	-0.069013	0.296767
H152	H	2.475102	-0.062986	-0.135452
F153	F	2.311755	0.174491	0.151616
F154	F	2.210961	-0.059280	0.385437
F155	F	2.187705	-0.059599	0.280828
H156	H	1.915018	0.061460	0.597221
H157	H	2.232133	-0.295962	0.143741
H158	H	2.690347	-0.058172	-0.002061
H159	H	1.894613	0.061195	0.505296
H160	H	2.033823	-0.143521	0.923465
F161	F	2.311718	-0.067886	-0.090678
F162	F	1.873304	0.027469	0.375817
H163	H	2.374232	0.076830	0.150746
H164	H	2.652270	0.177744	0.142165
F165	F	1.961375	-0.200219	0.540916
H166	H	1.928350	-0.573549	0.022135
H167	H	2.374247	-0.066991	0.006960
F168	F	2.671364	-0.057851	-0.100957
F169	F	1.924030	0.072725	0.649210
F170	F	2.010656	-0.910290	0.054523
H171	H	1.874809	-0.287483	0.067450
F172	F	2.714750	0.080100	0.141289
F173	F	1.984610	-0.199921	0.645506
H174	H	1.914999	-0.513451	0.022310
H175	H	1.894572	-0.421529	0.022577
F176	F	2.058548	-0.154354	1.023525
F177	F	2.010648	0.029228	0.994055
H178	H	2.014083	-0.705648	0.272143
H179	H	1.991716	-0.813797	0.065921
H180	H	1.854372	0.016068	0.279324
F181	F	2.035329	-0.835154	0.238411
H182	H	1.959924	-0.461696	0.272856
F183	F	1.984588	-0.561738	0.283691
F184	F	2.560325	-0.207288	0.153443
H185	H	1.948778	-0.665485	0.021874
F186	F	1.921256	-0.321516	0.239904
H187	H	1.993656	-0.188650	0.697487
H188	H	1.993662	-0.613726	0.272409
H189	H	1.916907	-0.145020	0.397146
F190	F	1.897955	-0.156413	0.300667
H191	H	2.014083	-0.188382	0.789422
H192	H	1.948788	0.061887	0.749252
