data_functionalizedCrystal
_audit_creation_method	'MofGen! by Chris Wilmer'
_symmetry_space_group_name_H-M	'P1'
_symmetry_Int_Tables_number	1
_symmetry_cell_setting	triclinic
loop_
_symmetry_equiv_pos_as_xyz
  x,y,z
_cell_length_a	21.395362
_cell_length_b	19.077068
_cell_length_c	21.395355
_cell_angle_alpha	87.720949
_cell_angle_beta	90.043940
_cell_angle_gamma	92.343691
loop_
_atom_site_label
_atom_site_type_symbol
_atom_site_fract_x
_atom_site_fract_y
_atom_site_fract_z
Zn1	Zn	0.947861	-0.279990	0.364586
Zn2	Zn	1.447861	0.220010	0.864586
Zn3	Zn	0.943561	-0.397672	0.264012
Zn4	Zn	1.443561	0.102328	0.764012
Zn5	Zn	0.843074	-0.280023	0.259789
Zn6	Zn	1.343074	0.219977	0.759789
Zn7	Zn	0.838842	-0.397686	0.368717
Zn8	Zn	1.338842	0.102314	0.868717
O9	O	0.893334	-0.338843	0.314276
O10	O	1.393334	0.161157	0.814276
O11	O	1.034969	-0.295581	0.351283
O12	O	1.534969	0.204419	0.851283
O13	O	0.930203	-0.382073	0.175774
O14	O	1.430203	0.117927	0.675774
O15	O	0.860546	-0.181525	0.270194
O16	O	1.360546	0.318475	0.770194
O17	O	1.031810	-0.382041	0.277392
O18	O	1.531810	0.117959	0.777392
O19	O	0.937532	-0.181501	0.347188
O20	O	1.437532	0.318499	0.847188
O21	O	0.856376	-0.295637	0.172671
O22	O	1.356376	0.204363	0.672671
O23	O	0.754834	-0.295651	0.274200
O24	O	1.254834	0.204349	0.774200
O25	O	0.853331	-0.382066	0.455847
O26	O	1.353331	0.117934	0.955847
O27	O	0.751725	-0.382098	0.354229
O28	O	1.251725	0.117902	0.854229
O29	O	0.933427	-0.295595	0.452812
O30	O	1.433427	0.204405	0.952812
O31	O	0.926098	-0.496167	0.281398
O32	O	1.426098	0.003833	0.781398
O33	O	0.849162	-0.496177	0.358324
O34	O	1.349162	0.003823	0.858324
C35	C	0.730545	-0.338880	0.314205
C36	C	1.230545	0.161120	0.814205
C37	C	0.660903	-0.338913	0.314190
C38	C	1.160903	0.161087	0.814190
C39	C	0.626585	-0.383985	0.355803
C40	C	1.126585	0.116015	0.855803
C41	C	0.561150	-0.383968	0.355830
C42	C	1.061150	0.116032	0.855830
C43	C	0.530036	-0.338886	0.314233
C44	C	1.030036	0.161114	0.814233
C45	C	0.564362	-0.293804	0.272617
C46	C	1.064362	0.206196	0.772617
C47	C	0.629796	-0.293818	0.272595
C48	C	1.129796	0.206182	0.772595
C49	C	0.426513	-0.333216	0.257626
C50	C	0.926513	0.166784	0.757626
C51	C	0.361081	-0.333207	0.257647
C52	C	0.861081	0.166793	0.757647
C53	C	0.328216	-0.338840	0.314301
C54	C	0.828216	0.161160	0.814301
C55	C	0.360792	-0.344496	0.370937
C56	C	0.860792	0.155504	0.870937
C57	C	0.426226	-0.344510	0.370915
C58	C	0.926226	0.155490	0.870915
C59	C	0.459084	-0.338866	0.314253
C60	C	0.959084	0.161134	0.814253
C61	C	0.222946	-0.383896	0.355947
C62	C	0.722946	0.116104	0.855947
C63	C	0.157511	-0.383874	0.355976
C64	C	0.657511	0.116126	0.855976
C65	C	0.160724	-0.293714	0.272756
C66	C	0.660724	0.206286	0.772756
C67	C	0.226158	-0.293732	0.272734
C68	C	0.726158	0.206268	0.772734
C69	C	0.257266	-0.338827	0.314328
C70	C	0.757266	0.161173	0.814328
C71	C	0.886721	-0.521710	0.320781
C72	C	1.386721	-0.021710	0.820781
C73	C	0.883949	-0.599942	0.323585
C74	C	1.383949	-0.099942	0.823585
C75	C	0.922735	-0.636666	0.284884
C76	C	1.422735	-0.136666	0.784884
C77	C	0.920132	-0.710173	0.287525
C78	C	1.420132	-0.210173	0.787525
C79	C	0.878739	-0.746954	0.328864
C80	C	1.378739	-0.246954	0.828864
C81	C	0.839952	-0.710224	0.367570
C82	C	1.339952	-0.210224	0.867570
C83	C	0.842559	-0.636719	0.364931
C84	C	1.342559	-0.136719	0.864931
C85	C	0.866647	-0.966795	0.341049
C86	C	1.366647	-0.466795	0.841049
C87	C	0.864041	-1.040305	0.343683
C88	C	1.364041	-0.540305	0.843683
C89	C	0.944222	-1.040249	0.263639
C90	C	1.444222	-0.540249	0.763639
C91	C	0.946823	-0.966742	0.261002
C92	C	1.446823	-0.466742	0.761002
C93	C	0.908038	-0.930019	0.299709
C94	C	1.408038	-0.430019	0.799709
N95	N	0.876076	-0.822090	0.331564
N96	N	1.376076	-0.322090	0.831564
N97	N	0.910705	-0.854884	0.297013
N98	N	1.410705	-0.354884	0.797013
C99	C	1.056759	-0.338806	0.314348
C100	C	1.556759	0.161194	0.814348
C101	C	1.126401	-0.338790	0.314379
C102	C	1.626401	0.161210	0.814379
C103	C	0.893387	-0.338828	0.477699
C104	C	1.393387	0.161172	0.977699
C105	C	0.893409	-0.338822	0.547340
C106	C	1.393409	0.161178	1.047340
C107	C	0.899990	-0.155261	0.307759
C108	C	1.399990	0.344739	0.807759
C109	C	0.902827	-0.077030	0.304982
C110	C	1.402827	0.422970	0.804982
C111	C	0.893320	-0.338806	0.151487
C112	C	1.393320	0.161194	0.651487
C113	C	0.893426	-0.338614	0.081839
C114	C	1.393426	0.161386	0.581839
C115	C	0.935113	-0.293795	0.578474
C116	C	1.435113	0.206205	1.078474
C117	C	0.935114	-0.293765	0.643908
C118	C	1.435114	0.206235	1.143908
C119	C	0.893416	-0.338774	0.678207
C120	C	1.393416	0.161226	1.178207
C121	C	0.851704	-0.383805	0.647065
C122	C	1.351704	0.116195	1.147065
C123	C	0.851700	-0.383829	0.581632
C124	C	1.351700	0.116171	1.081632
C125	C	0.886177	-0.402150	0.784134
C126	C	1.386177	0.097850	1.284134
C127	C	0.886184	-0.402127	0.849566
C128	C	1.386184	0.097873	1.349566
C129	C	0.893422	-0.338700	0.880025
C130	C	1.393422	0.161300	1.380025
C131	C	0.900666	-0.275294	0.845043
C132	C	1.400666	0.224706	1.345043
C133	C	0.900663	-0.275318	0.779610
C134	C	1.400663	0.224682	1.279610
C135	C	0.893414	-0.338753	0.749158
C136	C	1.393414	0.161247	1.249158
C137	C	0.935129	-0.293636	0.982110
C138	C	1.435129	0.206364	1.482110
C139	C	0.935125	-0.293605	1.047545
C140	C	1.435125	0.206395	1.547545
C141	C	0.851718	-0.383651	1.050701
C142	C	1.351718	0.116349	1.550701
C143	C	0.851719	-0.383676	0.985267
C144	C	1.351719	0.116324	1.485267
C145	C	0.893428	-0.338670	0.950975
C146	C	1.393428	0.161330	1.450975
H147	H	0.248275	-0.420611	0.389819
H148	H	0.748275	0.079389	0.889819
O149	O	0.806739	-0.432192	1.087689
O150	O	1.306739	0.067808	1.587689
H151	H	0.777736	-0.463505	1.055043
H152	H	1.277736	0.036495	1.555043
O153	O	0.986056	-1.079869	0.221905
O154	O	1.486056	-0.579869	0.721905
H155	H	0.975836	-1.065814	0.172210
H156	H	1.475836	-0.565814	0.672210
H157	H	0.817737	-0.420495	0.556283
H158	H	1.317737	0.079505	1.056283
H159	H	0.880290	-0.453757	0.878044
H160	H	1.380290	0.046243	1.378044
H161	H	0.254101	-0.257033	0.238845
H162	H	0.754101	0.242967	0.738845
O163	O	0.666816	-0.245216	0.227699
O164	O	1.166816	0.254784	0.727699
H165	H	0.634190	-0.213868	0.198772
H166	H	1.134190	0.286132	0.698772
O167	O	0.819399	-1.079981	0.388277
O168	O	1.319399	-0.579981	0.888277
H169	H	0.792872	-1.042097	0.414755
H170	H	1.292872	-0.542097	0.914755
O171	O	0.980095	-0.245184	0.677486
O172	O	1.480095	0.254816	1.177486
H173	H	0.953348	-0.209364	0.705988
H174	H	1.453348	0.290636	1.205988
H175	H	0.956438	-0.606724	0.251219
H176	H	1.456438	-0.106724	0.751219
H177	H	0.129570	-0.420576	0.389866
H178	H	0.629570	0.079424	0.889866
O179	O	0.961960	-0.749786	0.245780
O180	O	1.461960	-0.249786	0.745780
H181	H	0.991174	-0.711860	0.216585
H182	H	1.491174	-0.211860	0.716585
O183	O	0.530813	-0.245177	0.227747
O184	O	1.030813	0.254823	0.727747
H185	H	0.542889	-0.257168	0.178980
H186	H	1.042889	0.242832	0.678980
H187	H	0.880115	-0.453787	0.759340
H188	H	1.380115	0.046213	1.259340
H189	H	0.651908	-0.420704	0.389674
H190	H	1.151908	0.079296	0.889674
H191	H	0.980528	-0.936796	0.227340
H192	H	1.480528	-0.436796	0.727340
H193	H	0.533203	-0.420671	0.389719
H194	H	1.033203	0.079329	0.889719
H195	H	0.817763	-0.420347	0.959918
H196	H	1.317763	0.079653	1.459918
O197	O	0.806726	-0.432351	0.684053
O198	O	1.306726	0.067649	1.184053
H199	H	0.813738	-0.424774	0.734784
H200	H	1.313738	0.075226	1.234784
H201	H	0.835065	-0.936900	0.372565
H202	H	1.335065	-0.436900	0.872565
H203	H	0.806252	-0.740177	0.401232
H204	H	1.306252	-0.240177	0.901232
O205	O	0.800719	-0.597103	0.406665
O206	O	1.300719	-0.097103	0.906665
H207	H	0.771492	-0.635027	0.435848
H208	H	1.271492	-0.135027	0.935848
H209	H	0.334036	-0.349081	0.417070
H210	H	0.834036	0.150919	0.917070
O211	O	0.461365	-0.350595	0.431994
O212	O	0.961365	0.149405	0.931994
H213	H	0.427525	-0.354503	0.471397
H214	H	0.927525	0.145497	0.971397
O215	O	0.325946	-0.327103	0.196566
O216	O	0.825946	0.172897	0.696566
H217	H	0.359790	-0.323173	0.157167
H218	H	0.859790	0.176827	0.657167
O219	O	0.980095	-0.245252	0.541486
O220	O	1.480095	0.254748	1.041486
H221	H	1.009092	-0.213933	0.574133
H222	H	1.509092	0.286067	1.074133
O223	O	0.908472	-0.206936	0.741877
O224	O	1.408472	0.293064	1.241877
H225	H	0.913503	-0.162824	0.774044
H226	H	1.413503	0.337176	1.274044
H227	H	0.135391	-0.257003	0.238890
H228	H	0.635391	0.242997	0.738890
O229	O	0.908464	-0.206870	0.877877
O230	O	1.408464	0.293130	1.377877
H231	H	0.866745	-0.199684	0.907389
H232	H	1.366745	0.300316	1.407389
O233	O	0.461959	-0.327142	0.196516
O234	O	0.961959	0.172858	0.696516
H235	H	0.428315	-0.323218	0.157139
H236	H	0.928315	0.176782	0.657139
O237	O	0.980105	-0.245089	0.945116
O238	O	1.480105	0.254911	1.445116
H239	H	1.009098	-0.213763	0.977761
H240	H	1.509098	0.286237	1.477761
H241	H	0.969085	-0.256934	1.072893
H242	H	1.469085	0.243066	1.572893
