data_functionalizedCrystal
_audit_creation_method	'MofGen! by Chris Wilmer'
_symmetry_space_group_name_H-M	'P1'
_symmetry_Int_Tables_number	1
_symmetry_cell_setting	triclinic
loop_
_symmetry_equiv_pos_as_xyz
  x,y,z
_cell_length_a	16.992694
_cell_length_b	15.995350
_cell_length_c	16.053802
_cell_angle_alpha	92.567808
_cell_angle_beta	87.249047
_cell_angle_gamma	87.080299
loop_
_atom_site_label
_atom_site_type_symbol
_atom_site_fract_x
_atom_site_fract_y
_atom_site_fract_z
O1	O	1.043694	0.174244	-0.069318
O2	O	0.815410	0.172295	-0.069342
O3	O	0.935792	0.051799	-0.069329
O4	O	0.923312	0.294739	-0.069332
O5	O	0.929166	0.058403	0.069530
O6	O	0.808784	0.178898	0.069516
O7	O	1.037068	0.180847	0.069540
Zn8	Zn	0.921874	0.180921	0.091575
Zn9	Zn	0.930604	0.172221	-0.091377
O10	O	0.916685	0.301343	0.069527
C11	C	0.782884	0.173091	0.000083
C12	C	0.695841	0.165614	0.000074
C13	C	0.645600	0.237749	0.000074
C14	C	0.563813	0.230720	0.000085
C15	C	0.532268	0.151555	0.000091
C16	C	0.582515	0.079414	0.000094
C17	C	0.664300	0.086444	0.000088
C18	C	0.288669	0.122417	0.000114
C19	C	0.206878	0.115392	0.000117
C20	C	0.188181	0.266699	0.000110
C21	C	0.269969	0.273722	0.000099
C22	C	0.320209	0.201582	0.000106
N23	N	0.448669	0.144368	0.000100
N24	N	0.403806	0.208770	0.000103
C25	C	0.931963	0.023872	0.000099
C26	C	0.930417	-0.069182	0.000094
C27	C	0.924861	-0.407302	0.000096
C28	C	0.839142	-0.365620	-0.000225
C29	C	0.840674	-0.268811	0.000089
C30	C	0.927617	-0.239557	0.000095
C31	C	0.966120	-0.274034	0.079392
C32	C	0.963963	-0.370810	0.079459
C33	C	0.973269	-0.378559	-0.078449
C34	C	0.973299	-0.281665	-0.079497
C35	C	0.929179	-0.144755	0.000096
C36	C	0.923302	-0.502103	0.000100
C37	C	1.069593	0.180051	0.000113
C38	C	1.156637	0.187528	0.000117
C39	C	0.920515	0.329270	0.000097
C40	C	0.922061	0.422324	0.000097
N41	N	0.915921	0.186859	0.216434
N42	N	0.936563	0.166277	-0.216236
C43	C	0.967163	0.135608	0.260134
C44	C	0.963006	0.139770	0.347541
C45	C	0.907611	0.195187	0.391245
C46	C	0.856364	0.246439	0.347539
C47	C	0.860518	0.242273	0.260135
C48	C	0.889469	0.213363	0.652653
C49	C	0.885321	0.217528	0.740064
C50	C	0.991962	0.110857	0.740059
C51	C	0.996114	0.106699	0.652652
C52	C	0.944864	0.157948	0.608954
N53	N	0.903363	0.199444	0.480589
N54	N	0.949109	0.153686	0.519612
H55	H	0.147268	0.325432	0.000106
N56	N	1.044293	0.058492	0.784696
N57	N	1.043679	-0.019439	0.774942
H58	H	1.080637	-0.056428	0.806467
N59	N	0.802384	-0.239333	-0.071224
N60	N	0.828289	-0.263119	-0.143034
H61	H	0.801242	-0.242305	-0.193400
N62	N	1.053129	-0.257372	-0.085488
N63	N	1.108690	-0.311701	-0.085687
H64	H	1.165073	-0.294544	-0.089910
N65	N	0.174651	0.034524	0.000142
N66	N	0.128312	0.016516	0.058678
H67	H	0.105550	-0.040594	0.058695
H68	H	0.329565	0.063675	0.000120
H69	H	1.012274	0.090486	0.224555
H70	H	1.029854	-0.255493	0.082346
N71	N	1.052685	0.050086	0.607999
N72	N	1.056384	0.046372	0.529960
H73	H	1.096339	0.006389	0.498421
N74	N	0.715611	0.012752	0.000098
N75	N	0.687438	-0.057927	0.000107
H76	H	0.723675	-0.109976	0.000119
H77	H	0.807588	-0.389148	-0.057091
N78	N	0.808189	0.294627	0.215481
N79	N	0.811905	0.290900	0.137442
H80	H	0.774945	0.327875	0.105904
N81	N	0.799778	0.303035	0.392193
N82	N	0.796076	0.306750	0.470232
H83	H	0.756112	0.346723	0.501769
N84	N	0.512500	0.304411	0.000104
N85	N	0.512603	0.358632	0.058636
H86	H	0.476365	0.410682	0.058653
N87	N	0.828716	0.274125	0.784701
N88	N	0.756710	0.267602	0.774954
H89	H	0.716734	0.307569	0.806480
H90	H	0.802329	-0.384808	0.056318
N91	N	0.837112	0.265714	0.608037
N92	N	0.787657	0.315188	0.647072
H93	H	0.750676	0.352162	0.615560
H94	H	0.930299	-0.388357	0.138731
N95	N	0.677805	0.318623	0.000077
N96	N	0.659622	0.371273	0.058612
H97	H	0.682363	0.428393	0.058618
N98	N	0.302176	0.354595	0.000083
N99	N	0.257309	0.418996	0.000077
H100	H	0.280055	0.476114	0.000060
N101	N	0.550282	-0.001445	0.000108
N102	N	0.477259	-0.007713	0.000113
H103	H	0.454495	-0.064822	0.000121
N104	N	0.795285	-0.233273	0.071514
N105	N	0.762381	-0.279977	0.121291
H106	H	0.730324	-0.254880	0.171741
N107	N	1.042711	-0.405759	0.083989
N108	N	1.099086	-0.358661	0.087097
H109	H	1.154701	-0.383339	0.090303
H110	H	0.948107	-0.403833	-0.138552
N111	N	0.925738	-0.237373	0.153411
N112	N	0.868601	-0.185855	0.147967
H113	H	0.840076	-0.159963	0.200241
H114	H	0.945181	-0.259275	-0.138159
H115	H	1.036506	-0.406115	-0.078977
N116	N	1.015351	0.087409	0.392165
N117	N	1.064809	0.037936	0.353134
H118	H	1.101780	0.000953	0.384649
