data_functionalizedCrystal
_audit_creation_method	'MofGen! by Chris Wilmer'
_symmetry_space_group_name_H-M	'P1'
_symmetry_Int_Tables_number	1
_symmetry_cell_setting	triclinic
loop_
_symmetry_equiv_pos_as_xyz
  x,y,z
_cell_length_a	19.805407
_cell_length_b	10.686203
_cell_length_c	19.805399
_cell_angle_alpha	94.387669
_cell_angle_beta	89.984884
_cell_angle_gamma	94.368274
loop_
_atom_site_label
_atom_site_type_symbol
_atom_site_fract_x
_atom_site_fract_y
_atom_site_fract_z
Zn1	Zn	1.055473	0.502450	-0.362089
Zn2	Zn	1.064110	0.713467	-0.240250
Zn3	Zn	0.942294	0.502480	-0.248916
Zn4	Zn	0.950964	0.713385	-0.353403
O5	O	1.003210	0.607945	-0.301165
O6	O	1.151336	0.530464	-0.345935
O7	O	1.047937	0.685526	-0.146681
O8	O	0.950064	0.325900	-0.271190
O9	O	1.157681	0.685497	-0.256420
O10	O	1.033216	0.325878	-0.354338
O11	O	0.958439	0.530515	-0.153048
O12	O	0.848727	0.530435	-0.262768
O13	O	0.964842	0.685357	-0.449274
O14	O	0.855097	0.685386	-0.339535
O15	O	1.041624	0.530384	-0.455655
O16	O	1.056344	0.890032	-0.247998
O17	O	0.973216	0.889972	-0.331132
C18	C	0.827353	0.607906	-0.301150
C19	C	0.752121	0.607919	-0.301158
C20	C	0.713479	0.527336	-0.347828
C21	C	0.642791	0.527343	-0.347831
C22	C	0.610746	0.607940	-0.301165
C23	C	0.649393	0.688527	-0.254490
C24	C	0.720080	0.688513	-0.254485
C25	C	0.364322	0.688583	-0.254509
C26	C	0.293631	0.688594	-0.254519
C27	C	0.287034	0.527414	-0.347854
C28	C	0.357720	0.527400	-0.347849
C29	C	0.396361	0.607981	-0.301172
C30	C	0.473009	0.607971	-0.301169
C31	C	0.534100	0.607957	-0.301171
C32	C	1.016676	0.935786	-0.287697
C33	C	1.022499	1.076037	-0.281958
C34	C	1.179755	0.607986	-0.301180
C35	C	1.254987	0.608003	-0.301186
C36	C	1.003236	0.607858	-0.477711
C37	C	1.003247	0.607821	-0.552944
C38	C	0.989703	1.278825	-0.314707
C39	C	0.983931	1.138573	-0.320496
C40	C	0.956658	0.527099	-0.591604
C41	C	0.956666	0.527074	-0.662293
C42	C	1.003268	0.607766	-0.694322
C43	C	1.049859	0.688497	-0.655658
C44	C	1.049847	0.688527	-0.584969
C45	C	1.049908	0.688379	-0.940736
C46	C	1.049918	0.688340	-1.011430
C47	C	0.956727	0.526926	-1.018060
C48	C	0.956715	0.526956	-0.947371
C49	C	1.003304	0.607691	-0.908713
C50	C	1.003294	0.607718	-0.832063
C51	C	1.003282	0.607733	-0.770971
C52	C	1.003219	0.607942	-0.125309
C53	C	1.003325	0.607623	-0.050090
H54	H	0.623296	0.754144	-0.216491
C55	C	0.933306	1.065961	-0.371007
C56	C	0.857107	1.084073	-0.364681
C57	C	0.806482	1.011451	-0.415193
C58	C	0.832056	0.920718	-0.472032
C59	C	0.908258	0.902601	-0.478360
C60	C	0.958884	0.975223	-0.427848
H61	H	0.838172	1.151244	-0.322604
H62	H	0.750071	1.024863	-0.410508
H63	H	0.794580	0.866959	-0.509424
H64	H	0.927193	0.835431	-0.520438
H65	H	1.015294	0.961811	-0.432533
H66	H	1.059972	1.129801	-0.244565
C67	C	1.101172	0.777174	-0.898233
C68	C	1.177692	0.766857	-0.908405
C69	C	1.228966	0.855654	-0.865906
C70	C	1.203720	0.954767	-0.813234
C71	C	1.127196	0.965088	-0.803059
C72	C	1.075922	0.876291	-0.845558
H73	H	1.196384	0.693484	-0.947399
H74	H	1.285614	0.848014	-0.873438
H75	H	1.241676	1.020500	-0.781773
H76	H	1.108504	1.038461	-0.764065
H77	H	1.019275	0.883932	-0.838026
C78	C	1.101095	0.777320	-0.542439
C79	C	1.177622	0.767044	-0.552579
C80	C	1.228868	0.855845	-0.510048
C81	C	1.203587	0.954922	-0.457376
C82	C	1.127057	0.965202	-0.447233
C83	C	1.075811	0.876401	-0.489764
H84	H	1.196340	0.693698	-0.591572
H85	H	1.285521	0.848235	-0.517557
H86	H	1.241523	1.020658	-0.425892
H87	H	1.108339	1.038548	-0.408240
H88	H	1.019158	0.884012	-0.482256
H89	H	0.918726	0.461347	-0.693766
H90	H	0.918713	0.461383	-0.565531
C91	C	0.905452	0.438197	-0.912140
C92	C	0.854199	0.349408	-0.954664
C93	C	0.802932	0.260652	-0.919433
C94	C	0.802918	0.260684	-0.841679
C95	C	0.854172	0.349476	-0.799150
C96	C	0.905439	0.438232	-0.834381
H97	H	0.854208	0.349382	-1.012226
H98	H	0.764990	0.194923	-0.950916
H99	H	0.764967	0.194982	-0.815599
H100	H	0.854163	0.349503	-0.741588
H101	H	0.943381	0.503962	-0.802898
H102	H	0.751541	0.754131	-0.216481
C103	C	0.406818	0.777232	-0.203168
C104	C	0.453135	0.722428	-0.152316
C105	C	0.495633	0.811084	-0.100972
C106	C	0.491813	0.954543	-0.100481
C107	C	0.445494	1.009354	-0.151335
C108	C	0.402996	0.920698	-0.202678
H109	H	0.455964	0.616224	-0.152678
H110	H	0.529921	0.770508	-0.063327
H111	H	0.523273	1.020171	-0.062473
H112	H	0.442665	1.115557	-0.150972
H113	H	0.368708	0.961274	-0.240324
H114	H	0.918790	0.461191	-1.049544
H115	H	0.739565	0.461708	-0.385831
C116	C	1.101179	0.777115	-1.046663
C117	C	1.075915	0.876138	-1.091186
C118	C	1.127173	0.964906	-1.126419
C119	C	1.203697	0.954650	-1.117129
C120	C	1.228966	0.855623	-1.072603
C121	C	1.177707	0.766855	-1.037370
H122	H	1.019264	0.883733	-1.098066
H123	H	1.108468	1.038212	-1.159380
H124	H	1.241642	1.020361	-1.143210
H125	H	1.285616	0.848027	-1.065723
H126	H	1.196413	0.693548	-1.004409
C127	C	0.600285	0.438704	-0.399171
C128	C	0.635533	0.350058	-0.450506
C129	C	0.593027	0.261413	-0.501848
C130	C	0.515274	0.261414	-0.501855
C131	C	0.480022	0.350064	-0.450518
C132	C	0.522528	0.438708	-0.399176
H133	H	0.693094	0.350054	-0.450503
H134	H	0.619123	0.195789	-0.539851
H135	H	0.483809	0.195794	-0.539861
H136	H	0.422461	0.350068	-0.450521
H137	H	0.496432	0.504333	-0.361173
C138	C	0.244526	0.438758	-0.399195
C139	C	0.198200	0.493567	-0.450036
C140	C	0.155695	0.404916	-0.501376
C141	C	0.159515	0.261457	-0.501874
C142	C	0.205844	0.206640	-0.451030
C143	C	0.248349	0.295291	-0.399691
H144	H	0.195370	0.599771	-0.449669
H145	H	0.121399	0.445496	-0.539013
H146	H	0.128050	0.195832	-0.539878
H147	H	0.208674	0.100436	-0.451397
H148	H	0.282644	0.254711	-0.362053
H149	H	1.087800	0.754204	-0.681741
H150	H	0.267542	0.754229	-0.216515
H151	H	0.383808	0.461774	-0.385851
