data_functionalizedCrystal
_audit_creation_method	'MofGen! by Chris Wilmer'
_symmetry_space_group_name_H-M	'P1'
_symmetry_Int_Tables_number	1
_symmetry_cell_setting	triclinic
loop_
_symmetry_equiv_pos_as_xyz
  x,y,z
_cell_length_a	18.215407
_cell_length_b	18.215399
_cell_length_c	17.077402
_cell_angle_alpha	90.031154
_cell_angle_beta	89.979673
_cell_angle_gamma	89.985640
loop_
_atom_site_label
_atom_site_type_symbol
_atom_site_fract_x
_atom_site_fract_y
_atom_site_fract_z
Zn1	Zn	1.125060	-0.416063	0.312551
Zn2	Zn	1.124979	-0.292995	0.443829
Zn3	Zn	1.001999	-0.293016	0.312575
Zn4	Zn	1.001963	-0.416026	0.443773
O5	O	1.063501	-0.354525	0.378182
O6	O	1.228034	-0.399745	0.329979
O7	O	1.108647	-0.190014	0.426452
O8	O	1.018373	-0.309363	0.202725
O9	O	1.227974	-0.309328	0.426428
O10	O	1.108785	-0.399765	0.202707
O11	O	1.018294	-0.190029	0.330020
O12	O	0.899010	-0.309326	0.329966
O13	O	1.018311	-0.519015	0.426332
O14	O	0.898984	-0.399701	0.426356
O15	O	1.108750	-0.519043	0.329924
O16	O	1.108612	-0.309291	0.553669
O17	O	1.018232	-0.399681	0.553627
C18	C	0.872294	-0.354512	0.378158
C19	C	0.790495	-0.354524	0.378167
C20	C	0.602331	-0.401679	0.328049
C21	C	0.525473	-0.401681	0.328056
C22	C	0.525422	-0.307384	0.428338
C23	C	0.602279	-0.307379	0.428326
C24	C	0.640732	-0.354530	0.378183
C25	C	0.487016	-0.354538	0.378201
C26	C	0.403682	-0.354541	0.378209
C27	C	0.724071	-0.354527	0.378174
C28	C	1.063535	-0.546478	0.378119
C29	C	1.063550	-0.628277	0.378093
C30	C	1.016543	-0.816480	0.327847
C31	C	1.016556	-0.893339	0.327831
C32	C	1.110645	-0.893312	0.428245
C33	C	1.110628	-0.816455	0.428264
C34	C	1.063578	-0.778041	0.378061
C35	C	1.063608	-0.931757	0.378026
C36	C	1.063622	-1.015091	0.378009
C37	C	1.063563	-0.694702	0.378078
C38	C	1.255453	-0.354538	0.378207
C39	C	1.337252	-0.354544	0.378218
C40	C	1.063430	-0.354496	0.582130
C41	C	1.063466	-0.354508	0.669380
C42	C	1.063508	-0.163319	0.378188
C43	C	1.063636	-0.081520	0.377994
C44	C	1.063592	-0.354571	0.173438
C45	C	1.063631	-0.354590	0.086188
C46	C	1.110575	-0.307492	0.710365
C47	C	1.110611	-0.307511	0.792346
C48	C	1.063534	-0.354542	0.833339
C49	C	1.016423	-0.401563	0.792348
C50	C	1.016392	-0.401547	0.710369
C51	C	1.016492	-0.401591	0.963218
C52	C	1.016522	-0.401606	1.045203
C53	C	1.110711	-0.307555	1.045195
C54	C	1.110679	-0.307539	0.963216
C55	C	1.063567	-0.354559	0.922230
H56	H	0.633546	-0.268980	0.469152
O57	O	0.970772	-0.447355	0.832132
C58	C	0.986791	-0.520713	0.812016
H59	H	1.045572	-0.524476	0.789429
H60	H	0.980450	-0.557074	0.865906
H61	H	0.947305	-0.539908	0.764448
O62	O	1.156357	-0.779029	0.476935
C63	C	1.203909	-0.734598	0.432259
H64	H	1.177976	-0.723103	0.372771
H65	H	1.213741	-0.680541	0.464246
H66	H	1.258459	-0.764218	0.423635
H67	H	1.148952	-0.924598	0.469118
O68	O	0.970662	-0.447293	0.923525
C69	C	0.929131	-0.488822	0.977283
H70	H	0.926619	-0.458685	1.035746
H71	H	0.871135	-0.496622	0.953636
H72	H	0.956053	-0.544737	0.985939
O73	O	0.488057	-0.447416	0.279384
C74	C	0.411974	-0.437325	0.290156
H75	H	0.401452	-0.380488	0.315787
H76	H	0.382780	-0.442420	0.231368
H77	H	0.390168	-0.480907	0.332020
O78	O	0.970905	-0.779050	0.279113
C79	C	0.980960	-0.702970	0.289908
H80	H	1.037743	-0.692465	0.315620
H81	H	0.975982	-0.673778	0.231117
H82	H	0.937288	-0.681147	0.331714
H83	H	0.978255	-0.924633	0.286943
O84	O	1.156374	-0.261780	0.670669
C85	C	1.197948	-0.220275	0.724428
H86	H	1.200500	-0.250434	0.782838
H87	H	1.255927	-0.212469	0.700701
H88	H	1.171035	-0.164361	0.733215
H89	H	1.148971	-0.269226	0.825713
O90	O	0.970735	-0.447295	0.670516
C91	C	1.012590	-0.494841	0.623011
H92	H	1.070557	-0.499440	0.647669
H93	H	0.985940	-0.551454	0.622056
H94	H	1.015118	-0.472076	0.560897
O95	O	1.156478	-0.261831	0.923515
C96	C	1.198056	-0.220321	0.977266
H97	H	1.200610	-0.250474	1.035680
H98	H	1.256034	-0.212520	0.953535
H99	H	1.171146	-0.164405	0.986049
H100	H	0.494104	-0.268996	0.469163
O101	O	1.156632	-0.262028	1.084995
C102	C	1.204145	-0.304041	1.132292
H103	H	1.208530	-0.362011	1.107536
H104	H	1.260836	-0.277555	1.133112
H105	H	1.181489	-0.306531	1.194472
O106	O	0.639571	-0.447500	0.279265
C107	C	0.589193	-0.489128	0.235031
H108	H	0.534398	-0.458991	0.232282
H109	H	0.611414	-0.497080	0.173191
H110	H	0.581029	-0.544974	0.263850
O111	O	0.970899	-0.447329	1.085114
C112	C	1.012797	-0.494909	1.132450
H113	H	1.068587	-0.468997	1.144698
H114	H	0.982842	-0.504752	1.190119
H115	H	1.020839	-0.549451	1.100814
