data_functionalizedCrystal
_audit_creation_method	'MofGen! by Chris Wilmer'
_symmetry_space_group_name_H-M	'P1'
_symmetry_Int_Tables_number	1
_symmetry_cell_setting	triclinic
loop_
_symmetry_equiv_pos_as_xyz
  x,y,z
_cell_length_a	23.532407
_cell_length_b	14.044220
_cell_length_c	13.101039
_cell_angle_alpha	86.332523
_cell_angle_beta	86.666253
_cell_angle_gamma	91.981188
loop_
_atom_site_label
_atom_site_type_symbol
_atom_site_fract_x
_atom_site_fract_y
_atom_site_fract_z
O1	O	0.764357	-0.109755	-0.085152
O2	O	1.097690	0.223578	0.248181
O3	O	1.431023	0.556911	0.581515
O4	O	0.599396	-0.126395	-0.085169
O5	O	0.932729	0.206938	0.248165
O6	O	1.266063	0.540272	0.581498
O7	O	0.679400	0.019885	-0.085150
O8	O	1.012733	0.353219	0.248183
O9	O	1.346067	0.686552	0.581516
O10	O	0.684353	-0.256036	-0.085170
O11	O	1.017686	0.077297	0.248163
O12	O	1.351019	0.410631	0.581496
O13	O	0.673661	0.009373	0.085278
O14	O	1.006994	0.342706	0.418611
O15	O	1.340327	0.676039	0.751945
O16	O	0.593657	-0.136908	0.085260
O17	O	0.926990	0.196425	0.418593
O18	O	1.260323	0.529759	0.751927
O19	O	0.758617	-0.120268	0.085277
O20	O	1.091951	0.213065	0.418610
O21	O	1.425284	0.546399	0.751943
Zn22	Zn	0.675226	-0.130257	0.112327
Zn23	Zn	1.008559	0.203076	0.445661
Zn24	Zn	1.341892	0.536410	0.778994
Zn25	Zn	0.682788	-0.116406	-0.112219
Zn26	Zn	1.016121	0.216927	0.221114
Zn27	Zn	1.349454	0.550260	0.554447
O28	O	0.678613	-0.266549	0.085258
O29	O	1.011947	0.066785	0.418592
O30	O	1.345280	0.400118	0.751925
C31	C	0.575287	-0.131228	0.000044
C32	C	0.908621	0.202106	0.333377
C33	C	1.241954	0.535439	0.666710
C34	C	0.512001	-0.129953	0.000038
C35	C	0.845335	0.203380	0.333371
C36	C	1.178668	0.536714	0.666704
C37	C	0.240856	-0.038135	0.000072
C38	C	0.574189	0.295199	0.333405
C39	C	0.907523	0.628532	0.666739
C40	C	0.300320	-0.039318	0.000072
C41	C	0.633654	0.294015	0.333405
C42	C	0.966987	0.627348	0.666738
O43	O	0.333116	0.033519	0.000113
O44	O	0.666449	0.366853	0.333446
O45	O	0.999782	0.700186	0.666779
N46	N	0.327661	-0.126282	0.000059
N47	N	0.660994	0.207051	0.333392
N48	N	0.994327	0.540385	0.666725
C49	C	0.295533	-0.212068	0.000056
C50	C	0.628866	0.121265	0.333390
C51	C	0.962200	0.454598	0.666723
O52	O	0.324248	-0.286146	0.000046
O53	O	0.657582	0.047187	0.333379
O54	O	0.990915	0.380520	0.666713
C55	C	0.236069	-0.210884	0.000064
C56	C	0.569403	0.122449	0.333397
C57	C	0.902736	0.455783	0.666731
C58	C	0.208733	-0.123914	0.000067
C59	C	0.542066	0.209419	0.333400
C60	C	0.875399	0.542752	0.666733
C61	C	0.213519	0.048828	0.000076
C62	C	0.546852	0.382161	0.333409
C63	C	0.880186	0.715495	0.666743
C64	C	0.154059	0.050011	0.000075
C65	C	0.487392	0.383345	0.333408
C66	C	0.820726	0.716678	0.666741
C67	C	0.121936	-0.035768	0.000069
C68	C	0.455269	0.297565	0.333402
C69	C	0.788602	0.630898	0.666736
C70	C	0.149273	-0.122731	0.000065
C71	C	0.482606	0.210602	0.333398
C72	C	0.815939	0.543936	0.666732
C73	C	0.203943	-0.296670	0.000069
C74	C	0.537276	0.036663	0.333402
C75	C	0.870609	0.369997	0.666735
C76	C	0.144475	-0.295478	0.000077
C77	C	0.477808	0.037855	0.333411
C78	C	0.811142	0.371188	0.666744
C79	C	0.117139	-0.208509	0.000080
C80	C	0.450472	0.124825	0.333413
C81	C	0.783805	0.458158	0.666747
C82	C	0.057689	-0.207327	0.000058
C83	C	0.391022	0.126006	0.333391
C84	C	0.724356	0.459339	0.666725
N85	N	0.030349	-0.120364	0.000071
N86	N	0.363682	0.212969	0.333405
N87	N	0.697015	0.546303	0.666738
C88	C	0.062472	-0.034584	0.000077
C89	C	0.395805	0.298749	0.333410
C90	C	0.729139	0.632082	0.666743
C91	C	0.420410	-0.214548	0.000042
C92	C	0.753744	0.118785	0.333375
C93	C	1.087077	0.452118	0.666708
C94	C	0.479873	-0.215733	0.000027
C95	C	0.813206	0.117600	0.333360
C96	C	1.146540	0.450934	0.666693
C97	C	0.484657	-0.042983	0.000044
C98	C	0.817990	0.290351	0.333378
C99	C	1.151323	0.623684	0.666711
C100	C	0.425193	-0.041799	0.000052
C101	C	0.758526	0.291535	0.333385
C102	C	1.091860	0.624868	0.666719
C103	C	0.393070	-0.127585	0.000055
C104	C	0.726404	0.205749	0.333388
C105	C	1.059737	0.539082	0.666722
C106	C	-0.062399	-0.032106	0.000073
C107	C	0.270934	0.301227	0.333406
C108	C	0.604268	0.634561	0.666739
C109	C	-0.121864	-0.030930	0.000067
C110	C	0.211469	0.302403	0.333400
C111	C	0.544802	0.635737	0.666733
C112	C	-0.126643	-0.203680	0.000055
C113	C	0.206691	0.129653	0.333388
C114	C	0.540024	0.462987	0.666721
C115	C	-0.067182	-0.204856	0.000055
C116	C	0.266151	0.128477	0.333388
C117	C	0.599484	0.461810	0.666722
C118	C	-0.035062	-0.119062	0.000067
C119	C	0.298272	0.214272	0.333401
C120	C	0.631605	0.547605	0.666734
O121	O	0.024857	-0.280127	0.000022
O122	O	0.358190	0.053206	0.333355
O123	O	0.691524	0.386540	0.666688
O124	O	0.033749	0.039481	0.000101
O125	O	0.367082	0.372814	0.333434
O126	O	0.700416	0.706147	0.666767
C127	C	0.674363	0.049923	0.000064
C128	C	1.007696	0.383256	0.333397
C129	C	1.341029	0.716590	0.666731
C130	C	0.667897	0.155088	0.000065
C131	C	1.001230	0.488421	0.333398
C132	C	1.334563	0.821755	0.666731
C133	C	0.782726	-0.115436	0.000062
C134	C	1.116060	0.217898	0.333395
C135	C	1.449393	0.551231	0.666729
C136	C	0.846012	-0.116710	0.000061
C137	C	1.179346	0.216624	0.333395
C138	C	1.512679	0.549957	0.666728
C139	C	0.683651	-0.296586	0.000042
C140	C	1.016984	0.036747	0.333375
C141	C	1.350318	0.370080	0.666708
C142	C	0.690117	-0.401751	0.000034
C143	C	1.023450	-0.068417	0.333368
C144	C	1.356784	0.264916	0.666701
N145	N	0.670069	-0.139709	0.265575
N146	N	1.003403	0.193624	0.598908
N147	N	1.336736	0.526957	0.932241
C148	C	0.656076	0.347639	0.000049
C149	C	0.989409	0.680972	0.333382
C150	C	1.322743	1.014306	0.666715
C151	C	0.701935	0.405704	0.000050
C152	C	1.035268	0.739037	0.333384
C153	C	1.368602	1.072371	0.666717
C154	C	0.695358	0.512846	0.000041
C155	C	1.028691	0.846179	0.333375
C156	C	1.362025	1.179513	0.666708
C157	C	0.662652	0.240487	0.000058
C158	C	0.995986	0.573820	0.333391
C159	C	1.329319	0.907154	0.666724
N160	N	0.687948	-0.106946	-0.265467
N161	N	1.021282	0.226387	0.067866
N162	N	1.354615	0.559720	0.401200
C163	C	0.663054	-0.152578	0.474616
C164	C	0.996387	0.180755	0.807949
C165	C	1.329721	0.514088	1.141282
C166	C	0.694962	-0.094081	0.525499
C167	C	1.028295	0.239253	0.858832
C168	C	1.361629	0.572586	1.192165
C169	C	0.691059	-0.101241	0.641816
C170	C	1.024392	0.232092	0.975150
C171	C	1.357725	0.565426	1.308483
C172	C	0.666957	-0.145419	0.358288
C173	C	1.000290	0.187914	0.691621
C174	C	1.333623	0.521248	1.024954
H175	H	0.226190	-0.367490	0.000062
H176	H	0.559523	-0.034156	0.333395
H177	H	0.892856	0.299177	0.666729
H178	H	0.611879	0.378393	0.000042
H179	H	0.945212	0.711726	0.333375
H180	H	1.278546	1.045059	0.666709
H181	H	0.725211	-0.038622	0.481703
H182	H	1.058545	0.294711	0.815037
H183	H	1.391878	0.628045	1.148370
H184	H	0.118323	-0.365338	0.000084
H185	H	0.451657	-0.032005	0.333418
H186	H	0.784990	0.301329	0.666751
H187	H	0.632807	-0.208034	0.518406
H188	H	0.966141	0.125299	0.851739
H189	H	1.299474	0.458632	1.185073
H190	H	0.746138	0.374953	-0.000014
H191	H	1.079472	0.708286	0.333319
H192	H	1.412805	1.041620	0.666653
H193	H	0.394260	-0.284410	0.000037
H194	H	0.727593	0.048924	0.333370
H195	H	1.060926	0.382257	0.666703
H196	H	-0.144119	0.039894	0.000066
H197	H	0.189215	0.373228	0.333400
H198	H	0.522548	0.706561	0.666733
H199	H	-0.036253	0.037756	0.000082
H200	H	0.297080	0.371090	0.333416
H201	H	0.630414	0.704423	0.666749
H202	H	-0.152808	-0.273519	0.000045
H203	H	0.180525	0.059814	0.333378
H204	H	0.513859	0.393148	0.666712
H205	H	0.131807	0.120831	0.000081
H206	H	0.465140	0.454164	0.333414
H207	H	0.798473	0.787497	0.666748
H208	H	0.402940	0.029020	0.000055
H209	H	0.736273	0.362353	0.333388
H210	H	1.069606	0.695687	0.666722
H211	H	0.510822	0.026864	0.000049
H212	H	0.844156	0.360197	0.333382
H213	H	1.177489	0.693530	0.666716
H214	H	0.239668	0.118684	0.000084
H215	H	0.573001	0.452017	0.333417
H216	H	0.906335	0.785351	0.666751
H217	H	0.502126	-0.286551	0.000010
H218	H	0.835459	0.046782	0.333344
H219	H	1.168793	0.380115	0.666677
H220	H	-0.044924	-0.275674	0.000052
H221	H	0.288410	0.057659	0.333385
H222	H	0.621743	0.390993	0.666718
