data_functionalizedCrystal
_audit_creation_method	'MofGen! by Chris Wilmer'
_symmetry_space_group_name_H-M	'P1'
_symmetry_Int_Tables_number	1
_symmetry_cell_setting	triclinic
loop_
_symmetry_equiv_pos_as_xyz
  x,y,z
_cell_length_a	17.038272
_cell_length_b	17.019294
_cell_length_c	12.503572
_cell_angle_alpha	89.649141
_cell_angle_beta	86.232200
_cell_angle_gamma	87.244363
loop_
_atom_site_label
_atom_site_type_symbol
_atom_site_fract_x
_atom_site_fract_y
_atom_site_fract_z
O1	O	1.042504	0.166299	-0.104564
O2	O	1.375837	0.499632	0.228769
O3	O	1.709171	0.832966	0.562102
O4	O	0.814865	0.163590	-0.104345
O5	O	1.148198	0.496923	0.228988
O6	O	1.481531	0.830256	0.562321
O7	O	0.934502	0.051040	-0.093914
O8	O	1.267835	0.384374	0.239420
O9	O	1.601168	0.717707	0.572753
O10	O	0.922867	0.278848	-0.114996
O11	O	1.256200	0.612181	0.218337
O12	O	1.589534	0.945515	0.551671
O13	O	0.925504	0.059520	0.083942
O14	O	1.258838	0.392853	0.417276
O15	O	1.592171	0.726186	0.750609
O16	O	0.805867	0.172069	0.073511
O17	O	1.139200	0.505402	0.406844
O18	O	1.472534	0.838736	0.740177
O19	O	1.033507	0.174778	0.073292
O20	O	1.366840	0.508112	0.406625
O21	O	1.700173	0.841445	0.739958
Cu22	Cu	0.918865	0.174198	0.089641
Cu23	Cu	1.252199	0.507531	0.422974
Cu24	Cu	1.585532	0.840865	0.756307
Cu25	Cu	0.929506	0.164170	-0.120695
Cu26	Cu	1.262839	0.497503	0.212639
Cu27	Cu	1.596172	0.830837	0.545972
O28	O	0.913870	0.287327	0.062860
O29	O	1.247203	0.620661	0.396193
O30	O	1.580536	0.953994	0.729527
C31	C	0.781228	0.165366	-0.015194
C32	C	1.114562	0.498700	0.318140
C33	C	1.447895	0.832033	0.651473
C34	C	0.694408	0.158018	-0.014526
C35	C	1.027741	0.491351	0.318807
C36	C	1.361075	0.824684	0.652141
C37	C	0.644551	0.225480	-0.020768
C38	C	0.977885	0.558814	0.312565
C39	C	1.311218	0.892147	0.645898
C40	C	0.562974	0.218572	-0.020114
C41	C	0.896307	0.551905	0.313219
C42	C	1.229640	0.885239	0.646552
C43	C	0.531255	0.144200	-0.013225
C44	C	0.864588	0.477534	0.320108
C45	C	1.197921	0.810867	0.653441
C46	C	0.581118	0.076733	-0.006979
C47	C	0.914451	0.410066	0.326354
C48	C	1.247784	0.743400	0.659687
C49	C	0.662693	0.083642	-0.007626
C50	C	0.996027	0.416975	0.325708
C51	C	1.329360	0.750309	0.659041
C52	C	0.285402	0.119792	-0.010938
C53	C	0.618736	0.453125	0.322396
C54	C	0.952069	0.786458	0.655729
C55	C	0.203820	0.112887	-0.010295
C56	C	0.537154	0.446221	0.323039
C57	C	0.870487	0.779554	0.656372
C58	C	0.185682	0.254727	-0.023428
C59	C	0.519015	0.588061	0.309905
C60	C	0.852348	0.921394	0.643239
C61	C	0.267260	0.261630	-0.024080
C62	C	0.600594	0.594963	0.309253
C63	C	0.933927	0.928296	0.642586
C64	C	0.317116	0.194162	-0.017829
C65	C	0.650449	0.527496	0.315505
C66	C	0.983782	0.860829	0.648838
C67	C	0.447870	0.137137	-0.012560
C68	C	0.781203	0.470471	0.320773
C69	C	1.114536	0.803804	0.654107
C70	C	0.400499	0.201227	-0.018486
C71	C	0.733832	0.534560	0.314847
C72	C	1.067165	0.867893	0.648180
C73	C	0.929384	0.025988	-0.002278
C74	C	1.262718	0.359321	0.331056
C75	C	1.596051	0.692654	0.664389
C76	C	0.927532	-0.061295	0.005792
C77	C	1.260865	0.272039	0.339126
C78	C	1.594199	0.605372	0.672459
C79	C	0.931568	-0.106918	-0.087365
C80	C	1.264901	0.226416	0.245968
C81	C	1.598235	0.559749	0.579301
C82	C	0.929822	-0.188928	-0.079779
C83	C	1.263156	0.144405	0.253554
C84	C	1.596489	0.477738	0.586887
C85	C	0.924046	-0.225315	0.020965
C86	C	1.257379	0.108018	0.354298
C87	C	1.590713	0.441352	0.687631
C88	C	0.920007	-0.179686	0.114129
C89	C	1.253341	0.153648	0.447462
C90	C	1.586674	0.486981	0.780796
C91	C	0.921748	-0.097676	0.106542
C92	C	1.255081	0.235657	0.439876
C93	C	1.588414	0.568990	0.773209
C94	C	0.918541	-0.472699	0.048722
C95	C	1.251875	-0.139366	0.382055
C96	C	1.585208	0.193967	0.715389
C97	C	0.916804	-0.554715	0.056302
C98	C	1.250137	-0.221382	0.389635
C99	C	1.583470	0.111952	0.722969
C100	C	0.926617	-0.563952	-0.137608
C101	C	1.259950	-0.230619	0.195726
C102	C	1.593284	0.102715	0.529059
C103	C	0.928362	-0.481941	-0.145185
C104	C	1.261695	-0.148607	0.188148
C105	C	1.595028	0.184726	0.521481
C106	C	0.924319	-0.436318	-0.052021
C107	C	1.257652	-0.102985	0.281312
C108	C	1.590985	0.230348	0.614646
C109	C	0.922264	-0.309143	0.028721
C110	C	1.255597	0.024190	0.362054
C111	C	1.588931	0.357524	0.695388
C112	C	0.926095	-0.352491	-0.059778
C113	C	1.259429	-0.019158	0.273555
C114	C	1.592762	0.314175	0.606888
C115	C	1.067143	0.173002	-0.015863
C116	C	1.400476	0.506335	0.317471
C117	C	1.733810	0.839668	0.650804
C118	C	1.153964	0.180350	-0.016537
C119	C	1.487297	0.513683	0.316796
C120	C	1.820630	0.847016	0.650129
C121	C	0.918987	0.312380	-0.028779
C122	C	1.252320	0.645713	0.304555
C123	C	1.585654	0.979047	0.637888
C124	C	0.920840	0.399662	-0.036855
C125	C	1.254173	0.732995	0.296478
C126	C	1.587506	1.066329	0.629811
N127	N	0.911387	0.181251	0.237579
N128	N	1.244720	0.514584	0.570913
N129	N	1.578054	0.847917	0.904246
N130	N	0.936990	0.157111	-0.268633
N131	N	1.270324	0.490445	0.064701
N132	N	1.603657	0.823778	0.398034
C133	C	0.900386	0.191633	0.455732
C134	C	1.233720	0.524966	0.789066
C135	C	1.567053	0.858299	1.122399
C136	C	0.947988	0.146732	0.513221
C137	C	1.281322	0.480065	0.846554
C138	C	1.614655	0.813399	1.179888
C139	C	0.941867	0.152508	0.634609
C140	C	1.275201	0.485842	0.967942
C141	C	1.608534	0.819175	1.301276
C142	C	0.906506	0.185857	0.334333
C143	C	1.239840	0.519190	0.667667
C144	C	1.573173	0.852524	1.001000
H145	H	0.426328	0.261780	-0.024089
H146	H	0.759661	0.595113	0.309244
H147	H	1.092994	0.928447	0.642577
Cl148	Cl	0.830375	0.257680	0.520490
Cl149	Cl	1.163708	0.591013	0.853824
Cl150	Cl	1.497041	0.924346	1.187157
H151	H	0.915265	-0.435564	0.124584
H152	H	1.248598	-0.102231	0.457917
H153	H	1.581932	0.231103	0.791250
H154	H	0.670370	0.286042	-0.026379
H155	H	1.003703	0.619375	0.306954
H156	H	1.337037	0.952708	0.640288
H157	H	0.177998	0.052322	-0.004686
H158	H	0.511332	0.385655	0.328647
H159	H	0.844665	0.718988	0.661981
Cl160	Cl	0.914999	-0.354893	0.155367
Cl161	Cl	1.248332	-0.021559	0.488701
Cl162	Cl	1.581665	0.311774	0.822034
H163	H	0.993339	0.103953	0.471273
H164	H	1.326672	0.437287	0.804606
H165	H	1.660006	0.770620	1.137940
Cl166	Cl	0.541242	-0.016763	0.001688
Cl167	Cl	0.874575	0.316570	0.335021
Cl168	Cl	1.207909	0.649903	0.668355
Cl169	Cl	0.407987	0.043644	-0.003905
Cl170	Cl	0.741321	0.376977	0.329429
Cl171	Cl	1.074654	0.710310	0.662762
Cl172	Cl	0.500300	0.303386	-0.027969
Cl173	Cl	0.833633	0.636720	0.305364
Cl174	Cl	1.166967	0.970053	0.638698
Cl175	Cl	0.307129	0.355129	-0.032748
Cl176	Cl	0.640463	0.688462	0.300585
Cl177	Cl	0.973796	1.021796	0.633918
Cl178	Cl	0.909547	-0.600457	0.182962
Cl179	Cl	1.242880	-0.267124	0.516295
Cl180	Cl	1.576213	0.066210	0.849628
H181	H	0.145081	0.309655	-0.028516
H182	H	0.478414	0.642988	0.304818
H183	H	0.811748	0.976322	0.638151
Cl184	Cl	0.348067	0.034974	-0.003079
Cl185	Cl	0.681400	0.368308	0.330254
Cl186	Cl	1.014734	0.701641	0.663587
H187	H	0.703287	0.028707	-0.002543
H188	H	1.036620	0.362040	0.330790
H189	H	1.369953	0.695373	0.664124
H190	H	0.933112	-0.226072	-0.155638
H191	H	1.266445	0.107262	0.177695
H192	H	1.599779	0.440595	0.511028
Cl193	Cl	0.938835	-0.061183	-0.214022
Cl194	Cl	1.272168	0.272150	0.119312
Cl195	Cl	1.605502	0.605483	0.452645
H196	H	0.933066	-0.452321	-0.227222
H197	H	1.266399	-0.118988	0.106111
H198	H	1.599733	0.214346	0.439445
Cl199	Cl	0.931697	-0.621310	-0.254721
Cl200	Cl	1.265031	-0.287976	0.078613
Cl201	Cl	1.598364	0.045357	0.411946
Cl202	Cl	0.912736	-0.225428	0.240780
Cl203	Cl	1.246070	0.107905	0.574113
Cl204	Cl	1.579403	0.441238	0.907447
H205	H	0.918450	-0.060530	0.182401
H206	H	1.251783	0.272804	0.515735
H207	H	1.585117	0.606137	0.849068
H208	H	0.930793	-0.322862	-0.141804
H209	H	1.264126	0.010472	0.191529
H210	H	1.597459	0.343805	0.524863
