data_functionalizedCrystal
_audit_creation_method	'MofGen! by Chris Wilmer'
_symmetry_space_group_name_H-M	'P1'
_symmetry_Int_Tables_number	1
_symmetry_cell_setting	triclinic
loop_
_symmetry_equiv_pos_as_xyz
  x,y,z
_cell_length_a	12.759401
_cell_length_b	19.805405
_cell_length_c	12.759393
_cell_angle_alpha	89.962372
_cell_angle_beta	89.980596
_cell_angle_gamma	90.026332
loop_
_atom_site_label
_atom_site_type_symbol
_atom_site_fract_x
_atom_site_fract_y
_atom_site_fract_z
Zn1	Zn	1.606170	-0.269425	-0.593963
Zn2	Zn	1.606028	-0.382630	-0.418264
Zn3	Zn	1.430472	-0.269460	-0.418299
Zn4	Zn	1.430425	-0.382577	-0.593903
O5	O	1.518274	-0.326023	-0.506107
O6	O	1.753172	-0.284449	-0.570666
O7	O	1.582701	-0.367654	-0.271248
O8	O	1.453858	-0.174738	-0.441641
O9	O	1.753068	-0.367620	-0.441581
O10	O	1.582942	-0.174713	-0.570700
O11	O	1.453720	-0.284509	-0.271273
O12	O	1.283445	-0.284458	-0.441583
O13	O	1.453777	-0.367530	-0.740932
O14	O	1.283410	-0.367564	-0.570598
O15	O	1.582896	-0.284398	-0.740976
O16	O	1.582655	-0.477339	-0.441523
O17	O	1.453640	-0.477301	-0.570564
C18	C	1.245306	-0.326010	-0.506089
C19	C	1.128530	-0.326020	-0.506105
C20	C	0.963930	-0.282702	-0.439059
C21	C	1.073654	-0.282689	-0.439047
C22	C	1.073676	-0.369362	-0.573189
C23	C	0.963953	-0.369371	-0.573205
C24	C	0.963919	-0.232665	-0.361610
C25	C	1.073643	-0.232652	-0.361597
C26	C	1.518155	-0.501879	-0.506056
C27	C	1.518201	-0.577111	-0.506070
C28	C	1.585445	-0.612453	-0.438948
C29	C	1.585489	-0.683141	-0.438972
C30	C	1.518284	-0.718486	-0.506112
C31	C	1.451038	-0.683140	-0.573240
C32	C	1.450999	-0.612452	-0.573222
C33	C	1.451193	-0.968213	-0.573318
C34	C	1.451234	-1.038905	-0.573329
C35	C	1.585683	-1.038901	-0.439068
C36	C	1.585644	-0.968214	-0.439049
C37	C	1.518402	-0.932874	-0.506182
C38	C	1.518356	-0.856225	-0.506157
C39	C	1.518324	-0.795133	-0.506132
C40	C	1.792307	-0.326036	-0.506126
C41	C	1.909084	-0.326042	-0.506135
C42	C	1.518347	-0.325954	-0.780141
C43	C	1.518379	-0.325925	-0.896917
C44	C	1.518421	-0.149480	-0.506181
C45	C	1.518484	-0.074248	-0.506213
C46	C	1.585620	-0.282634	-0.951804
C47	C	1.585645	-0.282610	-1.061528
C48	C	1.451184	-0.369173	-1.061469
C49	C	1.451154	-0.369194	-0.951747
C50	C	1.663254	-0.232659	-0.951839
C51	C	1.663279	-0.232635	-1.061563
C52	C	1.518261	-0.326042	-0.233140
C53	C	1.518433	-0.325880	-0.116364
H54	H	0.934180	-0.180261	-0.383550
Cl55	Cl	1.366602	-0.423608	-0.882750
H56	H	1.396450	-0.404400	-1.106125
H57	H	1.744645	-0.246674	-1.091340
H58	H	1.641502	-0.180241	-0.922091
Cl59	Cl	1.366464	-0.568023	-0.657610
Cl60	Cl	0.911293	-0.261567	-0.242203
Cl61	Cl	1.119555	-0.254237	-0.235908
H62	H	1.107712	-0.182872	-0.390879
H63	H	1.640365	-0.939438	-0.384374
Cl64	Cl	1.669929	-0.568025	-0.354532
H65	H	1.740520	-0.251451	-0.917801
H66	H	1.118364	-0.404638	-0.627797
Cl67	Cl	1.670031	-0.727568	-0.354590
Cl68	Cl	1.366658	-0.923794	-0.657711
H69	H	1.640438	-1.067684	-0.384410
H70	H	1.396509	-1.067681	-0.628011
H71	H	1.396323	-0.711923	-0.627911
H72	H	0.919302	-0.404657	-0.627834
Cl73	Cl	1.618204	-0.155779	-1.114151
