data_functionalizedCrystal
_audit_creation_method	'MofGen! by Chris Wilmer'
_symmetry_space_group_name_H-M	'P1'
_symmetry_Int_Tables_number	1
_symmetry_cell_setting	triclinic
loop_
_symmetry_equiv_pos_as_xyz
  x,y,z
_cell_length_a	10.723024
_cell_length_b	16.109301
_cell_length_c	9.198806
_cell_angle_alpha	89.999041
_cell_angle_beta	89.998000
_cell_angle_gamma	83.964675
loop_
_atom_site_label
_atom_site_type_symbol
_atom_site_fract_x
_atom_site_fract_y
_atom_site_fract_z
O1	O	0.160389	1.104075	-0.120797
O2	O	0.180350	0.862130	-0.120819
O3	O	-0.011280	0.988683	-0.120802
O4	O	0.352020	0.977522	-0.120814
O5	O	-0.011281	0.988674	0.120983
O6	O	0.180349	0.862121	0.120966
O7	O	0.160389	1.104065	0.120988
Cu8	Cu	0.170369	0.983092	0.143054
Cu9	Cu	0.170370	0.983103	-0.142885
O10	O	0.352019	0.977512	0.120971
C11	C	0.179541	0.831146	0.000070
C12	C	0.177117	0.738836	0.000062
C13	C	-0.057770	0.987866	0.000089
C14	C	-0.196292	0.985436	0.000083
C15	C	0.285190	0.517200	0.000075
C16	C	0.282903	0.430466	0.000084
C17	C	0.055540	0.449003	0.000086
C18	C	0.057829	0.535735	0.000087
C19	C	0.172657	0.569831	0.000074
C20	C	0.168081	0.396365	0.000082
C21	C	0.165600	0.302324	0.000093
C22	C	0.175139	0.663877	0.000066
C23	C	-0.272213	1.056249	0.000088
C24	C	-0.415383	1.053739	0.000082
C25	C	0.398508	0.978329	0.000077
C26	C	0.537031	0.980760	0.000073
C27	C	0.161198	1.135050	0.000096
C28	C	0.163622	1.227359	0.000095
N29	N	0.170368	0.983090	0.344168
N30	N	0.170361	0.983112	-0.343999
C31	C	0.098647	0.934622	0.416397
C32	C	0.098642	0.934633	0.583809
H33	H	0.378691	0.544958	0.000076
H34	H	-0.480619	1.114359	0.000093
H35	H	-0.237286	0.922953	0.000068
H36	H	-0.231219	1.118732	0.000103
H37	H	0.231775	1.024589	0.406270
H38	H	-0.037950	0.421231	0.000105
H39	H	-0.033815	0.578589	0.000090
H40	H	0.374539	0.387617	0.000088
H41	H	-0.397741	0.920135	0.000079
H42	H	0.037236	0.893140	0.645925
H43	H	0.037252	0.893116	0.354295
H44	H	0.231763	1.024612	0.593895
