data_functionalizedCrystal
_audit_creation_method	'MofGen! by Chris Wilmer'
_symmetry_space_group_name_H-M	'P1'
_symmetry_Int_Tables_number	1
_symmetry_cell_setting	triclinic
loop_
_symmetry_equiv_pos_as_xyz
  x,y,z
_cell_length_a	13.339070
_cell_length_b	14.971486
_cell_length_c	13.448316
_cell_angle_alpha	90.006811
_cell_angle_beta	90.006432
_cell_angle_gamma	99.621711
loop_
_atom_site_label
_atom_site_type_symbol
_atom_site_fract_x
_atom_site_fract_y
_atom_site_fract_z
O1	O	-1.342828	-0.448553	-0.082730
O2	O	-1.048230	-0.389678	-0.082724
O3	O	-1.203425	-0.290868	-0.082720
O4	O	-1.187633	-0.547363	-0.082734
O5	O	-1.203406	-0.290854	0.082664
O6	O	-1.048210	-0.389665	0.082660
O7	O	-1.342809	-0.448540	0.082654
Cu8	Cu	-1.195508	-0.419101	0.097758
Cu9	Cu	-1.195531	-0.419117	-0.097828
O10	O	-1.187614	-0.547350	0.082650
C11	C	-1.010519	-0.379726	-0.000031
C12	C	-0.898181	-0.350082	-0.000028
C13	C	-1.202709	-0.257362	-0.000028
C14	C	-1.200593	-0.157541	-0.000029
C15	C	-1.380520	-0.458491	-0.000041
C16	C	-1.492857	-0.488136	-0.000050
C17	C	-0.533667	-0.580579	-0.000057
C18	C	-0.639214	-0.608433	-0.000062
C19	C	-0.703961	-0.543848	-0.000053
C20	C	-0.663151	-0.451403	-0.000040
C21	C	-0.557594	-0.423545	-0.000042
C22	C	-0.727888	-0.386815	-0.000039
C23	C	-0.687078	-0.294370	-0.000025
C24	C	-0.581532	-0.266517	-0.000027
C25	C	-0.516785	-0.331102	-0.000036
C26	C	-0.833444	-0.414672	-0.000036
C27	C	-0.857372	-0.257639	-0.000022
C28	C	-0.751825	-0.229784	-0.000016
C29	C	-1.188330	-0.580856	-0.000044
C30	C	-1.190446	-0.680676	-0.000049
N31	N	-1.195499	-0.419091	0.235322
C32	C	-1.291766	-0.122857	-0.000030
C33	C	-1.289771	-0.029064	-0.000040
C34	C	-1.196602	0.030042	-0.000042
C35	C	-1.105422	-0.004648	-0.000044
C36	C	-1.107418	-0.098439	-0.000041
C37	C	-1.101269	0.190841	-0.000047
C38	C	-1.099273	0.284639	-0.000048
C39	C	-1.283622	0.260216	-0.000047
C40	C	-1.285618	0.166425	-0.000044
C41	C	-1.194437	0.131741	-0.000044
N42	N	-1.195548	-0.419121	-0.235392
C43	C	-1.264241	-0.375368	0.287364
C44	C	-1.264247	-0.375369	0.391467
C45	C	-1.195516	-0.419099	0.443527
C46	C	-1.126767	-0.462823	0.391477
C47	C	-1.126756	-0.462816	0.287376
C48	C	-1.126795	-0.462836	0.608457
C49	C	-1.126806	-0.462844	0.712566
C50	C	-1.264286	-0.375389	0.712549
C51	C	-1.264275	-0.375382	0.608448
C52	C	-1.195527	-0.419108	0.556405
H53	H	-0.866661	-0.489941	-0.000044
O54	O	-1.014854	0.052674	0.000084
C55	C	-0.959265	0.037208	0.085749
H56	H	-0.986921	-0.034357	0.114307
H57	H	-0.970908	0.088312	0.145727
C58	C	-0.811491	0.135851	0.024652
C59	C	-0.845452	0.047951	0.059723
H60	H	-0.741286	0.142482	0.008601
H61	H	-0.848943	0.146274	-0.033061
H62	H	-0.821202	0.178428	0.074639
H63	H	-0.835753	0.005377	0.009732
H64	H	-0.807996	0.037521	0.117427
O65	O	-1.059858	-0.505175	0.442003
C66	C	-0.959674	-0.465728	0.416576
H67	H	-0.959098	-0.393970	0.387970
H68	H	-0.929999	-0.507924	0.356149
C69	C	-0.891808	-0.550706	0.544202
C70	C	-0.891100	-0.462568	0.509076
H71	H	-0.849506	-0.548760	0.601259
H72	H	-0.959304	-0.577285	0.561331
H73	H	-0.867081	-0.585860	0.493838
H74	H	-0.915837	-0.427419	0.559435
H75	H	-0.823606	-0.435983	0.491958
H76	H	-0.789901	-0.566533	-0.000060
O77	O	-1.060084	-0.505440	0.236863
C78	C	-1.076617	-0.598099	0.262296
H79	H	-1.157634	-0.618688	0.290893
H80	H	-1.020568	-0.610434	0.322731
C81	C	-0.961446	-0.629551	0.134688
C82	C	-1.060955	-0.654841	0.169803
H83	H	-0.951780	-0.664553	0.077636
H84	H	-0.950303	-0.567124	0.117555
H85	H	-0.914749	-0.639831	0.185059
H86	H	-1.107649	-0.644550	0.119437
H87	H	-1.072105	-0.717267	0.186925
O88	O	-1.331132	-0.332900	0.441867
C89	C	-1.391786	-0.294294	0.373595
H90	H	-1.392949	-0.331252	0.299379
H91	H	-1.358872	-0.219651	0.362549
C92	C	-1.499503	-0.257634	0.505347
C93	C	-1.500938	-0.303032	0.414196
H94	H	-1.566832	-0.263020	0.530393
H95	H	-1.458638	-0.283640	0.551344
H96	H	-1.472070	-0.195435	0.496129
H97	H	-1.528359	-0.365231	0.423417
H98	H	-1.541811	-0.277036	0.368202
O99	O	-1.378430	0.004477	0.000010
C100	C	-1.461090	-0.067803	-0.000005
H101	H	-1.435482	-0.131076	0.031307
H102	H	-1.489662	-0.081547	-0.079344
C103	C	-1.578833	0.034989	0.026402
C104	C	-1.547383	-0.042722	0.064867
H105	H	-1.632065	0.050461	0.066414
H106	H	-1.523145	0.083686	0.026408
H107	H	-1.602636	0.023526	-0.039714
H108	H	-1.523569	-0.031254	0.130977
H109	H	-1.603070	-0.091417	0.064874
H110	H	-1.320262	-0.339786	0.754928
O111	O	-1.059930	-0.505316	0.762984
C112	C	-0.999254	-0.543914	0.694731
H113	H	-0.998073	-0.506951	0.620526
H114	H	-1.032160	-0.618557	0.683647
C115	C	-0.891569	-0.580576	0.826524
C116	C	-0.890112	-0.535172	0.735387
H117	H	-0.824246	-0.575187	0.851604
H118	H	-0.932449	-0.554574	0.872509
H119	H	-0.918995	-0.642774	0.817275
H120	H	-0.862698	-0.472973	0.744639
H121	H	-0.849224	-0.561163	0.689405
H122	H	-1.361484	0.118302	-0.000035
H123	H	-1.320246	-0.339780	0.566061
H124	H	-1.357865	0.288460	-0.000050
H125	H	-1.070809	-0.498438	0.566088
O126	O	-1.330849	-0.332776	0.236711
C127	C	-1.276552	-0.264076	0.176570
H128	H	-1.197433	-0.280058	0.160963
H129	H	-1.269555	-0.196259	0.216744
C130	C	-1.430746	-0.239427	0.096856
C131	C	-1.333573	-0.259060	0.077680
H132	H	-1.465920	-0.236329	0.035857
H133	H	-1.467328	-0.285709	0.137376
H134	H	-1.424901	-0.182914	0.130337
H135	H	-1.339419	-0.315577	0.044211
H136	H	-1.296993	-0.212787	0.037151
H137	H	-1.367634	-0.170976	-0.000023
H138	H	-0.480942	-0.633154	-0.000072
H139	H	-0.672433	-0.683702	-0.000081
H140	H	-0.430839	-0.308427	-0.000031
H141	H	-0.548308	-0.191242	-0.000027
H142	H	-0.718583	-0.154514	-0.000014
H143	H	-0.910089	-0.205048	-0.000019
H144	H	-1.023407	0.332762	-0.000034
H145	H	-1.027020	0.162606	-0.000050
H146	H	-1.033176	-0.126677	-0.000040
