data_functionalizedCrystal
_audit_creation_method	'MofGen! by Chris Wilmer'
_symmetry_space_group_name_H-M	'P1'
_symmetry_Int_Tables_number	1
_symmetry_cell_setting	triclinic
loop_
_symmetry_equiv_pos_as_xyz
  x,y,z
_cell_length_a	14.560438
_cell_length_b	19.851628
_cell_length_c	14.560438
_cell_angle_alpha	89.996477
_cell_angle_beta	60.005799
_cell_angle_gamma	120.003746
loop_
_atom_site_label
_atom_site_type_symbol
_atom_site_fract_x
_atom_site_fract_y
_atom_site_fract_z
Zr1	Zr	1.005044	-0.649023	-0.120243
O2	O	1.196656	-0.541459	-0.266886
O3	O	0.813451	-0.681993	-0.075308
O4	O	1.005039	-0.681999	-0.266885
O5	O	1.005065	-0.541454	0.075831
O6	O	1.005013	-0.792864	-0.266861
O7	O	1.005068	-0.541454	-0.075310
O8	O	0.662297	-0.792854	0.075833
O9	O	1.347782	-0.541464	-0.266864
O10	O	0.892230	-0.778797	-0.056103
O11	O	0.892247	-0.696060	0.056674
O12	O	1.117817	-0.696066	-0.168882
O13	O	1.117834	-0.613329	-0.056105
Zr14	Zr	1.004999	-0.825840	0.120846
Zr15	Zr	1.005003	-0.825840	-0.120206
Zr16	Zr	1.005040	-0.649023	0.120809
Zr17	Zr	1.246072	-0.649030	-0.120208
Zr18	Zr	0.763972	-0.825833	0.120811
O19	O	1.196592	-0.792869	0.075912
O20	O	1.196598	-0.792869	-0.266833
O21	O	1.196650	-0.541459	0.075859
O22	O	0.813387	-0.933404	0.267489
O23	O	0.813393	-0.933404	-0.075256
O24	O	0.813445	-0.681994	0.267437
O25	O	1.004978	-0.933409	-0.075228
O26	O	1.005004	-0.792864	0.267488
O27	O	1.005030	-0.681999	0.267465
O28	O	1.004975	-0.933409	0.075913
O29	O	1.347749	-0.682009	-0.266834
O30	O	0.662294	-0.792854	0.267438
O31	O	0.662262	-0.933399	0.267467
O32	O	0.662265	-0.933399	0.075863
O33	O	1.347778	-0.541464	-0.075259
O34	O	1.347746	-0.682009	-0.075230
O35	O	0.892226	-0.778797	0.169486
O36	O	0.892209	-0.861534	0.056709
O37	O	1.117796	-0.778803	-0.056070
O38	O	1.117813	-0.696066	0.056707
C39	C	0.703533	-0.737423	0.000258
C40	C	0.601210	-0.737420	0.000243
C41	C	1.005073	-0.516261	0.000255
C42	C	1.005090	-0.441198	0.000240
C43	C	0.636352	-0.676348	-0.082992
C44	C	0.540163	-0.676361	-0.082936
C45	C	0.373691	-0.798521	0.083600
C46	C	0.469879	-0.798510	0.083538
C47	C	0.767683	-0.615258	-0.166287
C48	C	0.802832	-0.554181	-0.249528
C49	C	0.706643	-0.554194	-0.249472
C50	C	0.575305	-0.615284	-0.166175
C51	C	1.128073	-0.214740	-0.061222
C52	C	1.066594	-0.192376	-0.105800
C53	C	1.005066	-0.303788	0.000266
C54	C	1.066563	-0.192407	0.044817
C55	C	1.005052	-0.171052	0.000291
C56	C	0.943586	-0.282413	-0.044374
C57	C	0.943572	-0.282441	0.106302
C58	C	0.882003	-0.260131	0.061751
C59	C	1.005077	-0.380252	0.000249
C60	C	1.005030	-0.094593	0.000306
C61	C	1.306510	-0.737440	0.000346
C62	C	1.408833	-0.737443	0.000361
C63	C	1.005027	-0.737431	-0.301218
C64	C	1.005028	-0.737431	-0.403551
C65	C	1.004988	0.041405	0.000337
C66	C	1.005024	-0.033639	0.000320
C67	C	1.122781	-0.694243	-0.510496
C68	C	1.122774	-0.694246	-0.606645
C69	C	0.887253	-0.780625	-0.488889
C70	C	0.887261	-0.780627	-0.392742
C71	C	1.240548	-0.651048	-0.521305
C72	C	1.358310	-0.607856	-0.628255
C73	C	1.358303	-0.607858	-0.724404
C74	C	1.240536	-0.651053	-0.713602
C75	C	1.005016	-0.737432	0.301821
C76	C	1.005015	-0.737432	0.404154
C77	C	0.703482	-0.958593	0.000304
C78	C	0.601142	-1.033653	0.000305
C79	C	0.703528	-0.737423	0.301777
C80	C	0.601203	-0.737420	0.404095
C81	C	0.703477	-0.958593	0.301823
C82	C	0.601135	-1.033653	0.404157
C83	C	1.306566	-0.516270	-0.301220
C84	C	1.408908	-0.441210	-0.403554
C85	C	1.306561	-0.516270	0.000300
C86	C	1.408901	-0.441210	0.000299
C87	C	1.306516	-0.737440	-0.301174
C88	C	1.408840	-0.737443	-0.403492
C89	C	0.553093	-1.025714	-0.058592
C90	C	0.456947	-1.096234	-0.058614
C91	C	0.408846	-1.174693	0.000268
C92	C	0.456904	-1.182630	0.059166
C93	C	0.553055	-1.112111	0.059181
C94	C	0.553065	-1.112098	0.393345
C95	C	0.456918	-1.182631	0.489489
C96	C	0.408835	-1.174719	0.596444
C97	C	0.456915	-1.096267	0.607254
C98	C	0.553067	-1.025735	0.511111
C99	C	1.456989	-0.362765	-0.392742
C100	C	1.553167	-0.292231	-0.488886
C101	C	1.601254	-0.300144	-0.595841
C102	C	1.553169	-0.378596	-0.606650
C103	C	1.457000	-0.449128	-0.510507
C104	C	1.456960	-0.449149	0.059185
C105	C	1.553133	-0.378629	0.059181
C106	C	1.601238	-0.300170	0.000295
C107	C	1.553175	-0.292233	-0.058598
C108	C	1.457011	-0.362752	-0.058599
C109	C	0.553115	-0.780608	0.511051
C110	C	0.456976	-0.780598	0.607186
C111	C	0.457017	-0.694212	0.489395
C112	C	0.553161	-0.694217	0.393262
C113	C	0.601157	-0.823810	0.521883
C114	C	0.553068	-0.867002	0.628844
C115	C	0.456929	-0.866993	0.724979
C116	C	0.408878	-0.823792	0.714153
H117	H	0.846014	-0.615238	-0.166340
C118	C	1.268562	-0.189834	-0.131561
H119	H	1.312067	-0.158489	-0.206892
H120	H	1.312694	-0.157617	-0.100664
H121	H	1.267591	-0.238042	-0.130538
H122	H	0.417830	-1.089756	-0.106576
C123	C	1.606032	-0.205945	-0.476976
H124	H	1.563597	-0.211341	-0.399506
H125	H	1.696804	-0.176633	-0.512010
H126	H	1.590280	-0.176633	-0.512048
H127	H	1.240566	-0.651039	-0.443022
C128	C	1.240523	-0.651063	-0.819361
H129	H	1.153523	-0.682975	-0.797609
H130	H	1.284023	-0.596042	-0.862869
H131	H	1.284001	-0.674195	-0.862842
C132	C	1.707012	-0.222606	0.000309
H133	H	1.728729	-0.238579	0.043825
H134	H	1.782041	-0.190698	-0.074696
H135	H	1.675504	-0.190699	0.031835
H136	H	0.592164	-1.118586	0.107148
C137	C	0.605943	-1.120817	0.275708
H138	H	0.563543	-1.177642	0.283055
H139	H	0.590189	-1.095105	0.235739
H140	H	0.696724	-1.095099	0.235763
C141	C	0.757719	-0.828120	-0.477005
H142	H	0.687588	-0.853844	-0.399540
H143	H	0.752841	-0.790834	-0.512070
H144	H	0.752803	-0.868993	-0.512060
H145	H	0.891627	-0.321249	0.195947
H146	H	0.417782	-1.246505	0.480668
C147	C	0.605928	-0.939448	0.523011
H148	H	0.670086	-0.898568	0.450440
H149	H	0.536894	-0.933274	0.562961
H150	H	0.643439	-0.933266	0.562967
H151	H	1.417842	-0.356307	-0.305663
C152	C	1.707020	-0.222554	-0.701588
H153	H	1.728749	-0.174705	-0.679821
H154	H	1.782046	-0.222536	-0.745089
H155	H	1.675494	-0.222545	-0.745082
H156	H	1.417853	-0.512999	-0.519324
C157	C	1.487843	-0.560348	-0.640136
H158	H	1.470985	-0.566525	-0.567559
H159	H	1.536223	-0.581674	-0.680079
H160	H	1.536229	-0.503526	-0.680090
H161	H	1.118583	-0.153567	-0.195464
H162	H	0.592205	-0.902170	0.637650
C163	C	1.606064	-0.387289	-0.724303
H164	H	1.670211	-0.334044	-0.780005
H165	H	1.643567	-0.416595	-0.732747
H166	H	1.537035	-0.416580	-0.732748
H167	H	0.417786	-0.902155	0.812067
H168	H	1.417884	-0.356277	-0.106549
C169	C	0.757737	-0.828128	-0.275100
H170	H	0.687598	-0.853843	-0.282432
H171	H	0.752838	-0.868996	-0.235141
H172	H	0.752858	-0.790843	-0.235154
C173	C	1.487832	-0.560351	-0.842043
H174	H	1.557966	-0.534623	-0.834704
H175	H	1.492727	-0.597624	-0.881998
H176	H	1.492725	-0.519480	-0.881997
C177	C	1.605972	-0.387374	0.123979
H178	H	1.563527	-0.444202	0.159062
H179	H	1.696744	-0.361672	0.073179
H180	H	1.590214	-0.361655	0.179692
H181	H	0.679437	-0.823824	0.443612
C182	C	0.605996	-0.939417	-0.123369
H183	H	0.670137	-0.898547	-0.114927
H184	H	0.643510	-0.933233	-0.200826
H185	H	0.536970	-0.933230	-0.094304
C186	C	0.303137	-0.823774	0.819900
H187	H	0.281376	-0.855684	0.885152
H188	H	0.334673	-0.768749	0.819889
H189	H	0.228112	-0.846898	0.819903
H190	H	0.417752	-1.089836	0.694349
C191	C	0.303060	-1.252309	0.702191
H192	H	0.281315	-1.300158	0.680424
H193	H	0.334557	-1.252326	0.745704
H194	H	0.228034	-1.252318	0.745675
H195	H	0.909770	-0.504447	-0.317350
H196	H	0.496988	-0.615302	-0.166152
H197	H	0.891636	-0.321107	-0.082145
C198	C	1.606090	-0.205927	-0.123357
H199	H	1.670232	-0.165072	-0.114904
H200	H	1.643605	-0.199725	-0.200818
H201	H	1.537069	-0.199734	-0.094276
C202	C	0.404161	-0.646699	0.477484
H203	H	0.446579	-0.620973	0.400015
H204	H	0.313385	-0.683973	0.512537
H205	H	0.419936	-0.605827	0.512539
H206	H	0.777913	-0.278735	0.113748
H207	H	1.417800	-0.513027	0.107144
H208	H	0.592314	-0.659051	0.306173
H209	H	0.735267	-0.504467	-0.317256
H210	H	0.266752	-0.848256	0.151418
H211	H	0.330552	-1.232107	0.000248
H212	H	0.441260	-0.848239	0.151316
H213	H	1.118574	-0.153607	0.082485
H214	H	0.417725	-1.246520	0.107106
