data_functionalizedCrystal
_audit_creation_method	'MofGen! by Chris Wilmer'
_symmetry_space_group_name_H-M	'P1'
_symmetry_Int_Tables_number	1
_symmetry_cell_setting	triclinic
loop_
_symmetry_equiv_pos_as_xyz
  x,y,z
_cell_length_a	19.377372
_cell_length_b	19.377369
_cell_length_c	19.377574
_cell_angle_alpha	82.425876
_cell_angle_beta	104.019690
_cell_angle_gamma	62.069167
loop_
_atom_site_label
_atom_site_type_symbol
_atom_site_fract_x
_atom_site_fract_y
_atom_site_fract_z
Zr1	Zr	0.435570	0.939011	-0.001113
O2	O	0.307931	1.041014	-0.072909
O3	O	0.485573	0.808642	0.000753
O4	O	0.439850	0.940576	-0.115422
O5	O	0.377351	0.917738	0.157819
O6	O	0.531539	0.974077	-0.126042
O7	O	0.353654	0.909081	0.043265
O8	O	0.613330	0.738072	0.081772
O9	O	0.295560	1.153743	-0.049995
O10	O	0.562187	0.897772	0.017959
O11	O	0.511445	0.879232	0.111376
O12	O	0.457612	1.034566	-0.025404
O13	O	0.406869	1.016026	0.068012
Zr14	Zr	0.619599	1.006249	0.164649
Zr15	Zr	0.581805	0.992442	-0.018052
Zr16	Zr	0.473364	0.952819	0.181587
Zr17	Zr	0.415841	1.118801	0.035432
Zr18	Zr	0.639328	0.826460	0.128104
O19	O	0.569596	1.136618	0.162783
O20	O	0.515857	1.116985	-0.096994
O21	O	0.361669	1.060647	0.186867
O22	O	0.747238	0.904246	0.236445
O23	O	0.693500	0.884614	-0.023332
O24	O	0.539311	0.828275	0.260529
O25	O	0.677818	1.027522	0.005716
O26	O	0.615319	1.004685	0.278957
O27	O	0.523629	0.971184	0.289578
O28	O	0.701515	1.036180	0.120271
O29	O	0.411797	1.196213	-0.063459
O30	O	0.643371	0.749047	0.226995
O31	O	0.759608	0.791518	0.213531
O32	O	0.729567	0.780542	0.068308
O33	O	0.325602	1.164718	0.095227
O34	O	0.441839	1.207188	0.081763
O35	O	0.597557	0.910694	0.188940
O36	O	0.648299	0.929235	0.095523
O37	O	0.543724	1.066029	0.052160
O38	O	0.492981	1.047488	0.145576
C39	C	0.552262	0.747741	0.036055
C40	C	0.560638	0.671416	0.020541
C41	C	0.456089	0.371817	0.213536
C42	C	0.464065	0.300045	0.199008
C43	C	0.517036	0.319409	0.101489
C44	C	0.509069	0.391182	0.116011
C45	C	0.478594	0.417380	0.172035
C46	C	0.531573	0.436745	0.074510
C47	C	0.523601	0.508514	0.089029
C48	C	0.493126	0.534719	0.145049
C49	C	0.470622	0.489148	0.186554
C50	C	0.562042	0.410549	0.018482
C51	C	0.584546	0.456112	-0.023019
C52	C	0.576581	0.527879	-0.008497
C53	C	0.546105	0.554084	0.047523
C54	C	0.599084	0.573449	-0.050002
C55	C	0.591113	0.645218	-0.035483
C56	C	0.538133	0.625852	0.062042
C57	C	0.344667	0.905797	0.102955
C58	C	0.282587	0.883114	0.110146
C59	C	-0.194519	1.165530	0.020617
C60	C	-0.252839	1.144197	0.027380
C61	C	-0.143661	1.001395	0.072649
C62	C	-0.085330	1.022716	0.065892
C63	C	-0.110766	1.104785	0.039875
C64	C	-0.001577	0.961971	0.085150
C65	C	0.056748	0.983290	0.078390
C66	C	0.031319	1.065354	0.052372
C67	C	-0.052442	1.126104	0.033115
C68	C	0.023857	0.879902	0.111162
C69	C	0.107610	0.819157	0.130421
C70	C	0.165937	0.840476	0.123666
C71	C	0.140509	0.922540	0.097648
C72	C	0.249698	0.779726	0.142923
C73	C	0.308023	0.801045	0.136163
C74	C	0.198833	0.943859	0.090888
C75	C	0.710502	1.039464	0.060580
C76	C	0.772582	1.062146	0.053389
C77	C	0.480310	0.955359	-0.146763
C78	C	0.464265	0.949497	-0.224324
C79	C	0.502906	1.197519	0.127480
C80	C	0.494531	1.273845	0.142994
C81	C	0.664042	1.022486	-0.508686
C82	C	0.648947	1.016973	-0.581565
C83	C	0.547928	0.980063	-0.569845
C84	C	0.563011	0.985577	-0.496965
C85	C	0.621070	1.006787	-0.466391
C86	C	0.520039	0.969878	-0.454670
C87	C	0.535125	0.975388	-0.381795
C88	C	0.593182	0.996595	-0.351215
C89	C	0.636155	1.012297	-0.393516
C90	C	0.461985	0.948662	-0.485244
C91	C	0.419013	0.932964	-0.442949
C92	C	0.434094	0.938478	-0.370074
C93	C	0.492152	0.959686	-0.339494
C94	C	0.391121	0.922777	-0.327773
C95	C	0.406206	0.928286	-0.254898
C96	C	0.507237	0.965195	-0.266619
C97	C	0.574859	0.989902	0.310298
C98	C	0.590904	0.995763	0.387859
C99	C	0.735180	0.814574	0.014868
C100	C	0.805635	0.760932	-0.007837
C101	C	0.599537	0.765012	0.264586
C102	C	0.623957	0.694549	0.326633
C103	C	0.782454	0.831846	0.243398
C104	C	0.868955	0.784065	0.298254
C105	C	0.272714	1.113415	-0.079863
C106	C	0.186214	1.161196	-0.134719
C107	C	0.319989	1.130686	0.148668
C108	C	0.249533	1.184329	0.171373
C109	C	0.455632	1.180248	-0.101050
C110	C	0.431211	1.250712	-0.163097
C111	C	0.793771	0.719317	-0.058996
C112	C	0.859962	0.668920	-0.080344
C113	C	0.938018	0.660136	-0.050529
C114	C	0.949880	0.701757	0.000632
C115	C	0.883689	0.752157	0.021975
C116	C	0.680376	0.677882	0.396266
C117	C	0.703319	0.611684	0.454575
C118	C	0.669847	0.562150	0.443247
C119	C	0.613421	0.578821	0.373608
C120	C	0.590474	0.645022	0.315302
C121	C	0.936069	0.771307	0.275252
C122	C	1.017349	0.726423	0.326789
C123	C	1.031512	0.694293	0.401328
C124	C	0.964390	0.707056	0.424330
C125	C	0.883112	0.751944	0.372794
C126	C	0.119098	1.173963	-0.111715
C127	C	0.037816	1.218869	-0.163248
C128	C	0.023652	1.251002	-0.237785
C129	C	0.090775	1.238235	-0.260789
C130	C	0.172055	1.193334	-0.209255
C131	C	0.261395	1.225951	0.222525
C132	C	0.195198	1.276365	0.243857
C133	C	0.117141	1.285152	0.214041
C134	C	0.105280	1.243528	0.162882
C135	C	0.171475	1.193119	0.141547
C136	C	0.464699	1.300228	-0.151748
C137	C	0.441770	1.366432	-0.210044
C138	C	0.385348	1.383122	-0.279687
C139	C	0.351860	1.333598	-0.291036
C140	C	0.374795	1.267392	-0.232742
H141	H	0.486632	0.593160	0.156866
H142	H	0.586172	0.538481	0.364395
H143	H	0.079232	1.264404	-0.321483
H144	H	0.128310	0.752336	0.151602
H145	H	0.270396	0.712906	0.164100
F146	F	0.524750	1.282479	-0.077633
F147	F	0.979477	0.672855	0.503663
F148	F	0.158839	1.148820	0.087108
F149	F	1.088774	0.712846	0.302293
F150	F	0.477415	1.419131	-0.197949
H151	H	0.366680	1.437033	-0.327148
F152	F	0.811689	0.765512	0.397286
F153	F	0.207839	1.320655	0.298306
H154	H	0.130616	1.147798	-0.051027
H155	H	0.063248	1.326201	0.231420
H156	H	0.544536	0.658582	0.258604
H157	H	0.305920	1.347198	-0.347747
H158	H	-0.016827	1.229254	-0.144504
H159	H	0.991908	0.619093	-0.067914
F160	F	-0.062858	1.298787	-0.292624
F161	F	0.243480	1.179747	-0.233751
F162	F	0.022201	1.252886	0.131157
F163	F	0.339140	1.214703	-0.244830
H164	H	0.688538	0.508247	0.490730
F165	F	0.505705	0.653734	0.121674
H166	H	0.324948	1.218801	0.246814
F167	F	0.615063	0.693713	-0.079654
F168	F	0.438194	0.517030	0.246186
H169	H	-0.122961	0.934575	0.093830
F170	F	1.032960	0.692397	0.032359
F171	F	0.921013	0.805499	0.195926
H172	H	0.376223	0.751581	0.151860
F173	F	0.631506	0.545564	-0.109631
F174	F	1.118021	0.646520	0.456169
F175	F	0.710703	0.728657	-0.090738
F176	F	0.440108	0.251556	0.243182
F177	F	0.549465	0.291522	0.041864
F178	F	0.423661	0.399698	0.273168
H179	H	0.568525	0.352113	0.006660
H180	H	0.749266	0.598120	0.511273
F181	F	0.896330	0.796439	0.076429
H182	H	0.609356	0.434775	-0.068636
H183	H	0.178124	1.010690	0.069727
F184	F	0.093394	1.088044	0.045175
H185	H	0.850288	0.635036	-0.122001
F186	F	-0.221587	1.252878	-0.007065
F187	F	-0.079510	1.213452	0.005433
F188	F	0.716013	0.730588	0.408337
H189	H	-0.321038	1.193670	0.011694
H190	H	-0.023639	0.862546	0.116659
H191	H	0.554508	0.982476	-0.241727
F192	F	0.609240	1.002454	-0.273652
H193	H	0.683426	1.029577	-0.368624
H194	H	0.711313	1.039766	-0.483794
F195	F	0.694692	1.033681	-0.626573
H196	H	0.500659	0.962790	-0.594746
H197	H	0.449708	0.944173	-0.544582
H198	H	0.343856	0.905499	-0.352674
F199	F	0.357227	0.910387	-0.475493
F200	F	0.360472	0.911575	-0.209883
