data_functionalizedCrystal
_audit_creation_method	'MofGen! by Chris Wilmer'
_symmetry_space_group_name_H-M	'P1'
_symmetry_Int_Tables_number	1
_symmetry_cell_setting	triclinic
loop_
_symmetry_equiv_pos_as_xyz
  x,y,z
_cell_length_a	10.723023
_cell_length_b	16.109301
_cell_length_c	14.586319
_cell_angle_alpha	89.998857
_cell_angle_beta	90.001882
_cell_angle_gamma	96.035434
loop_
_atom_site_label
_atom_site_type_symbol
_atom_site_fract_x
_atom_site_fract_y
_atom_site_fract_z
O1	O	-0.160392	1.104074	-0.076186
O2	O	-0.180352	0.862130	-0.076198
O3	O	0.011278	0.988683	-0.076190
O4	O	-0.352022	0.977521	-0.076194
O5	O	0.011281	0.988674	0.076291
O6	O	-0.180349	0.862121	0.076282
O7	O	-0.160389	1.104065	0.076295
Cu8	Cu	-0.170369	0.983092	0.090211
Cu9	Cu	-0.170373	0.983103	-0.090115
O10	O	-0.352020	0.977512	0.076287
C11	C	-0.179542	0.831146	0.000040
C12	C	-0.177118	0.738836	0.000035
C13	C	-0.282903	0.430460	0.000050
C14	C	-0.285193	0.517194	0.000045
C15	C	-0.057830	0.535730	0.000035
C16	C	-0.055542	0.448997	0.000034
C17	C	-0.168082	0.396364	0.000046
C18	C	-0.172660	0.569830	0.000042
C19	C	-0.175141	0.663871	0.000036
C20	C	-0.165601	0.302318	0.000050
C21	C	-0.398510	0.978328	0.000046
C22	C	-0.537032	0.980758	0.000044
C23	C	-0.598788	0.981837	0.079033
C24	C	-0.741958	0.984349	0.079034
C25	C	0.057768	0.987866	0.000049
C26	C	0.196290	0.985436	0.000044
C27	C	-0.161199	1.135049	0.000054
C28	C	-0.163624	1.227359	0.000053
N29	N	-0.170366	0.983091	0.217043
N30	N	-0.170366	0.983111	-0.216947
C31	C	-0.085541	1.039148	0.452053
C32	C	-0.085538	1.039150	0.548034
C33	C	-0.255195	0.927048	0.548037
C34	C	-0.255191	0.927042	0.452057
C35	C	-0.170365	0.983097	0.404068
C36	C	-0.170366	0.983105	0.596029
C37	C	-0.170364	0.983107	0.700096
C38	C	-0.170366	0.983094	0.299994
H39	H	-0.378691	0.544949	0.000048
H40	H	0.037965	0.421237	0.000028
C41	C	-0.406701	0.372567	0.000055
N42	N	-0.499949	0.328963	0.000056
C43	C	0.065958	0.593633	0.000038
N44	N	0.159198	0.637246	0.000046
C45	C	0.007787	1.100804	0.600814
N46	N	0.078087	1.147241	0.640567
H47	H	-0.545668	0.980897	0.146658
C48	C	-0.348496	0.865390	0.600834
N49	N	-0.418772	0.818947	0.640600
C50	C	-0.813702	0.985600	0.170396
N51	N	-0.867744	0.986541	0.239213
H52	H	-0.016468	1.084789	0.412982
C53	C	-0.731974	0.984183	-0.091322
N54	N	-0.677933	0.983237	-0.160139
C55	C	-0.348567	0.865416	0.399270
N56	N	-0.418913	0.819015	0.359511
H57	H	-0.590154	0.981687	-0.067581
