data_functionalizedCrystal
_audit_creation_method	'MofGen! by Chris Wilmer'
_symmetry_space_group_name_H-M	'P1'
_symmetry_Int_Tables_number	1
_symmetry_cell_setting	triclinic
loop_
_symmetry_equiv_pos_as_xyz
  x,y,z
_cell_length_a	14.560432
_cell_length_b	20.875641
_cell_length_c	20.875641
_cell_angle_alpha	60.089808
_cell_angle_beta	90.002442
_cell_angle_gamma	62.439975
loop_
_atom_site_label
_atom_site_type_symbol
_atom_site_fract_x
_atom_site_fract_y
_atom_site_fract_z
Zr1	Zr	0.926808	0.694337	-0.105754
O2	O	0.792216	0.820579	-0.209021
O3	O	0.963032	0.563082	-0.070822
O4	O	0.976558	0.687105	-0.204294
O5	O	0.773750	0.704009	0.026010
O6	O	1.127699	0.687103	-0.204291
O7	O	0.778690	0.696556	-0.075549
O8	O	1.103504	0.465249	0.034466
O9	O	0.797944	0.925864	-0.212746
O10	O	1.097360	0.618925	-0.059879
O11	O	0.980879	0.624489	0.015911
O12	O	0.996803	0.770510	-0.141235
O13	O	0.880321	0.776073	-0.065444
Zr14	Zr	1.159980	0.706222	0.056225
Zr15	Zr	1.167860	0.694335	-0.105750
Zr16	Zr	0.918929	0.706225	0.056221
Zr17	Zr	0.935945	0.862255	-0.111696
Zr18	Zr	1.150844	0.538305	0.062168
O19	O	1.123757	0.837478	0.021293
O20	O	1.134961	0.820575	-0.209015
O21	O	0.781012	0.837481	0.021287
O22	O	1.294573	0.579981	0.159492
O23	O	1.305777	0.563078	-0.070816
O24	O	0.951828	0.579984	0.159486
O25	O	1.313039	0.696550	-0.075539
O26	O	1.110231	0.713455	0.154765
O27	O	0.959090	0.713456	0.154762
O28	O	1.308099	0.704004	0.026020
O29	O	0.989548	0.925862	-0.212743
O30	O	1.097241	0.474698	0.163214
O31	O	1.288845	0.474696	0.163218
O32	O	1.295108	0.465247	0.034469
O33	O	0.791681	0.935313	-0.083998
O34	O	0.983285	0.935311	-0.083995
O35	O	1.089986	0.630050	0.091706
O36	O	1.206468	0.624486	0.015915
O37	O	1.105910	0.776071	-0.065440
O38	O	0.989429	0.781635	0.010350
C39	C	1.031967	0.490241	-0.017331
C40	C	1.028088	0.418955	-0.014809
C41	C	1.087065	0.382561	-0.053185
C42	C	1.083423	0.315577	-0.050808
C43	C	1.020797	0.284992	-0.010057
C44	C	0.961818	0.321389	0.028324
C45	C	0.965467	0.388368	0.025950
C46	C	1.003371	0.084981	0.001288
C47	C	0.999724	0.017999	0.003657
C48	C	1.121331	0.012190	-0.075474
C49	C	1.124969	0.079174	-0.077848
C50	C	1.065994	0.115562	-0.039463
N51	N	1.017070	0.216525	-0.007628
N52	N	1.069728	0.184023	-0.041888
C53	C	0.741875	0.700283	-0.024770
C54	C	0.639543	0.700284	-0.024772
C55	C	0.644963	0.692082	-0.136681
C56	C	0.599596	0.687984	-0.192636
C57	C	0.503446	0.687984	-0.192633
C58	C	0.452663	0.692080	-0.136669
C59	C	0.498029	0.696178	-0.080714
C60	C	0.594180	0.696180	-0.080724
C61	C	0.492613	0.704374	0.031197
C62	C	0.588759	0.704380	0.031193
C63	C	0.441829	0.708469	0.087162
C64	C	0.487192	0.712573	0.143115
C65	C	0.583347	0.712574	0.143109
C66	C	0.634126	0.708478	0.087148
C67	C	1.344914	0.700277	-0.024759
C68	C	1.447246	0.700276	-0.024757
C69	C	1.053251	0.685410	-0.227370
C70	C	1.056596	0.680364	-0.296133
C71	C	1.054822	0.910319	-0.032197
C72	C	1.058701	0.981605	-0.034720
C73	C	1.005680	0.757117	-0.370905
C74	C	1.008837	0.752370	-0.435512
C75	C	1.062905	0.670869	-0.425345
C76	C	1.113828	0.594111	-0.350566
C77	C	1.110677	0.598858	-0.285961
C78	C	1.077965	0.648185	-0.614011
C79	C	1.081109	0.643443	-0.678624
C80	C	0.976120	0.801703	-0.763565
C81	C	0.972968	0.806443	-0.698955
C82	C	1.023895	0.729685	-0.624182
N83	N	1.066131	0.666015	-0.491383
N84	N	1.020676	0.734540	-0.558146
C85	C	1.033538	0.715149	0.177842
C86	C	1.030193	0.720196	0.246604
C87	C	1.333486	0.490237	-0.017326
C88	C	1.431940	0.418951	-0.014802
C89	C	1.022110	0.505110	0.185275
C90	C	1.014886	0.438871	0.256560
C91	C	1.323629	0.505107	0.185280
C92	C	1.418738	0.438867	0.256567
C93	C	0.763160	0.895453	-0.234809
C94	C	0.668051	0.961693	-0.306096
C95	C	0.753303	0.910322	-0.032203
C96	C	0.654849	0.981609	-0.034727
C97	C	1.064679	0.895450	-0.234803
C98	C	1.071903	0.961689	-0.306089
C99	C	1.421223	0.382571	-0.053187
C100	C	1.513723	0.315598	-0.050830
C101	C	1.616939	0.285002	-0.010083
C102	C	1.627655	0.321389	0.028303
C103	C	1.535156	0.388365	0.025941
C104	C	1.068446	0.410668	0.329607
C105	C	1.061655	0.348439	0.396593
C106	C	1.001309	0.314410	0.390530
C107	C	0.947742	0.342619	0.317476
C108	C	0.954528	0.404851	0.250491
C109	C	1.524215	0.404856	0.250483
C110	C	1.613590	0.342625	0.317458
C111	C	1.597486	0.314402	0.390517
C112	C	1.491998	0.348420	0.396600
C113	C	1.402626	0.410654	0.329625
C114	C	0.562575	0.995712	-0.300012
C115	C	0.473201	1.057964	-0.366988
C116	C	0.489305	1.086190	-0.440047
C117	C	0.594792	1.052168	-0.446130
C118	C	0.684164	0.989922	-0.379155
C119	C	0.665567	1.017996	0.003651
C120	C	0.573069	1.084986	0.001276
C121	C	0.469853	1.115584	-0.039473
C122	C	0.459137	1.079194	-0.077856
C123	C	0.551635	1.012209	-0.075485
C124	C	1.132258	0.995698	-0.300001
C125	C	1.139067	1.057928	-0.366975
C126	C	1.085513	1.086152	-0.440035
C127	C	1.025156	1.052136	-0.446121
C128	C	1.018354	0.989903	-0.379148
H129	H	0.955354	0.114597	0.032547
C130	C	0.633240	0.717088	0.204658
H131	H	0.589217	0.719534	0.237981
H132	H	0.704219	0.666642	0.234147
H133	H	0.637041	0.767889	0.179812
C134	C	1.718677	0.211322	-0.007484
H135	H	1.697501	0.194035	-0.036175
H136	H	1.764410	0.231710	-0.029441
H137	H	1.756874	0.162754	0.044775
C138	C	0.930904	-0.015694	0.048538
H139	H	0.896332	0.015551	0.071080
H140	H	0.877428	-0.007250	0.014039
H141	H	0.976529	-0.076184	0.088208
H142	H	1.670268	0.263727	0.445046
C143	C	1.148311	0.275532	-0.093010
H144	H	1.137187	0.231251	-0.085749
H145	H	1.124395	0.319786	-0.146764
H146	H	1.223402	0.250835	-0.072534
C147	C	0.655457	0.683475	-0.254191
H148	H	0.614673	0.681025	-0.287510
H149	H	0.659501	0.733922	-0.283686
H150	H	0.726661	0.632676	-0.229349
H151	H	0.416523	1.136874	-0.494576
C152	C	0.913503	0.896092	-0.710138
H153	H	0.918912	0.887926	-0.660952
H154	H	0.945720	0.927826	-0.738174
H155	H	0.839177	0.927827	-0.738178
H156	H	0.394544	1.170127	-0.041398
H157	H	0.910833	0.296478	0.061508
H158	H	0.981555	1.075126	-0.505616
C159	C	0.539836	0.972178	-0.117693
H160	H	0.609701	0.927904	-0.110453
H161	H	0.497504	0.947494	-0.097226
H162	H	0.505033	1.016447	-0.171449
H163	H	1.138056	0.407462	-0.086373
H164	H	0.917439	0.418002	0.057199
H165	H	1.478902	0.325432	0.456094
C166	C	0.750721	0.692087	-0.136690
H167	H	0.774471	0.689057	-0.178029
H168	H	0.737891	0.744220	-0.143186
H169	H	0.805059	0.642973	-0.088859
C170	C	1.186207	-0.027841	-0.117688
H171	H	1.224021	-0.000029	-0.142301
H172	H	1.236820	-0.088571	-0.081300
H173	H	1.137798	-0.019604	-0.155521
H174	H	1.175869	0.972729	-0.240518
H175	H	0.934658	0.864195	-0.824451
H176	H	1.188214	1.085618	-0.362005
C177	C	0.453540	0.683478	-0.254182
H178	H	0.497548	0.681043	-0.287515
H179	H	0.449721	0.632689	-0.229342
H180	H	0.382561	0.733936	-0.283671
H181	H	1.125137	0.577072	-0.670338
H182	H	0.607892	1.075158	-0.505623
H183	H	0.374380	0.692069	-0.136665
C184	C	0.345596	1.112852	-0.122670
H185	H	0.292051	1.157949	-0.118573
H186	H	0.341094	1.135166	-0.175648
H187	H	0.333588	1.066201	-0.101420
H188	H	0.363543	0.708464	0.087165
H189	H	0.961644	0.823484	-0.379192
H190	H	1.091060	1.136827	-0.494563
C191	C	0.951945	0.952509	-0.385854
H192	H	0.921020	0.978243	-0.438960
H193	H	0.998158	0.891001	-0.360060
H194	H	0.895667	0.965234	-0.362693
C195	C	1.741194	0.287720	0.073128
H196	H	1.794739	0.242614	0.069040
H197	H	1.753218	0.334358	0.051901
H198	H	1.745678	0.265395	0.126109
C199	C	0.431330	0.717080	0.204666
H200	H	0.367569	0.716493	0.196653
H201	H	0.479555	0.668148	0.254822
H202	H	0.412380	0.769394	0.200484
C203	C	0.739889	0.708475	0.087144
H204	H	0.759635	0.711506	0.128481
H205	H	0.796218	0.656342	0.093638
H206	H	0.729055	0.757589	0.039311
C207	C	0.584870	1.125006	0.043498
H208	H	0.515005	1.169292	0.036245
H209	H	0.619669	1.080740	0.097250
H210	H	0.627206	1.149692	0.023031
H211	H	0.770045	0.962224	-0.384118
H212	H	0.967378	0.814870	-0.496392
C213	C	0.779095	0.984350	0.048473
H214	H	0.832659	0.939239	0.044400
H215	H	0.791094	1.031002	0.027229
H216	H	0.783574	0.962041	0.101452
C217	C	1.133899	0.563757	-0.531769
H218	H	1.124270	0.578251	-0.494745
H219	H	1.102663	0.530511	-0.524952
H220	H	1.209263	0.530424	-0.524865
C221	C	1.193858	0.112812	-0.122673
H222	H	1.228468	0.081539	-0.145185
H223	H	1.148298	0.173300	-0.162350
H224	H	1.247323	0.104335	-0.088132
H225	H	1.337188	0.407480	-0.086377
H226	H	1.157857	0.527751	-0.342293
H227	H	0.910915	0.427806	0.191016
C228	C	1.166680	0.514431	-0.203712
H229	H	1.199323	0.465211	-0.206909
H230	H	1.220901	0.512992	-0.176741
H231	H	1.114356	0.512995	-0.176748
H232	H	1.504977	0.285979	-0.082089
C233	C	1.546957	0.428367	0.068178
H234	H	1.621678	0.400541	0.092788
H235	H	1.517003	0.489098	0.031805
H236	H	1.509489	0.420119	0.106015
C237	C	1.541945	0.435895	0.170124
H238	H	1.473618	0.477827	0.131101
H239	H	1.583588	0.461612	0.163534
H240	H	1.579561	0.387390	0.166160
C241	C	1.286606	0.448050	0.336328
H242	H	1.289825	0.422316	0.389434
H243	H	1.251215	0.509558	0.310534
H244	H	1.247207	0.435326	0.313166
H245	H	1.105280	0.325479	0.456071
C246	C	1.134824	0.448095	0.336287
H247	H	1.131210	0.489195	0.285936
H248	H	1.105857	0.476198	0.362203
H249	H	1.208368	0.401976	0.364839
H250	H	0.995792	0.263737	0.445080
H251	H	0.898609	0.314904	0.312551
H252	H	1.699475	0.314934	0.312491
C253	C	0.544839	0.964684	-0.219656
H254	H	0.469217	0.993876	-0.225636
H255	H	0.575143	0.903420	-0.190561
H256	H	0.579198	0.977638	-0.193201
C257	C	0.357178	1.095369	-0.360283
H258	H	0.360395	1.069628	-0.307177
H259	H	0.321800	1.156874	-0.386067
H260	H	0.317768	1.082661	-0.383456
