data_functionalizedCrystal
_audit_creation_method	'MofGen! by Chris Wilmer'
_symmetry_space_group_name_H-M	'P1'
_symmetry_Int_Tables_number	1
_symmetry_cell_setting	triclinic
loop_
_symmetry_equiv_pos_as_xyz
  x,y,z
_cell_length_a	16.992695
_cell_length_b	10.654554
_cell_length_c	9.130313
_cell_angle_alpha	89.997303
_cell_angle_beta	89.998038
_cell_angle_gamma	92.422467
loop_
_atom_site_label
_atom_site_type_symbol
_atom_site_fract_x
_atom_site_fract_y
_atom_site_fract_z
O1	O	-0.110207	1.677357	-0.121804
O2	O	-0.120702	1.312786	-0.121799
O3	O	-0.001304	1.493610	-0.121814
O4	O	-0.229605	1.496533	-0.121789
O5	O	-0.001301	1.493602	0.121785
O6	O	-0.120698	1.312778	0.121800
O7	O	-0.110204	1.677349	0.121795
Cu8	Cu	-0.115451	1.495063	0.144040
Cu9	Cu	-0.115455	1.495072	-0.144044
O10	O	-0.229602	1.496525	0.121810
C11	C	-0.119929	1.265918	0.000001
C12	C	-0.117621	1.126275	0.000001
C13	C	-0.042982	0.937263	-0.000026
C14	C	-0.045150	1.068472	-0.000011
C15	C	-0.187929	1.052862	0.000013
C16	C	-0.185761	0.921656	0.000009
C17	C	0.039450	0.946277	-0.000046
C18	C	0.037283	1.077486	-0.000031
C19	C	-0.258837	1.500289	0.000014
C20	C	-0.345942	1.511509	0.000023
C21	C	-0.395593	1.403258	0.000024
C22	C	-0.477437	1.413807	0.000005
C23	C	-0.509628	1.532608	-0.000003
C24	C	-0.459971	1.640867	-0.000009
C25	C	-0.378129	1.630316	-0.000001
C26	C	-0.753464	1.576335	-0.000037
C27	C	-0.835313	1.586877	-0.000041
C28	C	-0.852773	1.359816	-0.000030
C29	C	-0.770928	1.349277	-0.000013
C30	C	-0.721278	1.457535	-0.000026
N31	N	-0.593286	1.543394	-0.000018
N32	N	-0.637622	1.446748	-0.000022
C33	C	0.027931	1.489846	-0.000021
C34	C	0.115036	1.478627	-0.000040
C35	C	-0.110977	1.724218	-0.000008
C36	C	-0.113285	1.863860	-0.000018
N37	N	-0.115448	1.495066	0.346662
N38	N	-0.115452	1.495079	-0.346667
C39	C	-0.067421	1.414097	0.423333
C40	C	-0.067424	1.414100	0.576670
C41	C	-0.163484	1.576052	0.576652
C42	C	-0.163484	1.576041	0.423318
C43	C	-0.011959	1.320598	0.423345
C44	C	-0.011962	1.320602	0.576682
H45	H	0.071692	0.914125	0.101889
H46	H	-0.031239	1.223209	0.381750
C47	C	0.095952	0.995329	-0.235275
C48	C	0.074890	0.895110	-0.142030
H49	H	0.117834	0.963737	-0.322925
H50	H	0.050551	1.040552	-0.258085
H51	H	0.133766	1.049655	-0.188056
H52	H	0.037071	0.840789	-0.189246
H53	H	0.120297	0.849867	-0.119222
H54	H	-0.893206	1.271679	-0.000021
C55	C	-0.043565	1.202089	0.794078
C56	C	-0.045236	1.195794	0.640918
H57	H	-0.064113	1.125043	0.833733
H58	H	0.009197	1.216660	0.826191
H59	H	-0.074659	1.268822	0.826179
H60	H	-0.014137	1.129066	0.608816
H61	H	-0.098007	1.181208	0.608792
H62	H	0.049905	1.346183	0.618291
H63	H	0.047110	1.355024	0.375777
H64	H	-0.243008	0.861895	0.000032
H65	H	0.062193	1.120968	0.105150
H66	H	-0.202599	1.641964	0.360898
C67	C	-0.275958	1.750177	-0.125228
C68	C	-0.323550	1.749309	-0.000002
H69	H	-0.242268	1.823645	-0.125235
H70	H	-0.245077	1.677922	-0.125211
H71	H	-0.308256	1.749572	-0.210166
H72	H	-0.291252	1.749904	0.084937
H73	H	-0.354433	1.821583	-0.000006
H74	H	-0.246937	1.099936	0.000037
C75	C	-0.651311	1.696218	-0.125278
C76	C	-0.698901	1.695338	-0.000049
H77	H	-0.617629	1.769695	-0.125287
H78	H	-0.620422	1.623973	-0.125262
H79	H	-0.683610	1.695604	-0.210214
H80	H	-0.666602	1.695942	0.084888
H81	H	-0.729793	1.767602	-0.000051
H82	H	0.068337	1.116563	-0.101982
H83	H	-0.486188	1.737597	-0.000013
C84	C	-0.917218	1.730484	0.125169
C85	C	-0.870695	1.717477	-0.000057
H86	H	-0.939055	1.811111	0.125163
H87	H	-0.958499	1.667533	0.125166
H88	H	-0.885646	1.721651	0.210107
H89	H	-0.902268	1.726302	-0.084996
H90	H	-0.829408	1.780447	-0.000067
H91	H	-0.369389	1.306518	0.000048
H92	H	-0.744724	1.252536	-0.000023
C93	C	-0.486474	1.188312	0.000054
C94	C	-0.532013	1.294814	0.000025
H95	H	-0.520168	1.114849	0.000077
H96	H	-0.454188	1.188911	-0.084887
H97	H	-0.454189	1.188939	0.085011
H98	H	-0.564293	1.294192	-0.084937
H99	H	-0.564312	1.294214	0.084975
C100	C	-0.195524	1.789624	0.623831
C101	C	-0.216281	1.665065	0.660913
H102	H	-0.228122	1.844577	0.675843
H103	H	-0.141988	1.807582	0.648968
H104	H	-0.202397	1.801191	0.521535
H105	H	-0.209402	1.653496	0.763208
H106	H	-0.269829	1.647102	0.635786
