data_functionalizedCrystal
_audit_creation_method	'MofGen! by Chris Wilmer'
_symmetry_space_group_name_H-M	'P1'
_symmetry_Int_Tables_number	1
_symmetry_cell_setting	triclinic
loop_
_symmetry_equiv_pos_as_xyz
  x,y,z
_cell_length_a	16.959455
_cell_length_b	16.120484
_cell_length_c	16.120297
_cell_angle_alpha	95.614431
_cell_angle_beta	92.879541
_cell_angle_gamma	92.922454
loop_
_atom_site_label
_atom_site_type_symbol
_atom_site_fract_x
_atom_site_fract_y
_atom_site_fract_z
Zn1	Zn	1.167703	-0.356813	-0.489435
Zn2	Zn	1.667703	0.143187	0.010565
Zn3	Zn	1.167603	-0.489502	-0.356745
Zn4	Zn	1.667603	0.010498	0.143255
Zn5	Zn	1.042580	-0.349742	-0.349683
Zn6	Zn	1.542580	0.150258	0.150317
Zn7	Zn	1.028428	-0.496536	-0.496470
Zn8	Zn	1.528428	0.003464	0.003530
O9	O	1.101579	-0.423148	-0.423083
O10	O	1.601579	0.076852	0.076917
O11	O	1.278299	-0.374430	-0.471845
O12	O	1.778299	0.125570	0.028155
O13	O	1.156900	-0.465060	-0.238846
O14	O	1.656900	0.034940	0.261154
O15	O	1.065142	-0.233715	-0.362321
O16	O	1.565142	0.266285	0.137679
O17	O	1.278226	-0.471917	-0.374358
O18	O	1.778226	0.028083	0.125642
O19	O	1.157069	-0.238910	-0.464996
O20	O	1.657069	0.261090	0.035004
O21	O	1.065046	-0.362379	-0.233658
O22	O	1.565046	0.137621	0.266342
O23	O	0.930093	-0.369199	-0.369143
O24	O	1.430093	0.130801	0.130857
O25	O	1.041022	-0.483904	-0.612499
O26	O	1.541022	0.016096	-0.112499
O27	O	0.919696	-0.477048	-0.476987
O28	O	1.419696	0.022952	0.023013
O29	O	1.143347	-0.381250	-0.607330
O30	O	1.643347	0.118750	-0.107330
O31	O	1.143177	-0.607400	-0.381180
O32	O	1.643177	-0.107400	0.118820
O33	O	1.040925	-0.612568	-0.483835
O34	O	1.540925	-0.112568	0.016165
C35	C	0.896215	-0.423120	-0.423063
C36	C	1.396215	0.076880	0.076937
C37	C	0.808357	-0.423129	-0.423075
C38	C	1.308357	0.076871	0.076925
C39	C	0.442266	-0.366953	-0.367038
C40	C	0.942266	0.133047	0.132962
C41	C	0.431488	-0.479414	-0.479179
C42	C	0.931488	0.020586	0.020821
C43	C	0.514035	-0.479402	-0.479174
C44	C	1.014035	0.020598	0.020826
C45	C	0.560701	-0.423165	-0.423099
C46	C	1.060701	0.076835	0.076901
C47	C	0.524821	-0.366941	-0.367029
C48	C	1.024821	0.133059	0.132971
C49	C	0.549921	-0.535631	-0.535236
C50	C	1.049921	-0.035631	-0.035236
C51	C	0.632473	-0.535622	-0.535232
C52	C	1.132473	-0.035622	-0.035232
C53	C	0.679141	-0.479381	-0.479161
C54	C	1.179141	0.020619	0.020839
C55	C	0.643256	-0.423153	-0.423090
C56	C	1.143256	0.076847	0.076910
C57	C	0.689922	-0.366916	-0.367014
C58	C	1.189922	0.133084	0.132986
C59	C	0.654039	-0.310684	-0.310947
C60	C	1.154039	0.189316	0.189053
C61	C	0.571489	-0.310699	-0.310957
C62	C	1.071489	0.189301	0.189043
C63	C	0.761691	-0.479365	-0.479150
C64	C	1.261691	0.020635	0.020850
C65	C	0.772477	-0.366904	-0.367005
C66	C	1.272477	0.133096	0.132995
C67	C	1.090525	-0.640313	-0.434056
C68	C	1.590525	-0.140313	0.065944
C69	C	1.085867	-0.733218	-0.438778
C70	C	1.585867	-0.233218	0.061222
C71	C	1.077367	-0.903317	-0.447416
C72	C	1.577367	-0.403317	0.052584
C73	C	1.125931	-0.942139	-0.398764
C74	C	1.625931	-0.442139	0.101236
C75	C	1.121201	-1.036788	-0.403571
C76	C	1.621201	-0.536788	0.096429
C77	C	1.082096	-0.808660	-0.442610
C78	C	1.582096	-0.308660	0.057390
C79	C	1.307744	-0.423177	-0.423104
C80	C	1.807744	0.076823	0.076896
C81	C	1.395600	-0.423190	-0.423113
C82	C	1.895600	0.076810	0.076887
C83	C	1.090617	-0.434150	-0.641089
C84	C	1.590617	0.065850	-0.141089
C85	C	1.085946	-0.438839	-0.733990
C86	C	1.585946	0.061161	-0.233990
C87	C	1.112696	-0.205137	-0.412086
C88	C	1.612696	0.294863	0.087914
C89	C	1.117433	-0.112233	-0.407400
C90	C	1.617433	0.387767	0.092600
C91	C	1.077389	-0.447380	-0.904081
C92	C	1.577389	0.052620	-0.404081
C93	C	1.125937	-0.398666	-0.942925
C94	C	1.625937	0.101334	-0.442925
C95	C	1.121176	-0.403418	-1.037569
C96	C	1.621176	0.096582	-0.537569
C97	C	1.082149	-0.442629	-0.809428
C98	C	1.582149	0.057371	-0.309428
C99	C	1.112546	-0.412129	-0.205922
C100	C	1.612546	0.087871	0.294078
C101	C	1.117383	-0.407205	-0.113010
C102	C	1.617383	0.092795	0.386990
H103	H	0.692045	-0.264900	-0.265287
H104	H	1.192045	0.235100	0.234713
H105	H	1.171074	-0.353390	-0.905100
H106	H	1.671074	0.146610	-0.405100
N107	N	1.020769	-0.504169	-0.951536
N108	N	1.520769	-0.004169	-0.451536
N109	N	1.016938	-0.507993	-1.029466
N110	N	1.516938	-0.007993	-0.529466
H111	H	0.976952	-0.548101	-1.062991
H112	H	1.476952	-0.048101	-0.562991
N113	N	1.182540	-0.894678	-0.341966
N114	N	1.682540	-0.394678	0.158034
N115	N	1.228195	-0.931125	-0.296216
N116	N	1.728195	-0.431125	0.203784
H117	H	1.268172	-0.897604	-0.256100
H118	H	1.768172	-0.397604	0.243900
H119	H	0.393488	-0.525205	-0.524829
H120	H	0.893488	-0.025205	-0.024829
N121	N	0.820131	-0.309444	-0.309727
N122	N	1.320131	0.190556	0.190273
N123	N	0.788080	-0.259243	-0.259679
N124	N	1.288080	0.240757	0.240321
H125	H	0.821735	-0.218660	-0.219226
H126	H	1.321735	0.281340	0.280774
H127	H	0.542265	-0.264919	-0.265309
H128	H	1.042265	0.235081	0.234691
H129	H	1.032242	-0.941163	-0.492673
H130	H	1.532242	-0.441163	0.007327
H131	H	0.511920	-0.581422	-0.580884
H132	H	1.011920	-0.081422	-0.080884
N133	N	0.405605	-0.309516	-0.309780
N134	N	0.905605	0.190484	0.190220
N135	N	0.331900	-0.309526	-0.309796
N136	N	0.831900	0.190474	0.190204
H137	H	0.306006	-0.268961	-0.269357
H138	H	0.806006	0.231039	0.230643
H139	H	0.790903	-0.525151	-0.524797
H140	H	1.290903	-0.025151	-0.024797
N141	N	0.669111	-0.593065	-0.592506
N142	N	1.169111	-0.093065	-0.092506
N143	N	0.627434	-0.643273	-0.642565
N144	N	1.127434	-0.143273	-0.142565
H145	H	0.653310	-0.683842	-0.683017
H146	H	1.153310	-0.183842	-0.183017
