data_functionalizedCrystal
_audit_creation_method	'MofGen! by Chris Wilmer'
_symmetry_space_group_name_H-M	'P1'
_symmetry_Int_Tables_number	1
_symmetry_cell_setting	triclinic
loop_
_symmetry_equiv_pos_as_xyz
  x,y,z
_cell_length_a	12.827893
_cell_length_b	25.639239
_cell_length_c	12.827885
_cell_angle_alpha	90.035982
_cell_angle_beta	90.019272
_cell_angle_gamma	90.038657
loop_
_atom_site_label
_atom_site_type_symbol
_atom_site_fract_x
_atom_site_fract_y
_atom_site_fract_z
Zn1	Zn	1.597500	-0.208126	0.590804
Zn2	Zn	1.597324	-0.295571	0.416045
Zn3	Zn	1.422742	-0.208151	0.416077
Zn4	Zn	1.422656	-0.295532	0.590745
O5	O	1.510055	-0.251845	0.503418
O6	O	1.743713	-0.219731	0.567633
O7	O	1.574127	-0.284002	0.269813
O8	O	1.446034	-0.134983	0.439293
O9	O	1.743583	-0.283977	0.439238
O10	O	1.574428	-0.134964	0.567664
O11	O	1.445862	-0.219775	0.269837
O12	O	1.276494	-0.219737	0.439236
O13	O	1.445888	-0.283911	0.736989
O14	O	1.276431	-0.283935	0.567564
O15	O	1.574345	-0.219694	0.737032
O16	O	1.574044	-0.368731	0.439181
O17	O	1.445716	-0.368702	0.567533
C18	C	1.238546	-0.251835	0.503398
C19	C	1.122392	-0.251843	0.503414
C20	C	1.070604	-0.283660	0.566817
C21	C	0.950554	-0.283670	0.566835
C22	C	1.509880	-0.387688	0.503370
C23	C	1.509900	-0.445802	0.503384
C24	C	1.577050	-0.806167	0.436699
C25	C	1.577090	-0.860771	0.436713
O26	O	1.634001	-0.889010	0.379962
N27	N	1.510239	-0.888084	0.503487
C28	C	1.443350	-0.860790	0.570259
O29	O	1.386493	-0.889035	0.627057
C30	C	1.443316	-0.806186	0.570249
C31	C	1.510164	-0.778876	0.503463
C32	C	1.643893	-0.778857	0.369920
C33	C	1.643851	-0.724256	0.369904
C34	C	1.576966	-0.696966	0.436669
C35	C	1.510122	-0.724276	0.503448
C36	C	1.376433	-0.778893	0.637026
C37	C	1.376405	-0.724286	0.637011
C38	C	1.443253	-0.696976	0.570225
C39	C	1.443194	-0.642385	0.570198
N40	N	1.510045	-0.615072	0.503424
C41	C	1.576931	-0.642363	0.436659
C42	C	1.443429	-0.975460	0.570275
C43	C	1.443458	-1.030063	0.570280
C44	C	1.577199	-1.030040	0.436735
C45	C	1.577165	-0.975437	0.436726
C46	C	1.510281	-0.948148	0.503501
C47	C	1.576837	-0.527698	0.436632
C48	C	1.576786	-0.473092	0.436620
C49	C	1.443049	-0.473119	0.570168
C50	C	1.443095	-0.527720	0.570177
C51	C	1.509998	-0.555008	0.503405
O52	O	1.386315	-0.614112	0.626923
O53	O	1.633789	-0.614110	0.379880
C54	C	1.782626	-0.251856	0.503438
C55	C	1.898779	-0.251860	0.503447
C56	C	1.510127	-0.251795	0.775988
C57	C	1.510157	-0.251773	0.892141
C58	C	1.510260	-0.115472	0.503489
C59	C	1.510348	-0.057358	0.503519
C60	C	1.510045	-0.251857	0.231908
C61	C	1.510217	-0.251731	0.115755
C62	C	1.573729	-0.219991	0.943947
C63	C	1.573761	-0.219968	1.063998
H64	H	1.631318	-0.549909	0.382263
H65	H	1.455792	-0.278945	1.071210
H66	H	1.631599	-0.953205	0.382344
C67	C	0.958928	-0.215057	0.430108
C68	C	0.944089	-0.155619	0.438839
C69	C	1.004247	-0.118816	0.365500
C70	C	1.079245	-0.141451	0.283431
C71	C	1.094088	-0.200892	0.274696
C72	C	1.033930	-0.237695	0.348035
H73	H	0.888568	-0.138860	0.499595
H74	H	0.993259	-0.074814	0.371966
H75	H	1.123778	-0.114208	0.229141
H76	H	1.149609	-0.217651	0.213941
H77	H	1.044918	-0.281698	0.341569
C78	C	1.647228	-0.183253	0.883808
C79	C	1.601921	-0.142252	0.808761
C80	C	1.675423	-0.105513	0.748624
C81	C	1.794233	-0.109776	0.763534
C82	C	1.839546	-0.150779	0.838584
C83	C	1.766044	-0.187517	0.898721
H84	H	1.513965	-0.139095	0.797721
H85	H	1.641879	-0.075160	0.693067
H86	H	1.848644	-0.082580	0.719017
H87	H	1.927502	-0.153936	0.849624
H88	H	1.799588	-0.217870	0.954278
C89	C	1.436659	-0.288513	0.952278
C90	C	1.481967	-0.329515	1.027323
C91	C	1.408466	-0.366255	1.087457
C92	C	1.289657	-0.361994	1.072546
C93	C	1.244342	-0.320990	0.997498
C94	C	1.317843	-0.284250	0.937364
H95	H	1.569923	-0.332671	1.038364
H96	H	1.442012	-0.396609	1.143012
H97	H	1.235247	-0.389191	1.117061
H98	H	1.156386	-0.317834	0.986458
H99	H	1.284297	-0.253896	0.881809
C100	C	1.650783	-1.060067	0.363298
C101	C	1.650821	-1.120128	0.363323
C102	C	1.724399	-1.150156	0.289890
C103	C	1.797940	-1.120122	0.216432
C104	C	1.797905	-1.060057	0.216404
C105	C	1.724326	-1.030030	0.289837
H106	H	1.596379	-1.142364	0.417704
H107	H	1.724425	-1.194620	0.289911
H108	H	1.852407	-1.142351	0.162073
H109	H	1.852346	-1.037822	0.162024
H110	H	1.724301	-0.985566	0.289816
H111	H	1.321941	-0.702069	0.691391
H112	H	1.077854	-0.224608	0.449151
H113	H	1.115143	-0.310891	0.621088
C114	C	0.890397	-0.320471	0.640171
C115	C	0.770352	-0.320428	0.640085
C116	C	0.710193	-0.357231	0.713423
C117	C	0.770080	-0.394077	0.786848
C118	C	0.890132	-0.394122	0.786937
C119	C	0.950291	-0.357319	0.713598
H120	H	0.726014	-0.293151	0.585729
H121	H	0.621322	-0.357198	0.713357
H122	H	0.725547	-0.421321	0.841137
H123	H	0.934470	-0.421399	0.841293
H124	H	1.039162	-0.357352	0.713665
H125	H	1.388955	-0.953244	0.624648
C126	C	1.650327	-0.443053	0.363154
C127	C	1.641874	-0.450614	0.244351
C128	C	1.715413	-0.420577	0.170889
C129	C	1.797406	-0.382978	0.216230
C130	C	1.805862	-0.375415	0.335040
C131	C	1.732323	-0.405452	0.408501
H132	H	1.581175	-0.478449	0.210781
H133	H	1.709153	-0.426176	0.082938
H134	H	1.851844	-0.360743	0.161850
H135	H	1.866561	-0.347580	0.368609
H136	H	1.738583	-0.399853	0.496452
C137	C	1.717398	-0.694222	0.296446
C138	C	1.708951	-0.701786	0.177643
C139	C	1.782506	-0.671758	0.104184
C140	C	1.864509	-0.634165	0.149527
C141	C	1.872960	-0.626599	0.268336
C142	C	1.799404	-0.656628	0.341796
H143	H	1.648245	-0.729616	0.144072
H144	H	1.776250	-0.677358	0.016233
H145	H	1.918959	-0.611936	0.095148
H146	H	1.933666	-0.598769	0.301907
H147	H	1.805661	-0.651027	0.429746
H148	H	1.698366	-0.801071	0.315552
C149	C	1.369915	-1.060100	0.643737
C150	C	1.296346	-1.030074	0.717173
C151	C	1.222806	-1.060109	0.790638
C152	C	1.222836	-1.120170	0.790668
C153	C	1.296408	-1.150200	0.717230
C154	C	1.369947	-1.120165	0.643764
H155	H	1.296322	-0.985609	0.717153
H156	H	1.168343	-1.037878	0.845002
H157	H	1.168397	-1.142404	0.845051
H158	H	1.296432	-1.194664	0.717249
H159	H	1.424410	-1.142395	0.589401
H160	H	1.321993	-0.801120	0.691405
H161	H	1.388665	-0.549957	0.624562
C162	C	1.369481	-0.443091	0.643608
C163	C	1.287443	-0.405607	0.598246
C164	C	1.213882	-0.375577	0.671692
C165	C	1.222359	-0.383031	0.790500
C166	C	1.304400	-0.420517	0.835869
C167	C	1.377961	-0.450547	0.762422
H168	H	1.281166	-0.400088	0.510291
H169	H	1.153150	-0.347827	0.638107
H170	H	1.167905	-0.360801	0.844870
H171	H	1.310678	-0.426036	0.923823
H172	H	1.438693	-0.478296	0.796008
H173	H	1.628191	-0.192759	1.108550
