data_functionalizedCrystal
_audit_creation_method	'MofGen! by Chris Wilmer'
_symmetry_space_group_name_H-M	'P1'
_symmetry_Int_Tables_number	1
_symmetry_cell_setting	triclinic
loop_
_symmetry_equiv_pos_as_xyz
  x,y,z
_cell_length_a	12.594516
_cell_length_b	10.686220
_cell_length_c	10.686551
_cell_angle_alpha	90.308082
_cell_angle_beta	94.404004
_cell_angle_gamma	85.600317
loop_
_atom_site_label
_atom_site_type_symbol
_atom_site_fract_x
_atom_site_fract_y
_atom_site_fract_z
Zn1	Zn	-0.259492	-1.972271	0.562395
Zn2	Zn	-0.452142	-1.956029	0.352643
Zn3	Zn	-0.286720	-1.746388	0.368713
Zn4	Zn	-0.449985	-1.762460	0.578421
O5	O	-0.362085	-1.859287	0.465543
O6	O	-0.274555	-2.145659	0.521139
O7	O	-0.442496	-1.914697	0.179230
O8	O	-0.134156	-1.776423	0.394424
O9	O	-0.416094	-2.133727	0.367035
O10	O	-0.114152	-1.942378	0.536721
O11	O	-0.320961	-1.760674	0.191037
O12	O	-0.318870	-1.572977	0.409964
O13	O	-0.412418	-1.803815	0.751840
O14	O	-0.438820	-1.584785	0.564035
O15	O	-0.272464	-1.957962	0.740066
O16	O	-0.600807	-1.930281	0.382574
O17	O	-0.599223	-1.788066	0.548452
C18	C	-0.381566	-1.533365	0.490483
C19	C	-0.389924	-1.393937	0.501182
C20	C	-0.638632	-1.859191	0.465533
C21	C	-0.756931	-1.859269	0.465562
C22	C	-0.339163	-1.884493	0.792742
C23	C	-0.329395	-1.895235	0.932175
C24	C	-0.896123	-1.781983	0.555735
C25	C	-0.816223	-1.898707	0.577750
C26	C	-0.835255	-1.742560	0.443602
C27	C	-0.887793	-1.976266	0.487662
C28	C	-0.906839	-1.820038	0.353467
C29	C	-0.826969	-1.936838	0.375432
C30	C	-0.084453	-1.859419	0.465578
C31	C	0.033857	-1.859476	0.465593
C32	C	-0.342528	-2.186482	0.440507
C33	C	-0.334194	-2.325913	0.429837
C34	C	-0.384836	-1.834251	0.139611
C35	C	-0.394289	-1.823753	0.000160
H36	H	-0.776746	-1.931983	0.672558
H37	H	-0.444040	-1.345501	0.570446
O38	O	-0.936371	-1.695419	0.656786
H39	H	-0.914280	-1.598806	0.639387
H40	H	-0.266364	-1.964661	0.980647
O41	O	-0.918563	-2.107172	0.512451
H42	H	-1.006759	-2.106221	0.512323
O43	O	-0.786954	-2.023623	0.274431
H44	H	-0.807876	-2.120475	0.292979
H45	H	-0.457324	-1.754340	0.951694
H46	H	-0.811870	-1.643773	0.425016
O47	O	-0.959173	-1.775930	0.227923
H48	H	-0.938434	-1.678897	0.209896
O49	O	-0.262513	-1.390047	0.338087
H50	H	-0.266966	-1.493169	0.343809
