data_functionalizedCrystal
_audit_creation_method	'MofGen! by Chris Wilmer'
_symmetry_space_group_name_H-M	'P1'
_symmetry_Int_Tables_number	1
_symmetry_cell_setting	triclinic
loop_
_symmetry_equiv_pos_as_xyz
  x,y,z
_cell_length_a	16.120444
_cell_length_b	16.120542
_cell_length_c	16.120297
_cell_angle_alpha	89.872913
_cell_angle_beta	95.615117
_cell_angle_gamma	89.835691
loop_
_atom_site_label
_atom_site_type_symbol
_atom_site_fract_x
_atom_site_fract_y
_atom_site_fract_z
Zn1	Zn	-0.422357	-1.224978	-0.554850
Zn2	Zn	-0.172357	-0.974978	-0.304850
Zn3	Zn	0.077643	-0.724978	-0.054850
Zn4	Zn	0.327643	-0.474978	0.195150
Zn5	Zn	-0.555041	-1.224871	-0.422156
Zn6	Zn	-0.305041	-0.974871	-0.172156
Zn7	Zn	-0.055041	-0.724871	0.077844
Zn8	Zn	0.194959	-0.474871	0.327844
Zn9	Zn	-0.408262	-1.093718	-0.408089
Zn10	Zn	-0.158262	-0.843718	-0.158089
Zn11	Zn	0.091738	-0.593718	0.091911
Zn12	Zn	0.341738	-0.343718	0.341911
Zn13	Zn	-0.554263	-1.078868	-0.554085
Zn14	Zn	-0.304263	-0.828868	-0.304085
Zn15	Zn	-0.054263	-0.578868	-0.054085
Zn16	Zn	0.195737	-0.328868	0.195915
O17	O	-0.484981	-1.155609	-0.484795
O18	O	-0.234981	-0.905609	-0.234795
O19	O	0.015019	-0.655609	0.015205
O20	O	0.265019	-0.405609	0.265205
O21	O	-0.446182	-1.340999	-0.543455
O22	O	-0.196182	-1.090999	-0.293455
O23	O	0.053818	-0.840999	-0.043455
O24	O	0.303818	-0.590999	0.206545
O25	O	-0.529998	-1.213643	-0.303658
O26	O	-0.279998	-0.963643	-0.053658
O27	O	-0.029998	-0.713643	0.196342
O28	O	0.220002	-0.463643	0.446342
O29	O	-0.293501	-1.117389	-0.421990
O30	O	-0.043501	-0.867389	-0.171990
O31	O	0.206499	-0.617389	0.078010
O32	O	0.456499	-0.367389	0.328010
O33	O	-0.543664	-1.340921	-0.445966
O34	O	-0.293664	-1.090921	-0.195966
O35	O	-0.043664	-0.840921	0.054034
O36	O	0.206336	-0.590921	0.304034
O37	O	-0.303856	-1.213825	-0.529814
O38	O	-0.053856	-0.963825	-0.279814
O39	O	0.196144	-0.713825	-0.029814
O40	O	0.446144	-0.463825	0.220186
O41	O	-0.422160	-1.117285	-0.293322
O42	O	-0.172160	-0.867285	-0.043322
O43	O	0.077840	-0.617285	0.206678
O44	O	0.327840	-0.367285	0.456678
O45	O	-0.421406	-0.975712	-0.421248
O46	O	-0.171406	-0.725712	-0.171248
O47	O	0.078594	-0.475712	0.078752
O48	O	0.328594	-0.225712	0.328752
O49	O	-0.542338	-1.092080	-0.670819
O50	O	-0.292338	-0.842080	-0.420819
O51	O	-0.042338	-0.592080	-0.170819
O52	O	0.207662	-0.342080	0.079181
O53	O	-0.528671	-0.964803	-0.528511
O54	O	-0.278671	-0.714803	-0.278511
O55	O	-0.028671	-0.464803	-0.028511
O56	O	0.221329	-0.214803	0.221489
O57	O	-0.445427	-1.199427	-0.671381
O58	O	-0.195427	-0.949427	-0.421381
O59	O	0.054573	-0.699427	-0.171381
O60	O	0.304573	-0.449427	0.078619
O61	O	-0.671568	-1.199244	-0.445224
O62	O	-0.421568	-0.949244	-0.195224
O63	O	-0.171568	-0.699244	0.054776
O64	O	0.078432	-0.449244	0.304776
O65	O	-0.670997	-1.091977	-0.542152
O66	O	-0.420997	-0.841977	-0.292152
O67	O	-0.170997	-0.591977	-0.042152
O68	O	0.079003	-0.341977	0.207848
C69	C	-0.473425	-0.940171	-0.473271
C70	C	-0.223425	-0.690171	-0.223271
C71	C	0.026575	-0.440171	0.026729
C72	C	0.276575	-0.190171	0.276729
C73	C	-0.468503	-0.848003	-0.468361
C74	C	-0.218503	-0.598003	-0.218361
C75	C	0.031497	-0.348003	0.031639
C76	C	0.281497	-0.098003	0.281639
C77	C	-0.510488	-0.632809	-0.510215
C78	C	-0.260488	-0.382809	-0.260215
C79	C	-0.010488	-0.132809	-0.010215
C80	C	0.239512	0.117191	0.239785
C81	C	-0.459523	-0.679257	-0.459397
C82	C	-0.209523	-0.429257	-0.209397
C83	C	0.040477	-0.179257	0.040603
C84	C	0.290477	0.070743	0.290603
C85	C	-0.464521	-0.773156	-0.464386
C86	C	-0.214521	-0.523156	-0.214386
C87	C	0.035479	-0.273156	0.035614
C88	C	0.285479	-0.023156	0.285614
C89	C	-0.505492	-0.538901	-0.505227
C90	C	-0.255492	-0.288901	-0.255227
C91	C	-0.005492	-0.038901	-0.005227
C92	C	0.244508	0.211099	0.244773
C93	C	-0.701526	-1.144009	-0.495151
C94	C	-0.451526	-0.894009	-0.245151
C95	C	-0.201526	-0.644009	0.004849
C96	C	0.048474	-0.394009	0.254849
C97	C	-0.794170	-1.139121	-0.499613
C98	C	-0.544170	-0.889121	-0.249613
C99	C	-0.294170	-0.639121	0.000387
C100	C	-0.044170	-0.389121	0.250387
C101	C	-1.005331	-1.181159	-0.461837
C102	C	-0.755331	-0.931159	-0.211837
C103	C	-0.505331	-0.681159	0.038163
C104	C	-0.255331	-0.431159	0.288163
C105	C	-0.963788	-1.130212	-0.507769
C106	C	-0.713788	-0.880212	-0.257769
C107	C	-0.463788	-0.630212	-0.007769
C108	C	-0.213788	-0.380212	0.242231
C109	C	-0.869403	-1.135170	-0.503230
C110	C	-0.619403	-0.885170	-0.253230
C111	C	-0.369403	-0.635170	-0.003230
C112	C	-0.119403	-0.385170	0.246770
C113	C	-1.099724	-1.176202	-0.466376
C114	C	-0.849724	-0.926202	-0.216376
C115	C	-0.599724	-0.676202	0.033624
C116	C	-0.349724	-0.426202	0.283624
C117	C	-0.267592	-1.167275	-0.474418
C118	C	-0.017592	-0.917275	-0.224418
C119	C	0.232408	-0.667275	0.025582
C120	C	0.482408	-0.417275	0.275582
C121	C	-0.174954	-1.172247	-0.469996
C122	C	0.075046	-0.922247	-0.219996
C123	C	0.325046	-0.672247	0.030004
C124	C	0.575046	-0.422247	0.280004
C125	C	-0.495368	-1.144109	-0.702187
C126	C	-0.245368	-0.894109	-0.452187
C127	C	0.004632	-0.644109	-0.202187
C128	C	0.254632	-0.394109	0.047813
C129	C	-0.499794	-1.139209	-0.794827
C130	C	-0.249794	-0.889209	-0.544827
C131	C	0.000206	-0.639209	-0.294827
C132	C	0.250206	-0.389209	-0.044827
C133	C	-0.496577	-0.371889	-0.496353
C134	C	-0.246577	-0.121889	-0.246353
C135	C	0.003423	0.128111	0.003647
C136	C	0.253423	0.378111	0.253647
C137	C	-0.501506	-0.464057	-0.501248
C138	C	-0.251506	-0.214057	-0.251248
C139	C	-0.001506	0.035943	-0.001248
C140	C	0.248494	0.285943	0.248752
C141	C	-0.507855	-1.130232	-0.964438
C142	C	-0.257855	-0.880232	-0.714438
C143	C	-0.007855	-0.630232	-0.464438
C144	C	0.242145	-0.380232	-0.214438
C145	C	-0.461865	-1.181162	-1.006001
C146	C	-0.211865	-0.931162	-0.756001
C147	C	0.038135	-0.681162	-0.506001
C148	C	0.288135	-0.431162	-0.256001
C149	C	-0.466351	-1.176168	-1.100378
C150	C	-0.216351	-0.926168	-0.850378
C151	C	0.033649	-0.676168	-0.600378
C152	C	0.283649	-0.426168	-0.350378
C153	C	-0.503371	-1.135226	-0.870052
C154	C	-0.253371	-0.885226	-0.620052
C155	C	-0.003371	-0.635226	-0.370052
C156	C	0.246629	-0.385226	-0.120052
C157	C	-0.474577	-1.167115	-0.268248
C158	C	-0.224577	-0.917115	-0.018248
C159	C	0.025423	-0.667115	0.231752
C160	C	0.275423	-0.417115	0.481752
C161	C	-0.469924	-1.172188	-0.175607
C162	C	-0.219924	-0.922188	0.074393
C163	C	0.030076	-0.672188	0.324393
C164	C	0.280076	-0.422188	0.574393
H165	H	-0.999106	-1.082870	-0.550502
H166	H	-0.749106	-0.832870	-0.300502
H167	H	-0.499106	-0.582870	-0.050502
H168	H	-0.249106	-0.332870	0.199498
C169	C	-0.983791	-1.325139	-0.427566
C170	C	-0.733791	-1.075139	-0.177566
C171	C	-0.483791	-0.825139	0.072434
C172	C	-0.233791	-0.575139	0.322434
C173	C	-0.957660	-1.245060	-0.404144
C174	C	-0.707660	-0.995060	-0.154144
C175	C	-0.457660	-0.745060	0.095856
C176	C	-0.207660	-0.495060	0.345856
H177	H	-0.954349	-1.364584	-0.391949
H178	H	-0.704349	-1.114584	-0.141949
H179	H	-0.454349	-0.864584	0.108051
H180	H	-0.204349	-0.614584	0.358051
H181	H	-1.041876	-1.330148	-0.423083
H182	H	-0.791876	-1.080148	-0.173083
H183	H	-0.541876	-0.830148	0.076917
H184	H	-0.291876	-0.580148	0.326917
H185	H	-0.972857	-1.334997	-0.483550
H186	H	-0.722857	-1.084997	-0.233550
H187	H	-0.472857	-0.834997	0.016450
H188	H	-0.222857	-0.584997	0.266450
H189	H	-0.968600	-1.235199	-0.348162
H190	H	-0.718600	-0.985199	-0.098162
H191	H	-0.468600	-0.735199	0.151838
H192	H	-0.218600	-0.485199	0.401838
H193	H	-0.899561	-1.240048	-0.408620
H194	H	-0.649561	-0.990048	-0.158620
H195	H	-0.399561	-0.740048	0.091380
H196	H	-0.149561	-0.490048	0.341380
H197	H	-0.550594	-1.082883	-0.999732
H198	H	-0.300594	-0.832883	-0.749732
H199	H	-0.050594	-0.582883	-0.499732
H200	H	0.199406	-0.332883	-0.249732
H201	H	-0.557871	-0.663562	-0.557464
H202	H	-0.307871	-0.413562	-0.307464
H203	H	-0.057871	-0.163562	-0.057464
H204	H	0.192129	0.086438	0.192536
C205	C	-0.402967	-0.551411	-0.402899
C206	C	-0.152967	-0.301411	-0.152899
C207	C	0.097033	-0.051411	0.097101
C208	C	0.347033	0.198589	0.347101
C209	C	-0.395585	-0.637745	-0.395572
C210	C	-0.145585	-0.387745	-0.145572
C211	C	0.104415	-0.137745	0.104428
C212	C	0.354415	0.112255	0.354428
H213	H	-0.363508	-0.525782	-0.363484
H214	H	-0.113508	-0.275782	-0.113484
H215	H	0.136492	-0.025782	0.136516
H216	H	0.386492	0.224218	0.386516
H217	H	-0.392759	-0.534952	-0.457583
H218	H	-0.142759	-0.284952	-0.207583
H219	H	0.107241	-0.034952	0.042417
H220	H	0.357241	0.215048	0.292417
H221	H	-0.457640	-0.534947	-0.392584
H222	H	-0.207640	-0.284947	-0.142584
H223	H	0.042360	-0.034947	0.107416
H224	H	0.292360	0.215053	0.357416
H225	H	-0.340913	-0.654209	-0.405893
H226	H	-0.090913	-0.404209	-0.155893
H227	H	0.159087	-0.154209	0.094107
H228	H	0.409087	0.095791	0.344107
H229	H	-0.405786	-0.654210	-0.340875
H230	H	-0.155786	-0.404210	-0.090875
H231	H	0.094214	-0.154210	0.159125
H232	H	0.344214	0.095790	0.409125
H233	H	-0.419123	-1.228515	-0.970704
H234	H	-0.169123	-0.978515	-0.720704
H235	H	0.080877	-0.728515	-0.470704
H236	H	0.330877	-0.478515	-0.220704
