data_functionalizedCrystal
_audit_creation_method	'MofGen! by Chris Wilmer'
_symmetry_space_group_name_H-M	'P1'
_symmetry_Int_Tables_number	1
_symmetry_cell_setting	triclinic
loop_
_symmetry_equiv_pos_as_xyz
  x,y,z
_cell_length_a	16.109295
_cell_length_b	9.565339
_cell_length_c	16.109301
_cell_angle_alpha	90.001191
_cell_angle_beta	96.539666
_cell_angle_gamma	89.999378
loop_
_atom_site_label
_atom_site_type_symbol
_atom_site_fract_x
_atom_site_fract_y
_atom_site_fract_z
O1	O	-1.103134	0.116169	0.106839
O2	O	-0.603134	0.616169	0.606839
O3	O	-0.861072	0.116193	0.120143
O4	O	-0.361072	0.616193	0.620143
O5	O	-0.988753	0.116166	-0.007540
O6	O	-0.488753	0.616166	0.492460
O7	O	-0.975453	0.116196	0.234522
O8	O	-0.475453	0.616196	0.734522
O9	O	-0.988743	-0.116354	-0.007532
O10	O	-0.488743	0.383646	0.492468
O11	O	-0.861062	-0.116327	0.120151
O12	O	-0.361062	0.383673	0.620151
O13	O	-1.103124	-0.116351	0.106847
O14	O	-0.603124	0.383649	0.606847
Zn15	Zn	-0.982091	-0.153256	0.113500
Zn16	Zn	-0.482091	0.346744	0.613500
Zn17	Zn	-0.982105	0.153099	0.113490
Zn18	Zn	-0.482105	0.653099	0.613490
O19	O	-0.975443	-0.116324	0.234530
O20	O	-0.475443	0.383676	0.734530
C21	C	-0.830092	-0.000064	0.119609
C22	C	-0.330092	0.499936	0.619609
C23	C	-0.737796	-0.000055	0.117996
C24	C	-0.237796	0.499945	0.617996
N25	N	-0.982088	-0.362336	0.113507
N26	N	-0.482088	0.137664	0.613507
C27	C	-0.515523	-0.000061	0.190008
C28	C	-0.015523	0.499939	0.690008
C29	C	-0.428803	-0.000069	0.188486
C30	C	0.071197	0.499931	0.688486
C31	C	-0.448677	-0.000082	0.036997
C32	C	0.051323	0.499918	0.536997
C33	C	-0.535396	-0.000084	0.038520
C34	C	-0.035396	0.499916	0.538520
C35	C	-0.568816	-0.000066	0.115028
C36	C	-0.068816	0.499934	0.615028
C37	C	-0.395377	-0.000073	0.111982
C38	C	0.104623	0.499927	0.611982
C39	C	-0.301351	-0.000082	0.110331
C40	C	0.198649	0.499918	0.610331
C41	C	-0.662849	-0.000059	0.116679
C42	C	-0.162849	0.499941	0.616679
C43	C	-0.923022	-0.453526	0.172537
C44	C	-0.423022	0.046474	0.672537
C45	C	-0.998148	-0.546711	0.188647
C46	C	-0.498148	-0.046711	0.688647
C47	C	-0.906995	-0.546707	0.097403
C48	C	-0.406995	-0.046707	0.597403
C49	C	-1.057252	-0.453468	0.129655
C50	C	-0.557252	0.046532	0.629655
C51	C	-0.966049	-0.453456	0.038378
C52	C	-0.466049	0.046544	0.538378
C53	C	-1.041230	-0.546598	0.054456
C54	C	-0.541230	-0.046598	0.554456
C55	C	-0.134104	-0.000089	0.107386
C56	C	0.365896	0.499911	0.607386
C57	C	-0.226397	-0.000084	0.109014
C58	C	0.273603	0.499916	0.609014
C59	C	-0.988209	-0.000094	-0.038511
C60	C	-0.488209	0.499906	0.461489
C61	C	-0.986594	-0.000096	-0.130806
C62	C	-0.486594	0.499904	0.369194
N63	N	-0.982114	0.362178	0.113477
N64	N	-0.482114	0.862178	0.613477
C65	C	-1.058602	-0.000081	-0.353080
C66	C	-0.558602	0.499919	0.146920
C67	C	-1.057078	-0.000069	-0.439800
C68	C	-0.557078	0.499931	0.060200
C69	C	-0.905588	-0.000060	-0.419923
C70	C	-0.405588	0.499940	0.080077
C71	C	-0.907113	-0.000061	-0.333204
C72	C	-0.407113	0.499939	0.166796
C73	C	-0.983622	-0.000079	-0.299785
C74	C	-0.483622	0.499921	0.200215
C75	C	-0.980573	-0.000066	-0.473225
C76	C	-0.480573	0.499934	0.026775
C77	C	-0.978920	-0.000053	-0.567251
C78	C	-0.478920	0.499947	-0.067251
C79	C	-0.985276	-0.000089	-0.205754
C80	C	-0.485276	0.499911	0.294246
C81	C	-0.975987	-0.000060	0.265501
C82	C	-0.475987	0.499940	0.765501
C83	C	-0.977602	-0.000049	0.357796
C84	C	-0.477602	0.499951	0.857796
H85	H	-0.542731	-0.000057	0.252306
H86	H	-0.042731	0.499943	0.752306
H87	H	-0.385414	-0.000068	0.249542
H88	H	0.114586	0.499932	0.749542
H89	H	-0.578790	-0.000092	-0.022542
H90	H	-0.078790	0.499908	0.477458
F91	F	-1.106602	-0.599686	-0.010812
F92	F	-0.606602	-0.099686	0.489188
H93	H	-0.873117	-0.412661	0.222502
H94	H	-0.373117	0.087339	0.722502
F95	F	-0.827306	-0.000049	-0.276480
F96	F	-0.327306	0.499951	0.223520
F97	F	-1.140292	-0.400167	0.147538
F98	F	-0.640292	0.099833	0.647538
F99	F	-0.413101	-0.000095	-0.044424
F100	F	0.086899	0.499905	0.455576
H101	H	-1.011732	-0.587671	0.252169
H102	H	-0.511732	-0.087671	0.752169
H103	H	-1.118133	-0.000068	-0.483190
H104	H	-0.618133	0.499932	0.016810
H105	H	-0.952442	-0.412463	-0.025124
H106	H	-0.452442	0.087537	0.474876
F107	F	-0.823976	-0.600243	0.079614
F108	F	-0.323976	-0.100243	0.579614
F109	F	-0.824167	-0.000040	-0.455498
F110	F	-0.324167	0.499960	0.044502
H111	H	-1.120900	-0.000093	-0.325874
H112	H	-0.620900	0.499907	0.174126
