data_functionalizedCrystal
_audit_creation_method	'MofGen! by Chris Wilmer'
_symmetry_space_group_name_H-M	'P1'
_symmetry_Int_Tables_number	1
_symmetry_cell_setting	triclinic
loop_
_symmetry_equiv_pos_as_xyz
  x,y,z
_cell_length_a	12.759401
_cell_length_b	12.759400
_cell_length_c	12.759393
_cell_angle_alpha	89.969348
_cell_angle_beta	89.982824
_cell_angle_gamma	90.014845
loop_
_atom_site_label
_atom_site_type_symbol
_atom_site_fract_x
_atom_site_fract_y
_atom_site_fract_z
Zn1	Zn	1.606242	-0.418209	-0.593981
Zn2	Zn	1.606140	-0.593925	-0.418301
Zn3	Zn	1.430548	-0.418262	-0.418321
Zn4	Zn	1.430532	-0.593847	-0.593943
O5	O	1.518366	-0.506061	-0.506137
O6	O	1.753249	-0.441529	-0.570685
O7	O	1.582811	-0.570678	-0.271283
O8	O	1.453903	-0.271234	-0.441647
O9	O	1.753175	-0.570627	-0.441614
O10	O	1.582985	-0.271195	-0.570704
O11	O	1.453804	-0.441618	-0.271297
O12	O	1.283525	-0.441543	-0.441609
O13	O	1.453877	-0.570494	-0.740969
O14	O	1.283513	-0.570545	-0.570638
O15	O	1.582970	-0.441454	-0.740997
O16	O	1.582797	-0.740936	-0.441577
O17	O	1.453778	-0.740879	-0.570620
C18	C	1.245398	-0.506042	-0.506122
C19	C	1.128622	-0.506059	-0.506141
C20	C	1.073781	-0.573337	-0.573215
C21	C	0.964057	-0.573351	-0.573227
C22	C	0.964024	-0.438803	-0.439081
C23	C	1.073746	-0.438785	-0.439075
C24	C	1.128657	-0.640611	-0.640281
C25	C	1.073817	-0.707896	-0.707360
C26	C	0.964093	-0.707909	-0.707371
C27	C	0.909209	-0.640637	-0.640304
C28	C	1.518303	-0.779028	-0.506115
C29	C	1.518373	-0.895805	-0.506140
C30	C	1.585627	-0.950662	-0.439022
C31	C	1.585692	-1.060386	-0.439054
C32	C	1.451238	-1.060386	-0.573327
C33	C	1.451180	-0.950664	-0.573299
C34	C	1.652820	-0.895802	-0.371864
C35	C	1.720079	-0.950660	-0.304739
C36	C	1.720143	-1.060384	-0.304771
C37	C	1.652949	-1.115251	-0.371929
C38	C	1.792399	-0.506081	-0.506152
C39	C	1.909175	-0.506090	-0.506158
C40	C	1.518433	-0.505959	-0.780170
C41	C	1.518461	-0.505916	-0.896947
C42	C	1.518457	-0.232028	-0.506182
C43	C	1.518496	-0.115251	-0.506201
C44	C	1.451265	-0.573076	-0.951796
C45	C	1.451304	-0.573038	-1.061520
C46	C	1.585738	-0.438671	-1.061536
C47	C	1.585704	-0.438715	-0.951814
C48	C	1.384023	-0.640276	-0.896928
C49	C	1.316821	-0.707441	-0.951778
C50	C	1.316859	-0.707403	-1.061502
C51	C	1.384100	-0.640200	-1.116377
C52	C	1.518359	-0.506086	-0.233169
C53	C	1.518534	-0.505834	-0.116393
H54	H	1.218000	-0.640609	-0.640277
H55	H	0.919329	-0.384035	-0.384477
N56	N	1.658181	-0.366285	-0.892646
H57	H	1.700779	-0.323701	-0.944052
H58	H	1.615419	-0.317680	-0.847126
H59	H	1.384133	-0.640181	-1.205722
H60	H	1.118510	-0.762659	-0.761970
N61	N	1.792549	-0.891481	-0.232316
H62	H	1.776287	-0.910652	-0.157241
H63	H	1.867589	-0.910521	-0.248793
H64	H	1.396416	-0.905999	-0.627954
H65	H	0.919444	-0.762688	-0.761998
N66	N	1.244290	-0.779917	-0.892607
H67	H	1.260583	-0.854979	-0.911686
H68	H	1.254484	-0.769664	-0.814792
N69	N	1.132904	-0.366220	-0.366736
H70	H	1.081493	-0.323611	-0.324245
H71	H	1.178409	-0.408920	-0.318041
N72	N	1.383957	-0.640292	-0.778585
H73	H	1.331158	-0.693045	-0.752147
H74	H	1.456041	-0.659586	-0.752206
H75	H	0.819864	-0.640644	-0.640328
H76	H	1.396531	-1.105068	-0.628002
N77	N	1.658254	-0.366182	-1.120710
H78	H	1.706940	-0.408861	-1.166231
H79	H	1.615512	-0.317485	-1.166177
H80	H	1.774916	-1.105045	-0.250123
H81	H	1.262147	-0.762098	-1.106157
H82	H	1.652772	-0.806460	-0.371827
H83	H	1.653015	-1.204595	-0.371958
