data_functionalizedCrystal
_audit_creation_method	'MofGen! by Chris Wilmer'
_symmetry_space_group_name_H-M	'P1'
_symmetry_Int_Tables_number	1
_symmetry_cell_setting	triclinic
loop_
_symmetry_equiv_pos_as_xyz
  x,y,z
_cell_length_a	6.817900
_cell_length_b	7.190339
_cell_length_c	16.256277
_cell_angle_alpha	89.345600
_cell_angle_beta	76.499647
_cell_angle_gamma	119.388276
loop_
_atom_site_label
_atom_site_type_symbol
_atom_site_fract_x
_atom_site_fract_y
_atom_site_fract_z
V1	V	4.114454	0.296814	-0.263272
O2	O	4.010631	-0.012490	-0.258876
O3	O	4.151610	0.586827	-0.260879
O4	O	4.064954	0.293027	-0.378364
O5	O	4.097886	0.283345	-0.140578
V6	V	4.587138	0.259726	-0.248669
O7	O	4.399488	0.378171	-0.295305
O8	O	4.752302	0.178370	-0.216635
O9	O	4.326776	-0.030287	-0.251061
O10	O	4.808358	0.569030	-0.253065
O11	O	4.721103	0.273196	-0.371363
O12	O	4.413431	0.263514	-0.133577
C13	C	3.906920	0.282728	-0.406436
C14	C	3.948298	0.281550	-0.500520
C15	C	4.017476	0.657504	-0.256577
C16	C	4.131235	0.899056	-0.255368
C17	C	4.241671	0.289780	-0.732324
C18	C	4.081108	0.106737	-0.775786
C19	C	4.023941	0.279333	-0.672771
C20	C	4.258146	0.460147	-0.796943
C21	C	4.097027	0.277202	-0.839159
C22	C	3.862760	0.096160	-0.714985
C23	C	4.039903	0.449731	-0.736148
C24	C	3.879166	0.266637	-0.779578
C25	C	3.981842	0.280559	-0.576920
C26	C	4.139102	0.275959	-0.935007
C27	C	4.234810	0.273820	-0.105500
C28	C	4.172667	0.274987	-0.011415
H29	H	4.394369	0.299351	-0.711415
H30	H	4.098902	-0.038292	-0.793472
O31	O	3.663058	-0.087470	-0.672531
C32	C	3.399760	-0.292287	-0.535679
C33	C	3.625974	-0.084251	-0.583651
H34	H	3.369680	-0.289733	-0.463812
H35	H	3.416683	-0.438368	-0.552207
H36	H	3.245343	-0.302708	-0.555517
H37	H	3.780505	-0.073621	-0.563840
H38	H	3.608849	0.061729	-0.567121
O39	O	3.696854	0.255280	-0.804386
C40	C	3.571859	0.425915	-0.891874
C41	C	3.778525	0.439086	-0.863836
H42	H	3.637823	0.574479	-0.939957
H43	H	3.436057	0.418901	-0.833646
H44	H	3.488708	0.274505	-0.922820
H45	H	3.861867	0.590483	-0.832905
H46	H	3.914174	0.445980	-0.922093
H47	H	4.022179	0.594773	-0.718447
O48	O	4.458238	0.643602	-0.839284
C49	C	4.875909	0.862925	-0.863437
C50	C	4.649470	0.655128	-0.815422
H51	H	5.030585	0.872289	-0.844176
H52	H	4.860072	1.009279	-0.846433
H53	H	4.904718	0.860969	-0.935305
H54	H	4.620525	0.656873	-0.743544
H55	H	4.665414	0.508866	-0.832497
