data_functionalizedCrystal
_audit_creation_method	'MofGen! by Chris Wilmer'
_symmetry_space_group_name_H-M	'P1'
_symmetry_Int_Tables_number	1
_symmetry_cell_setting	triclinic
loop_
_symmetry_equiv_pos_as_xyz
  x,y,z
_cell_length_a	12.837943
_cell_length_b	12.837942
_cell_length_c	9.198806
_cell_angle_alpha	89.997396
_cell_angle_beta	89.997100
_cell_angle_gamma	94.828940
loop_
_atom_site_label
_atom_site_type_symbol
_atom_site_fract_x
_atom_site_fract_y
_atom_site_fract_z
O1	O	1.402335	0.272138	-0.120865
O2	O	1.902335	0.772138	0.379135
O3	O	1.099201	0.258695	-0.120874
O4	O	1.599201	0.758695	0.379126
O5	O	1.244047	0.113850	-0.120861
O6	O	1.744047	0.613850	0.379139
O7	O	1.257490	0.416983	-0.120878
O8	O	1.757490	0.916983	0.379122
O9	O	1.244034	0.113848	0.120924
O10	O	1.744034	0.613848	0.620924
O11	O	1.099189	0.258693	0.120911
O12	O	1.599189	0.758693	0.620911
O13	O	1.402322	0.272136	0.120920
O14	O	1.902322	0.772136	0.620920
Cu15	Cu	1.250754	0.265415	0.142992
Cu16	Cu	1.750754	0.765415	0.642992
Cu17	Cu	1.250769	0.265417	-0.142946
Cu18	Cu	1.750769	0.765417	0.357054
O19	O	1.257477	0.416982	0.120907
O20	O	1.757477	0.916982	0.620907
C21	C	1.060126	0.254153	0.000018
C22	C	1.560126	0.754153	0.500018
C23	C	0.943711	0.240608	0.000015
C24	C	1.443711	0.740608	0.500015
C25	C	0.718837	0.403437	0.000026
C26	C	1.218837	0.903437	0.500026
C27	C	0.609454	0.390716	0.000024
C28	C	1.109454	0.890716	0.500024
C29	C	0.615562	0.202445	0.000020
C30	C	1.115562	0.702445	0.500020
C31	C	0.724944	0.215166	0.000021
C32	C	1.224944	0.715166	0.500021
C33	C	0.776578	0.315666	0.000022
C34	C	1.276578	0.815666	0.500022
C35	C	0.885962	0.328386	0.000014
C36	C	1.385962	0.828386	0.500014
C37	C	0.892067	0.140116	0.000020
C38	C	1.392067	0.640116	0.500020
C39	C	0.782685	0.127395	0.000018
C40	C	1.282685	0.627395	0.500018
C41	C	1.239499	0.074780	0.000031
C42	C	1.739499	0.574780	0.500031
C43	C	1.225954	-0.041635	0.000028
C44	C	1.725954	0.458365	0.500028
C45	C	1.388784	-0.266510	0.000002
C46	C	1.888784	0.233490	0.500002
C47	C	1.376062	-0.375892	-0.000000
C48	C	1.876062	0.124108	0.500000
C49	C	1.187791	-0.369785	0.000009
C50	C	1.687791	0.130215	0.500009
C51	C	1.200513	-0.260402	0.000012
C52	C	1.700513	0.239598	0.500012
C53	C	1.301012	-0.208769	0.000011
C54	C	1.801012	0.291231	0.500011
C55	C	1.313732	-0.099384	0.000024
C56	C	1.813732	0.400616	0.500024
C57	C	1.125462	-0.093279	0.000023
C58	C	1.625462	0.406721	0.500023
C59	C	1.112741	-0.202661	0.000021
C60	C	1.612741	0.297339	0.500021
C61	C	1.441398	0.276679	0.000025
C62	C	1.941398	0.776679	0.500025
C63	C	1.557813	0.290223	0.000019
C64	C	2.057813	0.790223	0.500019
C65	C	1.262025	0.456052	0.000012
C66	C	1.762025	0.956052	0.500012
C67	C	1.275569	0.572467	0.000005
C68	C	1.775569	1.072467	0.500005
N69	N	1.250751	0.265413	0.344106
N70	N	1.750751	0.765413	0.844106
N71	N	1.250780	0.265410	-0.344060
N72	N	1.750780	0.765410	0.155940
C73	C	1.311541	0.204302	0.416309
C74	C	1.811541	0.704302	0.916309
C75	C	1.311557	0.204300	0.583721
C76	C	1.811557	0.704300	1.083721
H77	H	0.562446	0.462189	0.000031
H78	H	1.062446	0.962189	0.500031
H79	H	0.928000	0.410218	0.000017
H80	H	1.428000	0.910218	0.500017
H81	H	0.760878	0.485268	0.000025
H82	H	1.260878	0.985268	0.500025
H83	H	1.363606	0.151984	0.645812
H84	H	1.863606	0.651984	1.145812
H85	H	1.198714	0.317727	0.406230
H86	H	1.698714	0.817727	0.906230
H87	H	1.447536	-0.422901	-0.000012
H88	H	1.947536	0.077099	0.499988
H89	H	0.573502	0.120623	0.000139
H90	H	1.073502	0.620623	0.500139
H91	H	1.470614	-0.224469	0.000016
H92	H	1.970614	0.275531	0.500016
H93	H	0.740630	0.045571	0.000034
H94	H	1.240630	0.545571	0.500034
H95	H	0.939092	0.068646	0.000007
H96	H	1.439092	0.568646	0.500007
H97	H	1.395564	-0.057346	0.000028
H98	H	1.895564	0.442654	0.500028
H99	H	1.105969	-0.411844	-0.000005
H100	H	1.605969	0.088156	0.499995
H101	H	1.030917	-0.244717	0.000016
H102	H	1.530917	0.255283	0.500016
H103	H	1.363570	0.151979	0.354187
H104	H	1.863570	0.651979	0.854187
H105	H	1.198737	0.317737	0.593858
H106	H	1.698737	0.817737	1.093858
H107	H	1.053992	-0.046254	0.000042
H108	H	1.553992	0.453746	0.500042
