data_functionalizedCrystal
_audit_creation_method	'MofGen! by Chris Wilmer'
_symmetry_space_group_name_H-M	'P1'
_symmetry_Int_Tables_number	1
_symmetry_cell_setting	triclinic
loop_
_symmetry_equiv_pos_as_xyz
  x,y,z
_cell_length_a	15.944551
_cell_length_b	15.944551
_cell_length_c	14.421503
_cell_angle_alpha	90.000609
_cell_angle_beta	90.011571
_cell_angle_gamma	83.498738
loop_
_atom_site_label
_atom_site_type_symbol
_atom_site_fract_x
_atom_site_fract_y
_atom_site_fract_z
O1	O	-1.114511	-0.108326	0.077017
O2	O	-0.614511	0.391674	0.577017
O3	O	-0.869961	-0.121682	0.077040
O4	O	-0.369961	0.378318	0.577040
O5	O	-0.998914	0.007271	0.077020
O6	O	-0.498914	0.507271	0.577020
O7	O	-0.985558	-0.237279	0.077038
O8	O	-0.485558	0.262721	0.577038
O9	O	-0.998930	0.007262	-0.077204
O10	O	-0.498930	0.507262	0.422796
O11	O	-0.869977	-0.121690	-0.077183
O12	O	-0.369977	0.378310	0.422817
O13	O	-1.114526	-0.108334	-0.077206
O14	O	-0.614526	0.391666	0.422794
Cu15	Cu	-0.992253	-0.115013	-0.091277
Cu16	Cu	-0.492253	0.384987	0.408723
Cu17	Cu	-0.992235	-0.115003	0.091110
Cu18	Cu	-0.492235	0.384997	0.591110
O19	O	-0.985574	-0.237287	-0.077186
O20	O	-0.485574	0.262713	0.422814
C21	C	-0.838675	-0.121132	-0.000069
C22	C	-0.338675	0.378868	0.499931
C23	C	-0.745429	-0.119470	-0.000060
C24	C	-0.245429	0.380530	0.499940
C25	C	-0.998367	0.038561	-0.000092
C26	C	-0.498367	0.538561	0.499908
C27	C	-0.996705	0.131807	-0.000093
C28	C	-0.496705	0.631807	0.499907
C29	C	-1.145813	-0.108885	-0.000096
C30	C	-0.645813	0.391115	0.499904
C31	C	-1.239059	-0.110547	-0.000098
C32	C	-0.739059	0.389453	0.499902
C33	C	-0.530572	-0.035565	-0.000084
C34	C	-0.030572	0.464435	0.499916
C35	C	-0.469544	-0.074523	0.075959
C36	C	0.030456	0.425477	0.575959
C37	C	-0.574703	-0.116462	-0.000071
C38	C	-0.074703	0.383538	0.499929
C39	C	-0.469582	-0.074551	-0.076093
C40	C	0.030418	0.425449	0.423907
C41	C	-0.409790	-0.113551	-0.000086
C42	C	0.090210	0.386449	0.499914
C43	C	-0.514903	-0.155443	0.076035
C44	C	-0.014903	0.344557	0.576035
C45	C	-0.514947	-0.155459	-0.076086
C46	C	-0.014947	0.344541	0.423914
C47	C	-0.453937	-0.194476	-0.000024
C48	C	0.046063	0.305524	0.499976
C49	C	-0.669705	-0.118137	-0.000062
C50	C	-0.169705	0.381863	0.499938
C51	C	-0.314789	-0.111883	-0.000089
C52	C	0.185211	0.388117	0.499911
C53	C	-0.986120	-0.268577	-0.000072
C54	C	-0.486120	0.231423	0.499928
C55	C	-0.987782	-0.361823	-0.000066
C56	C	-0.487782	0.138177	0.499934
N57	N	-0.992272	-0.115020	-0.219558
N58	N	-0.492272	0.384980	0.280442
C59	C	-0.912801	0.346663	-0.000072
C60	C	-0.412801	0.846663	0.499928
C61	C	-0.951771	0.407676	-0.076117
C62	C	-0.451771	0.907676	0.423883
C63	C	-0.993698	0.302533	-0.000085
C64	C	-0.493698	0.802533	0.499915
C65	C	-0.951775	0.407668	0.075935
C66	C	-0.451775	0.907668	0.575935
C67	C	-0.990787	0.467445	-0.000074
C68	C	-0.490787	0.967445	0.499926
C69	C	-1.032690	0.362317	-0.076193
C70	C	-0.532690	0.862317	0.423807
C71	C	-1.032682	0.362303	0.075927
C72	C	-0.532682	0.862303	0.575927
C73	C	-1.071711	0.423298	-0.000136
C74	C	-0.571711	0.923298	0.499864
C75	C	-0.995372	0.207530	-0.000092
C76	C	-0.495372	0.707530	0.499908
C77	C	-0.989119	0.562446	-0.000073
C78	C	-0.489119	1.062446	0.499927
C79	C	-1.051913	-0.055379	-0.469196
C80	C	-0.551913	0.444621	0.030804
C81	C	-0.976013	-0.039061	-0.530987
C82	C	-0.476013	0.460939	-0.030987
C83	C	-0.992253	-0.115009	-0.408719
C84	C	-0.492253	0.384991	0.091281
C85	C	-1.068135	-0.131278	-0.531022
C86	C	-0.568135	0.368722	-0.031022
C87	C	-0.992242	-0.114998	-0.591441
C88	C	-0.492242	0.385002	-0.091441
C89	C	-0.916316	-0.098655	-0.469149
C90	C	-0.416316	0.401345	0.030851
C91	C	-1.008487	-0.190904	-0.469179
C92	C	-0.508487	0.309096	0.030821
C93	C	-0.932533	-0.174619	-0.530942
C94	C	-0.432533	0.325381	-0.030942
C95	C	-0.992261	-0.115014	-0.303458
C96	C	-0.492261	0.384986	0.196542
C97	C	-0.992226	-0.114994	-0.696700
C98	C	-0.492226	0.385006	-0.196700
N99	N	-0.992222	-0.114990	0.219392
N100	N	-0.492222	0.385010	0.719392
H101	H	-0.449428	-0.040304	0.140243
H102	H	0.050572	0.459696	0.640243
N103	N	-1.026724	-0.275893	-0.433172
N104	N	-0.526724	0.224107	0.066828
H105	H	-0.977504	-0.301615	-0.394623
H106	H	-0.477504	0.198385	0.105377
H107	H	-1.035577	-0.314265	-0.487163
H108	H	-0.535577	0.185735	0.012837
N109	N	-1.160729	0.467232	-0.000190
N110	N	-0.660729	0.967232	0.499810
H111	H	-1.202092	0.423715	-0.000764
H112	H	-0.702092	0.923715	0.499236
H113	H	-1.169614	0.504089	-0.057095
H114	H	-0.669614	1.004089	0.442905
N115	N	-1.153142	-0.149511	-0.567024
N116	N	-0.653142	0.350489	-0.067024
H117	H	-1.191909	-0.157250	-0.513076
H118	H	-0.691909	0.342750	-0.013076
H119	H	-1.146018	-0.202719	-0.605579
H120	H	-0.646018	0.297281	-0.105579
H121	H	-0.420779	-0.261683	0.000023
H122	H	0.079221	0.238317	0.500023
N123	N	-1.118669	0.011454	-0.433277
N124	N	-0.618669	0.511454	0.066723
H125	H	-1.118561	0.010620	-0.363249
H126	H	-0.618561	0.510620	0.136751
H127	H	-1.175848	-0.000288	-0.456818
H128	H	-0.675848	0.499712	0.043182
N129	N	-0.541357	-0.200715	0.161298
N130	N	-0.041357	0.299285	0.661298
H131	H	-0.512738	-0.260558	0.161569
H132	H	-0.012738	0.239442	0.661569
H133	H	-0.604607	-0.201470	0.160747
H134	H	-0.104607	0.298530	0.660747
H135	H	-0.563905	0.031573	0.000005
H136	H	-0.063905	0.531573	0.500005
H137	H	-0.882021	-0.225045	-0.557882
H138	H	-0.382021	0.274955	-0.057882
N139	N	-0.541597	-0.200773	-0.161237
N140	N	-0.041597	0.299227	0.338763
H141	H	-0.525293	-0.170170	-0.218651
H142	H	-0.025293	0.329830	0.281349
H143	H	-0.604775	-0.202046	-0.160215
H144	H	-0.104775	0.297954	0.339785
H145	H	-0.449503	-0.040323	-0.140379
H146	H	0.050497	0.459677	0.359621
H147	H	-0.845652	0.313356	-0.000141
H148	H	-0.345652	0.813356	0.499859
H149	H	-0.917561	0.427781	-0.140401
H150	H	-0.417561	0.927781	0.359599
H151	H	-1.066863	0.342176	0.140214
H152	H	-0.566863	0.842176	0.640214
H153	H	-1.066884	0.342324	-0.140554
H154	H	-0.566884	0.842324	0.359446
N155	N	-0.906430	0.434290	0.161089
N156	N	-0.406430	0.934290	0.661089
H157	H	-0.846413	0.406124	0.161023
H158	H	-0.346413	0.906124	0.661023
H159	H	-0.936435	0.416980	0.218474
H160	H	-0.436435	0.916980	0.718474
H161	H	-0.852124	-0.084817	-0.442086
H162	H	-0.352124	0.415183	0.057914
N163	N	-0.957806	0.045956	-0.566958
N164	N	-0.457806	0.545956	-0.066958
H165	H	-1.002906	0.090959	-0.544505
H166	H	-0.502906	0.590959	-0.044505
H167	H	-0.957374	0.045079	-0.636982
H168	H	-0.457374	0.545079	-0.136982
