data_functionalizedCrystal
_audit_creation_method	'MofGen! by Chris Wilmer'
_symmetry_space_group_name_H-M	'P1'
_symmetry_Int_Tables_number	1
_symmetry_cell_setting	triclinic
loop_
_symmetry_equiv_pos_as_xyz
  x,y,z
_cell_length_a	10.686220
_cell_length_b	16.625545
_cell_length_c	10.686551
_cell_angle_alpha	85.592661
_cell_angle_beta	90.308082
_cell_angle_gamma	94.407346
loop_
_atom_site_label
_atom_site_type_symbol
_atom_site_fract_x
_atom_site_fract_y
_atom_site_fract_z
Zn1	Zn	1.972230	-0.196578	-0.562377
Zn2	Zn	2.472230	0.303422	-0.062377
Zn3	Zn	1.955958	-0.342521	-0.352612
Zn4	Zn	2.455958	0.157479	0.147388
Zn5	Zn	1.746342	-0.217205	-0.368694
Zn6	Zn	2.246342	0.282795	0.131306
Zn7	Zn	1.762389	-0.340887	-0.578390
Zn8	Zn	2.262389	0.159113	-0.078390
O9	O	1.859230	-0.274298	-0.465518
O10	O	2.359230	0.225702	0.034482
O11	O	2.145616	-0.207990	-0.521120
O12	O	2.645616	0.292010	-0.021120
O13	O	1.914627	-0.335213	-0.179199
O14	O	2.414627	0.164787	0.320801
O15	O	1.776401	-0.101630	-0.394415
O16	O	2.276401	0.398370	0.105585
O17	O	2.133661	-0.315213	-0.367006
O18	O	2.633661	0.184787	0.132994
O19	O	1.942360	-0.086476	-0.536714
O20	O	2.442360	0.413524	-0.036714
O21	O	1.760623	-0.243144	-0.191014
O22	O	2.260623	0.256856	0.308986
O23	O	1.572927	-0.241560	-0.409942
O24	O	2.072927	0.258440	0.090058
O25	O	1.803750	-0.312428	-0.751811
O26	O	2.303750	0.187572	-0.251811
O27	O	1.584716	-0.332428	-0.564005
O28	O	2.084716	0.167572	-0.064005
O29	O	1.957919	-0.206405	-0.740047
O30	O	2.457919	0.293595	-0.240047
O31	O	1.930186	-0.455142	-0.382533
O32	O	2.430186	0.044858	0.117467
O33	O	1.787972	-0.453942	-0.548411
O34	O	2.287972	0.046058	-0.048411
C35	C	1.533305	-0.289056	-0.490457
C36	C	2.033305	0.210944	0.009543
C37	C	1.393875	-0.295387	-0.501155
C38	C	1.893875	0.204613	-0.001155
C39	C	1.859090	-0.483797	-0.465489
C40	C	2.359090	0.016203	0.034511
C41	C	1.859149	-0.573414	-0.465510
C42	C	2.359149	-0.073414	0.034490
C43	C	1.859199	-0.646193	-0.465531
C44	C	2.359199	-0.146193	0.034469
C45	C	1.859275	-0.737497	-0.465553
C46	C	2.359275	-0.237497	0.034447
C47	C	1.859341	-0.810269	-0.465564
C48	C	2.359341	-0.310269	0.034436
C49	C	1.859415	-0.901579	-0.465584
C50	C	2.359415	-0.401579	0.034416
C51	C	2.186428	-0.259483	-0.440483
C52	C	2.686428	0.240517	0.059517
C53	C	2.325860	-0.253169	-0.429814
C54	C	2.825860	0.246831	0.070186
C55	C	1.884440	-0.256933	-0.792719
C56	C	2.384440	0.243067	-0.292719
C57	C	1.895183	-0.249534	-0.932153
C58	C	2.395183	0.250466	-0.432153
C59	C	1.859406	-0.063977	-0.465572
C60	C	2.359406	0.436023	0.034428
C61	C	1.859481	0.025649	-0.465595
C62	C	2.359481	0.525649	0.034405
C63	C	1.834190	-0.291533	-0.139584
C64	C	2.334190	0.208467	0.360416
C65	C	1.823690	-0.298694	-0.000133
C66	C	2.323690	0.201306	0.499867
H67	H	1.374297	-0.212182	-0.360551
H68	H	1.874297	0.287818	0.139449
H69	H	1.754268	-0.346446	-0.951663
H70	H	2.254268	0.153554	-0.451663
O71	O	1.977910	-0.192583	-0.990175
O72	O	2.477910	0.307417	-0.490175
C73	C	1.970600	-0.197630	-1.121145
C74	C	2.470600	0.302370	-0.621145
H75	H	1.875124	-0.227493	-1.146320
H76	H	2.375124	0.272507	-0.646320
H77	H	2.047809	-0.235247	-1.152626
H78	H	2.547809	0.264753	-0.652626
C79	C	2.104554	-0.075308	-1.156755
C80	C	2.604554	0.424692	-0.656755
C81	C	1.987285	-0.111981	-1.187676
C82	C	2.487285	0.388019	-0.687676
H83	H	2.114852	-0.022477	-1.197796
H84	H	2.614852	0.477523	-0.697796
H85	H	2.109484	-0.071909	-1.068518
H86	H	2.609484	0.428091	-0.568518
H87	H	2.168882	-0.106665	-1.182991
H88	H	2.668882	0.393335	-0.682991
H89	H	1.922960	-0.080631	-1.161426
H90	H	2.422960	0.419369	-0.661426
H91	H	1.982345	-0.115373	-1.275910
H92	H	2.482345	0.384627	-0.775910
H93	H	1.345431	-0.336383	-0.570415
H94	H	1.845431	0.163617	-0.070415
