data_functionalizedCrystal
_audit_creation_method	'MofGen! by Chris Wilmer'
_symmetry_space_group_name_H-M	'P1'
_symmetry_Int_Tables_number	1
_symmetry_cell_setting	triclinic
loop_
_symmetry_equiv_pos_as_xyz
  x,y,z
_cell_length_a	16.109301
_cell_length_b	23.532407
_cell_length_c	14.586319
_cell_angle_alpha	89.991566
_cell_angle_beta	89.999213
_cell_angle_gamma	83.155079
loop_
_atom_site_label
_atom_site_type_symbol
_atom_site_fract_x
_atom_site_fract_y
_atom_site_fract_z
O1	O	1.102555	0.073202	-0.076192
O2	O	0.860422	0.082312	-0.076208
O3	O	0.988790	-0.005148	-0.076183
O4	O	0.974187	0.160662	-0.076217
O5	O	0.988781	-0.005149	0.076298
O6	O	0.860413	0.082311	0.076273
O7	O	1.102546	0.073201	0.076289
Cu8	Cu	0.981479	0.077756	0.090204
Cu9	Cu	0.981489	0.077757	-0.090123
O10	O	0.974178	0.160660	0.076264
C11	C	0.829445	0.081942	0.000031
C12	C	0.737159	0.080836	0.000026
C13	C	0.514498	0.130160	0.000026
C14	C	0.427786	0.129116	0.000032
C15	C	0.448476	0.025348	0.000050
C16	C	0.535187	0.026393	0.000050
C17	C	0.568195	0.078801	0.000034
C18	C	0.394773	0.076712	0.000039
C19	C	0.300755	0.075580	0.000046
C20	C	0.662218	0.079933	0.000029
C21	C	0.988414	-0.026366	0.000060
C22	C	0.987296	-0.089587	0.000067
C23	C	1.056249	-0.488436	0.000021
C24	C	1.055210	-0.547840	0.000014
O25	O	1.119130	-0.584349	-0.000015
N26	N	0.978895	-0.570748	0.000010
C27	C	0.903614	-0.534248	0.000003
O28	O	0.838607	-0.559187	-0.000002
C29	C	0.904654	-0.474845	0.000004
C30	C	0.980973	-0.451941	0.000018
C31	C	1.132562	-0.465531	0.000034
C32	C	1.133601	-0.406131	0.000043
C33	C	1.058325	-0.369636	0.000039
C34	C	0.982012	-0.392541	0.000026
C35	C	0.829373	-0.438346	-0.000009
C36	C	0.830419	-0.378940	-0.000009
C37	C	0.906739	-0.356036	0.000004
C38	C	0.907774	-0.296645	0.000031
N39	N	0.984089	-0.273738	0.000035
C40	C	1.059365	-0.310233	0.000039
C41	C	0.901437	-0.658998	0.000001
C42	C	0.900396	-0.718400	0.000007
C43	C	1.051993	-0.731988	0.000016
C44	C	1.053032	-0.672585	0.000017
C45	C	0.977752	-0.636091	0.000005
C46	C	1.061539	-0.185488	0.000058
C47	C	1.062571	-0.126082	0.000071
C48	C	0.910975	-0.112499	0.000057
C49	C	0.909943	-0.171900	0.000049
C50	C	0.985232	-0.208394	0.000047
O51	O	0.843888	-0.260102	0.000057
O52	O	1.124361	-0.285285	0.000032
C53	C	1.133523	0.073570	0.000048
C54	C	1.225809	0.074677	0.000047
C55	C	0.974554	0.181878	0.000019
C56	C	0.975672	0.245100	0.000006
N57	N	0.981477	0.077754	0.217035
N58	N	0.981497	0.077754	-0.216954
C59	C	1.038338	0.039040	0.452053
C60	C	1.038340	0.039039	0.548034
C61	C	0.924631	0.116470	0.548021
C62	C	0.924625	0.116468	0.452042
C63	C	0.981483	0.077754	0.404060
C64	C	0.981491	0.077754	0.596021
C65	C	0.981494	0.077753	0.700088
C66	C	0.981480	0.077754	0.299986
H67	H	0.578910	-0.015433	0.000059
O68	O	0.828227	-0.623630	0.000043
C69	C	0.677756	-0.616435	-0.000015
C70	C	0.760602	-0.656549	-0.000040
H71	H	0.623060	-0.643034	-0.000102
H72	H	0.674388	-0.588301	0.063814
H73	H	0.674494	-0.588265	-0.063812
H74	H	0.763920	-0.684755	0.063714
H75	H	0.763936	-0.684644	-0.063911
O76	O	0.416451	-0.025573	0.000218
C77	C	0.407645	-0.114602	0.079189
C78	C	0.443949	-0.056948	0.079130
H79	H	0.429876	-0.139991	0.142973
H80	H	0.336443	-0.106563	0.079242
H81	H	0.429785	-0.139954	0.015350
H82	H	0.421872	-0.031567	0.142958
H83	H	0.515147	-0.065028	0.079029
O84	O	1.093490	0.001455	0.594796
C85	C	1.143927	-0.032840	0.742661
C86	C	1.081411	0.009748	0.689819
H87	H	1.134195	-0.026142	0.819496
H88	H	1.133474	-0.078470	0.723869
H89	H	1.210443	-0.025410	0.723728
H90	H	1.014870	0.002370	0.708724
H91	H	1.091937	0.055363	0.708615
O92	O	0.375590	0.178992	0.000181
C93	C	0.265650	0.238021	0.079133
C94	C	0.324727	0.181520	0.079090
H95	H	0.224500	0.240079	0.142914
H96	H	0.304097	0.275678	0.079180
H97	H	0.224575	0.240118	0.015291
H98	H	0.365814	0.179368	0.142921
H99	H	0.286230	0.143890	0.078995
H100	H	0.878340	0.147991	0.587098
H101	H	1.115179	-0.653941	0.000027
H102	H	1.124722	-0.107437	0.000084
O103	O	1.134750	-0.220851	0.000100
C104	C	1.285221	-0.228043	0.000067
C105	C	1.202374	-0.187930	0.000034
H106	H	1.339916	-0.201443	-0.000006
H107	H	1.288583	-0.256191	0.063893
H108	H	1.288493	-0.256198	-0.063733
H109	H	1.199046	-0.159740	0.063791
H110	H	1.199047	-0.159821	-0.063834
H111	H	1.195748	-0.387488	0.000050
O112	O	1.205768	-0.500896	0.000082
C113	C	1.356238	-0.508084	0.000054
C114	C	1.273389	-0.467973	0.000011
H115	H	1.410931	-0.481482	-0.000023
H116	H	1.359599	-0.536228	0.063884
H117	H	1.359514	-0.536243	-0.063742
H118	H	1.270058	-0.439778	0.063763
H119	H	1.270063	-0.439869	-0.063862
H120	H	1.084634	0.007516	0.412989
O121	O	1.125097	-0.767468	-0.000153
C122	C	1.211867	-0.842441	-0.079135
C123	C	1.129062	-0.802283	-0.079067
H124	H	1.215092	-0.870608	-0.142920
H125	H	1.266628	-0.815899	-0.079190
H126	H	1.215157	-0.870575	-0.015297
H127	H	1.125690	-0.774141	-0.142894
H128	H	1.074340	-0.828860	-0.078964
O129	O	0.826311	-0.740713	-0.000120
C130	C	0.737129	-0.799843	-0.079162
C131	C	0.821071	-0.774627	-0.079114
H132	H	0.732857	-0.827258	-0.143032
H133	H	0.732829	-0.827360	-0.015397
H134	H	0.683526	-0.763540	-0.079119
H135	H	0.874722	-0.810894	-0.079190
H136	H	0.825297	-0.747095	-0.142874
O137	O	0.869362	0.154133	0.405558
C138	C	0.756545	0.230911	0.415665
C139	C	0.819096	0.188301	0.468423
H140	H	0.715876	0.258539	0.466469
H141	H	0.792157	0.259406	0.370742
H142	H	0.715254	0.206300	0.370717
H143	H	0.860403	0.212865	0.513420
H144	H	0.783432	0.159806	0.513288
H145	H	0.541371	0.172834	0.000019
O146	O	0.755162	-0.460491	-0.000067
C147	C	0.604911	-0.440718	-0.000043
C148	C	0.688902	-0.415565	0.000003
H149	H	0.551318	-0.404408	0.000034
H150	H	0.600580	-0.468159	-0.063875
H151	H	0.600661	-0.468216	0.063751
H152	H	0.693209	-0.388042	-0.063747
H153	H	0.693197	-0.388157	0.063878
H154	H	0.847797	-0.190549	0.000064
O155	O	0.757311	-0.343466	-0.000180
C156	C	0.670529	-0.268479	-0.079151
C157	C	0.753342	-0.308628	-0.079085
H158	H	0.667301	-0.240295	-0.142929
H159	H	0.615776	-0.295029	-0.079220
H160	H	0.667227	-0.240363	-0.015306
H161	H	0.756726	-0.336753	-0.142919
H162	H	0.808056	-0.282044	-0.078968
H163	H	0.849688	-0.082774	0.000057
