data_functionalizedCrystal
_audit_creation_method	'MofGen! by Chris Wilmer'
_symmetry_space_group_name_H-M	'P1'
_symmetry_Int_Tables_number	1
_symmetry_cell_setting	triclinic
loop_
_symmetry_equiv_pos_as_xyz
  x,y,z
_cell_length_a	10.868271
_cell_length_b	14.853567
_cell_length_c	14.853567
_cell_angle_alpha	96.365070
_cell_angle_beta	90.001341
_cell_angle_gamma	89.998656
loop_
_atom_site_label
_atom_site_type_symbol
_atom_site_fract_x
_atom_site_fract_y
_atom_site_fract_z
O1	O	0.102227	-1.196364	0.117705
O2	O	0.435560	-0.863031	0.451038
O3	O	0.768893	-0.529698	0.784371
O4	O	0.102247	-0.933905	0.131726
O5	O	0.435580	-0.600572	0.465059
O6	O	0.768913	-0.267238	0.798393
O7	O	0.102240	-1.072145	-0.006514
O8	O	0.435573	-0.738812	0.326819
O9	O	0.768907	-0.405479	0.660152
O10	O	0.102233	-1.058124	0.255945
O11	O	0.435567	-0.724791	0.589279
O12	O	0.768900	-0.391457	0.922612
O13	O	-0.102405	-1.072134	-0.006520
O14	O	0.230929	-0.738801	0.326814
O15	O	0.564262	-0.405467	0.660147
O16	O	-0.102398	-0.933894	0.131721
O17	O	0.230935	-0.600560	0.465054
O18	O	0.564269	-0.267227	0.798387
O19	O	-0.102418	-1.196353	0.117699
O20	O	0.230915	-0.863020	0.451033
O21	O	0.564249	-0.529686	0.784366
Zn22	Zn	-0.134900	-1.065122	0.124709
Zn23	Zn	0.198434	-0.731788	0.458043
Zn24	Zn	0.531767	-0.398455	0.791376
Zn25	Zn	0.134728	-1.065137	0.124716
Zn26	Zn	0.468062	-0.731803	0.458050
Zn27	Zn	0.801395	-0.398470	0.791383
O28	O	-0.102411	-1.058113	0.255940
O29	O	0.230922	-0.724779	0.589273
O30	O	0.564255	-0.391446	0.922606
C31	C	-0.000073	-0.900311	0.131088
C32	C	0.333260	-0.566977	0.464421
C33	C	0.666594	-0.233644	0.797755
C34	C	-0.000065	-0.800227	0.129184
C35	C	0.333268	-0.466894	0.462518
C36	C	0.666602	-0.133560	0.795851
N37	N	-0.318914	-1.065118	0.124704
N38	N	0.014420	-0.731785	0.458037
N39	N	0.347753	-0.398451	0.791370
C40	C	-0.000079	-1.071504	-0.040106
C41	C	0.333255	-0.738171	0.293228
C42	C	0.666588	-0.404838	0.626561
C43	C	-0.000068	-1.069601	-0.140189
C44	C	0.333265	-0.736267	0.193144
C45	C	0.666599	-0.402934	0.526477
C46	C	-0.569920	-1.065132	0.124714
C47	C	-0.236586	-0.731798	0.458048
C48	C	0.096747	-0.398465	0.791381
C49	C	-0.430242	-1.065121	0.124711
C50	C	-0.096909	-0.731788	0.458044
C51	C	0.236424	-0.398454	0.791378
N52	N	0.318743	-1.065147	0.124715
N53	N	0.652076	-0.731814	0.458048
N54	N	0.985409	-0.398481	0.791381
C55	C	-0.000096	-1.229947	0.118337
C56	C	0.333238	-0.896614	0.451671
C57	C	0.666571	-0.563281	0.785004
C58	C	-0.000095	-1.330031	0.120241
C59	C	0.333238	-0.996698	0.453575
C60	C	0.666571	-0.663365	0.786908
C61	C	-0.000090	-0.387693	0.039019
C62	C	0.333243	-0.054360	0.372352
C63	C	0.666576	0.278974	0.705685
C64	C	-0.000093	-0.366412	0.203251
C65	C	0.333240	-0.033079	0.536585
C66	C	0.666574	0.300255	0.869918
C67	C	-0.000089	-0.460446	0.205041
C68	C	0.333244	-0.127112	0.538375
C69	C	0.666577	0.206221	0.871708
C70	C	-0.000084	-0.518108	0.123819
C71	C	0.333249	-0.184774	0.457152
C72	C	0.666583	0.148559	0.790486
C73	C	-0.000083	-0.481736	0.040806
C74	C	0.333251	-0.148402	0.374140
C75	C	0.666584	0.184931	0.707473
C76	C	-0.000078	-0.496825	0.288053
C77	C	0.333255	-0.163492	0.621386
C78	C	0.666589	0.169842	0.954719
C79	C	-0.000073	-0.590864	0.289846
C80	C	0.333261	-0.257531	0.623180
C81	C	0.666594	0.075803	0.956513
C82	C	-0.000076	-0.648528	0.208623
C83	C	0.333257	-0.315194	0.541956
C84	C	0.666590	0.018139	0.875289
C85	C	-0.000076	-0.612150	0.125607
C86	C	0.333257	-0.278817	0.458940
C87	C	0.666590	0.054516	0.792273
C88	C	-0.000071	-0.669812	0.044384
C89	C	0.333262	-0.336479	0.377717
C90	C	0.666595	-0.003146	0.711051
C91	C	-0.000080	-0.633437	-0.038633
C92	C	0.333253	-0.300104	0.294700
C93	C	0.666587	0.033230	0.628034
C94	C	-0.000086	-0.539399	-0.040417
C95	C	0.333247	-0.206066	0.292916
C96	C	0.666580	0.127267	0.626249
C97	C	-0.000070	-0.742565	0.210407
C98	C	0.333263	-0.409232	0.543740
C99	C	0.666596	-0.075898	0.877074
C100	C	-0.000064	-0.763855	0.046172
C101	C	0.333270	-0.430522	0.379505
C102	C	0.666603	-0.097188	0.712838
C103	C	-0.000085	-0.979435	-0.552723
C104	C	0.333249	-0.646102	-0.219390
C105	C	0.666582	-0.312768	0.113943
C106	C	-0.000097	-1.143668	-0.574004
C107	C	0.333236	-0.810334	-0.240671
C108	C	0.666570	-0.477001	0.092662
C109	C	-0.000090	-1.145458	-0.479971
C110	C	0.333244	-0.812124	-0.146637
C111	C	0.666577	-0.478791	0.186696
C112	C	-0.000082	-1.064235	-0.422309
C113	C	0.333251	-0.730902	-0.088975
C114	C	0.666585	-0.397569	0.244358
C115	C	-0.000081	-0.981223	-0.458680
C116	C	0.333252	-0.647889	-0.125347
C117	C	0.666585	-0.314556	0.207986
C118	C	-0.000103	-1.228469	-0.443591
C119	C	0.333230	-0.895136	-0.110258
C120	C	0.666564	-0.561802	0.223075
C121	C	-0.000097	-1.230262	-0.349552
C122	C	0.333236	-0.896929	-0.016219
C123	C	0.666569	-0.563596	0.317114
C124	C	-0.000081	-1.149039	-0.291889
C125	C	0.333253	-0.815706	0.041445
C126	C	0.666586	-0.482372	0.374778
C127	C	-0.000079	-1.066023	-0.328266
C128	C	0.333255	-0.732690	0.005067
C129	C	0.666588	-0.399356	0.338401
C130	C	-0.000071	-0.984800	-0.270604
C131	C	0.333263	-0.651467	0.062729
C132	C	0.666596	-0.318134	0.396063
C133	C	-0.000060	-0.901783	-0.306979
C134	C	0.333274	-0.568450	0.026354
C135	C	0.666607	-0.235117	0.359687
C136	C	-0.000065	-0.899999	-0.401017
C137	C	0.333269	-0.566666	-0.067683
C138	C	0.666602	-0.233332	0.265650
C139	C	-0.000076	-1.150823	-0.197851
C140	C	0.333257	-0.817490	0.135482
C141	C	0.666591	-0.484157	0.468815
C142	C	-0.000067	-0.986588	-0.176561
C143	C	0.333266	-0.653255	0.156772
C144	C	0.666599	-0.319921	0.490105
C145	C	-0.000090	-1.058754	0.289531
C146	C	0.333244	-0.725420	0.622865
C147	C	0.666577	-0.392087	0.956198
C148	C	-0.000092	-1.060657	0.389615
C149	C	0.333241	-0.727324	0.722948
C150	C	0.666574	-0.393991	1.056282
H151	H	-0.000064	-0.810798	-0.019971
H152	H	0.333269	-0.477465	0.313362
H153	H	0.666602	-0.144131	0.646696
H154	H	-0.000087	-0.319459	0.269379
H155	H	0.333246	0.013875	0.602712
H156	H	0.666580	0.347208	0.936046
H157	H	-0.000071	-0.911844	-0.582344
H158	H	0.333262	-0.578511	-0.249011
H159	H	0.666596	-0.245178	0.084322
H160	H	-0.000113	-1.209795	-0.620958
H161	H	0.333220	-0.876462	-0.287624
H162	H	0.666553	-0.543129	0.045709
F163	F	-0.000066	-0.435454	0.374489
F164	F	0.333268	-0.102120	0.707822
F165	F	0.666601	0.231213	1.041156
H166	H	-0.000065	-0.620472	0.357443
H167	H	0.333268	-0.287139	0.690777
H168	H	0.666601	0.046194	1.024110
H169	H	-0.000068	-0.680397	-0.104764
H170	H	0.333266	-0.347064	0.228569
H171	H	0.666599	-0.013731	0.561902
H172	H	-0.000065	-0.772178	0.277998
H173	H	0.333268	-0.438844	0.611331
H174	H	0.666602	-0.105511	0.944665
H175	H	-0.000057	-0.832411	-0.430643
H176	H	0.333276	-0.499078	-0.097309
H177	H	0.666610	-0.165744	0.236024
F178	F	-0.000134	-1.314905	-0.504963
F179	F	0.333199	-0.981572	-0.171629
F180	F	0.666533	-0.648239	0.161704
F181	F	-0.000094	-1.318615	-0.310847
F182	F	0.333240	-0.985282	0.022486
F183	F	0.666573	-0.651948	0.355819
H184	H	-0.000056	-0.920445	-0.129618
H185	H	0.333278	-0.587112	0.203715
H186	H	0.666611	-0.253779	0.537049
H187	H	-0.000062	-0.835652	-0.260019
H188	H	0.333271	-0.502319	0.073314
H189	H	0.666605	-0.168985	0.406648
F190	F	-0.000091	-0.500679	-0.128762
F191	F	0.333242	-0.167346	0.204571
F192	F	0.666576	0.165987	0.537905
F193	F	-0.000106	-0.348980	-0.049330
F194	F	0.333228	-0.015647	0.284004
F195	F	0.666561	0.317687	0.617337
F196	F	-0.000107	-1.239169	-0.159141
F197	F	0.333226	-0.905836	0.174192
F198	F	0.666560	-0.572502	0.507525
