data_functionalizedCrystal
_audit_creation_method	'MofGen! by Chris Wilmer'
_symmetry_space_group_name_H-M	'P1'
_symmetry_Int_Tables_number	1
_symmetry_cell_setting	triclinic
loop_
_symmetry_equiv_pos_as_xyz
  x,y,z
_cell_length_a	13.032721
_cell_length_b	13.032831
_cell_length_c	16.959447
_cell_angle_alpha	97.186980
_cell_angle_beta	97.151188
_cell_angle_gamma	89.097115
loop_
_atom_site_label
_atom_site_type_symbol
_atom_site_fract_x
_atom_site_fract_y
_atom_site_fract_z
Zn1	Zn	0.609369	1.520195	0.651222
Zn2	Zn	0.781348	1.498246	0.533456
Zn3	Zn	0.587538	1.348224	0.500471
Zn4	Zn	0.759416	1.326343	0.647002
O5	O	0.684418	1.423252	0.583038
O6	O	0.650497	1.661195	0.651171
O7	O	0.755682	1.478316	0.418470
O8	O	0.446529	1.389379	0.508430
O9	O	0.776850	1.645069	0.564648
O10	O	0.462567	1.515726	0.619186
O11	O	0.613290	1.368096	0.394237
O12	O	0.592023	1.201410	0.504338
O13	O	0.739469	1.352087	0.758171
O14	O	0.718301	1.185334	0.611994
O15	O	0.629230	1.494509	0.761272
O16	O	0.922344	1.457099	0.560556
O17	O	0.906230	1.330804	0.643978
C18	C	0.650414	1.156057	0.554129
C19	C	0.635891	1.041746	0.541783
C20	C	0.416192	1.457442	0.560600
C21	C	0.301890	1.472011	0.551038
C22	C	0.691997	0.982844	0.589481
C23	C	0.676989	0.864698	0.576722
C24	C	0.951604	1.389223	0.605409
C25	C	1.065919	1.374760	0.615016
C26	C	1.124830	1.430855	0.578065
C27	C	1.242981	1.415908	0.587994
C28	C	0.718555	1.691490	0.612059
C29	C	0.733102	1.805798	0.624427
C30	C	0.684338	1.423306	0.789203
C31	C	0.684304	1.423328	0.877059
C32	C	0.684430	1.423267	0.377674
C33	C	0.684200	1.423480	0.289816
C34	C	0.741607	1.349313	1.246927
C35	C	0.626815	1.497618	1.250151
C36	C	0.626833	1.497588	1.167604
C37	C	0.684241	1.423420	1.124715
C38	C	0.741630	1.349282	1.164373
C39	C	0.569453	1.571730	1.127941
C40	C	0.569470	1.571704	1.045389
C41	C	0.626873	1.497531	1.002497
C42	C	0.684263	1.423389	1.042160
C43	C	0.741671	1.349221	0.999271
C44	C	0.799056	1.275074	1.038932
C45	C	0.799032	1.275109	1.121481
C46	C	0.626896	1.497496	0.919948
C47	C	0.741693	1.349191	0.916717
H48	H	0.751138	1.019883	0.639766
H49	H	0.792246	0.842831	0.674717
Br50	Br	0.578393	0.802982	0.492914
H51	H	1.102955	1.315672	0.654004
H52	H	0.788326	1.288942	1.279222
H53	H	1.264861	1.531111	0.512053
Br54	Br	0.819598	1.248521	0.858515
H55	H	0.580083	1.558007	1.285077
Br56	Br	0.537300	0.980026	0.457978
H57	H	1.087798	1.489951	0.539083
H58	H	0.522722	1.632119	1.162868
Br59	Br	0.876973	1.174429	0.980717
H60	H	1.280012	1.356816	0.626985
H61	H	0.522743	1.632078	1.013104
H62	H	0.845756	1.214745	1.153781
Br63	Br	0.549034	1.598124	0.866128
