data_functionalizedCrystal
_audit_creation_method	'MofGen! by Chris Wilmer'
_symmetry_space_group_name_H-M	'P1'
_symmetry_Int_Tables_number	1
_symmetry_cell_setting	triclinic
loop_
_symmetry_equiv_pos_as_xyz
  x,y,z
_cell_length_a	10.967874
_cell_length_b	10.654550
_cell_length_c	9.130313
_cell_angle_alpha	90.004369
_cell_angle_beta	77.867785
_cell_angle_gamma	95.400623
loop_
_atom_site_label
_atom_site_type_symbol
_atom_site_fract_x
_atom_site_fract_y
_atom_site_fract_z
O1	O	1.657230	-0.176154	-0.540076
O2	O	1.294077	-0.193014	-0.448420
O3	O	1.484003	-0.001843	-0.496346
O4	O	1.467304	-0.367324	-0.492150
O5	O	1.483990	-0.001838	-0.252744
O6	O	1.294063	-0.193008	-0.204818
O7	O	1.657217	-0.176149	-0.296473
Cu8	Cu	1.475639	-0.184578	-0.228403
Cu9	Cu	1.475655	-0.184584	-0.516491
O10	O	1.467291	-0.367319	-0.248548
C11	C	1.247570	-0.191784	-0.314883
C12	C	1.109014	-0.188112	-0.279913
C13	C	1.047248	-0.186478	-0.390516
C14	C	0.904043	-0.182684	-0.354375
C15	C	1.482770	0.044957	-0.374236
C16	C	1.479102	0.184400	-0.373313
C17	C	1.703724	-0.177378	-0.430014
C18	C	1.842280	-0.181050	-0.464993
C19	C	1.468523	-0.414119	-0.370661
C20	C	1.472192	-0.553562	-0.371594
N21	N	1.475637	-0.184572	-0.025780
C22	C	1.590928	0.263902	-0.401537
C23	C	1.587473	0.394922	-0.400683
C24	C	1.360358	0.366926	-0.343372
C25	C	1.363813	0.235908	-0.344237
N26	N	1.475666	-0.184580	-0.719116
C27	C	1.559765	-0.099958	0.029643
C28	C	1.559777	-0.099958	0.182977
C29	C	1.391529	-0.269198	0.225452
C30	C	1.391512	-0.269191	0.072122
H31	H	1.100386	-0.187895	-0.511962
H32	H	0.850908	-0.181280	-0.232920
F33	F	1.706494	0.479529	-0.430726
F34	F	0.911721	-0.182909	-0.623745
H35	H	1.055874	-0.186709	-0.158466
F36	F	1.713627	0.209088	-0.432483
H37	H	1.266493	0.408880	-0.319697
F38	F	1.649315	-0.009898	0.241957
F39	F	1.244787	0.151290	-0.314206
F40	F	1.649296	-0.009896	-0.074545
F41	F	1.302004	-0.359254	0.329655
F42	F	1.301962	-0.359248	0.013134
