data_functionalizedCrystal
_audit_creation_method	'MofGen! by Chris Wilmer'
_symmetry_space_group_name_H-M	'P1'
_symmetry_Int_Tables_number	1
_symmetry_cell_setting	triclinic
loop_
_symmetry_equiv_pos_as_xyz
  x,y,z
_cell_length_a	16.994736
_cell_length_b	19.077105
_cell_length_c	19.077068
_cell_angle_alpha	90.115316
_cell_angle_beta	92.266330
_cell_angle_gamma	87.689763
loop_
_atom_site_label
_atom_site_type_symbol
_atom_site_fract_x
_atom_site_fract_y
_atom_site_fract_z
Zn1	Zn	0.508322	-1.062941	0.322970
Zn2	Zn	0.381483	-1.058140	0.440481
Zn3	Zn	0.370936	-0.945446	0.318267
Zn4	Zn	0.507848	-0.940676	0.435711
O5	O	0.442147	-1.001801	0.379357
O6	O	0.496109	-1.160635	0.342522
O7	O	0.269704	-1.043178	0.424297
O8	O	0.384945	-0.965038	0.220561
O9	O	0.402921	-1.157108	0.428857
O10	O	0.485882	-1.051361	0.224016
O11	O	0.261955	-0.960383	0.334507
O12	O	0.384485	-0.846483	0.329882
O13	O	0.618291	-0.956907	0.420728
O14	O	0.485074	-0.842978	0.416168
O15	O	0.618640	-1.046735	0.337897
O16	O	0.402462	-1.038552	0.538178
O17	O	0.495301	-0.952252	0.534674
C18	C	0.433584	-0.819234	0.371997
C19	C	0.429940	-0.741130	0.368866
C20	C	0.449993	-0.994383	0.561923
C21	C	0.453378	-0.991274	0.640027
C22	C	0.647886	-1.001828	0.379301
C23	C	0.737208	-1.001844	0.379284
C24	C	0.237208	-1.001818	0.379355
C25	C	0.147885	-1.001955	0.379182
Zn26	Zn	1.013352	-1.058421	0.440166
Zn27	Zn	1.002816	-0.945483	0.318178
Zn28	Zn	0.876015	-0.940882	0.435721
Zn29	Zn	0.876402	-1.062921	0.322735
O30	O	0.942146	-1.001927	0.379200
O31	O	1.122336	-1.043482	0.423937
O32	O	0.981424	-0.846534	0.330003
O33	O	0.898480	-0.952665	0.534648
O34	O	1.114595	-0.960507	0.334313
O35	O	0.999382	-1.039021	0.537914
O36	O	0.888264	-0.843154	0.416361
O37	O	0.765685	-0.957028	0.420780
O38	O	0.899140	-1.160663	0.342081
O39	O	0.765970	-1.046690	0.337770
O40	O	0.999757	-1.157357	0.428357
O41	O	0.981800	-0.964871	0.220445
O42	O	0.888924	-1.051152	0.223793
C43	C	0.450744	-1.185080	0.386746
C44	C	0.454408	-1.263183	0.389895
C45	C	0.480523	-0.702628	0.412387
C46	C	0.477103	-0.629242	0.409435
C47	C	0.423095	-0.594359	0.362965
C48	C	0.372510	-0.632867	0.319440
C49	C	0.375935	-0.706252	0.322388
C50	C	0.407248	-0.375076	0.349318
C51	C	0.403825	-0.301686	0.346374
C52	C	0.508419	-0.298066	0.436369
C53	C	0.511836	-0.371452	0.439317
C54	C	0.461254	-0.409953	0.395788
N55	N	0.419596	-0.519347	0.359949
N56	N	0.464758	-0.484965	0.398802
C57	C	0.434289	-1.009267	0.196080
C58	C	0.430941	-1.012449	0.117978
C59	C	0.406676	-1.034780	0.678524
C60	C	0.409865	-1.031860	0.751912
C61	C	0.459753	-0.985429	0.786802
C62	C	0.506461	-0.941921	0.748300
C63	C	0.503275	-0.944845	0.674914
C64	C	0.474463	-0.971865	1.006090
C65	C	0.477643	-0.968942	1.079481
C66	C	0.381048	-1.058882	1.083088
C67	C	0.377864	-1.061799	1.009700
C68	C	0.424574	-1.018294	0.971205
N69	N	0.463012	-0.982442	0.861816
N70	N	0.421319	-1.021285	0.896192
C71	C	0.934262	-1.008997	0.196621
C72	C	0.930909	-1.011999	0.118512
C73	C	0.950667	-1.185221	0.386223
C74	C	0.954298	-1.263330	0.389215
C75	C	0.950013	-0.994874	0.562494
C76	C	0.953239	-0.991985	0.640607
C77	C	0.933704	-0.819344	0.372254
C78	C	0.930230	-0.741228	0.369455
C79	C	0.977740	-0.968523	0.080110
C80	C	0.974607	-0.971345	0.006718
C81	C	0.924637	-1.017639	-0.028270
C82	C	0.877804	-1.061120	0.010138
C83	C	0.880942	-1.058302	0.083528
C84	C	1.008390	-1.298293	0.435546
C85	C	1.011803	-1.371685	0.438371
C86	C	0.961127	-1.410112	0.394863
C87	C	0.907029	-1.375143	0.348530
C88	C	0.903613	-1.301753	0.345709
C89	C	0.902214	-0.945668	0.675593
C90	C	0.905229	-0.942955	0.748989
C91	C	0.959273	-0.986555	0.787397
C92	C	1.010301	-1.032878	0.752406
C93	C	1.007281	-1.035594	0.679011
C94	C	0.879717	-0.702826	0.412782
C95	C	0.876453	-0.629427	0.410167
C96	C	0.923698	-0.594432	0.364220
C97	C	0.974217	-0.632838	0.320891
C98	C	0.977484	-0.706236	0.323511
H99	H	0.524500	-0.731024	0.450230
O100	O	0.921257	-1.020657	-0.107428
H101	H	0.938792	-1.074414	-0.124787
O102	O	1.062326	-1.085551	0.641284
H103	H	1.051152	-1.080125	0.583795
H104	H	0.334749	-0.737600	0.286945
O105	O	0.964814	-1.489269	0.397912
H106	H	1.024596	-1.509188	0.384426
H107	H	0.328539	-0.604460	0.281600
H108	H	0.865771	-1.406442	0.313108
O109	O	0.920161	-0.515266	0.361397
H110	H	0.961501	-0.497376	0.322172
H111	H	0.366048	-1.072585	0.650121
O112	O	0.843913	-0.898639	0.634181
H113	H	0.850380	-0.908298	0.577265
O114	O	0.828759	-0.740564	0.462346
H115	H	0.793097	-0.701520	0.492036
H116	H	0.863676	-0.905231	0.777468
H117	H	0.359850	-0.273287	0.308525
O118	O	0.823917	-1.111050	-0.027614
H119	H	0.762057	-1.098395	-0.013989
H120	H	1.012744	-0.935935	-0.024544
O121	O	0.324063	-1.111884	0.972068
H122	H	0.292129	-1.141652	1.011168
O123	O	0.845278	-1.264045	0.295727
H124	H	0.810625	-1.303101	0.265945
O125	O	0.821957	-0.588012	0.456898
H126	H	0.779226	-0.555640	0.424002
O127	O	1.025161	-0.595090	0.271325
H128	H	1.014386	-0.537602	0.276780
O129	O	0.962534	-0.983616	0.866558
H130	H	0.917977	-0.944075	0.884428
O131	O	1.063054	-1.256860	0.482480
H132	H	1.051604	-1.199951	0.472738
O133	O	1.070161	-1.409393	0.488337
H134	H	1.104834	-1.370339	0.518103
H135	H	1.054303	-1.068376	0.783688
O136	O	0.562934	-0.256513	0.483327
H137	H	0.552295	-0.268356	0.539019
O138	O	1.031956	-0.747649	0.276762
H139	H	1.093681	-0.733222	0.288677
O140	O	0.531513	-0.587706	0.456509
H141	H	0.569583	-0.624289	0.489372
H142	H	0.512495	-0.936440	0.974753
H143	H	0.541307	-0.909419	0.643570
O144	O	0.570094	-0.409077	0.489431
H145	H	0.604700	-0.369974	0.519193
H146	H	0.366054	-0.406415	0.313880
H147	H	0.371834	-1.067286	0.783252
H148	H	0.518283	-0.931142	1.107887
O149	O	0.330695	-1.105818	1.124617
H150	H	0.290517	-1.073068	1.156851
O151	O	0.560262	-0.891833	0.785925
H152	H	0.554622	-0.897099	0.843423
H153	H	1.018438	-0.930828	0.108588
H154	H	0.842802	-1.093704	0.114790
