data_functionalizedCrystal
_audit_creation_method	'MofGen! by Chris Wilmer'
_symmetry_space_group_name_H-M	'P1'
_symmetry_Int_Tables_number	1
_symmetry_cell_setting	triclinic
loop_
_symmetry_equiv_pos_as_xyz
  x,y,z
_cell_length_a	14.909227
_cell_length_b	19.077105
_cell_length_c	19.077068
_cell_angle_alpha	89.884684
_cell_angle_beta	89.100874
_cell_angle_gamma	95.741075
loop_
_atom_site_label
_atom_site_type_symbol
_atom_site_fract_x
_atom_site_fract_y
_atom_site_fract_z
Zn1	Zn	-0.581494	-1.090198	-0.297876
Zn2	Zn	-0.081494	-0.590198	0.202124
Zn3	Zn	-0.436397	-1.078596	-0.421649
Zn4	Zn	0.063603	-0.578596	0.078351
Zn5	Zn	-0.424332	-0.965336	-0.299956
Zn6	Zn	0.075668	-0.465336	0.200044
Zn7	Zn	-0.580952	-0.967907	-0.410641
Zn8	Zn	-0.080952	-0.467907	0.089359
O9	O	-0.505794	-1.025509	-0.357531
O10	O	-0.005794	-0.525509	0.142469
O11	O	-0.567523	-1.187237	-0.318032
O12	O	-0.067523	-0.687237	0.181968
O13	O	-0.308527	-1.057640	-0.410983
O14	O	0.191473	-0.557640	0.089017
O15	O	-0.440357	-0.985679	-0.201558
O16	O	0.059643	-0.485679	0.298442
O17	O	-0.460921	-1.178713	-0.408967
O18	O	0.039079	-0.678713	0.091033
O19	O	-0.555823	-1.077414	-0.200030
O20	O	-0.055823	-0.577414	0.299970
O21	O	-0.299663	-0.974429	-0.321576
O22	O	0.200337	-0.474429	0.178424
O23	O	-0.439831	-0.867099	-0.310902
O24	O	0.060169	-0.367099	0.189098
O25	O	-0.707294	-0.990061	-0.390206
O26	O	-0.207294	-0.490061	0.109794
O27	O	-0.554900	-0.868988	-0.392222
O28	O	-0.054900	-0.368988	0.107778
O29	O	-0.707692	-1.079907	-0.307358
O30	O	-0.207692	-0.579907	0.192642
O31	O	-0.460395	-1.060133	-0.518311
O32	O	0.039605	-0.560133	-0.018311
O33	O	-0.566599	-0.978811	-0.510223
O34	O	-0.066599	-0.478811	-0.010223
C35	C	-0.495998	-0.842483	-0.350593
C36	C	0.004002	-0.342483	0.149407
C37	C	-0.491829	-0.764184	-0.347642
C38	C	0.008171	-0.264184	0.152358
C39	C	-0.514768	-1.018512	-0.539709
C40	C	-0.014768	-0.518512	-0.039709
C41	C	-0.518641	-1.015584	-0.617646
C42	C	-0.018641	-0.515584	-0.117646
C43	C	-0.741148	-1.036565	-0.347322
C44	C	-0.241148	-0.536565	0.152678
C45	C	-0.841443	-1.041276	-0.342971
C46	C	-0.341443	-0.541276	0.157029
C47	C	-0.983011	-1.094689	-0.293710
C48	C	-0.483011	-0.594689	0.206290
C49	C	-0.888776	-1.090266	-0.297795
C50	C	-0.388776	-0.590266	0.202205
C51	C	-0.888351	-0.996707	-0.384067
C52	C	-0.388351	-0.496707	0.115933
C53	C	-0.982586	-1.001130	-0.379982
C54	C	-0.482586	-0.501130	0.120018
C55	C	-1.029913	-1.050122	-0.334801
C56	C	-0.529913	-0.550122	0.165199
C57	C	-1.124150	-1.054541	-0.330713
C58	C	-0.624150	-0.554541	0.169287
C59	C	-1.123724	-0.960986	-0.416988
C60	C	-0.623724	-0.460986	0.083012
C61	C	-1.029488	-0.956563	-0.421073
C62	C	-0.529488	-0.456563	0.078927
C63	C	-0.271354	-1.014539	-0.367651
C64	C	0.228646	-0.514539	0.132349
C65	C	-0.171058	-1.009972	-0.371809
C66	C	0.328942	-0.509972	0.128191
C67	C	-0.515628	-1.209250	-0.364495
C68	C	-0.015628	-0.709250	0.135505
C69	C	-0.519819	-1.287549	-0.367463
C70	C	-0.019819	-0.787549	0.132537
C71	C	-0.549694	-0.728394	-0.388666
C72	C	-0.049694	-0.228394	0.111334
C73	C	-0.545781	-0.654825	-0.385883
C74	C	-0.045781	-0.154825	0.114117
C75	C	-0.483999	-0.617046	-0.342079
C76	C	0.016001	-0.117046	0.157921
C77	C	-0.426132	-0.652841	-0.301051
C78	C	0.073868	-0.152841	0.198949
C79	C	-0.430050	-0.726410	-0.303830
C80	C	0.069950	-0.226410	0.196170
C81	C	-0.465870	-0.396913	-0.329214
C82	C	0.034130	0.103087	0.170786
C83	C	-0.461955	-0.323339	-0.326439
C84	C	0.038045	0.176661	0.173561
C85	C	-0.581606	-0.325328	-0.411271
C86	C	-0.081606	0.174672	0.088729
C87	C	-0.585514	-0.398897	-0.414050
C88	C	-0.085514	0.101103	0.085950
C89	C	-0.527651	-0.434686	-0.373018
C90	C	-0.027651	0.065314	0.126982
N91	N	-0.479996	-0.541846	-0.339235
N92	N	0.020004	-0.041846	0.160765
N93	N	-0.531659	-0.509886	-0.375859
N94	N	-0.031659	-0.009886	0.124141
C95	C	-0.465216	-1.056586	-0.658448
C96	C	0.034784	-0.556586	-0.158448
C97	C	-0.468864	-1.053837	-0.731679
C98	C	0.031136	-0.553837	-0.231679
C99	C	-0.525934	-1.010082	-0.764106
C100	C	-0.025934	-0.510082	-0.264106
C101	C	-0.579365	-0.969078	-0.723298
C102	C	-0.079365	-0.469078	-0.223298
C103	C	-0.575721	-0.971832	-0.650069
C104	C	-0.075721	-0.471832	-0.150069
C105	C	-0.542761	-0.997306	-0.982668
C106	C	-0.042761	-0.497306	-0.482668
C107	C	-0.546399	-0.994554	-1.055902
C108	C	-0.046399	-0.494554	-0.555902
C109	C	-0.435900	-1.079314	-1.064278
C110	C	0.064100	-0.579314	-0.564278
C111	C	-0.432256	-1.082061	-0.991047
C112	C	0.067744	-0.582061	-0.491047
C113	C	-0.485691	-1.041060	-0.950246
C114	C	0.014309	-0.541060	-0.450246
N115	N	-0.529662	-1.007269	-0.838959
N116	N	-0.029662	-0.507269	-0.338959
N117	N	-0.481967	-1.043877	-0.875394
N118	N	0.018033	-0.543877	-0.375394
C119	C	-0.496805	-1.032554	-0.174641
C120	C	0.003195	-0.532554	0.325359
C121	C	-0.492974	-1.035556	-0.096704
C122	C	0.007026	-0.535556	0.403296
H123	H	-1.021544	-1.134573	-0.256914
H124	H	-0.521544	-0.634573	0.243086
C125	C	-0.402434	-1.104711	-0.622782
C126	C	0.097566	-0.604711	-0.122782
H127	H	-0.407906	-1.100474	-0.573325
H128	H	0.092094	-0.600474	-0.073325
H129	H	-0.418811	-1.152208	-0.635953
H130	H	0.081189	-0.652208	-0.135953
H131	H	-0.341844	-1.091130	-0.637057
H132	H	0.158156	-0.591130	-0.137057
H133	H	-0.418747	-0.426043	-0.295809
H134	H	0.081253	0.073957	0.204191
H135	H	-0.600000	-0.759148	-0.424338
H136	H	-0.100000	-0.259148	0.075662
C137	C	-0.601521	-0.952194	-0.937796
C138	C	-0.101521	-0.452194	-0.437796
H139	H	-0.636019	-0.925734	-0.967599
H140	H	-0.136019	-0.425734	-0.467599
H141	H	-0.640888	-0.982031	-0.908502
H142	H	-0.140888	-0.482031	-0.408502
H143	H	-0.563898	-0.920971	-0.909609
H144	H	-0.063898	-0.420971	-0.409609
C145	C	-0.837182	-1.139287	-0.252594
C146	C	-0.337182	-0.639287	0.247406
H147	H	-0.774281	-1.129641	-0.261500
H148	H	-0.274281	-0.629641	0.238500
H149	H	-0.849761	-1.131519	-0.204422
H150	H	-0.349761	-0.631519	0.295578
H151	H	-0.855667	-1.186950	-0.263986
H152	H	-0.355667	-0.686950	0.236014
H153	H	-0.849802	-0.956825	-0.420856
H154	H	-0.349802	-0.456825	0.079144
C155	C	-0.410092	-1.098935	-0.776558
C156	C	0.089908	-0.598935	-0.276558
H157	H	-0.375573	-1.125381	-0.746758
H158	H	0.124427	-0.625381	-0.246758
H159	H	-0.447697	-1.130160	-0.804750
H160	H	0.052303	-0.630160	-0.304750
H161	H	-0.370730	-1.069083	-0.805847
H162	H	0.129270	-0.569083	-0.305847
H163	H	-0.592899	-0.625688	-0.419289
H164	H	-0.092899	-0.125688	0.080711
C165	C	-0.977424	-0.902673	-0.470765
C166	C	-0.477424	-0.402673	0.029235
H167	H	-0.914583	-0.906418	-0.467310
H168	H	-0.414583	-0.406418	0.032690
H169	H	-0.995734	-0.911887	-0.517599
H170	H	-0.495734	-0.411887	-0.017599
H171	H	-0.989827	-0.856461	-0.458030
H172	H	-0.489827	-0.356461	0.041970
H173	H	-0.411650	-0.292582	-0.290761
H174	H	0.088350	0.207418	0.209239
C175	C	-0.358170	-0.611287	-0.252870
C176	C	0.141830	-0.111287	0.247130
H177	H	-0.364116	-0.562345	-0.257095
H178	H	0.135884	-0.062345	0.242905
H179	H	-0.369793	-0.625775	-0.205652
H180	H	0.130207	-0.125775	0.294348
H181	H	-0.298664	-0.620096	-0.266152
H182	H	0.201336	-0.120096	0.233848
H183	H	-0.385786	-1.117690	-0.964647
H184	H	0.114214	-0.617690	-0.464647
C185	C	-1.176208	-1.108432	-0.281020
C186	C	-0.676208	-0.608432	0.218980
H187	H	-1.134775	-1.134346	-0.257139
H188	H	-0.634775	-0.634346	0.242861
H189	H	-1.210027	-1.084391	-0.247852
H190	H	-0.710027	-0.584391	0.252148
H191	H	-1.215929	-1.139819	-0.307420
H192	H	-0.715929	-0.639819	0.192580
H193	H	-1.161920	-0.924688	-0.450440
H194	H	-0.661920	-0.424688	0.049560
H195	H	-0.392397	-1.112696	-1.097506
H196	H	0.107603	-0.612696	-0.597506
C197	C	-0.642138	-0.920947	-0.758966
C198	C	-0.142138	-0.420947	-0.258966
H199	H	-0.636650	-0.925173	-0.808423
H200	H	-0.136650	-0.425173	-0.308423
H201	H	-0.702728	-0.934516	-0.744696
H202	H	-0.202728	-0.434516	-0.244696
H203	H	-0.625747	-0.873449	-0.745791
H204	H	-0.125747	-0.373449	-0.245791
H205	H	-0.619227	-0.938445	-0.616849
H206	H	-0.119227	-0.438445	-0.116849
H207	H	-0.592889	-0.958932	-1.082302
H208	H	-0.092889	-0.458932	-0.582302
H209	H	-0.635822	-0.429652	-0.449721
H210	H	-0.135822	0.070348	0.050279
H211	H	-0.628716	-0.296180	-0.444675
H212	H	-0.128716	0.203820	0.055325
C213	C	-0.366401	-0.765779	-0.258703
C214	C	0.133599	-0.265779	0.241297
H215	H	-0.329040	-0.732744	-0.232220
H216	H	0.170960	-0.232744	0.267780
H217	H	-0.401012	-0.797278	-0.227779
H218	H	0.098988	-0.297278	0.272221
H219	H	-0.329871	-0.791596	-0.288271
H220	H	0.170129	-0.291596	0.211729
