data_functionalizedCrystal
_audit_creation_method	'MofGen! by Chris Wilmer'
_symmetry_space_group_name_H-M	'P1'
_symmetry_Int_Tables_number	1
_symmetry_cell_setting	triclinic
loop_
_symmetry_equiv_pos_as_xyz
  x,y,z
_cell_length_a	10.489741
_cell_length_b	11.026607
_cell_length_c	10.065875
_cell_angle_alpha	79.268236
_cell_angle_beta	81.165139
_cell_angle_gamma	83.437405
loop_
_atom_site_label
_atom_site_type_symbol
_atom_site_fract_x
_atom_site_fract_y
_atom_site_fract_z
O1	O	1.746374	-0.153857	-0.113403
O2	O	2.246374	0.346143	0.386597
O3	O	1.378724	-0.169957	-0.113423
O4	O	1.878724	0.330043	0.386577
O5	O	1.532078	0.015012	-0.113410
O6	O	2.032078	0.515012	0.386590
O7	O	1.593020	-0.338826	-0.113416
O8	O	2.093020	0.161174	0.386584
O9	O	1.502868	-0.020402	0.113576
O10	O	2.002868	0.479598	0.613576
O11	O	1.349514	-0.205370	0.113563
O12	O	1.849514	0.294630	0.613563
O13	O	1.717165	-0.189271	0.113584
O14	O	2.217165	0.310729	0.613584
Zn15	Zn	1.528702	-0.202943	0.149612
Zn16	Zn	2.028702	0.297057	0.649612
Zn17	Zn	1.567187	-0.156284	-0.149452
Zn18	Zn	2.067187	0.343716	0.350548
O19	O	1.563810	-0.374239	0.113570
O20	O	2.063810	0.125761	0.613570
C21	C	1.316320	-0.186447	0.000067
C22	C	1.816320	0.313553	0.500067
C23	C	1.173891	-0.182807	0.000059
C24	C	1.673891	0.317193	0.500059
C25	C	1.506231	0.042615	0.000081
C26	C	2.006231	0.542615	0.500081
C27	C	1.472717	0.177623	0.000074
C28	C	1.972717	0.677623	0.500074
N29	N	1.502446	-0.234786	0.353715
N30	N	2.002446	0.265214	0.853715
C31	C	1.079860	-0.065118	0.000074
C32	C	1.579860	0.434882	0.500074
C33	C	1.014365	-0.103253	-0.111840
C34	C	1.514365	0.396747	0.388160
C35	C	0.985606	-0.138197	0.111950
C36	C	1.485606	0.361803	0.611950
C37	C	1.110283	-0.220977	-0.111948
C38	C	1.610283	0.279023	0.388052
C39	C	1.081518	-0.255919	0.111944
C40	C	1.581518	0.244081	0.611944
C41	C	1.016072	-0.294136	0.000002
C42	C	1.516072	0.205864	0.500002
C43	C	1.779569	-0.172780	0.000090
C44	C	2.279569	0.327220	0.500090
C45	C	1.921999	-0.176419	0.000089
C46	C	2.421999	0.323581	0.500089
C47	C	1.589658	-0.401842	0.000076
C48	C	2.089658	0.098158	0.500076
C49	C	1.623173	-0.536848	0.000074
C50	C	2.123173	-0.036848	0.500074
C51	C	1.565256	0.250619	0.000078
C52	C	2.065256	0.750619	0.500078
C53	C	1.530620	0.390157	0.000071
C54	C	2.030620	0.890157	0.500071
N55	N	1.593451	-0.124431	-0.353555
N56	N	2.093451	0.375569	0.146445
C57	C	1.558042	-0.167355	0.421499
C58	C	2.058042	0.332645	0.921499
C59	C	1.537846	-0.191872	0.578665
C60	C	2.037846	0.308128	1.078665
H61	H	1.108286	0.031654	-0.000064
H62	H	1.608286	0.531654	0.499936
F63	F	0.975426	-0.018873	-0.235512
F64	F	1.475426	0.481127	0.264488
F65	F	1.393541	0.443487	0.000050
F66	F	1.893541	0.943487	0.500050
H67	H	1.439891	-0.310663	0.412036
H68	H	1.939891	0.189337	0.912036
F69	F	1.675473	-0.025447	0.570229
F70	F	2.175473	0.474553	1.070229
F71	F	1.760255	0.409828	0.000075
F72	F	2.260255	0.909828	0.500075
H73	H	0.931494	-0.103139	0.206565
H74	H	1.431494	0.396861	0.706565
H75	H	1.620585	-0.091470	0.363180
H76	H	2.120585	0.408530	0.863180
F77	F	1.180812	-0.266699	-0.235757
F78	F	1.680812	0.233301	0.264243
H79	H	0.987961	-0.390979	-0.000061
H80	H	1.487961	0.109021	0.499939
F81	F	1.702331	0.197287	0.000077
F82	F	2.202331	0.697287	0.500077
F83	F	1.120493	-0.340252	0.235618
F84	F	1.620493	0.159748	0.735618
F85	F	1.335645	0.230958	0.000054
F86	F	1.835645	0.730958	0.500054
F87	F	1.456077	-0.291055	0.654883
F88	F	1.956077	0.208945	1.154883
