data_functionalizedCrystal
_audit_creation_method	'MofGen! by Chris Wilmer'
_symmetry_space_group_name_H-M	'P1'
_symmetry_Int_Tables_number	1
_symmetry_cell_setting	triclinic
loop_
_symmetry_equiv_pos_as_xyz
  x,y,z
_cell_length_a	14.519731
_cell_length_b	23.532355
_cell_length_c	13.596369
_cell_angle_alpha	90.000488
_cell_angle_beta	89.993029
_cell_angle_gamma	83.258176
loop_
_atom_site_label
_atom_site_type_symbol
_atom_site_fract_x
_atom_site_fract_y
_atom_site_fract_z
O1	O	0.111722	0.755789	-0.081660
O2	O	0.611722	1.255789	0.418340
O3	O	0.127970	0.589995	-0.081691
O4	O	0.627970	1.089995	0.418309
O5	O	-0.014445	0.677281	-0.081666
O6	O	0.485555	1.177281	0.418334
O7	O	0.254136	0.668502	-0.081685
O8	O	0.754136	1.168502	0.418315
O9	O	-0.014452	0.677273	0.081917
O10	O	0.485548	1.177273	0.581917
O11	O	0.127962	0.589986	0.081891
O12	O	0.627962	1.089986	0.581891
O13	O	0.111714	0.755780	0.081923
O14	O	0.611714	1.255780	0.581923
Zn15	Zn	0.119837	0.672882	0.107880
Zn16	Zn	0.619837	1.172882	0.607880
Zn17	Zn	0.119847	0.672893	-0.107648
Zn18	Zn	0.619847	1.172893	0.392352
O19	O	0.254129	0.668494	0.081897
O20	O	0.754129	1.168494	0.581897
C21	C	0.127560	0.568772	0.000096
C22	C	0.627560	1.068772	0.500096
C23	C	0.126339	0.505548	0.000084
C24	C	0.626339	1.005548	0.500084
C25	C	0.118662	0.113495	0.089295
C26	C	0.618662	0.613495	0.589295
C27	C	0.117501	0.054090	0.089299
C28	C	0.617501	0.554090	0.589299
O29	O	0.116865	0.023364	0.165133
O30	O	0.616865	0.523364	0.665133
N31	N	0.116929	0.024384	0.000130
N32	N	0.616929	0.524384	0.500130
C33	C	0.117509	0.054086	-0.089048
C34	C	0.617509	0.554086	0.410952
O35	O	0.116915	0.023363	-0.164893
O36	O	0.616915	0.523363	0.335107
C37	C	0.118664	0.113490	-0.089051
C38	C	0.618664	0.613490	0.410949
C39	C	0.119246	0.143192	0.000124
C40	C	0.619246	0.643192	0.500124
C41	C	0.119243	0.143197	0.178462
C42	C	0.619243	0.643197	0.678462
C43	C	0.120406	0.202598	0.178458
C44	C	0.620406	0.702598	0.678458
C45	C	0.120989	0.232296	0.089287
C46	C	0.620989	0.732296	0.589287
C47	C	0.120409	0.202593	0.000119
C48	C	0.620409	0.702593	0.500119
C49	C	0.119238	0.143191	-0.178228
C50	C	0.619238	0.643191	0.321772
C51	C	0.120392	0.202600	-0.178224
C52	C	0.620392	0.702600	0.321776
C53	C	0.120974	0.232302	-0.089049
C54	C	0.620974	0.732302	0.410951
C55	C	0.122155	0.291691	-0.089057
C56	C	0.622155	0.791691	0.410943
N57	N	0.122727	0.321398	0.000112
N58	N	0.622727	0.821398	0.500112
C59	C	0.122144	0.291700	0.089284
C60	C	0.622144	0.791700	0.589284
C61	C	0.115082	-0.070667	-0.089035
C62	C	0.615082	0.429333	0.410965
C63	C	0.113933	-0.130070	-0.089033
C64	C	0.613933	0.369930	0.410967
C65	C	0.113923	-0.130062	0.089314
C66	C	0.613923	0.369938	0.589314
C67	C	0.115078	-0.070658	0.089311
C68	C	0.615078	0.429342	0.589311
C69	C	0.115654	-0.040961	0.000133
C70	C	0.615654	0.459039	0.500133
C71	C	0.124588	0.416445	0.089268
C72	C	0.624588	0.916445	0.589268
C73	C	0.125756	0.475850	0.089256
C74	C	0.625756	0.975850	0.589256
C75	C	0.125761	0.475837	-0.089091
C76	C	0.625761	0.975837	0.410909
C77	C	0.124598	0.416437	-0.089079
C78	C	0.624598	0.916437	0.410921
C79	C	0.124009	0.386742	0.000108
C80	C	0.624009	0.886742	0.500108
O81	O	0.122788	0.322455	-0.164852
O82	O	0.622788	0.822455	0.335148
O83	O	0.122726	0.322430	0.165115
O84	O	0.622726	0.822430	0.665115
C85	C	-0.048803	0.676866	0.000126
C86	C	0.451197	1.176866	0.500126
C87	C	-0.151168	0.675633	0.000126
C88	C	0.348832	1.175633	0.500126
C89	C	-0.234300	0.674631	0.000124
C90	C	0.265700	1.174631	0.500124
C91	C	-0.338594	0.673380	0.000116
C92	C	0.161406	1.173380	0.500116
C93	C	-0.421721	0.672387	0.000109
C94	C	0.078279	1.172387	0.500109
C95	C	-0.526021	0.671135	0.000103
C96	C	-0.026021	1.171135	0.500103
C97	C	0.288487	0.668909	0.000104
C98	C	0.788487	1.168909	0.500104
C99	C	0.390852	0.670142	0.000097
C100	C	0.890852	1.170142	0.500097
C101	C	0.112124	0.777003	0.000133
C102	C	0.612124	1.277003	0.500133
C103	C	0.113345	0.840227	0.000139
C104	C	0.613345	1.340227	0.500139
N105	N	0.119830	0.672878	0.254971
N106	N	0.619830	1.172878	0.754971
N107	N	0.119847	0.672901	-0.254740
N108	N	0.619847	1.172901	0.245260
C109	C	0.119848	0.672893	0.656262
C110	C	0.619848	1.172893	1.156262
C111	C	0.119846	0.672887	0.544611
C112	C	0.619846	1.172887	1.044611
C113	C	0.119840	0.672886	0.455620
C114	C	0.619840	1.172886	0.955620
C115	C	0.119836	0.672879	0.343962
C116	C	0.619836	1.172879	0.843962
H117	H	0.124140	0.392250	-0.161693
H118	H	0.624140	0.892250	0.338307
C119	C	0.118593	0.110529	-0.276319
C120	C	0.618593	0.610529	0.223681
H121	H	0.117826	0.070895	-0.263562
H122	H	0.617826	0.570895	0.236438
H123	H	0.064997	0.124559	-0.312946
H124	H	0.564997	0.624559	0.187054
H125	H	0.172574	0.115978	-0.312964
H126	H	0.672574	0.615978	0.187036
C127	C	0.113305	-0.162738	-0.187125
C128	C	0.613305	0.337262	0.312875
H129	H	0.113814	-0.136537	-0.240228
H130	H	0.613814	0.363463	0.259772
H131	H	0.166637	-0.190202	-0.190840
H132	H	0.666637	0.309798	0.309160
H133	H	0.059059	-0.181619	-0.190831
H134	H	0.559059	0.318381	0.309169
H135	H	0.115553	-0.046478	0.161925
H136	H	0.615553	0.453522	0.661925
C137	C	0.121033	0.235263	-0.276322
C138	C	0.621033	0.735263	0.223678
H139	H	0.120529	0.209061	-0.329423
H140	H	0.620529	0.709061	0.170577
H141	H	0.067703	0.262728	-0.280030
H142	H	0.567703	0.762728	0.219970
H143	H	0.175280	0.254143	-0.280036
H144	H	0.675280	0.754143	0.219964
C145	C	0.126394	0.508513	-0.187172
C146	C	0.626394	1.008513	0.312828
H147	H	0.127158	0.548146	-0.174395
H148	H	0.627158	1.048146	0.325605
H149	H	0.179985	0.494493	-0.223829
H150	H	0.679985	0.994493	0.276171
H151	H	0.072408	0.503068	-0.223796
H152	H	0.572408	1.003068	0.276204
C153	C	0.113545	-0.162758	0.187402
C154	C	0.613545	0.337242	0.687402
H155	H	0.112847	-0.202396	0.174625
H156	H	0.612847	0.297604	0.674625
H157	H	0.167600	-0.157259	0.223857
H158	H	0.667600	0.342741	0.723857
H159	H	0.060020	-0.148802	0.224227
H160	H	0.560020	0.351198	0.724227
H161	H	0.115559	-0.046492	-0.161659
H162	H	0.615559	0.453508	0.338341
H163	H	0.124117	0.392274	0.161893
H164	H	0.624117	0.892274	0.661893
C165	C	0.126384	0.508521	0.187352
C166	C	0.626384	1.008521	0.687352
H167	H	0.125858	0.482324	0.240457
H168	H	0.625858	0.982324	0.740457
H169	H	0.180619	0.527406	0.191063
H170	H	0.680619	1.027406	0.691063
H171	H	0.073042	0.535983	0.191057
H172	H	0.573042	1.035983	0.691057
H173	H	0.118766	0.119024	0.251081
H174	H	0.618766	0.619024	0.751081
C175	C	0.121041	0.235263	0.276551
C176	C	0.621041	0.735263	0.776551
H177	H	0.120521	0.209062	0.329651
H178	H	0.620521	0.709062	0.829651
H179	H	0.175278	0.254148	0.280260
H180	H	0.675278	0.754148	0.780260
H181	H	0.067701	0.262726	0.280268
H182	H	0.567701	0.762726	0.780268
