data_functionalizedCrystal
_audit_creation_method	'MofGen! by Chris Wilmer'
_symmetry_space_group_name_H-M	'P1'
_symmetry_Int_Tables_number	1
_symmetry_cell_setting	triclinic
loop_
_symmetry_equiv_pos_as_xyz
  x,y,z
_cell_length_a	14.971486
_cell_length_b	15.072220
_cell_length_c	14.971486
_cell_angle_alpha	90.001330
_cell_angle_beta	83.614129
_cell_angle_gamma	90.007545
loop_
_atom_site_label
_atom_site_type_symbol
_atom_site_fract_x
_atom_site_fract_y
_atom_site_fract_z
O1	O	1.186956	0.073681	0.116557
O2	O	0.926556	0.073705	0.130516
O3	O	1.063735	0.073686	-0.006664
O4	O	1.049776	0.073700	0.253736
O5	O	1.063701	-0.073879	-0.006656
O6	O	0.926522	-0.073860	0.130523
O7	O	1.186922	-0.073884	0.116564
Zn8	Zn	1.056716	-0.097301	0.123545
Zn9	Zn	1.056761	0.097122	0.123535
O10	O	1.049742	-0.073865	0.253744
C11	C	0.893214	-0.000074	0.129895
C12	C	0.793917	-0.000065	0.128024
N13	N	1.056692	-0.229990	0.123551
C14	C	0.736691	-0.000062	0.208614
C15	C	0.643392	-0.000076	0.206850
C16	C	0.607320	-0.000086	0.124497
C17	C	0.664552	-0.000091	0.043902
C18	C	0.757850	-0.000084	0.045666
C19	C	0.470090	-0.000104	0.040231
C20	C	0.376786	-0.000109	0.038466
C21	C	0.355632	-0.000095	0.201415
C22	C	0.448930	-0.000088	0.203179
C23	C	0.506156	-0.000092	0.122584
C24	C	1.056759	-0.589192	0.123531
C25	C	0.983110	-0.551574	0.196687
C26	C	0.983279	-0.448749	0.196954
C27	C	1.056725	-0.410987	0.123541
C28	C	1.150075	-0.448286	0.144025
C29	C	1.149663	-0.551144	0.144545
C30	C	1.037890	-0.551295	0.029676
C31	C	1.035749	-0.448431	0.030300
C32	C	1.056712	-0.310274	0.123545
C33	C	1.056779	-0.689905	0.123530
C34	C	1.220263	-0.000103	0.117185
C35	C	1.319561	-0.000106	0.119056
C36	C	1.063094	-0.000096	-0.039985
C37	C	1.061223	-0.000095	-0.139282
N38	N	1.056792	0.229811	0.123522
C39	C	1.141812	-0.000103	-0.196507
C40	C	1.140049	-0.000094	-0.289807
C41	C	1.057696	-0.000083	-0.325879
C42	C	0.977101	-0.000073	-0.268646
C43	C	0.978865	-0.000075	-0.175349
C44	C	0.973430	-0.000069	-0.463109
C45	C	0.971665	-0.000068	-0.556413
C46	C	1.134614	-0.000088	-0.577567
C47	C	1.136378	-0.000091	-0.484269
C48	C	1.055782	-0.000082	-0.427043
C49	C	1.050383	-0.000081	0.287065
C50	C	1.052254	-0.000076	0.386362
H51	H	0.766054	-0.000053	0.275675
F52	F	0.338397	-0.000143	-0.049183
F53	F	1.224028	-0.000100	-0.445880
F54	F	1.229465	-0.000124	-0.158125
H55	H	0.971292	-0.577280	0.010004
F56	F	1.225824	-0.000105	-0.350707
H57	H	1.206193	-0.423825	0.092164
F58	F	0.892120	-0.583914	0.180967
F59	F	0.818754	-0.000091	-0.040108
F60	F	1.220391	-0.000094	-0.638472
F61	F	0.626159	-0.000108	-0.043745
F62	F	0.998664	-0.585329	0.287211
F63	F	0.884016	-0.000057	-0.594802
F64	F	0.999013	-0.416569	0.287996
F65	F	0.887650	-0.000057	-0.402206
F66	F	0.889454	-0.000051	-0.307040
H67	H	0.596802	-0.000072	0.272474
F68	F	0.487318	-0.000068	0.290829
F69	F	0.892575	-0.415786	0.181029
F70	F	1.101305	-0.414848	-0.044201
H71	H	0.913240	-0.000069	-0.128756
F72	F	1.172307	-0.414603	0.232477
F73	F	0.294727	-0.000092	0.287192
F74	F	0.945992	-0.416570	0.009981
H75	H	0.516682	-0.000108	-0.025399
F76	F	1.171376	-0.582490	0.234016
H77	H	1.206184	-0.576026	0.093369
F78	F	1.108088	-0.583090	-0.041483
