data_functionalizedCrystal
_audit_creation_method	'MofGen! by Chris Wilmer'
_symmetry_space_group_name_H-M	'P1'
_symmetry_Int_Tables_number	1
_symmetry_cell_setting	triclinic
loop_
_symmetry_equiv_pos_as_xyz
  x,y,z
_cell_length_a	6.817900
_cell_length_b	12.908942
_cell_length_c	17.329378
_cell_angle_alpha	92.079947
_cell_angle_beta	103.025558
_cell_angle_gamma	100.860556
loop_
_atom_site_label
_atom_site_type_symbol
_atom_site_fract_x
_atom_site_fract_y
_atom_site_fract_z
V1	V	-3.998813	-0.124338	-0.244656
O2	O	-4.000699	0.028153	-0.240449
O3	O	-3.937209	-0.267872	-0.242550
O4	O	-3.944296	-0.112694	-0.351557
O5	O	-3.993563	-0.128099	-0.130688
V6	V	-4.484944	-0.107248	-0.231077
O7	O	-4.254349	-0.161826	-0.274443
O8	O	-4.679605	-0.069760	-0.201291
O9	O	-4.323342	0.036285	-0.233183
O10	O	-4.600454	-0.259740	-0.235285
O11	O	-4.607590	-0.103488	-0.345046
O12	O	-4.316254	-0.118892	-0.124177
C13	C	-3.779195	-0.303166	-0.238579
C14	C	-3.810073	-0.420444	-0.237570
C15	C	-4.230913	-0.650876	-0.243502
C16	C	-4.259934	-0.761069	-0.242554
C17	C	-3.897143	-0.751027	-0.234731
C18	C	-3.868121	-0.640834	-0.235679
C19	C	-4.035014	-0.590762	-0.240063
C20	C	-4.005987	-0.480566	-0.241006
C21	C	-3.643201	-0.470527	-0.233189
C22	C	-3.672222	-0.580720	-0.232241
C23	C	-3.788235	-0.105221	-0.377627
C24	C	-3.824857	-0.096650	-0.465016
C25	C	-3.872690	-0.188200	-0.517007
C26	C	-3.907110	-0.180145	-0.599119
C27	C	-3.893680	-0.080540	-0.629236
C28	C	-3.845849	0.011016	-0.577238
C29	C	-3.811445	0.002960	-0.495129
C30	C	-3.996038	-0.051435	-0.876606
C31	C	-4.030441	-0.043386	-0.958721
C32	C	-4.091703	-0.234548	-0.980597
C33	C	-4.057284	-0.242595	-0.898485
C34	C	-4.009466	-0.151039	-0.846494
C35	C	-3.928855	-0.072304	-0.713166
C36	C	-3.974306	-0.159276	-0.762565
C37	C	-4.144697	0.071574	-0.237153
C38	C	-4.093057	0.188851	-0.238167
C39	C	-4.135657	-0.126370	-0.098103
C40	C	-4.078274	-0.134935	-0.010713
H41	H	-4.366798	-0.610105	-0.247060
C42	C	-4.189575	-0.425490	-0.245837
N43	N	-4.327864	-0.384010	-0.249481
H44	H	-3.957104	0.023117	-0.834284
C45	C	-4.015681	0.066192	-0.991848
N46	N	-4.004568	0.148722	-1.016799
C47	C	-3.959666	-0.280856	-0.656305
N48	N	-3.999233	-0.356715	-0.699378
H49	H	-3.761280	-0.791816	-0.231168
C50	C	-3.887471	-0.297774	-0.483887
N51	N	-3.898615	-0.380309	-0.458943
H52	H	-4.419452	-0.810010	-0.245355
C53	C	-4.072081	-0.352169	-0.865363
N54	N	-4.083226	-0.434702	-0.840416
H55	H	-3.536352	-0.621504	-0.228674
C56	C	-3.914054	0.037260	-0.746303
N57	N	-3.902901	0.119785	-0.771265
H58	H	-3.483681	-0.421570	-0.230388
C59	C	-4.144325	-0.335253	-1.037793
N60	N	-4.183971	-0.411108	-1.080874
H61	H	-3.834929	0.092117	-0.601766
H62	H	-3.772498	0.077510	-0.452797
H63	H	-3.985248	-0.240374	-0.738040
