data_functionalizedCrystal
_audit_creation_method	'MofGen! by Chris Wilmer'
_symmetry_space_group_name_H-M	'P1'
_symmetry_Int_Tables_number	1
_symmetry_cell_setting	triclinic
loop_
_symmetry_equiv_pos_as_xyz
  x,y,z
_cell_length_a	6.394984
_cell_length_b	11.026607
_cell_length_c	9.482900
_cell_angle_alpha	101.363848
_cell_angle_beta	99.608195
_cell_angle_gamma	82.459316
loop_
_atom_site_label
_atom_site_type_symbol
_atom_site_fract_x
_atom_site_fract_y
_atom_site_fract_z
O1	O	0.853986	-1.642127	-0.120890
O2	O	0.753811	-1.287290	-0.120892
O3	O	0.501730	-1.469748	-0.120887
O4	O	1.106068	-1.459669	-0.120895
O5	O	0.553196	-1.432691	0.120905
O6	O	0.805278	-1.250233	0.120899
O7	O	0.905453	-1.605069	0.120902
Cu8	Cu	0.860064	-1.424267	0.142978
Cu9	Cu	0.799200	-1.468092	-0.142968
O10	O	1.157534	-1.422611	0.120896
C11	C	0.761064	-1.223268	0.000003
C12	C	0.705973	-1.087712	0.000002
N13	N	0.902876	-1.393452	0.344097
C14	C	1.448892	-1.449214	0.000013
C15	C	1.210369	-1.443140	0.000011
C16	C	0.898199	-1.669092	0.000003
C17	C	0.953288	-1.804649	-0.000005
N18	N	0.756375	-1.498916	-0.344088
C19	C	0.858087	-1.016232	-0.000001
C20	C	0.801152	-0.876128	-0.000002
C21	C	0.811813	-1.458994	0.416298
C22	C	0.847452	-1.433365	0.583715
H23	H	0.628752	-0.833613	-0.000037
H24	H	1.030470	-1.058757	0.000005
H25	H	1.125683	-0.847166	0.000002
H26	H	1.007214	-1.318361	0.406225
H27	H	0.652012	-1.574004	0.593790
H28	H	0.533585	-1.045192	-0.000033
H29	H	0.707455	-1.534077	0.354172
H30	H	0.951797	-1.358268	0.645837
