data_functionalizedCrystal
_audit_creation_method	'MofGen! by Chris Wilmer'
_symmetry_space_group_name_H-M	'P1'
_symmetry_Int_Tables_number	1
_symmetry_cell_setting	triclinic
loop_
_symmetry_equiv_pos_as_xyz
  x,y,z
_cell_length_a	12.594517
_cell_length_b	13.897448
_cell_length_c	13.897441
_cell_angle_alpha	90.030599
_cell_angle_beta	89.984820
_cell_angle_gamma	89.982350
loop_
_atom_site_label
_atom_site_type_symbol
_atom_site_fract_x
_atom_site_fract_y
_atom_site_fract_z
Zn1	Zn	1.627264	0.383985	-0.545238
Zn2	Zn	2.127264	0.883985	-0.045238
Zn3	Zn	1.627147	0.545307	-0.383940
Zn4	Zn	2.127147	1.045307	0.116060
Zn5	Zn	1.449265	0.384028	-0.383972
Zn6	Zn	1.949265	0.884028	0.116028
Zn7	Zn	1.449245	0.545240	-0.545208
Zn8	Zn	1.949245	1.045240	-0.045208
O9	O	1.538230	0.464640	-0.464589
O10	O	2.038230	0.964640	0.035411
O11	O	1.776194	0.405395	-0.523841
O12	O	2.276194	0.905395	-0.023841
O13	O	1.603510	0.523959	-0.248962
O14	O	2.103510	1.023959	0.251038
O15	O	1.472934	0.249040	-0.405391
O16	O	1.972934	0.749040	0.094609
O17	O	1.776108	0.523918	-0.405335
O18	O	2.276108	1.023918	0.094665
O19	O	1.603709	0.249009	-0.523872
O20	O	2.103709	0.749009	-0.023872
O21	O	1.472821	0.405467	-0.248986
O22	O	1.972821	0.905467	0.251014
O23	O	1.300317	0.405402	-0.405361
O24	O	1.800317	0.905402	0.094639
O25	O	1.472900	0.523803	-0.680194
O26	O	1.972900	1.023803	-0.180194
O27	O	1.300302	0.523844	-0.523821
O28	O	1.800302	1.023844	-0.023821
O29	O	1.603690	0.405330	-0.680216
O30	O	2.103690	0.905330	-0.180216
O31	O	1.603490	0.680280	-0.405306
O32	O	2.103490	1.180280	0.094694
O33	O	1.472787	0.680230	-0.523789
O34	O	1.972787	1.180230	-0.023789
C35	C	1.261689	0.464621	-0.464592
C36	C	1.761689	0.964621	0.035408
C37	C	1.143384	0.464637	-0.464616
C38	C	1.643384	0.964637	0.035384
C39	C	1.003390	0.529174	-0.528926
C40	C	1.503390	1.029174	-0.028926
C41	C	1.074158	0.552653	-0.440891
C42	C	1.574158	1.052653	0.059109
C43	C	1.074187	0.441200	-0.552641
C44	C	1.574187	0.941200	-0.052641
C45	C	1.003367	0.488192	-0.376505
C46	C	1.503367	0.988192	0.123495
C47	C	1.003389	0.376699	-0.488315
C48	C	1.503389	0.876699	0.011685
C49	C	1.074126	0.400144	-0.400219
C50	C	1.574126	0.900144	0.099781
C51	C	1.538153	0.715254	-0.464562
C52	C	2.038153	1.215254	0.035438
C53	C	1.538217	0.822468	-0.464582
C54	C	2.038217	1.322468	0.035418
C55	C	1.538306	0.464555	-0.716183
C56	C	2.038306	0.964555	-0.216183
C57	C	1.538338	0.464518	-0.823397
C58	C	2.038338	0.964518	-0.323397
C59	C	1.815851	0.464659	-0.464588
C60	C	2.315851	0.964659	0.035412
C61	C	1.934156	0.464668	-0.464587
C62	C	2.434156	0.964668	0.035413
C63	C	1.538337	0.213047	-0.464639
C64	C	2.038337	0.713047	0.035361
C65	C	1.538383	0.105833	-0.464660
C66	C	2.038383	0.605833	0.035340
C67	C	1.538328	1.018763	-0.464642
C68	C	2.038328	1.518763	0.035358
C69	C	1.538263	0.909531	-0.464612
C70	C	2.038263	1.409531	0.035388
C71	C	1.538367	0.464453	-1.019692
C72	C	2.038367	0.964453	-0.519692
C73	C	1.538347	0.464492	-0.910459
C74	C	2.038347	0.964492	-0.410459
C75	C	1.538216	0.464655	-0.213975
C76	C	2.038216	0.964655	0.286025
C77	C	1.538390	0.464420	-0.106762
C78	C	2.038390	0.964420	0.393238
H79	H	0.972389	0.508118	-0.302031
H80	H	1.472389	1.008118	0.197969
H81	H	1.104988	0.345580	-0.345759
H82	H	1.604988	0.845580	0.154241
Cl83	Cl	1.122218	0.410574	-0.667590
Cl84	Cl	1.622218	0.910574	-0.167590
Cl85	Cl	0.955432	0.613476	-0.612806
Cl86	Cl	1.455432	1.113476	-0.112806
Cl87	Cl	1.122159	0.667487	-0.409915
Cl88	Cl	1.622159	1.167487	0.090085
H89	H	0.972280	0.302340	-0.508404
H90	H	1.472280	0.802340	-0.008404
