data_functionalizedCrystal
_audit_creation_method	'MofGen! by Chris Wilmer'
_symmetry_space_group_name_H-M	'P1'
_symmetry_Int_Tables_number	1
_symmetry_cell_setting	triclinic
loop_
_symmetry_equiv_pos_as_xyz
  x,y,z
_cell_length_a	18.215407
_cell_length_b	18.215405
_cell_length_c	18.215399
_cell_angle_alpha	89.971534
_cell_angle_beta	90.019833
_cell_angle_gamma	89.970909
loop_
_atom_site_label
_atom_site_type_symbol
_atom_site_fract_x
_atom_site_fract_y
_atom_site_fract_z
Zn1	Zn	1.125053	0.292983	0.416113
Zn2	Zn	1.458386	0.626316	0.749447
Zn3	Zn	1.791719	0.959650	1.082780
Zn4	Zn	1.124953	0.416054	0.293046
Zn5	Zn	1.458286	0.749388	0.626379
Zn6	Zn	1.791620	1.082721	0.959712
Zn7	Zn	1.001985	0.293007	0.293061
Zn8	Zn	1.335319	0.626340	0.626394
Zn9	Zn	1.668652	0.959674	0.959727
Zn10	Zn	1.001943	0.416013	0.416071
Zn11	Zn	1.335276	0.749347	0.749404
Zn12	Zn	1.668610	1.082680	1.082737
O13	O	1.063484	0.354514	0.354573
O14	O	1.396817	0.687848	0.687906
O15	O	1.730150	1.021181	1.021239
O16	O	1.228024	0.309316	0.399800
O17	O	1.561357	0.642649	0.733133
O18	O	1.894690	0.975982	1.066466
O19	O	1.108617	0.399759	0.190063
O20	O	1.441950	0.733092	0.523397
O21	O	1.775284	1.066426	0.856730
O22	O	1.018370	0.190020	0.309408
O23	O	1.351703	0.523353	0.642741
O24	O	1.685036	0.856686	0.976074
O25	O	1.227951	0.399736	0.309383
O26	O	1.561284	0.733069	0.642716
O27	O	1.894617	1.066402	0.976049
O28	O	1.108787	0.190002	0.399814
O29	O	1.442120	0.523335	0.733147
O30	O	1.775454	0.856669	1.066481
O31	O	1.018273	0.309357	0.190074
O32	O	1.351607	0.642690	0.523408
O33	O	1.684940	0.976023	0.856741
O34	O	0.898995	0.309317	0.309367
O35	O	1.232329	0.642650	0.642700
O36	O	1.565662	0.975984	0.976033
O37	O	1.018298	0.399666	0.519061
O38	O	1.351631	0.732999	0.852394
O39	O	1.684965	1.066333	1.185727
O40	O	0.898964	0.399689	0.399742
O41	O	1.232298	0.733023	0.733075
O42	O	1.565631	1.066356	1.066408
O43	O	1.108746	0.309276	0.519092
O44	O	1.442079	0.642609	0.852425
O45	O	1.775413	0.975943	1.185759
O46	O	1.108576	0.519033	0.309341
O47	O	1.441909	0.852366	0.642675
O48	O	1.775243	1.185700	0.976008
O49	O	1.018201	0.519003	0.399727
O50	O	1.351535	0.852336	0.733061
O51	O	1.684868	1.185670	1.066394
C52	C	0.872277	0.354502	0.354551
C53	C	1.205611	0.687835	0.687885
C54	C	1.538944	1.021169	1.021218
C55	C	0.790478	0.354514	0.354560
C56	C	1.123812	0.687848	0.687893
C57	C	1.457145	1.021181	1.021227
C58	C	0.602288	0.401645	0.401559
C59	C	0.935621	0.734978	0.734892
C60	C	1.268954	1.068312	1.068226
C61	C	0.525429	0.401647	0.401568
C62	C	0.858762	0.734981	0.734902
C63	C	1.192095	1.068314	1.068235
C64	C	0.525432	0.307397	0.307602
C65	C	0.858765	0.640731	0.640935
C66	C	1.192098	0.974064	0.974269
C67	C	0.602289	0.307392	0.307597
C68	C	0.935622	0.640725	0.640931
C69	C	1.268956	0.974058	0.974264
C70	C	0.640715	0.354520	0.354575
C71	C	0.974048	0.687853	0.687908
C72	C	1.307382	1.021186	1.021241
C73	C	0.486999	0.354528	0.354589
C74	C	0.820332	0.687861	0.687922
C75	C	1.153665	1.021194	1.021255
C76	C	0.403665	0.354530	0.354598
C77	C	0.736998	0.687863	0.687932
C78	C	1.070332	1.021196	1.021265
C79	C	0.724054	0.354517	0.354566
C80	C	1.057387	0.687850	0.687900
C81	C	1.390721	1.021184	1.021233
C82	C	1.063393	0.545721	0.354544
C83	C	1.396727	0.879054	0.687877
C84	C	1.730060	1.212387	1.021211
C85	C	1.063422	0.627520	0.354557
C86	C	1.396755	0.960853	0.687890
C87	C	1.730089	1.294186	1.021223
C88	C	1.110505	0.815643	0.401692
C89	C	1.443839	1.148977	0.735025
C90	C	1.777172	1.482310	1.068358
C91	C	1.110524	0.892502	0.401704
C92	C	1.443857	1.225835	0.735038
C93	C	1.777191	1.559169	1.068371
C94	C	1.016450	0.892634	0.307483
C95	C	1.349783	1.225967	0.640816
C96	C	1.683116	1.559300	0.974150
C97	C	1.016428	0.815776	0.307475
C98	C	1.349761	1.149110	0.640808
C99	C	1.683095	1.482443	0.974141
C100	C	1.063460	0.777283	0.354578
C101	C	1.396793	1.110616	0.687911
C102	C	1.730126	1.443950	1.021245
C103	C	1.063500	0.930999	0.354599
C104	C	1.396834	1.264332	0.687932
C105	C	1.730167	1.597666	1.021265
C106	C	1.063520	1.014333	0.354612
C107	C	1.396854	1.347666	0.687945
C108	C	1.730187	1.680999	1.021279
C109	C	1.063439	0.693944	0.354566
C110	C	1.396772	1.027277	0.687899
C111	C	1.730106	1.360611	1.021232
C112	C	1.255436	0.354528	0.354594
C113	C	1.588770	0.687861	0.687928
C114	C	1.922103	1.021194	1.021261
C115	C	1.337235	0.354533	0.354603
C116	C	1.670569	0.687867	0.687937
C117	C	2.003902	1.021200	1.021270
C118	C	1.063528	0.354464	0.546526
C119	C	1.396862	0.687797	0.879859
C120	C	1.730195	1.021130	1.213192
C121	C	1.063547	0.354442	0.628325
C122	C	1.396881	0.687775	0.961658
C123	C	1.730214	1.021109	1.294991
C124	C	1.063568	1.162561	0.354613
C125	C	1.396902	1.495895	0.687947
C126	C	1.730235	1.829228	1.021280
C127	C	1.063538	1.080763	0.354620
C128	C	1.396872	1.414096	0.687953
C129	C	1.730205	1.747429	1.021287
C130	C	1.063481	0.354512	0.163366
C131	C	1.396815	0.687845	0.496700
C132	C	1.730148	1.021179	0.830033
C133	C	1.063605	0.354326	0.081568
C134	C	1.396938	0.687660	0.414901
C135	C	1.730271	1.020993	0.748235
C136	C	1.110661	0.307332	0.816536
C137	C	1.443994	0.640665	1.149869
C138	C	1.777327	0.973999	1.483203
C139	C	1.110670	0.307311	0.893395
C140	C	1.444003	0.640644	1.226728
C141	C	1.777336	0.973977	1.560061
C142	C	1.016486	0.401438	0.893351
C143	C	1.349820	0.734772	1.226684
C144	C	1.683153	1.068105	1.560018
C145	C	1.016474	0.401455	0.816494
C146	C	1.349808	0.734789	1.149827
C147	C	1.683141	1.068122	1.483160
C148	C	1.063566	0.354403	0.778088
C149	C	1.396899	0.687737	1.111421
C150	C	1.730232	1.021070	1.444755
C151	C	1.063586	0.354365	0.931804
C152	C	1.396920	0.687698	1.265138
C153	C	1.730253	1.021031	1.598471
C154	C	1.063596	0.354342	1.015138
C155	C	1.396929	0.687675	1.348471
C156	C	1.730262	1.021009	1.681805
C157	C	1.063556	0.354425	0.694749
C158	C	1.396889	0.687759	1.028082
C159	C	1.730222	1.021092	1.361416
H160	H	0.633572	0.440018	0.439813
H161	H	0.966905	0.773351	0.773146
H162	H	1.300238	1.106684	1.106480
H163	H	0.978114	0.784541	0.269109
H164	H	1.311448	1.117875	0.602442
H165	H	1.644781	1.451208	0.935775
C166	C	0.964672	0.453241	0.774198
C167	C	1.298005	0.786575	1.107531
C168	C	1.631339	1.119908	1.440865
H169	H	0.936636	0.481270	0.808077
H170	H	1.269970	0.814603	1.141411
H171	H	1.603303	1.147936	1.474744
H172	H	0.932618	0.425098	0.744215
H173	H	1.265951	0.758431	1.077548
H174	H	1.599284	1.091765	1.410882
H175	H	0.992811	0.485315	0.744215
H176	H	1.326144	0.818648	1.077549
H177	H	1.659478	1.151981	1.410882
C178	C	1.162481	0.255542	0.935688
C179	C	1.495814	0.588875	1.269021
C180	C	1.829148	0.922208	1.602355
H181	H	1.155742	0.262265	0.986962
H182	H	1.489075	0.595598	1.320296
H183	H	1.822409	0.928931	1.653629
H184	H	1.211917	0.266323	0.923097
H185	H	1.545251	0.599657	1.256430
H186	H	1.878584	0.932990	1.589763
H187	H	1.151738	0.206093	0.923104
H188	H	1.485071	0.539426	1.256437
H189	H	1.818405	0.872760	1.589771
H190	H	1.149004	0.269017	0.785268
H191	H	1.482337	0.602351	1.118602
H192	H	1.815670	0.935684	1.451935
C193	C	0.964697	0.453198	0.935599
C194	C	1.298030	0.786531	1.268933
C195	C	1.631363	1.119864	1.602266
H196	H	0.971454	0.446452	0.986880
H197	H	1.304787	0.779785	1.320213
H198	H	1.638120	1.113119	1.653546
H199	H	0.915253	0.442431	0.922999
H200	H	1.248586	0.775765	1.256332
H201	H	1.581920	1.109098	1.589666
H202	H	0.975445	0.502649	0.922990
H203	H	1.308779	0.835983	1.256323
H204	H	1.642112	1.169316	1.589657
C205	C	1.162231	0.773300	0.453506
C206	C	1.495565	1.106633	0.786840
C207	C	1.828898	1.439966	1.120173
H208	H	1.155487	0.722032	0.446750
H209	H	1.488820	1.055365	0.780084
H210	H	1.822154	1.388698	1.113417
H211	H	1.151434	0.785874	0.502944
H212	H	1.484767	1.119207	0.836277
H213	H	1.818101	1.452541	1.169610
H214	H	1.211691	0.785864	0.442781
H215	H	1.545024	1.119197	0.776114
H216	H	1.878358	1.452531	1.109448
H217	H	0.978159	0.923984	0.269132
H218	H	1.311493	1.257317	0.602465
H219	H	1.644826	1.590651	0.935798
H220	H	0.494145	0.440020	0.439829
H221	H	0.827478	0.773354	0.773162
H222	H	1.160811	1.106687	1.106496
H223	H	0.494136	0.269028	0.269354
H224	H	0.827469	0.602362	0.602687
H225	H	1.160802	0.935695	0.936020
H226	H	0.633577	0.269012	0.269337
H227	H	0.966911	0.602346	0.602670
H228	H	1.300244	0.935679	0.936003
H229	H	1.148831	0.923732	0.440071
H230	H	1.482165	1.257065	0.773404
H231	H	1.815498	1.590398	1.106738
