data_functionalizedCrystal
_audit_creation_method	'MofGen! by Chris Wilmer'
_symmetry_space_group_name_H-M	'P1'
_symmetry_Int_Tables_number	1
_symmetry_cell_setting	triclinic
loop_
_symmetry_equiv_pos_as_xyz
  x,y,z
_cell_length_a	12.759401
_cell_length_b	21.295417
_cell_length_c	12.759393
_cell_angle_alpha	89.961877
_cell_angle_beta	89.981504
_cell_angle_gamma	90.029863
loop_
_atom_site_label
_atom_site_type_symbol
_atom_site_fract_x
_atom_site_fract_y
_atom_site_fract_z
Zn1	Zn	1.606146	-0.250569	-0.593933
Zn2	Zn	1.605994	-0.355853	-0.418233
Zn3	Zn	1.430448	-0.250602	-0.418273
Zn4	Zn	1.430390	-0.355805	-0.593875
O5	O	1.518245	-0.303208	-0.506079
O6	O	1.753147	-0.264542	-0.570634
O7	O	1.582668	-0.341926	-0.271218
O8	O	1.453842	-0.162509	-0.441616
O9	O	1.753035	-0.341894	-0.441548
O10	O	1.582927	-0.162484	-0.570673
O11	O	1.453695	-0.264598	-0.271246
O12	O	1.283419	-0.264551	-0.441559
O13	O	1.453744	-0.341811	-0.740904
O14	O	1.283377	-0.341843	-0.570573
O15	O	1.582871	-0.264495	-0.740947
O16	O	1.582613	-0.443936	-0.441492
O17	O	1.453597	-0.443901	-0.570535
C18	C	1.245277	-0.303196	-0.506064
C19	C	1.128501	-0.303206	-0.506083
C20	C	1.518111	-0.466759	-0.506025
C21	C	1.518150	-0.536727	-0.506038
C22	C	1.073644	-0.343516	-0.573150
C23	C	0.963920	-0.343524	-0.573161
C24	C	0.963919	-0.262910	-0.439031
C25	C	1.073641	-0.262899	-0.439025
C26	C	1.128504	-0.383823	-0.640208
C27	C	1.073647	-0.424137	-0.707279
C28	C	0.963923	-0.424145	-0.707290
C29	C	0.909056	-0.383839	-0.640231
C30	C	1.585325	-0.569524	-0.573286
C31	C	1.585362	-0.635267	-0.573312
C32	C	1.518235	-0.668210	-0.506071
C33	C	1.451046	-0.635405	-0.438818
C34	C	1.451003	-0.569664	-0.438802
N35	N	1.510296	-0.771479	-0.414125
N36	N	1.510342	-0.833930	-0.414143
C37	C	1.518357	-0.866284	-0.506118
N38	N	1.526345	-0.833828	-0.598076
N39	N	1.526304	-0.771371	-0.598056
C40	C	1.518273	-0.739495	-0.506082
C41	C	1.585577	-0.970367	-0.573400
C42	C	1.585607	-1.036111	-0.573428
C43	C	1.451296	-1.036248	-0.438925
C44	C	1.451260	-0.970505	-0.438907
C45	C	1.518407	-0.937569	-0.506143
C46	C	1.792278	-0.303220	-0.506094
C47	C	1.909054	-0.303225	-0.506100
C48	C	1.518318	-0.303144	-0.780112
C49	C	1.518350	-0.303117	-0.896889
C50	C	1.518408	-0.139017	-0.506155
C51	C	1.518477	-0.069049	-0.506188
C52	C	1.585595	-0.262855	-0.951775
C53	C	1.585620	-0.262832	-1.061499
C54	C	1.451151	-0.343339	-1.061441
C55	C	1.451122	-0.343358	-0.951719
C56	C	1.652823	-0.222613	-0.896945
C57	C	1.720075	-0.182348	-0.951831
C58	C	1.720100	-0.182325	-1.061555
C59	C	1.652873	-0.222568	-1.116393
C60	C	1.518232	-0.303225	-0.233111
C61	C	1.518404	-0.303075	-0.116335
H62	H	1.217847	-0.383822	-0.640204
H63	H	1.396348	-0.376134	-0.907030
O64	O	1.785225	-0.143224	-0.898453
C65	C	1.799411	-0.058232	-0.774676
C66	C	1.725512	-0.102513	-0.835038
H67	H	1.751162	-0.025297	-0.723408
H68	H	1.854291	-0.087109	-0.723224
H69	H	1.847496	-0.029479	-0.832778
H70	H	1.677359	-0.131275	-0.777012
H71	H	1.670701	-0.073600	-0.886506
O72	O	1.386178	-1.068338	-0.373647
C73	C	1.326653	-1.169677	-0.314127
C74	C	1.400479	-1.133409	-0.388083
H75	H	1.338173	-1.222293	-0.325789
H76	H	1.345133	-1.156833	-0.229397
H77	H	1.241934	-1.156745	-0.332498
H78	H	1.485222	-1.146321	-0.369808
H79	H	1.381908	-1.146256	-0.472792
H80	H	1.118328	-0.456949	-0.761883
O81	O	0.910741	-0.223794	-0.373739
C82	C	0.877078	-0.193145	-0.195115
C83	C	0.937381	-0.237471	-0.268946
H84	H	0.898578	-0.204196	-0.110374
H85	H	0.898707	-0.142386	-0.213631
H86	H	0.789239	-0.200067	-0.206689
H87	H	1.025234	-0.230606	-0.257413
H88	H	0.915666	-0.288214	-0.250413
H89	H	1.396299	-0.542960	-0.384039
H90	H	1.118306	-0.230070	-0.384422
H91	H	0.919262	-0.456967	-0.761910
H92	H	1.652887	-0.222539	-1.205738
H93	H	1.639997	-0.542709	-0.628036
O94	O	1.385958	-0.382412	-1.114870
C95	C	1.326377	-0.418040	-1.283880
C96	C	1.400274	-0.373765	-1.223505
H97	H	1.337910	-0.411055	-1.371722
H98	H	1.344774	-0.468817	-1.262352
H99	H	1.241676	-0.406995	-1.262250
H100	H	1.485000	-0.384754	-1.245102
H101	H	1.381787	-0.323002	-1.245038
H102	H	1.396564	-0.943800	-0.384142
H103	H	1.640309	-1.062813	-0.628194
O104	O	0.802469	-0.383926	-0.640373
C105	C	0.645014	-0.428098	-0.714103
C106	C	0.765718	-0.428084	-0.714014
H107	H	0.615264	-0.463787	-0.773651
H108	H	0.615079	-0.441134	-0.632750
H109	H	0.615339	-0.379343	-0.736023
H110	H	0.795482	-0.476824	-0.692139
H111	H	0.795582	-0.415012	-0.795377
H112	H	1.640056	-0.661975	-0.628085
O113	O	1.785519	-0.143192	-1.114711
C114	C	1.918850	-0.063318	-1.103181
C115	C	1.844827	-0.107613	-1.042856
H116	H	1.966804	-0.034531	-1.045113
H117	H	1.973837	-0.092183	-1.154510
H118	H	1.870647	-0.030415	-1.154594
H119	H	1.892945	-0.140525	-0.991387
H120	H	1.789837	-0.078709	-0.991594
H121	H	1.396388	-0.662231	-0.384073
O122	O	1.650818	-0.938465	-0.638823
C123	C	1.784064	-0.945266	-0.772205
C124	C	1.710220	-0.981470	-0.698181
H125	H	1.832126	-0.980020	-0.820199
H126	H	1.735821	-0.914505	-0.827155
H127	H	1.838967	-0.914464	-0.724001
H128	H	1.655302	-1.012306	-0.746300
H129	H	1.758529	-1.012192	-0.643228
H130	H	1.652813	-0.222629	-0.807602
