data_functionalizedCrystal
_audit_creation_method	'MofGen! by Chris Wilmer'
_symmetry_space_group_name_H-M	'P1'
_symmetry_Int_Tables_number	1
_symmetry_cell_setting	triclinic
loop_
_symmetry_equiv_pos_as_xyz
  x,y,z
_cell_length_a	17.038272
_cell_length_b	14.519709
_cell_length_c	13.596369
_cell_angle_alpha	89.999709
_cell_angle_beta	89.993837
_cell_angle_gamma	92.604149
loop_
_atom_site_label
_atom_site_type_symbol
_atom_site_fract_x
_atom_site_fract_y
_atom_site_fract_z
O1	O	0.102502	-1.231711	-0.081664
O2	O	0.602502	-0.731711	0.418336
O3	O	0.114573	-0.964158	-0.081694
O4	O	0.614573	-0.464158	0.418306
O5	O	-0.005280	-1.096344	-0.081671
O6	O	0.494720	-0.596344	0.418329
O7	O	0.222356	-1.099525	-0.081686
O8	O	0.722356	-0.599525	0.418314
O9	O	-0.005286	-1.096330	0.081912
O10	O	0.494714	-0.596330	0.581912
O11	O	0.114567	-0.964143	0.081889
O12	O	0.614567	-0.464143	0.581889
O13	O	0.102496	-1.231696	0.081919
O14	O	0.602496	-0.731696	0.581919
Zn15	Zn	0.108530	-1.097918	0.107877
Zn16	Zn	0.608530	-0.597918	0.607877
Zn17	Zn	0.108539	-1.097937	-0.107651
Zn18	Zn	0.608539	-0.597937	0.392349
O19	O	0.222349	-1.099510	0.081897
O20	O	0.722349	-0.599510	0.581897
C21	C	0.114008	-0.929748	0.000094
C22	C	0.614008	-0.429748	0.500094
C23	C	0.112322	-0.827237	0.000083
C24	C	0.612322	-0.327237	0.500083
C25	C	-0.034416	-1.093444	0.000120
C26	C	0.465584	-0.593444	0.500120
C27	C	-0.121223	-1.084814	0.000119
C28	C	0.378777	-0.584814	0.500119
N29	N	0.108524	-1.097911	0.254968
N30	N	0.608524	-0.597911	0.754968
C31	C	-0.171209	-1.164047	0.000129
C32	C	0.328791	-0.664047	0.500129
C33	C	-0.252773	-1.155933	0.000118
C34	C	0.247227	-0.655933	0.500118
C35	C	-0.284349	-1.068585	0.000105
C36	C	0.215651	-0.568585	0.500105
C37	C	-0.234357	-0.989347	0.000092
C38	C	0.265643	-0.489347	0.500092
C39	C	-0.152795	-0.997462	0.000096
C40	C	0.347205	-0.497462	0.500096
C41	C	-0.530153	-1.039916	0.000089
C42	C	-0.030153	-0.539916	0.500089
C43	C	-0.611722	-1.031807	0.000088
C44	C	-0.111722	-0.531807	0.500088
C45	C	-0.630132	-1.198394	0.000112
C46	C	-0.130132	-0.698394	0.500112
C47	C	-0.548568	-1.206502	0.000122
C48	C	-0.048568	-0.706502	0.500122
C49	C	-0.498583	-1.127263	0.000104
C50	C	0.001417	-0.627263	0.500104
C51	C	-0.367720	-1.060289	0.000098
C52	C	0.132280	-0.560289	0.500098
C53	C	-0.415213	-1.135560	0.000104
C54	C	0.084787	-0.635560	0.500104
C55	C	0.251486	-1.102410	0.000103
C56	C	0.751486	-0.602410	0.500103
C57	C	0.338292	-1.111040	0.000098
C58	C	0.838292	-0.611040	0.500098
C59	C	0.103062	-1.266107	0.000129
C60	C	0.603062	-0.766107	0.500129
C61	C	0.104748	-1.368617	0.000134
C62	C	0.604748	-0.868617	0.500134
C63	C	0.106116	-0.451867	0.000128
C64	C	0.606116	0.048133	0.500128
C65	C	0.107839	-0.556307	0.000115
C66	C	0.607839	-0.056307	0.500115
C67	C	0.109219	-0.639549	0.000104
C68	C	0.609219	-0.139549	0.500104
C69	C	0.110942	-0.743995	0.000093
C70	C	0.610942	-0.243995	0.500093
N71	N	0.108539	-1.097950	-0.254743
N72	N	0.608539	-0.597950	0.245257
C73	C	0.108540	-1.097936	0.656259
C74	C	0.608540	-0.597936	1.156259
C75	C	0.108538	-1.097926	0.544608
C76	C	0.608538	-0.597926	1.044608
C77	C	0.108533	-1.097924	0.455617
C78	C	0.608533	-0.597924	0.955617
C79	C	0.108530	-1.097913	0.343959
C80	C	0.608530	-0.597913	0.843959
H81	H	-0.293468	-1.220453	0.000129
H82	H	0.206532	-0.720453	0.500129
H83	H	-0.489465	-0.975394	0.000074
H84	H	0.010535	-0.475394	0.500074
H85	H	-0.260072	-0.918226	0.000075
H86	H	0.239928	-0.418226	0.500075
N87	N	-0.382948	-1.224773	0.000129
N88	N	0.117052	-0.724773	0.500129
N89	N	-0.339492	-1.247863	0.069090
N90	N	0.160508	-0.747863	0.569090
H91	H	-0.316697	-1.310870	0.069112
H92	H	0.183303	-0.810870	0.569112
H93	H	-0.670838	-1.262906	0.000125
H94	H	-0.170838	-0.762906	0.500125
N95	N	-0.101731	-0.916529	0.000064
N96	N	0.398269	-0.416529	0.500064
N97	N	-0.104669	-0.859867	-0.068904
N98	N	0.395331	-0.359867	0.431096
H99	H	-0.068605	-0.802706	-0.068934
H100	H	0.431395	-0.302706	0.431066
H101	H	-0.393438	-0.989170	0.000089
H102	H	0.106562	-0.489170	0.500089
H103	H	-0.522865	-1.277629	0.000132
H104	H	-0.022865	-0.777629	0.500132
H105	H	-0.145506	-1.235175	0.000145
H106	H	0.354494	-0.735175	0.500145
H107	H	-0.637427	-0.960675	0.000093
H108	H	-0.137427	-0.460675	0.500093
