data_functionalizedCrystal
_audit_creation_method	'MofGen! by Chris Wilmer'
_symmetry_space_group_name_H-M	'P1'
_symmetry_Int_Tables_number	1
_symmetry_cell_setting	triclinic
loop_
_symmetry_equiv_pos_as_xyz
  x,y,z
_cell_length_a	12.837943
_cell_length_b	10.654550
_cell_length_c	11.295483
_cell_angle_alpha	94.136004
_cell_angle_beta	85.461227
_cell_angle_gamma	89.656922
loop_
_atom_site_label
_atom_site_type_symbol
_atom_site_fract_x
_atom_site_fract_y
_atom_site_fract_z
O1	O	1.384729	0.319125	-0.098998
O2	O	1.082808	0.302983	-0.099005
O3	O	1.240710	0.129073	-0.098997
O4	O	1.226827	0.493035	-0.099006
O5	O	1.226841	0.144321	0.099053
O6	O	1.068938	0.318232	0.099045
O7	O	1.370860	0.334374	0.099052
Cu8	Cu	1.218633	0.327695	0.117132
Cu9	Cu	1.235034	0.309662	-0.117085
O10	O	1.212958	0.508284	0.099044
C11	C	1.037213	0.305155	0.000019
C12	C	0.922019	0.288892	0.000016
C13	C	0.682466	0.484398	0.000028
C14	C	0.574230	0.469123	0.000026
C15	C	0.597310	0.243071	0.000019
C16	C	0.705546	0.258345	0.000021
C17	C	0.748119	0.379012	0.000024
C18	C	0.856358	0.394285	0.000017
C19	C	0.879435	0.168234	0.000018
C20	C	0.771199	0.152960	0.000017
C21	C	1.232756	0.089788	0.000027
C22	C	1.229706	-0.049989	0.000022
C23	C	1.322676	-0.119329	0.000028
C24	C	1.319805	-0.250663	0.000020
C25	C	1.130985	-0.243306	0.000005
C26	C	1.133858	-0.111974	0.000005
C27	C	1.418525	-0.057343	0.000046
C28	C	1.511502	-0.126683	0.000053
C29	C	1.508631	-0.258018	0.000045
C30	C	1.412782	-0.320013	0.000029
C31	C	1.416454	0.332202	0.000025
C32	C	1.531648	0.348464	0.000020
C33	C	1.220912	0.547569	0.000018
C34	C	1.223962	0.687345	0.000014
N35	N	1.207104	0.340379	0.281868
N36	N	1.246571	0.296969	-0.281821
C37	C	1.329560	0.205592	0.531164
C38	C	1.320855	0.215188	0.655827
C39	C	1.180985	0.369157	0.655860
C40	C	1.189690	0.359562	0.531196
C41	C	1.263981	0.277778	0.468853
C42	C	1.272690	0.268191	0.344187
C43	C	1.132816	0.422153	0.344222
C44	C	1.124111	0.431748	0.468886
H45	H	0.932903	0.082422	0.000007
H46	H	0.562620	0.144837	0.000116
O47	O	1.043649	-0.044422	-0.000047
C48	C	1.066740	0.084787	-0.000017
H49	H	1.150895	0.096671	-0.037508
H50	H	1.011567	0.132629	-0.057518
H51	H	1.056427	0.129544	0.094998
H52	H	0.717130	0.582649	0.000028
O53	O	1.421441	0.070241	0.000213
C54	C	1.466971	0.119984	0.102812
H55	H	1.518041	0.044777	0.137010
H56	H	1.516926	0.204263	0.079759
H57	H	1.402766	0.151135	0.174630
O58	O	1.401618	0.125989	0.470635
C59	C	1.381773	0.001872	0.501102
H60	H	1.296316	-0.006124	0.535402
H61	H	1.398979	-0.066064	0.419102
H62	H	1.433974	-0.022563	0.573436
O63	O	0.729803	0.035761	-0.000200
C64	C	0.675042	0.012291	-0.102756
H65	H	0.706130	0.075520	-0.174443
H66	H	0.686429	-0.090494	-0.137195
H67	H	0.588289	0.032865	-0.079563
H68	H	1.374254	0.156405	0.706557
O69	O	1.052000	0.511354	0.529317
C70	C	1.071905	0.635467	0.498875
H71	H	1.118221	0.633157	0.408355
H72	H	0.994664	0.687658	0.494622
H73	H	1.118923	0.685948	0.569030
H74	H	1.410452	-0.426956	0.000010
H75	H	1.589541	-0.076201	0.000036
H76	H	1.584339	-0.314472	0.000038
O77	O	1.037968	-0.303717	0.000052
C78	C	1.055371	-0.434505	0.000025
H79	H	1.133490	-0.452715	0.037523
H80	H	0.989960	-0.477644	0.057524
H81	H	1.056736	-0.478916	-0.094989
H82	H	1.333184	0.201602	0.293428
O83	O	1.069261	0.492346	0.283566
C84	C	1.130423	0.571048	0.211476
H85	H	1.212548	0.529307	0.192778
H86	H	1.093386	0.578994	0.123823
H87	H	1.134792	0.668483	0.259530
H88	H	1.120493	0.435734	0.706636
O89	O	0.510396	0.571471	0.000235
C90	C	0.439896	0.577276	0.102788
H91	H	0.474040	0.523259	0.174482
H92	H	0.426051	0.679716	0.137218
H93	H	0.362591	0.533551	0.079594
O94	O	0.897605	0.511547	-0.000137
C95	C	0.871336	0.568673	-0.102719
H96	H	0.798426	0.522812	-0.136919
H97	H	0.855456	0.673321	-0.079643
H98	H	0.938880	0.556083	-0.174545
