data_functionalizedCrystal
_audit_creation_method	'MofGen! by Chris Wilmer'
_symmetry_space_group_name_H-M	'P1'
_symmetry_Int_Tables_number	1
_symmetry_cell_setting	triclinic
loop_
_symmetry_equiv_pos_as_xyz
  x,y,z
_cell_length_a	10.723024
_cell_length_b	13.185407
_cell_length_c	9.798715
_cell_angle_alpha	89.997092
_cell_angle_beta	89.996609
_cell_angle_gamma	68.220676
loop_
_atom_site_label
_atom_site_type_symbol
_atom_site_fract_x
_atom_site_fract_y
_atom_site_fract_z
O1	O	1.604455	0.152566	-0.113479
O2	O	1.236255	0.167169	-0.113483
O3	O	1.483438	0.001591	-0.113475
O4	O	1.357271	0.318144	-0.113487
O5	O	1.483424	0.001590	0.113507
O6	O	1.236241	0.167169	0.113499
O7	O	1.604440	0.152565	0.113503
Zn8	Zn	1.420338	0.159867	0.149540
Zn9	Zn	1.420357	0.159868	-0.149519
O10	O	1.357257	0.318144	0.113496
C11	C	1.190115	0.166106	0.000007
C12	C	1.052660	0.162927	0.000006
C13	C	0.945654	0.255576	0.000002
C14	C	0.803586	0.252292	-0.000000
C15	C	1.496222	-0.038942	0.000014
C16	C	1.534319	-0.159718	0.000010
C17	C	1.170732	-0.451693	-0.000007
C18	C	1.134933	-0.338218	-0.000017
C19	C	1.234776	-0.293587	-0.000010
C20	C	1.370424	-0.362443	0.000006
C21	C	1.406226	-0.475928	0.000005
C22	C	1.470271	-0.317823	0.000002
C23	C	1.605919	-0.386678	0.000018
C24	C	1.641714	-0.500153	0.000017
C25	C	1.541871	-0.544784	0.000010
C26	C	1.434469	-0.204337	0.000004
C27	C	1.669963	-0.228573	0.000015
C28	C	1.705762	-0.342048	0.000025
C29	C	1.650580	0.153628	0.000010
C30	C	1.788035	0.156808	0.000003
C31	C	1.344474	0.358677	0.000003
C32	C	1.306377	0.479452	-0.000001
N33	N	1.420335	0.159866	0.353639
N34	N	1.420373	0.159860	-0.353619
C35	C	1.524226	0.090038	0.421419
C36	C	1.524248	0.090034	0.578582
H37	H	0.879876	0.077489	-0.000003
H38	H	1.089454	-0.488042	-0.000024
Br39	Br	1.590450	-0.698791	0.000037
Br40	Br	1.272097	0.259500	0.450834
H41	H	1.331426	0.219650	0.588102
Br42	Br	1.250382	-0.110904	-0.000020
Br43	Br	0.950849	-0.244779	-0.000053
H44	H	1.613197	0.030255	0.636870
H45	H	1.039094	0.081175	-0.000026
Br46	Br	1.825807	-0.593598	0.000013
Br47	Br	1.805474	-0.168013	0.000012
H48	H	0.959220	0.337327	0.000007
Br49	Br	1.889850	-0.435506	0.000053
H50	H	0.711739	0.331606	-0.000009
H51	H	1.205621	-0.201190	-0.000015
H52	H	1.613154	0.030253	0.363100
