data_functionalizedCrystal
_audit_creation_method	'MofGen! by Chris Wilmer'
_symmetry_space_group_name_H-M	'P1'
_symmetry_Int_Tables_number	1
_symmetry_cell_setting	triclinic
loop_
_symmetry_equiv_pos_as_xyz
  x,y,z
_cell_length_a	14.044220
_cell_length_b	16.992695
_cell_length_c	16.053789
_cell_angle_alpha	87.278479
_cell_angle_beta	92.655355
_cell_angle_gamma	88.071450
loop_
_atom_site_label
_atom_site_type_symbol
_atom_site_fract_x
_atom_site_fract_y
_atom_site_fract_z
O1	O	1.275906	-0.193254	0.069342
O2	O	0.999419	-0.186397	0.069363
O3	O	1.136554	-0.075605	0.069346
O4	O	1.138771	-0.304046	0.069359
O5	O	1.128924	-0.069171	-0.069513
O6	O	0.991789	-0.179963	-0.069496
O7	O	1.268276	-0.186820	-0.069517
Zn8	Zn	1.128821	-0.182370	-0.091554
Zn9	Zn	1.138874	-0.190847	0.091399
O10	O	1.131141	-0.297612	-0.069500
C11	C	0.960062	-0.180178	-0.000064
C12	C	0.854158	-0.171225	-0.000056
C13	C	1.129887	-0.042976	-0.000084
C14	C	1.121378	0.044663	-0.000083
N15	N	1.121968	-0.176585	-0.216414
C16	C	0.660256	-0.154854	-0.000074
C17	C	0.607433	-0.218360	-0.000074
C18	C	0.499540	-0.209251	-0.000083
C19	C	0.768160	-0.163962	-0.000064
C20	C	1.307633	-0.193039	-0.000089
C21	C	1.413537	-0.201993	-0.000091
C22	C	1.137808	-0.330241	-0.000069
C23	C	1.146317	-0.417881	-0.000065
C24	C	1.203475	0.089162	-0.000090
C25	C	1.195475	0.171508	-0.000081
C26	C	1.105377	0.209354	-0.000072
C27	C	1.023275	0.164849	-0.000062
C28	C	1.031276	0.082504	-0.000065
C29	C	1.072216	0.455270	-0.000058
C30	C	1.064221	0.537621	-0.000058
C31	C	1.236421	0.544274	-0.000075
C32	C	1.244414	0.461928	-0.000083
C33	C	1.162312	0.417430	-0.000069
N34	N	1.097198	0.293524	-0.000066
N35	N	1.170493	0.333261	-0.000069
C36	C	1.180986	-0.226442	-0.260106
C37	C	1.176204	-0.222391	-0.347513
C38	C	1.112399	-0.168485	-0.391227
C39	C	1.053378	-0.118623	-0.347528
C40	C	1.058166	-0.122671	-0.260123
C41	C	1.091501	-0.150812	-0.652637
C42	C	1.086716	-0.146769	-0.740048
C43	C	1.209544	-0.250537	-0.740027
C44	C	1.214321	-0.254583	-0.652620
C45	C	1.155304	-0.204718	-0.608930
N46	N	1.107508	-0.164345	-0.480570
N47	N	1.160201	-0.208855	-0.519587
N48	N	1.145734	-0.196627	0.216260
H49	H	0.643242	-0.279570	-0.000066
H50	H	1.257592	-0.291134	-0.775610
H51	H	1.262327	0.207735	-0.000089
H52	H	0.964424	0.046274	-0.000059
H53	H	0.624450	-0.093648	-0.000082
H54	H	1.276842	0.058354	-0.000103
O55	O	1.233568	-0.270907	-0.389826
C56	C	1.290920	-0.319344	-0.332501
H57	H	1.255231	-0.324047	-0.270199
H58	H	1.300132	-0.380579	-0.357749
H59	H	1.363774	-0.292575	-0.323202
O60	O	1.034017	-0.102459	-0.610253
C61	C	0.937786	-0.116500	-0.631650
H62	H	0.932089	-0.178315	-0.655660
H63	H	0.893686	-0.111262	-0.574185
H64	H	0.909769	-0.071280	-0.682405
O65	O	1.332011	0.425291	-0.000058
C66	C	1.402757	0.482226	-0.000087
H67	H	1.373264	0.538727	0.026213
H68	H	1.467506	0.458888	0.040214
H69	H	1.424709	0.495102	-0.066709
H70	H	1.303264	0.580513	-0.000085
O71	O	0.935812	0.201695	0.000059
C72	C	0.929977	0.245776	0.071986
H73	H	1.004850	0.259890	0.095956
H74	H	0.887023	0.303023	0.055815
H75	H	0.893338	0.210064	0.122349
O76	O	0.976624	0.574258	-0.000002
C77	C	0.905872	0.517328	-0.000007
H78	H	0.938259	0.458384	0.026275
H79	H	0.845568	0.536925	0.040321
H80	H	0.876576	0.510639	-0.066619
O81	O	0.992530	0.411970	-0.000160
C82	C	0.988039	0.367488	-0.072085
H83	H	1.062674	0.359154	-0.096069
H84	H	0.958114	0.307425	-0.055906
H85	H	0.939699	0.399915	-0.122441
O86	O	1.242832	-0.278890	-0.217610
C87	C	1.191571	-0.330917	-0.167036
H88	H	1.114942	-0.332821	-0.193379
H89	H	1.226573	-0.392488	-0.166039
H90	H	1.191748	-0.309515	-0.100794
H91	H	1.266281	-0.298477	-0.617035
H92	H	1.034753	-0.102873	-0.775637
H93	H	1.001431	-0.074728	-0.383126
O94	O	1.000736	-0.074208	-0.217807
C95	C	0.943409	-0.025748	-0.275130
H96	H	0.936902	-0.055104	-0.337432
H97	H	0.869491	-0.016747	-0.249879
H98	H	0.977475	0.033793	-0.284430
