data_functionalizedCrystal
_audit_creation_method	'MofGen! by Chris Wilmer'
_symmetry_space_group_name_H-M	'P1'
_symmetry_Int_Tables_number	1
_symmetry_cell_setting	triclinic
loop_
_symmetry_equiv_pos_as_xyz
  x,y,z
_cell_length_a	29.839134
_cell_length_b	29.839126
_cell_length_c	19.121063
_cell_angle_alpha	87.583433
_cell_angle_beta	87.537743
_cell_angle_gamma	89.968028
loop_
_atom_site_label
_atom_site_type_symbol
_atom_site_fract_x
_atom_site_fract_y
_atom_site_fract_z
Zn1	Zn	0.679162	-0.261784	0.279804
Zn2	Zn	1.012495	0.071549	0.613137
Zn3	Zn	1.345828	0.404882	0.946470
Zn4	Zn	0.675897	-0.189857	0.397245
Zn5	Zn	1.009231	0.143476	0.730578
Zn6	Zn	1.342564	0.476809	1.063911
Zn7	Zn	0.604035	-0.186651	0.279797
Zn8	Zn	0.937368	0.146683	0.613130
Zn9	Zn	1.270701	0.480016	0.946464
Zn10	Zn	0.600807	-0.264942	0.397204
Zn11	Zn	0.934140	0.068392	0.730537
Zn12	Zn	1.267473	0.401725	1.063870
O13	O	0.639975	-0.225808	0.338512
O14	O	0.973308	0.107525	0.671846
O15	O	1.306642	0.440858	1.005179
O16	O	0.741595	-0.252264	0.295402
O17	O	1.074928	0.081070	0.628736
O18	O	1.408262	0.414403	0.962069
O19	O	0.666349	-0.126565	0.381680
O20	O	0.999682	0.206768	0.715013
O21	O	1.333016	0.540102	1.048346
O22	O	0.616717	-0.193954	0.181513
O23	O	0.950051	0.139379	0.514847
O24	O	1.283384	0.472713	0.848180
O25	O	0.739197	-0.199419	0.381686
O26	O	1.072530	0.133914	0.715019
O27	O	1.405863	0.467247	1.048353
O28	O	0.671913	-0.249154	0.181518
O29	O	1.005246	0.084179	0.514852
O30	O	1.338580	0.417512	0.848185
O31	O	0.613552	-0.124209	0.295391
O32	O	0.946885	0.209124	0.628725
O33	O	1.280219	0.542457	0.962058
O34	O	0.540740	-0.197015	0.295351
O35	O	0.874073	0.136318	0.628685
O36	O	1.207406	0.469651	0.962018
O37	O	0.611216	-0.327389	0.381616
O38	O	0.944549	0.005944	0.714949
O39	O	1.277883	0.339277	1.048283
O40	O	0.538368	-0.254535	0.381609
O41	O	0.871702	0.078798	0.714943
O42	O	1.205035	0.412131	1.048276
O43	O	0.668783	-0.325070	0.295363
O44	O	1.002116	0.008263	0.628696
O45	O	1.335450	0.341597	0.962029
O46	O	0.663219	-0.202481	0.495524
O47	O	0.996553	0.130853	0.828857
O48	O	1.329886	0.464186	1.162191
O49	O	0.608051	-0.257645	0.495494
O50	O	0.941384	0.075689	0.828827
O51	O	1.274717	0.409022	1.162160
C52	C	0.523253	-0.225770	0.338476
C53	C	0.856587	0.107563	0.671809
C54	C	1.189920	0.440896	1.005142
C55	C	0.473319	-0.225765	0.338477
C56	C	0.806652	0.107568	0.671810
C57	C	1.139986	0.440902	1.005144
C58	C	0.117955	-0.195915	0.293531
C59	C	0.451288	0.137419	0.626865
C60	C	0.784622	0.470752	0.960198
C61	C	0.305629	-0.195887	0.293511
C62	C	0.638962	0.137447	0.626845
C63	C	0.972295	0.470780	0.960178
O64	O	0.330935	-0.170463	0.255237
O65	O	0.664268	0.162870	0.588571
O66	O	0.997601	0.496203	0.921904
N67	N	0.327874	-0.225788	0.338488
N68	N	0.661207	0.107545	0.671822
N69	N	0.994540	0.440879	1.005155
C70	C	0.303197	-0.255700	0.383470
C71	C	0.636531	0.077633	0.716804
C72	C	0.969864	0.410966	1.050137
O73	O	0.326424	-0.281136	0.421720
O74	O	0.659758	0.052198	0.755054
O75	O	0.993091	0.385531	1.088387
C76	C	0.115525	-0.255730	0.383486
C77	C	0.448858	0.077603	0.716819
C78	C	0.782191	0.410937	1.050153
C79	C	0.093282	-0.225824	0.338511
C80	C	0.426615	0.107510	0.671845
C81	C	0.759949	0.440843	1.005178
C82	C	0.095712	-0.166011	0.248560
C83	C	0.429046	0.167322	0.581893
C84	C	0.762379	0.500655	0.915226
C85	C	0.048797	-0.166017	0.248568
C86	C	0.382130	0.167317	0.581901
C87	C	0.715463	0.500650	0.915234
C88	C	0.024124	-0.195926	0.293548
C89	C	0.357457	0.137408	0.626881
C90	C	0.690790	0.470741	0.960214
C91	C	0.046366	-0.225829	0.338519
C92	C	0.379700	0.107504	0.671853
C93	C	0.713033	0.440837	1.005186
C94	C	0.090849	-0.285644	0.428464
C95	C	0.424183	0.047689	0.761797
C96	C	0.757516	0.381023	1.095131
C97	C	0.043928	-0.285649	0.428463
C98	C	0.377262	0.047684	0.761796
C99	C	0.710595	0.381017	1.095129
C100	C	0.021686	-0.255743	0.383488
C101	C	0.355019	0.077590	0.716821
C102	C	0.688352	0.410923	1.050154
C103	C	-0.025222	-0.255744	0.383507
C104	C	0.308111	0.077589	0.716841
C105	C	0.641444	0.410923	1.050174
N106	N	-0.047467	-0.225843	0.338530
N107	N	0.285866	0.107491	0.671864
N108	N	0.619199	0.440824	1.005197
C109	C	-0.022794	-0.195934	0.293550
C110	C	0.310539	0.137400	0.626884
C111	C	0.643872	0.470733	0.960217
C112	C	0.401728	-0.255682	0.383460
C113	C	0.735061	0.077651	0.716793
C114	C	1.068395	0.410985	1.050127
C115	C	0.448646	-0.255674	0.383457
C116	C	0.781979	0.077659	0.716790
C117	C	1.115313	0.410993	1.050124
C118	C	0.451074	-0.195861	0.293497
C119	C	0.784408	0.137472	0.626830
C120	C	1.117741	0.470806	0.960164
C121	C	0.404155	-0.195867	0.293504
C122	C	0.737489	0.137466	0.626837
C123	C	1.070822	0.470800	0.960171
C124	C	0.379483	-0.225781	0.338483
C125	C	0.712816	0.107553	0.671816
C126	C	1.046150	0.440886	1.005150
C127	C	-0.121321	-0.195947	0.293571
C128	C	0.212013	0.137386	0.626905
C129	C	0.545346	0.470719	0.960238
C130	C	-0.168241	-0.195954	0.293585
C131	C	0.165093	0.137379	0.626919
C132	C	0.498426	0.470712	0.960252
C133	C	-0.170665	-0.255769	0.383542
C134	C	0.162669	0.077565	0.716876
C135	C	0.496002	0.410898	1.050209
C136	C	-0.123749	-0.255760	0.383531
C137	C	0.209584	0.077573	0.716865
C138	C	0.542918	0.410906	1.050198
C139	C	-0.099078	-0.225848	0.338540
C140	C	0.234255	0.107485	0.671873
C141	C	0.567589	0.440819	1.005207
O142	O	-0.050557	-0.281157	0.421756
O143	O	0.282777	0.052176	0.755089
O144	O	0.616110	0.385509	1.088422
O145	O	-0.046029	-0.170509	0.255295
O146	O	0.287304	0.162824	0.588628
O147	O	0.620637	0.496158	0.921962
C148	C	0.164871	-0.195909	0.293523
C149	C	0.498204	0.137424	0.626857
C150	C	0.831537	0.470758	0.960190
C151	C	0.187113	-0.225812	0.338495
C152	C	0.520447	0.107521	0.671828
C153	C	0.853780	0.440854	1.005162
C154	C	0.162440	-0.255721	0.383475
C155	C	0.495774	0.077612	0.716808
C156	C	0.829107	0.410945	1.050142
C157	C	0.234031	-0.225805	0.338492
C158	C	0.567365	0.107529	0.671825
C159	C	0.900698	0.440862	1.005159
C160	C	0.258704	-0.195896	0.293512
C161	C	0.592038	0.137438	0.626846
C162	C	0.925371	0.470771	0.960179
C163	C	0.236459	-0.165994	0.248535
C164	C	0.569793	0.167339	0.581869
C165	C	0.903126	0.500672	0.915202
C166	C	0.189544	-0.166000	0.248543
C167	C	0.522877	0.167333	0.581877
C168	C	0.856210	0.500667	0.915210
C169	C	0.184685	-0.285623	0.428452
C170	C	0.518019	0.047711	0.761785
C171	C	0.851352	0.381044	1.095118
C172	C	0.231601	-0.285614	0.428441
C173	C	0.564934	0.047719	0.761774
C174	C	0.898268	0.381052	1.095107
C175	C	0.256274	-0.255705	0.383461
C176	C	0.589607	0.077628	0.716794
C177	C	0.922941	0.410961	1.050127
C178	C	0.640004	-0.342986	0.338485
C179	C	0.973337	-0.009653	0.671819
C180	C	1.306670	0.323681	1.005152
C181	C	0.640016	-0.392920	0.338474
C182	C	0.973349	-0.059587	0.671807
C183	C	1.306682	0.273746	1.005141
C184	C	0.612535	-0.701338	0.293473
C185	C	0.945868	-0.368005	0.626807
C186	C	1.279202	-0.034671	0.960140
C187	C	0.612549	-0.889010	0.293425
C188	C	0.945883	-0.555676	0.626758
C189	C	1.279216	-0.222343	0.960091
O190	O	0.589160	-0.912234	0.255233
O191	O	0.922493	-0.578901	0.588567
O192	O	1.255826	-0.245568	0.921900
N193	N	0.640041	-0.913702	0.338342
N194	N	0.973374	-0.580369	0.671675
N195	N	1.306707	-0.247035	1.005009
C196	C	0.667528	-0.891473	0.383278
C197	C	1.000862	-0.558140	0.716612
C198	C	1.334195	-0.224807	1.049945
O199	O	0.690908	-0.916782	0.421488
O200	O	1.024242	-0.583449	0.754821
O201	O	1.357575	-0.250115	1.088154
C202	C	0.667512	-0.703803	0.383330
C203	C	1.000845	-0.370469	0.716663
C204	C	1.334178	-0.037136	1.049997
C205	C	0.640022	-0.679113	0.338405
C206	C	0.973355	-0.345779	0.671738
C207	C	1.306688	-0.012446	1.005071
C208	C	0.585047	-0.676648	0.248552
C209	C	0.918380	-0.343315	0.581885
C210	C	1.251714	-0.009981	0.915219
C211	C	0.585046	-0.629733	0.248562
C212	C	0.918379	-0.296400	0.581895
C213	C	1.251712	0.036934	0.915229
C214	C	0.612532	-0.607508	0.293493
C215	C	0.945866	-0.274174	0.626827
C216	C	1.279199	0.059159	0.960160
C217	C	0.640020	-0.632197	0.338415
C218	C	0.973354	-0.298864	0.671748
C219	C	1.306687	0.034469	1.005081
C220	C	0.694997	-0.681575	0.428269
C221	C	1.028330	-0.348242	0.761603
C222	C	1.361663	-0.014908	1.094936
C223	C	0.694989	-0.634654	0.428280
C224	C	1.028323	-0.301321	0.761613
C225	C	1.361656	0.032012	1.094946
C226	C	0.667499	-0.609964	0.383354
C227	C	1.000833	-0.276631	0.716687
C228	C	1.334166	0.056702	1.050021
C229	C	0.667505	-0.563057	0.383356
C230	C	1.000839	-0.229724	0.716689
C231	C	1.334172	0.103610	1.050022
N232	N	0.640014	-0.538365	0.338438
N233	N	0.973347	-0.205031	0.671772
N234	N	1.306681	0.128302	1.005105
C235	C	0.612527	-0.560590	0.293507
C236	C	0.945861	-0.227257	0.626840
C237	C	1.279194	0.106077	0.960174
C238	C	0.667536	-0.990003	0.383247
C239	C	1.000869	-0.656670	0.716580
C240	C	1.334203	-0.323337	1.049914
C241	C	0.667541	-1.036921	0.383233
C242	C	1.000874	-0.703587	0.716567
C243	C	1.334207	-0.370254	1.049900
C244	C	0.612561	-1.034454	0.293380
C245	C	0.945894	-0.701120	0.626714
C246	C	1.279227	-0.367787	0.960047
C247	C	0.612559	-0.987535	0.293391
C248	C	0.945892	-0.654202	0.626724
C249	C	1.279225	-0.320869	0.960058
C250	C	0.640044	-0.965311	0.338329
C251	C	0.973378	-0.631978	0.671663
C252	C	1.306711	-0.298644	1.004996
C253	C	0.612527	-0.462065	0.293531
C254	C	0.945860	-0.128732	0.626864
C255	C	1.279193	0.204602	0.960197
C256	C	0.612529	-0.415146	0.293543
C257	C	0.945862	-0.081812	0.626876
C258	C	1.279196	0.251521	0.960209
C259	C	0.667507	-0.417617	0.383398
C260	C	1.000840	-0.084283	0.716731
C261	C	1.334174	0.249050	1.050065
C262	C	0.667507	-0.464532	0.383384
C263	C	1.000840	-0.131198	0.716717
C264	C	1.334173	0.202135	1.050050
C265	C	0.640013	-0.486755	0.338448
C266	C	0.973346	-0.153421	0.671781
C267	C	1.306680	0.179912	1.005115
O268	O	0.690879	-0.539803	0.421532
O269	O	1.024212	-0.206470	0.754866
O270	O	1.357546	0.126864	1.088199
O271	O	0.589143	-0.535274	0.255314
O272	O	0.922477	-0.201941	0.588648
O273	O	1.255810	0.131393	0.921981
C274	C	0.612537	-0.748253	0.293463
C275	C	0.945870	-0.414920	0.626797
C276	C	1.279203	-0.081586	0.960130
C277	C	0.640025	-0.772943	0.338385
C278	C	0.973358	-0.439610	0.671718
C279	C	1.306691	-0.106276	1.005051
C280	C	0.667511	-0.750718	0.383316
C281	C	1.000845	-0.417384	0.716649
C282	C	1.334178	-0.084051	1.049983
C283	C	0.640029	-0.819861	0.338371
C284	C	0.973363	-0.486527	0.671704
C285	C	1.306696	-0.153194	1.005038
C286	C	0.612543	-0.842086	0.293440
C287	C	0.945876	-0.508753	0.626773
C288	C	1.279210	-0.175419	0.960106
C289	C	0.585051	-0.817394	0.248522
C290	C	0.918385	-0.484060	0.581856
C291	C	1.251718	-0.150727	0.915189
C292	C	0.585050	-0.770478	0.248532
C293	C	0.918383	-0.437145	0.581865
C294	C	1.251717	-0.103812	0.915199
C295	C	0.695003	-0.775410	0.428234
C296	C	1.028336	-0.442077	0.761567
C297	C	1.361669	-0.108743	1.094900
C298	C	0.695002	-0.822325	0.428219
C299	C	1.028336	-0.488992	0.761553
C300	C	1.361669	-0.155658	1.094886
C301	C	0.667516	-0.844550	0.383288
C302	C	1.000849	-0.511217	0.716621
C303	C	1.334182	-0.177884	1.049955
C304	C	0.757152	-0.225847	0.338549
C305	C	1.090486	0.107486	0.671883
C306	C	1.423819	0.440820	1.005216
C307	C	0.807086	-0.225863	0.338565
C308	C	1.140420	0.107470	0.671899
C309	C	1.473753	0.440803	1.005232
C310	C	0.634943	-0.230763	0.520993
C311	C	0.968276	0.102570	0.854326
C312	C	1.301609	0.435904	1.187660
C313	C	0.632831	-0.232898	0.599059
C314	C	0.966164	0.100436	0.932392
C315	C	1.299498	0.433769	1.265726
C316	C	0.639974	-0.109085	0.338488
C317	C	0.973307	0.224248	0.671822
C318	C	1.306640	0.557581	1.005155
C319	C	0.640054	-0.059146	0.338302
C320	C	0.973387	0.274187	0.671635
C321	C	1.306721	0.607521	1.004969
C322	C	0.645039	-0.220844	0.155319
C323	C	0.978373	0.112489	0.488652
C324	C	1.311706	0.445822	0.821986
C325	C	0.647197	-0.218729	0.077253
C326	C	0.980531	0.114604	0.410586
C327	C	1.313864	0.447938	0.743920
C328	C	0.660584	-0.205203	0.635727
C329	C	0.993918	0.128130	0.969060
C330	C	1.327251	0.461463	1.302394
C331	C	0.658601	-0.207214	0.709078
C332	C	0.991934	0.126120	1.042412
C333	C	1.325268	0.459453	1.375745
C334	C	0.628861	-0.236916	0.745760
C335	C	0.962195	0.096417	1.079093
C336	C	1.295528	0.429750	1.412427
C337	C	0.601107	-0.264614	0.709087
C338	C	0.934440	0.068720	1.042420
C339	C	1.267773	0.402053	1.375754
C340	C	0.603093	-0.262605	0.635737
C341	C	0.936426	0.070728	0.969070
C342	C	1.269759	0.404061	1.302404
C343	C	0.621429	-0.244418	0.967230
C344	C	0.954762	0.088915	1.300563
C345	C	1.288095	0.422249	1.633897
C346	C	0.619444	-0.246423	1.040585
C347	C	0.952777	0.086910	1.373918
C348	C	1.286111	0.420243	1.707252
C349	C	0.676939	-0.189024	1.040571
C350	C	1.010272	0.144310	1.373905
C351	C	1.343606	0.477643	1.707238
C352	C	0.678920	-0.187016	0.967220
C353	C	1.012254	0.146317	1.300553
C354	C	1.345587	0.479651	1.633886
C355	C	0.651167	-0.214715	0.930553
C356	C	0.984501	0.118618	1.263886
C357	C	1.317834	0.451952	1.597220
C358	C	0.626832	-0.238971	0.820737
C359	C	0.960166	0.094363	1.154070
C360	C	1.293499	0.427696	1.487404
C361	C	0.653199	-0.212662	0.855578
C362	C	0.986533	0.120671	1.188911
C363	C	1.319866	0.454004	1.522244
H364	H	0.023842	-0.310011	0.465088
H365	H	0.357176	0.023323	0.798422
H366	H	0.690509	0.356656	1.131755
H367	H	0.689931	-1.057019	0.419808
H368	H	1.023264	-0.723686	0.753142
H369	H	1.356598	-0.390353	1.086475
H370	H	0.466752	-0.280022	0.420088
H371	H	0.800085	0.053311	0.753421
H372	H	1.133418	0.386645	1.086754
H373	H	-0.105638	-0.280109	0.420159
H374	H	0.227695	0.053224	0.753492
H375	H	0.561028	0.386557	1.086825
H376	H	-0.190762	-0.280118	0.420166
H377	H	0.142571	0.053215	0.753500
H378	H	0.475905	0.386548	1.086833
Cl379	Cl	-0.196200	-0.158355	0.237042
Cl380	Cl	0.137134	0.174978	0.570375
Cl381	Cl	0.470467	0.508312	0.903708
Cl382	Cl	0.716315	-0.149680	0.921111
Cl383	Cl	1.049649	0.183653	1.254444
Cl384	Cl	1.382982	0.516986	1.587777
H385	H	0.699535	-0.166473	1.070433
H386	H	1.032868	0.166860	1.403766
H387	H	1.366201	0.500193	1.737100
Cl388	Cl	-0.090313	-0.158342	0.237012
Cl389	Cl	0.243020	0.174992	0.570345
Cl390	Cl	0.576354	0.508325	0.903678
H391	H	0.689918	-0.971913	0.419845
H392	H	1.023252	-0.638579	0.753179
H393	H	1.356585	-0.305246	1.086512
Cl394	Cl	0.729562	-0.747477	0.484723
Cl395	Cl	1.062896	-0.414143	0.818056
Cl396	Cl	1.396229	-0.080810	1.151389
H397	H	0.108951	-0.309997	0.465088
H398	H	0.442284	0.023337	0.798421
H399	H	0.775618	0.356670	1.131754
Cl400	Cl	0.161589	-0.128403	0.191998
Cl401	Cl	0.494922	0.204931	0.525331
Cl402	Cl	0.828255	0.538264	0.858665
Cl403	Cl	0.729554	-0.712603	0.484757
Cl404	Cl	1.062887	-0.379269	0.818090
Cl405	Cl	1.396220	-0.045936	1.151424
H406	H	0.684800	-0.181014	0.605865
H407	H	1.018133	0.152319	0.939199
H408	H	1.351466	0.485652	1.272532
H409	H	0.595232	-0.270618	1.070450
H410	H	0.928565	0.062715	1.403783
H411	H	1.261898	0.396048	1.737116
Cl412	Cl	0.693494	-0.172398	0.755172
Cl413	Cl	1.026828	0.160936	1.088505
Cl414	Cl	1.360161	0.494269	1.421839
H415	H	0.030691	-0.141664	0.211944
H416	H	0.364024	0.191669	0.545278
H417	H	0.697358	0.525003	0.878611
H418	H	0.590181	-1.052558	0.256794
H419	H	0.923515	-0.719224	0.590127
H420	H	1.256848	-0.385891	0.923461
Cl421	Cl	0.370718	-0.293290	0.440014
Cl422	Cl	0.704051	0.040043	0.773347
Cl423	Cl	1.037385	0.373377	1.106680
H424	H	0.164601	-0.309979	0.465080
H425	H	0.497934	0.023354	0.798413
H426	H	0.831268	0.356688	1.131747
H427	H	0.115796	-0.141656	0.211927
H428	H	0.449130	0.191678	0.545261
H429	H	0.782463	0.525011	0.878594
H430	H	0.580493	-0.285158	0.605883
H431	H	0.913827	0.048176	0.939216
H432	H	1.247160	0.381509	1.272549
H433	H	0.590139	-0.480153	0.256939
H434	H	0.923472	-0.146820	0.590272
H435	H	1.256806	0.186514	0.923606
H436	H	0.256556	-0.141640	0.211913
H437	H	0.589890	0.191693	0.545247
H438	H	0.923223	0.525027	0.878580
H439	H	0.386049	-0.171516	0.256879
H440	H	0.719382	0.161817	0.590212
H441	H	1.052715	0.495150	0.923546
H442	H	0.249707	-0.309967	0.465071
H443	H	0.583040	0.023366	0.798405
H444	H	0.916373	0.356700	1.131738
Cl445	Cl	0.690586	-0.175325	0.809462
Cl446	Cl	1.023920	0.158008	1.142795
Cl447	Cl	1.357253	0.491342	1.476129
Cl448	Cl	0.586538	-0.279239	0.921144
Cl449	Cl	0.919871	0.054094	1.254478
Cl450	Cl	1.253205	0.387428	1.587811
Cl451	Cl	0.577969	-0.384110	0.237059
Cl452	Cl	0.911302	-0.050776	0.570393
Cl453	Cl	1.244635	0.282557	0.903726
Cl454	Cl	0.563722	-0.301957	0.755202
Cl455	Cl	0.897055	0.031376	1.088535
Cl456	Cl	1.230389	0.364710	1.421868
Cl457	Cl	0.550482	-0.598701	0.192086
Cl458	Cl	0.883815	-0.265368	0.525419
Cl459	Cl	1.217149	0.067966	0.858752
Cl460	Cl	0.550482	-0.704580	0.192068
Cl461	Cl	0.883815	-0.371247	0.525401
Cl462	Cl	1.217149	-0.037913	0.858734
Cl463	Cl	0.550489	-0.739447	0.192052
Cl464	Cl	0.883822	-0.406113	0.525385
Cl465	Cl	1.217155	-0.072780	0.858719
Cl466	Cl	0.589446	-0.276310	0.866858
Cl467	Cl	0.922779	0.057024	1.200191
Cl468	Cl	1.256113	0.390357	1.533524
Cl469	Cl	0.550498	-0.845343	0.192036
Cl470	Cl	0.883832	-0.512010	0.525369
Cl471	Cl	1.217165	-0.178676	0.858703
Cl472	Cl	0.729544	-0.606718	0.484779
Cl473	Cl	1.062877	-0.273385	0.818112
Cl474	Cl	1.396211	0.059948	1.151446
H475	H	0.590174	-0.967436	0.256808
H476	H	0.923508	-0.634102	0.590142
H477	H	1.256841	-0.300769	0.923475
Cl478	Cl	0.702074	-0.495571	0.439850
Cl479	Cl	1.035407	-0.162238	0.773183
Cl480	Cl	1.368740	0.171096	1.106517
Cl481	Cl	0.482100	-0.158262	0.236951
Cl482	Cl	0.815434	0.175072	0.570284
Cl483	Cl	1.148767	0.508405	0.903617
Cl484	Cl	0.702062	-0.389667	0.439877
Cl485	Cl	1.035395	-0.056334	0.773210
Cl486	Cl	1.368729	0.276999	1.106543
H487	H	0.717392	-0.842424	0.464802
H488	H	1.050725	-0.509090	0.798135
H489	H	1.384059	-0.175757	1.131469
