data_functionalizedCrystal
_audit_creation_method	'MofGen! by Chris Wilmer'
_symmetry_space_group_name_H-M	'P1'
_symmetry_Int_Tables_number	1
_symmetry_cell_setting	triclinic
loop_
_symmetry_equiv_pos_as_xyz
  x,y,z
_cell_length_a	10.654549
_cell_length_b	17.019294
_cell_length_c	9.730223
_cell_angle_alpha	86.116633
_cell_angle_beta	89.997731
_cell_angle_gamma	83.938312
loop_
_atom_site_label
_atom_site_type_symbol
_atom_site_fract_x
_atom_site_fract_y
_atom_site_fract_z
O1	O	1.666104	0.110793	-0.127368
O2	O	1.300460	0.121349	-0.128627
O3	O	1.493483	0.001294	-0.114407
O4	O	1.473082	0.230848	-0.141588
O5	O	1.493470	0.001291	0.114173
O6	O	1.300448	0.121346	0.099954
O7	O	1.666092	0.110790	0.101212
Zn8	Zn	1.483268	0.116067	0.136875
Zn9	Zn	1.483284	0.116072	-0.164289
O10	O	1.473070	0.230845	0.086993
C11	C	1.253668	0.120572	-0.014246
C12	C	1.114262	0.118254	-0.013975
C13	C	0.902674	0.186756	-0.022081
C14	C	1.033660	0.188940	-0.022348
C15	C	1.063870	0.045378	-0.005349
C16	C	0.932886	0.043194	-0.005092
C17	C	1.492703	-0.028101	0.003361
C18	C	1.490383	-0.115684	0.013722
C19	C	1.489302	-0.156825	-0.106008
C20	C	1.487114	-0.239118	-0.096268
C21	C	1.486015	-0.280269	0.033203
C22	C	1.487092	-0.239123	0.152943
C23	C	1.489271	-0.156831	0.143201
C24	C	1.479426	-0.528738	0.068849
C25	C	1.477250	-0.611037	0.078582
C26	C	1.477270	-0.611025	-0.170630
C27	C	1.479457	-0.528732	-0.180360
C28	C	1.480527	-0.487592	-0.060621
C29	C	1.483782	-0.364386	0.043162
C30	C	1.482751	-0.403476	-0.070581
C31	C	1.712884	0.111566	-0.013171
C32	C	1.852291	0.113885	-0.013451
C33	C	1.473850	0.260240	-0.030778
C34	C	1.476170	0.347823	-0.041149
N35	N	1.483266	0.116064	0.342412
N36	N	1.483296	0.116069	-0.369826
C37	C	1.568765	0.062926	0.420632
C38	C	1.568778	0.062926	0.564514
C39	C	1.397788	0.169209	0.551944
C40	C	1.397771	0.169204	0.408065
H41	H	0.891865	-0.016149	0.001931
N42	N	1.305537	0.226518	0.323699
H43	H	1.319889	0.282593	0.342079
H44	H	1.318538	0.218381	0.222622
H45	H	1.328181	0.212476	0.605413
N46	N	0.815763	0.263005	-0.031080
H47	H	0.831956	0.294772	-0.119571
H48	H	0.725170	0.250512	-0.029538
N49	N	1.088004	0.267536	-0.031670
H50	H	1.017068	0.311983	-0.036930
H51	H	1.141695	0.271572	0.052584
N52	N	1.660943	0.005592	0.349824
H53	H	1.647958	0.013647	0.246807
H54	H	1.750020	0.015213	0.373806
H55	H	1.129506	-0.012176	0.001460
N56	N	1.490498	-0.112443	-0.245654
H57	H	1.489480	-0.150996	-0.320023
H58	H	1.413592	-0.072330	-0.255835
H59	H	1.482891	-0.397902	0.148579
H60	H	1.486239	-0.272611	-0.193766
N61	N	1.480739	-0.484388	-0.320032
H62	H	1.559491	-0.456247	-0.328869
H63	H	1.479708	-0.523016	-0.394275
N64	N	1.476117	-0.655397	-0.299771
H65	H	1.397405	-0.683572	-0.302005
H66	H	1.477195	-0.616791	-0.383190
N67	N	1.476070	-0.655425	0.218232
H68	H	1.477076	-0.616877	0.292610
H69	H	1.397356	-0.683605	0.226984
N70	N	1.490456	-0.112458	0.272341
H71	H	1.492001	-0.054082	0.246526
H72	H	1.412261	-0.120875	0.327751
N73	N	1.480596	-0.484373	0.197991
H74	H	1.479579	-0.522933	0.281484
H75	H	1.559314	-0.456200	0.200080
H76	H	1.486189	-0.272635	0.258361
H77	H	1.638397	0.019656	0.628198
H78	H	1.483637	-0.369966	-0.175997
