data_functionalizedCrystal
_audit_creation_method	'MofGen! by Chris Wilmer'
_symmetry_space_group_name_H-M	'P1'
_symmetry_Int_Tables_number	1
_symmetry_cell_setting	triclinic
loop_
_symmetry_equiv_pos_as_xyz
  x,y,z
_cell_length_a	13.897449
_cell_length_b	13.897441
_cell_length_c	13.897448
_cell_angle_alpha	90.029627
_cell_angle_beta	89.981028
_cell_angle_gamma	89.981404
loop_
_atom_site_label
_atom_site_type_symbol
_atom_site_fract_x
_atom_site_fract_y
_atom_site_fract_z
Zn1	Zn	1.474682	-0.545381	0.383960
Zn2	Zn	1.474582	-0.384083	0.545279
Zn3	Zn	1.313377	-0.384100	0.384004
Zn4	Zn	1.313353	-0.545335	0.545219
O5	O	1.393999	-0.464725	0.464616
O6	O	1.609651	-0.523997	0.405367
O7	O	1.453166	-0.249103	0.523929
O8	O	1.334827	-0.405520	0.249016
O9	O	1.609577	-0.405491	0.523887
O10	O	1.453337	-0.524013	0.248985
O11	O	1.334730	-0.249116	0.405441
O12	O	1.178393	-0.405476	0.405382
O13	O	1.334785	-0.680323	0.523784
O14	O	1.178375	-0.523935	0.523826
O15	O	1.453313	-0.680357	0.405308
O16	O	1.453143	-0.405447	0.680253
O17	O	1.334688	-0.523918	0.680208
C18	C	1.143384	-0.464703	0.464603
C19	C	1.036171	-0.464716	0.464620
C20	C	1.394058	-0.716318	0.464535
C21	C	1.394083	-0.823532	0.464500
C22	C	1.393928	-0.464697	0.715230
C23	C	1.393987	-0.464717	0.822444
C24	C	0.839875	-0.464741	0.464624
C25	C	0.949108	-0.464725	0.464619
C26	C	1.645592	-0.464747	0.464629
C27	C	1.752806	-0.464757	0.464635
C28	C	1.394103	-0.910602	0.464473
C29	C	1.394130	-1.019834	0.464429
C30	C	1.393995	-0.214110	0.464627
C31	C	1.394157	-0.106897	0.464389
C32	C	1.394096	-0.464774	0.213023
C33	C	1.394137	-0.464795	0.105809
C34	C	1.394088	-0.464778	1.018739
C35	C	1.394029	-0.464747	0.909506
