data_functionalizedCrystal
_audit_creation_method	'MofGen! by Chris Wilmer'
_symmetry_space_group_name_H-M	'P1'
_symmetry_Int_Tables_number	1
_symmetry_cell_setting	triclinic
loop_
_symmetry_equiv_pos_as_xyz
  x,y,z
_cell_length_a	13.033293
_cell_length_b	16.625545
_cell_length_c	13.032268
_cell_angle_alpha	97.146495
_cell_angle_beta	89.079182
_cell_angle_gamma	97.195104
loop_
_atom_site_label
_atom_site_type_symbol
_atom_site_fract_x
_atom_site_fract_y
_atom_site_fract_z
Zn1	Zn	1.498419	-0.250858	-0.781472
Zn2	Zn	1.520141	-0.366731	-0.609493
Zn3	Zn	1.348280	-0.246600	-0.587647
Zn4	Zn	1.326386	-0.400344	-0.759532
O5	O	1.423306	-0.316133	-0.684536
O6	O	1.645221	-0.253943	-0.776983
O7	O	1.515597	-0.334946	-0.462688
O8	O	1.368267	-0.134329	-0.613398
O9	O	1.661180	-0.339075	-0.650631
O10	O	1.478574	-0.137457	-0.755799
O11	O	1.389331	-0.246686	-0.446638
O12	O	1.201454	-0.279279	-0.592124
O13	O	1.330953	-0.396363	-0.906350
O14	O	1.185369	-0.392234	-0.718407
O15	O	1.457345	-0.286536	-0.922469
O16	O	1.494368	-0.484025	-0.629357
O17	O	1.352017	-0.508720	-0.739590
C18	C	1.156095	-0.338943	-0.650515
C19	C	1.041777	-0.348723	-0.635984
C20	C	0.982902	-0.311049	-0.692119
C21	C	0.864749	-0.321156	-0.677103
C22	C	1.423199	-0.525630	-0.684489
C23	C	1.423242	-0.615249	-0.684516
C24	C	1.423280	-0.688030	-0.684541
C25	C	1.423337	-0.779336	-0.684572
C26	C	1.423388	-0.852110	-0.684592
C27	C	1.423445	-0.943421	-0.684620
C28	C	1.691561	-0.293235	-0.718691
C29	C	1.805875	-0.283477	-0.733246
C30	C	1.389284	-0.345674	-0.952767
C31	C	1.374785	-0.358263	-1.067070
C32	C	1.423440	-0.105818	-0.684609
C33	C	1.423496	-0.016194	-0.684640
C34	C	1.430857	-0.309535	-1.126006
C35	C	1.415874	-0.322545	-1.244145
C36	C	1.457256	-0.286643	-0.417357
C37	C	1.471954	-0.273811	-0.303079
H38	H	0.842937	-0.243732	-0.792421
C39	C	0.814695	-0.374842	-0.597153
H40	H	0.866955	-0.397163	-0.563877
H41	H	0.767796	-0.417904	-0.631122
H42	H	0.778465	-0.342569	-0.547123
H43	H	1.004711	-0.388458	-0.576806
H44	H	1.489952	-0.258184	-1.089000
H45	H	1.356765	-0.373893	-1.281145
C46	C	1.551796	-0.204437	-1.253106
H47	H	1.551399	-0.204795	-1.180260
H48	H	1.534571	-0.153464	-1.268764
H49	H	1.618684	-0.212264	-1.279453
C50	C	1.294952	-0.427635	-1.117051
H51	H	1.295361	-0.427283	-1.189898
H52	H	1.228066	-0.419821	-1.090705
H53	H	1.312192	-0.478609	-1.101396
H54	H	1.019970	-0.271308	-0.751292
