data_functionalizedCrystal
_audit_creation_method	'MofGen! by Chris Wilmer'
_symmetry_space_group_name_H-M	'P1'
_symmetry_Int_Tables_number	1
_symmetry_cell_setting	triclinic
loop_
_symmetry_equiv_pos_as_xyz
  x,y,z
_cell_length_a	13.897449
_cell_length_b	16.120444
_cell_length_c	13.897441
_cell_angle_alpha	92.867240
_cell_angle_beta	89.981404
_cell_angle_gamma	92.927816
loop_
_atom_site_label
_atom_site_type_symbol
_atom_site_fract_x
_atom_site_fract_y
_atom_site_fract_z
Zn1	Zn	1.455154	-0.331861	-0.564829
Zn2	Zn	1.446849	-0.471291	-0.411701
Zn3	Zn	1.293847	-0.331899	-0.403550
Zn4	Zn	1.285623	-0.471239	-0.572951
O5	O	1.370368	-0.401573	-0.488258
O6	O	1.589033	-0.350363	-0.544529
O7	O	1.426519	-0.452838	-0.275641
O8	O	1.322162	-0.215228	-0.418133
O9	O	1.582932	-0.452802	-0.432027
O10	O	1.440673	-0.215200	-0.536624
O11	O	1.314109	-0.350427	-0.269651
O12	O	1.157774	-0.350376	-0.426009
O13	O	1.308145	-0.452713	-0.706853
O14	O	1.151732	-0.452749	-0.550467
O15	O	1.432699	-0.350313	-0.700886
O16	O	1.418544	-0.587951	-0.439902
O17	O	1.300092	-0.587912	-0.558371
C18	C	1.119754	-0.401562	-0.488235
C19	C	1.012539	-0.401577	-0.488249
C20	C	0.816244	-0.401580	-0.488275
C21	C	0.925477	-0.401576	-0.488258
C22	C	1.357551	-0.618182	-0.500924
C23	C	1.352156	-0.710848	-0.506374
C24	C	1.398590	-0.921789	-0.460189
C25	C	1.342324	-0.880505	-0.516336
C26	C	1.347796	-0.786099	-0.510792
C27	C	1.393119	-1.016204	-0.465732
C28	C	1.621960	-0.401584	-0.488281
C29	C	1.729174	-0.401589	-0.488291
C30	C	1.370431	-0.401503	-0.739847
C31	C	1.370458	-0.401473	-0.847059
C32	C	1.383261	-0.184118	-0.475564
C33	C	1.388755	-0.091452	-0.470154
C34	C	1.370479	-0.401449	-0.934127
C35	C	1.370509	-0.401412	-1.043358
C36	C	1.370364	-0.401582	-0.237644
C37	C	1.370538	-0.401377	-0.130419
H38	H	1.450867	-0.886237	-0.407959
H39	H	1.290043	-0.916061	-0.568569
