data_functionalizedCrystal
_audit_creation_method	'MofGen! by Chris Wilmer'
_symmetry_space_group_name_H-M	'P1'
_symmetry_Int_Tables_number	1
_symmetry_cell_setting	triclinic
loop_
_symmetry_equiv_pos_as_xyz
  x,y,z
_cell_length_a	11.026607
_cell_length_b	19.188930
_cell_length_c	9.482900
_cell_angle_alpha	99.297616
_cell_angle_beta	78.636152
_cell_angle_gamma	95.865399
loop_
_atom_site_label
_atom_site_type_symbol
_atom_site_fract_x
_atom_site_fract_y
_atom_site_fract_z
O1	O	1.627581	0.283622	-0.120957
O2	O	2.127581	0.783622	0.379043
O3	O	1.274451	0.250352	-0.120952
O4	O	1.774451	0.750352	0.379048
O5	O	1.461202	0.166632	-0.120926
O6	O	1.961202	0.666632	0.379074
O7	O	1.440830	0.367342	-0.120983
O8	O	1.940830	0.867342	0.379017
O9	O	1.423268	0.183725	0.120861
O10	O	1.923268	0.683725	0.620861
O11	O	1.236517	0.267445	0.120835
O12	O	1.736517	0.767445	0.620835
O13	O	1.589648	0.300715	0.120830
O14	O	2.089648	0.800715	0.620830
Cu15	Cu	1.409619	0.285641	0.142910
Cu16	Cu	1.909619	0.785641	0.642910
Cu17	Cu	1.454480	0.265426	-0.143032
Cu18	Cu	1.954480	0.765426	0.356968
O19	O	1.402896	0.384435	0.120804
O20	O	1.902896	0.884435	0.620804
C21	C	1.210306	0.252761	-0.000057
C22	C	1.710306	0.752761	0.499943
C23	C	1.075688	0.234464	-0.000054
C24	C	1.575688	0.734464	0.499946
C25	C	1.001617	0.284984	-0.000069
C26	C	1.501617	0.784984	0.499931
C27	C	0.862482	0.266075	-0.000066
C28	C	1.362482	0.766075	0.499934
C29	C	1.441575	0.149084	-0.000029
C30	C	1.941575	0.649084	0.499971
C31	C	1.439592	0.071328	-0.000016
C32	C	1.939592	0.571328	0.499984
C33	C	1.549173	0.040370	-0.000011
C34	C	2.049173	0.540370	0.499989
C35	C	1.547315	-0.032693	-0.000034
C36	C	2.047315	0.467307	0.499966
C37	C	1.435865	-0.074793	-0.000033
C38	C	1.935865	0.425207	0.499967
C39	C	1.326271	-0.043828	-0.000047
C40	C	1.826271	0.456172	0.499953
C41	C	1.328134	0.029233	-0.000038
C42	C	1.828134	0.529233	0.499962
N43	N	1.337766	-0.187838	0.082253
N44	N	1.837766	0.312162	0.582253
N45	N	1.336003	-0.257242	0.082248
N46	N	1.836003	0.242758	0.582248
C47	C	1.430246	-0.294921	-0.000063
C48	C	1.930246	0.205079	0.499937
N49	N	1.526334	-0.260572	-0.082349
N50	N	2.026334	0.239428	0.417651
N51	N	1.528099	-0.191161	-0.082338
N52	N	2.028099	0.308839	0.417662
C53	C	1.433833	-0.154016	-0.000044
C54	C	1.933833	0.345984	0.499956
C55	C	1.537820	-0.405101	-0.000085
C56	C	2.037820	0.094899	0.499915
C57	C	1.535959	-0.478166	-0.000117
C58	C	2.035959	0.021834	0.499883
C59	C	1.314910	-0.489299	-0.000115
C60	C	1.814910	0.010701	0.499885
C61	C	1.316776	-0.416236	-0.000098
C62	C	1.816776	0.083764	0.499902
C63	C	1.428234	-0.374141	-0.000075
C64	C	1.928234	0.125859	0.499925
C65	C	1.653793	0.298306	-0.000068
C66	C	2.153793	0.798306	0.499932
C67	C	1.788412	0.316602	-0.000081
C68	C	2.288412	0.816602	0.499919
C69	C	1.422524	0.401983	-0.000097
C70	C	1.922524	0.901983	0.499903
C71	C	1.424509	0.479738	-0.000119
C72	C	1.924509	0.979738	0.499881
N73	N	1.378075	0.299859	0.344025
N74	N	1.878075	0.799859	0.844025
N75	N	1.486034	0.251204	-0.344148
N76	N	1.986034	0.751204	0.155852
C77	C	1.445167	0.269615	0.416234
C78	C	1.945167	0.769615	0.916234
C79	C	1.418931	0.281452	0.583648
C80	C	1.918931	0.781452	1.083648
H81	H	1.036104	0.177212	-0.000075
H82	H	1.536104	0.677212	0.499925
N83	N	1.322480	0.324917	0.661557
N84	N	1.822480	0.824917	1.161557
N85	N	1.233944	0.299379	0.746539
N86	N	1.733944	0.799379	1.246539
H87	H	1.165824	0.330075	0.801565
H88	H	1.665824	0.830075	1.301565
N89	N	0.812859	0.194244	-0.000062
N90	N	1.312859	0.694244	0.499938
N91	N	0.882428	0.146738	-0.000054
N92	N	1.382428	0.646738	0.499946
H93	H	0.847382	0.096007	-0.000052
H94	H	1.347382	0.596007	0.499948
N95	N	1.582453	0.207721	0.577923
N96	N	2.082453	0.707721	1.077923
N97	N	1.603628	0.198163	0.442038
N98	N	2.103628	0.698163	0.942038
H99	H	1.671722	0.167453	0.386997
H100	H	2.171722	0.667453	0.886997
H101	H	0.827994	0.373857	-0.000087
H102	H	1.327994	0.873857	0.499913
H103	H	1.041206	0.342235	-0.000077
H104	H	1.541206	0.842235	0.499923
H105	H	1.625199	-0.503371	-0.000121
H106	H	2.125199	-0.003371	0.499879
H107	H	1.628576	-0.370826	-0.000073
H108	H	2.128576	0.129174	0.499927
N109	N	1.541525	0.226112	0.338228
N110	N	2.041525	0.726112	0.838228
N111	N	1.516188	0.172049	0.253294
N112	N	2.016188	0.672049	0.753294
H113	H	1.584221	0.141316	0.198171
H114	H	2.084221	0.641316	0.698171
H115	H	1.301206	0.334511	0.406145
H116	H	1.801206	0.834511	0.906145
H117	H	1.639931	0.074639	0.000002
H118	H	2.139931	0.574639	0.500002
H119	H	1.636553	-0.057905	-0.000036
H120	H	2.136553	0.442095	0.499964
H121	H	1.235528	-0.078111	-0.000050
H122	H	1.735528	0.421889	0.499950
N123	N	1.216184	0.060847	-0.000051
N124	N	1.716184	0.560847	0.499949
N125	N	1.116683	0.023253	-0.000065
N126	N	1.616683	0.523253	0.499935
H127	H	1.037615	0.045581	-0.000074
H128	H	1.537615	0.545581	0.499926
N129	N	1.201061	-0.532292	-0.000087
N130	N	1.701061	-0.032292	0.499913
N131	N	1.111279	-0.520665	0.101837
N132	N	1.611279	-0.020665	0.601837
H133	H	1.030869	-0.551032	0.101854
H134	H	1.530869	-0.051032	0.601854
N135	N	1.204828	-0.384620	-0.000098
N136	N	1.704828	0.115380	0.499902
N137	N	1.105326	-0.422215	-0.000103
N138	N	1.605326	0.077785	0.499897
H139	H	1.026257	-0.399887	-0.000107
H140	H	1.526257	0.100113	0.499893
