data_functionalizedCrystal
_audit_creation_method	'MofGen! by Chris Wilmer'
_symmetry_space_group_name_H-M	'P1'
_symmetry_Int_Tables_number	1
_symmetry_cell_setting	triclinic
loop_
_symmetry_equiv_pos_as_xyz
  x,y,z
_cell_length_a	14.044220
_cell_length_b	16.109295
_cell_length_c	14.586319
_cell_angle_alpha	90.005323
_cell_angle_beta	89.986995
_cell_angle_gamma	91.675968
loop_
_atom_site_label
_atom_site_type_symbol
_atom_site_fract_x
_atom_site_fract_y
_atom_site_fract_z
O1	O	0.121820	-1.112202	-0.076180
O2	O	0.371820	-0.862202	0.173820
O3	O	0.621820	-0.612202	0.423820
O4	O	0.871820	-0.362202	0.673820
O5	O	0.136988	-0.871268	-0.076196
O6	O	0.386988	-0.621268	0.173804
O7	O	0.636988	-0.371268	0.423804
O8	O	0.886988	-0.121268	0.673804
O9	O	-0.008579	-0.988118	-0.076179
O10	O	0.241421	-0.738118	0.173821
O11	O	0.491421	-0.488118	0.423821
O12	O	0.741421	-0.238118	0.673821
O13	O	0.267387	-0.995351	-0.076197
O14	O	0.517387	-0.745351	0.173803
O15	O	0.767387	-0.495351	0.423803
O16	O	1.017387	-0.245351	0.673803
O17	O	-0.008604	-0.988098	0.076302
O18	O	0.241396	-0.738098	0.326302
O19	O	0.491396	-0.488098	0.576302
O20	O	0.741396	-0.238098	0.826302
O21	O	0.136963	-0.871248	0.076285
O22	O	0.386963	-0.621248	0.326285
O23	O	0.636963	-0.371248	0.576285
O24	O	0.886963	-0.121248	0.826285
O25	O	0.121796	-1.112182	0.076301
O26	O	0.371796	-0.862182	0.326301
O27	O	0.621796	-0.612182	0.576301
O28	O	0.871796	-0.362182	0.826301
Cu29	Cu	0.129377	-0.991713	0.090216
Cu30	Cu	0.379377	-0.741713	0.340216
Cu31	Cu	0.629377	-0.491713	0.590216
Cu32	Cu	0.879377	-0.241713	0.840216
Cu33	Cu	0.129406	-0.991737	-0.090111
Cu34	Cu	0.379406	-0.741737	0.159889
Cu35	Cu	0.629406	-0.491737	0.409889
Cu36	Cu	0.879406	-0.241737	0.659889
O37	O	0.267363	-0.995331	0.076284
O38	O	0.517363	-0.745331	0.326284
O39	O	0.767363	-0.495331	0.576284
O40	O	1.017363	-0.245331	0.826284
C41	C	0.136362	-0.840237	0.000043
C42	C	0.386362	-0.590237	0.250043
C43	C	0.636362	-0.340237	0.500043
C44	C	0.886362	-0.090237	0.750043
C45	C	0.134523	-0.747805	0.000037
C46	C	0.384523	-0.497805	0.250037
C47	C	0.634523	-0.247805	0.500037
C48	C	0.884523	0.002195	0.750037
C49	C	-0.043905	-0.984942	0.000061
C50	C	0.206095	-0.734942	0.250061
C51	C	0.456095	-0.484942	0.500061
C52	C	0.706095	-0.234942	0.750061
C53	C	-0.149128	-0.975499	0.000062
C54	C	0.100872	-0.725499	0.250062
C55	C	0.350872	-0.475499	0.500062
C56	C	0.600872	-0.225499	0.750062
C57	C	0.216621	-0.531640	0.000041
C58	C	0.466621	-0.281640	0.250041
C59	C	0.716621	-0.031640	0.500041
C60	C	0.966621	0.218360	0.750041
C61	C	0.214886	-0.444790	0.000047
C62	C	0.464886	-0.194790	0.250047
C63	C	0.714886	0.055210	0.500047
C64	C	0.964886	0.305210	0.750047
C65	C	0.042178	-0.451815	0.000054
C66	C	0.292178	-0.201815	0.250054
C67	C	0.542178	0.048185	0.500054
C68	C	0.792178	0.298185	0.750054
C69	C	0.043915	-0.538663	0.000055
C70	C	0.293915	-0.288663	0.250055
C71	C	0.543915	-0.038663	0.500055
C72	C	0.793915	0.211337	0.750055
C73	C	0.131139	-0.578573	0.000044
C74	C	0.381139	-0.328573	0.250044
C75	C	0.631139	-0.078573	0.500044
C76	C	0.881139	0.171427	0.750044
C77	C	0.127667	-0.404875	0.000049
C78	C	0.377667	-0.154875	0.250049
C79	C	0.627667	0.095125	0.500049
C80	C	0.877667	0.345125	0.750049
C81	C	0.125785	-0.310709	0.000055
C82	C	0.375785	-0.060709	0.250055
C83	C	0.625785	0.189291	0.500055
C84	C	0.875785	0.439291	0.750055
C85	C	0.133022	-0.672746	0.000040
C86	C	0.383022	-0.422746	0.250040
C87	C	0.633022	-0.172746	0.500040
C88	C	0.883022	0.077254	0.750040
C89	C	-0.341783	-0.958233	0.000048
C90	C	-0.091783	-0.708233	0.250048
C91	C	0.158217	-0.458233	0.500048
C92	C	0.408217	-0.208233	0.750048
C93	C	-0.399439	-1.025213	0.000049
C94	C	-0.149439	-0.775213	0.250049
C95	C	0.100561	-0.525213	0.500049
C96	C	0.350561	-0.275213	0.750049
C97	C	-0.506639	-1.015606	0.000041
C98	C	-0.256639	-0.765606	0.250041
C99	C	-0.006639	-0.515606	0.500041
C100	C	0.243361	-0.265606	0.750041
C101	C	-0.234573	-0.967839	0.000056
C102	C	0.015427	-0.717839	0.250056
C103	C	0.265427	-0.467839	0.500056
C104	C	0.515427	-0.217839	0.750056
C105	C	0.302689	-0.998507	0.000041
C106	C	0.552689	-0.748507	0.250041
C107	C	0.802689	-0.498507	0.500041
C108	C	1.052689	-0.248507	0.750041
C109	C	0.407911	-1.007951	0.000035
C110	C	0.657911	-0.757951	0.250035
C111	C	0.907911	-0.507951	0.500035
C112	C	1.157911	-0.257951	0.750035
C113	C	0.122427	-0.143212	0.000059
C114	C	0.372427	0.106788	0.250059
C115	C	0.622427	0.356788	0.500059
C116	C	0.872427	0.606788	0.750059
C117	C	0.124284	-0.235644	0.000056
C118	C	0.374284	0.014356	0.250056
C119	C	0.624284	0.264356	0.500056
C120	C	0.874284	0.514356	0.750056
N121	N	0.129356	-0.991703	0.217047
N122	N	0.379356	-0.741703	0.467047
N123	N	0.629356	-0.491703	0.717047
N124	N	0.879356	-0.241703	0.967047
N125	N	0.129420	-0.991753	-0.216942
N126	N	0.379420	-0.741753	0.033058
N127	N	0.629420	-0.491753	0.283058
N128	N	0.879420	-0.241753	0.533058
C129	C	0.071893	-0.937045	0.548077
C130	C	0.321893	-0.687045	0.798077
C131	C	0.571893	-0.437045	1.048077
C132	C	0.821893	-0.187045	1.298077
C133	C	0.071880	-0.937037	0.452095
C134	C	0.321880	-0.687037	0.702095
C135	C	0.571880	-0.437037	0.952095
C136	C	0.821880	-0.187037	1.202095
C137	C	0.186886	-1.046417	0.452035
C138	C	0.436886	-0.796417	0.702035
C139	C	0.686886	-0.546417	0.952035
C140	C	0.936886	-0.296417	1.202035
C141	C	0.186893	-1.046428	0.548014
C142	C	0.436893	-0.796428	0.798014
C143	C	0.686893	-0.546428	1.048014
C144	C	0.936893	-0.296428	1.298014
C145	C	0.129398	-0.991737	0.596033
C146	C	0.379398	-0.741737	0.846033
C147	C	0.629398	-0.491737	1.096033
C148	C	0.879398	-0.241737	1.346033
C149	C	0.129378	-0.991719	0.404072
C150	C	0.379378	-0.741719	0.654072
C151	C	0.629378	-0.491719	0.904072
C152	C	0.879378	-0.241719	1.154072
C153	C	0.129364	-0.991711	0.300005
C154	C	0.379364	-0.741711	0.550005
C155	C	0.629364	-0.491711	0.800005
C156	C	0.879364	-0.241711	1.050005
C157	C	0.129410	-0.991746	0.700107
C158	C	0.379410	-0.741746	0.950107
C159	C	0.629410	-0.491746	1.200107
C160	C	0.879410	-0.241746	1.450107
H161	H	0.284494	-0.406581	0.000047
H162	H	0.534494	-0.156581	0.250047
H163	H	0.784494	0.093419	0.500047
H164	H	1.034494	0.343419	0.750047
H165	H	-0.368289	-1.089770	-0.000008
H166	H	-0.118289	-0.839770	0.249992
H167	H	0.131711	-0.589770	0.499992
H168	H	0.381711	-0.339770	0.749992
H169	H	0.287645	-0.564132	0.000039
H170	H	0.537645	-0.314132	0.250039
H171	H	0.787645	-0.064132	0.500039
H172	H	1.037645	0.185868	0.750039
H173	H	0.233697	-1.090943	0.412927
H174	H	0.483697	-0.840943	0.662927
H175	H	0.733697	-0.590943	0.912927
H176	H	0.983697	-0.340943	1.162927
H177	H	-0.028837	-0.419310	0.000069
H178	H	0.221163	-0.169310	0.250069
H179	H	0.471163	0.080690	0.500069
H180	H	0.721163	0.330690	0.750069
N181	N	-0.043417	-0.586598	0.000067
N182	N	0.206583	-0.336598	0.250067
N183	N	0.456583	-0.086598	0.500067
N184	N	0.706583	0.163402	0.750067
N185	N	-0.121288	-0.550956	0.000073
N186	N	0.128712	-0.300956	0.250073
N187	N	0.378712	-0.050956	0.500073
N188	N	0.628712	0.199044	0.750073
H189	H	-0.182965	-0.584810	0.000085
H190	H	0.067035	-0.334810	0.250085
H191	H	0.317035	-0.084810	0.500085
H192	H	0.567035	0.165190	0.750085
H193	H	-0.372931	-0.893681	0.000041
H194	H	-0.122931	-0.643681	0.250041
H195	H	0.127069	-0.393681	0.500041
H196	H	0.377069	-0.143681	0.750041
H197	H	0.233721	-1.090970	0.587061
H198	H	0.483721	-0.840970	0.837061
H199	H	0.733721	-0.590970	1.087061
H200	H	0.983721	-0.340970	1.337061
H201	H	0.025076	-0.892512	0.587170
H202	H	0.275076	-0.642512	0.837170
H203	H	0.525076	-0.392512	1.087170
H204	H	0.775076	-0.142512	1.337170
H205	H	0.025052	-0.892502	0.413054
H206	H	0.275052	-0.642502	0.663054
H207	H	0.525052	-0.392502	0.913054
H208	H	0.775052	-0.142502	1.163054
