data_functionalizedCrystal
_audit_creation_method	'MofGen! by Chris Wilmer'
_symmetry_space_group_name_H-M	'P1'
_symmetry_Int_Tables_number	1
_symmetry_cell_setting	triclinic
loop_
_symmetry_equiv_pos_as_xyz
  x,y,z
_cell_length_a	11.792241
_cell_length_b	10.540510
_cell_length_c	10.868271
_cell_angle_alpha	90.002654
_cell_angle_beta	90.000107
_cell_angle_gamma	84.353363
loop_
_atom_site_label
_atom_site_type_symbol
_atom_site_fract_x
_atom_site_fract_y
_atom_site_fract_z
O1	O	1.507345	0.173994	0.102196
O2	O	1.177049	0.191926	0.102223
O3	O	1.349750	-0.001773	0.102208
O4	O	1.334644	0.367694	0.102211
O5	O	1.349735	-0.001781	-0.102436
O6	O	1.177034	0.191918	-0.102421
O7	O	1.507330	0.173987	-0.102449
Zn8	Zn	1.342180	0.182951	-0.134927
Zn9	Zn	1.342199	0.182961	0.134701
O10	O	1.334629	0.367686	-0.102434
C11	C	1.134748	0.190796	-0.000095
C12	C	1.008726	0.187424	-0.000084
C13	C	0.777998	0.181225	-0.000120
C14	C	0.906392	0.184670	-0.000100
C15	C	1.348617	-0.049077	-0.000111
C16	C	1.345249	-0.190016	-0.000104
C17	C	1.465224	-0.407862	-0.000582
C18	C	1.468816	-0.261278	-0.000115
C19	C	1.282003	-0.234564	0.116761
C20	C	1.279285	-0.381316	0.116853
C21	C	1.276696	-0.381125	-0.115866
C22	C	1.282557	-0.234803	-0.117405
C23	C	1.549631	0.175117	-0.000128
C24	C	1.675654	0.178488	-0.000131
C25	C	1.335762	0.414990	-0.000112
C26	C	1.339130	0.555929	-0.000111
N27	N	1.342175	0.182944	-0.318941
C28	C	1.342193	0.182959	-0.569947
C29	C	1.342180	0.182954	-0.430270
N30	N	1.342213	0.182959	0.318715
H31	H	1.513359	-0.449977	-0.084393
H32	H	1.513093	-0.451521	0.082745
N33	N	1.153811	-0.410081	-0.116904
H34	H	1.138195	-0.458254	-0.194433
H35	H	1.102378	-0.327648	-0.114121
H36	H	1.192342	-0.185443	-0.124454
H37	H	1.325937	-0.203848	0.203724
N38	N	1.534334	-0.222609	-0.111097
H39	H	1.561140	-0.300851	-0.160762
H40	H	1.602371	-0.178995	-0.083124
N41	N	1.328419	-0.437494	-0.233208
H42	H	1.268355	-0.477835	-0.281754
H43	H	1.392861	-0.504369	-0.212418
H44	H	1.518602	-0.233032	0.083795
N45	N	1.343501	-0.197103	-0.231933
H46	H	1.411437	-0.151201	-0.207948
H47	H	1.289675	-0.138904	-0.283771
H48	H	1.186864	-0.404010	0.122155
N49	N	1.336569	-0.434784	0.232544
H50	H	1.363344	-0.362989	0.283003
H51	H	1.404062	-0.496834	0.209773
N52	N	1.161503	-0.171412	0.122538
H53	H	1.146717	-0.113175	0.049281
H54	H	1.150902	-0.120043	0.200860
