data_functionalizedCrystal
_audit_creation_method	'MofGen! by Chris Wilmer'
_symmetry_space_group_name_H-M	'P1'
_symmetry_Int_Tables_number	1
_symmetry_cell_setting	triclinic
loop_
_symmetry_equiv_pos_as_xyz
  x,y,z
_cell_length_a	14.971486
_cell_length_b	14.048226
_cell_length_c	14.971486
_cell_angle_alpha	89.993360
_cell_angle_beta	96.385871
_cell_angle_gamma	90.001501
loop_
_atom_site_label
_atom_site_type_symbol
_atom_site_fract_x
_atom_site_fract_y
_atom_site_fract_z
O1	O	1.186947	0.079052	-0.116565
O2	O	1.686947	0.579052	0.383435
O3	O	0.926547	0.079078	-0.130523
O4	O	1.426547	0.579078	0.369477
O5	O	1.063726	0.079057	0.006656
O6	O	1.563726	0.579057	0.506656
O7	O	1.049768	0.079072	-0.253744
O8	O	1.549768	0.579072	0.246256
O9	O	1.063710	-0.079264	0.006664
O10	O	1.563710	0.420736	0.506664
O11	O	0.926530	-0.079244	-0.130515
O12	O	1.426530	0.420756	0.369485
O13	O	1.186930	-0.079270	-0.116556
O14	O	1.686930	0.420730	0.383444
Zn15	Zn	1.056728	-0.104394	-0.123535
Zn16	Zn	1.556728	0.395606	0.376465
Zn17	Zn	1.056750	0.104202	-0.123545
Zn18	Zn	1.556750	0.604202	0.376455
O19	O	1.049751	-0.079249	-0.253736
O20	O	1.549751	0.420751	0.246264
C21	C	0.893214	-0.000080	-0.129895
C22	C	1.393214	0.499920	0.370105
C23	C	0.793917	-0.000070	-0.128024
C24	C	1.293917	0.499930	0.371976
N25	N	1.056719	-0.246754	-0.123527
N26	N	1.556719	0.253246	0.376473
C27	C	0.736692	-0.000067	-0.208614
C28	C	1.236692	0.499933	0.291386
C29	C	0.643392	-0.000081	-0.206850
C30	C	1.143392	0.499919	0.293150
C31	C	0.607320	-0.000092	-0.124497
C32	C	1.107320	0.499908	0.375503
C33	C	0.664552	-0.000098	-0.043902
C34	C	1.164552	0.499902	0.456098
C35	C	0.757850	-0.000090	-0.045666
C36	C	1.257850	0.499910	0.454334
C37	C	0.470090	-0.000111	-0.040231
C38	C	0.970090	0.499889	0.459769
C39	C	0.376786	-0.000117	-0.038466
C40	C	0.876786	0.499883	0.461534
C41	C	0.355632	-0.000102	-0.201415
C42	C	0.855632	0.499898	0.298585
C43	C	0.448930	-0.000094	-0.203179
C44	C	0.948930	0.499906	0.296821
C45	C	0.506156	-0.000099	-0.122584
C46	C	1.006156	0.499901	0.377416
C47	C	1.117482	-0.296581	-0.062809
C48	C	1.617482	0.203419	0.437191
C49	C	1.117488	-0.396239	-0.062808
C50	C	1.617488	0.103761	0.437192
C51	C	1.056735	-0.446068	-0.123531
C52	C	1.556735	0.053932	0.376469
C53	C	0.995966	-0.396234	-0.184252
C54	C	1.495966	0.103766	0.315748
C55	C	0.995957	-0.296578	-0.184247
C56	C	1.495957	0.203422	0.315753
C57	C	0.995992	-0.603948	-0.184258
C58	C	1.495992	-0.103948	0.315742
C59	C	0.996003	-0.703611	-0.184264
C60	C	1.496003	-0.203611	0.315736
C61	C	1.117523	-0.703609	-0.062819
C62	C	1.617523	-0.203609	0.437181
C63	C	1.117514	-0.603953	-0.062815
C64	C	1.617514	-0.103953	0.437185
C65	C	1.056746	-0.554126	-0.123537
C66	C	1.556746	-0.054126	0.376463
C67	C	1.220263	-0.000110	-0.117185
C68	C	1.720263	0.499890	0.382815
C69	C	1.319561	-0.000114	-0.119056
C70	C	1.819561	0.499886	0.380944
C71	C	1.063094	-0.000103	0.039985
C72	C	1.563094	0.499897	0.539985
C73	C	1.061223	-0.000102	0.139282
C74	C	1.561223	0.499898	0.639282
N75	N	1.056765	0.246562	-0.123546
N76	N	1.556765	0.746562	0.376454
C77	C	1.050384	-0.000087	-0.287065
C78	C	1.550384	0.499913	0.212935
C79	C	1.052254	-0.000082	-0.386362
C80	C	1.552254	0.499918	0.113638
C81	C	1.141812	-0.000111	0.196507
C82	C	1.641812	0.499889	0.696507
C83	C	1.140049	-0.000101	0.289807
C84	C	1.640049	0.499899	0.789807
C85	C	1.057696	-0.000089	0.325879
C86	C	1.557696	0.499911	0.825879
C87	C	0.977101	-0.000078	0.268646
C88	C	1.477101	0.499922	0.768646
C89	C	0.978865	-0.000081	0.175349
C90	C	1.478865	0.499919	0.675349
C91	C	0.973430	-0.000074	0.463109
C92	C	1.473430	0.499926	0.963109
C93	C	0.971665	-0.000073	0.556413
C94	C	1.471665	0.499927	1.056413
C95	C	1.134614	-0.000094	0.577567
C96	C	1.634614	0.499906	1.077567
C97	C	1.136378	-0.000097	0.484269
C98	C	1.636378	0.499903	0.984269
C99	C	1.055782	-0.000088	0.427043
C100	C	1.555782	0.499912	0.927043
H101	H	0.766054	-0.000057	-0.275675
H102	H	1.266054	0.499943	0.224325
H103	H	0.946506	-0.563382	-0.233702
H104	H	1.446506	-0.063382	0.266298
H105	H	1.205673	-0.000110	0.336396
H106	H	1.705673	0.499890	0.836396
H107	H	1.166964	-0.436808	-0.013367
H108	H	1.666964	0.063192	0.486633
H109	H	1.200238	-0.000099	0.624165
H110	H	1.700238	0.499901	1.124165
H111	H	0.635175	-0.000120	0.023152
H112	H	1.135175	0.499880	0.523152
H113	H	0.478296	-0.000077	-0.270239
H114	H	0.978296	0.499923	0.229761
H115	H	0.596802	-0.000077	-0.272474
H116	H	1.096802	0.499923	0.227526
H117	H	1.208874	-0.000126	0.167145
H118	H	1.708874	0.499874	0.667145
H119	H	0.946477	-0.256010	-0.233689
H120	H	1.446477	0.243990	0.266311
H121	H	0.904606	-0.000079	0.585780
H122	H	1.404606	0.499921	1.085780
H123	H	0.804443	-0.000093	0.019958
H124	H	1.304443	0.499907	0.519958
H125	H	0.347419	-0.000127	0.028593
H126	H	0.847419	0.499873	0.528593
H127	H	0.910047	-0.000062	0.298024
H128	H	1.410047	0.499938	0.798024
H129	H	0.516682	-0.000116	0.025399
H130	H	1.016682	0.499884	0.525399
H131	H	1.166957	-0.256017	-0.013365
H132	H	1.666957	0.243983	0.486635
H133	H	1.166987	-0.563383	-0.013375
H134	H	1.666987	-0.063383	0.486625
H135	H	0.309033	-0.000103	-0.267039
H136	H	0.809033	0.499897	0.232961
H137	H	0.913240	-0.000074	0.128756
H138	H	1.413240	0.499926	0.628756
H139	H	1.167002	-0.744184	-0.013377
H140	H	1.667002	-0.244184	0.486623
H141	H	0.946496	-0.436810	-0.233690
H142	H	1.446496	0.063190	0.266310
H143	H	0.946531	-0.744176	-0.233710
H144	H	1.446531	-0.244176	0.266290
H145	H	1.203437	-0.000114	0.454903
H146	H	1.703437	0.499886	0.954903
H147	H	0.907800	-0.000064	0.416517
H148	H	1.407800	0.499936	0.916517
