data_functionalizedCrystal
_audit_creation_method	'MofGen! by Chris Wilmer'
_symmetry_space_group_name_H-M	'P1'
_symmetry_Int_Tables_number	1
_symmetry_cell_setting	triclinic
loop_
_symmetry_equiv_pos_as_xyz
  x,y,z
_cell_length_a	19.805407
_cell_length_b	18.050589
_cell_length_c	19.805399
_cell_angle_alpha	90.022294
_cell_angle_beta	90.017803
_cell_angle_gamma	90.025537
loop_
_atom_site_label
_atom_site_type_symbol
_atom_site_fract_x
_atom_site_fract_y
_atom_site_fract_z
Zn1	Zn	1.034727	-0.295730	0.382713
Zn2	Zn	1.034638	-0.419922	0.269535
Zn3	Zn	0.921542	-0.295745	0.269541
Zn4	Zn	0.921502	-0.419877	0.382685
O5	O	0.978102	-0.357818	0.326118
O6	O	1.129432	-0.312217	0.367708
O7	O	1.019616	-0.403475	0.174819
O8	O	0.936610	-0.191818	0.284567
O9	O	1.129367	-0.403460	0.284557
O10	O	1.019767	-0.191807	0.367714
O11	O	0.936524	-0.312242	0.174823
O12	O	0.826820	-0.312198	0.284540
O13	O	0.936542	-0.403383	0.477405
O14	O	0.826790	-0.403397	0.367667
O15	O	1.019728	-0.312173	0.477425
O16	O	1.019577	-0.523841	0.284530
O17	O	0.936456	-0.523807	0.367661
C18	C	0.802246	-0.357795	0.326102
C19	C	0.727014	-0.357803	0.326111
C20	C	0.691705	-0.310377	0.369473
C21	C	0.621016	-0.310380	0.369476
C22	C	0.585639	-0.357815	0.326119
C23	C	0.620953	-0.405244	0.282751
C24	C	0.691640	-0.405235	0.282746
C25	C	0.335880	-0.405277	0.282772
C26	C	0.265188	-0.405283	0.282783
C27	C	0.265256	-0.310422	0.369502
C28	C	0.335943	-0.310414	0.369497
C29	C	0.371251	-0.357839	0.326127
C30	C	0.447900	-0.357833	0.326124
C31	C	0.508992	-0.357825	0.326125
C32	C	0.978021	-0.550770	0.326107
C33	C	0.978048	-0.633316	0.326125
C34	C	0.932891	-0.832776	0.371316
C35	C	0.916392	-0.882214	0.309553
C36	C	0.978114	-0.784447	0.326134
C37	C	0.994646	-0.882090	0.387903
C38	C	0.978177	-0.930432	0.326148
C39	C	0.961583	-0.832797	0.264338
C40	C	1.039865	-0.832670	0.342730
C41	C	1.023390	-0.882085	0.280925
C42	C	0.978076	-0.700348	0.326126
C43	C	0.978215	-1.014528	0.326148
C44	C	1.154645	-0.357842	0.326135
C45	C	1.229877	-0.357852	0.326142
C46	C	0.978140	-0.357772	0.502661
C47	C	0.978156	-0.357752	0.577893
C48	C	0.978203	-0.164113	0.326144
C49	C	0.978246	-0.081567	0.326155
C50	C	0.978103	-0.357811	0.150262
C51	C	0.978218	-0.357622	0.075031
C52	C	1.021472	-0.310256	0.613249
C53	C	1.021479	-0.310235	0.683937
C54	C	0.978173	-0.357713	0.719269
C55	C	0.934852	-0.405210	0.683908
C56	C	0.934843	-0.405228	0.613221
C57	C	0.934891	-0.405141	0.968981
C58	C	0.934905	-0.405122	1.039674
C59	C	1.021527	-0.310148	1.039698
C60	C	1.021518	-0.310165	0.969011
C61	C	0.978195	-0.357660	0.933656
C62	C	0.978187	-0.357682	0.857008
C63	C	0.978184	-0.357695	0.795916
H64	H	0.592143	-0.443862	0.247446
H65	H	0.899563	-0.443896	0.584435
H66	H	0.720389	-0.443854	0.247435
C67	C	1.110353	-0.803244	0.361712
H68	H	1.127683	-0.774296	0.325602
H69	H	1.107089	-0.773521	0.401167
H70	H	1.139781	-0.843765	0.370072
C71	C	0.942644	-0.803677	0.193757
H72	H	0.934785	-0.844331	0.164300
H73	H	0.902908	-0.774420	0.196838
H74	H	0.978565	-0.774324	0.176583
H75	H	0.894591	-0.811124	0.409470
C76	C	0.374855	-0.258234	0.417187
H77	H	0.343701	-0.229983	0.443009
H78	H	0.402435	-0.286679	0.446632
H79	H	0.402427	-0.225834	0.391336
H80	H	1.061661	-0.903600	0.242678
H81	H	1.008603	-0.903743	0.440136
C82	C	1.069107	-0.258026	0.574390
H83	H	1.094899	-0.229731	0.605574
H84	H	1.098581	-0.286440	0.546814
H85	H	1.043221	-0.225669	0.546819
C86	C	0.887267	-0.457348	1.078540
H87	H	0.893485	-0.450540	1.125702
H88	H	0.841793	-0.446476	1.066955
H89	H	0.897147	-0.507254	1.066949
H90	H	1.056753	-0.271561	0.712721
H91	H	0.592270	-0.271763	0.404788
C92	C	0.730614	-0.258198	0.417167
H93	H	0.699458	-0.229948	0.442988
H94	H	0.758192	-0.286643	0.446613
H95	H	0.758188	-0.225796	0.391319
C96	C	0.845886	-0.911616	0.290591
H97	H	0.813782	-0.894738	0.322732
H98	H	0.833852	-0.894013	0.247026
H99	H	0.846523	-0.964240	0.290334
C100	C	0.226415	-0.258247	0.417203
H101	H	0.179249	-0.265037	0.410993
H102	H	0.238013	-0.269181	0.462661
H103	H	0.238014	-0.208331	0.407370
C104	C	1.069152	-0.257937	0.930150
H105	H	1.094946	-0.229641	0.961331
H106	H	1.098624	-0.286353	0.902573
H107	H	1.043265	-0.225581	0.902578
C108	C	1.069178	-0.257899	1.078590
H109	H	1.062979	-0.264681	1.125749
H110	H	1.114647	-0.268780	1.067011
H111	H	1.059295	-0.208000	1.067009
H112	H	0.899624	-0.443825	0.940204
C113	C	0.887215	-0.457437	0.722767
H114	H	0.861412	-0.485721	0.691585
H115	H	0.913093	-0.489792	0.750341
H116	H	0.857740	-0.429013	0.750342
C117	C	0.226273	-0.457458	0.235083
H118	H	0.257425	-0.485697	0.209247
H119	H	0.198698	-0.489859	0.260924
H120	H	0.198696	-0.429000	0.205640
H121	H	0.364619	-0.443894	0.247459
