data_functionalizedCrystal
_audit_creation_method	'MofGen! by Chris Wilmer'
_symmetry_space_group_name_H-M	'P1'
_symmetry_Int_Tables_number	1
_symmetry_cell_setting	triclinic
loop_
_symmetry_equiv_pos_as_xyz
  x,y,z
_cell_length_a	23.532407
_cell_length_b	16.109301
_cell_length_c	14.586319
_cell_angle_alpha	89.998390
_cell_angle_beta	90.000590
_cell_angle_gamma	83.155075
loop_
_atom_site_label
_atom_site_type_symbol
_atom_site_fract_x
_atom_site_fract_y
_atom_site_fract_z
O1	O	-0.755633	-0.100920	0.076106
O2	O	-0.422300	0.232414	0.409439
O3	O	-0.088967	0.565747	0.742773
O4	O	-0.589824	-0.115523	0.076138
O5	O	-0.256491	0.217811	0.409472
O6	O	0.076843	0.551144	0.742805
O7	O	-0.677284	0.012846	0.076112
O8	O	-0.343950	0.346179	0.409445
O9	O	-0.010617	0.679512	0.742779
O10	O	-0.668174	-0.229288	0.076132
O11	O	-0.334840	0.104045	0.409466
O12	O	-0.001507	0.437379	0.742799
O13	O	-0.677273	0.012838	-0.076369
O14	O	-0.343940	0.346171	0.256964
O15	O	-0.010606	0.679505	0.590298
O16	O	-0.589813	-0.115530	-0.076343
O17	O	-0.256480	0.217803	0.256991
O18	O	0.076853	0.551136	0.590324
O19	O	-0.755623	-0.100927	-0.076375
O20	O	-0.422289	0.232406	0.256958
O21	O	-0.088956	0.565739	0.590292
Cu22	Cu	-0.672717	-0.108230	-0.090281
Cu23	Cu	-0.339384	0.225104	0.243052
Cu24	Cu	-0.006050	0.558437	0.576385
Cu25	Cu	-0.672730	-0.108221	0.090045
Cu26	Cu	-0.339396	0.225113	0.423378
Cu27	Cu	-0.006063	0.558446	0.756711
O28	O	-0.668163	-0.229296	-0.076348
O29	O	-0.334830	0.104038	0.256985
O30	O	-0.001496	0.437371	0.590318
C31	C	-0.568601	-0.115155	-0.000098
C32	C	-0.235268	0.218179	0.333235
C33	C	0.098065	0.551512	0.666569
C34	C	-0.505380	-0.114037	-0.000086
C35	C	-0.172047	0.219297	0.333247
C36	C	0.161287	0.552630	0.666581
C37	C	-0.106531	-0.182990	-0.000110
C38	C	0.226802	0.150343	0.333224
C39	C	0.560135	0.483677	0.666557
C40	C	-0.047127	-0.181951	-0.000114
C41	C	0.286206	0.151382	0.333220
C42	C	0.619539	0.484715	0.666553
O43	O	-0.010619	-0.245872	-0.000140
O44	O	0.322715	0.087462	0.333193
O45	O	0.656048	0.420795	0.666526
N46	N	-0.024220	-0.105636	-0.000118
N47	N	0.309114	0.227697	0.333216
N48	N	0.642447	0.561030	0.666549
C49	C	-0.060719	-0.030355	-0.000127
C50	C	0.272614	0.302978	0.333206
C51	C	0.605947	0.636311	0.666539
O52	O	-0.035780	0.034652	-0.000132
O53	O	0.297553	0.367985	0.333201
O54	O	0.630887	0.701319	0.666535
C55	C	-0.120122	-0.031395	-0.000130
C56	C	0.213211	0.301939	0.333203
C57	C	0.546544	0.635272	0.666537
C58	C	-0.143027	-0.107715	-0.000117
C59	C	0.190307	0.225619	0.333217
C60	C	0.523640	0.558952	0.666550
C61	C	-0.129436	-0.259304	-0.000097
C62	C	0.203897	0.074030	0.333236
C63	C	0.537231	0.407363	0.666569
C64	C	-0.188836	-0.260342	-0.000092
C65	C	0.144497	0.072991	0.333242
C66	C	0.477831	0.406325	0.666575
C67	C	-0.225331	-0.185066	-0.000099
C68	C	0.108002	0.148267	0.333235
C69	C	0.441335	0.481600	0.666568
C70	C	-0.202427	-0.108753	-0.000111
C71	C	0.130907	0.224581	0.333222
C72	C	0.464240	0.557914	0.666556
C73	C	-0.156621	0.043886	-0.000146
C74	C	0.176712	0.377219	0.333187
C75	C	0.510046	0.710552	0.666521
C76	C	-0.216027	0.042840	-0.000150
C77	C	0.117306	0.376173	0.333184
C78	C	0.450639	0.709506	0.666517
C79	C	-0.238932	-0.033480	-0.000136
C80	C	0.094402	0.299853	0.333197
C81	C	0.427735	0.633186	0.666531
C82	C	-0.298322	-0.034516	-0.000112
C83	C	0.035012	0.298818	0.333221
C84	C	0.368345	0.632151	0.666554
N85	N	-0.321229	-0.110831	-0.000108
N86	N	0.012104	0.222503	0.333225
N87	N	0.345437	0.555836	0.666559
C88	C	-0.284734	-0.186106	-0.000101
C89	C	0.048599	0.147227	0.333232
C90	C	0.381932	0.480561	0.666565
C91	C	0.064031	-0.028178	-0.000123
C92	C	0.397365	0.305155	0.333210
C93	C	0.730698	0.638489	0.666543
C94	C	0.123433	-0.027138	-0.000114
C95	C	0.456766	0.306196	0.333219
C96	C	0.790100	0.639529	0.666553
C97	C	0.137021	-0.178734	-0.000102
C98	C	0.470354	0.154599	0.333231
C99	C	0.803688	0.487932	0.666565
C100	C	0.077618	-0.179774	-0.000105
C101	C	0.410951	0.153560	0.333229
C102	C	0.744285	0.486893	0.666562
C103	C	0.041123	-0.104493	-0.000119
C104	C	0.374457	0.228840	0.333214
C105	C	0.707790	0.562174	0.666547
C106	C	-0.409479	-0.188281	-0.000089
C107	C	-0.076146	0.145053	0.333245
C108	C	0.257188	0.478386	0.666578
C109	C	-0.468885	-0.189312	-0.000079
C110	C	-0.135552	0.144021	0.333254
C111	C	0.197782	0.477354	0.666587
C112	C	-0.482468	-0.037716	-0.000096
C113	C	-0.149134	0.295617	0.333237
C114	C	0.184199	0.628951	0.666571
C115	C	-0.423067	-0.036684	-0.000101
C116	C	-0.089734	0.296649	0.333233
C117	C	0.243600	0.629983	0.666566
C118	C	-0.386574	-0.111973	-0.000100
C119	C	-0.053240	0.221360	0.333233
C120	C	0.280093	0.554694	0.666567
O121	O	-0.334865	0.029371	-0.000089
O122	O	-0.001532	0.362704	0.333244
O123	O	0.331802	0.696038	0.666578
O124	O	-0.309682	-0.251102	-0.000109
O125	O	0.023651	0.082231	0.333225
O126	O	0.356985	0.415564	0.666558
C127	C	0.223154	-0.101295	-0.000129
C128	C	0.556488	0.232038	0.333204
C129	C	0.889821	0.565371	0.666538
C130	C	0.159933	-0.102414	-0.000112
C131	C	0.493267	0.230920	0.333221
C132	C	0.826600	0.564253	0.666555
C133	C	-0.676909	0.043814	-0.000129
C134	C	-0.343576	0.377147	0.333204
C135	C	-0.010243	0.710480	0.666538
C136	C	-0.675803	0.136100	-0.000130
C137	C	-0.342470	0.469434	0.333203
C138	C	-0.009136	0.802767	0.666537
C139	C	-0.668537	-0.260264	-0.000106
C140	C	-0.335204	0.073069	0.333228
C141	C	-0.001871	0.406403	0.666561
C142	C	-0.669644	-0.352550	-0.000099
C143	C	-0.336310	-0.019217	0.333235
C144	C	-0.002977	0.314116	0.666568
N145	N	-0.672712	-0.108235	-0.217113
N146	N	-0.339379	0.225098	0.116220
N147	N	-0.006046	0.558431	0.449554
C148	C	-0.725127	0.358761	-0.000125
C149	C	-0.391794	0.692094	0.333208
C150	C	-0.058461	1.025427	0.666542
C151	C	-0.724083	0.445473	-0.000117
C152	C	-0.390750	0.778806	0.333216
C153	C	-0.057417	1.112139	0.666549
C154	C	-0.620315	0.424782	-0.000101
C155	C	-0.286982	0.758116	0.333233
C156	C	0.046351	1.091449	0.666566
C157	C	-0.621360	0.338072	-0.000102
C158	C	-0.288027	0.671405	0.333231
C159	C	0.045307	1.004739	0.666565
C160	C	-0.673768	0.305064	-0.000119
C161	C	-0.340434	0.638397	0.333215
C162	C	-0.007101	0.971730	0.666548
C163	C	-0.671679	0.478486	-0.000110
C164	C	-0.338346	0.811820	0.333224
C165	C	-0.005012	1.145153	0.666557
C166	C	-0.670547	0.572503	-0.000101
C167	C	-0.337213	0.905837	0.333232
C168	C	-0.003880	1.239170	0.666565
C169	C	-0.674900	0.211040	-0.000125
C170	C	-0.341567	0.544374	0.333208
C171	C	-0.008234	0.877707	0.666541
C172	C	-0.707251	-0.158392	-0.452122
C173	C	-0.373918	0.174941	-0.118789
C174	C	-0.040585	0.508274	0.214545
C175	C	-0.707257	-0.158387	-0.548103
C176	C	-0.373924	0.174947	-0.214770
C177	C	-0.040591	0.508280	0.118563
C178	C	-0.638198	-0.058045	-0.548108
C179	C	-0.304865	0.275288	-0.214774
C180	C	0.028468	0.608621	0.118559
C181	C	-0.638196	-0.058047	-0.452128
C182	C	-0.304863	0.275286	-0.118795
C183	C	0.028471	0.608619	0.214538
C184	C	-0.672721	-0.108226	-0.404138
C185	C	-0.339388	0.225108	-0.070805
C186	C	-0.006055	0.558441	0.262529
C187	C	-0.672730	-0.108218	-0.596099
C188	C	-0.339396	0.225115	-0.262765
C189	C	-0.006063	0.558449	0.070568
C190	C	-0.672736	-0.108211	-0.700166
C191	C	-0.339403	0.225122	-0.366832
C192	C	-0.006069	0.558455	-0.033499
C193	C	-0.672716	-0.108231	-0.300064
C194	C	-0.339383	0.225102	0.033269
C195	C	-0.006049	0.558435	0.366603
N196	N	-0.672739	-0.108208	0.216877
N197	N	-0.339406	0.225125	0.550210
N198	N	-0.006072	0.558459	0.883543
H199	H	-0.379772	-0.249588	-0.000091
H200	H	-0.046439	0.083745	0.333242
H201	H	0.286894	0.417078	0.666576
F202	F	-0.778748	0.502618	-0.000122
F203	F	-0.445414	0.835951	0.333211
F204	F	-0.112081	1.169285	0.666544
H205	H	-0.207479	-0.322489	-0.000080
H206	H	0.125855	0.010844	0.333253
H207	H	0.459188	0.344177	0.666586
F208	F	-0.601442	-0.004651	-0.401057
F209	F	-0.268108	0.328682	-0.067724
F210	F	0.065225	0.662015	0.265610
H211	H	0.166747	-0.240028	-0.000101
H212	H	0.500080	0.093306	0.333232
H213	H	0.833413	0.426639	0.666566
H214	H	-0.245739	0.104144	-0.000162
H215	H	0.087594	0.437477	0.333171
H216	H	0.420928	0.770811	0.666505
H217	H	-0.099727	-0.320606	-0.000095
H218	H	0.233606	0.012728	0.333238
H219	H	0.566940	0.346061	0.666572
F220	F	-0.493257	-0.270546	-0.000062
F221	F	-0.159924	0.062788	0.333272
F222	F	0.173410	0.396121	0.666605
F223	F	-0.564543	0.459920	-0.000082
F224	F	-0.231209	0.793253	0.333251
F225	F	0.102124	1.126587	0.666584
H226	H	-0.735376	-0.199236	-0.587168
H227	H	-0.402042	0.134097	-0.253835
H228	H	-0.068709	0.467430	0.079499
F229	F	-0.744000	-0.211792	-0.401050
F230	F	-0.410666	0.121542	-0.067717
F231	F	-0.077333	0.454875	0.265616
H232	H	-0.610088	-0.017193	-0.587193
H233	H	-0.276755	0.316140	-0.253860
H234	H	0.056578	0.649474	0.079474
H235	H	-0.579534	0.294349	-0.000094
H236	H	-0.246201	0.627682	0.333239
H237	H	0.087133	0.961016	0.666573
F238	F	0.053247	-0.261003	-0.000092
F239	F	0.386581	0.072331	0.333241
F240	F	0.719914	0.405664	0.666574
H241	H	-0.767801	0.331888	-0.000137
H242	H	-0.434468	0.665222	0.333196
H243	H	-0.101134	0.998555	0.666530
H244	H	-0.404418	0.025462	-0.000098
H245	H	-0.071084	0.358795	0.333235
H246	H	0.262249	0.692128	0.666568
F247	F	-0.132258	0.125117	-0.000148
F248	F	0.201075	0.458450	0.333186
F249	F	0.534409	0.791784	0.666519
H250	H	0.142076	0.035010	-0.000111
H251	H	0.475409	0.368343	0.333223
H252	H	0.808743	0.701676	0.666556
F253	F	-0.521319	0.042393	-0.000105
F254	F	-0.187985	0.375726	0.333229
F255	F	0.145348	0.709060	0.666562
F256	F	0.025195	0.051952	-0.000130
F257	F	0.358528	0.385285	0.333203
F258	F	0.691862	0.718618	0.666537
