data_functionalizedCrystal
_audit_creation_method	'MofGen! by Chris Wilmer'
_symmetry_space_group_name_H-M	'P1'
_symmetry_Int_Tables_number	1
_symmetry_cell_setting	triclinic
loop_
_symmetry_equiv_pos_as_xyz
  x,y,z
_cell_length_a	18.050589
_cell_length_b	21.295419
_cell_length_c	18.050582
_cell_angle_alpha	90.015656
_cell_angle_beta	89.981795
_cell_angle_gamma	89.955220
loop_
_atom_site_label
_atom_site_type_symbol
_atom_site_fract_x
_atom_site_fract_y
_atom_site_fract_z
Zn1	Zn	-0.295379	-0.962306	-0.419950
Zn2	Zn	-0.419562	-0.962230	-0.295769
Zn3	Zn	-0.295426	-0.857047	-0.295772
Zn4	Zn	-0.419567	-0.857003	-0.419916
O5	O	-0.357483	-0.909646	-0.357852
O6	O	-0.311830	-1.050385	-0.403490
O7	O	-0.403113	-0.948264	-0.191845
O8	O	-0.191495	-0.871060	-0.312260
O9	O	-0.403067	-1.050329	-0.312255
O10	O	-0.191460	-0.948393	-0.403493
O11	O	-0.311911	-0.870986	-0.191847
O12	O	-0.311916	-0.768951	-0.312227
O13	O	-0.403076	-0.870984	-0.523845
O14	O	-0.403122	-0.768919	-0.403435
O15	O	-0.311835	-0.948350	-0.523870
O16	O	-0.523487	-0.948221	-0.312222
O17	O	-0.523491	-0.870911	-0.403432
C18	C	-0.357525	-0.746095	-0.357828
C19	C	-0.357561	-0.676126	-0.357836
C20	C	-0.550436	-0.909570	-0.357839
C21	C	-0.632981	-0.909595	-0.357859
C22	C	-0.310132	-0.643311	-0.405415
C23	C	-0.310115	-0.577569	-0.405417
C24	C	-0.357539	-0.544644	-0.357848
C25	C	-0.404970	-0.577467	-0.310259
C26	C	-0.404981	-0.643208	-0.310254
N27	N	-0.422521	-0.441372	-0.352052
N28	N	-0.422509	-0.378920	-0.352061
C29	C	-0.357507	-0.346569	-0.357861
N30	N	-0.292518	-0.379029	-0.363665
N31	N	-0.292531	-0.441486	-0.363659
C32	C	-0.357532	-0.473359	-0.357848
C33	C	-0.310056	-0.242469	-0.405444
C34	C	-0.310037	-0.176725	-0.405441
C35	C	-0.404899	-0.176624	-0.310287
C36	C	-0.404912	-0.242367	-0.310287
C37	C	-0.357491	-0.275285	-0.357869
C38	C	-0.832461	-0.867595	-0.407442
C39	C	-0.881900	-0.852255	-0.339674
C40	C	-0.784112	-0.909657	-0.357869
C41	C	-0.881754	-0.925028	-0.425644
C42	C	-0.930097	-0.909716	-0.357884
C43	C	-0.832464	-0.894287	-0.290065
C44	C	-0.832313	-0.967087	-0.376081
C45	C	-0.881730	-0.951768	-0.308267
C46	C	-0.700013	-0.909622	-0.357861
C47	C	-1.014193	-0.909751	-0.357884
C48	C	-0.163778	-0.909740	-0.357880
C49	C	-0.081232	-0.909779	-0.357893
C50	C	-0.357450	-0.909671	-0.551557
C51	C	-0.357436	-0.909681	-0.634103
C52	C	-0.357451	-0.073836	-0.357872
C53	C	-0.357461	-0.143805	-0.357870
C54	C	-0.406985	-0.867642	-0.833541
C55	C	-0.425119	-0.925073	-0.882934
C56	C	-0.357380	-0.909712	-0.785234
C57	C	-0.339225	-0.852313	-0.882922
C58	C	-0.357326	-0.909737	-0.931219
C59	C	-0.375549	-0.967174	-0.833540
C60	C	-0.289623	-0.894375	-0.833523
C61	C	-0.307732	-0.951845	-0.882895
C62	C	-0.357412	-0.909697	-0.701135
C63	C	-0.357294	-0.909759	-1.015316
C64	C	-0.357463	-0.909658	-0.164900
C65	C	-0.357267	-0.909769	-0.082354
H66	H	-0.271489	-0.550845	-0.444160
N67	N	-0.803912	-0.877025	-0.214127
H68	H	-0.747960	-0.877091	-0.214595
H69	H	-0.822442	-0.833818	-0.200309
N70	N	-0.462624	-0.820565	-0.804826
H71	H	-0.461916	-0.820607	-0.748877
H72	H	-0.449426	-0.777327	-0.823612
N73	N	-0.910209	-0.998922	-0.252688
H74	H	-0.892182	-0.987253	-0.201544
H75	H	-0.966157	-0.998929	-0.253363
N76	N	-0.213781	-0.877147	-0.804739
H77	H	-0.193553	-0.912849	-0.773953
H78	H	-0.179484	-0.868911	-0.847868
H79	H	-0.443513	-0.149818	-0.271555
N80	N	-0.318903	-0.788000	-0.911645
H81	H	-0.272303	-0.791024	-0.942429
H82	H	-0.360665	-0.771226	-0.943189
N83	N	-0.910436	-0.942226	-0.501554
H84	H	-0.966384	-0.942521	-0.500881
H85	H	-0.892462	-0.910389	-0.538909
H86	H	-0.271518	-0.670109	-0.444160
N87	N	-0.500986	-0.942283	-0.911685
H88	H	-0.538444	-0.910471	-0.893737
H89	H	-0.500214	-0.942577	-0.967630
N90	N	-0.803441	-1.031368	-0.396503
H91	H	-0.821337	-1.042920	-0.447730
H92	H	-0.747496	-1.030921	-0.395822
H93	H	-0.265759	-0.987475	-0.904428
N94	N	-0.395946	-1.031508	-0.804937
H95	H	-0.395862	-1.031097	-0.748985
H96	H	-0.446928	-1.043160	-0.823401
H97	H	-0.443583	-0.550656	-0.271528
H98	H	-0.810826	-0.831973	-0.449305
N99	N	-0.456136	-0.678607	-0.258932
H100	H	-0.486175	-0.647776	-0.228794
H101	H	-0.490552	-0.705864	-0.289101
N102	N	-0.258920	-0.277977	-0.456771
H103	H	-0.266133	-0.324603	-0.449558
H104	H	-0.270567	-0.266481	-0.509785
N105	N	-0.910744	-0.787958	-0.319261
H106	H	-0.892826	-0.756191	-0.356729
H107	H	-0.966689	-0.788613	-0.318931
H108	H	-0.443536	-0.269085	-0.271546
N109	N	-0.258867	-0.141328	-0.456748
H110	H	-0.228828	-0.172159	-0.486886
H111	H	-0.289132	-0.114031	-0.491066
