data_functionalizedCrystal
_audit_creation_method	'MofGen! by Chris Wilmer'
_symmetry_space_group_name_H-M	'P1'
_symmetry_Int_Tables_number	1
_symmetry_cell_setting	triclinic
loop_
_symmetry_equiv_pos_as_xyz
  x,y,z
_cell_length_a	6.817900
_cell_length_b	12.840946
_cell_length_c	16.305597
_cell_angle_alpha	81.385397
_cell_angle_beta	103.455834
_cell_angle_gamma	88.344365
loop_
_atom_site_label
_atom_site_type_symbol
_atom_site_fract_x
_atom_site_fract_y
_atom_site_fract_z
V1	V	-3.898083	0.325580	-0.118718
O2	O	-3.888326	0.319014	0.003647
O3	O	-3.850210	0.323707	-0.233419
O4	O	-3.793684	0.467415	-0.117795
O5	O	-3.945243	0.174311	-0.112777
V6	V	-4.388898	0.307444	-0.103975
O7	O	-4.143344	0.365362	-0.151058
O8	O	-4.593835	0.267661	-0.071635
O9	O	-4.213565	0.309317	0.010726
O10	O	-4.516052	0.314010	-0.226340
O11	O	-4.459134	0.458712	-0.109916
O12	O	-4.270091	0.165609	-0.104898
C13	C	-3.697151	0.318662	-0.261352
C14	C	-3.738923	0.318076	-0.355128
C15	C	-3.625058	0.501975	-0.113858
C16	C	-3.620910	0.620107	-0.113861
C17	C	-4.085086	0.012921	-0.108867
C18	C	-4.102087	0.131049	-0.108849
C19	C	-3.890868	0.315998	-0.695873
C20	C	-3.657390	0.310302	-0.655007
C21	C	-3.613774	0.310498	-0.557410
C22	C	-3.815485	0.317030	-0.526825
C23	C	-3.936699	0.219840	-0.551596
C24	C	-3.978787	0.219120	-0.649124
C25	C	-3.988521	0.418605	-0.675682
C26	C	-3.940981	0.420404	-0.578181
C27	C	-3.772893	0.317610	-0.431287
C28	C	-3.933466	0.315411	-0.791411
V29	V	-3.881053	0.811747	-0.118742
O30	O	-3.917609	0.962936	-0.112812
O31	O	-3.786788	0.664560	-0.117809
O32	O	-3.831644	0.853503	-0.233444
O33	O	-3.872443	0.772685	0.003623
V34	V	-4.369926	0.849148	-0.104007
O35	O	-4.128250	0.796320	-0.151083
O36	O	-4.572134	0.887262	-0.071671
O37	O	-4.241377	0.985087	-0.104937
O38	O	-4.450560	0.703875	-0.109938
O39	O	-4.495726	0.894126	-0.226374
O40	O	-4.196522	0.796144	0.010697
C41	C	-4.029967	0.314359	0.038655
C42	C	-3.967430	0.314951	0.132429
C43	C	-3.678136	0.861123	-0.261371
C44	C	-3.718574	0.898403	-0.355146
C45	C	-4.013963	0.771556	0.038634
C46	C	-3.952800	0.733240	0.132411
C47	C	-3.917621	0.921377	-0.403518
C48	C	-3.955644	0.956420	-0.491629
C49	C	-3.794618	0.968481	-0.531367
C50	C	-3.595554	0.945508	-0.482988
C51	C	-3.557534	0.910472	-0.394878
C52	C	-3.750010	0.702836	0.172132
C53	C	-3.692509	0.666846	0.260247
C54	C	-3.837804	0.661254	0.308638
C55	C	-4.040611	0.691664	0.268911
C56	C	-4.098106	0.727660	0.180799
H57	H	-3.520210	0.379947	-0.540920
H58	H	-3.527367	0.642087	0.292579
H59	H	-3.931832	0.492311	-0.708648
N60	N	-3.354205	0.886971	-0.345479
N61	N	-3.299811	0.796135	-0.305134
H62	H	-3.156202	0.779536	-0.270249
H63	H	-3.853824	0.492320	-0.562933
H64	H	-3.825605	0.997010	-0.603112
N65	N	-3.779020	0.624492	0.398643
N66	N	-3.597938	0.597354	0.434090
H67	H	-3.556408	0.571390	0.497657
H68	H	-4.086309	0.220901	-0.531750
N69	N	-3.431116	0.957818	-0.523607
N70	N	-3.419208	0.906080	-0.581584
H71	H	-3.303079	0.914769	-0.610277
N72	N	-3.565743	0.397080	-0.693779
N73	N	-3.671424	0.464137	-0.751986
H74	H	-3.606702	0.525428	-0.779374
H75	H	-4.158896	0.687106	0.308324
N76	N	-3.601593	0.708566	0.122703
N77	N	-3.652916	0.740712	0.044033
H78	H	-3.548085	0.744763	0.009127
N79	N	-4.192087	0.219016	-0.682816
N80	N	-4.261142	0.218459	-0.760788
H81	H	-4.411781	0.218377	-0.784581
H82	H	-4.089077	0.431207	-0.558414
H83	H	-4.263241	0.752409	0.148464
H84	H	-3.848813	0.143315	-0.515513
H85	H	-3.516183	0.236282	-0.522520
N86	N	-3.562165	0.217468	-0.671377
N87	N	-3.665507	0.155483	-0.713009
H88	H	-3.598262	0.089916	-0.724571
H89	H	-4.159111	0.423792	-0.702712
N90	N	-3.892704	0.122295	-0.662978
N91	N	-3.908151	0.104261	-0.737375
H92	H	-3.847345	0.035878	-0.747158
N93	N	-4.082146	0.909084	-0.362950
N94	N	-4.199936	0.986726	-0.365922
H95	H	-4.316145	0.978053	-0.337276
N96	N	-4.158984	0.979894	-0.541033
N97	N	-4.268309	1.049689	-0.524305
H98	H	-4.411918	1.066268	-0.559195
