data_functionalizedCrystal
_audit_creation_method	'MofGen! by Chris Wilmer'
_symmetry_space_group_name_H-M	'P1'
_symmetry_Int_Tables_number	1
_symmetry_cell_setting	triclinic
loop_
_symmetry_equiv_pos_as_xyz
  x,y,z
_cell_length_a	10.967926
_cell_length_b	10.908878
_cell_length_c	13.448316
_cell_angle_alpha	90.002005
_cell_angle_beta	77.865836
_cell_angle_gamma	107.315374
loop_
_atom_site_label
_atom_site_type_symbol
_atom_site_fract_x
_atom_site_fract_y
_atom_site_fract_z
O1	O	0.192373	1.702153	0.049712
O2	O	0.095106	1.329146	0.066384
O3	O	0.327175	1.524253	0.026613
O4	O	-0.039696	1.507046	0.089483
O5	O	0.327191	1.524249	-0.138773
O6	O	0.095122	1.329141	-0.099003
O7	O	0.192389	1.702148	-0.115674
Cu8	Cu	0.143757	1.515645	-0.122440
Cu9	Cu	0.143738	1.515650	0.073149
O10	O	-0.039680	1.507041	-0.075904
C11	C	0.086024	1.281382	-0.014752
C12	C	0.058953	1.139068	-0.010111
C13	C	0.157729	1.089189	-0.027038
C14	C	0.129752	0.942100	-0.022242
C15	C	-0.085918	1.508296	0.014712
C16	C	-0.223665	1.512043	0.038318
C17	C	-0.285070	1.513711	-0.036833
C18	C	-0.427439	1.517584	-0.012438
C19	C	0.373413	1.522999	-0.064000
C20	C	0.511160	1.519252	-0.087599
C21	C	0.201471	1.749912	-0.034537
C22	C	0.228541	1.892226	-0.039171
N23	N	0.143735	1.515654	0.210714
N24	N	0.143772	1.515650	-0.260007
C25	C	0.246362	1.602211	0.245167
C26	C	0.246366	1.602217	0.349269
C27	C	0.143747	1.515658	0.418916
C28	C	0.041110	1.429096	0.384458
C29	C	0.041102	1.429098	0.280358
C30	C	0.041136	1.429097	0.601434
C31	C	0.041145	1.429093	0.705541
C32	C	0.246400	1.602215	0.670345
C33	C	0.246392	1.602217	0.566245
C34	C	0.143756	1.515654	0.531793
H35	H	0.333826	0.958412	-0.057206
H36	H	-0.436020	1.517803	-0.170005
H37	H	-0.480267	1.519012	0.069969
H38	H	0.263005	1.155380	-0.045074
C39	C	-0.422232	1.517366	0.152199
C40	C	-0.294989	1.513929	0.149562
H41	H	-0.466262	1.518521	0.220880
H42	H	-0.468342	1.443344	0.123016
H43	H	-0.418382	1.592577	0.114501
H44	H	-0.298839	1.438712	0.187255
H45	H	-0.248868	1.587958	0.178759
H46	H	-0.046323	1.072877	0.007934
H47	H	0.329930	1.672692	0.188464
C48	C	-0.012585	0.724343	0.002150
C49	C	-0.012381	0.852761	0.002115
H50	H	-0.100331	0.669191	0.017181
H51	H	0.031199	0.708371	0.052317
H52	H	0.031222	0.708371	-0.063033
H53	H	-0.056180	0.868735	0.067301
H54	H	-0.056183	0.868739	-0.048055
H55	H	-0.232242	1.512266	-0.119233
H56	H	0.329932	1.672699	0.377319
C57	C	0.449271	1.773355	0.541907
C58	C	0.359187	1.697369	0.489687
H59	H	0.518899	1.832105	0.494642
H60	H	0.483175	1.719713	0.576688
H61	H	0.406834	1.819797	0.589796
H62	H	0.401622	1.650919	0.441803
H63	H	0.325282	1.751017	0.454889
H64	H	0.329970	1.672698	0.698401
C65	C	-0.161765	1.257996	0.729884
C66	C	-0.071665	1.333961	0.782101
H67	H	-0.231414	1.199273	0.777152
H68	H	-0.119357	1.211535	0.682009
H69	H	-0.195644	1.311664	0.695090
H70	H	-0.037778	1.280294	0.816889
H71	H	-0.114078	1.380426	0.829994
C72	C	-0.021682	1.254891	0.495121
C73	C	-0.071676	1.333945	0.563556
H74	H	-0.091323	1.196154	0.471731
H75	H	0.020736	1.208447	0.528458
H76	H	0.039433	1.306463	0.438753
H77	H	-0.132784	1.282374	0.619928
H78	H	-0.114115	1.380394	0.530219
H79	H	-0.042449	1.358623	0.441172
C80	C	-0.161768	1.257958	0.325595
C81	C	-0.071702	1.333942	0.242483
H82	H	-0.231406	1.199209	0.302210
H83	H	-0.195660	1.311602	0.372009
H84	H	-0.119322	1.211516	0.358919
H85	H	-0.114146	1.380392	0.209162
H86	H	-0.037809	1.280292	0.196051
