data_functionalizedCrystal
_audit_creation_method	'MofGen! by Chris Wilmer'
_symmetry_space_group_name_H-M	'P1'
_symmetry_Int_Tables_number	1
_symmetry_cell_setting	triclinic
loop_
_symmetry_equiv_pos_as_xyz
  x,y,z
_cell_length_a	13.897449
_cell_length_b	18.101395
_cell_length_c	18.101389
_cell_angle_alpha	90.016841
_cell_angle_beta	90.017847
_cell_angle_gamma	90.032384
loop_
_atom_site_label
_atom_site_type_symbol
_atom_site_fract_x
_atom_site_fract_y
_atom_site_fract_z
Zn1	Zn	1.474585	-0.294882	0.418719
Zn2	Zn	1.974585	0.205118	0.918719
Zn3	Zn	1.474450	-0.418708	0.294881
Zn4	Zn	1.974450	0.081292	0.794881
Zn5	Zn	1.313282	-0.294887	0.294894
Zn6	Zn	1.813282	0.205113	0.794894
Zn7	Zn	1.313218	-0.418689	0.418683
Zn8	Zn	1.813218	0.081311	0.918683
O9	O	1.393884	-0.356791	0.356794
O10	O	1.893884	0.143209	0.856794
O11	O	1.609549	-0.311313	0.402301
O12	O	2.109549	0.188687	0.902301
O13	O	1.453040	-0.402293	0.191250
O14	O	1.953040	0.097707	0.691250
O15	O	1.334763	-0.191254	0.311340
O16	O	1.834763	0.308746	0.811340
O17	O	1.609449	-0.402288	0.311317
O18	O	2.109449	0.097712	0.811317
O19	O	1.453272	-0.191250	0.402314
O20	O	1.953272	0.308750	0.902314
O21	O	1.334632	-0.311322	0.191259
O22	O	1.834632	0.188678	0.691259
O23	O	1.178292	-0.311304	0.311306
O24	O	1.678292	0.188696	0.811306
O25	O	1.334654	-0.402256	0.522321
O26	O	1.834654	0.097744	1.022321
O27	O	1.178245	-0.402261	0.402253
O28	O	1.678245	0.097739	0.902253
O29	O	1.453209	-0.311295	0.522347
O30	O	1.953209	0.188705	1.022347
O31	O	1.452978	-0.522338	0.311283
O32	O	1.952978	-0.022338	0.811283
O33	O	1.334522	-0.522324	0.402240
O34	O	1.834522	-0.022324	0.902240
C35	C	1.143270	-0.356782	0.356777
C36	C	1.643270	0.143218	0.856777
C37	C	1.036056	-0.356795	0.356788
C38	C	1.536056	0.143205	0.856788
C39	C	1.393755	-0.549202	0.356772
C40	C	1.893755	-0.049202	0.856772
C41	C	1.393788	-0.631516	0.356788
C42	C	1.893788	-0.131516	0.856788
C43	C	0.839760	-0.356798	0.356807
C44	C	1.339760	0.143202	0.856807
C45	C	0.948993	-0.356794	0.356794
C46	C	1.448993	0.143206	0.856794
C47	C	1.394000	-0.930607	0.356828
C48	C	1.894000	-0.430607	0.856828
C49	C	1.319643	-0.899304	0.414198
C50	C	1.819643	-0.399304	0.914198
C51	C	1.319290	-0.813686	0.414018
C52	C	1.819290	-0.313686	0.914018
C53	C	1.393894	-0.782225	0.356809
C54	C	1.893894	-0.282225	0.856809
C55	C	1.366374	-0.813362	0.278760
C56	C	1.866374	-0.313362	0.778760
C57	C	1.365894	-0.899007	0.279103
C58	C	1.865894	-0.399007	0.779103
C59	C	1.496039	-0.898953	0.376820
C60	C	1.996039	-0.398953	0.876820
C61	C	1.495439	-0.813302	0.378532
C62	C	1.995439	-0.313302	0.878532
C63	C	1.393837	-0.698365	0.356793
C64	C	1.893837	-0.198365	0.856793
C65	C	1.394055	-1.014466	0.356838
C66	C	1.894055	-0.514466	0.856838
C67	C	1.645477	-0.356802	0.356812
C68	C	2.145477	0.143198	0.856812
C69	C	1.752691	-0.356806	0.356819
C70	C	2.252691	0.143194	0.856819
C71	C	1.393940	-0.356773	0.549956
C72	C	1.893940	0.143227	1.049956
C73	C	1.393963	-0.356765	0.632270
C74	C	1.893963	0.143235	1.132270
C75	C	1.394040	-0.163630	0.356832
C76	C	1.894040	0.336370	0.856832
C77	C	1.394106	-0.081315	0.356849
C78	C	1.894106	0.418685	0.856849
C79	C	1.393884	-0.356757	0.164384
C80	C	1.893884	0.143243	0.664384
C81	C	1.394047	-0.356556	0.082070
C82	C	1.894047	0.143444	0.582070
C83	C	1.394020	-0.356626	0.931361
C84	C	1.894020	0.143374	1.431361
C85	C	1.319171	-0.413674	0.900020
C86	C	1.819171	0.086326	1.400020
C87	C	1.319373	-0.413938	0.814401
C88	C	1.819373	0.086062	1.314401
C89	C	1.393991	-0.356695	0.782979
C90	C	1.893991	0.143305	1.282979
C91	C	1.495619	-0.377877	0.814076
C92	C	1.995619	0.122123	1.314076
C93	C	1.495202	-0.378252	0.899721
C94	C	1.995202	0.121748	1.399721
C95	C	1.368124	-0.278269	0.899786
C96	C	1.868124	0.221731	1.399786
C97	C	1.365863	-0.278722	0.814135
C98	C	1.865863	0.221278	1.314135
C99	C	1.393981	-0.356733	0.699119
C100	C	1.893981	0.143267	1.199119
C101	C	1.394036	-0.356590	1.015221
C102	C	1.894036	0.143410	1.515221
H103	H	1.336508	-0.792632	0.471891
H104	H	1.836508	-0.292632	0.971891
Br105	Br	1.591071	-0.310799	0.780161
Br106	Br	2.091071	0.189201	1.280161
Br107	Br	1.348049	-0.933570	0.510973
Br108	Br	1.848049	-0.433570	1.010973
Br109	Br	1.194350	-0.935300	0.392424
Br110	Br	1.694350	-0.435300	0.892424
H111	H	1.243655	-0.793262	0.400776
H112	H	1.743655	-0.293262	0.900776
H113	H	1.551438	-0.919194	0.335035
H114	H	2.051438	-0.419194	0.835035
H115	H	1.521130	-0.920510	0.432763
H116	H	2.021130	-0.420510	0.932763
Br117	Br	1.591242	-0.311957	0.934285
Br118	Br	2.091242	0.188043	1.434285
H119	H	1.244012	-0.400683	0.793375
H120	H	1.744012	0.099317	1.293375
H121	H	1.291304	-0.919049	0.262167
H122	H	1.791304	-0.419049	0.762167
Br123	Br	1.452233	-0.933527	0.205425
Br124	Br	1.952233	-0.433527	0.705425
Br125	Br	1.453799	-0.779401	0.205568
Br126	Br	1.953799	-0.279401	0.705568
Br127	Br	1.532847	-0.472332	0.778339
Br128	Br	2.032847	0.027668	1.278339
Br129	Br	1.241201	-0.252099	0.780271
Br130	Br	1.741201	0.247901	1.280271
Br131	Br	1.243366	-0.777722	0.250024
Br132	Br	1.743366	-0.277722	0.750024
Br133	Br	1.530035	-0.779382	0.474270
Br134	Br	2.030035	-0.279382	0.974270
Br135	Br	1.531791	-0.473721	0.933032
Br136	Br	2.031791	0.026279	1.433032
Br137	Br	1.193177	-0.391805	0.934331
Br138	Br	1.693177	0.108195	1.434331
Br139	Br	1.592668	-0.777594	0.313970
Br140	Br	2.092668	-0.277594	0.813970
Br141	Br	1.246752	-0.246102	0.935770
Br142	Br	1.746752	0.253898	1.435770
H143	H	1.416401	-0.233962	0.792745
H144	H	1.916401	0.266038	1.292745
Br145	Br	1.347315	-0.509878	0.935958
Br146	Br	1.847315	-0.009878	1.435958
H147	H	1.336469	-0.472019	0.793919
H148	H	1.836469	0.027981	1.293919
Br149	Br	1.458988	-0.207427	0.933567
Br150	Br	1.958988	0.292573	1.433567
