data_functionalizedCrystal
_audit_creation_method	'MofGen! by Chris Wilmer'
_symmetry_space_group_name_H-M	'P1'
_symmetry_Int_Tables_number	1
_symmetry_cell_setting	triclinic
loop_
_symmetry_equiv_pos_as_xyz
  x,y,z
_cell_length_a	18.627243
_cell_length_b	18.627245
_cell_length_c	18.627284
_cell_angle_alpha	59.996087
_cell_angle_beta	90.003151
_cell_angle_gamma	119.999685
loop_
_atom_site_label
_atom_site_type_symbol
_atom_site_fract_x
_atom_site_fract_y
_atom_site_fract_z
O1	O	0.611884	-0.513841	0.021357
O2	O	0.507488	-0.366832	-0.021256
O3	O	0.507487	-0.513841	0.125753
O4	O	0.611885	-0.366832	-0.125652
O5	O	0.388085	-0.633242	0.125752
O6	O	0.388086	-0.486233	-0.021257
O7	O	0.492482	-0.633242	0.021356
Cu8	Cu	0.429382	-0.570640	0.000050
Cu9	Cu	0.570588	-0.429434	0.000050
O10	O	0.492484	-0.486233	-0.125653
C11	C	0.386979	-0.226044	-0.030936
C12	C	0.431279	-0.137446	-0.024836
C13	C	0.300579	-0.269040	-0.031540
C14	C	0.386982	-0.356039	-0.030944
C15	C	0.431284	-0.406433	-0.024853
C16	C	0.300582	-0.398838	-0.031548
C17	C	0.256978	-0.356044	-0.030935
C18	C	0.162281	-0.406443	-0.024835
C19	C	0.430385	-0.269035	-0.031548
C20	C	0.612991	-0.356041	-0.256949
C21	C	0.568687	-0.406434	-0.162254
C22	C	0.569587	-0.398838	-0.300551
C23	C	0.742995	-0.226049	-0.386946
C24	C	0.837694	-0.137453	-0.431243
C25	C	0.699394	-0.269043	-0.430350
C26	C	0.612994	-0.356045	-0.386948
C27	C	0.568693	-0.406443	-0.431247
C28	C	0.699391	-0.269039	-0.300549
O29	O	-0.125719	-0.633251	0.021370
O30	O	0.125681	-0.486243	-0.021239
O31	O	-0.021311	-0.633257	0.125768
O32	O	0.021273	-0.486237	-0.125637
O33	O	-0.021315	-0.513860	0.125775
O34	O	0.125677	-0.366846	-0.021232
O35	O	-0.125722	-0.513854	0.021377
Cu36	Cu	-0.000023	-0.429448	0.000073
Cu37	Cu	-0.000019	-0.570649	0.000065
O38	O	0.021270	-0.366840	-0.125630
C39	C	0.742982	-0.644048	0.031065
C40	C	0.837678	-0.593652	0.024971
C41	C	0.699380	-0.731055	0.031674
C42	C	0.612984	-0.644043	0.031058
C43	C	0.568684	-0.593643	0.024957
C44	C	0.569579	-0.731051	0.031668
C45	C	0.612982	-0.774048	0.031065
C46	C	0.568682	-0.862649	0.024970
C47	C	0.699381	-0.601248	0.031668
O48	O	0.492478	0.104345	0.021376
O49	O	0.388078	-0.104446	-0.021232
O50	O	0.388086	-0.104460	0.125774
O51	O	0.492471	0.104360	-0.125631
O52	O	0.507490	-0.104456	0.125767
O53	O	0.507482	-0.104442	-0.021240
O54	O	0.611883	0.104349	0.021368
Cu55	Cu	0.570585	-0.000046	0.000063
Cu56	Cu	0.429376	-0.000051	0.000072
O57	O	0.611875	0.104364	-0.125639
O58	O	1.125696	0.104334	-0.492434
O59	O	0.874296	-0.104449	-0.388044
O60	O	1.021284	-0.104472	-0.388020
O61	O	0.978708	0.104356	-0.492458
O62	O	1.021285	-0.104477	-0.507419
O63	O	0.874297	-0.104455	-0.507443
O64	O	1.125697	0.104328	-0.611833
Cu65	Cu	0.999997	-0.000064	-0.570540
Cu66	Cu	0.999996	-0.000057	-0.429337
O67	O	0.978709	0.104351	-0.611857
O68	O	0.507496	-0.513849	-0.611842
O69	O	0.611895	-0.366846	-0.507447
O70	O	0.611884	-0.513862	-0.507425
O71	O	0.507507	-0.366833	-0.611864
O72	O	0.492477	-0.633258	-0.388028
O73	O	0.492488	-0.486242	-0.388049
O74	O	0.388089	-0.633244	-0.492445
Cu75	Cu	0.429386	-0.570645	-0.429345
Cu76	Cu	0.570598	-0.429446	-0.570546
O77	O	0.388100	-0.486228	-0.492467
C78	C	0.256988	-0.774044	0.387057
C79	C	0.162292	-0.862645	0.431358
C80	C	0.300591	-0.731050	0.430461
C81	C	0.386986	-0.644041	0.257054
C82	C	0.431285	-0.593642	0.162355
C83	C	0.430392	-0.601244	0.300655
C84	C	0.386989	-0.644043	0.387055
C85	C	0.431291	-0.593646	0.431355
C86	C	0.300588	-0.731048	0.300657
C87	C	-0.030994	-0.644076	0.387079
C88	C	-0.024896	-0.593684	0.431384
C89	C	-0.031597	-0.731083	0.430482
C90	C	-0.031000	-0.644065	0.257073
C91	C	-0.024909	-0.593661	0.162374
C92	C	-0.031603	-0.731072	0.300673
C93	C	-0.030990	-0.774072	0.387073
C94	C	-0.024889	-0.862673	0.431371
C95	C	-0.031607	-0.601273	0.300679
C96	C	0.030949	-0.226027	-0.386936
C97	C	0.024848	-0.137426	-0.431234
C98	C	0.031555	-0.269017	-0.430344
C99	C	0.030959	-0.356033	-0.256935
C100	C	0.024868	-0.406436	-0.162236
C101	C	0.031565	-0.398826	-0.300540
C102	C	0.030952	-0.356024	-0.386941
C103	C	0.024855	-0.406416	-0.431244
C104	C	0.031562	-0.269026	-0.300536
C105	C	0.386993	-0.356102	0.387063
C106	C	0.431296	-0.406502	0.431357
C107	C	0.300594	-0.398908	0.430470
C108	C	0.386989	-0.226083	0.257068
C109	C	0.431287	-0.137468	0.162372
C110	C	0.300589	-0.269087	0.300674
C111	C	0.256990	-0.356107	0.387071
C112	C	0.162293	-0.406512	0.431374
C113	C	0.430395	-0.269082	0.300665
O114	O	0.021340	-0.486283	0.611982
O115	O	-0.021289	-0.633287	0.507586
O116	O	0.125721	-0.486281	0.507567
O117	O	-0.125670	-0.633290	0.612001
O118	O	0.125704	-0.366878	0.388169
O119	O	-0.021306	-0.513884	0.388187
O120	O	0.021323	-0.366880	0.492584
Cu121	Cu	0.000007	-0.429480	0.429484
Cu122	Cu	0.000027	-0.570688	0.570686
O123	O	-0.125687	-0.513887	0.492603
C124	C	0.742971	0.356009	-0.386935
C125	C	0.837667	0.406415	-0.431239
C126	C	0.699367	0.398811	-0.430335
C127	C	0.612972	0.225987	-0.256933
C128	C	0.568673	0.137371	-0.162237
C129	C	0.569565	0.268986	-0.300530
C130	C	0.612968	0.356006	-0.386927
C131	C	0.568665	0.406407	-0.431221
C132	C	0.699371	0.268990	-0.300538
H133	H	0.265580	-0.468849	-0.032526
H134	H	0.501376	-0.531223	0.265641
C135	C	0.746680	-0.220430	-0.253259
C136	C	0.780343	-0.110172	-0.291192
C137	C	0.827629	-0.061566	-0.243902
C138	C	0.841253	-0.123217	-0.158679
C139	C	0.807589	-0.233481	-0.120741
C140	C	0.760303	-0.282087	-0.168031
H141	H	0.770259	-0.064528	-0.354283
H142	H	0.852550	0.020059	-0.271987
H143	H	0.876257	-0.087236	-0.123673
H144	H	0.817673	-0.279125	-0.057650
H145	H	0.735383	-0.363712	-0.139946
H146	H	0.498592	-0.767026	0.032638
H147	H	0.498577	0.232995	-0.265517
C148	C	0.253298	-0.493502	0.526369
C149	C	0.239660	-0.592349	0.549932
C150	C	0.192361	-0.686940	0.645827
C151	C	0.158700	-0.682684	0.718159
C152	C	0.172337	-0.583834	0.694598
C153	C	0.219636	-0.489243	0.598703
H154	H	0.264579	-0.595503	0.496386
H155	H	0.182267	-0.760116	0.663268
H156	H	0.123687	-0.752706	0.789146
H157	H	0.147418	-0.580680	0.748144
H158	H	0.229730	-0.416067	0.581262
H159	H	0.734389	-0.767036	0.032654
H160	H	0.734393	-0.531231	0.032638
H161	H	0.265582	-0.233102	0.265666
H162	H	0.265569	-0.767016	0.265645
H163	H	0.501383	-0.233098	0.265659
C164	C	-0.032920	-0.506684	0.253402
C165	C	-0.109510	-0.510924	0.219746
C166	C	-0.110817	-0.416335	0.172476
C167	C	-0.035534	-0.317506	0.158862
C168	C	0.041062	-0.313263	0.192519
C169	C	0.042369	-0.407851	0.239789
H170	H	-0.165244	-0.584087	0.229823
H171	H	-0.167519	-0.419477	0.147561
H172	H	-0.036501	-0.247486	0.123870
H173	H	0.096796	-0.240100	0.182442
H174	H	0.099071	-0.404709	0.264704
H175	H	0.734372	0.468830	-0.501325
H176	H	0.265584	-0.767039	0.501452
H177	H	0.734389	0.233021	-0.265533
H178	H	-0.032594	-0.767056	0.265665
H179	H	0.501376	-0.233044	-0.032532
H180	H	0.265578	-0.233051	-0.032520
H181	H	-0.032557	-0.767059	0.501468
H182	H	0.032546	-0.468838	-0.265532
C183	C	0.032861	-0.220416	-0.526243
C184	C	0.109448	-0.181748	-0.598574
C185	C	0.110749	-0.133158	-0.694468
C186	C	0.035464	-0.123235	-0.718031
C187	C	-0.041128	-0.161904	-0.645698
C188	C	-0.042429	-0.210495	-0.549804
H189	H	0.165183	-0.189093	-0.581133
H190	H	0.167448	-0.104532	-0.748014
H191	H	0.036428	-0.087265	-0.789017
H192	H	-0.096863	-0.154559	-0.663139
H193	H	-0.099128	-0.239120	-0.496258
C194	C	0.746677	-0.220443	-0.526250
C195	C	0.760278	-0.282108	-0.549810
C196	C	0.807554	-0.233512	-0.645707
C197	C	0.841229	-0.123251	-0.718042
C198	C	0.827628	-0.061580	-0.694484
C199	C	0.780352	-0.110175	-0.598588
H200	H	0.735349	-0.363736	-0.496261
H201	H	0.817622	-0.279166	-0.663146
H202	H	0.876225	-0.087278	-0.789031
H203	H	0.852557	0.020048	-0.748033
H204	H	0.770285	-0.064521	-0.581148
C205	C	0.473689	-0.493422	-0.253283
C206	C	0.401343	-0.489183	-0.219623
C207	C	0.305451	-0.583766	-0.172366
C208	C	0.281904	-0.682589	-0.158769
C209	C	0.354251	-0.686831	-0.192430
C210	C	0.450144	-0.592248	-0.239687
H211	H	0.418772	-0.416025	-0.229688
H212	H	0.251895	-0.580625	-0.147448
H213	H	0.210919	-0.752605	-0.123787
H214	H	0.336822	-0.759989	-0.182366
H215	H	0.503700	-0.595389	-0.264605
C216	C	0.032890	-0.220431	-0.253230
C217	C	-0.042382	-0.210497	-0.239576
C218	C	-0.041051	-0.161908	-0.192266
C219	C	0.035551	-0.123253	-0.158612
C220	C	0.110829	-0.133186	-0.172266
C221	C	0.109498	-0.181775	-0.219575
H222	H	-0.099093	-0.239112	-0.264489
H223	H	-0.096777	-0.154555	-0.182159
H224	H	0.036536	-0.087285	-0.123591
H225	H	0.167539	-0.104571	-0.147353
H226	H	0.165224	-0.189127	-0.229683
