data_functionalizedCrystal
_audit_creation_method	'MofGen! by Chris Wilmer'
_symmetry_space_group_name_H-M	'P1'
_symmetry_Int_Tables_number	1
_symmetry_cell_setting	triclinic
loop_
_symmetry_equiv_pos_as_xyz
  x,y,z
_cell_length_a	10.967926
_cell_length_b	10.654541
_cell_length_c	10.065875
_cell_angle_alpha	98.874761
_cell_angle_beta	93.120479
_cell_angle_gamma	84.599937
loop_
_atom_site_label
_atom_site_type_symbol
_atom_site_fract_x
_atom_site_fract_y
_atom_site_fract_z
O1	O	1.614715	0.219079	0.266278
O2	O	1.264701	0.222666	0.183954
O3	O	1.447756	0.038438	0.227017
O4	O	1.431660	0.403307	0.223215
O5	O	1.412851	0.073715	0.445795
O6	O	1.229796	0.257943	0.402732
O7	O	1.579810	0.254356	0.485056
Zn8	Zn	1.399261	0.261751	0.478629
Zn9	Zn	1.445250	0.215271	0.190381
O10	O	1.396755	0.438584	0.441993
C11	C	1.202430	0.237378	0.282802
C12	C	1.068887	0.228643	0.251393
C13	C	0.991268	0.243023	0.350722
C14	C	0.853244	0.233995	0.318262
C15	C	1.429122	0.009234	0.336128
C16	C	1.425588	-0.130343	0.335294
C17	C	1.644478	-0.150045	0.386795
C18	C	1.752258	-0.225467	0.412156
C19	C	1.748930	-0.356611	0.411369
C20	C	1.637811	-0.412336	0.385214
C21	C	1.530032	-0.336914	0.359853
C22	C	1.533371	-0.205767	0.360647
C23	C	1.311146	-0.317215	0.308343
C24	C	1.314469	-0.186068	0.309139
C25	C	1.200027	-0.372939	0.282188
C26	C	1.092244	-0.297516	0.256836
C27	C	1.095576	-0.166364	0.257625
C28	C	1.206690	-0.110646	0.283778
C29	C	1.642081	0.239643	0.386205
C30	C	1.775625	0.248377	0.417606
C31	C	1.415389	0.467788	0.332880
C32	C	1.418925	0.607364	0.333705
N33	N	1.367884	0.293471	0.675354
N34	N	1.476636	0.183541	-0.006341
C35	C	1.434325	0.226300	0.758763
C36	C	1.410186	0.250723	0.910251
H37	H	1.033158	0.209644	0.142321
Br38	Br	0.941460	-0.373151	0.221322
H39	H	1.026999	0.262011	0.459794
H40	H	0.817520	0.214995	0.209183
Br41	Br	1.895204	-0.458978	0.445771
H42	H	1.551391	0.107942	0.952924
Br43	Br	0.835156	0.280017	0.599416
H44	H	1.647196	-0.043258	0.387456
H45	H	1.842726	-0.180079	0.433462
Br46	Br	1.633313	-0.590336	0.384043
H47	H	1.197327	-0.479726	0.281541
Br48	Br	0.949297	-0.064018	0.223189
H49	H	1.209412	-0.003861	0.284431
Br50	Br	1.558617	0.099978	0.690801
Br51	Br	1.285572	0.376709	0.978133
Br52	Br	1.243275	0.419453	0.743242
