data_functionalizedCrystal
_audit_creation_method	'MofGen! by Chris Wilmer'
_symmetry_space_group_name_H-M	'P1'
_symmetry_Int_Tables_number	1
_symmetry_cell_setting	triclinic
loop_
_symmetry_equiv_pos_as_xyz
  x,y,z
_cell_length_a	23.532407
_cell_length_b	23.532407
_cell_length_c	13.930277
_cell_angle_alpha	89.990782
_cell_angle_beta	89.998126
_cell_angle_gamma	82.848678
loop_
_atom_site_label
_atom_site_type_symbol
_atom_site_fract_x
_atom_site_fract_y
_atom_site_fract_z
O1	O	0.755262	0.069134	-0.079721
O2	O	0.589398	0.079138	-0.079750
O3	O	0.677332	-0.008796	-0.079717
O4	O	0.667328	0.157068	-0.079754
O5	O	0.677320	-0.008798	0.079945
O6	O	0.589386	0.079136	0.079912
O7	O	0.755250	0.069133	0.079941
Zn8	Zn	0.672316	0.074134	0.105276
Zn9	Zn	0.672332	0.074136	-0.105085
O10	O	0.667316	0.157066	0.079908
C11	C	0.568176	0.078882	0.000077
C12	C	0.504959	0.078116	0.000067
C13	C	0.677071	-0.030013	0.000116
C14	C	0.676305	-0.093230	0.000124
C15	C	0.723539	-0.492333	0.000079
C16	C	0.722827	-0.551733	0.000072
O17	O	0.766613	-0.588478	0.000044
N18	N	0.670551	-0.574359	0.000063
C19	C	0.618983	-0.537582	0.000052
O20	O	0.574452	-0.562281	0.000043
C21	C	0.619695	-0.478182	0.000053
C22	C	0.671974	-0.455560	0.000071
C23	C	0.775814	-0.469710	0.000097
C24	C	0.776525	-0.410313	0.000106
C25	C	0.724961	-0.373540	0.000098
C26	C	0.672685	-0.396164	0.000080
C27	C	0.568127	-0.441406	0.000035
C28	C	0.568844	-0.382004	0.000035
C29	C	0.621123	-0.359381	0.000053
C30	C	0.621832	-0.299995	0.000082
N31	N	0.674109	-0.277368	0.000090
C32	C	0.725673	-0.314141	0.000098
C33	C	0.617491	-0.662324	0.000050
C34	C	0.616778	-0.721722	0.000056
C35	C	0.720623	-0.735869	0.000074
C36	C	0.721335	-0.676470	0.000074
C37	C	0.669767	-0.639698	0.000058
C38	C	0.727163	-0.189405	0.000118
C39	C	0.727869	-0.130003	0.000132
C40	C	0.624025	-0.115860	0.000109
C41	C	0.623318	-0.175257	0.000101
C42	C	0.674891	-0.212029	0.000102
O43	O	0.578070	-0.263215	0.000105
O44	O	0.770196	-0.289433	0.000095
C45	C	0.105856	0.125350	0.000100
C46	C	0.046456	0.124638	0.000106
O47	O	0.009711	0.168424	0.000131
N48	N	0.023830	0.072362	0.000116
C49	C	0.060607	0.020794	0.000129
O50	O	0.035908	-0.023737	0.000139
C51	C	0.120006	0.021506	0.000130
C52	C	0.142629	0.073785	0.000110
C53	C	0.128479	0.177625	0.000081
C54	C	0.187876	0.178336	0.000073
C55	C	0.224649	0.126772	0.000084
C56	C	0.202025	0.074496	0.000103
C57	C	0.156783	-0.030062	0.000151
C58	C	0.216185	-0.029345	0.000152
C59	C	0.238808	0.022934	0.000133
C60	C	0.298194	0.023643	0.000106
N61	N	0.320820	0.075920	0.000096
C62	C	0.284048	0.127484	0.000085
C63	C	-0.064135	0.019302	0.000129
C64	C	-0.123533	0.018589	0.000122
C65	C	-0.137680	0.122434	0.000100
C66	C	-0.078281	0.123146	0.000100
C67	C	-0.041509	0.071578	0.000119
C68	C	0.408784	0.128974	0.000068
C69	C	0.468186	0.129680	0.000056
C70	C	0.482329	0.025836	0.000083
C71	C	0.422932	0.025129	0.000090
C72	C	0.386160	0.076702	0.000085
O73	O	0.334974	-0.020119	0.000085
O74	O	0.308755	0.172007	0.000087
C75	C	0.776472	0.069388	0.000112
C76	C	0.839689	0.070154	0.000116
C77	C	0.667577	0.178283	0.000072
C78	C	0.668343	0.241500	0.000059
N79	N	0.672309	0.074132	0.248842
N80	N	0.672343	0.074134	-0.248651
C81	C	0.633394	0.113058	0.701097
C82	C	0.711286	0.035210	0.701096
C83	C	0.711279	0.035208	0.600600
C84	C	0.672330	0.074133	0.550348
C85	C	0.633387	0.113059	0.600592
C86	C	0.750225	-0.003713	0.550349
C87	C	0.750220	-0.003716	0.449847
C88	C	0.711268	0.035206	0.399593
C89	C	0.672323	0.074133	0.449843
C90	C	0.633373	0.113057	0.399591
C91	C	0.594425	0.151982	0.449839
C92	C	0.594434	0.151981	0.550338
C93	C	0.711259	0.035208	0.299094
C94	C	0.633367	0.113058	0.299086
H95	H	0.770443	-0.111587	0.000149
F96	F	0.791670	-0.045143	0.396376
F97	F	0.775503	-0.775016	0.000077
H98	H	0.743000	0.003522	0.742014
F99	F	0.211944	0.233980	0.000057
H100	H	0.580748	-0.193677	0.000112
F101	F	0.752711	-0.006213	0.245623
F102	F	0.791680	-0.045134	0.603830
F103	F	0.569149	-0.076714	0.000100
F104	F	0.552977	0.193410	0.396347
F105	F	0.782053	-0.228531	0.000120
H106	H	-0.167632	0.164421	0.000095
F107	F	0.832169	-0.386245	0.000105
F108	F	0.591907	0.154485	0.245612
H109	H	0.098544	0.219617	0.000075
H110	H	0.817806	-0.499645	0.000100
F111	F	0.561135	-0.745792	0.000054
H112	H	0.138375	-0.072634	0.000168
F113	F	-0.054210	0.178789	0.000081
H114	H	0.486602	0.172255	0.000039
F115	F	0.521475	-0.029040	0.000096
F116	F	-0.147603	-0.037054	0.000121
F117	F	0.369658	0.183864	0.000064
H118	H	0.575496	-0.632386	0.000045
F119	F	0.776978	-0.652399	0.000094
H120	H	-0.034198	-0.022693	0.000136
F121	F	0.512483	-0.465469	0.000011
H122	H	0.601681	0.144749	0.742011
H123	H	0.246123	-0.071339	0.000169
F124	F	0.552987	0.193405	0.603819
H125	H	0.404512	-0.017441	0.000092
H126	H	0.526850	-0.352066	0.000020
