data_functionalizedCrystal
_audit_creation_method	'MofGen! by Chris Wilmer'
_symmetry_space_group_name_H-M	'P1'
_symmetry_Int_Tables_number	1
_symmetry_cell_setting	triclinic
loop_
_symmetry_equiv_pos_as_xyz
  x,y,z
_cell_length_a	8.597340
_cell_length_b	9.065218
_cell_length_c	7.540329
_cell_angle_alpha	90.001757
_cell_angle_beta	97.699141
_cell_angle_gamma	94.826720
loop_
_atom_site_label
_atom_site_type_symbol
_atom_site_fract_x
_atom_site_fract_y
_atom_site_fract_z
O1	O	2.085534	-0.220240	0.171214
O2	O	1.628848	-0.237136	0.101426
O3	O	1.866631	-0.014063	0.137766
O4	O	1.847751	-0.443313	0.134874
O5	O	1.866616	-0.014060	0.432729
O6	O	1.628833	-0.237133	0.396388
O7	O	2.085520	-0.220237	0.466177
Cu8	Cu	1.857175	-0.228685	0.458215
Cu9	Cu	1.857192	-0.228688	0.109388
O10	O	1.847737	-0.443310	0.429837
C11	C	1.570344	-0.235320	0.239968
C12	C	1.396043	-0.229895	0.213332
C13	C	1.864809	0.040929	0.284967
C14	C	1.859384	0.204782	0.284130
C15	C	2.144024	-0.222053	0.327631
C16	C	2.318325	-0.227477	0.354256
C17	C	1.849559	-0.498301	0.282632
C18	C	1.854984	-0.662154	0.283457
N19	N	1.857175	-0.228681	0.703564
N20	N	1.857205	-0.228680	-0.135959
H21	H	1.385135	-0.229547	0.495291
H22	H	1.329226	-0.227815	0.072287
