data_functionalizedCrystal
_audit_creation_method	'MofGen! by Chris Wilmer'
_symmetry_space_group_name_H-M	'P1'
_symmetry_Int_Tables_number	1
_symmetry_cell_setting	triclinic
loop_
_symmetry_equiv_pos_as_xyz
  x,y,z
_cell_length_a	11.792241
_cell_length_b	14.519731
_cell_length_c	10.868271
_cell_angle_alpha	89.994076
_cell_angle_beta	90.000103
_cell_angle_gamma	96.058865
loop_
_atom_site_label
_atom_site_type_symbol
_atom_site_fract_x
_atom_site_fract_y
_atom_site_fract_z
O1	O	-1.506221	0.126403	-0.102187
O2	O	-1.172887	0.459736	0.231146
O3	O	-0.839554	0.793070	0.564479
O4	O	-1.175809	0.139430	-0.102220
O5	O	-0.842475	0.472763	0.231113
O6	O	-0.509142	0.806097	0.564446
O7	O	-1.349762	-0.001289	-0.102192
O8	O	-1.016429	0.332045	0.231142
O9	O	-0.683096	0.665378	0.564475
O10	O	-1.332267	0.267122	-0.102216
O11	O	-0.998933	0.600455	0.231117
O12	O	-0.665600	0.933788	0.564451
O13	O	-1.349746	-0.001294	0.102453
O14	O	-1.016413	0.332040	0.435786
O15	O	-0.683079	0.665373	0.769120
O16	O	-1.175792	0.139425	0.102424
O17	O	-0.842459	0.472758	0.435758
O18	O	-0.509125	0.806092	0.769091
O19	O	-1.506204	0.126398	0.102457
O20	O	-1.172871	0.459731	0.435791
O21	O	-0.839537	0.793065	0.769124
Zn22	Zn	-1.340995	0.132911	0.134933
Zn23	Zn	-1.007662	0.466244	0.468266
Zn24	Zn	-0.674329	0.799577	0.801599
Zn25	Zn	-1.341017	0.132917	-0.134696
Zn26	Zn	-1.007684	0.466251	0.198638
Zn27	Zn	-0.674351	0.799584	0.531971
O28	O	-1.332250	0.267117	0.102429
O29	O	-0.998917	0.600450	0.435762
O30	O	-0.665584	0.933783	0.769095
C31	C	-1.133514	0.138609	0.000098
C32	C	-0.800181	0.471943	0.333431
C33	C	-0.466847	0.805276	0.666765
C34	C	-1.007513	0.136160	0.000086
C35	C	-0.674180	0.469493	0.333419
C36	C	-0.340847	0.802827	0.666752
C37	C	-1.348934	-0.035654	0.000131
C38	C	-1.015601	0.297680	0.333464
C39	C	-0.682268	0.631013	0.666797
C40	C	-1.346478	-0.138043	0.000131
C41	C	-1.013145	0.195291	0.333465
C42	C	-0.679811	0.528624	0.666798
C43	C	-0.776826	0.131656	0.000119
C44	C	-0.443493	0.464990	0.333452
C45	C	-0.110159	0.798323	0.666785
C46	C	-0.905197	0.134159	0.000100
C47	C	-0.571864	0.467492	0.333434
C48	C	-0.238531	0.800825	0.666767
C49	C	-1.344482	-0.221194	0.000128
C50	C	-1.011148	0.112139	0.333462
C51	C	-0.677815	0.445472	0.666795
C52	C	-1.341988	-0.325512	0.000119
C53	C	-1.008654	0.007821	0.333452
C54	C	-0.675321	0.341155	0.666785
C55	C	-1.340008	-0.408658	0.000110
C56	C	-1.006675	-0.075325	0.333444
C57	C	-0.673342	0.258008	0.666777
C58	C	-1.337514	-0.512983	0.000103
C59	C	-1.004181	-0.179650	0.333436
C60	C	-0.670848	0.153684	0.666770
C61	C	-0.548499	0.127219	0.000133
C62	C	-0.215166	0.460552	0.333467
C63	C	0.118168	0.793885	0.666800
C64	C	-0.674499	0.129668	0.000128
C65	C	-0.341166	0.463001	0.333462
C66	C	-0.007833	0.796335	0.666795
C67	C	-1.333078	0.301482	0.000104
C68	C	-0.999745	0.634815	0.333437
C69	C	-0.666412	0.968148	0.666770
C70	C	-1.335535	0.403871	0.000095
C71	C	-1.002202	0.737204	0.333428
C72	C	-0.668868	1.070537	0.666762
N73	N	-1.340989	0.132906	0.318947
N74	N	-1.007656	0.466239	0.652280
N75	N	-0.674322	0.799573	0.985613
C76	C	-1.341004	0.132918	0.569953
C77	C	-1.007670	0.466251	0.903286
C78	C	-0.674337	0.799584	1.236619
C79	C	-1.340992	0.132914	0.430275
C80	C	-1.007658	0.466247	0.763608
C81	C	-0.674325	0.799581	1.096942
N82	N	-1.341022	0.132918	0.681290
N83	N	-1.007689	0.466252	1.014624
N84	N	-0.674355	0.799585	1.347957
