data_functionalizedCrystal
_audit_creation_method	'MofGen! by Chris Wilmer'
_symmetry_space_group_name_H-M	'P1'
_symmetry_Int_Tables_number	1
_symmetry_cell_setting	triclinic
loop_
_symmetry_equiv_pos_as_xyz
  x,y,z
_cell_length_a	6.817900
_cell_length_b	17.982959
_cell_length_c	19.453114
_cell_angle_alpha	96.125663
_cell_angle_beta	101.709288
_cell_angle_gamma	102.451857
loop_
_atom_site_label
_atom_site_type_symbol
_atom_site_fract_x
_atom_site_fract_y
_atom_site_fract_z
V1	V	-4.001683	-0.106207	-0.219294
O2	O	-3.994949	0.004287	-0.214818
O3	O	-3.948298	-0.209805	-0.218085
O4	O	-3.944659	-0.104931	-0.314804
O5	O	-3.998613	-0.101313	-0.117430
V6	V	-4.487074	-0.092948	-0.207075
O7	O	-4.258843	-0.135291	-0.246098
O8	O	-4.680111	-0.063864	-0.180272
O9	O	-4.317253	0.010650	-0.208285
O10	O	-4.611205	-0.203442	-0.211552
O11	O	-4.607541	-0.097842	-0.308940
O12	O	-4.320891	-0.094224	-0.111566
C13	C	-3.792365	-0.235049	-0.214700
C14	C	-3.829945	-0.319745	-0.214348
C15	C	-3.787723	-0.101271	-0.338074
C16	C	-3.822350	-0.100914	-0.416156
C17	C	-4.029200	-0.363428	-0.217697
C18	C	-4.064502	-0.443009	-0.217370
C19	C	-3.900543	-0.478904	-0.213689
C20	C	-3.701272	-0.435215	-0.210342
C21	C	-3.665976	-0.355636	-0.210674
C22	C	-3.843613	-0.756146	-0.209004
C23	C	-3.878925	-0.835730	-0.208670
C24	C	-4.242139	-0.843518	-0.215700
C25	C	-4.206843	-0.763939	-0.216032
C26	C	-4.007579	-0.720258	-0.212689
C27	C	-3.969304	-0.633968	-0.213045
C28	C	-3.938812	-0.565192	-0.213328
C29	C	-4.020216	-0.104570	-0.456423
C30	C	-4.052753	-0.104234	-0.529789
C31	C	-3.887420	-0.100258	-0.562886
C32	C	-3.689524	-0.096596	-0.522609
C33	C	-3.656989	-0.096924	-0.449244
N34	N	-3.825741	-0.140493	-0.681788
N35	N	-3.856661	-0.140184	-0.751482
C36	C	-3.985434	-0.099267	-0.783932
N37	N	-4.082155	-0.058682	-0.744056
N38	N	-4.051239	-0.058996	-0.674356
C39	C	-3.922678	-0.099901	-0.642439
C40	C	-4.218592	-0.102559	-0.903751
C41	C	-4.251119	-0.102218	-0.977117
C42	C	-3.887888	-0.094588	-0.969938
C43	C	-3.855363	-0.094921	-0.896572
C44	C	-4.020724	-0.098910	-0.863483
C45	C	-4.136528	0.035890	-0.211668
C46	C	-4.078185	0.120585	-0.212024
C47	C	-4.141170	-0.097886	-0.088292
C48	C	-4.085781	-0.098240	-0.010210
H49	H	-4.226752	-0.478573	-0.220098
H50	H	-4.154868	-0.107815	-0.429487
H51	H	-4.213887	-0.107216	-0.562581
O52	O	-3.529028	-0.092634	-0.554823
C53	C	-3.320781	-0.021464	-0.623742
C54	C	-3.502623	-0.025872	-0.587308
H55	H	-3.299347	0.032517	-0.650003
H56	H	-3.354458	-0.074679	-0.665797
H57	H	-3.173810	-0.018946	-0.582349
H58	H	-3.649672	-0.028366	-0.628648
H59	H	-3.468769	0.027342	-0.545239
O60	O	-4.365981	-0.729015	-0.219482
C61	C	-4.504701	-0.633096	-0.162800
C62	C	-4.324355	-0.672593	-0.158792
H63	H	-4.471090	-0.587459	-0.113746
H64	H	-4.653223	-0.677948	-0.165095
H65	H	-4.523244	-0.604604	-0.212561
H66	H	-4.305622	-0.701083	-0.109036
H67	H	-4.175929	-0.627708	-0.156536
H68	H	-3.681363	-0.720589	-0.206278
H69	H	-3.495857	-0.093941	-0.416457
O70	O	-3.472315	-0.313211	-0.207292
C71	C	-3.118856	-0.271673	-0.140243
C72	C	-3.338091	-0.319734	-0.143972
H73	H	-3.010267	-0.276944	-0.089061
H74	H	-3.121646	-0.208612	-0.141066
H75	H	-3.062326	-0.293928	-0.187876
H76	H	-3.394755	-0.297547	-0.096349
H77	H	-3.335175	-0.382788	-0.143183
H78	H	-4.353238	-0.105804	-0.876809
O79	O	-3.719648	-0.870613	-0.204975
C80	C	-3.516602	-0.945418	-0.139382
C81	C	-3.696982	-0.905931	-0.143473
H82	H	-3.498246	-0.973996	-0.089670
H83	H	-3.368031	-0.900554	-0.137005
H84	H	-3.550087	-0.990986	-0.188481
H85	H	-3.663696	-0.860368	-0.094387
H86	H	-3.845496	-0.950840	-0.145886
H87	H	-4.404393	-0.879093	-0.218423
O88	O	-4.443298	-0.105868	-1.016324
C89	C	-4.724989	-0.176299	-1.113007
C90	C	-4.507322	-0.172250	-1.068674
H91	H	-4.776836	-0.229973	-1.155333
H92	H	-4.721829	-0.122776	-1.139738
H93	H	-4.837513	-0.179170	-1.076731
H94	H	-4.394676	-0.169405	-1.104901
H95	H	-4.510649	-0.225772	-1.041935
O96	O	-4.188362	-0.328494	-0.221364
C97	C	-4.391591	-0.253778	-0.287004
C98	C	-4.211255	-0.293286	-0.282928
H99	H	-4.410185	-0.225316	-0.336782
H100	H	-4.358184	-0.208140	-0.237962
H101	H	-4.540020	-0.298682	-0.289307
H102	H	-4.062750	-0.248439	-0.280647
H103	H	-4.244839	-0.338939	-0.331969
O104	O	-3.663301	-0.091525	-0.857418
C105	C	-3.449948	-0.153935	-0.780245
C106	C	-3.667580	-0.157846	-0.824529
H107	H	-3.453326	-0.207557	-0.753654
H108	H	-3.397899	-0.100355	-0.737809
H109	H	-3.337456	-0.151018	-0.816534
H110	H	-3.780222	-0.160793	-0.788296
H111	H	-3.719457	-0.211418	-0.866971
H112	H	-3.567779	-0.464448	-0.207350
H113	H	-3.753266	-0.091343	-0.996884
