data_functionalizedCrystal
_audit_creation_method	'MofGen! by Chris Wilmer'
_symmetry_space_group_name_H-M	'P1'
_symmetry_Int_Tables_number	1
_symmetry_cell_setting	triclinic
loop_
_symmetry_equiv_pos_as_xyz
  x,y,z
_cell_length_a	16.120566
_cell_length_b	16.120484
_cell_length_c	16.120297
_cell_angle_alpha	95.614431
_cell_angle_beta	89.874982
_cell_angle_gamma	89.831930
loop_
_atom_site_label
_atom_site_type_symbol
_atom_site_fract_x
_atom_site_fract_y
_atom_site_fract_z
Zn1	Zn	-1.224984	-0.422255	-0.554879
Zn2	Zn	-0.724984	0.077745	-0.054879
Zn3	Zn	-1.224880	-0.554939	-0.422184
Zn4	Zn	-0.724880	-0.054939	0.077816
Zn5	Zn	-1.093724	-0.408172	-0.408115
Zn6	Zn	-0.593724	0.091828	0.091885
Zn7	Zn	-1.078877	-0.554173	-0.554109
Zn8	Zn	-0.578877	-0.054173	-0.054109
O9	O	-1.155616	-0.484885	-0.484822
O10	O	-0.655616	0.015115	0.015178
O11	O	-1.341006	-0.446070	-0.543487
O12	O	-0.841006	0.053930	-0.043487
O13	O	-1.213651	-0.529897	-0.303685
O14	O	-0.713651	-0.029897	0.196315
O15	O	-1.117393	-0.293409	-0.422018
O16	O	-0.617393	0.206591	0.077982
O17	O	-1.340929	-0.543553	-0.445997
O18	O	-0.840929	-0.043553	0.054003
O19	O	-1.213829	-0.303756	-0.529845
O20	O	-0.713829	0.196244	-0.029845
O21	O	-1.117292	-0.422067	-0.293349
O22	O	-0.617292	0.077933	0.206651
O23	O	-0.975719	-0.421324	-0.421271
O24	O	-0.475719	0.078676	0.078729
O25	O	-1.092089	-0.542247	-0.670843
O26	O	-0.592089	-0.042247	-0.170843
O27	O	-0.964811	-0.528591	-0.528532
O28	O	-0.464811	-0.028591	-0.028532
O29	O	-1.199433	-0.445327	-0.671409
O30	O	-0.699433	0.054673	-0.171409
O31	O	-1.199255	-0.671468	-0.445250
O32	O	-0.699255	-0.171468	0.054750
O33	O	-1.091988	-0.670905	-0.542174
O34	O	-0.591988	-0.170905	-0.042174
C35	C	-0.940178	-0.473347	-0.473291
C36	C	-0.440178	0.026653	0.026709
C37	C	-0.848011	-0.468432	-0.468379
C38	C	-0.348011	0.031568	0.031621
C39	C	-1.144021	-0.701429	-0.495174
C40	C	-0.644021	-0.201429	0.004826
C41	C	-1.139134	-0.794074	-0.499635
C42	C	-0.639134	-0.294074	0.000365
C43	C	-0.679260	-0.459439	-0.459418
C44	C	-0.179260	0.040561	0.040582
C45	C	-0.632809	-0.510402	-0.510236
C46	C	-0.132809	-0.010402	-0.010236
C47	C	-0.538910	-0.505398	-0.505249
C48	C	-0.038910	-0.005398	-0.005249
C49	C	-0.773167	-0.464442	-0.464403
C50	C	-0.273167	0.035558	0.035597
C51	C	-0.371896	-0.496470	-0.496384
C52	C	0.128104	0.003530	0.003616
C53	C	-0.464063	-0.501412	-0.501277
C54	C	0.035937	-0.001412	-0.001277
C55	C	-1.130217	-0.963697	-0.507797
C56	C	-0.630217	-0.463697	-0.007797
C57	C	-1.181163	-1.005240	-0.461868
C58	C	-0.681163	-0.505240	0.038132
C59	C	-1.176202	-1.099624	-0.466409
C60	C	-0.676202	-0.599624	0.033591
C61	C	-1.135178	-0.869304	-0.503257
C62	C	-0.635178	-0.369304	-0.003257
C63	C	-1.144117	-0.495272	-0.702213
C64	C	-0.644117	0.004728	-0.202213
C65	C	-1.139216	-0.499699	-0.794853
C66	C	-0.639216	0.000301	-0.294853
C67	C	-1.167279	-0.267496	-0.474448
C68	C	-0.667279	0.232504	0.025552
C69	C	-1.172249	-0.174858	-0.470027
C70	C	-0.672249	0.325142	0.029973
C71	C	-1.130240	-0.507761	-0.964463
C72	C	-0.630240	-0.007761	-0.464463
C73	C	-1.181169	-0.461767	-1.006028
C74	C	-0.681169	0.038233	-0.506028
C75	C	-1.176175	-0.466253	-1.100406
C76	C	-0.676175	0.033747	-0.600406
C77	C	-1.135233	-0.503276	-0.870078
C78	C	-0.635233	-0.003276	-0.370078
C79	C	-1.167122	-0.474480	-0.268275
C80	C	-0.667122	0.025520	0.231725
C81	C	-1.172196	-0.469827	-0.175634
C82	C	-0.672196	0.030173	0.324366
H83	H	-0.648509	-0.412055	-0.412169
H84	H	-0.148509	0.087945	0.087831
H85	H	-1.228521	-0.419021	-0.970734
H86	H	-0.728521	0.080979	-0.470734
O87	O	-1.067522	-0.564381	-1.011211
O88	O	-0.567522	-0.064381	-0.511211
H89	H	-1.030977	-0.597382	-0.966206
H90	H	-0.530977	-0.097382	-0.466206
H91	H	-0.663561	-0.557789	-0.557488
H92	H	-0.163561	-0.057789	-0.057488
O93	O	-1.243874	-0.958467	-0.405258
O94	O	-0.743874	-0.458467	0.094742
H95	H	-1.237975	-0.890599	-0.410523
H96	H	-0.737975	-0.390599	0.089477
O97	O	-1.067494	-1.010468	-0.564384
O98	O	-0.567494	-0.510468	-0.064384
H99	H	-1.073384	-1.078334	-0.559100
H100	H	-0.573384	-0.578334	-0.059100
