data_functionalizedCrystal
_audit_creation_method	'MofGen! by Chris Wilmer'
_symmetry_space_group_name_H-M	'P1'
_symmetry_Int_Tables_number	1
_symmetry_cell_setting	triclinic
loop_
_symmetry_equiv_pos_as_xyz
  x,y,z
_cell_length_a	19.188925
_cell_length_b	19.188930
_cell_length_c	17.666332
_cell_angle_alpha	89.988397
_cell_angle_beta	89.989697
_cell_angle_gamma	83.143665
loop_
_atom_site_label
_atom_site_type_symbol
_atom_site_fract_x
_atom_site_fract_y
_atom_site_fract_z
O1	O	0.926152	0.087151	-0.062973
O2	O	1.426152	0.587151	0.437027
O3	O	0.722840	0.098889	-0.062972
O4	O	1.222840	0.598889	0.437028
O5	O	0.830363	-0.008636	-0.062958
O6	O	1.330363	0.491364	0.437042
O7	O	0.818629	0.194676	-0.062987
O8	O	1.318629	0.694676	0.437013
O9	O	0.830344	-0.008642	0.062939
O10	O	1.330344	0.491358	0.562939
O11	O	0.722821	0.098883	0.062925
O12	O	1.222821	0.598883	0.562925
O13	O	0.926133	0.087145	0.062924
O14	O	1.426133	0.587145	0.562924
Cu15	Cu	0.824476	0.093014	0.074419
Cu16	Cu	1.324476	0.593014	0.574419
Cu17	Cu	0.824498	0.093020	-0.074468
Cu18	Cu	1.324498	0.593020	0.425532
O19	O	0.818610	0.194670	0.062909
O20	O	1.318610	0.694670	0.562909
C21	C	0.696820	0.098507	-0.000023
C22	C	1.196820	0.598507	0.499977
C23	C	0.619315	0.097367	-0.000022
C24	C	1.119315	0.597367	0.499978
C25	C	0.057545	0.152831	-0.000032
C26	C	0.557545	0.652831	0.499968
C27	C	0.130368	0.153908	-0.000037
C28	C	0.630368	0.653908	0.499963
C29	C	0.175302	0.090816	-0.000026
C30	C	0.675302	0.590816	0.499974
C31	C	0.147408	0.026642	-0.000031
C32	C	0.647408	0.526642	0.499969
C33	C	0.074586	0.025568	-0.000034
C34	C	0.574586	0.525568	0.499966
N35	N	0.295973	0.045138	0.042837
N36	N	0.795973	0.545138	0.542837
N37	N	0.365150	0.046163	0.042842
N38	N	0.865150	0.546163	0.542842
C39	C	0.394712	0.094050	-0.000018
C40	C	0.894712	0.594050	0.499982
N41	N	0.352481	0.140883	-0.042872
N42	N	0.852481	0.640883	0.457128
N43	N	0.283297	0.139860	-0.042874
N44	N	0.783297	0.639860	0.457126
C45	C	0.254267	0.091974	-0.000023
C46	C	0.754267	0.591974	0.499977
C47	C	0.501561	0.159386	-0.000023
C48	C	1.001561	0.659386	0.499977
C49	C	0.574385	0.160460	-0.000032
C50	C	1.074385	0.660460	0.499968
C51	C	0.591425	0.033193	-0.000018
C52	C	1.091425	0.533193	0.499982
C53	C	0.518601	0.032121	-0.000017
C54	C	1.018601	0.532121	0.499983
C55	C	0.473673	0.095220	-0.000016
C56	C	0.973673	0.595220	0.499984
C57	C	0.829974	-0.034650	-0.000007
C58	C	1.329974	0.465350	0.499993
C59	C	0.828833	-0.112154	-0.000001
C60	C	1.328833	0.387846	0.499999
C61	C	0.891924	-0.157079	0.000003
C62	C	1.391924	0.342921	0.500003
C63	C	0.890852	-0.229903	-0.000010
C64	C	1.390852	0.270097	0.499990
C65	C	0.826686	-0.257799	-0.000010
C66	C	1.326686	0.242201	0.499990
C67	C	0.763587	-0.212864	-0.000017
C68	C	1.263587	0.287136	0.499983
C69	C	0.764660	-0.140041	-0.000013
C70	C	1.264660	0.359959	0.499987
N71	N	0.777632	-0.365805	0.042835
N72	N	1.277632	0.134195	0.542835
N73	N	0.776617	-0.434983	0.042833
N74	N	1.276617	0.065017	0.542833
C75	C	0.823448	-0.477207	-0.000025
C76	C	1.323448	0.022793	0.499975
N77	N	0.871344	-0.447641	-0.042871
N78	N	1.371344	0.052359	0.457129
N79	N	0.872361	-0.378456	-0.042865
N80	N	1.372361	0.121544	0.457135
C81	C	0.825515	-0.336761	-0.000015
C82	C	1.325515	0.163239	0.499985
C83	C	0.885381	-0.601097	-0.000036
C84	C	1.385381	-0.101097	0.499964
C85	C	0.884307	-0.673922	-0.000053
C86	C	1.384307	-0.173922	0.499947
C87	C	0.757040	-0.656880	-0.000053
C88	C	1.257040	-0.156880	0.499947
C89	C	0.758116	-0.584057	-0.000044
C90	C	1.258116	-0.084057	0.499956
C91	C	0.822289	-0.556170	-0.000032
C92	C	1.322289	-0.056170	0.499968
C93	C	0.952154	0.087527	-0.000027
C94	C	1.452154	0.587527	0.499973
C95	C	1.029658	0.088666	-0.000033
C96	C	1.529658	0.588666	0.499967
C97	C	0.819000	0.220684	-0.000043
C98	C	1.319000	0.720684	0.499957
C99	C	0.820140	0.298188	-0.000054
C100	C	1.320140	0.798188	0.499946
N101	N	0.824465	0.093008	0.179139
N102	N	1.324465	0.593008	0.679139
N103	N	0.824514	0.093020	-0.179187
N104	N	1.324514	0.593020	0.320813
C105	C	0.872092	0.045420	0.218755
C106	C	1.372092	0.545420	0.718755
C107	C	0.872096	0.045416	0.298003
C108	C	1.372096	0.545416	0.798003
C109	C	0.824480	0.093014	0.337631
C110	C	1.324480	0.593014	0.837631
C111	C	0.776844	0.140606	0.298005
C112	C	1.276844	0.640606	0.798005
C113	C	0.776837	0.140604	0.218759
C114	C	1.276837	0.640604	0.718759
N115	N	0.815404	0.154821	0.462041
N116	N	1.315404	0.654821	0.962041
N117	N	0.815415	0.154821	0.537321
N118	N	1.315415	0.654821	1.037321
C119	C	0.824498	0.093023	0.576395
C120	C	1.324498	0.593023	1.076395
N121	N	0.833584	0.031223	0.537345
N122	N	1.333584	0.531223	1.037345
N123	N	0.833576	0.031223	0.462057
N124	N	1.333576	0.531223	0.962057
C125	C	0.824482	0.093022	0.423560
C126	C	1.324482	0.593022	0.923560
C127	C	0.872132	0.045427	0.701940
C128	C	1.372132	0.545427	1.201940
C129	C	0.872131	0.045423	0.781190
C130	C	1.372131	0.545423	1.281190
C131	C	0.776883	0.140619	0.781191
C132	C	1.276883	0.640619	1.281191
C133	C	0.776880	0.140617	0.701943
C134	C	1.276880	0.640617	1.201943
C135	C	0.824509	0.093022	0.662323
C136	C	1.324509	0.593022	1.162323
H137	H	0.051883	-0.026685	-0.000035
H138	H	0.551883	0.473315	0.499965
Cl139	Cl	0.001068	0.232156	-0.000041
Cl140	Cl	0.501068	0.732156	0.499959
Cl141	Cl	0.716960	0.200435	0.168953
Cl142	Cl	1.216960	0.700435	0.668953
Cl143	Cl	0.483542	-0.048549	-0.000020
Cl144	Cl	0.983542	0.451451	0.499980
Cl145	Cl	0.932005	-0.014412	0.830996
Cl146	Cl	1.432005	0.485588	1.330996
Cl147	Cl	0.609442	0.241132	-0.000039
Cl148	Cl	1.109442	0.741132	0.499961
H149	H	0.711342	-0.235581	-0.000019
H150	H	1.211342	0.264419	0.499981
Cl151	Cl	0.676372	-0.691942	-0.000058
Cl152	Cl	1.176372	-0.191942	0.499942
Cl153	Cl	0.970173	-0.286391	-0.000006
Cl154	Cl	1.470173	0.213609	0.499994
Cl155	Cl	0.931962	-0.014416	0.168947
Cl156	Cl	1.431962	0.485584	0.668947
H157	H	0.464978	0.210765	-0.000023
H158	H	0.964978	0.710765	0.499977
H159	H	0.628010	-0.018178	-0.000016
H160	H	1.128010	0.481822	0.499984
Cl161	Cl	0.972598	-0.122025	-0.000004
Cl162	Cl	1.472598	0.377975	0.499996
H163	H	0.738111	0.179371	0.813456
H164	H	1.238111	0.679371	1.313456
H165	H	0.713282	-0.103462	-0.000015
H166	H	1.213282	0.396538	0.499985
H167	H	0.706740	-0.547478	-0.000042
H168	H	1.206740	-0.047478	0.499958
Cl169	Cl	0.931975	-0.014415	0.347814
Cl170	Cl	1.431975	0.485585	0.847814
Cl171	Cl	0.717008	0.200449	0.652135
Cl172	Cl	1.217008	0.700449	1.152135
Cl173	Cl	0.716981	0.200440	0.347822
Cl174	Cl	1.216981	0.700440	0.847822
Cl175	Cl	0.165434	0.234579	-0.000034
Cl176	Cl	0.665434	0.734579	0.499966
Cl177	Cl	0.203896	-0.052674	-0.000021
Cl178	Cl	0.703896	0.447326	0.499979
H179	H	0.910911	0.006670	0.669680
H180	H	1.410911	0.506670	1.169680
H181	H	0.935686	-0.710500	-0.000054
H182	H	1.435686	-0.210500	0.499946
Cl183	Cl	0.966054	-0.566035	-0.000016
Cl184	Cl	1.466054	-0.066035	0.499984
