data_functionalizedCrystal
_audit_creation_method	'MofGen! by Chris Wilmer'
_symmetry_space_group_name_H-M	'P1'
_symmetry_Int_Tables_number	1
_symmetry_cell_setting	triclinic
loop_
_symmetry_equiv_pos_as_xyz
  x,y,z
_cell_length_a	12.827893
_cell_length_b	12.827892
_cell_length_c	12.759393
_cell_angle_alpha	89.969144
_cell_angle_beta	89.980487
_cell_angle_gamma	90.015363
loop_
_atom_site_label
_atom_site_type_symbol
_atom_site_fract_x
_atom_site_fract_y
_atom_site_fract_z
Zn1	Zn	1.597674	-0.415972	-0.594015
Zn2	Zn	1.931007	-0.082639	-0.260682
Zn3	Zn	2.264341	0.250694	0.072652
Zn4	Zn	1.597567	-0.590753	-0.418337
Zn5	Zn	1.930900	-0.257420	-0.085004
Zn6	Zn	2.264234	0.075914	0.248329
Zn7	Zn	1.422914	-0.416026	-0.418351
Zn8	Zn	1.756247	-0.082693	-0.085018
Zn9	Zn	2.089581	0.250640	0.248315
Zn10	Zn	1.422901	-0.590672	-0.593976
Zn11	Zn	1.756234	-0.257338	-0.260642
Zn12	Zn	2.089567	0.075995	0.072691
O13	O	1.510264	-0.503356	-0.506170
O14	O	1.843597	-0.170022	-0.172836
O15	O	2.176931	0.163311	0.160497
O16	O	1.743896	-0.439168	-0.570722
O17	O	2.077229	-0.105835	-0.237388
O18	O	2.410563	0.227498	0.095945
O19	O	1.574360	-0.567632	-0.271318
O20	O	1.907693	-0.234298	0.062015
O21	O	2.241026	0.099035	0.395349
O22	O	1.446147	-0.269783	-0.441676
O23	O	1.779480	0.063550	-0.108342
O24	O	2.112814	0.396884	0.224991
O25	O	1.743817	-0.567579	-0.441652
O26	O	2.077150	-0.234246	-0.108319
O27	O	2.410484	0.099088	0.225015
O28	O	1.574542	-0.269743	-0.570735
O29	O	1.907876	0.063590	-0.237402
O30	O	2.241209	0.396923	0.095932
O31	O	1.446043	-0.439261	-0.271328
O32	O	1.779376	-0.105927	0.062005
O33	O	2.112710	0.227406	0.395338
O34	O	1.276676	-0.439182	-0.441638
O35	O	1.610010	-0.105849	-0.108304
O36	O	1.943343	0.227484	0.225029
O37	O	1.446124	-0.567441	-0.741002
O38	O	1.779457	-0.234108	-0.407669
O39	O	2.112791	0.099226	-0.074335
O40	O	1.276666	-0.567493	-0.570668
O41	O	1.610000	-0.234160	-0.237335
O42	O	1.943333	0.099173	0.095999
O43	O	1.574529	-0.439090	-0.741031
O44	O	1.907863	-0.105757	-0.407698
O45	O	2.241196	0.227577	-0.074364
O46	O	1.574347	-0.736978	-0.441614
O47	O	1.907680	-0.403645	-0.108280
O48	O	2.241013	-0.070311	0.225053
O49	O	1.446020	-0.736919	-0.570655
O50	O	1.779353	-0.403585	-0.237321
O51	O	2.112687	-0.070252	0.096012
C52	C	1.238754	-0.503336	-0.506151
C53	C	1.572087	-0.170002	-0.172817
C54	C	1.905421	0.163331	0.160516
C55	C	1.122601	-0.503352	-0.506167
C56	C	1.455934	-0.170019	-0.172834
C57	C	1.789268	0.163314	0.160499
C58	C	0.950811	-0.439942	-0.570151
C59	C	1.284144	-0.106608	-0.236817
C60	C	1.617477	0.226725	0.096516
C61	C	1.070861	-0.439923	-0.570135
C62	C	1.404194	-0.106590	-0.236801
C63	C	1.737528	0.226743	0.096532
C64	C	1.510199	-0.774866	-0.506151
C65	C	1.843532	-0.441532	-0.172818
C66	C	2.176865	-0.108199	0.160515
C67	C	1.510266	-0.891019	-0.506178
C68	C	1.843600	-0.557685	-0.172845
C69	C	2.176933	-0.224352	0.160488
C70	C	1.573842	-0.942798	-0.442396
C71	C	1.907175	-0.609465	-0.109063
C72	C	2.240508	-0.276132	0.224271
C73	C	1.573913	-1.062849	-0.442423
C74	C	1.907246	-0.729515	-0.109089
C75	C	2.240580	-0.396182	0.224244
C76	C	1.782834	-0.503377	-0.506190
C77	C	2.116167	-0.170043	-0.172856
C78	C	2.449501	0.163290	0.160477
C79	C	1.898987	-0.503386	-0.506198
C80	C	2.232320	-0.170052	-0.172865
C81	C	2.565654	0.163281	0.160469
C82	C	1.510337	-0.503250	-0.780203
C83	C	1.843670	-0.169917	-0.446870
C84	C	2.177004	0.163416	-0.113537
C85	C	1.510368	-0.503205	-0.896980
C86	C	1.843702	-0.169872	-0.563647
C87	C	2.177035	0.163461	-0.230313
C88	C	1.510358	-0.230786	-0.506211
C89	C	1.843691	0.102548	-0.172878
C90	C	2.177025	0.435881	0.160455
C91	C	1.510398	-0.114632	-0.506229
C92	C	1.843731	0.218701	-0.172896
C93	C	2.177065	0.552034	0.160438
C94	C	1.577238	-0.436367	-0.951859
C95	C	1.910571	-0.103033	-0.618525
C96	C	2.243905	0.230300	-0.285192
C97	C	1.577263	-0.436329	-1.061583
C98	C	1.910596	-0.102996	-0.728250
C99	C	2.243930	0.230338	-0.394916
C100	C	1.443545	-0.569978	-1.061540
C101	C	1.776879	-0.236644	-0.728207
C102	C	2.110212	0.096689	-0.394873
C103	C	1.443516	-0.570009	-0.951818
C104	C	1.776849	-0.236676	-0.618484
C105	C	2.110183	0.096657	-0.285151
C106	C	1.654442	-0.359209	-0.951885
C107	C	1.987776	-0.025875	-0.618551
C108	C	2.321109	0.307458	-0.285218
C109	C	1.654467	-0.359171	-1.061609
C110	C	1.987800	-0.025838	-0.728275
C111	C	2.321134	0.307496	-0.394942
C112	C	1.510251	-0.503385	-0.233202
C113	C	1.843585	-0.170052	0.100131
C114	C	2.176918	0.163281	0.433464
C115	C	1.510422	-0.503136	-0.116426
C116	C	1.843756	-0.169803	0.216907
C117	C	2.177089	0.163531	0.550240
H118	H	0.906302	-0.385643	-0.624918
H119	H	1.239635	-0.052310	-0.291585
H120	H	1.572969	0.281023	0.041748
H121	H	1.455962	-1.070111	-0.560835
H122	H	1.789295	-0.736778	-0.227502
H123	H	2.122628	-0.403444	0.105832
F124	F	1.616501	-0.258709	-1.106116
F125	F	1.949834	0.074624	-0.772782
F126	F	2.283168	0.407957	-0.439449
H127	H	1.455894	-0.935565	-0.560809
H128	H	1.789227	-0.602232	-0.227476
H129	H	2.122561	-0.268898	0.105858
H130	H	1.389060	-0.624432	-0.907140
H131	H	1.722394	-0.291099	-0.573806
H132	H	2.055727	0.042234	-0.240473
H133	H	0.943496	-0.557694	-0.451440
H134	H	1.276829	-0.224361	-0.118107
H135	H	1.610163	0.108972	0.215227
F136	F	1.645054	-1.121048	-0.371040
F137	F	1.978387	-0.787714	-0.037706
F138	F	2.311720	-0.454381	0.295627
H139	H	1.389114	-0.624365	-1.106202
H140	H	1.722448	-0.291031	-0.772869
H141	H	2.055781	0.042302	-0.439535
F142	F	1.760256	-0.387491	-1.100539
F143	F	2.093589	-0.054158	-0.767205
F144	F	2.426923	0.279176	-0.433872
F145	F	1.626142	-0.253430	-0.912984
F146	F	1.959476	0.079903	-0.579651
F147	F	2.292809	0.413236	-0.246318
F148	F	1.754902	-0.397126	-0.907394
F149	F	2.088235	-0.063793	-0.574061
F150	F	2.421569	0.269541	-0.240727
F151	F	1.064359	-0.574348	-0.434592
F152	F	1.397693	-0.241015	-0.101258
F153	F	1.731026	0.092318	0.232075
F154	F	1.129109	-0.368919	-0.641697
F155	F	1.462442	-0.035586	-0.308364
F156	F	1.795776	0.297747	0.024970
H157	H	1.628223	-0.898255	-0.387773
H158	H	1.961556	-0.564921	-0.054439
H159	H	2.294889	-0.231588	0.278894
