data_functionalizedCrystal
_audit_creation_method	'MofGen! by Chris Wilmer'
_symmetry_space_group_name_H-M	'P1'
_symmetry_Int_Tables_number	1
_symmetry_cell_setting	triclinic
loop_
_symmetry_equiv_pos_as_xyz
  x,y,z
_cell_length_a	19.805407
_cell_length_b	19.805405
_cell_length_c	19.805407
_cell_angle_alpha	90.012351
_cell_angle_beta	90.010057
_cell_angle_gamma	90.028666
loop_
_atom_site_label
_atom_site_type_symbol
_atom_site_fract_x
_atom_site_fract_y
_atom_site_fract_z
Zn1	Zn	1.034665	-0.269539	0.382739
Zn2	Zn	1.367998	0.063794	0.716072
Zn3	Zn	1.701332	0.397128	1.049406
Zn4	Zn	1.034600	-0.382699	0.269553
Zn5	Zn	1.367933	-0.049366	0.602886
Zn6	Zn	1.701266	0.283967	0.936219
Zn7	Zn	0.921500	-0.269533	0.269562
Zn8	Zn	1.254833	0.063800	0.602895
Zn9	Zn	1.588167	0.397133	0.936229
Zn10	Zn	0.921443	-0.382695	0.382698
Zn11	Zn	1.254776	-0.049362	0.716031
Zn12	Zn	1.588109	0.283971	1.049365
O13	O	0.978052	-0.326117	0.326138
O14	O	1.311385	0.007217	0.659471
O15	O	1.644719	0.340550	0.992805
O16	O	1.129373	-0.284554	0.367738
O17	O	1.462706	0.048779	0.701071
O18	O	1.796040	0.382113	1.034405
O19	O	1.019594	-0.367687	0.174837
O20	O	1.352927	-0.034354	0.508171
O21	O	1.686260	0.298980	0.841504
O22	O	0.936563	-0.174818	0.284596
O23	O	1.269896	0.158516	0.617930
O24	O	1.603230	0.491849	0.951263
O25	O	1.129325	-0.367692	0.284581
O26	O	1.462658	-0.034359	0.617914
O27	O	1.795992	0.298974	0.951247
O28	O	1.019705	-0.174822	0.367747
O29	O	1.353038	0.158512	0.701080
O30	O	1.686372	0.491845	1.034414
O31	O	0.936500	-0.284544	0.174844
O32	O	1.269833	0.048789	0.508178
O33	O	1.603166	0.382122	0.841511
O34	O	0.826776	-0.284541	0.284556
O35	O	1.160109	0.048793	0.617890
O36	O	1.493443	0.382126	0.951223
O37	O	0.936465	-0.367686	0.477420
O38	O	1.269798	-0.034352	0.810753
O39	O	1.603132	0.298981	1.144087
O40	O	0.826734	-0.367680	0.367677
O41	O	1.160067	-0.034347	0.701010
O42	O	1.493400	0.298987	1.034343
O43	O	1.019649	-0.284550	0.477450
O44	O	1.352982	0.048783	0.810784
O45	O	1.686316	0.382116	1.144117
O46	O	1.019538	-0.477415	0.284541
O47	O	1.352871	-0.144082	0.617874
O48	O	1.686204	0.189251	0.951207
O49	O	0.936402	-0.477412	0.367668
O50	O	1.269735	-0.144079	0.701001
O51	O	1.603068	0.189254	1.034334
C52	C	0.802196	-0.326110	0.326114
C53	C	1.135529	0.007224	0.659447
C54	C	1.468862	0.340557	0.992780
C55	C	0.726964	-0.326123	0.326119
C56	C	1.060297	0.007210	0.659452
C57	C	1.393631	0.340544	0.992786
C58	C	0.977975	-0.501973	0.326113
C59	C	1.311308	-0.168640	0.659447
C60	C	1.644641	0.164694	0.992780
C61	C	0.978004	-0.577205	0.326126
C62	C	1.311337	-0.243871	0.659459
C63	C	1.644670	0.089462	0.992792
C64	C	0.265201	-0.282908	0.369531
C65	C	0.598535	0.050426	0.702864
C66	C	0.931868	0.383759	1.036197
C67	C	0.335890	-0.282909	0.369526
C68	C	0.669223	0.050424	0.702859
C69	C	1.002556	0.383758	1.036192
C70	C	0.371202	-0.326127	0.326160
C71	C	0.704535	0.007206	0.659493
C72	C	1.037869	0.340540	0.992826
C73	C	0.335822	-0.369352	0.282801
C74	C	0.669156	-0.036018	0.616134
C75	C	1.002489	0.297315	0.949468
C76	C	0.265135	-0.369353	0.282810
C77	C	0.598469	-0.036020	0.616143
C78	C	0.931802	0.297313	0.949476
C79	C	0.620896	-0.369346	0.282765
C80	C	0.954229	-0.036013	0.616098
C81	C	1.287562	0.297320	0.949432
C82	C	0.691588	-0.369340	0.282758
C83	C	1.024921	-0.036007	0.616092
C84	C	1.358254	0.297327	0.949425
C85	C	0.691650	-0.282902	0.369481
C86	C	1.024983	0.050431	0.702814
C87	C	1.358317	0.383765	1.036148
C88	C	0.620963	-0.282904	0.369490
C89	C	0.954296	0.050430	0.702823
C90	C	1.287630	0.383763	1.036156
C91	C	0.585589	-0.326131	0.326134
C92	C	0.918923	0.007203	0.659467
C93	C	1.252256	0.340536	0.992800
C94	C	0.508941	-0.326130	0.326140
C95	C	0.842274	0.007204	0.659474
C96	C	1.175608	0.340537	0.992807
C97	C	0.447849	-0.326125	0.326149
C98	C	0.781183	0.007208	0.659483
C99	C	1.114516	0.340542	0.992816
C100	C	1.021270	-0.612493	0.369456
C101	C	1.354603	-0.279160	0.702789
C102	C	1.687937	0.054174	1.036123
C103	C	1.021294	-0.683181	0.369469
C104	C	1.354628	-0.349848	0.702802
C105	C	1.687961	-0.016515	1.036135
C106	C	0.978055	-0.718580	0.326147
C107	C	1.311389	-0.385247	0.659480
C108	C	1.644722	-0.051914	0.992814
C109	C	0.934784	-0.683287	0.282814
C110	C	1.268118	-0.349954	0.616148
C111	C	1.601451	-0.016621	0.949481
C112	C	0.934757	-0.612600	0.282806
C113	C	1.268090	-0.279267	0.616139
C114	C	1.601424	0.054066	0.949472
C115	C	0.934893	-0.968361	0.282849
C116	C	1.268226	-0.635027	0.616183
C117	C	1.601560	-0.301694	0.949516
C118	C	0.934925	-1.039053	0.282860
C119	C	1.268258	-0.705719	0.616193
C120	C	1.601592	-0.372386	0.949526
C121	C	1.021430	-1.038942	0.369512
C122	C	1.354764	-0.705608	0.702845
C123	C	1.688097	-0.372275	1.036179
C124	C	1.021403	-0.968255	0.369503
C125	C	1.354736	-0.634921	0.702837
C126	C	1.688070	-0.301588	1.036170
C127	C	0.978130	-0.932968	0.326174
C128	C	1.311463	-0.599634	0.659507
C129	C	1.644796	-0.266301	0.992840
C130	C	0.978103	-0.856319	0.326162
C131	C	1.311436	-0.522986	0.659495
C132	C	1.644770	-0.189653	0.992828
C133	C	0.978085	-0.795228	0.326155
C134	C	1.311419	-0.461894	0.659489
C135	C	1.644752	-0.128561	0.992822
C136	C	1.154595	-0.326124	0.326163
C137	C	1.487928	0.007209	0.659496
C138	C	1.821261	0.340542	0.992830
C139	C	1.229827	-0.326128	0.326174
C140	C	1.563160	0.007206	0.659507
C141	C	1.896493	0.340539	0.992840
C142	C	0.978058	-0.326118	0.502681
C143	C	1.311391	0.007215	0.836014
C144	C	1.644725	0.340549	1.169347
C145	C	0.978060	-0.326119	0.577913
C146	C	1.311394	0.007215	0.911246
C147	C	1.644727	0.340548	1.244579
C148	C	0.978148	-0.149574	0.326177
C149	C	1.311481	0.183759	0.659511
C150	C	1.644814	0.517093	0.992844
C151	C	0.978189	-0.074342	0.326194
C152	C	1.311522	0.258991	0.659527
C153	C	1.644855	0.592325	0.992861
C154	C	1.021369	-0.282837	0.613274
C155	C	1.354702	0.050497	0.946607
C156	C	1.688036	0.383830	1.279940
C157	C	1.021363	-0.282835	0.683962
C158	C	1.354696	0.050499	1.017295
C159	C	1.688030	0.383832	1.350629
C160	C	0.978052	-0.326119	0.719288
C161	C	1.311385	0.007215	1.052622
C162	C	1.644718	0.340548	1.385955
C163	C	0.934738	-0.369402	0.683922
C164	C	1.268072	-0.036069	1.017256
C165	C	1.601405	0.297264	1.350589
C166	C	0.934741	-0.369401	0.613235
C167	C	1.268075	-0.036067	0.946568
C168	C	1.601408	0.297266	1.279902
C169	C	0.934725	-0.369410	0.968996
C170	C	1.268058	-0.036077	1.302329
C171	C	1.601392	0.297256	1.635662
C172	C	0.934727	-0.369410	1.039688
C173	C	1.268060	-0.036077	1.373021
C174	C	1.601394	0.297256	1.706354
C175	C	1.021347	-0.282845	1.039723
C176	C	1.354680	0.050489	1.373056
C177	C	1.688014	0.383822	1.706389
C178	C	1.021350	-0.282843	0.969035
C179	C	1.354683	0.050491	1.302369
C180	C	1.688016	0.383824	1.635702
C181	C	0.978034	-0.326124	0.933676
C182	C	1.311368	0.007210	1.267009
C183	C	1.644701	0.340543	1.600342
C184	C	0.978040	-0.326124	0.857027
C185	C	1.311374	0.007209	1.190361
C186	C	1.644707	0.340542	1.523694
C187	C	0.978049	-0.326122	0.795935
C188	C	1.311382	0.007212	1.129269
C189	C	1.644715	0.340545	1.462602
C190	C	0.978039	-0.326129	1.150282
C191	C	1.311373	0.007204	1.483615
C192	C	1.644706	0.340537	1.816949
C193	C	0.978033	-0.326124	1.075050
C194	C	1.311366	0.007209	1.408383
C195	C	1.644699	0.340542	1.741717
H196	H	0.236455	-0.247710	0.404840
H197	H	0.569788	0.085623	0.738173
H198	H	0.903122	0.418956	1.071507
H199	H	0.720337	-0.404536	0.247443
H200	H	1.053671	-0.071203	0.580777
H201	H	1.387004	0.262130	0.914110
H202	H	0.899455	-0.404659	1.068448
H203	H	1.232788	-0.071325	1.401782
H204	H	1.566121	0.262008	1.735115
C205	C	0.581994	-0.416886	0.235067
C206	C	0.915327	-0.083552	0.568401
C207	C	1.248660	0.249781	0.901734
H208	H	0.613150	-0.442617	0.209234
H209	H	0.946484	-0.109283	0.542568
H210	H	1.279817	0.224050	0.875901
H211	H	0.554411	-0.446421	0.260905
H212	H	0.887744	-0.113088	0.594238
H213	H	1.221078	0.220245	0.927571
H214	H	0.554424	-0.390943	0.205623
H215	H	0.887758	-0.057609	0.538957
H216	H	1.221091	0.275724	0.872290
C217	C	0.887104	-0.417010	0.574335
C218	C	1.220437	-0.083676	0.907668
C219	C	1.553770	0.249657	1.241002
H220	H	0.893303	-0.410805	0.527177
H221	H	1.226636	-0.077471	0.860510
H222	H	1.559970	0.255862	1.193844
H223	H	0.896981	-0.462488	0.585909
H224	H	1.230314	-0.129155	0.919242
H225	H	1.563647	0.204178	1.252575
H226	H	0.841630	-0.407095	0.585913
H227	H	1.174963	-0.073762	0.919247
H228	H	1.508297	0.259572	1.252580
H229	H	0.592215	-0.247709	0.404800
H230	H	0.925548	0.085625	0.738134
H231	H	1.258882	0.418958	1.071467
H232	H	0.364579	-0.404543	0.247494
H233	H	0.697913	-0.071210	0.580828
H234	H	1.031246	0.262123	0.914161
C235	C	0.226223	-0.416894	0.235116
C236	C	0.559556	-0.083560	0.568449
C237	C	0.892890	0.249773	0.901782
H238	H	0.257377	-0.442629	0.209283
H239	H	0.590710	-0.109295	0.542616
H240	H	0.924043	0.224038	0.875949
H241	H	0.198642	-0.446425	0.260959
H242	H	0.531975	-0.113092	0.594292
H243	H	0.865308	0.220242	0.927626
H244	H	0.198652	-0.390953	0.205671
H245	H	0.531985	-0.057620	0.539004
H246	H	0.865319	0.275713	0.872338
H247	H	0.899465	-0.404662	0.940214
H248	H	1.232798	-0.071329	1.273547
H249	H	1.566132	0.262004	1.606881
C250	C	0.887356	-1.077994	0.235210
C251	C	1.220690	-0.744660	0.568543
C252	C	1.554023	-0.411327	0.901877
H253	H	0.893577	-1.125146	0.241418
H254	H	1.226910	-0.791813	0.574751
H255	H	1.560244	-0.458479	0.908085
H256	H	0.841867	-1.066449	0.245075
H257	H	1.175201	-0.733116	0.578408
H258	H	1.508534	-0.399783	0.911742
H259	H	0.897291	-1.066417	0.189737
H260	H	1.230624	-0.733084	0.523070
H261	H	1.563957	-0.399750	0.856403
C262	C	1.069009	-0.235221	0.574421
C263	C	1.402342	0.098113	0.907754
C264	C	1.735676	0.431446	1.241088
H265	H	1.094795	-0.209438	0.605608
H266	H	1.428129	0.123895	0.938941
H267	H	1.761462	0.457228	1.272274
H268	H	1.098489	-0.261108	0.546844
H269	H	1.431822	0.072226	0.880177
H270	H	1.765156	0.405559	1.213510
H271	H	1.043127	-0.205726	0.546851
H272	H	1.376460	0.127607	0.880184
H273	H	1.709794	0.460941	1.213517
C274	C	0.887165	-0.573780	0.235144
C275	C	1.220499	-0.240447	0.568477
C276	C	1.553832	0.092887	0.901810
H277	H	0.893336	-0.526612	0.241348
H278	H	1.226670	-0.193279	0.574681
H279	H	1.560003	0.140055	0.908015
H280	H	0.897107	-0.585369	0.189676
H281	H	1.230441	-0.252036	0.523010
H282	H	1.563774	0.081298	0.856343
H283	H	0.841684	-0.585403	0.245015
H284	H	1.175017	-0.252070	0.578348
H285	H	1.508350	0.081263	0.911681
C286	C	0.887219	-0.722221	0.235162
C287	C	1.220552	-0.388888	0.568496
C288	C	1.553886	-0.055555	0.901829
H289	H	0.861442	-0.691079	0.209360
H290	H	1.194776	-0.357746	0.542693
H291	H	1.528109	-0.024412	0.876026
H292	H	0.913142	-0.749784	0.205698
H293	H	1.246475	-0.416450	0.539031
H294	H	1.579809	-0.083117	0.872365
H295	H	0.857717	-0.749812	0.261035
H296	H	1.191050	-0.416479	0.594368
H297	H	1.524384	-0.083146	0.927701
C298	C	1.069006	-0.235228	0.722856
C299	C	1.402339	0.098105	1.056190
C300	C	1.735672	0.431439	1.389523
H301	H	1.094807	-0.209456	0.691694
H302	H	1.428140	0.123877	1.025027
H303	H	1.761474	0.457210	1.358360
H304	H	1.043133	-0.205733	0.750433
H305	H	1.376466	0.127600	1.083766
H306	H	1.709800	0.460934	1.417099
H307	H	1.098482	-0.261128	0.750431
H308	H	1.431815	0.072205	1.083764
H309	H	1.765149	0.405539	1.417098
H310	H	1.056483	-0.583676	0.404731
H311	H	1.389816	-0.250342	0.738064
H312	H	1.723150	0.082991	1.071397
C313	C	0.887304	-0.929554	0.235180
C314	C	1.220637	-0.596220	0.568513
C315	C	1.553970	-0.262887	0.901846
H316	H	0.861564	-0.960762	0.209375
H317	H	1.194898	-0.627429	0.542708
H318	H	1.528231	-0.294095	0.876042
H319	H	0.857778	-0.901994	0.261033
H320	H	1.191111	-0.568661	0.594367
H321	H	1.524445	-0.235328	0.927700
H322	H	0.913215	-0.901968	0.205708
H323	H	1.246548	-0.568635	0.539041
H324	H	1.579881	-0.235302	0.872375
C325	C	1.068990	-0.235228	0.930180
C326	C	1.402323	0.098105	1.263513
C327	C	1.735656	0.431438	1.596847
H328	H	1.094778	-0.209445	0.961365
H329	H	1.428111	0.123888	1.294698
H330	H	1.761445	0.457221	1.628031
H331	H	1.098468	-0.261117	0.902603
H332	H	1.431801	0.072216	1.235936
H333	H	1.765135	0.405549	1.569270
H334	H	1.043107	-0.205734	0.902609
H335	H	1.376441	0.127599	1.235943
H336	H	1.709774	0.460933	1.569276
H337	H	0.899471	-0.404642	0.712690
H338	H	1.232804	-0.071309	1.046024
H339	H	1.566138	0.262024	1.379357
H340	H	1.056531	-0.711910	0.404747
H341	H	1.389865	-0.378576	0.738081
H342	H	1.723198	-0.045243	1.071414
C343	C	1.068989	-0.235231	1.078620
C344	C	1.402323	0.098103	1.411953
C345	C	1.735656	0.431436	1.745287
H346	H	1.062782	-0.241424	1.125778
H347	H	1.396115	0.091910	1.459112
H348	H	1.729449	0.425243	1.792445
H349	H	1.114460	-0.245141	1.067042
H350	H	1.447794	0.088192	1.400376
H351	H	1.781127	0.421526	1.733709
H352	H	1.059107	-0.189750	1.067042
H353	H	1.392440	0.143583	1.400375
H354	H	1.725774	0.476916	1.733709
H355	H	1.056663	-1.067681	0.404795
H356	H	1.389997	-0.734347	0.738129
H357	H	1.723330	-0.401014	1.071462
C358	C	0.374799	-0.235362	0.417213
C359	C	0.708132	0.097972	0.750546
C360	C	1.041466	0.431305	1.083880
H361	H	0.343644	-0.209616	0.443034
H362	H	0.676978	0.123717	0.776367
H363	H	1.010311	0.457051	1.109700
H364	H	0.402372	-0.261292	0.446659
H365	H	0.735705	0.072041	0.779992
H366	H	1.069038	0.405374	1.113325
H367	H	0.402379	-0.205830	0.391362
H368	H	0.735712	0.127503	0.724695
H369	H	1.069046	0.460837	1.058028
C370	C	0.730563	-0.235360	0.417180
C371	C	1.063896	0.097973	0.750513
C372	C	1.397229	0.431307	1.083847
H373	H	0.777719	-0.241552	0.410972
H374	H	1.111052	0.091781	0.744306
H375	H	1.444386	0.425115	1.077639
H376	H	0.718998	-0.189868	0.407357
H377	H	1.052331	0.143465	0.740690
H378	H	1.385665	0.476799	1.074023
H379	H	0.718983	-0.245341	0.462643
H380	H	1.052317	0.087992	0.795976
H381	H	1.385650	0.421325	1.129309
H382	H	1.056615	-0.939435	0.404778
H383	H	1.389948	-0.606102	0.738111
H384	H	1.723281	-0.272768	1.071444
