data_functionalizedCrystal
_audit_creation_method	'MofGen! by Chris Wilmer'
_symmetry_space_group_name_H-M	'P1'
_symmetry_Int_Tables_number	1
_symmetry_cell_setting	triclinic
loop_
_symmetry_equiv_pos_as_xyz
  x,y,z
_cell_length_a	29.839135
_cell_length_b	29.839131
_cell_length_c	8.497374
_cell_angle_alpha	90.014356
_cell_angle_beta	90.006793
_cell_angle_gamma	90.043950
loop_
_atom_site_label
_atom_site_type_symbol
_atom_site_fract_x
_atom_site_fract_y
_atom_site_fract_z
Zn1	Zn	0.686681	-0.178901	0.892105
Zn2	Zn	0.686625	-0.254009	0.628280
Zn3	Zn	0.611575	-0.178897	0.628309
Zn4	Zn	0.611512	-0.254008	0.891988
O5	O	0.649098	-0.216453	0.760170
O6	O	0.749541	-0.188866	0.857145
O7	O	0.676672	-0.244043	0.407522
O8	O	0.621588	-0.116030	0.663363
O9	O	0.749499	-0.244047	0.663314
O10	O	0.676768	-0.116033	0.857172
O11	O	0.621534	-0.188859	0.407543
O12	O	0.548700	-0.188858	0.663250
O13	O	0.621480	-0.244046	1.112766
O14	O	0.548653	-0.244042	0.856974
O15	O	0.676707	-0.188866	1.112852
O16	O	0.676610	-0.316876	0.663201
O17	O	0.621425	-0.316875	0.856946
C18	C	0.532376	-0.216450	0.760103
C19	C	0.482441	-0.216459	0.760112
C20	C	0.172816	-0.187764	0.861247
C21	C	-0.014857	-0.187767	0.861292
O22	O	-0.039106	-0.163359	0.947206
N23	N	-0.038344	-0.216454	0.760228
C24	C	-0.014910	-0.245140	0.659139
O25	O	-0.039194	-0.269536	0.573168
C26	C	0.172762	-0.245134	0.659088
C27	C	0.196247	-0.216449	0.760169
C28	C	0.196301	-0.159081	0.962319
C29	C	0.243217	-0.159082	0.962312
C30	C	0.266647	-0.187767	0.861234
C31	C	0.243162	-0.216450	0.760163
C32	C	0.196195	-0.273817	0.557992
C33	C	0.243116	-0.273813	0.557985
C34	C	0.266601	-0.245127	0.659066
C35	C	0.313508	-0.245136	0.659079
N36	N	0.336996	-0.216449	0.760142
C37	C	0.313565	-0.187765	0.861220
C38	C	-0.113441	-0.245141	0.659176
C39	C	-0.160359	-0.245144	0.659190
C40	C	-0.160302	-0.187770	0.861341
C41	C	-0.113383	-0.187771	0.861333
C42	C	-0.089953	-0.216455	0.760239
C43	C	0.412091	-0.187770	0.861200
C44	C	0.459011	-0.187775	0.861190
C45	C	0.458950	-0.245146	0.659034
C46	C	0.412034	-0.245143	0.659049
C47	C	0.388606	-0.216451	0.760138
O48	O	0.337786	-0.269527	0.573197
O49	O	0.337857	-0.163365	0.947153
C50	C	0.125901	-0.187763	0.861253
C51	C	0.102416	-0.216446	0.760181
C52	C	0.125847	-0.245131	0.659103
C53	C	0.055498	-0.216448	0.760196
C54	C	0.032068	-0.187764	0.861274
C55	C	0.055555	-0.159077	0.962337
C56	C	0.102470	-0.159078	0.962331
C57	C	0.102359	-0.273818	0.558040
C58	C	0.055444	-0.273814	0.558056
C59	C	0.032013	-0.245130	0.659134
C60	C	0.649017	-0.333176	0.760092
C61	C	0.649023	-0.383111	0.760112
C62	C	0.677885	-0.692741	0.659435
C63	C	0.677941	-0.880415	0.659496
O64	O	0.702416	-0.904669	0.573837
N65	N	0.649191	-0.903896	0.760289
C66	C	0.620428	-0.880455	0.861082
O67	O	0.595979	-0.904734	0.946826
C68	C	0.620375	-0.692783	0.861028
C69	C	0.649123	-0.669305	0.760216
C70	C	0.706631	-0.669263	0.558633
C71	C	0.706616	-0.622347	0.558613
C72	C	0.677854	-0.598911	0.659394
C73	C	0.649107	-0.622389	0.760196
C74	C	0.591614	-0.669344	0.961827
C75	C	0.591605	-0.622423	0.961807
C76	C	0.620353	-0.598944	0.860996
C77	C	0.620329	-0.552037	0.860957
N78	N	0.649079	-0.528556	0.760164
C79	C	0.677841	-0.551993	0.659382
C80	C	0.620457	-0.978986	0.861101
C81	C	0.620470	-1.025904	0.861113
C82	C	0.677983	-1.025860	0.659529
C83	C	0.677968	-0.978941	0.659510
C84	C	0.649207	-0.955505	0.760308
C85	C	0.677805	-0.453467	0.659346
C86	C	0.677785	-0.406547	0.659330
C87	C	0.620274	-0.406596	0.860920
C88	C	0.620292	-0.453511	0.860930
C89	C	0.649061	-0.476946	0.760138
O90	O	0.595871	-0.527754	0.946584
O91	O	0.702293	-0.527706	0.573676
C92	C	0.677901	-0.739657	0.659455
C93	C	0.649155	-0.763136	0.760257
C94	C	0.620393	-0.739699	0.861039
C95	C	0.649168	-0.810053	0.760269
C96	C	0.677930	-0.833490	0.659487
C97	C	0.706679	-0.810009	0.558694
C98	C	0.706663	-0.763094	0.558674
C99	C	0.591644	-0.763180	0.961832
C100	C	0.591661	-0.810095	0.961843
C101	C	0.620423	-0.833532	0.861061
C102	C	0.766276	-0.216457	0.760239
C103	C	0.816211	-0.216459	0.760268
C104	C	0.649095	-0.216454	1.171651
C105	C	0.649096	-0.216459	1.350295
C106	C	0.649192	-0.099275	0.760284
C107	C	0.649232	-0.049341	0.760332
H108	H	0.478130	-0.164415	0.943508
H109	H	0.121587	-0.135719	1.044641
H110	H	0.568202	-0.688452	1.043911
O111	O	0.386825	-0.156827	0.970237
H112	H	0.411044	-0.136888	1.040519
H113	H	0.730073	-0.743981	0.476584
O114	O	0.268545	-0.128134	1.071305
H115	H	0.244363	-0.108186	1.141565
O116	O	0.268388	-0.304750	0.448942
H117	H	0.259359	-0.340022	0.475774
O118	O	0.709008	-1.051140	0.550828
H119	H	0.744257	-1.042092	0.578015
O120	O	0.484226	-0.276084	0.550016
H121	H	0.475219	-0.268322	0.426255
H122	H	0.177229	-0.135720	1.044629
O123	O	0.737659	-0.694531	0.449918
H124	H	0.760512	-0.715873	0.520596
H125	H	-0.094265	-0.164412	0.943639
H126	H	0.036469	-0.135722	1.044643
O127	O	-0.185577	-0.156826	0.970349
H128	H	-0.222146	-0.161646	0.953355
O129	O	-0.185687	-0.276083	0.550171
H130	H	-0.161508	-0.296023	0.479875
H131	H	0.597056	-1.045016	0.943189
O132	O	0.708984	-0.953619	0.550812
H133	H	0.688898	-0.932269	0.470458
O134	O	0.560649	-0.835416	1.070571
H135	H	0.580743	-0.856763	1.150907
O136	O	-0.088172	-0.276081	0.550133
H137	H	-0.112391	-0.296029	0.479878
O138	O	0.170871	-0.304750	0.448945
H139	H	0.195054	-0.324687	0.378648
H140	H	0.597035	-0.959908	0.943185
H141	H	0.121432	-0.297176	0.475726
O142	O	0.386700	-0.276082	0.550035
H143	H	0.410877	-0.296027	0.479744
H144	H	0.036327	-0.297178	0.475746
O145	O	0.708797	-0.381223	0.550606
H146	H	0.728803	-0.405405	0.480548
O147	O	0.708830	-0.478740	0.550626
H148	H	0.728810	-0.454525	0.480525
O149	O	0.737629	-0.597026	0.449904
H150	H	0.757633	-0.621212	0.379852
O151	O	0.560577	-0.597145	1.070507
H152	H	0.540588	-0.621356	1.140588
H153	H	0.596884	-0.472628	0.943024
O154	O	0.737711	-0.835291	0.450021
H155	H	0.732894	-0.871860	0.467003
H156	H	0.596855	-0.387506	0.942970
H157	H	0.568223	-0.744101	1.043903
