data_functionalizedCrystal
_audit_creation_method	'MofGen! by Chris Wilmer'
_symmetry_space_group_name_H-M	'P1'
_symmetry_Int_Tables_number	1
_symmetry_cell_setting	triclinic
loop_
_symmetry_equiv_pos_as_xyz
  x,y,z
_cell_length_a	10.654550
_cell_length_b	16.992695
_cell_length_c	9.730223
_cell_angle_alpha	89.998169
_cell_angle_beta	89.996251
_cell_angle_gamma	87.576563
loop_
_atom_site_label
_atom_site_type_symbol
_atom_site_fract_x
_atom_site_fract_y
_atom_site_fract_z
O1	O	1.677356	0.110186	-0.114405
O2	O	1.312785	0.120685	-0.114384
O3	O	1.493609	0.001285	-0.114383
O4	O	1.496532	0.229586	-0.114405
O5	O	1.493607	0.001288	0.114196
O6	O	1.312783	0.120688	0.114196
O7	O	1.677354	0.110189	0.114175
Zn8	Zn	1.495068	0.115439	0.150477
Zn9	Zn	1.495071	0.115435	-0.150686
O10	O	1.496530	0.229589	0.114174
C11	C	1.265919	0.119915	-0.000091
C12	C	1.126277	0.117609	-0.000082
C13	C	1.052866	0.187910	-0.000109
C14	C	0.921658	0.185738	-0.000132
C15	C	0.937282	0.042959	-0.000108
C16	C	1.068488	0.045131	-0.000075
C17	C	1.043844	0.270342	-0.000129
C18	C	0.912636	0.268171	-0.000152
C19	C	1.489848	-0.027947	-0.000093
C20	C	1.478628	-0.115052	-0.000093
C21	C	1.586879	-0.164704	-0.000098
C22	C	1.576330	-0.246548	-0.000111
C23	C	1.457529	-0.278738	-0.000108
C24	C	1.349270	-0.229080	-0.000107
C25	C	1.359820	-0.147237	-0.000105
C26	C	1.413802	-0.522574	-0.000124
C27	C	1.403260	-0.604422	-0.000123
C28	C	1.630321	-0.621884	-0.000129
C29	C	1.640861	-0.540040	-0.000118
C30	C	1.532602	-0.490389	-0.000124
N31	N	1.446743	-0.362396	-0.000116
N32	N	1.543389	-0.406733	-0.000126
C33	C	1.724220	0.110959	-0.000121
C34	C	1.863862	0.113265	-0.000139
C35	C	1.500291	0.258821	-0.000119
C36	C	1.511510	0.345926	-0.000128
N37	N	1.495075	0.115441	0.356014
N38	N	1.495073	0.115427	-0.356223
C39	C	1.575168	0.062589	0.427940
C40	C	1.575164	0.062580	0.571823
C41	C	1.414971	0.168281	0.571841
C42	C	1.414970	0.168286	0.427961
C43	C	1.667658	0.001565	0.427931
C44	C	1.667654	0.001556	0.571814
H45	H	1.683620	-0.138501	-0.000092
N46	N	1.632350	-0.078305	0.376197
H47	H	1.632343	-0.078333	0.272397
H48	H	1.695258	-0.119789	0.410862
H49	H	1.765327	0.014998	0.610857
H50	H	1.349751	0.211306	0.630436
H51	H	1.737601	-0.513837	-0.000120
N52	N	1.790621	0.026873	0.368791
H53	H	1.850036	0.039097	0.446043
H54	H	1.828929	-0.016992	0.310333
H55	H	1.128255	-0.012114	-0.000033
N56	N	1.693085	-0.300101	-0.000108
H57	H	1.769945	-0.267290	-0.000097
H58	H	1.693641	-0.334440	0.084629
N59	N	0.854991	0.301177	0.130556
H60	H	0.796523	0.347690	0.107817
H61	H	0.806251	0.259185	0.177641
N62	N	0.874953	-0.035210	-0.000090
H63	H	0.780695	-0.025921	-0.000108
H64	H	0.901316	-0.066011	-0.084814
N65	N	1.094096	0.305102	-0.130851
H66	H	1.021871	0.320302	-0.194035
H67	H	1.142214	0.353354	-0.108026
N68	N	1.620754	-0.073930	0.630940
H69	H	1.598093	-0.110396	0.553681
H70	H	1.688761	-0.100184	0.689373
N71	N	0.860887	0.309301	-0.126872
H72	H	0.886277	0.365898	-0.126931
H73	H	0.895503	0.281750	-0.211584
N74	N	1.747073	-0.675441	-0.000124
H75	H	1.747759	-0.709785	-0.084860
H76	H	1.823870	-0.642578	-0.000073
N77	N	1.297040	-0.469030	-0.000128
H78	H	1.296349	-0.434681	0.084601
H79	H	1.296429	-0.434738	-0.084924
N80	N	1.221132	-0.263795	-0.000114
H81	H	1.230872	-0.323176	-0.000111
H82	H	1.173399	-0.245676	0.084626
N83	N	1.243066	-0.093680	-0.000107
H84	H	1.166204	-0.126490	-0.000105
H85	H	1.242492	-0.059343	0.084628
H86	H	1.075960	0.302583	0.095534
H87	H	1.306513	-0.630628	-0.000099
H88	H	1.349741	0.211316	0.369400
