data_functionalizedCrystal
_audit_creation_method	'MofGen! by Chris Wilmer'
_symmetry_space_group_name_H-M	'P1'
_symmetry_Int_Tables_number	1
_symmetry_cell_setting	triclinic
loop_
_symmetry_equiv_pos_as_xyz
  x,y,z
_cell_length_a	18.050591
_cell_length_b	16.959454
_cell_length_c	16.959447
_cell_angle_alpha	90.026736
_cell_angle_beta	89.978541
_cell_angle_gamma	89.983919
loop_
_atom_site_label
_atom_site_type_symbol
_atom_site_fract_x
_atom_site_fract_y
_atom_site_fract_z
Zn1	Zn	1.135339	0.314750	-0.447079
Zn2	Zn	1.635339	0.814750	0.052921
Zn3	Zn	1.135266	0.446943	-0.314909
Zn4	Zn	1.635266	0.946943	0.185091
Zn5	Zn	1.011157	0.314773	-0.314900
Zn6	Zn	1.511157	0.814773	0.185100
Zn7	Zn	1.011123	0.446881	-0.447031
Zn8	Zn	1.511123	0.946881	0.052969
O9	O	1.073221	0.380837	-0.380980
O10	O	1.573221	0.880837	0.119020
O11	O	1.239253	0.332302	-0.429570
O12	O	1.739253	0.832302	0.070430
O13	O	1.118786	0.429445	-0.204296
O14	O	1.618786	0.929445	0.295704
O15	O	1.027674	0.204159	-0.332450
O16	O	1.527674	0.704159	0.167550
O17	O	1.239200	0.429423	-0.332465
O18	O	1.739200	0.929423	0.167535
O19	O	1.118910	0.204142	-0.429562
O20	O	1.618910	0.704142	0.070438
O21	O	1.027603	0.332340	-0.204290
O22	O	1.527603	0.832340	0.295710
O23	O	0.907228	0.332281	-0.332404
O24	O	1.407228	0.832281	0.167596
O25	O	1.027617	0.429319	-0.557648
O26	O	1.527617	0.929319	-0.057648
O27	O	0.907203	0.429341	-0.429479
O28	O	1.407203	0.929341	0.070521
O29	O	1.118878	0.332242	-0.557683
O30	O	1.618878	0.832242	-0.057683
O31	O	1.118754	0.557545	-0.332418
O32	O	1.618754	1.057545	0.167582
O33	O	1.027547	0.557500	-0.429488
O34	O	1.527547	1.057500	0.070512
C35	C	0.880269	0.380807	-0.380936
C36	C	1.380269	0.880807	0.119064
C37	C	0.797723	0.380814	-0.380936
C38	C	1.297723	0.880814	0.119064
C39	C	1.073159	0.586203	-0.380966
C40	C	1.573159	1.086203	0.119034
C41	C	1.073200	0.674060	-0.380987
C42	C	1.573200	1.174060	0.119013
C43	C	1.073252	0.380771	-0.587148
C44	C	1.573252	0.880771	-0.087148
C45	C	1.073265	0.380743	-0.675004
C46	C	1.573265	0.880743	-0.175004
C47	C	0.598264	0.327971	-0.328268
C48	C	1.098264	0.827971	0.171732
C49	C	0.548854	0.400068	-0.308821
C50	C	1.048854	0.900068	0.191179
C51	C	0.646593	0.380838	-0.380972
C52	C	1.146593	0.880838	0.119028
C53	C	0.548921	0.308766	-0.400416
C54	C	1.048921	0.808766	0.099584
C55	C	0.500608	0.380854	-0.381005
C56	C	1.000608	0.880854	0.118995
C57	C	0.598270	0.452972	-0.361487
C58	C	1.098270	0.952972	0.138513
C59	C	0.598341	0.361621	-0.453116
C60	C	1.098341	0.861621	0.046884
C61	C	0.548954	0.433768	-0.433697
C62	C	1.048954	0.933768	0.066303
C63	C	0.730691	0.380827	-0.380951
C64	C	1.230691	0.880827	0.119049
C65	C	0.416511	0.380873	-0.381026
C66	C	0.916511	0.880873	0.118974
C67	C	1.266927	0.380867	-0.381024
C68	C	1.766927	0.880867	0.118976
C69	C	1.349472	0.380880	-0.381043
C70	C	1.849472	0.880880	0.118957
C71	C	1.073304	0.174668	-0.381010
C72	C	1.573304	0.674668	0.118990
C73	C	1.073339	0.086812	-0.381023
C74	C	1.573339	0.586812	0.118977
C75	C	1.025799	1.045542	-0.431518
C76	C	1.525799	1.545542	0.068482
C77	C	1.120850	1.045529	-0.330521
C78	C	1.620850	1.545529	0.169479
C79	C	1.120824	0.962983	-0.330514
C80	C	1.620824	1.462983	0.169486
C81	C	1.073284	0.921712	-0.381009
C82	C	1.573284	1.421712	0.118991
C83	C	1.025770	0.962988	-0.431511
C84	C	1.525770	1.462988	0.068489
C85	C	1.168333	0.921701	-0.280007
C86	C	1.668333	1.421701	0.219993
C87	C	1.168308	0.839150	-0.279997
C88	C	1.668308	1.339150	0.220003
C89	C	1.120771	0.797878	-0.330497
C90	C	1.620771	1.297878	0.169503
C91	C	1.073255	0.839159	-0.381001
C92	C	1.573255	1.339159	0.118999
C93	C	1.025715	0.797889	-0.431496
C94	C	1.525715	1.297889	0.068504
C95	C	0.978202	0.839168	-0.482005
C96	C	1.478202	1.339168	0.017995
C97	C	0.978232	0.921716	-0.482010
C98	C	1.478232	1.421716	0.017990
C99	C	1.120741	0.715330	-0.330492
C100	C	1.620741	1.215330	0.169508
C101	C	1.025686	0.715335	-0.431489
C102	C	1.525686	1.215335	0.068511
C103	C	1.025839	0.431203	-1.046464
C104	C	1.525839	0.931203	-0.546464
C105	C	1.120869	0.330117	-1.046496
C106	C	1.620869	0.830117	-0.546496
C107	C	1.120849	0.330134	-0.963950
C108	C	1.620849	0.830134	-0.463950
C109	C	1.073324	0.380687	-0.922658
C110	C	1.573324	0.880687	-0.422658
C111	C	1.025819	0.431223	-0.963911
C112	C	1.525819	0.931223	-0.463911
C113	C	1.168359	0.279604	-0.922691
C114	C	1.668359	0.779604	-0.422691
C115	C	1.168342	0.279619	-0.840140
C116	C	1.668342	0.779619	-0.340140
C117	C	1.120812	0.330169	-0.798846
C118	C	1.620812	0.830169	-0.298846
C119	C	1.073305	0.380707	-0.840104
C120	C	1.573305	0.880707	-0.340104
C121	C	1.025780	0.431260	-0.798811
C122	C	1.525780	0.931260	-0.298811
C123	C	0.978268	0.481794	-0.840068
C124	C	1.478268	0.981794	-0.340068
C125	C	0.978290	0.481773	-0.922617
C126	C	1.478290	0.981773	-0.422617
C127	C	1.120790	0.330190	-0.716297
C128	C	1.620790	0.830190	-0.216297
C129	C	1.025760	0.431280	-0.716258
C130	C	1.525760	0.931280	-0.216258
C131	C	1.073233	0.380845	-0.175613
C132	C	1.573233	0.880845	0.324387
C133	C	1.073364	0.380650	-0.087757
C134	C	1.573364	0.880650	0.412243
H135	H	0.527118	0.416334	-0.247824
H136	H	1.027118	0.916334	0.252176
H137	H	1.159551	1.079136	-0.289406
H138	H	1.659551	1.579136	0.210594
H139	H	0.939549	0.955333	-0.523131
H140	H	1.439549	1.455333	-0.023131
O141	O	0.932129	0.799037	-0.531139
O142	O	1.432129	1.299037	-0.031139
C143	C	0.974367	0.751209	-0.582209
C144	C	1.474367	1.251209	-0.082209
H145	H	1.032863	0.776046	-0.587160
H146	H	1.532863	1.276046	-0.087160
H147	H	0.947472	0.750244	-0.643011
H148	H	1.447472	1.250244	-0.143011
H149	H	0.976921	0.688663	-0.557756
H150	H	1.476921	1.188663	-0.057756
H151	H	1.159421	0.681724	-0.289364
H152	H	1.659421	1.181724	0.210636
O153	O	1.214408	0.230409	-0.800110
O154	O	1.714408	0.730409	-0.300110
C155	C	1.198217	0.151629	-0.820329
C156	C	1.698217	0.651629	-0.320329
H157	H	1.138894	0.147636	-0.843013
H158	H	1.638894	0.647636	-0.343013
H159	H	1.204615	0.112580	-0.766060
H160	H	1.704615	0.612580	-0.266060
H161	H	1.238048	0.130968	-0.868261
H162	H	1.738048	0.630968	-0.368261
O163	O	1.166858	0.280996	-0.676255
O164	O	1.666858	0.780996	-0.176255
C165	C	1.150684	0.202209	-0.696459
C166	C	1.650684	0.702209	-0.196459
H167	H	1.091364	0.198197	-0.719147
H168	H	1.591364	0.698197	-0.219147
H169	H	1.157085	0.163172	-0.642181
H170	H	1.657085	0.663172	-0.142181
H171	H	1.190524	0.181546	-0.744383
H172	H	1.690524	0.681546	-0.244383
O173	O	1.214526	0.961860	-0.231036
O174	O	1.714526	1.461860	0.268964
C175	C	1.262474	1.009615	-0.276036
C176	C	1.762474	1.509615	0.223964
H177	H	1.267115	0.984696	-0.338283
H178	H	1.767115	1.484696	0.161717
H179	H	1.319610	1.010599	-0.247434
H180	H	1.819610	1.510599	0.252566
H181	H	1.239471	1.072165	-0.278781
H182	H	1.739471	1.572165	0.221219
H183	H	1.159566	0.288963	-1.080122
H184	H	1.659566	0.788963	-0.580122
H185	H	0.987117	1.079155	-0.472644
H186	H	1.487117	1.579155	0.027356
O187	O	1.214534	0.799177	-0.230916
O188	O	1.714534	1.299177	0.269084
C189	C	1.256486	0.853306	-0.186336
C190	C	1.756486	1.353306	0.313664
H191	H	1.259052	0.912132	-0.218717
H192	H	1.759052	1.412132	0.281283
H193	H	1.314997	0.829423	-0.177970
H194	H	1.814997	1.329423	0.322030
H195	H	1.229332	0.862133	-0.126273
H196	H	1.729332	1.362133	0.373727
H197	H	0.939610	0.522918	-0.956215
H198	H	1.439610	1.022918	-0.456215
O199	O	0.979758	0.480265	-1.086658
O200	O	1.479758	0.980265	-0.586658
C201	C	0.989945	0.469394	-1.168373
C202	C	1.489945	0.969394	-0.668373
H203	H	1.047271	0.443514	-1.179666
H204	H	1.547271	0.943514	-0.679666
H205	H	0.984888	0.528592	-1.199732
H206	H	1.484888	1.028592	-0.699732
H207	H	0.945916	0.427288	-1.191798
H208	H	1.445916	0.927288	-0.691798
O209	O	1.214419	0.230423	-0.962840
O210	O	1.714419	0.730423	-0.462840
C211	C	1.172172	0.179365	-1.010612
C212	C	1.672172	0.679365	-0.510612
H213	H	1.113680	0.174467	-0.985722
H214	H	1.613680	0.674467	-0.485722
H215	H	1.199065	0.118543	-1.011576
H216	H	1.699065	0.618543	-0.511576
H217	H	1.169609	0.203795	-1.073165
H218	H	1.669609	0.703795	-0.573165
H219	H	0.987052	0.472440	-0.682643
H220	H	1.487052	0.972440	-0.182643
H221	H	0.619856	0.513948	-0.344987
H222	H	1.119856	1.013948	0.155013
O223	O	0.932210	0.530940	-0.799861
O224	O	1.432210	1.030940	-0.299861
C225	C	0.974473	0.582019	-0.752127
C226	C	1.474473	1.082019	-0.252127
H227	H	1.030764	0.554150	-0.739791
H228	H	1.530764	1.054150	-0.239791
H229	H	0.944219	0.592617	-0.694063
H230	H	1.444219	1.092617	-0.194063
H231	H	0.982611	0.640591	-0.783926
H232	H	1.482611	1.140591	-0.283926
O233	O	0.624013	0.274595	-0.275094
O234	O	1.124013	0.774595	0.224906
C235	C	0.597805	0.198842	-0.294963
C236	C	1.097805	0.698842	0.205037
H237	H	0.545469	0.204525	-0.332131
H238	H	1.045469	0.704525	0.167869
H239	H	0.584698	0.164677	-0.238792
H240	H	1.084698	0.664677	0.261208
H241	H	0.642056	0.166068	-0.330029
H242	H	1.142056	0.666068	0.169971
H243	H	0.527206	0.247817	-0.416821
H244	H	1.027206	0.747817	0.083179
O245	O	0.523313	0.487276	-0.486796
O246	O	1.023313	0.987276	0.013204
C247	C	0.548609	0.563141	-0.466031
C248	C	1.048609	1.063141	0.033969
H249	H	0.562362	0.564561	-0.400446
H250	H	1.062362	1.064561	0.099554
H251	H	0.503543	0.608348	-0.479230
H252	H	1.003543	1.108348	0.020770
H253	H	0.600376	0.577859	-0.501624
H254	H	1.100376	1.077859	-0.001624
H255	H	0.620095	0.345334	-0.514095
H256	H	1.120095	0.845334	-0.014095
H257	H	0.986975	0.681738	-0.472611
H258	H	1.486975	1.181738	0.027389
