data_functionalizedCrystal
_audit_creation_method	'MofGen! by Chris Wilmer'
_symmetry_space_group_name_H-M	'P1'
_symmetry_Int_Tables_number	1
_symmetry_cell_setting	triclinic
loop_
_symmetry_equiv_pos_as_xyz
  x,y,z
_cell_length_a	16.992695
_cell_length_b	10.654550
_cell_length_c	15.455320
_cell_angle_alpha	92.697097
_cell_angle_beta	92.859530
_cell_angle_gamma	92.423437
loop_
_atom_site_label
_atom_site_type_symbol
_atom_site_fract_x
_atom_site_fract_y
_atom_site_fract_z
O1	O	0.106772	-1.682508	-0.072204
O2	O	0.606772	-1.182508	0.427796
O3	O	0.117270	-1.317936	-0.072190
O4	O	0.617270	-0.817936	0.427810
O5	O	-0.002129	-1.498760	-0.072190
O6	O	0.497871	-0.998760	0.427810
O7	O	0.226171	-1.501684	-0.072204
O8	O	0.726171	-1.001684	0.427796
O9	O	0.004697	-1.488464	0.072072
O10	O	0.504697	-0.988464	0.572072
O11	O	0.124096	-1.307640	0.072072
O12	O	0.624096	-0.807640	0.572072
O13	O	0.113597	-1.672212	0.072058
O14	O	0.613597	-1.172212	0.572058
Cu15	Cu	0.119470	-1.488986	0.085237
Cu16	Cu	0.619470	-0.988986	0.585237
Cu17	Cu	0.111398	-1.501162	-0.085369
Cu18	Cu	0.611398	-1.001162	0.414631
O19	O	0.232997	-1.491388	0.072058
O20	O	0.732997	-0.991388	0.572058
C21	C	0.119913	-1.265923	-0.000057
C22	C	0.619913	-0.765923	0.499943
C23	C	0.117607	-1.126280	-0.000052
C24	C	0.617607	-0.626280	0.499948
C25	C	-0.027949	-1.489852	-0.000059
C26	C	0.472051	-0.989852	0.499941
C27	C	-0.115054	-1.478633	-0.000059
C28	C	0.384946	-0.978633	0.499941
N29	N	0.125147	-1.480432	0.205233
N30	N	0.625147	-0.980432	0.705233
C31	C	-0.164706	-1.586884	-0.000062
C32	C	0.335294	-1.086884	0.499938
C33	C	-0.246551	-1.576335	-0.000070
C34	C	0.253449	-1.076335	0.499930
C35	C	-0.278741	-1.457534	-0.000068
C36	C	0.221259	-0.957534	0.499932
C37	C	-0.229083	-1.349275	-0.000068
C38	C	0.270917	-0.849275	0.499932
C39	C	-0.147241	-1.359825	-0.000066
C40	C	0.352759	-0.859825	0.499934
C41	C	-0.522577	-1.413807	-0.000079
C42	C	-0.022577	-0.913807	0.499921
C43	C	-0.604426	-1.403265	-0.000078
C44	C	-0.104426	-0.903265	0.499922
C45	C	-0.621888	-1.630327	-0.000081
C46	C	-0.121888	-1.130327	0.499919
C47	C	-0.540043	-1.640866	-0.000074
C48	C	-0.040043	-1.140866	0.499926
C49	C	-0.490392	-1.532607	-0.000078
C50	C	0.009608	-1.032607	0.499922
N51	N	-0.362399	-1.446748	-0.000073
N52	N	0.137601	-0.946748	0.499927
N53	N	-0.406737	-1.543394	-0.000079
N54	N	0.093263	-1.043394	0.499921
C55	C	0.258817	-1.500296	-0.000075
C56	C	0.758817	-1.000296	0.499925
C57	C	0.345922	-1.511516	-0.000081
C58	C	0.845922	-1.011516	0.499919
C59	C	0.110955	-1.724225	-0.000077
C60	C	0.610955	-1.224225	0.499923
C61	C	0.113261	-1.863868	-0.000088
C62	C	0.613261	-1.363868	0.499912
C63	C	0.187906	-1.052871	-0.000069
C64	C	0.687906	-0.552871	0.499931
C65	C	0.185734	-0.921664	-0.000084
C66	C	0.685734	-0.421664	0.499916
C67	C	0.042956	-0.937287	-0.000068
C68	C	0.542956	-0.437287	0.499932
C69	C	0.045129	-1.068492	-0.000047
C70	C	0.545129	-0.568492	0.499953
C71	C	0.270338	-1.043850	-0.000081
C72	C	0.770338	-0.543850	0.499919
C73	C	0.268166	-0.912642	-0.000096
C74	C	0.768166	-0.412642	0.499904
N75	N	0.105714	-1.509726	-0.205365
N76	N	0.605714	-1.009726	0.294635
C77	C	0.156426	-1.432885	0.749240
C78	C	0.656426	-0.932885	1.249240
C79	C	0.152148	-1.439384	0.658432
C80	C	0.652148	-0.939384	1.158432
C81	C	0.097161	-1.522730	0.613022
C82	C	0.597161	-1.022730	1.113022
C83	C	0.046444	-1.599574	0.658423
C84	C	0.546444	-1.099574	1.158423
C85	C	0.050719	-1.593068	0.749229
C86	C	0.550719	-1.093068	1.249229
C87	C	0.078705	-1.550770	0.341441
C88	C	0.578705	-1.050770	0.841441
C89	C	0.074436	-1.557272	0.250628
C90	C	0.574436	-1.057272	0.750628
C91	C	0.180139	-1.397080	0.250643
C92	C	0.680139	-0.897080	0.750643
C93	C	0.184412	-1.390587	0.341451
C94	C	0.684412	-0.890587	0.841451
C95	C	0.133692	-1.467426	0.386845
C96	C	0.633692	-0.967426	0.886845
N97	N	0.092788	-1.529377	0.520201
N98	N	0.592788	-1.029377	1.020201
N99	N	0.138062	-1.460771	0.479663
N100	N	0.638062	-0.960771	0.979663
H101	H	-0.138504	-1.683624	-0.000058
H102	H	0.361496	-1.183624	0.499942
O103	O	-0.469039	-1.297037	-0.000071
O104	O	0.030961	-0.797037	0.499929
H105	H	-0.434118	-1.300589	-0.058873
H106	H	0.065882	-0.800589	0.441127
H107	H	0.296368	-0.877903	-0.060476
H108	H	0.796368	-0.377903	0.439524
H109	H	0.293639	-1.086219	-0.062367
H110	H	0.793639	-0.586219	0.437633
O111	O	0.316778	-1.080652	0.079933
O112	O	0.816778	-0.580652	0.579933
H113	H	0.377809	-1.039188	0.079919
H114	H	0.877809	-0.539188	0.579919
O115	O	-0.093681	-1.243070	-0.000053
O116	O	0.406319	-0.743070	0.499947
H117	H	-0.129812	-1.158686	-0.000042
H118	H	0.370188	-0.658686	0.499958
H119	H	-0.255299	-1.252545	-0.000072
H120	H	0.244701	-0.752545	0.499928
H121	H	0.201205	-1.365022	0.786207
H122	H	0.701205	-0.865022	1.286207
H123	H	0.193441	-1.376813	0.621472
H124	H	0.693441	-0.876813	1.121472
O125	O	0.243762	-1.300764	0.390431
O126	O	0.743762	-0.800764	0.890431
H127	H	0.278319	-1.248442	0.343608
H128	H	0.778319	-0.748442	0.843608
O129	O	0.234826	-1.314200	0.201670
O130	O	0.734826	-0.814200	0.701670
H131	H	0.296904	-1.335084	0.219103
H132	H	0.796904	-0.835084	0.719103
H133	H	0.037408	-1.613337	0.378393
H134	H	0.537408	-1.113337	0.878393
H135	H	-0.012115	-1.128257	-0.000021
H136	H	0.487885	-0.628257	0.499979
H137	H	0.029656	-1.625148	0.213659
H138	H	0.529656	-1.125148	0.713659
O139	O	-0.035215	-0.874961	-0.000067
O140	O	0.464785	-0.374961	0.499933
H141	H	-0.024918	-0.771393	-0.000087
H142	H	0.475082	-0.271393	0.499913
H143	H	0.001669	-1.667432	0.621445
H144	H	0.501669	-1.167432	1.121445
H145	H	0.009423	-1.655638	0.786190
H146	H	0.509423	-1.155638	1.286190
H147	H	0.296025	-0.864679	0.062184
H148	H	0.796025	-0.364679	0.562184
H149	H	-0.286975	-1.664485	-0.000070
H150	H	0.213025	-1.164485	0.499930
O151	O	-0.505323	-1.769003	-0.000097
O152	O	-0.005323	-1.269003	0.499903
H153	H	-0.553601	-1.842508	-0.000114
H154	H	-0.053601	-1.342508	0.499886
H155	H	-0.662322	-1.718464	-0.000080
H156	H	-0.162322	-1.218464	0.499920
H157	H	-0.630631	-1.306517	-0.000062
H158	H	-0.130631	-0.806517	0.499938
