data_functionalizedCrystal
_audit_creation_method	'MofGen! by Chris Wilmer'
_symmetry_space_group_name_H-M	'P1'
_symmetry_Int_Tables_number	1
_symmetry_cell_setting	triclinic
loop_
_symmetry_equiv_pos_as_xyz
  x,y,z
_cell_length_a	10.654541
_cell_length_b	10.654550
_cell_length_c	9.730223
_cell_angle_alpha	89.999957
_cell_angle_beta	90.004176
_cell_angle_gamma	95.515570
loop_
_atom_site_label
_atom_site_type_symbol
_atom_site_fract_x
_atom_site_fract_y
_atom_site_fract_z
O1	O	0.176399	-1.667837	0.114187
O2	O	0.193205	-1.302359	0.114212
O3	O	0.002062	-1.493503	0.114190
O4	O	0.367541	-1.476694	0.114208
O5	O	0.002057	-1.493490	-0.114390
O6	O	0.193200	-1.302346	-0.114368
O7	O	0.176394	-1.667825	-0.114393
Zn8	Zn	0.184796	-1.485084	-0.150673
Zn9	Zn	0.184803	-1.485100	0.150491
O10	O	0.367536	-1.476681	-0.114372
C11	C	-0.044738	-1.492263	-0.000099
C12	C	-0.184182	-1.488572	-0.000096
C13	C	0.191968	-1.255555	-0.000075
C14	C	0.188276	-1.116112	-0.000066
C15	C	0.177630	-1.714629	-0.000103
C16	C	0.181322	-1.854072	-0.000104
C17	C	-0.212153	-1.717137	-0.000129
C18	C	-0.291647	-1.829680	-0.000149
C19	C	-0.422665	-1.826204	-0.000144
C20	C	-0.474190	-1.710173	-0.000116
C21	C	-0.394696	-1.597630	-0.000097
C22	C	-0.263676	-1.601118	-0.000106
C23	C	-0.366725	-1.369069	-0.000054
C24	C	-0.235707	-1.372541	-0.000068
C25	C	-0.418251	-1.253037	-0.000026
C26	C	-0.338756	-1.140492	-0.000017
C27	C	-0.207731	-1.143972	-0.000023
C28	C	-0.156213	-1.259998	-0.000049
C29	C	0.414337	-1.477921	-0.000080
C30	C	0.553780	-1.481612	-0.000073
C31	C	0.300818	-1.036625	-0.000064
C32	C	0.297342	-0.905604	-0.000088
C33	C	0.068772	-0.933569	-0.000110
C34	C	0.072250	-1.064588	-0.000095
N35	N	0.184790	-1.485082	-0.356209
C36	C	0.100188	-1.569750	-0.428145
C37	C	0.100189	-1.569762	-0.572027
C38	C	0.269404	-1.400435	-0.572027
C39	C	0.269397	-1.400418	-0.428147
N40	N	0.184798	-1.485112	0.356028
H41	H	-0.105472	-1.719978	-0.000152
H42	H	0.338290	-1.331465	-0.369573
Br43	Br	0.384226	-1.285541	-0.669661
H44	H	0.031295	-1.638686	-0.369576
H45	H	0.031297	-1.638704	-0.630593
Br46	Br	-0.652002	-1.705459	-0.000002
H47	H	-0.249680	-1.924150	-0.000183
Br48	Br	-0.596062	-1.248318	0.000081
H49	H	-0.019401	-1.129309	-0.000100
H50	H	-0.380719	-1.046028	0.000015
Br51	Br	0.450084	-0.797733	-0.000093
H52	H	-0.487390	-1.917847	-0.000149
Br53	Br	0.021597	-1.264730	-0.000072
Br54	Br	0.458282	-1.106547	-0.000028
Br55	Br	-0.099855	-0.991225	0.000019
Br56	Br	-0.088686	-0.863635	-0.000145
