data_functionalizedCrystal
_audit_creation_method	'MofGen! by Chris Wilmer'
_symmetry_space_group_name_H-M	'P1'
_symmetry_Int_Tables_number	1
_symmetry_cell_setting	triclinic
loop_
_symmetry_equiv_pos_as_xyz
  x,y,z
_cell_length_a	10.654541
_cell_length_b	16.109301
_cell_length_c	15.186229
_cell_angle_alpha	89.994833
_cell_angle_beta	89.997986
_cell_angle_gamma	83.972705
loop_
_atom_site_label
_atom_site_type_symbol
_atom_site_fract_x
_atom_site_fract_y
_atom_site_fract_z
O1	O	-1.666258	-0.116763	0.073205
O2	O	-1.300628	-0.127891	0.073213
O3	O	-1.493487	-0.001356	0.073200
O4	O	-1.473399	-0.243298	0.073218
O5	O	-1.493474	-0.001354	-0.073258
O6	O	-1.300615	-0.127889	-0.073245
O7	O	-1.666245	-0.116761	-0.073253
Zn8	Zn	-1.483428	-0.122325	-0.096502
Zn9	Zn	-1.483445	-0.122327	0.096462
O10	O	-1.473386	-0.243297	-0.073239
C11	C	-1.253835	-0.127073	-0.000015
C12	C	-1.114424	-0.124630	-0.000012
C13	C	-1.492667	0.029625	-0.000030
C14	C	-1.490227	0.121935	-0.000031
C15	C	-1.713038	-0.117579	-0.000023
C16	C	-1.852449	-0.120022	-0.000020
C17	C	-1.084401	-0.275937	0.000010
C18	C	-1.003896	-0.350439	0.000025
C19	C	-0.872909	-0.348139	0.000026
C20	C	-0.822426	-0.271327	0.000009
C21	C	-0.902931	-0.196825	-0.000006
C22	C	-1.033919	-0.199134	-0.000004
C23	C	-0.932954	-0.045520	-0.000035
C24	C	-1.063941	-0.047819	-0.000029
C25	C	-0.882471	0.031291	-0.000051
C26	C	-0.962976	0.105795	-0.000060
C27	C	-1.093970	0.103491	-0.000059
C28	C	-1.144446	0.026683	-0.000044
C29	C	-1.474206	-0.274277	-0.000008
C30	C	-1.476646	-0.366587	-0.000001
N31	N	-1.483426	-0.122323	-0.228194
C32	C	-1.598994	0.343561	-0.000019
C33	C	-1.596692	0.430295	-0.000012
C34	C	-1.367871	0.411780	-0.000010
C35	C	-1.370174	0.325047	-0.000011
C36	C	-1.485739	0.290941	-0.000020
C37	C	-1.481134	0.464407	-0.000012
C38	C	-1.478637	0.558448	-0.000004
C39	C	-1.488237	0.196894	-0.000026
C40	C	-1.568853	-0.066312	-0.453923
C41	C	-1.568857	-0.066310	-0.546113
C42	C	-1.398021	-0.178336	-0.546110
C43	C	-1.398012	-0.178333	-0.453922
C44	C	-1.483435	-0.122323	-0.407831
C45	C	-1.483448	-0.122323	-0.592209
C46	C	-1.483452	-0.122322	-0.692165
C47	C	-1.483430	-0.122323	-0.307869
N48	N	-1.483457	-0.122323	0.228155
H49	H	-1.191055	-0.277818	0.000029
H50	H	-1.638410	-0.020701	-0.583638
O51	O	-1.255507	0.444776	0.000032
C52	C	-1.028792	0.417256	-0.000019
C53	C	-1.155957	0.379781	-0.000044
H54	H	-0.948272	0.364726	-0.000098
H55	H	-1.021910	0.457364	0.061288
H56	H	-1.022058	0.457433	-0.061296
H57	H	-1.162777	0.339566	0.061192
H58	H	-1.162784	0.339721	-0.061391
H59	H	-1.328473	-0.223940	-0.583647
H60	H	-1.688915	0.473136	-0.000009
H61	H	-0.715768	-0.269461	-0.000001
O62	O	-1.651868	-0.011821	-0.409286
C63	C	-1.821357	0.099265	-0.419023
C64	C	-1.727392	0.037607	-0.469680
H65	H	-1.882460	0.139231	-0.467830
H66	H	-1.767219	0.141189	-0.375897
H67	H	-1.884017	0.062972	-0.375830
H68	H	-1.664708	0.073831	-0.512922
H69	H	-1.781609	-0.004317	-0.512751
O70	O	-1.314986	-0.232826	-0.409279
C71	C	-1.145489	-0.343906	-0.418997
C72	C	-1.239465	-0.282259	-0.469665
H73	H	-1.084388	-0.383877	-0.467797
H74	H	-1.199618	-0.385827	-0.375850
H75	H	-1.082827	-0.307606	-0.375824
H76	H	-1.302150	-0.318492	-0.512886
H77	H	-1.185258	-0.240338	-0.512757
O78	O	-0.794879	-0.420586	0.000080
C79	C	-0.778907	-0.570909	0.000057
C80	C	-0.867418	-0.488927	0.000015
H81	H	-0.837519	-0.626184	-0.000014
H82	H	-0.716863	-0.573661	0.061366
H83	H	-0.716799	-0.573569	-0.061218
H84	H	-0.929605	-0.486212	0.061249
H85	H	-0.929377	-0.486208	-0.061335
H86	H	-1.045014	-0.412978	0.000036
O87	O	-0.913729	0.180330	-0.000038
C88	C	-0.725235	0.250931	-0.000116
C89	C	-0.780844	0.166462	-0.000122
H90	H	-0.617791	0.239748	-0.000202
H91	H	-0.758292	0.287804	0.061186
H92	H	-0.758468	0.287781	-0.061398
H93	H	-0.747636	0.129544	0.061119
H94	H	-0.747793	0.129653	-0.061465
O95	O	-1.172220	0.175842	-0.000229
C96	C	-1.337577	0.261032	-0.076089
C97	C	-1.249018	0.179071	-0.076018
H98	H	-1.399708	0.263660	-0.137349
H99	H	-1.279051	0.316351	-0.076159
H100	H	-1.399594	0.263734	-0.014768
H101	H	-1.186982	0.176287	-0.137329
H102	H	-1.307619	0.123790	-0.075903
H103	H	-0.775813	0.033159	-0.000056
H104	H	-1.693094	0.315794	-0.000025
H105	H	-1.251100	0.024800	-0.000033
H106	H	-1.277943	0.282201	-0.000010
