data_functionalizedCrystal
_audit_creation_method	'MofGen! by Chris Wilmer'
_symmetry_space_group_name_H-M	'P1'
_symmetry_Int_Tables_number	1
_symmetry_cell_setting	triclinic
loop_
_symmetry_equiv_pos_as_xyz
  x,y,z
_cell_length_a	6.817900
_cell_length_b	16.306198
_cell_length_c	16.305550
_cell_angle_alpha	95.373122
_cell_angle_beta	103.455250
_cell_angle_gamma	103.467075
loop_
_atom_site_label
_atom_site_type_symbol
_atom_site_fract_x
_atom_site_fract_y
_atom_site_fract_z
V1	V	-4.026246	-0.117432	-0.263332
O2	O	-4.013841	0.004910	-0.258012
O3	O	-3.977698	-0.232142	-0.261826
O4	O	-3.977652	-0.115947	-0.378045
O5	O	-4.013887	-0.112090	-0.140988
V6	V	-4.509919	-0.102760	-0.248662
O7	O	-4.287177	-0.149615	-0.295509
O8	O	-4.699185	-0.070577	-0.216485
O9	O	-4.335260	0.011951	-0.250168
O10	O	-4.639720	-0.225102	-0.253982
O11	O	-4.639675	-0.108102	-0.371006
O12	O	-4.335306	-0.104245	-0.133949
C13	C	-3.822669	-0.260096	-0.257748
C14	C	-3.864260	-0.353876	-0.257281
C15	C	-3.822610	-0.111876	-0.405996
C16	C	-3.864161	-0.111421	-0.499776
C17	C	-4.015214	-0.694623	-0.255576
C18	C	-4.219298	-0.664089	-0.260538
C19	C	-4.176361	-0.566600	-0.261349
C20	C	-3.940325	-0.525574	-0.256421
C21	C	-3.888744	-0.571230	-0.334676
C22	C	-3.933440	-0.668848	-0.334288
C23	C	-3.845294	-0.643281	-0.172946
C24	C	-3.805619	-0.545629	-0.172460
C25	C	-3.897991	-0.430035	-0.256902
C26	C	-4.057544	-0.790162	-0.255101
C27	C	-4.015248	-0.109658	-0.840517
C28	C	-3.779200	-0.104423	-0.799575
C29	C	-3.736007	-0.105246	-0.702082
C30	C	-3.940291	-0.110532	-0.671472
C31	C	-4.107324	-0.193848	-0.722311
C32	C	-4.149188	-0.193376	-0.819859
C33	C	-4.070003	-0.032243	-0.794476
C34	C	-4.022074	-0.031583	-0.696632
C35	C	-3.897941	-0.111029	-0.575935
C36	C	-4.057607	-0.109167	-0.936055
C37	C	-4.153632	0.039900	-0.254244
C38	C	-4.091278	0.133679	-0.254716
C39	C	-4.153691	-0.108318	-0.105994
C40	C	-4.091377	-0.108769	-0.012212
H41	H	-4.221391	-0.535490	-0.205421
H42	H	-3.901027	0.030042	-0.662096
H43	H	-4.346076	-0.699797	-0.320147
N44	N	-3.638595	-0.024705	-0.815754
H45	H	-3.541700	-0.041043	-0.848874
H46	H	-3.553481	0.011511	-0.759418
H47	H	-4.052604	-0.703043	-0.396498
N48	N	-3.568493	-0.025865	-0.655534
H49	H	-3.617129	0.026326	-0.669688
H50	H	-3.436233	-0.024615	-0.673813
H51	H	-3.669581	-0.161507	-0.685933
H52	H	-3.734110	-0.160043	-0.831230
N53	N	-4.307589	-0.685674	-0.186121
H54	H	-4.216165	-0.715459	-0.148469
H55	H	-4.453754	-0.724509	-0.208151
N56	N	-3.910840	-0.665200	-0.093654
H57	H	-4.051361	-0.708641	-0.110496
H58	H	-3.921115	-0.611879	-0.059929
N59	N	-4.101322	-0.271004	-0.860310
H60	H	-4.053277	-0.305206	-0.814731
H61	H	-3.987371	-0.252255	-0.889844
H62	H	-4.169362	-0.030547	-0.675281
H63	H	-4.323024	-0.200683	-0.847870
N64	N	-4.033916	-0.271505	-0.700253
H65	H	-4.137403	-0.308844	-0.675003
H66	H	-3.892559	-0.252833	-0.657389
H67	H	-3.978601	0.030885	-0.807682
N68	N	-3.856394	-0.504897	-0.095714
H69	H	-3.966190	-0.473581	-0.115242
H70	H	-3.725819	-0.463292	-0.057710
H71	H	-3.784363	-0.689223	-0.334123
H72	H	-4.260480	-0.200729	-0.703416
H73	H	-4.242068	-0.035337	-0.821300
N74	N	-3.575176	-0.507277	-0.161201
H75	H	-3.554740	-0.476222	-0.210590
H76	H	-3.500940	-0.554195	-0.159415
N77	N	-3.643725	-0.668657	-0.167089
H78	H	-3.668810	-0.731786	-0.164516
H79	H	-3.535241	-0.635413	-0.113888
N80	N	-4.316891	-0.550588	-0.341167
H81	H	-4.406997	-0.606906	-0.375964
H82	H	-4.228566	-0.519067	-0.376037
H83	H	-3.718146	-0.544677	-0.334048
H84	H	-3.985083	-0.558145	-0.396811
