data_functionalizedCrystal
_audit_creation_method	'MofGen! by Chris Wilmer'
_symmetry_space_group_name_H-M	'P1'
_symmetry_Int_Tables_number	1
_symmetry_cell_setting	triclinic
loop_
_symmetry_equiv_pos_as_xyz
  x,y,z
_cell_length_a	12.759401
_cell_length_b	13.897447
_cell_length_c	12.759393
_cell_angle_alpha	89.969252
_cell_angle_beta	89.981266
_cell_angle_gamma	90.019691
loop_
_atom_site_label
_atom_site_type_symbol
_atom_site_fract_x
_atom_site_fract_y
_atom_site_fract_z
Zn1	Zn	1.606223	-0.383966	-0.593978
Zn2	Zn	2.106223	0.116034	-0.093978
Zn3	Zn	1.606101	-0.545292	-0.418296
Zn4	Zn	2.106101	-0.045292	0.081704
Zn5	Zn	1.430524	-0.384013	-0.418317
Zn6	Zn	1.930524	0.115987	0.081683
Zn7	Zn	1.430498	-0.545222	-0.593938
Zn8	Zn	1.930498	-0.045222	-0.093938
O9	O	1.518337	-0.464623	-0.506132
O10	O	2.018337	0.035377	-0.006132
O11	O	1.753228	-0.405377	-0.570681
O12	O	2.253228	0.094623	-0.070681
O13	O	1.582771	-0.523947	-0.271278
O14	O	2.082771	-0.023947	0.228722
O15	O	1.453892	-0.249025	-0.441644
O16	O	1.953892	0.250975	0.058356
O17	O	1.753138	-0.523902	-0.441609
O18	O	2.253138	-0.023902	0.058391
O19	O	1.582977	-0.248991	-0.570701
O20	O	2.082977	0.251009	-0.070701
O21	O	1.453774	-0.405456	-0.271293
O22	O	1.953774	0.094544	0.228707
O23	O	1.283499	-0.405388	-0.441605
O24	O	1.783499	0.094612	0.058395
O25	O	1.453849	-0.523782	-0.740964
O26	O	1.953849	-0.023782	-0.240964
O27	O	1.283481	-0.523827	-0.570633
O28	O	1.783481	-0.023827	-0.070633
O29	O	1.582952	-0.405308	-0.740993
O30	O	2.082952	0.094692	-0.240993
O31	O	1.582746	-0.680264	-0.441570
O32	O	2.082746	-0.180264	0.058430
O33	O	1.453731	-0.680213	-0.570613
O34	O	1.953731	-0.180213	-0.070613
C35	C	1.245369	-0.464606	-0.506118
C36	C	1.745369	0.035394	-0.006118
C37	C	1.128593	-0.464621	-0.506137
C38	C	1.628593	0.035379	-0.006137
C39	C	1.073748	-0.526391	-0.573210
C40	C	1.573748	-0.026391	-0.073210
C41	C	0.964024	-0.526403	-0.573222
C42	C	1.464024	-0.026403	-0.073222
C43	C	0.963998	-0.402873	-0.439077
C44	C	1.463998	0.097127	0.060923
C45	C	1.073720	-0.402857	-0.439072
C46	C	1.573720	0.097143	0.060928
C47	C	1.128620	-0.588156	-0.640275
C48	C	1.628620	-0.088156	-0.140275
C49	C	1.073776	-0.649932	-0.707354
C50	C	1.573776	-0.149932	-0.207354
C51	C	0.964052	-0.649944	-0.707365
C52	C	1.464052	-0.149944	-0.207365
C53	C	0.909172	-0.588180	-0.640298
C54	C	1.409172	-0.088180	-0.140298
C55	C	1.518251	-0.715238	-0.506108
C56	C	2.018251	-0.215238	-0.006108
C57	C	1.518311	-0.822452	-0.506132
C58	C	2.018311	-0.322452	-0.006132
C59	C	1.518361	-0.909521	-0.506156
C60	C	2.018361	-0.409521	-0.006156
C61	C	1.518435	-1.018754	-0.506183
C62	C	2.018435	-0.518754	-0.006183
C63	C	1.792370	-0.464642	-0.506147
C64	C	2.292370	0.035358	-0.006147
C65	C	1.909146	-0.464650	-0.506153
C66	C	2.409146	0.035350	-0.006153
C67	C	1.518411	-0.464532	-0.780166
C68	C	2.018411	0.035468	-0.280166
C69	C	1.518443	-0.464493	-0.896942
C70	C	2.018443	0.035507	-0.396942
C71	C	1.518451	-0.213030	-0.506180
C72	C	2.018451	0.286970	-0.006180
C73	C	1.518500	-0.105816	-0.506200
C74	C	2.018500	0.394184	-0.006200
C75	C	1.585696	-0.402748	-1.061546
C76	C	2.085696	0.097252	-0.561546
C77	C	1.585673	-0.402791	-0.951822
C78	C	2.085673	0.097209	-0.451822
C79	C	1.451238	-0.526164	-0.951792
C80	C	1.951238	-0.026164	-0.451792
C81	C	1.451267	-0.526125	-1.061514
C82	C	1.951267	-0.026125	-0.561514
C83	C	1.652923	-0.341035	-1.116420
C84	C	2.152923	0.158965	-0.616420
C85	C	1.720129	-0.279365	-1.061578
C86	C	2.220129	0.220635	-0.561578
C87	C	1.720107	-0.279408	-0.951854
C88	C	2.220107	0.220592	-0.451854
C89	C	1.652878	-0.341120	-0.896972
C90	C	2.152878	0.158880	-0.396972
C91	C	1.518323	-0.464645	-0.233165
C92	C	2.018323	0.035355	0.266835
C93	C	1.518494	-0.464412	-0.116389
C94	C	2.018494	0.035588	0.383611
H95	H	0.819827	-0.588187	-0.640322
H96	H	1.319827	-0.088187	-0.140322
F97	F	0.905685	-0.715682	-0.778762
F98	F	1.405685	-0.215682	-0.278762
H99	H	0.919307	-0.352589	-0.384473
H100	H	1.419307	0.147411	0.115527
F101	F	1.379691	-0.591834	-0.893380
F102	F	1.879691	-0.091834	-0.393380
H103	H	1.217963	-0.588155	-0.640272
H104	H	1.717963	-0.088155	-0.140272
H105	H	1.652946	-0.340991	-1.205763
H106	H	2.152946	0.159009	-0.705763
F107	F	1.379743	-0.591754	-1.119885
F108	F	1.879743	-0.091754	-0.619885
H109	H	1.118466	-0.700211	-0.761963
H110	H	1.618466	-0.200211	-0.261963
H111	H	1.118376	-0.352551	-0.384462
H112	H	1.618376	0.147449	0.115538
H113	H	1.774870	-0.229127	-1.106270
H114	H	2.274870	0.270873	-0.606270
H115	H	1.774836	-0.229200	-0.907204
H116	H	2.274836	0.270800	-0.407204
H117	H	1.652873	-0.341157	-0.807627
H118	H	2.152873	0.158843	-0.307627
