data_functionalizedCrystal
_audit_creation_method	'MofGen! by Chris Wilmer'
_symmetry_space_group_name_H-M	'P1'
_symmetry_Int_Tables_number	1
_symmetry_cell_setting	triclinic
loop_
_symmetry_equiv_pos_as_xyz
  x,y,z
_cell_length_a	10.489746
_cell_length_b	8.965430
_cell_length_c	10.723024
_cell_angle_alpha	90.002398
_cell_angle_beta	95.495415
_cell_angle_gamma	90.001189
loop_
_atom_site_label
_atom_site_type_symbol
_atom_site_fract_x
_atom_site_fract_y
_atom_site_fract_z
O1	O	1.693938	0.123935	-0.176083
O2	O	1.322732	0.123960	-0.192603
O3	O	1.516897	0.123941	-0.002772
O4	O	1.499773	0.123953	-0.365914
O5	O	1.516880	-0.124138	-0.002788
O6	O	1.322715	-0.124119	-0.192618
O7	O	1.693920	-0.124144	-0.176099
Cu8	Cu	1.508316	-0.146783	-0.184360
Cu9	Cu	1.508337	0.146599	-0.184342
O10	O	1.499755	-0.124126	-0.365929
C11	C	1.275193	-0.000077	-0.191361
C12	C	1.133566	-0.000067	-0.187625
C13	C	0.980787	-0.000092	-0.064629
C14	C	1.058133	-0.122402	-0.126129
C15	C	1.058105	0.122184	-0.126143
C16	C	0.958567	-0.122515	-0.242530
C17	C	0.958534	0.122182	-0.242526
C18	C	1.035831	-0.000158	-0.304112
N19	N	1.508310	-0.353132	-0.184372
C20	C	1.419261	-0.549834	-0.272848
C21	C	1.392478	-0.450371	-0.160202
C22	C	1.535036	-0.450387	-0.297009
C23	C	1.481511	-0.549779	-0.071616
C24	C	1.624121	-0.549803	-0.208498
C25	C	1.597385	-0.450386	-0.095770
C26	C	1.741460	-0.000104	-0.177340
C27	C	1.883086	-0.000104	-0.181077
C28	C	1.515642	-0.000096	0.043720
C29	C	1.511914	-0.000091	0.182277
N30	N	1.508352	0.352948	-0.184319
C31	C	1.501010	-0.000085	-0.412422
C32	C	1.504739	-0.000080	-0.550979
C33	C	1.620558	-0.000096	0.257191
C34	C	1.616707	-0.000090	0.400397
H35	H	0.915248	-0.226038	-0.291661
C36	C	1.068824	-0.000241	-0.440995
H37	H	1.034418	-0.087208	-0.482170
H38	H	1.033211	0.085822	-0.482633
H39	H	1.159211	0.000577	-0.442622
H40	H	1.411725	-0.000086	0.384655
H41	H	1.672713	-0.406997	-0.020845
H42	H	1.722010	-0.593516	-0.228971
H43	H	0.915010	0.225596	-0.291634
H44	H	1.709715	-0.000101	0.464771
C45	C	1.382400	-0.000072	0.238838
H46	H	1.314736	-0.000058	0.173267
H47	H	1.376264	-0.086576	0.289066
H48	H	1.376286	0.086456	0.289058
C49	C	0.947463	-0.000261	0.072150
H50	H	0.981733	-0.087280	0.113337
H51	H	0.983031	0.085749	0.113916
H52	H	0.857052	0.000609	0.073574
C53	C	1.565561	-0.391413	-0.425717
H54	H	1.502194	-0.425484	-0.488495
H55	H	1.566102	-0.285468	-0.424590
H56	H	1.647209	-0.426936	-0.443480
C57	C	1.750069	-0.000110	0.200624
H58	H	1.735667	-0.000123	0.111794
H59	H	1.797229	0.086395	0.227587
H60	H	1.797207	-0.086637	0.227582
H61	H	1.101633	-0.225812	-0.076978
C62	C	1.317444	-0.608835	-0.373835
H63	H	1.235221	-0.574787	-0.356462
H64	H	1.335607	-0.573344	-0.453707
H65	H	1.318675	-0.714788	-0.373614
C66	C	1.116838	0.261882	-0.059705
H67	H	1.098351	0.261716	0.025312
H68	H	1.206982	0.261376	-0.063210
H69	H	1.081389	0.348740	-0.100218
C70	C	1.260203	-0.391354	-0.132594
H71	H	1.197009	-0.425396	-0.195551
H72	H	1.240617	-0.426847	-0.053168
H73	H	1.261373	-0.285402	-0.132061
H74	H	1.458809	-0.593255	0.023683
