data_functionalizedCrystal
_audit_creation_method	'MofGen! by Chris Wilmer'
_symmetry_space_group_name_H-M	'P1'
_symmetry_Int_Tables_number	1
_symmetry_cell_setting	triclinic
loop_
_symmetry_equiv_pos_as_xyz
  x,y,z
_cell_length_a	15.944551
_cell_length_b	13.339070
_cell_length_c	11.804917
_cell_angle_alpha	74.887183
_cell_angle_beta	78.163192
_cell_angle_gamma	80.435981
loop_
_atom_site_label
_atom_site_type_symbol
_atom_site_fract_x
_atom_site_fract_y
_atom_site_fract_z
O1	O	0.433305	-1.321859	-0.099104
O2	O	0.378031	-1.027332	-0.099088
O3	O	0.285266	-1.182640	-0.099086
O4	O	0.526070	-1.166550	-0.099106
O5	O	0.260878	-1.223496	0.098953
O6	O	0.353643	-1.068187	0.098950
O7	O	0.408917	-1.362715	0.098935
Cu8	Cu	0.379053	-1.219181	0.117025
Cu9	Cu	0.407895	-1.170865	-0.117179
O10	O	0.501682	-1.207406	0.098932
C11	C	0.356500	-1.010070	-0.000067
C12	C	0.328669	-0.897767	-0.000061
C13	C	0.241622	-1.202401	-0.000066
C14	C	0.147910	-1.200399	-0.000066
N15	N	0.358768	-1.253172	0.281751
C16	C	-0.090492	-1.099344	-0.000077
C17	C	-0.152600	-1.166413	0.097566
C18	C	-0.023659	-1.196775	-0.000074
C19	C	-0.128533	-1.126155	-0.097685
C20	C	-0.189387	-1.193266	-0.000088
C21	C	-0.084542	-1.263888	0.097649
C22	C	-0.060461	-1.223598	-0.097689
C23	C	-0.122538	-1.290744	-0.000023
C24	C	0.071812	-1.198794	-0.000065
C25	C	-0.284856	-1.191257	-0.000089
C26	C	0.545326	-1.187645	-0.000090
C27	C	0.639040	-1.189646	-0.000099
C28	C	0.545065	-0.532983	-0.000090
C29	C	0.571217	-0.638496	-0.000100
C30	C	0.510582	-0.703319	-0.000090
C31	C	0.423791	-0.662619	-0.000071
C32	C	0.397638	-0.557094	-0.000071
C33	C	0.363155	-0.727430	-0.000070
C34	C	0.276364	-0.686730	-0.000051
C35	C	0.250215	-0.581216	-0.000050
C36	C	0.310850	-0.516393	-0.000060
C37	C	0.389308	-0.832955	-0.000070
C38	C	0.241881	-0.857066	-0.000051
C39	C	0.215729	-0.751553	-0.000041
C40	C	0.430448	-0.379977	-0.000083
C41	C	0.458277	-0.492282	-0.000080
N42	N	0.428175	-1.136882	-0.281905
C43	C	0.476902	-1.055230	0.655784
C44	C	0.492252	-1.029492	0.531134
C45	C	0.458883	-1.085410	0.468782
C46	C	0.410160	-1.167070	0.531093
C47	C	0.394802	-1.192804	0.655756
C48	C	0.376783	-1.222985	0.468753
C49	C	0.328060	-1.304644	0.531065
C50	C	0.312706	-1.330375	0.655715
C51	C	0.346075	-1.274457	0.718067
C52	C	0.392141	-1.197250	0.344091
C53	C	0.310041	-1.334825	0.344062
C54	C	0.294691	-1.360562	0.468713
H55	H	-0.076041	-1.018492	0.000025
C56	C	-0.206476	-1.133748	0.209088
N57	N	-0.247054	-1.109137	0.293083
C58	C	-0.058327	-1.342542	0.209295
N59	N	-0.038581	-1.401780	0.293388
C60	C	0.475764	-1.057089	0.331662
N61	N	0.488480	-1.035754	0.228378
C62	C	-0.141872	-1.400105	0.000049
N63	N	-0.156439	-1.482475	0.000110
H64	H	-0.148048	-1.067902	-0.180239
H65	H	0.459973	-0.866083	-0.000081
C66	C	-0.006566	-1.256213	-0.209222
N67	N	0.034030	-1.280768	-0.293238
H68	H	0.531881	-0.789231	-0.000100
H69	H	0.504062	-1.009703	0.706559
C70	C	0.666682	-0.683261	-0.000104
N71	N	0.738590	-0.716980	-0.000101
H72	H	0.594426	-0.480194	-0.000109
H73	H	0.282867	-1.380357	0.293296
H74	H	0.289562	-0.430475	-0.000052
H75	H	0.431811	-1.130763	0.293368
C76	C	0.545957	-0.939776	0.462601
N77	N	0.586452	-0.872235	0.410981
C78	C	0.154743	-0.536450	-0.000028
N79	N	0.082832	-0.502735	-0.000006
H80	H	0.145064	-0.718398	-0.000036
C81	C	0.175177	-0.928368	-0.000036
N82	N	0.124941	-0.982079	-0.000025
C83	C	0.329190	-1.302762	0.855191
N84	N	0.316472	-1.324078	0.958475
H85	H	0.273025	-1.396859	0.706449
C86	C	0.241090	-1.450380	0.537271
N87	N	0.200716	-1.518030	0.588911
