data_functionalizedCrystal
_audit_creation_method	'MofGen! by Chris Wilmer'
_symmetry_space_group_name_H-M	'P1'
_symmetry_Int_Tables_number	1
_symmetry_cell_setting	triclinic
loop_
_symmetry_equiv_pos_as_xyz
  x,y,z
_cell_length_a	19.288859
_cell_length_b	10.723024
_cell_length_c	18.366186
_cell_angle_alpha	89.994974
_cell_angle_beta	89.990083
_cell_angle_gamma	83.800798
loop_
_atom_site_label
_atom_site_type_symbol
_atom_site_fract_x
_atom_site_fract_y
_atom_site_fract_z
O1	O	0.922368	0.155622	-0.060562
O2	O	0.720243	0.176628	-0.060560
O3	O	0.825968	-0.015549	-0.060559
O4	O	0.816643	0.347799	-0.060564
O5	O	0.825950	-0.015559	0.060541
O6	O	0.720225	0.176619	0.060539
O7	O	0.922350	0.155613	0.060537
Zn8	Zn	0.821285	0.166114	0.079765
Zn9	Zn	0.821309	0.166127	-0.079788
O10	O	0.816625	0.347790	0.060535
C11	C	0.694353	0.175949	-0.000010
C12	C	0.617236	0.173924	-0.000010
C13	C	0.825280	-0.062039	-0.000010
C14	C	0.823250	-0.200551	-0.000012
C15	C	0.053840	0.272985	-0.000012
C16	C	0.126299	0.274899	-0.000016
C17	C	0.170272	0.162138	-0.000013
C18	C	0.141781	0.047455	-0.000025
C19	C	0.069323	0.045544	-0.000028
C20	C	0.290989	0.078038	0.042417
C21	C	0.363445	0.079953	0.042425
C22	C	0.393756	0.168026	-0.000006
C23	C	0.351601	0.254204	-0.042435
C24	C	0.279144	0.252294	-0.042439
C25	C	0.248841	0.164197	-0.000010
C26	C	0.500808	0.284777	-0.000003
C27	C	0.573268	0.286686	-0.000011
C28	C	0.588749	0.059238	-0.000013
C29	C	0.516290	0.057333	-0.000012
C30	C	0.472323	0.170105	-0.000003
C31	C	0.882408	-0.276778	-0.000014
C32	C	0.880311	-0.419937	-0.000016
C33	C	0.948240	0.156292	-0.000014
C34	C	1.025357	0.158317	-0.000020
C35	C	0.817313	0.394280	-0.000015
C36	C	0.819343	0.532791	-0.000017
N37	N	0.821273	0.166105	0.188656
N38	N	0.821325	0.166126	-0.188680
C39	C	0.868104	0.081051	0.226758
C40	C	0.868108	0.081045	0.302985
C41	C	0.821289	0.166115	0.341109
C42	C	0.774449	0.251176	0.302999
C43	C	0.774442	0.251171	0.226772
C44	C	0.812730	0.279808	0.461868
C45	C	0.812743	0.279815	0.538093
C46	C	0.821309	0.166131	0.576217
C47	C	0.829877	0.052435	0.538106
C48	C	0.829869	0.052430	0.461880
C49	C	0.821292	0.166130	0.423764
C50	C	0.868147	0.081063	0.696973
C51	C	0.868146	0.081056	0.773202
C52	C	0.774491	0.251198	0.773214
C53	C	0.774488	0.251195	0.696986
C54	C	0.821319	0.166128	0.658870
H55	H	0.018047	0.364814	-0.000009
H56	H	0.906245	0.011781	0.334013
F57	F	0.603581	0.408738	-0.000010
F58	F	0.485974	-0.064715	-0.000022
H59	H	0.149495	0.368278	-0.000003
F60	F	0.917986	-0.009476	0.656406
H61	H	0.934608	-0.236054	-0.000010
F62	F	0.838981	-0.068570	0.421323
H63	H	0.906279	0.011788	0.804225
F64	F	0.234282	0.344003	-0.087597
F65	F	0.635544	-0.060772	-0.000019
F66	F	0.838998	-0.068566	0.578674
H67	H	0.397762	0.009788	0.076978
H68	H	0.736367	0.320459	0.804254
F69	F	0.383854	0.347955	-0.087590
F70	F	0.946509	-0.505544	-0.000013
H71	H	0.768697	-0.401718	-0.000011
H72	H	0.771050	-0.241275	-0.000017
H73	H	0.736357	0.320459	0.665962
H74	H	0.906235	0.011782	0.195726
F75	F	0.803629	0.400818	0.578646
H76	H	0.177589	-0.044356	-0.000024
F77	F	0.803664	0.400817	0.421301
H78	H	0.736327	0.320440	0.334043
H79	H	0.736306	0.320434	0.195750
H80	H	0.465008	0.376603	0.000002
F81	F	0.258741	-0.015756	0.087547
H82	H	0.046134	-0.047835	-0.000035
