data_functionalizedCrystal
_audit_creation_method	'MofGen! by Chris Wilmer'
_symmetry_space_group_name_H-M	'P1'
_symmetry_Int_Tables_number	1
_symmetry_cell_setting	triclinic
loop_
_symmetry_equiv_pos_as_xyz
  x,y,z
_cell_length_a	16.120490
_cell_length_b	18.050589
_cell_length_c	16.120297
_cell_angle_alpha	92.875657
_cell_angle_beta	90.129683
_cell_angle_gamma	87.120764
loop_
_atom_site_label
_atom_site_type_symbol
_atom_site_fract_x
_atom_site_fract_y
_atom_site_fract_z
Zn1	Zn	1.247411	-0.376308	-0.534557
Zn2	Zn	1.747411	0.123692	-0.034557
Zn3	Zn	1.254350	-0.494533	-0.395506
Zn4	Zn	1.754350	0.005467	0.104494
Zn5	Zn	1.115402	-0.363752	-0.388477
Zn6	Zn	1.615402	0.136248	0.111523
Zn7	Zn	1.108306	-0.493842	-0.527479
Zn8	Zn	1.608306	0.006158	-0.027479
O9	O	1.181367	-0.432109	-0.461505
O10	O	1.681367	0.067891	0.038495
O11	O	1.364698	-0.397535	-0.522015
O12	O	1.864698	0.102465	-0.022015
O13	O	1.241792	-0.472219	-0.278208
O14	O	1.741792	0.027781	0.221792
O15	O	1.132978	-0.261497	-0.407876
O16	O	1.632978	0.238503	0.092124
O17	O	1.369796	-0.484394	-0.419855
O18	O	1.869796	0.015606	0.080145
O19	O	1.229965	-0.270722	-0.515200
O20	O	1.729965	0.229278	-0.015200
O21	O	1.139707	-0.376135	-0.273044
O22	O	1.639707	0.123865	0.226956
O23	O	0.998094	-0.375465	-0.401013
O24	O	1.498094	0.124535	0.098987
O25	O	1.120885	-0.483217	-0.644784
O26	O	1.620885	0.016783	-0.144784
O27	O	0.992881	-0.471042	-0.503136
O28	O	1.492881	0.028958	-0.003136
O29	O	1.223085	-0.396865	-0.649984
O30	O	1.723085	0.103135	-0.149984
O31	O	1.234912	-0.598362	-0.412992
O32	O	1.734912	-0.098362	0.087008
O33	O	1.127614	-0.597855	-0.509952
O34	O	1.627614	-0.097855	-0.009952
C35	C	0.965315	-0.421817	-0.450544
C36	C	1.465315	0.078183	0.049456
C37	C	0.872886	-0.417432	-0.445875
C38	C	1.372886	0.082568	0.054125
C39	C	1.181268	-0.625056	-0.461486
C40	C	1.681268	-0.125056	0.038514
C41	C	1.181300	-0.707604	-0.461510
C42	C	1.681300	-0.207604	0.038490
C43	C	0.659921	-0.454846	-0.485727
C44	C	1.159921	0.045154	0.014273
C45	C	0.703662	-0.409434	-0.437349
C46	C	1.203662	0.090566	0.062651
C47	C	0.797827	-0.413886	-0.442094
C48	C	1.297827	0.086114	0.057906
C49	C	0.565747	-0.450396	-0.480982
C50	C	1.065747	0.049604	0.019018
C51	C	1.123007	-0.906807	-0.514220
C52	C	1.623007	-0.406807	-0.014220
C53	C	1.106583	-0.952029	-0.437314
C54	C	1.606583	-0.452029	0.062686
C55	C	1.181381	-0.858739	-0.461525
C56	C	1.681381	-0.358739	0.038475
C57	C	1.197844	-0.960602	-0.538441
C58	C	1.697844	-0.460602	-0.038441
C59	C	1.181457	-1.004728	-0.461546
C60	C	1.681457	-0.504728	0.038454
C61	C	1.164920	-0.902869	-0.384577
C62	C	1.664920	-0.402869	0.115423
C63	C	1.256213	-0.911442	-0.485756
C64	C	1.756213	-0.411442	0.014244
C65	C	1.239822	-0.956640	-0.408800
C66	C	1.739822	-0.456640	0.091200
C67	C	1.181335	-0.774638	-0.461513
C68	C	1.681335	-0.274638	0.038487
C69	C	1.181504	-1.088827	-0.461548
C70	C	1.681504	-0.588827	0.038452
C71	C	1.398263	-0.442442	-0.472509
C72	C	1.898263	0.057558	0.027491
C73	C	1.490691	-0.446846	-0.477198
C74	C	1.990691	0.053154	0.022802
C75	C	1.170419	-0.441364	-0.678400
C76	C	1.670419	0.058636	-0.178400
C77	C	1.165754	-0.445308	-0.770828
C78	C	1.665754	0.054692	-0.270828
C79	C	1.181489	-0.238411	-0.461543
C80	C	1.681489	0.261589	0.038457
C81	C	1.181541	-0.155868	-0.461560
C82	C	1.681541	0.344132	0.038440
C83	C	1.157205	-0.452491	-0.940053
C84	C	1.657205	0.047509	-0.440053
C85	C	1.205693	-0.411512	-0.983817
C86	C	1.705693	0.088488	-0.483817
C87	C	1.200937	-0.415509	-1.077980
C88	C	1.700937	0.084491	-0.577980
C89	C	1.161961	-0.448495	-0.845882
C90	C	1.661961	0.051505	-0.345882
C91	C	1.192321	-0.422839	-0.245456
C92	C	1.692321	0.077161	0.254544
C93	C	1.197147	-0.418693	-0.153037
C94	C	1.697147	0.081307	0.346963
H95	H	0.670390	-0.367213	-0.392367
H96	H	1.170390	0.132787	0.107633
N97	N	0.703984	-0.510781	-0.545297
N98	N	1.203984	-0.010781	-0.045297
H99	H	0.685946	-0.501178	-0.603995
H100	H	1.185946	-0.001178	-0.103995
H101	H	0.765969	-0.506045	-0.540206
H102	H	1.265969	-0.006045	-0.040206
H103	H	1.250776	-0.373427	-0.950566
H104	H	1.750776	0.126573	-0.450566
N105	N	1.097486	-0.502926	-0.984101
N106	N	1.597486	-0.002926	-0.484101
H107	H	1.129475	-0.540445	-1.021861
H108	H	1.629475	-0.040445	-0.521861
H109	H	1.065793	-0.529672	-0.941733
H110	H	1.565793	-0.029672	-0.441733
H111	H	1.319445	-0.893452	-0.506269
H112	H	1.819445	-0.393452	-0.006269
N113	N	1.057543	-0.877816	-0.573160
N114	N	1.557543	-0.377816	-0.073160
H115	H	1.027510	-0.920781	-0.599516
H116	H	1.527510	-0.420781	-0.099516
H117	H	1.016528	-0.843001	-0.541509
H118	H	1.516528	-0.343001	-0.041509
N119	N	1.022799	-0.975831	-0.410170
N120	N	1.522799	-0.475831	0.089830
H121	H	0.998235	-1.008356	-0.455749
H122	H	1.498235	-0.508356	0.044251
H123	H	1.029524	-1.004559	-0.358201
H124	H	1.529524	-0.504559	0.141799
N125	N	1.146421	-0.869586	-0.298394
N126	N	1.646421	-0.369586	0.201606
H127	H	1.146482	-0.813661	-0.298923
H128	H	1.646482	-0.313661	0.201077
H129	H	1.090128	-0.884724	-0.280034
H130	H	1.590128	-0.384724	0.219966
H131	H	1.289223	-0.978374	-0.364192
H132	H	1.789223	-0.478374	0.135808
H133	H	1.211739	-0.985821	-0.603479
H134	H	1.711739	-0.485821	-0.103479
