data_functionalizedCrystal
_audit_creation_method	'MofGen! by Chris Wilmer'
_symmetry_space_group_name_H-M	'P1'
_symmetry_Int_Tables_number	1
_symmetry_cell_setting	triclinic
loop_
_symmetry_equiv_pos_as_xyz
  x,y,z
_cell_length_a	14.044220
_cell_length_b	19.288865
_cell_length_c	18.366186
_cell_angle_alpha	89.988521
_cell_angle_beta	90.003974
_cell_angle_gamma	91.837437
loop_
_atom_site_label
_atom_site_type_symbol
_atom_site_fract_x
_atom_site_fract_y
_atom_site_fract_z
O1	O	1.256998	-0.167413	0.060488
O2	O	1.756998	0.332587	0.560488
O3	O	0.981055	-0.161372	0.060506
O4	O	1.481055	0.338628	0.560506
O5	O	1.127000	-0.063774	0.060482
O6	O	1.627000	0.436226	0.560482
O7	O	1.111053	-0.265010	0.060512
O8	O	1.611053	0.234990	0.560512
O9	O	1.126975	-0.063768	-0.060617
O10	O	1.626975	0.436232	0.439383
O11	O	0.981030	-0.161365	-0.060593
O12	O	1.481030	0.338635	0.439407
O13	O	1.256973	-0.167406	-0.060611
O14	O	1.756973	0.332594	0.439389
Zn15	Zn	1.118998	-0.164384	-0.079829
Zn16	Zn	1.618998	0.335616	0.420171
Zn17	Zn	1.119030	-0.164393	0.079724
Zn18	Zn	1.619030	0.335607	0.579724
O19	O	1.111028	-0.265004	-0.060587
O20	O	1.611028	0.234996	0.439413
C21	C	0.945739	-0.158724	-0.000041
C22	C	1.445739	0.341276	0.499959
C23	C	0.840547	-0.150836	-0.000035
C24	C	1.340547	0.349164	0.499965
C25	C	1.126474	-0.037862	-0.000069
C26	C	1.626474	0.462138	0.499931
C27	C	1.124934	0.039341	-0.000076
C28	C	1.624934	0.539341	0.499924
N29	N	1.118982	-0.164378	-0.188720
N30	N	1.618982	0.335622	0.311280
C31	C	0.647947	-0.136416	-0.000052
C32	C	1.147947	0.363584	0.499948
C33	C	0.590075	-0.192359	-0.000047
C34	C	1.090075	0.307641	0.499953
C35	C	0.482906	-0.184335	-0.000056
C36	C	0.982906	0.315665	0.499944
C37	C	0.755126	-0.144438	-0.000043
C38	C	1.255126	0.355562	0.499957
C39	C	1.292289	-0.170054	-0.000062
C40	C	1.792289	0.329946	0.499938
C41	C	1.397481	-0.177942	-0.000063
C42	C	1.897481	0.322058	0.499937
C43	C	1.111554	-0.290916	-0.000034
C44	C	1.611554	0.209084	0.499966
C45	C	1.113094	-0.368119	-0.000023
C46	C	1.613094	0.131881	0.499977
C47	C	1.210568	0.078535	-0.000085
C48	C	1.710568	0.578535	0.499915
C49	C	1.209121	0.151075	-0.000073
C50	C	1.709121	0.651075	0.499927
C51	C	1.122035	0.184418	-0.000067
C52	C	1.622035	0.684418	0.499933
C53	C	1.036390	0.145215	-0.000054
C54	C	1.536390	0.645215	0.499946
C55	C	1.037839	0.072676	-0.000058
C56	C	1.537839	0.572676	0.499942
C57	C	1.053566	0.297107	-0.042481
C58	C	1.553566	0.797107	0.457519
C59	C	1.052121	0.369644	-0.042481
C60	C	1.552121	0.869644	0.457519
C61	C	1.117560	0.408151	-0.000051
C62	C	1.617560	0.908151	0.499949
C63	C	1.184462	0.374113	0.042371
C64	C	1.684462	0.874113	0.542371
C65	C	1.185912	0.301574	0.042367
C66	C	1.685912	0.801574	0.542367
C67	C	1.120453	0.263074	-0.000062
C68	C	1.620453	0.763074	0.499938
C69	C	1.201631	0.526002	-0.000046
C70	C	1.701631	1.026002	0.499954
C71	C	1.200181	0.598543	-0.000030
C72	C	1.700181	1.098543	0.499970
C73	C	1.027447	0.592681	-0.000018
C74	C	1.527447	1.092681	0.499982
C75	C	1.028900	0.520142	-0.000027
C76	C	1.528900	1.020142	0.499973
C77	C	1.115995	0.486806	-0.000044
C78	C	1.615995	0.986806	0.499956
C79	C	1.183628	-0.121187	-0.226831
C80	C	1.683628	0.378813	0.273169
C81	C	1.183634	-0.121184	-0.303059
C82	C	1.683634	0.378816	0.196941
C83	C	1.119003	-0.164385	-0.341173
C84	C	1.619003	0.335615	0.158827
C85	C	1.054346	-0.207580	-0.303053
C86	C	1.554346	0.292420	0.196947
C87	C	1.054335	-0.207576	-0.226827
C88	C	1.554335	0.292424	0.273173
C89	C	1.106318	-0.226858	-0.461924
C90	C	1.606318	0.273142	0.038076
C91	C	1.106335	-0.226863	-0.538148
C92	C	1.606335	0.273137	-0.038148
C93	C	1.119030	-0.164396	-0.576281
C94	C	1.619030	0.335604	-0.076281
C95	C	1.131729	-0.101922	-0.538178
C96	C	1.631729	0.398078	-0.038178
C97	C	1.131718	-0.101919	-0.461952
C98	C	1.631718	0.398081	0.038048
C99	C	1.119007	-0.164394	-0.423828
C100	C	1.619007	0.335606	0.076172
C101	C	1.183686	-0.121198	-0.697046
C102	C	1.683686	0.378802	-0.197046
C103	C	1.183685	-0.121194	-0.773276
C104	C	1.683685	0.378806	-0.273276
C105	C	1.054402	-0.207596	-0.773268
C106	C	1.554402	0.292404	-0.273268
C107	C	1.054398	-0.207593	-0.697040
C108	C	1.554398	0.292407	-0.197040
C109	C	1.119045	-0.164395	-0.658934
C110	C	1.619045	0.335605	-0.158934
N111	N	1.119053	-0.164395	0.188616
N112	N	1.619053	0.335605	0.688616
H113	H	0.621016	-0.246280	-0.000035
H114	H	1.121016	0.253720	0.499965
F115	F	0.980922	0.405864	-0.087632
F116	F	1.480922	0.905864	0.412368
F117	F	0.983913	0.256131	-0.087646
F118	F	1.483913	0.756131	0.412354
H119	H	1.001692	-0.242749	-0.195796
H120	H	1.501692	0.257251	0.304204
H121	H	1.001775	-0.242768	-0.804300
H122	H	1.501775	0.257232	-0.304300
F123	F	1.092827	-0.293353	-0.578693
F124	F	1.592827	0.206647	-0.078693
F125	F	1.092874	-0.293355	-0.421348
F126	F	1.592874	0.206645	0.078652
H127	H	1.269917	0.630454	-0.000033
H128	H	1.769917	1.130454	0.499967
H129	H	0.617008	-0.082499	-0.000064
H130	H	1.117008	0.417501	0.499936
H131	H	1.142055	-0.051051	-0.430932
H132	H	1.642055	0.448949	0.069068
F133	F	1.303262	0.043061	-0.000088
F134	F	1.803262	0.543061	0.499912
H135	H	1.236265	-0.086011	-0.195807
H136	H	1.736265	0.413989	0.304193
H137	H	1.001721	-0.242754	-0.334089
H138	H	1.501721	0.257246	0.165911
H139	H	1.278856	0.182993	-0.000078
H140	H	1.778856	0.682993	0.499922
H141	H	1.001761	-0.242767	-0.666008
H142	H	1.501761	0.257233	-0.166008
F143	F	1.252488	-0.075217	-0.813838
F144	F	1.752488	0.424783	-0.313838
F145	F	0.934763	0.628163	-0.000008
F146	F	1.434763	1.128163	0.499992
H147	H	1.240384	0.273863	0.076909
H148	H	1.740384	0.773863	0.576909
H149	H	1.237750	0.405464	0.076923
H150	H	1.737750	0.905464	0.576923
H151	H	1.272549	0.498859	-0.000057
H152	H	1.772549	0.998859	0.499943
F153	F	0.937755	0.478426	-0.000020
F154	F	1.437755	0.978426	0.499980
F155	F	0.943707	0.180702	-0.000043
F156	F	1.443707	0.680702	0.499957
F157	F	0.946692	0.030962	-0.000048
F158	F	1.446692	0.530962	0.499952
H159	H	1.236278	-0.086011	-0.334095
H160	H	1.736278	0.413989	0.165905
H161	H	1.142066	-0.051055	-0.569224
H162	H	1.642066	0.448945	-0.069224
F163	F	1.252485	-0.075220	-0.656490
F164	F	1.752485	0.424780	-0.156490
