data_functionalizedCrystal
_audit_creation_method	'MofGen! by Chris Wilmer'
_symmetry_space_group_name_H-M	'P1'
_symmetry_Int_Tables_number	1
_symmetry_cell_setting	triclinic
loop_
_symmetry_equiv_pos_as_xyz
  x,y,z
_cell_length_a	29.839134
_cell_length_b	29.839131
_cell_length_c	29.839126
_cell_angle_alpha	90.021998
_cell_angle_beta	90.035740
_cell_angle_gamma	90.036281
loop_
_atom_site_label
_atom_site_type_symbol
_atom_site_fract_x
_atom_site_fract_y
_atom_site_fract_z
Zn1	Zn	0.686781	-0.178959	0.254125
Zn2	Zn	0.686695	-0.254076	0.178995
Zn3	Zn	0.611645	-0.178955	0.178995
Zn4	Zn	0.611611	-0.254056	0.254083
O5	O	0.649183	-0.216511	0.216550
O6	O	0.749636	-0.188934	0.244176
O7	O	0.676718	-0.244118	0.116128
O8	O	0.621662	-0.116088	0.188978
O9	O	0.749573	-0.244122	0.188979
O10	O	0.676864	-0.116091	0.244176
O11	O	0.621579	-0.188927	0.116128
O12	O	0.548774	-0.188906	0.188938
O13	O	0.621604	-0.244087	0.316956
O14	O	0.548749	-0.244083	0.244105
O15	O	0.676831	-0.188914	0.316987
O16	O	0.676684	-0.316941	0.188938
O17	O	0.621521	-0.316926	0.244105
C18	C	0.532460	-0.216492	0.216517
C19	C	0.482526	-0.216495	0.216514
C20	C	0.172879	-0.245284	0.245240
C21	C	-0.014794	-0.245297	0.245260
O22	O	-0.039062	-0.269754	0.269665
N23	N	-0.038259	-0.216528	0.216583
C24	C	-0.014803	-0.187752	0.187902
O25	O	-0.039068	-0.163279	0.163514
C26	C	0.172869	-0.187737	0.187884
C27	C	0.196332	-0.216511	0.216560
C28	C	0.196342	-0.274056	0.273913
C29	C	0.243257	-0.274054	0.273906
C30	C	0.266710	-0.245281	0.245226
C31	C	0.243247	-0.216509	0.216553
C32	C	0.196325	-0.158959	0.159205
C33	C	0.243246	-0.158957	0.159204
C34	C	0.266708	-0.187731	0.187880
C35	C	0.313616	-0.187734	0.187865
N36	N	0.337081	-0.216504	0.216542
C37	C	0.313628	-0.245277	0.245222
C38	C	-0.113334	-0.187762	0.187912
C39	C	-0.160251	-0.187766	0.187916
C40	C	-0.160239	-0.245311	0.245275
C41	C	-0.113321	-0.245309	0.245269
C42	C	-0.089869	-0.216531	0.216589
C43	C	0.412154	-0.245271	0.245205
C44	C	0.459073	-0.245268	0.245194
C45	C	0.459057	-0.187722	0.187837
C46	C	0.412141	-0.187726	0.187846
C47	C	0.388691	-0.216502	0.216534
O48	O	0.337912	-0.163287	0.163477
O49	O	0.337900	-0.269739	0.269613
C50	C	0.125964	-0.245286	0.245247
C51	C	0.102501	-0.216515	0.216574
C52	C	0.125954	-0.187741	0.187893
C53	C	0.055583	-0.216519	0.216577
C54	C	0.032130	-0.245292	0.245258
C55	C	0.055595	-0.274061	0.273934
C56	C	0.102511	-0.274059	0.273927
C57	C	0.102489	-0.158972	0.159217
C58	C	0.055573	-0.158977	0.159226
C59	C	0.032120	-0.187750	0.187906
C60	C	0.649102	-0.333234	0.216527
C61	C	0.649108	-0.383168	0.216533
C62	C	0.677959	-0.692807	0.187866
C63	C	0.678014	-0.880480	0.187883
O64	O	0.702480	-0.904741	0.163493
N65	N	0.649276	-0.903953	0.216583
C66	C	0.620524	-0.880506	0.245283
O67	O	0.596085	-0.904777	0.269698
C68	C	0.620471	-0.692833	0.245268
C69	C	0.649208	-0.669363	0.216563
C70	C	0.706694	-0.669336	0.159164
C71	C	0.706678	-0.622421	0.159158
C72	C	0.677927	-0.598976	0.187854
C73	C	0.649192	-0.622447	0.216557
C74	C	0.591722	-0.669387	0.273969
C75	C	0.591712	-0.622466	0.273964
C76	C	0.620449	-0.598995	0.245259
C77	C	0.620426	-0.552087	0.245248
N78	N	0.649164	-0.528614	0.216548
C79	C	0.677915	-0.552058	0.187851
C80	C	0.620553	-0.979036	0.245289
C81	C	0.620566	-1.025954	0.245292
C82	C	0.678057	-1.025925	0.187893
C83	C	0.678042	-0.979007	0.187887
C84	C	0.649291	-0.955563	0.216589
C85	C	0.677879	-0.453533	0.187841
C86	C	0.677859	-0.406613	0.187836
C87	C	0.620370	-0.406646	0.245237
C88	C	0.620388	-0.453561	0.245240
C89	C	0.649146	-0.477004	0.216540
O90	O	0.595976	-0.527797	0.269629
O91	O	0.702357	-0.527778	0.163447
C92	C	0.677975	-0.739723	0.187872
C93	C	0.649240	-0.763193	0.216574
C94	C	0.620489	-0.739749	0.245271
C95	C	0.649252	-0.810111	0.216578
C96	C	0.678003	-0.833556	0.187881
C97	C	0.706741	-0.810082	0.159181
C98	C	0.706726	-0.763167	0.159175
C99	C	0.591751	-0.763222	0.273971
C100	C	0.591769	-0.810138	0.273974
C101	C	0.620520	-0.833582	0.245277
C102	C	0.766361	-0.216531	0.216582
C103	C	0.816296	-0.216539	0.216596
C104	C	0.649223	-0.216499	0.333728
C105	C	0.649240	-0.216493	0.383662
C106	C	0.649277	-0.099333	0.216582
C107	C	0.649317	-0.049399	0.216595
C108	C	0.649169	-0.216492	0.099827
C109	C	0.649239	-0.216371	0.049893
C110	C	0.677945	-0.245172	0.740253
C111	C	0.677946	-0.245203	0.552580
O112	O	0.702347	-0.269657	0.528318
N113	N	0.649238	-0.216471	0.529108
C114	C	0.620527	-0.187732	0.552557
O115	O	0.596106	-0.163298	0.528286
C116	C	0.620524	-0.187704	0.740229
C117	C	0.649237	-0.216434	0.763699
C118	C	0.706655	-0.273900	0.763723
C119	C	0.706656	-0.273890	0.810638
C120	C	0.677947	-0.245152	0.834084
C121	C	0.649238	-0.216424	0.810614
C122	C	0.591811	-0.158967	0.763677
C123	C	0.591812	-0.158963	0.810598
C124	C	0.620524	-0.187693	0.834068
C125	C	0.620531	-0.187676	0.880975
N126	N	0.649238	-0.216407	0.904447
C127	C	0.677946	-0.245145	0.881002
C128	C	0.620531	-0.187749	0.454026
C129	C	0.620532	-0.187755	0.407108
C130	C	0.677950	-0.245227	0.407134
C131	C	0.677951	-0.245217	0.454053
C132	C	0.649238	-0.216480	0.477498
C133	C	0.677947	-0.245122	0.979527
C134	C	0.677947	-0.245109	1.026447
C135	C	0.620527	-0.187639	1.026417
C136	C	0.620529	-0.187651	0.979501
C137	C	0.649240	-0.216396	0.956058
O138	O	0.596139	-0.163238	0.905266
O139	O	0.702356	-0.269583	0.905280
C140	C	0.677944	-0.245181	0.693337
C141	C	0.649234	-0.216453	0.669868
C142	C	0.620526	-0.187715	0.693313
C143	C	0.649235	-0.216460	0.622950
C144	C	0.677944	-0.245198	0.599504
C145	C	0.706651	-0.273929	0.622976
C146	C	0.706652	-0.273919	0.669892
C147	C	0.591818	-0.158984	0.669841
C148	C	0.591820	-0.158996	0.622926
C149	C	0.620528	-0.187734	0.599480
H150	H	0.177251	-0.297487	0.297271
H151	H	0.568364	-0.829244	0.297349
Br152	Br	0.581568	-0.148654	0.947648
H153	H	0.730035	-0.297286	0.829743
H154	H	0.478174	-0.268701	0.268545
Br155	Br	0.716919	-0.284209	0.485900
Br156	Br	0.490895	-0.148675	0.148915
Br157	Br	0.716918	-0.284101	1.058296
Br158	Br	0.380335	-0.284325	0.284139
H159	H	0.730028	-0.297327	0.603878
H160	H	0.597161	-1.045060	0.268662
Br161	Br	0.745621	-0.312907	0.731912
H162	H	-0.094220	-0.268739	0.268619
H163	H	0.701260	-0.387504	0.164459
Br164	Br	0.581355	-0.374819	0.284182
Br165	Br	0.552844	-0.119958	0.842413
H166	H	0.262356	-0.297484	0.297258
H167	H	0.568339	-0.744137	0.297340
Br168	Br	0.275071	-0.119897	0.120281
H169	H	0.393037	-0.164297	0.164496
Br170	Br	0.745758	-0.841909	0.120234
Br171	Br	0.716911	-0.284229	0.375306
H172	H	-0.179343	-0.268739	0.268628
H173	H	0.701297	-0.472614	0.164472
Br174	Br	0.717074	-1.057752	0.148946
H175	H	0.730079	-0.603313	0.135785
Br176	Br	0.745729	-0.731321	0.120217
H177	H	0.596989	-0.472672	0.268615
H178	H	0.036474	-0.135546	0.135871
Br179	Br	0.134345	-0.313113	0.312845
Br180	Br	0.717043	-0.947158	0.148929
H181	H	0.568429	-0.135573	0.744576
Br182	Br	-0.192088	-0.148721	0.148991
H183	H	-0.094243	-0.164327	0.164556
H184	H	0.730109	-0.688420	0.135795
Br185	Br	0.164494	-0.119903	0.120289
H186	H	0.597157	-0.164355	0.388003
Br187	Br	0.552693	-0.590652	0.312919
Br188	Br	0.716912	-0.284134	0.947719
H189	H	0.036492	-0.297491	0.297286
H190	H	0.121579	-0.135541	0.135861
H191	H	0.597148	-0.164346	0.473111
Br192	Br	0.581569	-0.148638	1.058245
Br193	Br	0.581531	-0.947227	0.284244
Br194	Br	0.552852	-0.119998	0.591080
Br195	Br	0.552842	-0.119989	0.701653
H196	H	0.568319	-0.688489	0.297342
H197	H	0.730033	-0.297314	0.688996
