data_functionalizedCrystal
_audit_creation_method	'MofGen! by Chris Wilmer'
_symmetry_space_group_name_H-M	'P1'
_symmetry_Int_Tables_number	1
_symmetry_cell_setting	triclinic
loop_
_symmetry_equiv_pos_as_xyz
  x,y,z
_cell_length_a	18.215407
_cell_length_b	18.215405
_cell_length_c	18.215399
_cell_angle_alpha	89.970050
_cell_angle_beta	89.985640
_cell_angle_gamma	90.020175
loop_
_atom_site_label
_atom_site_type_symbol
_atom_site_fract_x
_atom_site_fract_y
_atom_site_fract_z
Zn1	Zn	1.125061	-0.293025	-0.416070
Zn2	Zn	1.124981	-0.416101	-0.293004
Zn3	Zn	1.002000	-0.293047	-0.293022
Zn4	Zn	1.001964	-0.416048	-0.416034
O5	O	1.063501	-0.354555	-0.354533
O6	O	1.228035	-0.309363	-0.399752
O7	O	1.108648	-0.399809	-0.190022
O8	O	1.018373	-0.190060	-0.309367
O9	O	1.227976	-0.399787	-0.309336
O10	O	1.108786	-0.190043	-0.399769
O11	O	1.018295	-0.309402	-0.190035
O12	O	0.899011	-0.309351	-0.309333
O13	O	1.018312	-0.399697	-0.519023
O14	O	0.898985	-0.399720	-0.399709
O15	O	1.108751	-0.309312	-0.519049
O16	O	1.108613	-0.519078	-0.309302
O17	O	1.018234	-0.519040	-0.399692
C18	C	0.872295	-0.354533	-0.354520
C19	C	0.790496	-0.354541	-0.354532
C20	C	0.602332	-0.307554	-0.401685
C21	C	0.525473	-0.307560	-0.401688
C22	C	0.525423	-0.401577	-0.307393
C23	C	0.602280	-0.401567	-0.307387
C24	C	0.640733	-0.354556	-0.354538
C25	C	0.487017	-0.354573	-0.354546
C26	C	0.403683	-0.354580	-0.354548
C27	C	0.724072	-0.354548	-0.354534
C28	C	1.063431	-0.545762	-0.354507
C29	C	1.063468	-0.627560	-0.354521
C30	C	1.110568	-0.815685	-0.401657
C31	C	1.110595	-0.892543	-0.401671
C32	C	1.016526	-0.892674	-0.307454
C33	C	1.016496	-0.815817	-0.307444
C34	C	1.063521	-0.777324	-0.354545
C35	C	1.063578	-0.931040	-0.354568
C36	C	1.063606	-1.014374	-0.354583
C37	C	1.063492	-0.693985	-0.354531
C38	C	1.255454	-0.354579	-0.354546
C39	C	1.337253	-0.354588	-0.354552
C40	C	1.063536	-0.354497	-0.546486
C41	C	1.063551	-0.354471	-0.628284
C42	C	1.063592	-0.162602	-0.354574
C43	C	1.063631	-0.080803	-0.354592
C44	C	1.016544	-0.307365	-0.816486
C45	C	1.016557	-0.307350	-0.893345
C46	C	1.110646	-0.401490	-0.893321
C47	C	1.110629	-0.401508	-0.816463
C48	C	1.063579	-0.354441	-0.778048
C49	C	1.063609	-0.354409	-0.931764
C50	C	1.063623	-0.354393	-1.015098
C51	C	1.063564	-0.354458	-0.694709
C52	C	1.063509	-0.354561	-0.163326
C53	C	1.063637	-0.354379	-0.081528
H54	H	0.633547	-0.439842	-0.268990
H55	H	0.978255	-0.269016	-0.924638
C56	C	0.483236	-0.255862	-0.453554
H57	H	0.517147	-0.227869	-0.481636
H58	H	0.453252	-0.223764	-0.425464
H59	H	0.453259	-0.284062	-0.485574
C60	C	0.964788	-0.255600	-0.774229
H61	H	0.971517	-0.262347	-0.722949
H62	H	0.915340	-0.266363	-0.786820
H63	H	0.975587	-0.206149	-0.786840
H64	H	1.148858	-0.784346	-0.440011
C65	C	0.964743	-0.773617	-0.255616
H66	H	0.936748	-0.807548	-0.227559
H67	H	0.932649	-0.743640	-0.283735
H68	H	0.992911	-0.743636	-0.223572
H69	H	1.148933	-0.439847	-0.785166
C70	C	1.162409	-0.453251	-0.935576
H71	H	1.190416	-0.481294	-0.901674
H72	H	1.194491	-0.425090	-0.965564
H73	H	1.134250	-0.485311	-0.965550
C74	C	0.644628	-0.255839	-0.453543
H75	H	0.610747	-0.227843	-0.481617
H76	H	0.674615	-0.284022	-0.485559
H77	H	0.674606	-0.223733	-0.425438
H78	H	0.494105	-0.439852	-0.269005
H79	H	1.148904	-0.923773	-0.440036
H80	H	0.978241	-0.924024	-0.269105
