data_functionalizedCrystal
_audit_creation_method	'MofGen! by Chris Wilmer'
_symmetry_space_group_name_H-M	'P1'
_symmetry_Int_Tables_number	1
_symmetry_cell_setting	triclinic
loop_
_symmetry_equiv_pos_as_xyz
  x,y,z
_cell_length_a	16.109293
_cell_length_b	14.750779
_cell_length_c	16.109304
_cell_angle_alpha	102.636153
_cell_angle_beta	96.539546
_cell_angle_gamma	102.634495
loop_
_atom_site_label
_atom_site_type_symbol
_atom_site_fract_x
_atom_site_fract_y
_atom_site_fract_z
O1	O	-1.085069	0.079894	0.124895
O2	O	-0.843010	0.079878	0.138197
O3	O	-0.970688	0.079887	0.010515
O4	O	-0.957391	0.079885	0.252577
O5	O	-1.006781	-0.079761	-0.025575
O6	O	-0.879103	-0.079770	0.102107
O7	O	-1.121162	-0.079754	0.088805
Zn8	Zn	-1.005863	-0.105110	0.089726
Zn9	Zn	-0.958309	0.105233	0.137276
O10	O	-0.993484	-0.079763	0.216487
C11	C	-0.830082	0.000052	0.119614
C12	C	-0.737788	0.000047	0.118000
N13	N	-1.038324	-0.248663	0.057273
C14	C	-0.545119	-0.086974	0.094600
C15	C	-0.458399	-0.086973	0.093076
C16	C	-0.419059	0.087084	0.132428
C17	C	-0.505779	0.087082	0.133945
C18	C	-0.568807	0.000050	0.115035
C19	C	-0.395366	0.000053	0.111993
C20	C	-0.301340	0.000054	0.110341
C21	C	-0.662840	0.000048	0.116685
C22	C	-0.835198	-0.600495	0.260320
C23	C	-0.857950	-0.700993	0.237585
C24	C	-0.971032	-0.700948	0.124564
C25	C	-0.948287	-0.600448	0.147287
C26	C	-0.880369	-0.550230	0.215166
C27	C	-0.993458	-0.550183	0.102133
C28	C	-0.970717	-0.449692	0.124858
C29	C	-0.902804	-0.399466	0.192736
C30	C	-0.857628	-0.449739	0.237891
C31	C	-1.061379	-0.600403	0.034258
C32	C	-1.106551	-0.550137	-0.010895
C33	C	-1.083806	-0.449645	0.011825
C34	C	-1.015893	-0.399419	0.079703
C35	C	-1.128982	-0.399372	-0.033330
C36	C	-1.106241	-0.298881	-0.010606
C37	C	-0.993152	-0.298928	0.102427
C38	C	-0.134091	0.000066	0.107394
C39	C	-0.226385	0.000056	0.109028
C40	C	-0.988195	0.000065	-0.038504
C41	C	-0.986577	0.000071	-0.130798
N42	N	-0.925855	0.248787	0.169722
C43	C	-0.963170	0.087092	-0.323463
C44	C	-0.961644	0.087091	-0.410183
C45	C	-1.000999	-0.086966	-0.449528
C46	C	-1.002519	-0.086964	-0.362808
C47	C	-0.983608	0.000068	-0.299778
C48	C	-0.980562	0.000065	-0.473218
C49	C	-0.978908	0.000063	-0.567244
C50	C	-0.985261	0.000070	-0.205746
C51	C	-0.975977	0.000061	0.265507
C52	C	-0.977593	0.000061	0.357802
H53	H	-0.596436	-0.157841	0.079201
H54	H	-0.884292	-0.317640	0.211240
F55	F	-1.178833	-0.603592	-0.083134
F56	F	-0.939890	0.179714	-0.435386
H57	H	-1.019158	-0.157834	-0.343526
F58	F	-0.433194	-0.179597	0.071326
F59	F	-0.530990	0.179710	0.155691
H60	H	-0.367731	0.157942	0.147825
F61	F	-1.201270	-0.452829	-0.105563
F62	F	-0.920858	-0.245480	0.174665
F63	F	-0.785335	-0.396290	0.310129
H64	H	-0.779887	-0.559605	0.315589
F65	F	-0.809866	-0.754482	0.285654
H66	H	-1.026333	-0.741847	0.069298
H67	H	-1.079895	-0.682229	0.015762
F68	F	-1.021124	-0.179586	-0.516615
F69	F	-1.154321	-0.245385	-0.058663
H70	H	-0.947770	0.157959	-0.272145
