data_functionalizedCrystal
_audit_creation_method	'MofGen! by Chris Wilmer'
_symmetry_space_group_name_H-M	'P1'
_symmetry_Int_Tables_number	1
_symmetry_cell_setting	triclinic
loop_
_symmetry_equiv_pos_as_xyz
  x,y,z
_cell_length_a	10.654554
_cell_length_b	10.654551
_cell_length_c	14.586319
_cell_angle_alpha	89.999036
_cell_angle_beta	89.996331
_cell_angle_gamma	84.486102
loop_
_atom_site_label
_atom_site_type_symbol
_atom_site_fract_x
_atom_site_fract_y
_atom_site_fract_z
O1	O	1.667837	0.176425	-0.076238
O2	O	1.302359	0.193225	-0.076238
O3	O	1.493500	0.002086	-0.076239
O4	O	1.476696	0.367564	-0.076238
O5	O	1.493487	0.002083	0.076242
O6	O	1.302346	0.193222	0.076242
O7	O	1.667823	0.176422	0.076243
Cu8	Cu	1.485083	0.184822	0.090165
Cu9	Cu	1.485099	0.184826	-0.090161
O10	O	1.476682	0.367561	0.076243
C11	C	1.255555	0.191989	0.000002
C12	C	1.116112	0.188295	0.000001
C13	C	0.933549	0.068808	-0.000007
C14	C	1.064571	0.072279	0.000000
C15	C	1.036623	0.300848	0.000006
C16	C	0.905604	0.297376	0.000006
C17	C	0.882016	-0.047215	-0.000017
C18	C	0.961496	-0.159769	-0.000020
C19	C	1.092517	-0.156299	-0.000013
C20	C	1.144059	-0.040274	-0.000004
C21	C	1.492259	-0.044713	-0.000000
C22	C	1.488567	-0.184156	-0.000007
C23	C	1.486842	-0.249667	-0.083122
C24	C	1.483362	-0.380687	-0.083118
C25	C	1.483337	-0.380676	0.083125
C26	C	1.486808	-0.249657	0.083120
C27	C	1.488601	-0.184166	-0.166249
C28	C	1.486878	-0.249677	-0.249371
C29	C	1.483397	-0.380697	-0.249367
C30	C	1.481641	-0.446207	-0.166240
C31	C	1.714628	0.177659	0.000000
C32	C	1.854071	0.181353	-0.000005
C33	C	1.477923	0.414361	0.000003
C34	C	1.481616	0.553804	0.000003
N35	N	1.485081	0.184819	0.216997
N36	N	1.485111	0.184819	-0.216993
C37	C	1.569747	0.100211	0.452003
C38	C	1.569751	0.100208	0.547985
C39	C	1.400436	0.269430	0.547994
C40	C	1.400428	0.269426	0.452015
C41	C	1.485090	0.184818	0.404022
C42	C	1.485102	0.184819	0.595983
C43	C	1.485106	0.184817	0.700050
C44	C	1.485086	0.184819	0.299948
H45	H	1.157227	-0.247945	-0.000006
C46	C	1.662870	0.007124	0.600760
N47	N	1.733007	-0.062996	0.640510
H48	H	1.250747	-0.037458	0.000010
C49	C	0.818173	0.421181	-0.000001
N50	N	0.752319	0.514434	-0.000006
H51	H	1.331484	0.338324	0.412946
C52	C	1.307310	0.362492	0.600796
N53	N	1.237165	0.432587	0.640565
C54	C	0.737891	-0.051043	-0.000016
N55	N	0.629336	-0.053925	-0.000013
C56	C	1.093326	0.428466	0.000008
N57	N	1.136034	0.524589	0.000005
H58	H	1.638683	0.031317	0.412930
C59	C	1.492310	-0.040027	-0.166261
N60	N	1.495061	0.068544	-0.166269
C61	C	1.488809	-0.177614	-0.340805
N62	N	1.490267	-0.123338	-0.409675
C63	C	1.481540	-0.452760	-0.340802
N64	N	1.480164	-0.507038	-0.409674
C65	C	0.904797	-0.287388	-0.000025
N66	N	0.862092	-0.383514	-0.000029
C67	C	1.488712	-0.177592	0.174551
N68	N	1.490145	-0.123313	0.243420
C69	C	1.481412	-0.452743	0.174558
N70	N	1.479967	-0.507024	0.243426
C71	C	1.477812	-0.590334	-0.166240
N72	N	1.474937	-0.698891	-0.166242
