data_functionalizedCrystal
_audit_creation_method	'MofGen! by Chris Wilmer'
_symmetry_space_group_name_H-M	'P1'
_symmetry_Int_Tables_number	1
_symmetry_cell_setting	triclinic
loop_
_symmetry_equiv_pos_as_xyz
  x,y,z
_cell_length_a	16.625546
_cell_length_b	25.639242
_cell_length_c	16.625539
_cell_angle_alpha	89.972728
_cell_angle_beta	90.028532
_cell_angle_gamma	89.982506
loop_
_atom_site_label
_atom_site_type_symbol
_atom_site_fract_x
_atom_site_fract_y
_atom_site_fract_z
Zn1	Zn	-0.321122	-0.799303	0.456117
Zn2	Zn	-0.071122	-0.549303	0.706117
Zn3	Zn	0.178878	-0.299303	0.956117
Zn4	Zn	0.428878	-0.049303	1.206117
Zn5	Zn	-0.455961	-0.799246	0.321280
Zn6	Zn	-0.205961	-0.549246	0.571280
Zn7	Zn	0.044039	-0.299246	0.821280
Zn8	Zn	0.294039	-0.049246	1.071280
Zn9	Zn	-0.321134	-0.711874	0.321274
Zn10	Zn	-0.071134	-0.461874	0.571274
Zn11	Zn	0.178866	-0.211874	0.821274
Zn12	Zn	0.428866	0.038126	1.071274
Zn13	Zn	-0.455905	-0.711849	0.456045
Zn14	Zn	-0.205905	-0.461849	0.706045
Zn15	Zn	0.044095	-0.211849	0.956045
Zn16	Zn	0.294095	0.038151	1.206045
O17	O	-0.388530	-0.755568	0.388679
O18	O	-0.138530	-0.505568	0.638679
O19	O	0.111470	-0.255568	0.888679
O20	O	0.361470	-0.005568	1.138679
O21	O	-0.339027	-0.872461	0.438263
O22	O	-0.089027	-0.622461	0.688263
O23	O	0.160973	-0.372461	0.938263
O24	O	0.410973	-0.122461	1.188263
O25	O	-0.438104	-0.787642	0.208446
O26	O	-0.188104	-0.537642	0.458446
O27	O	0.061896	-0.287642	0.708446
O28	O	0.311896	-0.037642	0.958446
O29	O	-0.208300	-0.723506	0.339189
O30	O	0.041700	-0.473506	0.589189
O31	O	0.291700	-0.223506	0.839189
O32	O	0.541700	0.026494	1.089189
O33	O	-0.438092	-0.872418	0.339199
O34	O	-0.188092	-0.622418	0.589199
O35	O	0.061908	-0.372418	0.839199
O36	O	0.311908	-0.122418	1.089199
O37	O	-0.208291	-0.787740	0.438258
O38	O	0.041709	-0.537740	0.688258
O39	O	0.291709	-0.287740	0.938258
O40	O	0.541709	-0.037740	1.188258
O41	O	-0.339048	-0.723450	0.208442
O42	O	-0.089048	-0.473450	0.458442
O43	O	0.160952	-0.223450	0.708442
O44	O	0.410952	0.026550	0.958442
O45	O	-0.338993	-0.638705	0.339119
O46	O	-0.088993	-0.388705	0.589119
O47	O	0.161007	-0.138705	0.839119
O48	O	0.411007	0.111295	1.089119
O49	O	-0.437997	-0.723464	0.568887
O50	O	-0.187997	-0.473464	0.818887
O51	O	0.062003	-0.223464	1.068887
O52	O	0.312003	0.026536	1.318887
O53	O	-0.438009	-0.638687	0.438135
O54	O	-0.188009	-0.388687	0.688135
O55	O	0.061991	-0.138687	0.938135
O56	O	0.311991	0.111313	1.188135
O57	O	-0.338973	-0.787716	0.568940
O58	O	-0.088973	-0.537716	0.818940
O59	O	0.161027	-0.287716	1.068940
O60	O	0.411027	-0.037716	1.318940
O61	O	-0.568786	-0.787618	0.339129
O62	O	-0.318786	-0.537618	0.589129
O63	O	-0.068786	-0.287618	0.839129
O64	O	0.181214	-0.037618	1.089129
O65	O	-0.568744	-0.723408	0.438141
O66	O	-0.318744	-0.473408	0.688141
O67	O	-0.068744	-0.223408	0.938141
O68	O	0.181256	0.026592	1.188141
C69	C	-0.388497	-0.619725	0.388619
C70	C	-0.138497	-0.369725	0.638619
C71	C	0.111503	-0.119725	0.888619
C72	C	0.361503	0.130275	1.138619
C73	C	-0.388502	-0.561611	0.388613
C74	C	-0.138502	-0.311611	0.638613
C75	C	0.111498	-0.061611	0.888613
C76	C	0.361498	0.188389	1.138613
C77	C	-0.598021	-0.755518	0.388645
C78	C	-0.348021	-0.505518	0.638645
C79	C	-0.098021	-0.255518	0.888645
C80	C	0.151979	-0.005518	1.138645
C81	C	-0.687642	-0.755545	0.388658
C82	C	-0.437642	-0.505545	0.638658
C83	C	-0.187642	-0.255545	0.888658
C84	C	0.062358	-0.005545	1.138658
C85	C	-1.015818	-0.755636	0.388742
C86	C	-0.765818	-0.505636	0.638742
C87	C	-0.515818	-0.255636	0.888742
C88	C	-0.265818	-0.005636	1.138742
C89	C	-0.924509	-0.755609	0.388721
C90	C	-0.674509	-0.505609	0.638721
C91	C	-0.424509	-0.255609	0.888721
C92	C	-0.174509	-0.005609	1.138721
C93	C	-0.851733	-0.755590	0.388699
C94	C	-0.601733	-0.505590	0.638699
C95	C	-0.351733	-0.255590	0.888699
C96	C	-0.101733	-0.005590	1.138699
C97	C	-0.760419	-0.755564	0.388679
C98	C	-0.510419	-0.505564	0.638679
C99	C	-0.260419	-0.255564	0.888679
C100	C	-0.010419	-0.005564	1.138679
C101	C	-0.440166	-0.201248	0.440167
C102	C	-0.190166	0.048752	0.690167
C103	C	0.059834	0.298752	0.940167
C104	C	0.309834	0.548752	1.190167
C105	C	-0.440170	-0.146643	0.440177
C106	C	-0.190170	0.103357	0.690177
C107	C	0.059830	0.353357	0.940177
C108	C	0.309830	0.603357	1.190177
O109	O	-0.484062	-0.118406	0.483975
O110	O	-0.234062	0.131594	0.733975
O111	O	0.015938	0.381594	0.983975
O112	O	0.265938	0.631594	1.233975
N113	N	-0.388544	-0.119329	0.388707
N114	N	-0.138544	0.130671	0.638707
N115	N	0.111456	0.380671	0.888707
N116	N	0.361456	0.630671	1.138707
C117	C	-0.336904	-0.146621	0.337229
C118	C	-0.086904	0.103379	0.587229
C119	C	0.163096	0.353379	0.837229
C120	C	0.413096	0.603379	1.087229
O121	O	-0.292991	-0.118374	0.293451
O122	O	-0.042991	0.131626	0.543451
O123	O	0.207009	0.381626	0.793451
O124	O	0.457009	0.631626	1.043451
C125	C	-0.336896	-0.201225	0.337223
C126	C	-0.086896	0.048775	0.587223
C127	C	0.163104	0.298775	0.837223
C128	C	0.413104	0.548775	1.087223
C129	C	-0.388532	-0.228536	0.388691
C130	C	-0.138532	0.021464	0.638691
C131	C	0.111468	0.271464	0.888691
C132	C	0.361468	0.521464	1.138691
C133	C	-0.491797	-0.228560	0.491631
C134	C	-0.241797	0.021440	0.741631
C135	C	0.008203	0.271440	0.991631
C136	C	0.258203	0.521440	1.241631
C137	C	-0.491794	-0.283160	0.491619
C138	C	-0.241794	-0.033160	0.741619
C139	C	0.008206	0.216840	0.991619
C140	C	0.258206	0.466840	1.241619
C141	C	-0.440160	-0.310449	0.440143
C142	C	-0.190160	-0.060449	0.690143
C143	C	0.059840	0.189551	0.940143
C144	C	0.309840	0.439551	1.190143
C145	C	-0.388529	-0.283137	0.388679
C146	C	-0.138529	-0.033137	0.638679
C147	C	0.111471	0.216863	0.888679
C148	C	0.361471	0.466863	1.138679
C149	C	-0.285253	-0.228516	0.285750
C150	C	-0.035253	0.021484	0.535750
C151	C	0.214747	0.271484	0.785750
C152	C	0.464747	0.521484	1.035750
C153	C	-0.285249	-0.283123	0.285748
C154	C	-0.035249	-0.033123	0.535748
C155	C	0.214751	0.216877	0.785748
C156	C	0.464751	0.466877	1.035748
C157	C	-0.336885	-0.310435	0.337216
C158	C	-0.086885	-0.060435	0.587216
C159	C	0.163115	0.189565	0.837216
C160	C	0.413115	0.439565	1.087216
C161	C	-0.336891	-0.365026	0.337191
C162	C	-0.086891	-0.115026	0.587191
C163	C	0.163109	0.134974	0.837191
C164	C	0.413109	0.384974	1.087191
N165	N	-0.388518	-0.392341	0.388661
N166	N	-0.138518	-0.142341	0.638661
N167	N	0.111482	0.107659	0.888661
N168	N	0.361482	0.357659	1.138661
C169	C	-0.440152	-0.365052	0.440137
C170	C	-0.190152	-0.115052	0.690137
C171	C	0.059848	0.134948	0.940137
C172	C	0.309848	0.384948	1.190137
C173	C	-0.336923	-0.031951	0.337246
C174	C	-0.086923	0.218049	0.587246
C175	C	0.163077	0.468049	0.837246
C176	C	0.413077	0.718049	1.087246
C177	C	-0.336934	0.022652	0.337248
C178	C	-0.086934	0.272652	0.587248
C179	C	0.163066	0.522652	0.837248
C180	C	0.413066	0.772652	1.087248
C181	C	-0.440200	0.022626	0.440197
C182	C	-0.190200	0.272626	0.690197
C183	C	0.059800	0.522626	0.940197
C184	C	0.309800	0.772626	1.190197
C185	C	-0.440192	-0.031978	0.440191
C186	C	-0.190192	0.218022	0.690191
C187	C	0.059808	0.468022	0.940191
C188	C	0.309808	0.718022	1.190191
C189	C	-0.388550	-0.059265	0.388716
C190	C	-0.138550	0.190735	0.638716
C191	C	0.111450	0.440735	0.888716
C192	C	0.361450	0.690735	1.138716
C193	C	-0.440142	-0.479717	0.440107
C194	C	-0.190142	-0.229717	0.690107
C195	C	0.059858	0.020283	0.940107
C196	C	0.309858	0.270283	1.190107
C197	C	-0.440136	-0.534323	0.440089
C198	C	-0.190136	-0.284323	0.690089
C199	C	0.059864	-0.034323	0.940089
C200	C	0.309864	0.215677	1.190089
C201	C	-0.336868	-0.534292	0.337143
C202	C	-0.086868	-0.284292	0.587143
C203	C	0.163132	-0.034292	0.837143
C204	C	0.413132	0.215708	1.087143
C205	C	-0.336876	-0.479691	0.337158
C206	C	-0.086876	-0.229691	0.587158
C207	C	0.163124	0.020309	0.837158
C208	C	0.413124	0.270309	1.087158
C209	C	-0.388516	-0.452405	0.388647
C210	C	-0.138516	-0.202405	0.638647
C211	C	0.111484	0.047595	0.888647
C212	C	0.361484	0.297595	1.138647
O213	O	-0.293020	-0.393298	0.293418
O214	O	-0.043020	-0.143298	0.543418
O215	O	0.206980	0.106702	0.793418
O216	O	0.456980	0.356702	1.043418
O217	O	-0.484050	-0.393306	0.483915
O218	O	-0.234050	-0.143306	0.733915
O219	O	0.015950	0.106694	0.983915
O220	O	0.265950	0.356694	1.233915
C221	C	-0.178221	-0.755632	0.388731
C222	C	0.071779	-0.505632	0.638731
C223	C	0.321779	-0.255632	0.888731
C224	C	0.571779	-0.005632	1.138731
C225	C	-0.088600	-0.755659	0.388753
C226	C	0.161400	-0.505659	0.638753
C227	C	0.411400	-0.255659	0.888753
C228	C	0.661400	-0.005659	1.138753
C229	C	-0.388477	-0.755593	0.598988
C230	C	-0.138477	-0.505593	0.848988
C231	C	0.111523	-0.255593	1.098988
C232	C	0.361523	-0.005593	1.348988
C233	C	-0.388454	-0.755604	0.688609
C234	C	-0.138454	-0.505604	0.938609
C235	C	0.111546	-0.255604	1.188609
C236	C	0.361546	-0.005604	1.438609
C237	C	-0.388561	0.108059	0.388730
C238	C	-0.138561	0.358059	0.638730
C239	C	0.111439	0.608059	0.888730
C240	C	0.361439	0.858059	1.138730
C241	C	-0.388566	0.049945	0.388727
C242	C	-0.138566	0.299945	0.638727
C243	C	0.111434	0.549945	0.888727
C244	C	0.361434	0.799945	1.138727
C245	C	-0.388525	-0.755572	0.179188
C246	C	-0.138525	-0.505572	0.429188
C247	C	0.111475	-0.255572	0.679188
C248	C	0.361475	-0.005572	0.929188
C249	C	-0.388321	-0.755663	0.089568
C250	C	-0.138321	-0.505663	0.339568
C251	C	0.111679	-0.255663	0.589568
C252	C	0.361679	-0.005663	0.839568
C253	C	-0.388437	-0.755613	0.761392
C254	C	-0.138437	-0.505613	1.011392
C255	C	0.111563	-0.255613	1.261392
C256	C	0.361563	-0.005613	1.511392
C257	C	-0.388407	-0.755625	0.852700
C258	C	-0.138407	-0.505625	1.102700
C259	C	0.111593	-0.255625	1.352700
C260	C	0.361593	-0.005625	1.602700
C261	C	-0.388378	-0.755637	0.925477
C262	C	-0.138378	-0.505637	1.175477
C263	C	0.111622	-0.255637	1.425477
C264	C	0.361622	-0.005637	1.675477
C265	C	-0.388349	-0.755650	1.016791
C266	C	-0.138349	-0.505650	1.266791
C267	C	0.111651	-0.255650	1.516791
C268	C	0.361651	-0.005650	1.766791
H269	H	-0.482187	-0.556557	0.482000
H270	H	-0.232187	-0.306557	0.732000
H271	H	0.017813	-0.056557	0.982000
H272	H	0.267813	0.193443	1.232000
H273	H	-0.294832	-0.457453	0.295247
H274	H	-0.044832	-0.207453	0.545247
H275	H	0.205168	0.042547	0.795247
H276	H	0.455168	0.292547	1.045247
H277	H	-0.482190	-0.457507	0.482037
H278	H	-0.232190	-0.207507	0.732037
H279	H	0.017810	0.042493	0.982037
H280	H	0.267810	0.292493	1.232037
Br281	Br	-0.561871	-0.320218	0.561475
Br282	Br	-0.311871	-0.070218	0.811475
Br283	Br	-0.061871	0.179782	1.061475
Br284	Br	0.188129	0.429782	1.311475
Br285	Br	-0.266835	-0.068979	0.267376
Br286	Br	-0.016835	0.181021	0.517376
Br287	Br	0.233165	0.431021	0.767376
Br288	Br	0.483165	0.681021	1.017376
Br289	Br	-0.561881	-0.191535	0.561502
Br290	Br	-0.311881	0.058465	0.811502
Br291	Br	-0.061881	0.308465	1.061502
Br292	Br	0.188119	0.558465	1.311502
Br293	Br	-0.215167	-0.191464	0.215901
Br294	Br	0.034833	0.058536	0.465901
Br295	Br	0.284833	0.308536	0.715901
Br296	Br	0.534833	0.558536	0.965901
Br297	Br	-0.266867	0.059711	0.267383
Br298	Br	-0.016867	0.309711	0.517383
Br299	Br	0.233133	0.559711	0.767383
Br300	Br	0.483133	0.809711	1.017383
H301	H	-0.243190	-0.305338	0.243835
H302	H	0.006810	-0.055338	0.493835
H303	H	0.256810	0.194662	0.743835
H304	H	0.506810	0.444662	0.993835
H305	H	-0.294831	-0.556520	0.295230
H306	H	-0.044831	-0.306520	0.545230
H307	H	0.205169	-0.056520	0.795230
H308	H	0.455169	0.193480	1.045230
H309	H	-0.482237	-0.054211	0.482102
H310	H	-0.232237	0.195789	0.732102
H311	H	0.017763	0.445789	0.982102
H312	H	0.267763	0.695789	1.232102
Br313	Br	-0.510269	0.059671	0.510065
Br314	Br	-0.260269	0.309671	0.760065
Br315	Br	-0.010269	0.559671	1.010065
Br316	Br	0.239731	0.809671	1.260065
