data_functionalizedCrystal
_audit_creation_method	'MofGen! by Chris Wilmer'
_symmetry_space_group_name_H-M	'P1'
_symmetry_Int_Tables_number	1
_symmetry_cell_setting	triclinic
loop_
_symmetry_equiv_pos_as_xyz
  x,y,z
_cell_length_a	17.640112
_cell_length_b	29.839131
_cell_length_c	29.839125
_cell_angle_alpha	89.988394
_cell_angle_beta	101.177745
_cell_angle_gamma	101.266684
loop_
_atom_site_label
_atom_site_type_symbol
_atom_site_fract_x
_atom_site_fract_y
_atom_site_fract_z
Zn1	Zn	1.208289	-0.039909	-0.115399
Zn2	Zn	1.708289	0.460091	0.384601
Zn3	Zn	1.208165	-0.115027	-0.040283
Zn4	Zn	1.708165	0.384973	0.459717
Zn5	Zn	1.076117	-0.055107	-0.055443
Zn6	Zn	1.576117	0.444893	0.444557
Zn7	Zn	1.076029	-0.130232	-0.130542
Zn8	Zn	1.576029	0.369768	0.369458
O9	O	1.142150	-0.085069	-0.085417
O10	O	1.642150	0.414931	0.414583
O11	O	1.318886	-0.037151	-0.092752
O12	O	1.818886	0.462849	0.407248
O13	O	1.190634	-0.107076	0.020571
O14	O	1.690634	0.392924	0.520571
O15	O	1.093738	0.009787	-0.063404
O16	O	1.593738	0.509787	0.436596
O17	O	1.318796	-0.092340	-0.037565
O18	O	1.818796	0.407660	0.462435
O19	O	1.190844	0.020952	-0.107453
O20	O	1.690844	0.520952	0.392547
O21	O	1.093619	-0.063052	0.009433
O22	O	1.593619	0.436948	0.509433
O23	O	0.965491	-0.077795	-0.078088
O24	O	1.465491	0.422205	0.421912
O25	O	1.093588	-0.118253	-0.191399
O26	O	1.593588	0.381747	0.308601
O27	O	0.965426	-0.132989	-0.133262
O28	O	1.465426	0.367011	0.366738
O29	O	1.190759	-0.051894	-0.180273
O30	O	1.690759	0.448106	0.319727
O31	O	1.190549	-0.179922	-0.052249
O32	O	1.690549	0.320078	0.447751
O33	O	1.093469	-0.191092	-0.118562
O34	O	1.593469	0.308908	0.381438
C35	C	0.936778	-0.108692	-0.108964
C36	C	1.436778	0.391308	0.391036
C37	C	0.848919	-0.118809	-0.119048
C38	C	1.348919	0.381191	0.380952
C39	C	0.560020	-0.008204	-0.008813
C40	C	1.060020	0.491796	0.491187
C41	C	0.477463	-0.017720	-0.018295
C42	C	0.977463	0.482280	0.481705
C43	C	0.477450	-0.075272	-0.075649
C44	C	0.977450	0.424728	0.424351
C45	C	0.560009	-0.065760	-0.066174
C46	C	1.060009	0.434240	0.433826
C47	C	0.601287	-0.032226	-0.032755
C48	C	1.101287	0.467774	0.467245
C49	C	0.601276	-0.089782	-0.090116
C50	C	1.101276	0.410218	0.409884
C51	C	0.683827	-0.080272	-0.080639
C52	C	1.183827	0.419728	0.419361
C53	C	0.725112	-0.046741	-0.047221
C54	C	1.225112	0.453259	0.452779
C55	C	0.683839	-0.022716	-0.023279
C56	C	1.183839	0.477284	0.476721
C57	C	0.559996	-0.123318	-0.123532
C58	C	1.059996	0.376682	0.376468
C59	C	0.601263	-0.147340	-0.147474
C60	C	1.101263	0.352660	0.352526
C61	C	0.683816	-0.137828	-0.138000
C62	C	1.183816	0.362172	0.362000
C63	C	0.725100	-0.104297	-0.104582
C64	C	1.225100	0.395703	0.395418
C65	C	0.725089	-0.161852	-0.161943
C66	C	1.225089	0.338148	0.338057
C67	C	0.807640	-0.152343	-0.152467
C68	C	1.307640	0.347657	0.347533
C69	C	0.807652	-0.094787	-0.095106
C70	C	1.307652	0.405213	0.404894
C71	C	1.142007	-0.201808	-0.085411
C72	C	1.642007	0.298192	0.414589
C73	C	1.142018	-0.251741	-0.085415
C74	C	1.642018	0.248259	0.414585
C75	C	1.192791	-0.555529	-0.050919
C76	C	1.692791	-0.055529	0.449081
C77	C	1.192889	-0.743191	-0.050925
C78	C	1.692889	-0.243191	0.449075
O79	O	1.235945	-0.762491	-0.021591
O80	O	1.735945	-0.262491	0.478409
N81	N	1.142314	-0.772492	-0.085432
N82	N	1.642314	-0.272492	0.414568
C83	C	1.091714	-0.754874	-0.119941
C84	C	1.591714	-0.254874	0.380059
O85	O	1.048705	-0.784102	-0.149294
O86	O	1.548705	-0.284102	0.350706
C87	C	1.091621	-0.567213	-0.119936
C88	C	1.591621	-0.067213	0.380064
C89	C	1.142194	-0.537915	-0.085425
C90	C	1.642194	-0.037915	0.414575
C91	C	1.243361	-0.526232	-0.016411
C92	C	1.743361	-0.026232	0.483589
C93	C	1.243333	-0.479320	-0.016408
C94	C	1.743333	0.020680	0.483592
C95	C	1.192736	-0.461705	-0.050914
C96	C	1.692736	0.038295	0.449086
C97	C	1.142166	-0.491003	-0.085422
C98	C	1.642166	0.008997	0.414578
C99	C	1.041026	-0.549595	-0.154447
C100	C	1.541026	-0.049595	0.345553
C101	C	1.041009	-0.502676	-0.154443
C102	C	1.541009	-0.002676	0.345557
C103	C	1.091582	-0.473378	-0.119932
C104	C	1.591582	0.026622	0.380068
C105	C	1.091541	-0.426476	-0.119925
C106	C	1.591541	0.073524	0.380075
N107	N	1.142116	-0.397175	-0.085419
N108	N	1.642116	0.102825	0.414581
C109	C	1.192714	-0.414790	-0.050913
C110	C	1.692714	0.085210	0.449087
C111	C	1.091766	-0.853399	-0.119941
C112	C	1.591766	-0.353399	0.380059
C113	C	1.091788	-0.900314	-0.119942
C114	C	1.591788	-0.400314	0.380058
C115	C	1.192964	-0.888628	-0.050926
C116	C	1.692964	-0.388628	0.449074
C117	C	1.192937	-0.841712	-0.050924
C118	C	1.692937	-0.341712	0.449076
C119	C	1.142341	-0.824098	-0.085434
C120	C	1.642341	-0.324098	0.414566
C121	C	1.192651	-0.316271	-0.050910
C122	C	1.692651	0.183729	0.449090
C123	C	1.192616	-0.269356	-0.050909
C124	C	1.692616	0.230644	0.449091
C125	C	1.091443	-0.281046	-0.119926
C126	C	1.591443	0.218954	0.380074
C127	C	1.091474	-0.327958	-0.119925
C128	C	1.591474	0.172042	0.380075
C129	C	1.142085	-0.345568	-0.085415
C130	C	1.642085	0.154432	0.414585
O131	O	1.048514	-0.407144	-0.149247
O132	O	1.548514	0.092856	0.350753
O133	O	1.235729	-0.385554	-0.021570
O134	O	1.735729	0.114446	0.478430
C135	C	1.192819	-0.602442	-0.050922
C136	C	1.692819	-0.102442	0.449078
C137	C	1.142250	-0.631739	-0.085430
C138	C	1.642250	-0.131739	0.414570
C139	C	1.091653	-0.614125	-0.119936
C140	C	1.591653	-0.114125	0.380064
C141	C	1.142272	-0.678655	-0.085431
C142	C	1.642272	-0.178655	0.414569
C143	C	1.192869	-0.696269	-0.050925
C144	C	1.692869	-0.196269	0.449075
C145	C	1.243445	-0.666969	-0.016418
C146	C	1.743445	-0.166969	0.483582
C147	C	1.243417	-0.620056	-0.016416
C148	C	1.743417	-0.120056	0.483584
C149	C	1.041077	-0.643425	-0.154442
C150	C	1.541077	-0.143425	0.345558
C151	C	1.041109	-0.690337	-0.154442
C152	C	1.541109	-0.190337	0.345558
C153	C	1.091706	-0.707952	-0.119936
C154	C	1.591706	-0.207952	0.380064
C155	C	1.348324	-0.061354	-0.061778
C156	C	1.848324	0.438646	0.438222
C157	C	1.436183	-0.051248	-0.051705
C158	C	1.936183	0.448752	0.448295
C159	C	1.142177	-0.085074	-0.202592
C160	C	1.642177	0.414926	0.297408
C161	C	1.142189	-0.085076	-0.252525
C162	C	1.642189	0.414924	0.247475
C163	C	1.142315	0.032129	-0.085430
C164	C	1.642315	0.532129	0.414570
C165	C	1.142385	0.082071	-0.085436
C166	C	1.642385	0.582071	0.414564
C167	C	1.091647	-0.119520	-0.614899
C168	C	1.591647	0.380480	-0.114899
C169	C	1.091619	-0.119575	-0.427230
C170	C	1.591619	0.380425	0.072770
O171	O	1.048568	-0.148954	-0.407894
O172	O	1.548568	0.351046	0.092106
N173	N	1.142206	-0.085033	-0.397968
N174	N	1.642206	0.414967	0.102032
C175	C	1.192801	-0.050472	-0.415628
C176	C	1.692801	0.449528	0.084372
O177	O	1.235823	-0.021090	-0.386434
O178	O	1.735823	0.478910	0.113566
C179	C	1.192825	-0.050416	-0.603297
C180	C	1.692825	0.449584	-0.103297
C181	C	1.142240	-0.084963	-0.632556
C182	C	1.642240	0.415037	-0.132556
C183	C	1.041065	-0.154065	-0.644158
C184	C	1.541065	0.345935	-0.144158
C185	C	1.041075	-0.154052	-0.691072
C186	C	1.541075	0.345948	-0.191072
C187	C	1.091668	-0.119495	-0.708728
C188	C	1.591668	0.380505	-0.208728
C189	C	1.142250	-0.084950	-0.679470
C190	C	1.642250	0.415050	-0.179470
C191	C	1.243416	-0.015854	-0.620956
C192	C	1.743416	0.484146	-0.120956
C193	C	1.243416	-0.015842	-0.667877
C194	C	1.743416	0.484158	-0.167877
C195	C	1.192830	-0.050389	-0.697135
C196	C	1.692830	0.449611	-0.197135
C197	C	1.192854	-0.050381	-0.744040
C198	C	1.692854	0.449619	-0.244040
N199	N	1.142266	-0.084923	-0.773301
N200	N	1.642266	0.415077	-0.273301
C201	C	1.091673	-0.119480	-0.755645
C202	C	1.591673	0.380520	-0.255645
C203	C	1.192786	-0.050505	-0.317099
C204	C	1.692786	0.449495	0.182901
C205	C	1.192782	-0.050519	-0.270181
C206	C	1.692782	0.449481	0.229819
C207	C	1.091597	-0.119622	-0.281787
C208	C	1.591597	0.380378	0.218213
C209	C	1.091607	-0.119609	-0.328704
C210	C	1.591607	0.380391	0.171296
C211	C	1.142198	-0.085047	-0.346360
C212	C	1.642198	0.414953	0.153640
C213	C	1.091700	-0.119451	-0.854168
C214	C	1.591700	0.380549	-0.354168
C215	C	1.091717	-0.119437	-0.901086
C216	C	1.591717	0.380563	-0.401086
C217	C	1.192898	-0.050332	-0.889477
C218	C	1.692898	0.449668	-0.389477
C219	C	1.192884	-0.050348	-0.842563
C220	C	1.692884	0.449652	-0.342563
C221	C	1.142278	-0.084910	-0.824910
C222	C	1.642278	0.415090	-0.324910
O223	O	1.235875	-0.021014	-0.763408
O224	O	1.735875	0.478986	-0.263408
O225	O	1.048645	-0.148852	-0.784848
O226	O	1.548645	0.351148	-0.284848
C227	C	1.091636	-0.119533	-0.567985
C228	C	1.591636	0.380467	-0.067985
C229	C	1.142218	-0.084989	-0.538727
C230	C	1.642218	0.415011	-0.038727
C231	C	1.192811	-0.050431	-0.556383
C232	C	1.692811	0.449569	-0.056383
C233	C	1.142213	-0.085003	-0.491810
C234	C	1.642213	0.414997	0.008190
C235	C	1.091621	-0.119560	-0.474154
C236	C	1.591621	0.380440	0.025846
C237	C	1.041033	-0.154103	-0.503415
C238	C	1.541033	0.345897	-0.003415
C239	C	1.041044	-0.154090	-0.550329
C240	C	1.541044	0.345910	-0.050329
C241	C	1.243399	-0.015889	-0.527122
C242	C	1.743399	0.484111	-0.027122
C243	C	1.243385	-0.015905	-0.480208
C244	C	1.743385	0.484095	0.019792
C245	C	1.192792	-0.050462	-0.462552
C246	C	1.692792	0.449538	0.037448
C247	C	1.142168	-0.085026	0.031308
C248	C	1.642168	0.414974	0.531308
C249	C	1.142310	-0.084879	0.081258
C250	C	1.642310	0.415121	0.581258
H251	H	0.443830	-0.102577	-0.102857
H252	H	0.943830	0.397423	0.397143
H253	H	0.841263	-0.067473	-0.067899
H254	H	1.341263	0.432527	0.432101
H255	H	1.050524	-0.147571	-0.924907
H256	H	1.550524	0.352429	-0.424907
H257	H	1.233988	-0.022359	-0.331468
H258	H	1.733988	0.477641	0.168532
O259	O	0.991867	-0.187591	-0.578803
O260	O	1.491867	0.312409	-0.078803
C261	C	0.940833	-0.167882	-0.611783
C262	C	1.440833	0.332118	-0.111783
H263	H	0.968753	-0.130622	-0.615614
H264	H	1.468753	0.369378	-0.115614
H265	H	0.930220	-0.187397	-0.645991
H266	H	1.430220	0.312603	-0.145991
H267	H	0.882260	-0.169690	-0.600414
H268	H	1.382260	0.330310	-0.100414
H269	H	1.284585	0.012228	-0.456388
H270	H	1.784585	0.512228	0.043612
H271	H	1.284598	0.012253	-0.541492
H272	H	1.784598	0.512253	-0.041492
H273	H	1.234080	-0.022219	-0.818738
H274	H	1.734080	0.477781	-0.318738
O275	O	0.991976	-0.187728	-0.486267
O276	O	1.491976	0.312272	0.013733
C277	C	1.009179	-0.230522	-0.495766
C278	C	1.509179	0.269478	0.004234
H279	H	1.072322	-0.225523	-0.501432
H280	H	1.572322	0.274477	-0.001432
H281	H	1.002347	-0.253506	-0.465691
H282	H	1.502347	0.246494	0.034309
H283	H	0.966780	-0.247141	-0.527854
H284	H	1.466780	0.252859	-0.027854
H285	H	1.050415	-0.147740	-0.352524
H286	H	1.550415	0.352260	0.147476
O287	O	0.684948	-0.194366	-0.194455
O288	O	1.184948	0.305634	0.305545
C289	C	0.637217	-0.174334	-0.228985
C290	C	1.137217	0.325666	0.271015
H291	H	0.662128	-0.136086	-0.228967
H292	H	1.162128	0.363914	0.271033
H293	H	0.636281	-0.190746	-0.263637
H294	H	1.136281	0.309254	0.236363
H295	H	0.574648	-0.179972	-0.222276
H296	H	1.074648	0.320028	0.277724
H297	H	1.050245	-0.266697	-0.148019
H298	H	1.550245	0.233303	0.351981
O299	O	1.292645	-0.543259	0.017104
O300	O	1.792645	-0.043259	0.517104
C301	C	1.371395	-0.522670	0.016258
C302	C	1.871395	-0.022670	0.516258
H303	H	1.372952	-0.488427	-0.000849
H304	H	1.872952	0.011573	0.499151
H305	H	1.406885	-0.516940	0.052729
H306	H	1.906885	-0.016940	0.552729
H307	H	1.398026	-0.545991	-0.003790
H308	H	1.898026	-0.045991	0.496210
O309	O	0.847610	-0.175703	-0.175781
O310	O	1.347610	0.324297	0.324219
C311	C	0.793475	-0.207346	-0.207303
C312	C	1.293475	0.292654	0.292697
H313	H	0.734645	-0.195726	-0.215645
H314	H	1.234645	0.304274	0.284355
H315	H	0.817349	-0.209442	-0.239949
H316	H	1.317349	0.290558	0.260051
H317	H	0.784657	-0.242456	-0.191804
H318	H	1.284657	0.257544	0.308196
O319	O	0.805302	-0.037584	-0.038010
O320	O	1.305302	0.462416	0.461990
C321	C	0.832837	-0.077446	-0.023221
C322	C	1.332837	0.422554	0.476779
H323	H	0.785251	-0.108819	-0.036315
H324	H	1.285251	0.391181	0.463685
H325	H	0.888077	-0.079100	-0.037124
H326	H	1.388077	0.420900	0.462876
H327	H	0.847450	-0.076655	0.015736
H328	H	1.347450	0.423345	0.515736
H329	H	0.717450	0.004597	0.003928
H330	H	1.217450	0.504597	0.503928
H331	H	0.593632	0.019109	0.018393
H332	H	1.093632	0.519109	0.518393
H333	H	0.492777	-0.131060	-0.131247
H334	H	0.992777	0.368940	0.368753
O335	O	1.042645	-0.836339	-0.153522
O336	O	1.542645	-0.336339	0.346478
C337	C	1.059880	-0.845794	-0.196331
C338	C	1.559880	-0.345794	0.303669
H339	H	1.090292	-0.876339	-0.193789
H340	H	1.590292	-0.376339	0.306211
H341	H	1.002805	-0.854001	-0.222989
H342	H	1.502805	-0.354001	0.277011
H343	H	1.100477	-0.814687	-0.206830
H344	H	1.600477	-0.314687	0.293170
O345	O	1.042431	-0.356392	-0.153501
O346	O	1.542431	0.143608	0.346499
C347	C	1.059635	-0.342910	-0.196309
C348	C	1.559635	0.157090	0.303691
H349	H	1.122770	-0.322706	-0.191364
H350	H	1.622770	0.177294	0.308636
H351	H	1.052824	-0.374544	-0.219288
H352	H	1.552824	0.125456	0.280712
H353	H	1.017222	-0.320579	-0.212891
H354	H	1.517222	0.179421	0.287109
H355	H	0.443867	0.001847	0.001201
H356	H	0.943867	0.501847	0.501201
O357	O	0.992088	-0.718831	-0.187979
O358	O	1.492088	-0.218831	0.312021
C359	C	1.037078	-0.740745	-0.211870
C360	C	1.537078	-0.240745	0.288130
H361	H	1.097000	-0.740852	-0.189180
H362	H	1.597000	-0.240852	0.310820
H363	H	1.004892	-0.777457	-0.221578
H364	H	1.504892	-0.277457	0.278422
H365	H	1.045722	-0.721647	-0.244169
H366	H	1.545722	-0.221647	0.255831
H367	H	1.233864	-0.330604	-0.022809
H368	H	1.733864	0.169396	0.477191
O369	O	1.241821	-0.240956	-0.017361
O370	O	1.741821	0.259044	0.482639
C371	C	1.286471	-0.266569	0.013098
C372	C	1.786471	0.233431	0.513098
H373	H	1.289203	-0.299691	-0.004997
H374	H	1.789203	0.200309	0.495003
H375	H	1.348749	-0.245813	0.025005
H376	H	1.848749	0.254187	0.525005
H377	H	1.257568	-0.274914	0.043917
H378	H	1.757568	0.225086	0.543917
O379	O	0.561040	-0.179885	-0.179936
O380	O	1.061040	0.320115	0.320064
C381	C	0.479328	-0.183137	-0.183158
C382	C	0.979328	0.316863	0.316842
H383	H	0.468072	-0.149741	-0.169797
H384	H	0.968072	0.350259	0.330203
H385	H	0.447973	-0.189848	-0.220403
H386	H	0.947973	0.310152	0.279597
H387	H	0.455864	-0.212451	-0.161881
H388	H	0.955864	0.287549	0.338119
O389	O	1.292430	-0.450917	0.017172
O390	O	1.792430	0.049083	0.517172
C391	C	1.275207	-0.464381	0.059980
C392	C	1.775207	0.035619	0.559980
H393	H	1.244828	-0.501956	0.057437
H394	H	1.744828	-0.001956	0.557437
H395	H	1.332284	-0.459400	0.086638
H396	H	1.832284	0.040600	0.586638
H397	H	1.234585	-0.442674	0.070481
H398	H	1.734585	0.057326	0.570481
H399	H	1.234118	-0.817860	-0.022822
H400	H	1.734118	-0.317860	0.477178
H401	H	1.234092	-0.022198	-0.903861
H402	H	1.734092	0.477802	-0.403861
H403	H	1.050404	-0.147760	-0.267403
H404	H	1.550404	0.352240	0.232597
H405	H	1.284598	-0.596205	0.011687
H406	H	1.784598	-0.096205	0.511687
O407	O	1.242137	-0.905810	-0.017473
O408	O	1.742137	-0.405810	0.482527
C409	C	1.231316	-0.953499	-0.024884
C410	C	1.731316	-0.453499	0.475116
H411	H	1.205318	-0.962889	-0.062509
H412	H	1.705318	-0.462889	0.437491
H413	H	1.290554	-0.964471	-0.015126
H414	H	1.790554	-0.464471	0.484874
H415	H	1.189327	-0.971700	-0.003010
H416	H	1.689327	-0.471700	0.496990
H417	H	1.050599	-0.924166	-0.148041
H418	H	1.550599	-0.424166	0.351959
H419	H	0.999840	-0.573443	-0.182548
H420	H	1.499840	-0.073443	0.317452
O421	O	1.042528	-0.153074	-0.837096
O422	O	1.542528	0.346926	-0.337096
C423	C	0.997882	-0.183553	-0.872989
C424	C	1.497882	0.316447	-0.372989
H425	H	1.030266	-0.181362	-0.902721
H426	H	1.530266	0.318638	-0.402721
H427	H	0.989415	-0.219931	-0.860413
H428	H	1.489415	0.280069	-0.360413
H429	H	0.937864	-0.174012	-0.884856
H430	H	1.437864	0.325988	-0.384856
O431	O	0.991785	-0.485645	-0.187992
O432	O	1.491785	0.014355	0.312008
C433	C	0.947176	-0.521566	-0.218456
C434	C	1.447176	-0.021566	0.281544
H435	H	0.944477	-0.555327	-0.200364
H436	H	1.444477	-0.055327	0.299636
H437	H	0.884884	-0.515214	-0.230366
H438	H	1.384884	-0.015214	0.269634
H439	H	0.976092	-0.523203	-0.249272
H440	H	1.476092	-0.023203	0.250728
H441	H	1.284641	-0.681319	0.011678
H442	H	1.784641	-0.181319	0.511678
H443	H	0.999876	-0.629088	-0.182542
H444	H	1.499876	-0.129088	0.317458
H445	H	0.999881	-0.182183	-0.714891
H446	H	1.499881	0.317817	-0.214891
H447	H	0.999861	-0.182206	-0.629788
H448	H	1.499861	0.317794	-0.129788
H449	H	1.284608	0.012278	-0.597141
H450	H	1.784608	0.512278	-0.097141
O451	O	1.241952	-0.016917	-0.241828
O452	O	1.741952	0.483083	0.258172
C453	C	1.286616	0.013578	-0.267478
C454	C	1.786616	0.513578	0.232522
H455	H	1.254241	0.011415	-0.304632
H456	H	1.754241	0.511415	0.195368
H457	H	1.295095	0.049947	-0.252950
H458	H	1.795095	0.549947	0.247050
H459	H	1.346628	0.004032	-0.265592
H460	H	1.846628	0.504032	0.234408
H461	H	1.284611	0.012305	-0.682249
H462	H	1.784611	0.512305	-0.182249
