data_functionalizedCrystal
_audit_creation_method	'MofGen! by Chris Wilmer'
_symmetry_space_group_name_H-M	'P1'
_symmetry_Int_Tables_number	1
_symmetry_cell_setting	triclinic
loop_
_symmetry_equiv_pos_as_xyz
  x,y,z
_cell_length_a	14.044220
_cell_length_b	27.732048
_cell_length_c	26.809956
_cell_angle_alpha	89.975675
_cell_angle_beta	89.985706
_cell_angle_gamma	87.915767
loop_
_atom_site_label
_atom_site_type_symbol
_atom_site_fract_x
_atom_site_fract_y
_atom_site_fract_z
O1	O	1.256020	0.116469	-0.041437
O2	O	0.980113	0.112267	-0.041449
O3	O	1.126636	0.044373	-0.041433
O4	O	1.109498	0.184363	-0.041453
O5	O	1.126584	0.044351	0.041526
O6	O	0.980061	0.112244	0.041510
O7	O	1.255969	0.116447	0.041522
Zn8	Zn	1.118006	0.114342	0.054688
Zn9	Zn	1.118075	0.114372	-0.054615
O10	O	1.109446	0.184340	0.041506
C11	C	0.944799	0.110416	0.000029
C12	C	0.839654	0.104929	0.000025
C13	C	1.126250	0.026338	0.000048
C14	C	1.125167	-0.027367	0.000052
C15	C	0.647140	0.094897	0.000036
C16	C	0.588936	0.133814	0.000033
C17	C	0.481815	0.128232	0.000039
C18	C	0.754271	0.100478	0.000030
C19	C	1.204932	-0.362439	0.000030
C20	C	1.200913	-0.564288	0.000023
O21	O	1.273853	-0.592120	0.000004
N22	N	1.114031	-0.587489	0.000019
C23	C	1.028148	-0.560224	0.000014
O24	O	0.954157	-0.584590	0.000006
C25	C	1.032168	-0.358377	0.000018
C26	C	1.119056	-0.335179	0.000026
C27	C	1.291813	-0.339241	0.000038
C28	C	1.292817	-0.288782	0.000042
C29	C	1.206940	-0.261521	0.000039
C30	C	1.120060	-0.284720	0.000031
C31	C	0.946286	-0.331114	0.000009
C32	C	0.947299	-0.280649	0.000009
C33	C	1.034186	-0.257450	0.000017
C34	C	1.035187	-0.207000	0.000032
N35	N	1.122069	-0.183799	0.000035
C36	C	1.207946	-0.211060	0.000039
C37	C	1.026043	-0.666197	0.000013
C38	C	1.025038	-0.716659	0.000013
C39	C	1.197804	-0.720718	0.000021
C40	C	1.198808	-0.670256	0.000024
C41	C	1.112925	-0.642996	0.000017
C42	C	1.210047	-0.105092	0.000049
C43	C	1.211044	-0.054628	0.000055
C44	C	1.038278	-0.050573	0.000045
C45	C	1.037281	-0.101032	0.000041
C46	C	1.123174	-0.128290	0.000041
O47	O	0.962286	-0.179137	0.000045
O48	O	1.281925	-0.186685	0.000036
C49	C	1.203929	-0.412898	0.000025
C50	C	1.117048	-0.436097	0.000017
C51	C	1.031171	-0.408836	0.000014
C52	C	1.116043	-0.486558	0.000017
C53	C	1.201919	-0.513819	0.000021
C54	C	1.288801	-0.490618	0.000024
C55	C	1.289805	-0.440159	0.000029
C56	C	0.944289	-0.432037	0.000011
C57	C	0.943292	-0.482496	0.000007
C58	C	1.029169	-0.509757	0.000010
C59	C	1.291282	0.118297	0.000043
C60	C	1.396427	0.123785	0.000044
C61	C	1.109831	0.202375	0.000024
C62	C	1.110915	0.256081	0.000017
N63	N	1.117967	0.114321	0.129284
N64	N	1.118122	0.114388	-0.129211
C65	C	1.061039	0.082556	0.526178
C66	C	1.060994	0.082540	0.317301
O67	O	1.012528	0.055488	0.290310
N68	N	1.118005	0.114331	0.291162
C69	C	1.175036	0.146125	0.317246
O70	O	1.223534	0.173161	0.290221
C71	C	1.175085	0.146138	0.526123
C72	C	1.118063	0.114349	0.552259
C73	C	1.004022	0.050769	0.552314
C74	C	1.004030	0.050775	0.604531
C75	C	1.061054	0.082568	0.630611
C76	C	1.118071	0.114354	0.604475
C77	C	1.232121	0.177929	0.552206
C78	C	1.232130	0.177929	0.604429
C79	C	1.175108	0.146140	0.630564
C80	C	1.175103	0.146153	0.682772
N81	N	1.118092	0.114363	0.708910
C82	C	1.061068	0.082570	0.682830
C83	C	1.175005	0.146117	0.207583
C84	C	1.174991	0.146114	0.155364
C85	C	1.060950	0.082529	0.155422
C86	C	1.060959	0.082534	0.207642
C87	C	1.117994	0.114326	0.233722
C88	C	1.061088	0.082585	0.792488
C89	C	1.061098	0.082595	0.844709
C90	C	1.175142	0.146179	0.844646
C91	C	1.175129	0.146171	0.792430
C92	C	1.118099	0.114370	0.766352
O93	O	1.223552	0.173188	0.709795
O94	O	1.012593	0.055531	0.709864
C95	C	1.061031	0.082550	0.473962
C96	C	1.118047	0.114337	0.447826
C97	C	1.175072	0.146129	0.473907
C98	C	1.118034	0.114334	0.395607
C99	C	1.061009	0.082541	0.369527
C100	C	1.003998	0.050751	0.395665
C101	C	1.004006	0.050757	0.447882
C102	C	1.232083	0.177920	0.447768
C103	C	1.232070	0.177912	0.395552
C104	C	1.175045	0.146119	0.369471
H105	H	0.619558	0.171324	0.000025
H106	H	0.616520	0.057390	0.000044
H107	H	1.269560	-0.651371	0.000031
H108	H	1.281801	-0.035743	0.000063
H109	H	1.267728	-0.742923	0.000024
H110	H	1.279989	-0.127280	0.000047
C111	C	1.388394	-0.263270	0.000042
H112	H	1.439388	-0.286738	0.000037
H113	H	1.392375	-0.243680	0.028970
H114	H	1.392393	-0.243660	-0.028893
H115	H	1.360558	-0.421276	0.000035
C116	C	0.941283	0.015796	0.523634
H117	H	0.907329	-0.003129	0.546685
H118	H	0.980407	-0.004757	0.503263
H119	H	0.897386	0.033702	0.503267
C120	C	1.386286	-0.369220	0.000045
H121	H	1.438164	-0.348170	0.000054
H122	H	1.389520	-0.388981	-0.028882
H123	H	1.389467	-0.388998	0.028981
C124	C	0.929462	-0.742171	0.000008
H125	H	0.878466	-0.718704	0.000001
H126	H	0.925451	-0.761785	0.028936
H127	H	0.925497	-0.761758	-0.028927
C128	C	0.931566	-0.636217	0.000012
H129	H	0.879686	-0.657266	0.000015
H130	H	0.928371	-0.616434	-0.028916
H131	H	0.928349	-0.616462	0.028947
C132	C	0.850708	-0.356621	-0.000004
H133	H	0.799716	-0.333151	-0.000013
H134	H	0.846689	-0.376235	0.028923
H135	H	0.846744	-0.376206	-0.028940
H136	H	1.278501	0.203803	0.374276
C137	C	0.852825	-0.250666	0.000003
H138	H	0.800940	-0.271712	0.000001
H139	H	0.849642	-0.230882	-0.028925
H140	H	0.849603	-0.230911	0.028938
H141	H	0.966530	-0.119921	0.000048
C142	C	0.943822	-0.020580	0.000039
H143	H	0.956871	0.012795	0.000036
H144	H	0.908135	-0.028024	0.028963
H145	H	0.908190	-0.028001	-0.028900
H146	H	1.221547	0.172062	0.771149
H147	H	1.358725	-0.512822	0.000029
H148	H	0.872533	-0.501380	0.000004
C149	C	0.998372	0.047625	0.873455
H150	H	0.964418	0.028688	0.850441
H151	H	0.954489	0.065530	0.893824
H152	H	1.037522	0.027077	0.893830
C153	C	0.998227	0.047555	0.126730
H154	H	0.964268	0.028620	0.149771
H155	H	1.037373	0.027011	0.106361
H156	H	0.954333	0.065459	0.106359
H157	H	0.874356	-0.409846	0.000007
C158	C	0.998349	0.047609	0.763810
H159	H	0.964391	0.028684	0.786860
H160	H	1.037477	0.027056	0.743442
H161	H	0.954455	0.065514	0.743440
C162	C	0.941325	0.015797	0.633273
H163	H	0.907377	-0.003141	0.610256
H164	H	0.897436	0.033692	0.653647
H165	H	0.980488	-0.004750	0.653642
H166	H	1.014527	0.056648	0.228918
H167	H	1.221413	0.172006	0.134089
C168	C	1.237738	0.181095	0.236264
H169	H	1.271677	0.200028	0.213214
H170	H	1.281634	0.163198	0.256636
H171	H	1.198593	0.201646	0.256630
H172	H	1.278556	0.203815	0.530935
H173	H	1.278576	0.203818	0.625660
C174	C	1.237870	0.181146	0.873341
H175	H	1.229713	0.176589	0.908183
H176	H	1.219797	0.213436	0.864774
H177	H	1.302814	0.174974	0.864775
C178	C	0.941266	0.015783	0.366970
H179	H	0.949436	0.020335	0.332128
H180	H	0.876325	0.021947	0.375535
H181	H	0.959353	-0.016508	0.375538
H182	H	0.957573	0.024871	0.469157
H183	H	1.278522	0.203809	0.468998
