data_functionalizedCrystal
_audit_creation_method	'MofGen! by Chris Wilmer'
_symmetry_space_group_name_H-M	'P1'
_symmetry_Int_Tables_number	1
_symmetry_cell_setting	triclinic
loop_
_symmetry_equiv_pos_as_xyz
  x,y,z
_cell_length_a	12.837943
_cell_length_b	16.776229
_cell_length_c	17.699083
_cell_angle_alpha	89.992455
_cell_angle_beta	89.055977
_cell_angle_gamma	89.994226
loop_
_atom_site_label
_atom_site_type_symbol
_atom_site_fract_x
_atom_site_fract_y
_atom_site_fract_z
O1	O	1.374962	-0.066277	0.196724
O2	O	1.874962	0.433723	0.696724
O3	O	1.073181	-0.066282	0.187006
O4	O	1.573181	0.433718	0.687006
O5	O	1.232598	-0.066273	0.082302
O6	O	1.732598	0.433727	0.582302
O7	O	1.215545	-0.066287	0.301428
O8	O	1.715545	0.433713	0.801428
O9	O	1.232576	0.066304	0.082293
O10	O	1.732576	0.566304	0.582293
O11	O	1.073160	0.066295	0.186997
O12	O	1.573160	0.566295	0.686997
O13	O	1.374941	0.066299	0.196715
O14	O	1.874941	0.566299	0.696715
Zn15	Zn	1.224047	0.087346	0.191855
Zn16	Zn	1.724047	0.587346	0.691855
Zn17	Zn	1.224075	-0.087329	0.191866
Zn18	Zn	1.724075	0.412671	0.691866
O19	O	1.215524	0.066290	0.301419
O20	O	1.715524	0.566290	0.801419
C21	C	1.034558	0.000006	0.183719
C22	C	1.534558	0.500006	0.683719
C23	C	0.919506	0.000004	0.173928
C24	C	1.419506	0.500004	0.673928
N25	N	1.224036	0.206557	0.191847
N26	N	1.724036	0.706557	0.691847
N27	N	1.224094	-0.206540	0.191869
N28	N	1.724094	0.293460	0.691869
C29	C	0.678251	0.000008	0.291632
C30	C	1.178251	0.500008	0.791632
C31	C	0.570148	0.000007	0.282436
C32	C	1.070148	0.500007	0.782436
C33	C	0.595196	0.000008	0.146341
C34	C	1.095196	0.500008	0.646341
C35	C	0.703298	0.000008	0.155537
C36	C	1.203298	0.500008	0.655537
C37	C	0.744822	0.000007	0.228185
C38	C	1.244822	0.500007	0.728185
C39	C	0.852926	0.000002	0.237380
C40	C	1.352926	0.500002	0.737380
C41	C	0.877972	0.000009	0.101285
C42	C	1.377972	0.500009	0.601285
C43	C	0.769869	0.000008	0.092090
C44	C	1.269869	0.500008	0.592090
C45	C	1.413564	0.000010	0.200002
C46	C	1.913564	0.500010	0.700002
C47	C	1.528616	0.000006	0.209793
C48	C	2.028616	0.500006	0.709793
C49	C	1.231976	0.000016	0.054056
C50	C	1.731976	0.500016	0.554056
C51	C	1.230143	0.000016	-0.030097
C52	C	1.730143	0.500016	0.469903
C53	C	1.294647	0.248279	0.145507
C54	C	1.794647	0.748279	0.645507
C55	C	1.294652	0.331731	0.145507
C56	C	1.794652	0.831731	0.645507
C57	C	1.224051	0.373460	0.191851
C58	C	1.724051	0.873460	0.691851
C59	C	1.153433	0.331733	0.238193
C60	C	1.653433	0.831733	0.738193
C61	C	1.153423	0.248282	0.238189
C62	C	1.653423	0.748282	0.738189
C63	C	1.153470	0.668280	0.238211
C64	C	1.653470	1.168280	0.738211
C65	C	1.153487	0.751737	0.238213
C66	C	1.653487	1.251737	0.738213
C67	C	1.294700	0.751729	0.145529
C68	C	1.794700	1.251729	0.645529
C69	C	1.294690	0.668278	0.145524
C70	C	1.794690	1.168278	0.645524
C71	C	1.224068	0.626558	0.191863
C72	C	1.724068	1.126558	0.691863
C73	C	1.224061	0.536070	0.191862
C74	C	1.724061	1.036070	0.691862
C75	C	1.224062	0.463947	0.191857
C76	C	1.724062	0.963947	0.691857
C77	C	1.323717	0.000019	-0.071843
C78	C	1.823717	0.500019	0.428157
C79	C	1.321989	0.000012	-0.150914
C80	C	1.821989	0.500012	0.349086
C81	C	1.226685	0.000008	-0.188236
C82	C	1.726685	0.500008	0.311764
C83	C	1.133103	0.000003	-0.146484
C84	C	1.633103	0.500003	0.353516
C85	C	1.134833	0.000004	-0.067415
C86	C	1.634833	0.500004	0.432585
C87	C	1.126126	-0.000004	-0.465359
C88	C	1.626126	0.499996	0.034641
C89	C	1.124404	-0.000003	-0.544434
C90	C	1.624404	0.499997	-0.044434
C91	C	1.313282	0.000004	-0.548858
C92	C	1.813282	0.500004	-0.048858
C93	C	1.315011	0.000005	-0.469789
C94	C	1.815011	0.500005	0.030211
C95	C	1.221430	-0.000004	-0.428044
C96	C	1.721430	0.499996	0.071956
C97	C	1.223306	0.000002	-0.342307
C98	C	1.723306	0.500002	0.157693
C99	C	1.224808	0.000007	-0.273972
C100	C	1.724808	0.500007	0.226028
C101	C	1.216146	-0.000001	0.329665
C102	C	1.716146	0.499999	0.829665
C103	C	1.217979	-0.000006	0.413818
C104	C	1.717979	0.499994	0.913818
H105	H	0.712059	0.000006	0.350785
H106	H	1.212059	0.500006	0.850785
O107	O	1.422914	0.000027	-0.195944
O108	O	1.922914	0.500027	0.304056
H109	H	1.489474	0.000045	-0.156707
H110	H	1.989474	0.500045	0.343293
O111	O	1.077292	0.376742	0.288185
O112	O	1.577292	0.876742	0.788185
H113	H	1.028186	0.333708	0.320405
H114	H	1.528186	0.833708	0.820405
H115	H	0.561368	0.000074	0.087194
H116	H	1.061368	0.500074	0.587194
H117	H	1.055505	-0.000005	-0.176878
H118	H	1.555505	0.499995	0.323122
O119	O	1.033908	0.000010	-0.022382
O120	O	1.533908	0.500010	0.477618
H121	H	0.967346	0.000016	-0.061617
H122	H	1.467346	0.500016	0.438383
H123	H	0.932186	0.000003	0.049622
H124	H	1.432186	0.500003	0.549622
O125	O	1.077266	0.203269	0.288164
O126	O	1.577266	0.703269	0.788164
H127	H	1.090317	0.219258	0.348119
H128	H	1.590317	0.719258	0.848119
O129	O	0.498342	0.000004	0.350867
O130	O	0.998342	0.500004	0.850867
H131	H	0.545382	-0.000002	0.402926
H132	H	1.045382	0.499998	0.902926
H133	H	1.352143	0.214308	0.107771
H134	H	1.852143	0.714308	0.607771
O135	O	0.725082	0.000009	0.013736
O136	O	1.225082	0.500009	0.513736
H137	H	0.638727	0.000005	0.017999
H138	H	1.138727	0.500005	0.517999
O139	O	1.370829	0.376733	0.095541
O140	O	1.870829	0.876733	0.595541
H141	H	1.419936	0.333696	0.063327
H142	H	1.919936	0.833696	0.563327
H143	H	1.095992	0.785712	0.275954
H144	H	1.595992	1.285712	0.775954
H145	H	1.352183	0.634304	0.107789
H146	H	1.852183	1.134304	0.607789
O147	O	1.025189	-0.000003	-0.420348
O148	O	1.525189	0.499997	0.079652
H149	H	1.021451	-0.054043	-0.384218
H150	H	1.521451	0.445957	0.115782
H151	H	1.095969	0.634319	0.275943
H152	H	1.595969	1.134319	0.775943
O153	O	0.897721	0.000012	0.315731
O154	O	1.397721	0.500012	0.815731
H155	H	0.833263	0.000023	0.358304
H156	H	1.333263	0.500023	0.858304
O157	O	1.370866	0.796725	0.095538
O158	O	1.870866	1.296725	0.595538
H159	H	1.359008	0.861764	0.103317
H160	H	1.859008	1.361764	0.603317
O161	O	1.426510	0.000015	-0.031589
O162	O	1.926510	0.500015	0.468411
H163	H	1.491286	0.000005	-0.073906
H164	H	1.991286	0.500005	0.426094
O165	O	1.414222	0.000007	-0.593882
O166	O	1.914222	0.500007	-0.093882
H167	H	1.397015	-0.000003	-0.655134
H168	H	1.897015	0.499997	-0.155134
H169	H	1.392617	0.000012	-0.439406
H170	H	1.892617	0.500012	0.060594
H171	H	1.046791	-0.000004	-0.574819
H172	H	1.546791	0.499996	-0.074819
