data_functionalizedCrystal
_audit_creation_method	'MofGen! by Chris Wilmer'
_symmetry_space_group_name_H-M	'P1'
_symmetry_Int_Tables_number	1
_symmetry_cell_setting	triclinic
loop_
_symmetry_equiv_pos_as_xyz
  x,y,z
_cell_length_a	14.044220
_cell_length_b	19.188930
_cell_length_c	12.503572
_cell_angle_alpha	93.506241
_cell_angle_beta	86.164750
_cell_angle_gamma	88.166830
loop_
_atom_site_label
_atom_site_type_symbol
_atom_site_fract_x
_atom_site_fract_y
_atom_site_fract_z
O1	O	1.262485	0.164589	-0.089229
O2	O	0.986542	0.158515	-0.089255
O3	O	1.132475	0.060411	-0.089220
O4	O	1.116552	0.262693	-0.089264
O5	O	1.121500	0.067803	0.089419
O6	O	0.975567	0.165907	0.089384
O7	O	1.251510	0.171980	0.089411
Cu8	Cu	1.112536	0.169618	0.105709
Cu9	Cu	1.125516	0.160877	-0.105553
O10	O	1.105577	0.270084	0.089376
C11	C	0.945752	0.159553	0.000061
C12	C	0.840559	0.151624	0.000052
C13	C	1.126472	0.038063	0.000102
C14	C	1.124923	-0.039541	0.000112
C15	C	0.647956	0.137129	0.000077
C16	C	0.590090	0.193363	0.000069
C17	C	0.482920	0.185298	0.000083
C18	C	0.755137	0.145193	0.000063
C19	C	1.210552	-0.078939	0.000125
C20	C	1.209099	-0.151857	0.000108
C21	C	1.122010	-0.185374	0.000098
C22	C	1.036370	-0.145968	0.000079
C23	C	1.037826	-0.073051	0.000086
N24	N	1.051706	-0.295160	0.060886
N25	N	1.050328	-0.364427	0.060882
C26	C	1.117616	-0.405067	0.000076
N27	N	1.186348	-0.373823	-0.060712
N28	N	1.187729	-0.304548	-0.060704
C29	C	1.120421	-0.264440	0.000091
C30	C	1.201676	-0.523532	0.000069
C31	C	1.200219	-0.596451	0.000045
C32	C	1.027487	-0.590560	0.000028
C33	C	1.028947	-0.517642	0.000041
C34	C	1.116043	-0.484132	0.000067
C35	C	1.292301	0.170943	0.000092
C36	C	1.397493	0.178872	0.000094
C37	C	1.111580	0.292433	0.000051
C38	C	1.113129	0.370037	0.000034
N39	N	1.103414	0.175766	0.254299
N40	N	1.134645	0.154724	-0.254143
C41	C	1.089995	0.184816	0.473411
C42	C	1.148061	0.145676	0.526752
C43	C	1.140595	0.150712	0.648673
C44	C	1.097461	0.179782	0.351478
H45	H	0.621038	0.247564	0.000052
O46	O	0.611201	0.072421	0.000132
C47	C	0.686108	0.021713	0.000100
H48	H	0.751158	0.046772	0.033917
H49	H	0.705387	-0.000384	-0.085604
C50	C	0.574120	-0.068457	0.028620
C51	C	0.654014	-0.037680	0.070164
H52	H	0.554323	-0.105095	0.071835
H53	H	0.523653	-0.034295	0.028638
H54	H	0.590197	-0.086865	-0.042798
H55	H	0.637933	-0.019265	0.141576
H56	H	0.704477	-0.071841	0.070160
H57	H	1.281473	-0.051660	0.000142
O58	O	1.024090	0.229292	0.528324
C59	C	1.031209	0.224474	0.639594
H60	H	1.105690	0.203628	0.654814
H61	H	0.975700	0.187473	0.671523
C62	C	0.921880	0.322957	0.678753
C63	C	1.013361	0.297359	0.697447
H64	H	0.910866	0.367914	0.714442
H65	H	0.917080	0.326201	0.603789
H66	H	0.875633	0.292116	0.705361
H67	H	1.059606	0.328194	0.670827
H68	H	1.018168	0.294121	0.772409
O69	O	1.283392	-0.634762	-0.000137
C70	C	1.293398	-0.680940	-0.092650
H71	H	1.248804	-0.659960	-0.157320
H72	H	1.267809	-0.734550	-0.071749
C73	C	1.453906	-0.713070	-0.055155
C74	C	1.399141	-0.687300	-0.134587
H75	H	1.519133	-0.716997	-0.081022
H76	H	1.447164	-0.681962	0.007175
H77	H	1.432571	-0.757743	-0.037745
H78	H	1.420469	-0.642625	-0.151986
H79	H	1.405889	-0.718402	-0.196922
O80	O	0.942807	-0.623000	-0.000029
C81	C	0.867536	-0.572584	-0.000004
H82	H	0.895971	-0.522865	-0.033814
H83	H	0.835871	-0.560390	0.085697
C84	C	0.754753	-0.662215	-0.028545
C85	C	0.789676	-0.601150	-0.070081
H86	H	0.706723	-0.679835	-0.071768
H87	H	0.805464	-0.696181	-0.028558
H88	H	0.728373	-0.652045	0.042871
H89	H	0.816067	-0.611323	-0.141490
H90	H	0.738968	-0.567185	-0.070081
O91	O	1.292367	-0.190031	0.000171
C92	C	1.369553	-0.144820	0.000164
H93	H	1.343197	-0.090582	0.033981
H94	H	1.401536	-0.141509	-0.085532
C95	C	1.478635	-0.239787	0.028702
C96	C	1.446266	-0.173173	0.070245
H97	H	1.525958	-0.257277	0.071927
H98	H	1.426634	-0.270248	0.028703
H99	H	1.505281	-0.237019	-0.042711
H100	H	1.419610	-0.175943	0.141651
H101	H	1.498264	-0.142713	0.070258
H102	H	1.203381	0.108386	0.480852
O103	O	0.951840	-0.178608	-0.000071
C104	C	0.951507	-0.224415	-0.092606
H105	H	1.028168	-0.239167	-0.123441
H106	H	0.913431	-0.197535	-0.157396
C107	C	0.804865	-0.272716	-0.026639
C108	C	0.899022	-0.290840	-0.064506
H109	H	0.772487	-0.313689	-0.009309
H110	H	0.805087	-0.241853	0.035702
H111	H	0.773148	-0.250315	-0.080637
H112	H	0.930741	-0.313232	-0.010503
H113	H	0.898804	-0.321708	-0.126837
H114	H	1.272595	-0.496247	0.000085
O115	O	0.954732	-0.034673	0.000031
C116	C	0.974691	0.036872	0.000073
H117	H	1.051191	0.042905	-0.033735
H118	H	0.965744	0.061236	0.085778
C119	C	0.811284	0.066553	-0.028463
C120	C	0.905239	0.073963	-0.069995
H121	H	0.768441	0.089434	-0.071680
H122	H	0.797835	0.018352	-0.028487
H123	H	0.803842	0.086856	0.042958
H124	H	0.912684	0.053652	-0.141409
H125	H	0.918688	0.122161	-0.069985
H126	H	0.959218	-0.485563	0.000036
