data_functionalizedCrystal
_audit_creation_method	'MofGen! by Chris Wilmer'
_symmetry_space_group_name_H-M	'P1'
_symmetry_Int_Tables_number	1
_symmetry_cell_setting	triclinic
loop_
_symmetry_equiv_pos_as_xyz
  x,y,z
_cell_length_a	19.805407
_cell_length_b	13.897448
_cell_length_c	19.805398
_cell_angle_alpha	89.973957
_cell_angle_beta	89.986879
_cell_angle_gamma	90.017692
loop_
_atom_site_label
_atom_site_type_symbol
_atom_site_fract_x
_atom_site_fract_y
_atom_site_fract_z
Zn1	Zn	1.034734	-0.384028	-0.382732
Zn2	Zn	1.534734	0.115972	0.117268
Zn3	Zn	1.034678	-0.545336	-0.269549
Zn4	Zn	1.534678	-0.045336	0.230451
Zn5	Zn	0.921561	-0.384057	-0.269556
Zn6	Zn	1.421561	0.115943	0.230444
Zn7	Zn	0.921529	-0.545282	-0.382695
Zn8	Zn	1.421529	-0.045282	0.117305
O9	O	0.978125	-0.464676	-0.326133
O10	O	1.478125	0.035324	0.173867
O11	O	1.129443	-0.405436	-0.367730
O12	O	1.629443	0.094564	0.132270
O13	O	1.019663	-0.523977	-0.174833
O14	O	1.519663	-0.023977	0.325167
O15	O	0.936610	-0.249071	-0.284588
O16	O	1.436610	0.250929	0.215412
O17	O	1.129402	-0.523949	-0.284575
O18	O	1.629402	-0.023949	0.215425
O19	O	1.019757	-0.249050	-0.367737
O20	O	1.519757	0.250950	0.132263
O21	O	0.936557	-0.405486	-0.174839
O22	O	1.436557	0.094514	0.325161
O23	O	0.826840	-0.405434	-0.284552
O24	O	1.326840	0.094566	0.215448
O25	O	0.936556	-0.523856	-0.477417
O26	O	1.436556	-0.023856	0.022583
O27	O	0.826817	-0.523885	-0.367675
O28	O	1.326817	-0.023885	0.132325
O29	O	1.019726	-0.405383	-0.477443
O30	O	1.519726	0.094617	0.022557
O31	O	1.019632	-0.680311	-0.284539
O32	O	1.519632	-0.180311	0.215461
O33	O	0.936502	-0.680271	-0.367668
O34	O	1.436502	-0.180271	0.132332
C35	C	0.802269	-0.464657	-0.326111
C36	C	1.302269	0.035343	0.173889
C37	C	0.727037	-0.464673	-0.326118
C38	C	1.227037	0.035327	0.173882
C39	C	0.691699	-0.526443	-0.369330
C40	C	1.191699	-0.026443	0.130670
C41	C	0.621010	-0.526445	-0.369339
C42	C	1.121010	-0.026445	0.130661
C43	C	0.585662	-0.464680	-0.326133
C44	C	1.085662	0.035320	0.173867
C45	C	0.621006	-0.402903	-0.282919
C46	C	1.121006	0.097097	0.217081
C47	C	0.691693	-0.402897	-0.282913
C48	C	1.191693	0.097103	0.217087
C49	C	0.335932	-0.402924	-0.282941
C50	C	0.835932	0.097076	0.217059
C51	C	0.265240	-0.402937	-0.282949
C52	C	0.765240	0.097063	0.217051
C53	C	0.265250	-0.526472	-0.369367
C54	C	0.765250	-0.026472	0.130633
C55	C	0.335937	-0.526466	-0.369362
C56	C	0.835937	-0.026466	0.130638
C57	C	0.371275	-0.464686	-0.326151
C58	C	0.871275	0.035314	0.173849
C59	C	0.447923	-0.464683	-0.326142
C60	C	0.947923	0.035317	0.173858
C61	C	0.509015	-0.464687	-0.326138
C62	C	1.009015	0.035313	0.173862
C63	C	0.978076	-0.715290	-0.326113
C64	C	1.478076	-0.215290	0.173887
C65	C	0.978117	-0.822504	-0.326128
C66	C	1.478117	-0.322504	0.173872
C67	C	0.978188	-1.018799	-0.326170
C68	C	1.478188	-0.518799	0.173830
C69	C	0.978147	-0.909567	-0.326149
C70	C	1.478147	-0.409567	0.173851
C71	C	1.154668	-0.464695	-0.326155
C72	C	1.654668	0.035305	0.173845
C73	C	1.229900	-0.464703	-0.326165
C74	C	1.729900	0.035297	0.173835
C75	C	0.978144	-0.464611	-0.502676
C76	C	1.478144	0.035389	-0.002676
C77	C	0.978151	-0.464583	-0.577908
C78	C	1.478151	0.035417	-0.077908
C79	C	0.978194	-0.213083	-0.326167
C80	C	1.478194	0.286917	0.173833
C81	C	0.978222	-0.105869	-0.326182
C82	C	1.478222	0.394131	0.173818
C83	C	1.021532	-0.526128	-1.039694
C84	C	1.521532	-0.026128	-0.539694
C85	C	1.021513	-0.526154	-0.969005
C86	C	1.521513	-0.026154	-0.469005
C87	C	0.978235	-0.464474	-0.933670
C88	C	1.478235	0.035526	-0.433670
C89	C	0.934969	-0.402771	-0.969026
C90	C	1.434969	0.097229	-0.469026
C91	C	0.934984	-0.402750	-1.039714
C92	C	1.434984	0.097250	-0.539714
C93	C	0.934903	-0.402853	-0.683953
C94	C	1.434903	0.097147	-0.183953
C95	C	0.934892	-0.402877	-0.613261
C96	C	1.434892	0.097123	-0.113261
C97	C	1.021432	-0.526257	-0.613244
C98	C	1.521432	-0.026257	-0.113244
C99	C	1.021448	-0.526237	-0.683932
C100	C	1.521448	-0.026237	-0.183932
C101	C	0.978179	-0.464537	-0.719282
C102	C	1.478179	0.035463	-0.219282
C103	C	0.978199	-0.464511	-0.795931
C104	C	1.478199	0.035489	-0.295931
C105	C	0.978218	-0.464495	-0.857023
C106	C	1.478218	0.035505	-0.357023
C107	C	0.978146	-0.464671	-0.150277
C108	C	1.478146	0.035329	0.349723
C109	C	0.978270	-0.464427	-0.075045
C110	C	1.478270	0.035573	0.424955
H111	H	0.364714	-0.576765	-0.404542
H112	H	0.864714	-0.076765	0.095458
O113	O	0.888337	-0.336184	-1.077849
O114	O	1.388337	0.163816	-0.577849
H115	H	0.853891	-0.379334	-1.110047
H116	H	1.353891	0.120666	-0.610047
O117	O	0.227137	-0.593100	-0.415985
O118	O	0.727137	-0.093100	0.084015
H119	H	0.172045	-0.582723	-0.408739
H120	H	0.672045	-0.082723	0.091261
O121	O	0.227110	-0.336308	-0.236352
O122	O	0.727110	0.163692	0.263648
H123	H	0.263557	-0.293338	-0.206309
H124	H	0.763557	0.206662	0.293691
O125	O	1.068189	-0.592689	-0.930882
O126	O	1.568189	-0.092689	-0.430882
H127	H	1.056579	-0.668391	-0.944442
H128	H	1.556579	-0.168391	-0.444442
H129	H	0.899728	-0.352554	-0.940251
H130	H	1.399728	0.147446	-0.440251
O131	O	0.374032	-0.336313	-0.236315
O132	O	0.874032	0.163687	0.263685
H133	H	0.360475	-0.260628	-0.248001
H134	H	0.860475	0.239372	0.251999
H135	H	1.056691	-0.576459	-0.712698
H136	H	1.556691	-0.076459	-0.212698
O137	O	0.582885	-0.336306	-0.236299
O138	O	1.082885	0.163694	0.263701
H139	H	0.527794	-0.346703	-0.243550
H140	H	1.027794	0.153297	0.256450
O141	O	1.068214	-0.592656	-1.077799
O142	O	1.568214	-0.092656	-0.577799
H143	H	1.060963	-0.582271	-1.132892
H144	H	1.560963	-0.082271	-0.632892
H145	H	0.899648	-0.352646	-0.584493
H146	H	1.399648	0.147354	-0.084493
O147	O	0.729813	-0.336285	-0.236299
O148	O	1.229813	0.163715	0.263701
H149	H	0.693359	-0.293346	-0.206249
H150	H	1.193359	0.206654	0.293751
O151	O	0.888243	-0.336294	-0.722071
O152	O	1.388243	0.163706	-0.222071
H153	H	0.835115	-0.352829	-0.708490
H154	H	1.335115	0.147171	-0.208490
O155	O	0.729824	-0.593057	-0.415934
O156	O	1.229824	-0.093057	0.084066
H157	H	0.693372	-0.636002	-0.445989
H158	H	1.193372	-0.136002	0.054011
O159	O	0.582892	-0.593252	-0.415816
O160	O	1.082892	-0.093252	0.084184
H161	H	0.619348	-0.636275	-0.445805
H162	H	1.119348	-0.136275	0.054195
O163	O	1.068097	-0.592810	-0.575110
O164	O	1.568097	-0.092810	-0.075110
H165	H	1.121225	-0.576253	-0.588676
H166	H	1.621225	-0.076253	-0.088676
