data_functionalizedCrystal
_audit_creation_method	'MofGen! by Chris Wilmer'
_symmetry_space_group_name_H-M	'P1'
_symmetry_Int_Tables_number	1
_symmetry_cell_setting	triclinic
loop_
_symmetry_equiv_pos_as_xyz
  x,y,z
_cell_length_a	18.101398
_cell_length_b	21.295417
_cell_length_c	18.101389
_cell_angle_alpha	90.021518
_cell_angle_beta	90.009745
_cell_angle_gamma	90.025259
loop_
_atom_site_label
_atom_site_type_symbol
_atom_site_fract_x
_atom_site_fract_y
_atom_site_fract_z
Zn1	Zn	1.132128	-0.250750	0.418535
Zn2	Zn	1.632128	0.249250	0.918535
Zn3	Zn	1.132027	-0.356003	0.294686
Zn4	Zn	1.632027	0.143997	0.794686
Zn5	Zn	1.008287	-0.250744	0.294727
Zn6	Zn	1.508287	0.249256	0.794727
Zn7	Zn	1.008241	-0.355977	0.418506
Zn8	Zn	1.508241	0.144023	0.918506
O9	O	1.070171	-0.303369	0.356614
O10	O	1.570171	0.196631	0.856614
O11	O	1.235748	-0.264726	0.402101
O12	O	1.735748	0.235274	0.902101
O13	O	1.115590	-0.342049	0.191059
O14	O	1.615590	0.157951	0.691059
O15	O	1.024776	-0.162655	0.311179
O16	O	1.524776	0.337345	0.811179
O17	O	1.235673	-0.342055	0.311110
O18	O	1.735673	0.157945	0.811110
O19	O	1.115762	-0.162660	0.402140
O20	O	1.615762	0.337340	0.902140
O21	O	1.024678	-0.264715	0.191089
O22	O	1.524678	0.235285	0.691089
O23	O	0.904648	-0.264690	0.311152
O24	O	1.404648	0.235310	0.811152
O25	O	1.024698	-0.342010	0.522143
O26	O	1.524698	0.157990	1.022143
O27	O	0.904614	-0.342004	0.402092
O28	O	1.404614	0.157996	0.902092
O29	O	1.115717	-0.264700	0.522164
O30	O	1.615717	0.235300	1.022164
O31	O	1.115545	-0.444089	0.311083
O32	O	1.615545	0.055911	0.811083
O33	O	1.024600	-0.444070	0.402053
O34	O	1.524600	0.055930	0.902053
C35	C	0.877760	-0.303344	0.356624
C36	C	1.377760	0.196656	0.856624
C37	C	0.795446	-0.303348	0.356646
C38	C	1.295446	0.196652	0.856646
C39	C	0.496355	-0.303385	0.356615
C40	C	0.996355	0.196615	0.856615
C41	C	0.527684	-0.352265	0.413550
C42	C	1.027684	0.147735	0.913550
C43	C	0.613302	-0.352112	0.413784
C44	C	1.113302	0.147888	0.913784
C45	C	0.644738	-0.303368	0.356630
C46	C	1.144738	0.196632	0.856630
C47	C	0.613681	-0.237068	0.377962
C48	C	1.113681	0.262932	0.877962
C49	C	0.528036	-0.237361	0.378367
C50	C	1.028036	0.262639	0.878367
C51	C	0.527903	-0.320222	0.278211
C52	C	1.027903	0.179778	0.778211
C53	C	0.613553	-0.321676	0.278630
C54	C	1.113553	0.178324	0.778630
C55	C	0.728597	-0.303353	0.356638
C56	C	1.228597	0.196647	0.856638
C57	C	0.412496	-0.303395	0.356609
C58	C	0.912496	0.196605	0.856609
C59	C	1.070076	-0.466920	0.356576
C60	C	1.570076	0.033080	0.856576
C61	C	1.070104	-0.536888	0.356585
C62	C	1.570104	-0.036888	0.856585
C63	C	1.117453	-0.569700	0.403982
C64	C	1.617453	-0.069700	0.903982
C65	C	1.117479	-0.635443	0.404000
C66	C	1.617479	-0.135443	0.904000
C67	C	1.070164	-0.668371	0.356608
C68	C	1.570164	-0.168371	0.856608
C69	C	1.022806	-0.635551	0.309208
C70	C	1.522806	-0.135551	0.809208
C71	C	1.022776	-0.569810	0.309196
C72	C	1.522776	-0.069810	0.809196
N73	N	1.064571	-0.771624	0.291797
N74	N	1.564571	-0.271624	0.791797
N75	N	1.064604	-0.834075	0.291810
N76	N	1.564604	-0.334075	0.791810
C77	C	1.070250	-0.866445	0.356642
C78	C	1.570250	-0.366445	0.856642
N79	N	1.075877	-0.834005	0.421461
N80	N	1.575877	-0.334005	0.921461
N81	N	1.075848	-0.771548	0.421447
N82	N	1.575848	-0.271548	0.921447
C83	C	1.070191	-0.739656	0.356616
C84	C	1.570191	-0.239656	0.856616
C85	C	1.117630	-0.970543	0.404063
C86	C	1.617630	-0.470543	0.904063
C87	C	1.117651	-1.036286	0.404082
C88	C	1.617651	-0.536286	0.904082
C89	C	1.022982	-1.036394	0.309283
C90	C	1.522982	-0.536394	0.809283
C91	C	1.022957	-0.970651	0.309270
C92	C	1.522957	-0.470651	0.809270
C93	C	1.070285	-0.937730	0.356659
C94	C	1.570285	-0.437730	0.856659
C95	C	1.263333	-0.303394	0.356604
C96	C	1.763333	0.196606	0.856604
C97	C	1.345647	-0.303405	0.356600
C98	C	1.845647	0.196595	0.856600
C99	C	1.070214	-0.303353	0.549776
C100	C	1.570214	0.196647	1.049776
C101	C	1.070232	-0.303346	0.632090
C102	C	1.570232	0.196654	1.132090
C103	C	1.070286	-0.139178	0.356668
C104	C	1.570286	0.360822	0.856668
C105	C	1.070335	-0.069210	0.356690
C106	C	1.570335	0.430790	0.856690
C107	C	1.070171	-0.303339	0.164203
C108	C	1.570171	0.196661	0.664203
C109	C	1.070296	-0.303168	0.081890
C110	C	1.570296	0.196832	0.581890
C111	C	1.070275	-0.303228	0.931181
C112	C	1.570275	0.196772	1.431181
C113	C	1.012811	-0.351714	0.899843
C114	C	1.512811	0.148286	1.399843
C115	C	1.012966	-0.351939	0.814224
C116	C	1.512966	0.148061	1.314224
C117	C	1.070253	-0.303286	0.782798
C118	C	1.570253	0.196714	1.282798
C119	C	1.148279	-0.321298	0.813883
C120	C	1.648279	0.178702	1.313883
C121	C	1.147959	-0.321617	0.899528
C122	C	1.647959	0.178383	1.399528
C123	C	1.050392	-0.236622	0.899615
C124	C	1.550392	0.263378	1.399615
C125	C	1.048656	-0.237006	0.813964
C126	C	1.548656	0.262994	1.313964
C127	C	1.070245	-0.303318	0.698939
C128	C	1.570245	0.196682	1.198939
C129	C	1.070288	-0.303197	1.015041
C130	C	1.570288	0.196803	1.515041
H131	H	0.633859	-0.370463	0.262542
H132	H	1.133859	0.129537	0.762542
Br133	Br	0.494761	-0.213559	0.473898
Br134	Br	0.994761	0.286441	0.973898
H135	H	0.984404	-0.943934	0.270672
H136	H	1.484404	-0.443934	0.770672
H137	H	1.156208	-1.063001	0.442682
H138	H	1.656208	-0.563001	0.942682
Br139	Br	0.647620	-0.174719	0.311007
Br140	Br	1.147620	0.325281	0.811007
Br141	Br	1.181746	-0.679983	0.468326
Br142	Br	1.681746	-0.179983	0.968326
H143	H	0.984280	-0.662365	0.270623
H144	H	1.484280	-0.162365	0.770623
Br145	Br	0.491868	-0.399415	0.245892
Br146	Br	0.991868	0.100585	0.745892
H147	H	0.634299	-0.401277	0.400413
H148	H	1.134299	0.098723	0.900413
Br149	Br	0.958509	-0.525276	0.244869
Br150	Br	1.458509	-0.025276	0.744869
Br151	Br	1.181858	-0.925860	0.468376
Br152	Br	1.681858	-0.425860	0.968376
Br153	Br	0.647481	-0.333547	0.510608
Br154	Br	1.147481	0.166453	1.010608
Br155	Br	1.120151	-0.176411	0.933392
Br156	Br	1.620151	0.323589	1.433392
Br157	Br	0.958763	-1.081075	0.244968
Br158	Br	1.458763	-0.581075	0.744968
Br159	Br	1.221693	-0.265271	0.934086
Br160	Br	1.721693	0.234729	1.434086
H161	H	0.954777	-0.340558	0.920444
H162	H	1.454777	0.159442	1.420444
H163	H	0.955107	-0.340667	0.793207
H164	H	1.455107	0.159333	1.293207
Br165	Br	0.493492	-0.174607	0.312268
Br166	Br	0.993492	0.325393	0.812268
Br167	Br	0.649453	-0.212831	0.472456
Br168	Br	1.149453	0.287169	0.972456
Br169	Br	1.034421	-0.433491	0.935770
Br170	Br	1.534421	0.066509	1.435770
H171	H	0.634952	-0.288659	0.233931
H172	H	1.134952	0.211341	0.733931
Br173	Br	0.494136	-0.260882	0.207505
Br174	Br	0.994136	0.239118	0.707505
Br175	Br	0.493322	-0.434481	0.391522
Br176	Br	0.993322	0.065519	0.891522
Br177	Br	1.034889	-0.434219	0.780068
Br178	Br	1.534889	0.065781	1.280068
Br179	Br	1.181680	-0.525024	0.468299
Br180	Br	1.681680	-0.025024	0.968299
H181	H	1.164814	-0.370307	0.919504
H182	H	1.664814	0.129693	1.419504
H183	H	1.192244	-0.287093	0.793528
H184	H	1.692244	0.212907	1.293528
Br185	Br	1.176863	-0.401589	0.778134
Br186	Br	1.676863	0.098411	1.278134
H187	H	0.994484	-0.220212	0.921216
H188	H	1.494484	0.279788	1.421216
H189	H	0.991235	-0.223423	0.793648
H190	H	1.491235	0.276577	1.293648
Br191	Br	1.113332	-0.173596	0.778322
Br192	Br	1.613332	0.326404	1.278322
H193	H	0.506173	-0.341268	0.471306
H194	H	1.006173	0.158732	0.971306
