data_functionalizedCrystal
_audit_creation_method	'MofGen! by Chris Wilmer'
_symmetry_space_group_name_H-M	'P1'
_symmetry_Int_Tables_number	1
_symmetry_cell_setting	triclinic
loop_
_symmetry_equiv_pos_as_xyz
  x,y,z
_cell_length_a	9.565339
_cell_length_b	11.792241
_cell_length_c	11.792241
_cell_angle_alpha	84.193416
_cell_angle_beta	90.000085
_cell_angle_gamma	90.000624
loop_
_atom_site_label
_atom_site_type_symbol
_atom_site_fract_x
_atom_site_fract_y
_atom_site_fract_z
O1	O	0.116125	-1.506908	-0.155560
O2	O	0.616125	-1.006908	0.344440
O3	O	0.116157	-1.176567	-0.171593
O4	O	0.616157	-0.676567	0.328407
O5	O	0.116130	-1.349754	0.001594
O6	O	0.616130	-0.849754	0.501594
O7	O	0.116152	-1.333721	-0.328747
O8	O	0.616152	-0.833721	0.171253
O9	O	-0.116390	-1.349740	0.001584
O10	O	0.383610	-0.849740	0.501584
O11	O	-0.116363	-1.176553	-0.171603
O12	O	0.383637	-0.676553	0.328397
O13	O	-0.116395	-1.506894	-0.155570
O14	O	0.383605	-1.006894	0.344430
Zn15	Zn	-0.153297	-1.341722	-0.163589
Zn16	Zn	0.346703	-0.841722	0.336411
Zn17	Zn	0.153059	-1.341740	-0.163574
Zn18	Zn	0.653059	-0.841740	0.336426
O19	O	-0.116368	-1.333707	-0.328757
O20	O	0.383632	-0.833707	0.171243
C21	C	-0.000099	-1.134269	-0.170591
C22	C	0.499901	-0.634269	0.329409
C23	C	-0.000086	-1.008255	-0.167576
C24	C	0.499914	-0.508255	0.332424
N25	N	-0.362376	-1.341718	-0.163598
N26	N	0.137624	-0.841718	0.336402
C27	C	-0.000129	-1.348740	0.043880
C28	C	0.499871	-0.848740	0.543880
C29	C	-0.000127	-1.345726	0.169894
C30	C	0.499873	-0.845726	0.669894
C31	C	-0.453567	-1.261600	-0.243664
C32	C	0.046433	-0.761600	0.256336
C33	C	-0.546754	-1.364301	-0.266319
C34	C	-0.046754	-0.864301	0.233681
C35	C	-0.546744	-1.239061	-0.140952
C36	C	-0.046744	-0.739061	0.359048
C37	C	-0.453512	-1.444471	-0.186304
C38	C	0.046488	-0.944471	0.313696
C39	C	-0.453493	-1.319163	-0.060892
C40	C	0.046507	-0.819163	0.439108
C41	C	-0.546639	-1.421938	-0.083503
C42	C	-0.046639	-0.921938	0.416497
N43	N	0.362138	-1.341753	-0.163556
N44	N	0.862138	-0.841753	0.336444
C45	C	-0.000136	-1.549192	-0.156572
C46	C	0.499864	-1.049192	0.343428
C47	C	-0.000139	-1.675206	-0.159587
C48	C	0.499861	-1.175206	0.340413
C49	C	-0.000127	-0.777543	-0.162034
C50	C	0.499873	-0.277543	0.337966
C51	C	-0.000105	-0.905928	-0.165113
C52	C	0.499895	-0.405928	0.334887
C53	C	-0.000106	-1.334721	-0.371043
C54	C	0.499894	-0.834721	0.128957
C55	C	-0.000098	-1.337736	-0.497057
C56	C	0.499902	-0.837736	0.002943
C57	C	-0.000103	-1.340183	0.400606
C58	C	0.499897	-0.840183	0.900606
C59	C	-0.000116	-1.343262	0.272221
C60	C	0.499884	-0.843262	0.772221
H61	H	-0.412701	-1.193909	-0.311436
H62	H	0.087299	-0.693909	0.188564
H63	H	-0.587248	-1.489780	-0.015773
H64	H	-0.087248	-0.989780	0.484227
H65	H	-0.412497	-1.300030	0.025919
H66	H	0.087503	-0.800030	0.525919
H67	H	-0.587718	-1.383402	-0.353157
H68	H	-0.087718	-0.883402	0.146843
H69	H	-0.412731	-1.531320	-0.205544
H70	H	0.087269	-1.031320	0.294456
H71	H	-0.587700	-1.152231	-0.121816
H72	H	-0.087700	-0.652231	0.378184
