data_functionalizedCrystal
_audit_creation_method	'MofGen! by Chris Wilmer'
_symmetry_space_group_name_H-M	'P1'
_symmetry_Int_Tables_number	1
_symmetry_cell_setting	triclinic
loop_
_symmetry_equiv_pos_as_xyz
  x,y,z
_cell_length_a	21.295418
_cell_length_b	16.625546
_cell_length_c	16.625539
_cell_angle_alpha	89.969603
_cell_angle_beta	89.960218
_cell_angle_gamma	90.038281
loop_
_atom_site_label
_atom_site_type_symbol
_atom_site_fract_x
_atom_site_fract_y
_atom_site_fract_z
Zn1	Zn	-0.962366	0.320660	0.456311
Zn2	Zn	-0.962291	0.455503	0.321473
Zn3	Zn	-0.857097	0.320725	0.321446
Zn4	Zn	-0.857074	0.455491	0.456218
O5	O	-0.909707	0.388095	0.388862
O6	O	-1.050446	0.338524	0.438475
O7	O	-0.948315	0.437657	0.208637
O8	O	-0.871102	0.207884	0.339364
O9	O	-1.050390	0.437593	0.339410
O10	O	-0.948443	0.207836	0.438449
O11	O	-0.871029	0.338636	0.208618
O12	O	-0.769004	0.338625	0.339274
O13	O	-0.871063	0.437573	0.569063
O14	O	-0.768987	0.437637	0.438290
O15	O	-0.948421	0.338513	0.569131
O16	O	-0.948292	0.568334	0.339320
O17	O	-0.870990	0.568325	0.438316
C18	C	-0.746155	0.388137	0.388769
C19	C	-0.676187	0.388175	0.388749
C20	C	-0.909647	0.597586	0.388828
C21	C	-0.909679	0.687207	0.388841
C22	C	-1.073897	0.388053	0.388956
C23	C	-1.143865	0.388035	0.388996
C24	C	-0.643328	0.439799	0.440230
C25	C	-0.577586	0.439779	0.440266
C26	C	-0.544705	0.388144	0.388807
C27	C	-0.577572	0.336510	0.337323
C28	C	-0.643313	0.336525	0.337294
N29	N	-0.441432	0.381847	0.318284
N30	N	-0.378980	0.381837	0.318314
C31	C	-0.346630	0.388092	0.388892
N32	N	-0.379090	0.394374	0.459441
N33	N	-0.441548	0.394388	0.459411
C34	C	-0.473419	0.388120	0.388833
C35	C	-0.242485	0.439697	0.440417
C36	C	-0.176742	0.439672	0.440454
C37	C	-0.176729	0.336407	0.337504
C38	C	-0.242471	0.336428	0.337474
C39	C	-0.275346	0.388078	0.388929
C40	C	-0.909748	0.388035	0.599171
C41	C	-0.909765	0.388009	0.688792
C42	C	-0.909784	0.177786	0.388914
C43	C	-0.909817	0.088165	0.388936
C44	C	-0.909789	1.015382	0.388925
C45	C	-0.909757	0.924074	0.388904
C46	C	-0.909734	0.851297	0.388883
C47	C	-0.909702	0.759983	0.388862
C48	C	-0.909702	0.388096	0.179371
C49	C	-0.909807	0.387895	0.089751
C50	C	-0.909794	0.387919	1.016968
C51	C	-0.909785	0.387947	0.925660
C52	C	-0.909780	0.387965	0.852883
C53	C	-0.909770	0.387991	0.761569
H54	H	-0.670090	0.481855	0.482130
C55	C	-0.140568	0.279605	0.280899
C56	C	-0.068255	0.279582	0.280929
C57	C	-0.032091	0.222775	0.224325
C58	C	-0.068240	0.165991	0.167692
C59	C	-0.140557	0.166011	0.167660
C60	C	-0.176721	0.222818	0.224263
H61	H	-0.041492	0.321620	0.322854
H62	H	0.021443	0.222761	0.224349
H63	H	-0.041469	0.123939	0.125790
H64	H	-0.167320	0.123973	0.125734
H65	H	-0.230255	0.222832	0.224240
C66	C	-0.140594	0.496460	0.497089
C67	C	-0.176758	0.553269	0.553684
C68	C	-0.140609	0.610058	0.610319
C69	C	-0.068297	0.610038	0.610361
C70	C	-0.032128	0.553227	0.553764
C71	C	-0.068277	0.496438	0.497128
H72	H	-0.230292	0.553286	0.553655
H73	H	-0.167384	0.652114	0.652216
H74	H	-0.041537	0.652077	0.652286
H75	H	0.021405	0.553210	0.553792
H76	H	-0.041503	0.454382	0.455231
H77	H	-0.670066	0.294484	0.295372
H78	H	-0.269226	0.294394	0.295548
H79	H	-0.550827	0.481817	0.482190
H80	H	-0.269253	0.481749	0.482319
C81	C	-0.541406	0.279711	0.280716
C82	C	-0.469093	0.279695	0.280741
C83	C	-0.432928	0.222891	0.224135
C84	C	-0.469076	0.166104	0.167503
C85	C	-0.541393	0.166118	0.167476
C86	C	-0.577558	0.222921	0.224082
H87	H	-0.442331	0.321735	0.322664
H88	H	-0.379394	0.222881	0.224155
H89	H	-0.442304	0.124054	0.125600
H90	H	-0.568155	0.124078	0.125552
H91	H	-0.631091	0.222931	0.224062
