data_functionalizedCrystal
_audit_creation_method	'MofGen! by Chris Wilmer'
_symmetry_space_group_name_H-M	'P1'
_symmetry_Int_Tables_number	1
_symmetry_cell_setting	triclinic
loop_
_symmetry_equiv_pos_as_xyz
  x,y,z
_cell_length_a	17.699083
_cell_length_b	9.565339
_cell_length_c	17.699083
_cell_angle_alpha	90.000658
_cell_angle_beta	96.716985
_cell_angle_gamma	90.002916
loop_
_atom_site_label
_atom_site_type_symbol
_atom_site_fract_x
_atom_site_fract_y
_atom_site_fract_z
O1	O	-1.004075	0.116053	0.095706
O2	O	-0.504075	0.616053	0.595706
O3	O	-0.783697	0.116102	0.108158
O4	O	-0.283697	0.616102	0.608158
O5	O	-0.900112	0.116064	-0.008257
O6	O	-0.400112	0.616064	0.491743
O7	O	-0.887660	0.116091	0.212121
O8	O	-0.387660	0.616091	0.712121
O9	O	-0.900103	-0.116456	-0.008250
O10	O	-0.400103	0.383544	0.491750
O11	O	-0.783688	-0.116418	0.108166
O12	O	-0.283688	0.383582	0.608166
O13	O	-1.004066	-0.116467	0.095713
O14	O	-0.504066	0.383533	0.595713
Zn15	Zn	-0.893876	-0.153360	0.101940
Zn16	Zn	-0.393876	0.346640	0.601940
Zn17	Zn	-0.893888	0.152995	0.101931
Zn18	Zn	-0.393888	0.652995	0.601931
O19	O	-0.887651	-0.116429	0.212128
O20	O	-0.387651	0.383571	0.712128
C21	C	-0.755495	-0.000152	0.107716
C22	C	-0.255495	0.499848	0.607716
C23	C	-0.671477	-0.000133	0.106377
C24	C	-0.171477	0.499867	0.606377
N25	N	-0.893873	-0.362440	0.101946
N26	N	-0.393873	0.137560	0.601946
C27	C	-0.622856	-0.000125	0.174710
C28	C	-0.122856	0.499875	0.674710
C29	C	-0.543913	-0.000142	0.173448
C30	C	-0.043913	0.499858	0.673448
C31	C	-0.513592	-0.000158	0.103852
C32	C	-0.013592	0.499842	0.603852
C33	C	-0.562219	-0.000171	0.035513
C34	C	-0.062219	0.499829	0.535513
C35	C	-0.641161	-0.000164	0.036776
C36	C	-0.141161	0.499836	0.536776
C37	C	-0.243856	-0.000201	0.030418
C38	C	0.256144	0.499799	0.530418
C39	C	-0.164908	-0.000204	0.029160
C40	C	0.335092	0.499796	0.529160
C41	C	-0.146608	-0.000180	0.167090
C42	C	0.353392	0.499820	0.667090
C43	C	-0.225550	-0.000173	0.168353
C44	C	0.274450	0.499827	0.668353
C45	C	-0.274170	-0.000193	0.100015
C46	C	0.225830	0.499807	0.600015
C47	C	-0.359769	-0.000177	0.101384
C48	C	0.140231	0.499823	0.601384
C49	C	-0.427995	-0.000164	0.102481
C50	C	0.072005	0.499836	0.602481
C51	C	-0.840018	-0.453625	0.155767
C52	C	-0.340018	0.046375	0.655767
C53	C	-0.908386	-0.546817	0.170327
C54	C	-0.408386	-0.046817	0.670327
C55	C	-0.825535	-0.546803	0.087392
C56	C	-0.325535	-0.046803	0.587392
C57	C	-0.962274	-0.453580	0.116541
C58	C	-0.462274	0.046420	0.616541
C59	C	-0.879379	-0.453557	0.033576
C60	C	-0.379379	0.046443	0.533576
C61	C	-0.947796	-0.546708	0.048107
C62	C	-0.447796	-0.046708	0.548107
C63	C	-0.032268	-0.000207	0.096156
C64	C	0.467732	0.499793	0.596156
C65	C	-0.116286	-0.000206	0.097494
C66	C	0.383714	0.499794	0.597494
C67	C	-0.899662	-0.000196	-0.036451
C68	C	-0.399662	0.499804	0.463549
C69	C	-0.898323	-0.000197	-0.120469
C70	C	-0.398323	0.499803	0.379531
N71	N	-0.893896	0.362074	0.101919
N72	N	-0.393896	0.862074	0.601919
C73	C	-0.966656	-0.000214	-0.169090
C74	C	-0.466656	0.499786	0.330910
C75	C	-0.965394	-0.000201	-0.248033
C76	C	-0.465394	0.499799	0.251967
C77	C	-0.895798	-0.000181	-0.278354
C78	C	-0.395798	0.499819	0.221646
C79	C	-0.827459	-0.000160	-0.229727
C80	C	-0.327459	0.499840	0.270273
C81	C	-0.828722	-0.000163	-0.150785
C82	C	-0.328722	0.499837	0.349215
C83	C	-0.822364	-0.000148	-0.548090
C84	C	-0.322364	0.499852	-0.048090
C85	C	-0.821106	-0.000149	-0.627038
C86	C	-0.321106	0.499851	-0.127038
C87	C	-0.959036	-0.000186	-0.645338
C88	C	-0.459036	0.499814	-0.145338
C89	C	-0.960299	-0.000189	-0.566396
C90	C	-0.460299	0.499811	-0.066396
C91	C	-0.891961	-0.000160	-0.517776
C92	C	-0.391961	0.499840	-0.017776
C93	C	-0.893330	-0.000171	-0.432177
C94	C	-0.393330	0.499829	0.067823
C95	C	-0.894427	-0.000180	-0.363951
C96	C	-0.394427	0.499820	0.136049
C97	C	-0.888102	-0.000166	0.240322
C98	C	-0.388102	0.499834	0.740322
C99	C	-0.889440	-0.000156	0.324340
C100	C	-0.389440	0.499844	0.824340
H101	H	-0.647537	-0.000111	0.231384
H102	H	-0.147537	0.499889	0.731384
H103	H	-0.770792	-0.000135	-0.254420
H104	H	-0.270792	0.499865	0.245580
H105	H	-1.021038	-0.000218	-0.287618
H106	H	-0.521038	0.499782	0.212382
H107	H	-0.504328	-0.000133	0.229092
H108	H	-0.004328	0.499867	0.729092
H109	H	-1.023330	-0.000239	-0.144409
H110	H	-0.523330	0.499761	0.355591
Cl111	Cl	-0.769768	-0.390514	0.226098
Cl112	Cl	-0.269768	0.109486	0.726098
H113	H	-0.773078	-0.000148	-0.111198
H114	H	-0.273078	0.499852	0.388802
H115	H	-0.680748	-0.000170	-0.018868
H116	H	-0.180748	0.499830	0.481132
H117	H	-0.250232	-0.000153	0.225025
H118	H	0.249768	0.499847	0.725025
H119	H	-0.107012	-0.000171	0.222734
H120	H	0.392988	0.499829	0.722734
H121	H	-0.140225	-0.000219	-0.027517
H122	H	0.359775	0.499781	0.472483
H123	H	-0.283434	-0.000219	-0.025228
H124	H	0.216566	0.499781	0.474772
H125	H	-0.993398	-0.587321	0.002578
H126	H	-0.493398	-0.087321	0.502578
Cl127	Cl	-0.733606	-0.000121	-0.665153
Cl128	Cl	-0.233606	0.499879	-0.165153
Cl129	Cl	-0.736295	-0.610029	0.068402
Cl130	Cl	-0.236295	-0.110029	0.568402
Cl131	Cl	-0.524102	-0.000199	-0.051980
Cl132	Cl	-0.024102	0.499801	0.448020
H133	H	-1.016971	-0.000212	-0.541714
H134	H	-0.516971	0.499788	-0.041714
Cl135	Cl	-0.927339	-0.610065	0.259576
Cl136	Cl	-0.427339	-0.110065	0.759576
H137	H	-1.020089	-0.412803	0.128909
H138	H	-0.520089	0.087197	0.628909
H139	H	-0.867083	-0.412562	-0.024213
H140	H	-0.367083	0.087438	0.475787
H141	H	-1.014680	-0.000202	-0.684934
H142	H	-0.514680	0.499798	-0.184934
H143	H	-0.766718	-0.000124	-0.508512
H144	H	-0.266718	0.499876	-0.008512
