data_functionalizedCrystal
_audit_creation_method	'MofGen! by Chris Wilmer'
_symmetry_space_group_name_H-M	'P1'
_symmetry_Int_Tables_number	1
_symmetry_cell_setting	triclinic
loop_
_symmetry_equiv_pos_as_xyz
  x,y,z
_cell_length_a	12.594516
_cell_length_b	12.594517
_cell_length_c	12.594509
_cell_angle_alpha	90.025818
_cell_angle_beta	89.972932
_cell_angle_gamma	89.986890
loop_
_atom_site_label
_atom_site_type_symbol
_atom_site_fract_x
_atom_site_fract_y
_atom_site_fract_z
Zn1	Zn	-0.423854	-1.627251	-0.601996
Zn2	Zn	-0.601864	-1.627136	-0.424021
Zn3	Zn	-0.423884	-1.449255	-0.424011
Zn4	Zn	-0.601775	-1.449231	-0.601937
O5	O	-0.512844	-1.538218	-0.512991
O6	O	-0.447492	-1.776182	-0.578416
O7	O	-0.578305	-1.603501	-0.275074
O8	O	-0.274934	-1.472925	-0.447642
O9	O	-0.578275	-1.776097	-0.447659
O10	O	-0.274912	-1.603698	-0.578406
O11	O	-0.447544	-1.472813	-0.275067
O12	O	-0.447457	-1.300306	-0.447584
O13	O	-0.578123	-1.472884	-0.750891
O14	O	-0.578153	-1.300288	-0.578306
O15	O	-0.447405	-1.603675	-0.750934
O16	O	-0.750798	-1.603478	-0.447602
O17	O	-0.750733	-1.472772	-0.578316
C18	C	-0.512799	-1.261677	-0.512938
C19	C	-0.512806	-1.143372	-0.512941
C20	C	-0.441618	-1.074098	-0.441972
C21	C	-0.538700	-1.003283	-0.415788
C22	C	-0.415753	-1.003387	-0.539126
C23	C	-0.609940	-1.074115	-0.486707
C24	C	-0.486927	-1.074226	-0.610090
C25	C	-0.584077	-1.003444	-0.583943
C26	C	-0.789385	-1.538138	-0.512977
C27	C	-0.907691	-1.538201	-0.513006
C28	C	-1.047710	-1.467168	-0.584066
C29	C	-0.976808	-1.564203	-0.610188
C30	C	-0.977022	-1.441176	-0.486931
C31	C	-1.047573	-1.635461	-0.539218
C32	C	-1.047794	-1.512369	-0.415917
C33	C	-0.976923	-1.609471	-0.442002
C34	C	-0.235223	-1.538328	-0.513029
C35	C	-0.116918	-1.538374	-0.513046
C36	C	-0.512751	-1.538290	-0.790612
C37	C	-0.512711	-1.538320	-0.908918
C38	C	-0.512869	-0.815839	-0.513026
C39	C	-0.512825	-0.934144	-0.512990
C40	C	-0.583768	-1.467205	-0.978148
C41	C	-0.609783	-1.564325	-1.048946
C42	C	-0.486632	-1.441276	-1.048919
C43	C	-0.538777	-1.635490	-0.978158
C44	C	-0.415581	-1.512376	-0.978124
C45	C	-0.441559	-1.609563	-1.048891
C46	C	-0.512860	-1.538208	-0.236450
C47	C	-0.512600	-1.538384	-0.118146
H48	H	-0.560605	-0.972123	-0.333652
H49	H	-0.381482	-1.105121	-0.381888
N50	N	-1.088899	-1.387610	-0.663699
H51	H	-1.133121	-1.332351	-0.625931
H52	H	-1.027054	-1.352002	-0.700275
H53	H	-0.644356	-0.972616	-0.643981
N54	N	-0.718697	-1.115088	-0.457251
H55	H	-0.767960	-1.053199	-0.443965
H56	H	-0.747476	-1.159844	-0.517246
H57	H	-1.078995	-1.490412	-0.333818
H58	H	-0.333511	-1.490369	-0.946993
N59	N	-0.935968	-1.332394	-0.457683
H60	H	-0.961722	-1.278734	-0.511396
H61	H	-0.962913	-1.312365	-0.384836
N62	N	-0.457885	-1.115534	-0.718860
H63	H	-0.384513	-1.089853	-0.738560
H64	H	-0.458843	-1.195715	-0.718122
N65	N	-0.307030	-0.962224	-0.568442
H66	H	-0.253312	-0.987925	-0.514762
H67	H	-0.287014	-0.989146	-0.641301
H68	H	-0.945630	-1.586132	-0.692311
H69	H	-0.560881	-1.717610	-0.947206
N70	N	-1.088447	-1.744282	-0.568574
H71	H	-1.026513	-1.793500	-0.581822
H72	H	-1.133169	-1.773046	-0.508545
N73	N	-0.457469	-1.332538	-1.090098
H74	H	-0.511238	-1.278859	-1.064364
H75	H	-0.384648	-1.312457	-1.063221
N76	N	-0.663479	-1.387606	-0.936991
H77	H	-0.736791	-1.407372	-0.962753
H78	H	-0.662386	-1.387702	-0.856809
N79	N	-0.936002	-1.689219	-0.362422
H80	H	-0.961802	-1.762508	-0.382270
H81	H	-0.855818	-1.688189	-0.362438
N82	N	-0.718520	-1.593448	-1.090155
H83	H	-0.772189	-1.539665	-1.064428
H84	H	-0.717400	-1.593952	-1.170337
N85	N	-0.361910	-1.689346	-1.089806
H86	H	-0.381707	-1.762611	-1.063933
H87	H	-0.361915	-1.688396	-1.169990
