data_functionalizedCrystal
_audit_creation_method	'MofGen! by Chris Wilmer'
_symmetry_space_group_name_H-M	'P1'
_symmetry_Int_Tables_number	1
_symmetry_cell_setting	triclinic
loop_
_symmetry_equiv_pos_as_xyz
  x,y,z
_cell_length_a	10.723023
_cell_length_b	17.000371
_cell_length_c	9.198806
_cell_angle_alpha	89.996361
_cell_angle_beta	89.996191
_cell_angle_gamma	80.033398
loop_
_atom_site_label
_atom_site_type_symbol
_atom_site_fract_x
_atom_site_fract_y
_atom_site_fract_z
O1	O	1.643449	0.111564	-0.120889
O2	O	1.278981	0.122243	-0.120893
O3	O	1.483846	0.001161	-0.120881
O4	O	1.438585	0.232646	-0.120902
O5	O	1.483831	0.001160	0.120904
O6	O	1.278966	0.122243	0.120892
O7	O	1.643434	0.111563	0.120896
Cu8	Cu	1.461199	0.116903	0.142971
Cu9	Cu	1.461217	0.116903	-0.142968
O10	O	1.438570	0.232646	0.120883
C11	C	1.232570	0.121466	-0.000001
C12	C	1.094302	0.119141	-0.000002
C13	C	1.486269	-0.028480	0.000011
C14	C	1.493498	-0.116799	0.000010
C15	C	1.032666	0.118105	-0.125255
C16	C	0.889759	0.115702	-0.125259
C17	C	1.382253	-0.149432	0.000002
C18	C	1.389053	-0.232418	0.000006
C19	C	1.507099	-0.282769	0.000008
C20	C	1.618353	-0.250132	0.000020
C21	C	1.611552	-0.167147	0.000026
C22	C	1.533370	-0.533772	-0.000002
C23	C	1.540162	-0.616762	-0.000013
C24	C	1.310862	-0.599042	-0.000023
C25	C	1.304071	-0.516057	-0.000025
C26	C	1.415324	-0.483426	-0.000006
C27	C	1.514053	-0.367594	0.000007
C28	C	1.408370	-0.398602	0.000005
C29	C	1.689846	0.112340	0.000000
C30	C	1.828114	0.114665	-0.000008
C31	C	1.436146	0.262287	-0.000012
C32	C	1.428917	0.350606	-0.000020
N33	N	1.461195	0.116902	0.344085
N34	N	1.461231	0.116898	-0.344082
C35	C	1.547240	0.065839	0.416287
C36	C	1.547259	0.065836	0.583699
H37	H	0.836754	0.114809	-0.232492
O38	O	0.891319	0.115585	0.127971
C39	C	0.881302	0.046291	0.208222
H40	H	0.860659	-0.002378	0.131161
H41	H	0.974075	0.024643	0.267884
H42	H	0.801074	0.060574	0.290513
H43	H	1.041271	0.118254	0.107228
O44	O	1.635103	0.013568	0.657604
C45	C	1.623122	-0.065254	0.620558
H46	H	1.575107	-0.065405	0.510018
H47	H	1.721029	-0.104044	0.615490
H48	H	1.563542	-0.090050	0.706206
O49	O	1.293673	-0.349729	0.000257
C50	C	1.225551	-0.364632	0.125449
H51	H	1.294484	-0.392634	0.212982
H52	H	1.169076	-0.306039	0.167477
H53	H	1.158008	-0.407272	0.097123
O54	O	1.373508	0.169093	0.581705
C55	C	1.435218	0.218393	0.493674
H56	H	1.536199	0.187104	0.471000
H57	H	1.381901	0.230712	0.386591
H58	H	1.437455	0.277230	0.552242
H59	H	1.298465	-0.258983	-0.000010
O60	O	1.096023	0.119278	-0.253092
C61	C	1.149474	0.189325	-0.260882
H62	H	1.161569	0.212578	-0.146419
H63	H	1.245774	0.175397	-0.316518
H64	H	1.084303	0.236640	-0.326008
O65	O	1.267478	-0.100638	0.000062
C66	C	1.170750	-0.147240	0.000020
H67	H	1.209208	-0.208992	0.045794
H68	H	1.088595	-0.117073	0.070215
H69	H	1.136231	-0.153338	-0.115978
H70	H	1.620888	0.022120	0.354165
O71	O	1.373160	0.168977	0.418121
C72	C	1.250984	0.155583	0.381034
H73	H	1.257045	0.091934	0.339099
H74	H	1.187506	0.164421	0.481211
H75	H	1.209606	0.199562	0.292805
H76	H	1.207945	-0.475065	-0.000031
H77	H	1.610166	-0.408600	0.000006
O78	O	1.202886	-0.630835	-0.000224
C79	C	1.199946	-0.678284	-0.125467
H80	H	1.300507	-0.698405	-0.167218
H81	H	1.156203	-0.732891	-0.097306
H82	H	1.140751	-0.641927	-0.213150
O83	O	1.654942	-0.665561	0.000053
C84	C	1.751681	-0.618967	0.000033
H85	H	1.713228	-0.557220	0.045822
H86	H	1.833822	-0.649149	0.070226
H87	H	1.786218	-0.612855	-0.115960
H88	H	1.623960	-0.507215	0.000010
H89	H	1.714468	-0.291135	0.000030
O90	O	1.719738	-0.135577	-0.000041
C91	C	1.825389	-0.197811	-0.000009
H92	H	1.796629	-0.254366	-0.045788
H93	H	1.903611	-0.180024	-0.070204
H94	H	1.861358	-0.209365	0.115987
