data_functionalizedCrystal
_audit_creation_method	'MofGen! by Chris Wilmer'
_symmetry_space_group_name_H-M	'P1'
_symmetry_Int_Tables_number	1
_symmetry_cell_setting	triclinic
loop_
_symmetry_equiv_pos_as_xyz
  x,y,z
_cell_length_a	10.540539
_cell_length_b	10.654550
_cell_length_c	9.130313
_cell_angle_alpha	90.000110
_cell_angle_beta	89.998199
_cell_angle_gamma	84.505197
loop_
_atom_site_label
_atom_site_type_symbol
_atom_site_fract_x
_atom_site_fract_y
_atom_site_fract_z
O1	O	-1.685816	-0.176986	-0.121726
O2	O	-1.316397	-0.193663	-0.121744
O3	O	-1.509601	-0.002588	-0.121729
O4	O	-1.492613	-0.368061	-0.121741
O5	O	-1.509598	-0.002593	0.121870
O6	O	-1.316395	-0.193668	0.121855
O7	O	-1.685814	-0.176992	0.121873
Cu8	Cu	-1.501104	-0.185330	0.144106
Cu9	Cu	-1.501107	-0.185324	-0.143978
O10	O	-1.492611	-0.368066	0.121858
C11	C	-1.508352	0.044208	0.000068
C12	C	-1.504620	0.183652	0.000063
C13	C	-1.269094	-0.192415	0.000053
C14	C	-1.128147	-0.188673	0.000046
C15	C	-1.733118	-0.178240	0.000072
C16	C	-1.874064	-0.181981	0.000069
C17	C	-0.944772	-0.045302	0.000620
C18	C	-1.091388	-0.049095	0.000055
C19	C	-1.066451	-0.255841	-0.139057
C20	C	-0.919909	-0.251077	-0.139158
C21	C	-0.919416	-0.253923	0.137859
C22	C	-1.066398	-0.255208	0.139682
C23	C	-1.493859	-0.414862	0.000057
C24	C	-1.497591	-0.554306	0.000053
N25	N	-1.501112	-0.185334	0.346729
C26	C	-1.618375	0.263098	0.000073
C27	C	-1.614861	0.394120	0.000063
C28	C	-1.383827	0.366238	0.000039
C29	C	-1.387343	0.235218	0.000038
C30	C	-1.751761	0.279196	0.000093
C31	C	-1.748247	0.410218	0.000083
N32	N	-1.501110	-0.185311	-0.346600
C33	C	-1.586684	-0.100755	0.423387
C34	C	-1.586681	-0.100740	0.576724
C35	C	-1.415528	-0.269893	0.576731
C36	C	-1.415526	-0.269901	0.423397
C37	C	-1.685501	-0.003099	0.423385
C38	C	-1.685498	-0.003084	0.576722
H39	H	-0.916205	0.009838	0.100379
H40	H	-1.788559	0.455849	-0.105095
C41	C	-1.321370	-0.362893	0.661063
H42	H	-1.270393	-0.413253	0.593442
H43	H	-1.367460	-0.415617	0.720905
H44	H	-1.268139	-0.317168	0.720850
H45	H	-1.798504	0.451959	0.102029
H46	H	-1.345836	-0.338761	0.360983
H47	H	-1.663827	0.093441	0.381767
C48	C	-1.099069	-0.392681	0.151030
H49	H	-1.151018	-0.411385	0.070390
H50	H	-1.143662	-0.403713	0.239811
H51	H	-1.022672	-0.447765	0.149856
H52	H	-1.654656	0.088149	0.624270
H53	H	-1.777668	-0.033720	0.375830
H54	H	-1.783050	-0.024637	0.618342
C55	C	-0.903991	0.028887	-0.133379
H56	H	-0.844065	-0.023075	-0.189662
H57	H	-0.866145	0.101513	-0.101384
H58	H	-0.976611	0.053970	-0.191780
H59	H	-1.794235	0.243552	0.105276
H60	H	-1.288344	0.408239	0.000017
C61	C	-0.881811	-0.184005	-0.279614
H62	H	-0.792093	-0.180514	-0.280918
H63	H	-0.923222	-0.100820	-0.281780
H64	H	-0.906602	-0.229323	-0.362804
H65	H	-1.133154	0.004133	-0.099829
C66	C	-1.148988	0.022301	0.134758
H67	H	-1.082785	0.053896	0.190315
H68	H	-1.192366	-0.033438	0.193600
H69	H	-1.207330	0.090516	0.103457
C70	C	-1.096607	-0.394307	-0.146083
H71	H	-1.058401	-0.433129	-0.231007
H72	H	-1.186290	-0.397498	-0.150264
H73	H	-1.063714	-0.437724	-0.061316
C74	C	-0.855577	-0.390116	0.139127
H75	H	-0.801538	-0.403123	0.056143
H76	H	-0.919251	-0.447411	0.136063
H77	H	-0.806530	-0.403825	0.225946
C78	C	-1.822229	0.239503	-0.137613
H79	H	-1.848813	0.312087	-0.194255
H80	H	-1.894662	0.198695	-0.109294
H81	H	-1.766665	0.183249	-0.194260
C82	C	-0.855051	-0.386676	-0.147730
H83	H	-0.918298	-0.444427	-0.151146
H84	H	-0.802872	-0.403548	-0.063855
H85	H	-0.803989	-0.395711	-0.233517
C86	C	-1.123996	-0.192813	-0.278913
H87	H	-1.086054	-0.234131	-0.362509
H88	H	-1.108124	-0.106546	-0.280161
H89	H	-1.213319	-0.198896	-0.280358
C90	C	-0.876837	-0.192906	0.280304
H91	H	-0.905165	-0.237740	0.362114
H92	H	-0.912567	-0.107683	0.284579
H93	H	-0.786498	-0.195668	0.282102
C94	C	-1.121725	-0.188913	0.278711
H95	H	-1.083993	-0.229588	0.362807
H96	H	-1.211318	-0.193080	0.281277
H97	H	-1.103976	-0.103164	0.277826
H98	H	-1.294712	0.170537	0.000010
