data_functionalizedCrystal
_audit_creation_method	'MofGen! by Chris Wilmer'
_symmetry_space_group_name_H-M	'P1'
_symmetry_Int_Tables_number	1
_symmetry_cell_setting	triclinic
loop_
_symmetry_equiv_pos_as_xyz
  x,y,z
_cell_length_a	14.971506
_cell_length_b	12.811415
_cell_length_c	14.048226
_cell_angle_alpha	84.562719
_cell_angle_beta	89.993237
_cell_angle_gamma	83.833801
loop_
_atom_site_label
_atom_site_type_symbol
_atom_site_fract_x
_atom_site_fract_y
_atom_site_fract_z
O1	O	1.187321	0.136885	-0.090982
O2	O	1.687321	0.636885	0.409018
O3	O	0.926970	0.153243	-0.092395
O4	O	1.426970	0.653243	0.407605
O5	O	1.063695	-0.007720	-0.078495
O6	O	1.563695	0.492280	0.421505
O7	O	1.050596	0.297848	-0.104882
O8	O	1.550596	0.797848	0.395118
O9	O	1.063678	-0.007730	0.079827
O10	O	1.563678	0.492270	0.579827
O11	O	0.926953	0.153234	0.065928
O12	O	1.426953	0.653234	0.565928
O13	O	1.187305	0.136876	0.067340
O14	O	1.687305	0.636876	0.567340
Zn15	Zn	1.057126	0.145053	0.091771
Zn16	Zn	1.557126	0.645053	0.591771
Zn17	Zn	1.057148	0.145066	-0.116825
Zn18	Zn	1.557148	0.645066	0.383175
O19	O	1.050580	0.297839	0.053440
O20	O	1.550580	0.797839	0.553440
C21	C	0.893635	0.152503	-0.013170
C22	C	1.393635	0.652503	0.486830
C23	C	0.794333	0.150299	-0.012980
C24	C	1.294333	0.650299	0.487020
C25	C	0.356293	0.236453	-0.020429
C26	C	0.856293	0.736453	0.479571
C27	C	0.449599	0.238515	-0.020611
C28	C	0.949599	0.738515	0.479389
C29	C	0.506552	0.143943	-0.012441
C30	C	1.006552	0.643943	0.487559
C31	C	0.470196	0.047302	-0.004097
C32	C	0.970196	0.547302	0.495903
C33	C	0.376891	0.045241	-0.003921
C34	C	0.876891	0.545241	0.496079
C35	C	0.664671	0.051605	-0.004460
C36	C	1.164671	0.551605	0.495540
C37	C	0.757982	0.053666	-0.004634
C38	C	1.257982	0.553666	0.495366
C39	C	0.737378	0.244879	-0.021150
C40	C	1.237378	0.744879	0.478850
C41	C	0.644074	0.242818	-0.020975
C42	C	1.144074	0.742818	0.479025
C43	C	0.607724	0.146177	-0.012629
C44	C	1.107724	0.646177	0.487371
C45	C	1.062952	-0.046830	0.004041
C46	C	1.562952	0.453170	0.504041
C47	C	1.060753	-0.163352	0.014097
C48	C	1.560753	0.336648	0.514097
C49	C	1.056623	-0.382286	-0.139629
C50	C	1.556623	0.117714	0.360371
C51	C	1.054557	-0.491769	-0.130186
C52	C	1.554557	0.008231	0.369814
C53	C	1.054549	-0.491800	0.042428
C54	C	1.554549	0.008200	0.542428
C55	C	1.056615	-0.382317	0.032984
C56	C	1.556615	0.117683	0.532984
C57	C	1.057653	-0.327565	-0.058048
C58	C	1.557653	0.172435	0.441952
C59	C	1.059726	-0.218081	-0.067491
C60	C	1.559726	0.281919	0.432509
C61	C	1.059711	-0.218114	0.105122
C62	C	1.559711	0.281886	0.605122
C63	C	1.057645	-0.327596	0.114566
C64	C	1.557645	0.172404	0.614566
C65	C	1.220639	0.137616	-0.011887
C66	C	1.720639	0.637616	0.488113
C67	C	1.319942	0.139819	-0.012083
C68	C	1.819942	0.639819	0.487917
C69	C	1.051322	0.336949	-0.029098
C70	C	1.551322	0.836949	0.470902
C71	C	1.053521	0.453471	-0.039160
C72	C	1.553521	0.953471	0.460840
N73	N	1.057118	0.145044	0.234132
N74	N	1.557118	0.645044	0.734132
N75	N	1.057163	0.145067	-0.259186
N76	N	1.557163	0.645067	0.240814
C77	C	1.117679	0.073799	0.290103
C78	C	1.617679	0.573799	0.790103
C79	C	1.117685	0.073798	0.389760
C80	C	1.617685	0.573798	0.889760
C81	C	1.057134	0.145049	0.433445
C82	C	1.557134	0.645049	0.933445
C83	C	0.996566	0.216297	0.377468
C84	C	1.496566	0.716297	0.877468
C85	C	0.996557	0.216292	0.277813
C86	C	1.496557	0.716292	0.777813
C87	C	0.996592	0.216305	0.585181
C88	C	1.496592	0.716305	1.085181
C89	C	0.996602	0.216312	0.684844
C90	C	1.496602	0.716312	1.184844
C91	C	1.117720	0.073811	0.697129
C92	C	1.617720	0.573811	1.197129
C93	C	1.117711	0.073806	0.597474
C94	C	1.617711	0.573806	1.097474
C95	C	1.057144	0.145056	0.541503
C96	C	1.557144	0.645056	1.041503
H97	H	0.635079	-0.027090	0.002331
H98	H	1.135079	0.472910	0.502331
Br99	Br	0.327557	-0.085909	0.007402
Br100	Br	0.827557	0.414091	0.507402
Br101	Br	0.498928	0.369666	-0.031948
Br102	Br	0.998928	0.869666	0.468052
Br103	Br	1.053107	-0.566120	0.165960
Br104	Br	1.553107	-0.066120	0.665960
H105	H	1.060553	-0.173548	0.171552
H106	H	1.560553	0.326452	0.671552
H107	H	1.056796	-0.372190	0.188681
H108	H	1.556796	0.127810	0.688681
Br109	Br	1.199867	-0.022896	0.230826
Br110	Br	1.699867	0.477104	0.730826
Br111	Br	1.061141	-0.143775	-0.191031
Br112	Br	1.561141	0.356225	0.308969
H113	H	1.167035	0.015797	0.742707
H114	H	1.667035	0.515797	1.242707
H115	H	1.166998	0.015785	0.435331
H116	H	1.666998	0.515785	0.935331
H117	H	1.053715	-0.536318	-0.196618
H118	H	1.553715	-0.036318	0.303382
Br119	Br	1.199895	-0.022881	0.538183
Br120	Br	1.699895	0.477119	1.038183
Br121	Br	1.058051	-0.307976	-0.263167
Br122	Br	1.558051	0.192024	0.236833
Br123	Br	0.835276	-0.074683	0.006450
Br124	Br	1.335276	0.425317	0.506450
H125	H	0.766979	0.323568	-0.027945
H126	H	1.266979	0.823568	0.472055
H127	H	0.947294	0.274330	0.720407
H128	H	1.447294	0.774330	1.220407
H129	H	0.309927	0.313465	-0.027076
H130	H	0.809927	0.813465	0.472924
Br131	Br	0.566779	0.371167	-0.032056
Br132	Br	1.066779	0.871167	0.467944
H133	H	0.947269	0.274321	0.539613
H134	H	1.447269	0.774321	1.039613
Br135	Br	0.914380	0.312989	0.436751
Br136	Br	1.414380	0.812989	0.936751
H137	H	0.947241	0.274305	0.232242
H138	H	1.447241	0.774305	0.732242
Br139	Br	0.547489	-0.081048	0.006987
Br140	Br	1.047489	0.418952	0.506987
