data_functionalizedCrystal
_audit_creation_method	'MofGen! by Chris Wilmer'
_symmetry_space_group_name_H-M	'P1'
_symmetry_Int_Tables_number	1
_symmetry_cell_setting	triclinic
loop_
_symmetry_equiv_pos_as_xyz
  x,y,z
_cell_length_a	12.827892
_cell_length_b	11.169417
_cell_length_c	11.169409
_cell_angle_alpha	90.019513
_cell_angle_beta	90.033086
_cell_angle_gamma	90.016641
loop_
_atom_site_label
_atom_site_type_symbol
_atom_site_fract_x
_atom_site_fract_y
_atom_site_fract_z
Zn1	Zn	-0.415914	1.834920	0.678527
Zn2	Zn	-0.590701	1.834792	0.477841
Zn3	Zn	-0.415978	1.634206	0.477862
Zn4	Zn	-0.590617	1.634196	0.678487
O5	O	-0.503303	1.734528	0.578179
O6	O	-0.439108	2.002853	0.651913
O7	O	-0.567586	1.808134	0.309894
O8	O	-0.269734	1.660889	0.504506
O9	O	-0.567523	2.002759	0.504470
O10	O	-0.269686	1.808353	0.651933
O11	O	-0.439218	1.660765	0.309909
O12	O	-0.439137	1.466255	0.504468
O13	O	-0.567380	1.660872	0.846442
O14	O	-0.567443	1.466248	0.651866
O15	O	-0.439026	1.808343	0.846471
O16	O	-0.736926	1.808124	0.504431
O17	O	-0.736864	1.660747	0.651845
C18	C	-0.503288	1.422704	0.578165
C19	C	-0.503308	1.289304	0.578188
C20	C	-0.774812	1.734453	0.578158
C21	C	-0.890966	1.734531	0.578189
C22	C	-0.942746	1.807544	0.505325
C23	C	-1.062796	1.807626	0.505355
C24	C	-0.230732	1.734637	0.578227
C25	C	-0.114579	1.734683	0.578247
C26	C	-0.503186	1.734621	0.891222
C27	C	-0.503137	1.734660	1.024622
C28	C	-0.503317	2.047571	0.578194
C29	C	-0.503324	2.180971	0.578200
C30	C	-0.503343	1.734506	0.266354
C31	C	-0.503098	1.734699	0.132955
H32	H	-1.107327	1.870133	0.442971
O33	O	-1.061423	1.660275	0.652804
C34	C	-0.937914	1.644090	0.814617
C35	C	-0.998077	1.728491	0.730277
H36	H	-0.886667	1.699208	0.877259
H37	H	-0.995531	1.589203	0.869593
H38	H	-0.886947	1.581357	0.759370
H39	H	-1.049045	1.791297	0.785431
H40	H	-0.940402	1.783294	0.675297
O41	O	-0.889775	1.882158	0.430830
C42	C	-0.901042	2.034456	0.278624
C43	C	-0.961157	1.950038	0.362954
H44	H	-0.958728	2.089341	0.223707
H45	H	-0.849882	2.097179	0.333756
H46	H	-0.850001	1.979272	0.215917
H47	H	-1.012255	2.005125	0.425678
H48	H	-1.012252	1.887311	0.307748
O49	O	-0.943983	1.659860	0.652583
C50	C	-0.977751	1.455734	0.710594
C51	C	-0.917630	1.540165	0.626284
H52	H	-0.956484	1.358941	0.689345
H53	H	-0.956247	1.476624	0.807424
H54	H	-1.065100	1.469138	0.697376
H55	H	-0.830268	1.526808	0.639396
H56	H	-0.939221	1.519254	0.529485
