data_functionalizedCrystal
_audit_creation_method	'MofGen! by Chris Wilmer'
_symmetry_space_group_name_H-M	'P1'
_symmetry_Int_Tables_number	1
_symmetry_cell_setting	triclinic
loop_
_symmetry_equiv_pos_as_xyz
  x,y,z
_cell_length_a	16.959455
_cell_length_b	21.295417
_cell_length_c	16.959447
_cell_angle_alpha	89.964807
_cell_angle_beta	89.985678
_cell_angle_gamma	90.027454
loop_
_atom_site_label
_atom_site_type_symbol
_atom_site_fract_x
_atom_site_fract_y
_atom_site_fract_z
Zn1	Zn	1.208326	-0.250648	-0.446882
Zn2	Zn	1.208225	-0.355925	-0.314692
Zn3	Zn	1.076155	-0.250668	-0.314719
Zn4	Zn	1.076096	-0.355878	-0.446831
O5	O	1.142200	-0.303280	-0.380781
O6	O	1.318924	-0.264625	-0.429357
O7	O	1.190688	-0.341990	-0.204085
O8	O	1.093755	-0.162576	-0.332284
O9	O	1.318849	-0.341971	-0.332237
O10	O	1.190861	-0.162561	-0.429383
O11	O	1.093657	-0.264658	-0.204105
O12	O	0.965536	-0.264613	-0.332234
O13	O	1.093654	-0.341891	-0.557448
O14	O	0.965493	-0.341910	-0.429296
O15	O	1.190803	-0.264579	-0.557486
O16	O	1.190630	-0.444008	-0.332188
O17	O	1.093555	-0.443973	-0.429269
C18	C	0.936834	-0.303259	-0.380763
C19	C	0.848978	-0.303265	-0.380774
C20	C	0.477500	-0.262998	-0.330347
C21	C	0.477504	-0.343613	-0.431261
C22	C	0.560050	-0.343604	-0.431256
C23	C	0.601325	-0.303292	-0.380795
C24	C	0.560054	-0.262989	-0.330339
C25	C	0.601327	-0.383911	-0.481705
C26	C	0.683877	-0.383904	-0.481702
C27	C	0.725154	-0.343588	-0.431244
C28	C	0.683878	-0.303283	-0.380787
C29	C	0.725153	-0.262971	-0.330326
C30	C	0.683879	-0.222662	-0.279871
C31	C	0.601330	-0.222673	-0.279881
C32	C	0.807702	-0.343577	-0.431235
C33	C	0.807707	-0.262962	-0.330318
C34	C	1.142097	-0.466831	-0.380737
C35	C	1.142125	-0.536799	-0.380745
C36	C	1.192717	-0.569663	-0.330246
C37	C	1.192754	-0.635406	-0.330264
C38	C	1.142185	-0.668282	-0.380772
C39	C	1.091589	-0.635410	-0.431281
C40	C	1.091559	-0.569669	-0.431267
N41	N	1.073038	-0.771544	-0.386792
N42	N	1.073069	-0.833996	-0.386800
C43	C	1.142273	-0.866357	-0.380818
N44	N	1.211448	-0.833907	-0.374811
N45	N	1.211416	-0.771449	-0.374798
C46	C	1.142212	-0.739567	-0.380793
C47	C	1.192910	-0.970506	-0.330335
C48	C	1.192948	-1.036249	-0.330359
C49	C	1.091777	-1.036253	-0.431371
C50	C	1.091745	-0.970510	-0.431352
C51	C	1.142311	-0.937641	-0.380830
C52	C	1.348369	-0.303301	-0.380800
C53	C	1.436225	-0.303310	-0.380808
C54	C	1.142233	-0.303228	-0.586949
C55	C	1.142247	-0.303205	-0.674806
C56	C	1.142326	-0.139089	-0.380842
C57	C	1.142379	-0.069121	-0.380868
C58	C	1.091760	-0.343392	-1.046265
C59	C	1.192923	-0.262886	-1.046299
C60	C	1.192902	-0.262900	-0.963753
C61	C	1.142310	-0.303160	-0.922459
C62	C	1.091740	-0.343407	-0.963711
C63	C	1.243478	-0.222658	-0.922495
C64	C	1.243459	-0.222670	-0.839944
C65	C	1.192863	-0.262928	-0.798648
C66	C	1.142289	-0.303176	-0.839906
C67	C	1.091698	-0.343437	-0.798612
C68	C	1.041120	-0.383682	-0.839867
C69	C	1.041143	-0.383665	-0.922416
C70	C	1.192839	-0.262945	-0.716100
C71	C	1.091677	-0.343453	-0.716058
C72	C	1.142213	-0.303286	-0.175415
C73	C	1.142352	-0.303131	-0.087559
H74	H	0.567717	-0.189857	-0.238803
Br75	Br	1.261419	-0.680016	-0.261726
H76	H	1.050417	-0.662182	-0.472406
H77	H	0.567714	-0.416735	-0.522782
H78	H	0.999931	-0.416465	-0.806235
H79	H	1.050361	-0.542911	-0.472390
Br80	Br	1.261351	-0.525057	-0.261692
Br81	Br	0.972511	-0.438282	-0.978409
Br82	Br	1.261588	-0.208256	-1.102341
Br83	Br	1.261529	-0.925893	-0.261769
Br84	Br	0.739886	-0.438607	-0.550175
H85	H	0.443891	-0.230178	-0.289270
Br86	Br	1.023118	-0.398005	-1.102250
H87	H	1.050471	-0.376232	-0.682442
H88	H	1.284672	-0.189883	-0.956122
Br89	Br	0.739905	-0.167961	-0.211384
H90	H	0.443893	-0.376437	-0.472339
H91	H	1.050606	-1.063020	-0.472499
Br92	Br	1.312097	-0.168051	-0.783961
H93	H	0.841304	-0.376398	-0.472312
Br94	Br	1.261623	-1.080852	-0.261827
Br95	Br	1.261482	-0.208336	-0.660113
Br96	Br	0.863717	-0.208244	-0.261838
Br97	Br	1.023079	-0.925906	-0.499888
