data_functionalizedCrystal
_audit_creation_method	'MofGen! by Chris Wilmer'
_symmetry_space_group_name_H-M	'P1'
_symmetry_Int_Tables_number	1
_symmetry_cell_setting	triclinic
loop_
_symmetry_equiv_pos_as_xyz
  x,y,z
_cell_length_a	6.817900
_cell_length_b	11.102188
_cell_length_c	10.943881
_cell_angle_alpha	91.860511
_cell_angle_beta	108.843448
_cell_angle_gamma	108.603875
loop_
_atom_site_label
_atom_site_type_symbol
_atom_site_fract_x
_atom_site_fract_y
_atom_site_fract_z
V1	V	-4.114327	-0.175803	-0.402553
O2	O	-4.073316	0.008485	-0.394889
O3	O	-4.091075	-0.348623	-0.399799
O4	O	-4.092332	-0.173082	-0.578119
O5	O	-4.072051	-0.168271	-0.215335
V6	V	-4.591274	-0.153762	-0.380160
O7	O	-4.390008	-0.224152	-0.451673
O8	O	-4.765790	-0.105413	-0.331039
O9	O	-4.391319	0.019059	-0.382913
O10	O	-4.749682	-0.338050	-0.387823
O11	O	-4.750947	-0.161294	-0.567377
O12	O	-4.390063	-0.156482	-0.204593
C13	C	-3.941339	-0.390753	-0.393449
C14	C	-4.003791	-0.532036	-0.392368
C15	C	-3.972139	-0.580272	-0.273627
C16	C	-4.030843	-0.713024	-0.272617
C17	C	-4.152845	-0.749292	-0.509099
C18	C	-4.094155	-0.616544	-0.510109
C19	C	-3.942941	-0.166832	-0.620912
C20	C	-4.006407	-0.165751	-0.764439
C21	C	-4.235809	-0.171736	-0.855322
C22	C	-4.123113	-0.062491	-0.921059
C23	C	-4.232128	-0.272993	-0.954429
C24	C	-3.892830	-0.056434	-0.828271
C25	C	-4.001918	-0.267031	-0.861650
C26	C	-3.889052	-0.157756	-0.927339
C27	C	-4.204397	0.061182	-0.389260
C28	C	-4.121185	0.202464	-0.390349
C29	C	-4.202795	-0.162736	-0.161793
C30	C	-4.118566	-0.163811	-0.018265
H31	H	-4.119946	-0.577272	-0.606808
C32	C	-4.023697	-0.514582	-0.078465
C33	C	-3.872851	-0.487376	-0.144214
H34	H	-3.962409	-0.457227	0.001426
H35	H	-4.054097	-0.600534	-0.060869
H36	H	-4.156877	-0.504415	-0.131356
H37	H	-3.739676	-0.497553	-0.091327
H38	H	-3.842421	-0.401403	-0.161806
H39	H	-4.381677	-0.177524	-0.823454
H40	H	-4.174944	0.023999	-0.947592
C41	C	-3.640550	0.065118	-0.619909
C42	C	-3.698514	0.067245	-0.754573
H43	H	-3.520607	0.141479	-0.574412
H44	H	-3.598067	-0.007422	-0.599194
H45	H	-3.763662	0.059877	-0.594792
H46	H	-3.575405	0.072477	-0.779692
H47	H	-3.740988	0.139806	-0.775297
C48	C	-3.515141	-0.036279	-0.905371
C49	C	-3.691731	-0.149713	-0.970032
H50	H	-3.393337	-0.031305	-0.931743
H51	H	-3.473154	-0.036248	-0.813733
H52	H	-3.559166	0.035648	-0.926803
H53	H	-3.647710	-0.221640	-0.948592
H54	H	-3.733721	-0.149755	-1.061690
C55	C	-4.199667	-0.847336	-0.140359
C56	C	-3.996063	-0.766035	-0.142088
H57	H	-4.178197	-0.880051	-0.059767
H58	H	-4.261849	-0.916665	-0.210314
H59	H	-4.297026	-0.800418	-0.149803
H60	H	-3.898709	-0.812955	-0.132653
H61	H	-3.933850	-0.696696	-0.072113
H62	H	-3.950151	-0.353529	-0.835095
H63	H	-4.376208	-0.364499	-1.009176
H64	H	-4.226421	-0.818114	-0.604959
