data_functionalizedCrystal
_audit_creation_method	'MofGen! by Chris Wilmer'
_symmetry_space_group_name_H-M	'P1'
_symmetry_Int_Tables_number	1
_symmetry_cell_setting	triclinic
loop_
_symmetry_equiv_pos_as_xyz
  x,y,z
_cell_length_a	23.532361
_cell_length_b	16.109301
_cell_length_c	14.586319
_cell_angle_alpha	89.998390
_cell_angle_beta	90.001545
_cell_angle_gamma	96.854425
loop_
_atom_site_label
_atom_site_type_symbol
_atom_site_fract_x
_atom_site_fract_y
_atom_site_fract_z
O1	O	0.755650	-0.100735	0.076151
O2	O	0.589837	-0.115379	0.076174
O3	O	0.677298	0.013011	0.076153
O4	O	0.668188	-0.229125	0.076173
O5	O	0.677288	0.013003	-0.076328
O6	O	0.589826	-0.115387	-0.076307
O7	O	0.755639	-0.100743	-0.076329
Cu8	Cu	0.672732	-0.108066	-0.090241
Cu9	Cu	0.672744	-0.108056	0.090085
O10	O	0.668178	-0.229133	-0.076308
C11	C	0.568614	-0.115016	-0.000064
C12	C	0.505391	-0.113913	-0.000056
N13	N	0.672727	-0.108071	-0.217073
C14	C	0.676924	0.043979	-0.000088
C15	C	0.675818	0.136265	-0.000089
C16	C	0.232135	-0.109087	0.083056
C17	C	0.291539	-0.110131	0.083058
O18	O	0.322272	-0.110638	0.153745
N19	N	0.321241	-0.110662	-0.000060
C20	C	0.291537	-0.110141	-0.083185
O21	O	0.322255	-0.110688	-0.153883
C22	C	0.232135	-0.109091	-0.083186
C23	C	0.202435	-0.108569	-0.000063
C24	C	0.202436	-0.108563	0.166172
C25	C	0.143036	-0.107521	0.166169
C26	C	0.113336	-0.107003	0.083050
C27	C	0.143036	-0.107527	-0.000066
C28	C	0.202432	-0.108565	-0.166311
C29	C	0.143026	-0.107514	-0.166305
C30	C	0.113327	-0.106991	-0.083182
C31	C	0.053936	-0.105966	-0.083188
N32	N	0.024234	-0.105435	-0.000070
C33	C	0.053934	-0.105953	0.083049
C34	C	0.416285	-0.112344	-0.083176
C35	C	0.475685	-0.113400	-0.083175
C36	C	0.475684	-0.113387	0.083068
C37	C	0.416282	-0.112338	0.083067
C38	C	0.386583	-0.111813	-0.000058
C39	C	-0.070810	-0.103765	0.083037
C40	C	-0.130215	-0.102727	0.083027
C41	C	-0.130208	-0.102735	-0.083216
C42	C	-0.070808	-0.103778	-0.083206
C43	C	-0.041110	-0.104290	-0.000072
O44	O	0.023166	-0.105455	-0.153838
O45	O	0.023209	-0.105395	0.153735
C46	C	0.776863	-0.101106	-0.000090
C47	C	0.840085	-0.102208	-0.000092
C48	C	0.668552	-0.260101	-0.000065
C49	C	0.669658	-0.352387	-0.000058
C50	C	0.725143	0.358937	-0.000081
C51	C	0.724099	0.445649	-0.000074
C52	C	0.620329	0.424934	-0.000063
C53	C	0.621374	0.338224	-0.000065
C54	C	0.673782	0.305228	-0.000078
C55	C	0.671694	0.478650	-0.000069
C56	C	0.670561	0.572667	-0.000061
C57	C	0.674915	0.211205	-0.000085
C58	C	0.707267	-0.158220	-0.452080
C59	C	0.707273	-0.158214	-0.548061
C60	C	0.638212	-0.057890	-0.548069
C61	C	0.638210	-0.057892	-0.452090
C62	C	0.672736	-0.108062	-0.404097
C63	C	0.672745	-0.108054	-0.596058
C64	C	0.672751	-0.108047	-0.700125
C65	C	0.672731	-0.108067	-0.300024
N66	N	0.672754	-0.108044	0.216917
H67	H	-0.154394	-0.102303	0.150719
H68	H	0.226603	-0.108988	-0.233998
N69	N	0.565975	0.280286	-0.000055
H70	H	0.532616	0.314344	-0.000052
H71	H	0.564146	0.243857	-0.056580
H72	H	0.392107	-0.111927	-0.150870
H73	H	0.765922	0.489377	-0.000074
H74	H	0.577660	0.451810	-0.000054
N75	N	0.110996	-0.106944	-0.255964
H76	H	0.138879	-0.106867	-0.308612
H77	H	0.081985	-0.158344	-0.259860
N78	N	0.744531	-0.212304	-0.599797
H79	H	0.733290	-0.272885	-0.583098
H80	H	0.739291	-0.204624	-0.667869
H81	H	0.610090	-0.017042	-0.413022
H82	H	0.735380	-0.199071	-0.413007
H83	H	0.767818	0.332076	-0.000091
H84	H	0.610102	-0.017044	-0.587156
H85	H	-0.046637	-0.104184	0.150733
H86	H	0.118861	-0.107091	0.233857
N87	N	-0.038775	-0.104351	-0.172860
H88	H	-0.009502	-0.053237	-0.176572
H89	H	-0.018791	-0.156362	-0.176505
H90	H	0.226612	-0.108982	0.233861
H91	H	-0.154400	-0.102316	-0.150889
N92	N	0.507731	-0.113933	0.172715
H93	H	0.502025	-0.062201	0.209045
H94	H	0.492755	-0.165326	0.208997
N95	N	0.384251	-0.111772	0.172719
H96	H	0.412085	-0.112261	0.225370
H97	H	0.364238	-0.059787	0.176339
H98	H	0.499860	-0.113839	-0.150862
