data_functionalizedCrystal
_audit_creation_method	'MofGen! by Chris Wilmer'
_symmetry_space_group_name_H-M	'P1'
_symmetry_Int_Tables_number	1
_symmetry_cell_setting	triclinic
loop_
_symmetry_equiv_pos_as_xyz
  x,y,z
_cell_length_a	10.723023
_cell_length_b	9.130307
_cell_length_c	10.723023
_cell_angle_alpha	89.998159
_cell_angle_beta	95.532452
_cell_angle_gamma	90.002158
loop_
_atom_site_label
_atom_site_type_symbol
_atom_site_fract_x
_atom_site_fract_y
_atom_site_fract_z
O1	O	-1.657184	-0.121813	0.175020
O2	O	-1.294031	-0.121812	0.191774
O3	O	-1.483985	-0.121807	0.001821
O4	O	-1.467230	-0.121819	0.364973
O5	O	-1.483978	0.121792	0.001820
O6	O	-1.294024	0.121787	0.191774
O7	O	-1.657177	0.121786	0.175020
Cu8	Cu	-1.475600	0.144029	0.183397
Cu9	Cu	-1.475608	-0.144055	0.183397
O10	O	-1.467223	0.121780	0.364973
C11	C	-1.247528	-0.000012	0.190555
C12	C	-1.108974	-0.000012	0.186908
N13	N	-1.475603	0.346652	0.183396
C14	C	-0.904002	0.126177	0.181512
C15	C	-1.047205	0.126179	0.185282
C16	C	-1.643876	0.346647	0.015242
C17	C	-1.728021	0.423311	-0.068832
C18	C	-1.728033	0.576644	-0.068831
C19	C	-1.643889	0.653317	0.015249
C20	C	-1.559744	0.576653	0.099322
C21	C	-1.559744	0.423316	0.099315
C22	C	-1.391467	0.576658	0.267468
C23	C	-1.391459	0.423325	0.267476
C24	C	-1.307323	0.653331	0.351548
C25	C	-1.223182	0.576667	0.435629
C26	C	-1.223175	0.423324	0.435626
C27	C	-1.307315	0.346660	0.351549
C28	C	-0.703680	-0.000014	0.176239
C29	C	-0.842234	-0.000014	0.179886
C30	C	-1.482762	-0.000009	-0.044679
C31	C	-1.479115	-0.000013	-0.183233
N32	N	-1.475612	0.653322	0.183395
C33	C	-1.477493	-0.126207	-0.244999
C34	C	-1.473723	-0.126215	-0.388202
C35	C	-1.468446	-0.000021	0.411473
C36	C	-1.472093	-0.000026	0.550027
H37	H	-0.850866	0.234212	0.180120
F38	F	-1.133608	0.341744	0.525104
F39	F	-1.817583	0.658236	-0.158317
H40	H	-1.477705	0.108020	-0.236370
F41	F	-1.133633	0.658273	0.525096
H42	H	-1.100325	0.234216	0.186674
F43	F	-1.479346	-0.267420	-0.175554
F44	F	-1.039557	-0.141235	0.185072
H45	H	-1.472334	-0.234254	-0.441320
H46	H	-1.796528	0.360870	-0.137291
H47	H	-0.895369	-0.108049	0.181292
F48	F	-1.473925	0.141200	-0.380559
H49	H	-1.643893	0.778169	0.015233
F50	F	-1.643886	0.183455	0.015246
H51	H	-1.307331	0.778183	0.351539
F52	F	-1.307319	0.183469	0.351543
