data_functionalizedCrystal
_audit_creation_method	'MofGen! by Chris Wilmer'
_symmetry_space_group_name_H-M	'P1'
_symmetry_Int_Tables_number	1
_symmetry_cell_setting	triclinic
loop_
_symmetry_equiv_pos_as_xyz
  x,y,z
_cell_length_a	16.120530
_cell_length_b	29.839131
_cell_length_c	16.120297
_cell_angle_alpha	87.139604
_cell_angle_beta	89.871860
_cell_angle_gamma	87.130172
loop_
_atom_site_label
_atom_site_type_symbol
_atom_site_fract_x
_atom_site_fract_y
_atom_site_fract_z
Zn1	Zn	1.247358	-0.227599	0.534475
Zn2	Zn	1.747358	0.272401	1.034475
Zn3	Zn	1.254283	-0.299116	0.395389
Zn4	Zn	1.754283	0.200884	0.895389
Zn5	Zn	1.115351	-0.220008	0.388396
Zn6	Zn	1.615351	0.279992	0.888396
Zn7	Zn	1.108240	-0.298702	0.527358
Zn8	Zn	1.608240	0.201298	1.027358
O9	O	1.181308	-0.261356	0.461404
O10	O	1.681308	0.238644	0.961404
O11	O	1.364642	-0.240436	0.521930
O12	O	1.864642	0.259564	1.021930
O13	O	1.241728	-0.285618	0.278097
O14	O	1.741728	0.214382	0.778097
O15	O	1.132941	-0.158151	0.407825
O16	O	1.632941	0.341849	0.907825
O17	O	1.369730	-0.292979	0.419744
O18	O	1.869730	0.207021	0.919744
O19	O	1.229925	-0.163729	0.515149
O20	O	1.729925	0.336271	1.015149
O21	O	1.139655	-0.227498	0.272959
O22	O	1.639655	0.272502	0.772959
O23	O	0.998043	-0.227097	0.400925
O24	O	1.498043	0.272903	0.900925
O25	O	1.120820	-0.292274	0.644667
O26	O	1.620820	0.207726	1.144667
O27	O	0.992818	-0.284913	0.503020
O28	O	1.492818	0.215087	1.003020
O29	O	1.223030	-0.240035	0.649895
O30	O	1.723030	0.259965	1.149895
O31	O	1.234832	-0.361924	0.412843
O32	O	1.734832	0.138076	0.912843
O33	O	1.127535	-0.361621	0.509801
O34	O	1.627535	0.138379	1.009801
C35	C	0.965258	-0.255137	0.450442
C36	C	1.465258	0.244863	0.950442
C37	C	0.872830	-0.252487	0.445771
C38	C	1.372830	0.247513	0.945771
C39	C	1.181185	-0.378073	0.461328
C40	C	1.681185	0.121927	0.961328
C41	C	1.181207	-0.428008	0.461327
C42	C	1.681207	0.071992	0.961327
C43	C	0.703603	-0.247639	0.437252
C44	C	1.203603	0.252361	0.937252
C45	C	0.659851	-0.275108	0.485618
C46	C	1.159851	0.224892	0.985618
C47	C	0.565687	-0.272411	0.480877
C48	C	1.065687	0.227589	0.980877
C49	C	0.797775	-0.250336	0.441991
C50	C	1.297775	0.249664	0.941991
C51	C	1.231793	-0.740528	0.517363
C52	C	1.731793	-0.240528	1.017363
C53	C	1.231881	-0.928204	0.517418
C54	C	1.731881	-0.428204	1.017418
O55	O	1.274769	-0.954909	0.565003
O56	O	1.774769	-0.454909	1.065003
N57	N	1.181445	-0.948805	0.461504
N58	N	1.681445	-0.448805	0.961504
C59	C	1.130979	-0.922483	0.405576
C60	C	1.630979	-0.422483	0.905576
O61	O	1.088076	-0.944311	0.358025
O62	O	1.588076	-0.444311	0.858025
C63	C	1.130888	-0.734807	0.405526
C64	C	1.630888	-0.234807	0.905526
C65	C	1.181333	-0.714209	0.461438
C66	C	1.681333	-0.214209	0.961438
C67	C	1.282233	-0.719930	0.573271
C68	C	1.782233	-0.219930	1.073271
C69	C	1.282214	-0.673013	0.573254
C70	C	1.782214	-0.173013	1.073254
C71	C	1.231755	-0.646695	0.517329
C72	C	1.731755	-0.146695	1.017329
C73	C	1.181314	-0.667293	0.461421
C74	C	1.681314	-0.167293	0.961421
C75	C	1.080419	-0.708486	0.349603
C76	C	1.580419	-0.208486	0.849603
C77	C	1.080399	-0.661564	0.349597
C78	C	1.580399	-0.161564	0.849597
C79	C	1.130844	-0.640966	0.405509
C80	C	1.630844	-0.140966	0.905509
C81	C	1.130836	-0.594058	0.405479
C82	C	1.630836	-0.094058	0.905479
N83	N	1.181271	-0.573457	0.461392
N84	N	1.681271	-0.073457	0.961392
C85	C	1.231731	-0.599776	0.517317
C86	C	1.731731	-0.099776	1.017317
C87	C	1.131032	-1.021016	0.405605
C88	C	1.631032	-0.521016	0.905605
C89	C	1.131056	-1.067934	0.405617
C90	C	1.631056	-0.567934	0.905617
C91	C	1.231956	-1.073653	0.517459
C92	C	1.731956	-0.573653	1.017459
C93	C	1.231936	-1.026733	0.517443
C94	C	1.731936	-0.526733	1.017443
C95	C	1.181468	-1.000415	0.461519
C96	C	1.681468	-0.500415	0.961519
C97	C	1.231688	-0.501248	0.517276
C98	C	1.731688	-0.001248	1.017276
C99	C	1.231667	-0.454327	0.517252
C100	C	1.731667	0.045673	1.017252
C101	C	1.130763	-0.448613	0.405413
C102	C	1.630763	0.051387	0.905413
C103	C	1.130787	-0.495529	0.405434
C104	C	1.630787	0.004471	0.905434
C105	C	1.181252	-0.521846	0.461373
C106	C	1.681252	-0.021846	0.961373
O107	O	1.087963	-0.567325	0.357924
O108	O	1.587963	-0.067325	0.857924
O109	O	1.274614	-0.577939	0.564874
O110	O	1.774614	-0.077939	1.064874
C111	C	1.231812	-0.787444	0.517380
C112	C	1.731812	-0.287444	1.017380
C113	C	1.181371	-0.808042	0.461472
C114	C	1.681371	-0.308042	0.961472
C115	C	1.130912	-0.781723	0.405547
C116	C	1.630912	-0.281723	0.905547
C117	C	1.181395	-0.854961	0.461484
C118	C	1.681395	-0.354961	0.961484
C119	C	1.231855	-0.881279	0.517409
C120	C	1.731855	-0.381279	1.017409
C121	C	1.282291	-0.860679	0.573323
C122	C	1.782291	-0.360679	1.073323
C123	C	1.282272	-0.813762	0.573305
C124	C	1.782272	-0.313762	1.073305
C125	C	1.080476	-0.802324	0.349634
C126	C	1.580476	-0.302324	0.849634
C127	C	1.080500	-0.849241	0.349655
C128	C	1.580500	-0.349241	0.849655
C129	C	1.130960	-0.875559	0.405580
C130	C	1.630960	-0.375559	0.905580
C131	C	1.398202	-0.267601	0.472411
C132	C	1.898202	0.232399	0.972411
C133	C	1.490629	-0.270262	0.477101
C134	C	1.990629	0.229738	0.977101
C135	C	1.170359	-0.266955	0.678296
C136	C	1.670359	0.233045	1.178296
C137	C	1.165693	-0.269341	0.770723
C138	C	1.665693	0.230659	1.270723
C139	C	1.181454	-0.144185	0.461501
C140	C	1.681454	0.355815	0.961501
C141	C	1.181516	-0.094253	0.461542
C142	C	1.681516	0.405747	0.961542
C143	C	1.192263	-0.255748	0.245359
C144	C	1.692263	0.244252	0.745359
C145	C	1.197090	-0.253240	0.152941
C146	C	1.697090	0.246760	0.652941
C147	C	1.157144	-0.273686	0.939946
C148	C	1.657144	0.226314	1.439946
C149	C	1.205637	-0.248896	0.983723
C150	C	1.705637	0.251104	1.483723
C151	C	1.200880	-0.251314	1.077885
C152	C	1.700880	0.248686	1.577885
C153	C	1.161900	-0.271269	0.845776
C154	C	1.661900	0.228731	1.345776
H155	H	0.670342	-0.222100	0.392288
H156	H	1.170342	0.277900	0.892288
H157	H	1.112060	-0.296724	0.973182
H158	H	1.612060	0.203276	1.473182
H159	H	1.273044	-1.095089	0.562995
H160	H	1.773044	-0.595089	1.062995
H161	H	1.323323	-0.741354	0.618817
H162	H	1.823323	-0.241354	1.118817
C163	C	1.347809	-0.230389	0.963953
C164	C	1.847809	0.269611	1.463953
C165	C	1.266505	-0.217795	0.938853
C166	C	1.766505	0.282205	1.438853
H167	H	1.385382	-0.211188	0.936250
H168	H	1.885382	0.288812	1.436250
H169	H	1.360633	-0.260563	0.950371
H170	H	1.860633	0.239437	1.450371
H171	H	1.352553	-0.227950	1.022263
H172	H	1.852553	0.272050	1.522263
H173	H	1.261760	-0.220238	0.880543
H174	H	1.761760	0.279762	1.380543
H175	H	1.253677	-0.187614	0.952429
H176	H	1.753677	0.312386	1.452429
H177	H	1.323380	-0.882116	0.618856
H178	H	1.823380	-0.382116	1.118856
C179	C	0.684687	-0.353011	0.527167
C180	C	1.184687	0.146989	1.027167
C181	C	0.704748	-0.309593	0.546319
C182	C	1.204748	0.190407	1.046319
H183	H	0.712405	-0.374299	0.564642
H184	H	1.212405	0.125701	1.064642
H185	H	0.701673	-0.358487	0.471977
H186	H	1.201673	0.141513	0.971977
H187	H	0.626378	-0.355693	0.531908
H188	H	1.126378	0.144307	1.031908
H189	H	0.763057	-0.306910	0.541572
H190	H	1.263057	0.193090	1.041572
H191	H	0.687768	-0.304115	0.601523
H192	H	1.187768	0.195885	1.101523
C193	C	1.331401	-0.464700	0.627813
C194	C	1.831401	0.035300	1.127813
C195	C	1.287115	-0.431687	0.578719
C196	C	1.787115	0.068313	1.078719
H197	H	1.365626	-0.450723	0.665762
H198	H	1.865626	0.049277	1.165762
H199	H	1.365073	-0.482975	0.593230
H200	H	1.865073	0.017025	1.093230
H201	H	1.293537	-0.482785	0.657751
H202	H	1.793537	0.017215	1.157751
H203	H	1.324979	-0.413603	0.548776
H204	H	1.824979	0.086397	1.048776
H205	H	1.253440	-0.413403	0.613306
H206	H	1.753440	0.086597	1.113306
C207	C	1.237536	-0.557181	0.629757
C208	C	1.737536	-0.057181	1.129757
C209	C	1.287159	-0.530172	0.578762
C210	C	1.787159	-0.030172	1.078762
H211	H	1.271785	-0.575036	0.667715
H212	H	1.771785	-0.075036	1.167715
H213	H	1.207510	-0.576165	0.596465
H214	H	1.707510	-0.076165	1.096465
H215	H	1.199670	-0.538657	0.659685
H216	H	1.699670	-0.038657	1.159685
H217	H	1.325021	-0.548696	0.548829
H218	H	1.825021	-0.048696	1.048829
H219	H	1.317199	-0.511186	0.612057
H220	H	1.817199	-0.011186	1.112057
H221	H	1.323289	-0.656245	0.618784
H222	H	1.823289	-0.156245	1.118784
H223	H	1.273013	-1.009966	0.562972
H224	H	1.773013	-0.509966	1.062972
H225	H	1.089988	-1.084701	0.360079
H226	H	1.589988	-0.584701	0.860079
C227	C	1.031310	-1.020086	0.295046
C228	C	1.531310	-0.520086	0.795046
C229	C	1.075562	-0.992091	0.344118
C230	C	1.575562	-0.492091	0.844118
H231	H	0.997072	-1.002230	0.257081
H232	H	1.497072	-0.502230	0.757081
H233	H	0.997654	-1.038408	0.329640
H234	H	1.497654	-0.538408	0.829640
H235	H	1.069195	-1.038603	0.265125
H236	H	1.569195	-0.538603	0.765125
H237	H	1.037676	-0.973576	0.374044
H238	H	1.537676	-0.473576	0.874044
H239	H	1.109221	-0.973761	0.309520
H240	H	1.609221	-0.473761	0.809520
H241	H	1.039299	-0.640138	0.304058
H242	H	1.539299	-0.140138	0.804058
C243	C	0.980665	-0.698100	0.239073
C244	C	1.480665	-0.198100	0.739073
C245	C	1.024960	-0.731118	0.288148
C246	C	1.524960	-0.231118	0.788148
H247	H	0.946420	-0.712073	0.201136
H248	H	1.446420	-0.212073	0.701136
H249	H	1.018518	-0.680018	0.209129
H250	H	1.518518	-0.180018	0.709129
H251	H	0.947005	-0.679822	0.273675
H252	H	1.447005	-0.179822	0.773675
H253	H	1.058624	-0.749394	0.253547
H254	H	1.558624	-0.249394	0.753547
H255	H	0.987102	-0.749208	0.318095
H256	H	1.487102	-0.249208	0.818095
H257	H	1.089682	-0.427177	0.359877
H258	H	1.589682	0.072823	0.859877
C259	C	1.031048	-0.485162	0.294883
C260	C	1.531048	0.014838	0.794883
C261	C	1.075340	-0.518173	0.343974
C262	C	1.575340	-0.018173	0.843974
H263	H	0.996808	-0.499140	0.256948
H264	H	1.496808	0.000860	0.756948
H265	H	1.068902	-0.467081	0.264935
H266	H	1.568902	0.032919	0.764935
H267	H	0.997382	-0.466880	0.329474
H268	H	1.497382	0.033120	0.829474
H269	H	1.109010	-0.536452	0.309383
H270	H	1.609010	-0.036452	0.809383
H271	H	1.037481	-0.536261	0.373924
H272	H	1.537481	-0.036261	0.873924
C273	C	1.382001	-0.824142	0.683859
C274	C	1.882001	-0.324142	1.183859
C275	C	1.337716	-0.791126	0.634773
C276	C	1.837716	-0.291126	1.134773
H277	H	1.416226	-0.810168	0.721812
H278	H	1.916226	-0.310168	1.221812
H279	H	1.415671	-0.842416	0.649273
H280	H	1.915671	-0.342416	1.149273
H281	H	1.344135	-0.842229	0.713793
H282	H	1.844135	-0.342229	1.213793
H283	H	1.375582	-0.773041	0.604834
H284	H	1.875582	-0.273041	1.104834
H285	H	1.304043	-0.772844	0.669363
H286	H	1.804043	-0.272844	1.169363
C287	C	0.941774	-0.858657	0.301906
C288	C	1.441774	-0.358657	0.801906
C289	C	1.025042	-0.871878	0.288193
C290	C	1.525042	-0.371878	0.788193
H291	H	0.907535	-0.872634	0.263970
H292	H	1.407535	-0.372634	0.763970
H293	H	0.934556	-0.826951	0.293894
H294	H	1.434556	-0.326951	0.793894
H295	H	0.926758	-0.867429	0.357154
H296	H	1.426758	-0.367429	0.857154
H297	H	1.040060	-0.863103	0.232947
H298	H	1.540060	-0.363103	0.732947
H299	H	1.032264	-0.903591	0.296198
H300	H	1.532264	-0.403591	0.796198
H301	H	1.039385	-0.780899	0.304094
H302	H	1.539385	-0.280899	0.804094
