data_functionalizedCrystal
_audit_creation_method	'MofGen! by Chris Wilmer'
_symmetry_space_group_name_H-M	'P1'
_symmetry_Int_Tables_number	1
_symmetry_cell_setting	triclinic
loop_
_symmetry_equiv_pos_as_xyz
  x,y,z
_cell_length_a	15.698487
_cell_length_b	12.477989
_cell_length_c	12.477989
_cell_angle_alpha	89.511470
_cell_angle_beta	64.368859
_cell_angle_gamma	64.370264
loop_
_atom_site_label
_atom_site_type_symbol
_atom_site_fract_x
_atom_site_fract_y
_atom_site_fract_z
Zr1	Zr	1.014583	-0.193132	0.984926
O2	O	1.160754	-0.345059	0.832995
O3	O	0.846540	-0.146562	1.031501
O4	O	1.003647	-0.358080	1.044517
O5	O	1.019900	0.033311	0.809711
O6	O	1.019900	-0.368347	1.211370
O7	O	1.003647	-0.133541	0.819979
O8	O	0.738864	0.010020	1.188085
O9	O	1.300936	-0.345055	0.832995
O10	O	0.935888	-0.134358	1.175884
O11	O	0.935888	-0.002176	1.043701
O12	O	1.120861	-0.251211	1.059027
O13	O	1.120861	-0.119028	0.926844
Zr14	Zr	1.066425	0.056604	1.234659
Zr15	Zr	1.040504	-0.209507	1.251036
Zr16	Zr	1.040504	0.072978	0.968549
Zr17	Zr	1.238156	-0.193126	0.984925
Zr18	Zr	0.842852	0.056598	1.234660
O19	O	1.234468	0.010033	1.188084
O20	O	1.197611	-0.368342	1.211369
O21	O	1.197611	0.033316	0.809710
O22	O	0.920254	0.208530	1.386590
O23	O	0.883397	-0.169845	1.409875
O24	O	0.883397	0.231813	1.008216
O25	O	1.061108	-0.169840	1.409874
O26	O	1.077361	0.221551	1.175067
O27	O	1.061108	0.231818	1.008215
O28	O	1.077361	-0.002987	1.399606
O29	O	1.321540	-0.358071	1.044516
O30	O	0.759468	0.221542	1.175068
O31	O	0.780072	0.208527	1.386590
O32	O	0.759468	-0.002996	1.399607
O33	O	1.321540	-0.133533	0.819978
O34	O	1.342144	-0.146548	1.031499
O35	O	0.960146	0.114682	1.160558
O36	O	0.960146	-0.017500	1.292741
O37	O	1.145120	-0.134353	1.175883
O38	O	1.145120	-0.002170	1.043701
C39	C	0.760847	-0.068272	1.109793
C40	C	0.665935	-0.068274	1.109794
C41	C	1.008080	-0.047782	0.776930
C42	C	0.997076	-0.040831	0.663959
C43	C	1.072927	0.264600	1.089308
C44	C	1.083932	0.377570	1.082356
C45	C	0.492154	-0.068252	1.109789
C46	C	0.588858	-0.068261	1.109789
C47	C	1.320160	-0.068257	1.109792
C48	C	1.415073	-0.068254	1.109791
C49	C	1.008080	-0.401128	1.130277
C50	C	0.997076	-0.514099	1.137229
C51	C	1.072928	-0.088747	1.442655
C52	C	1.083932	-0.095698	1.555626
C53	C	0.793271	-0.088754	1.442656
C54	C	0.709363	-0.095708	1.555627
C55	C	0.793271	0.264592	1.089309
C56	C	0.709362	0.377560	1.082357
C57	C	0.825695	0.244110	1.422172
C58	C	0.752791	0.350127	1.528190
C59	C	1.255313	-0.380638	0.797413
C60	C	1.328217	-0.486655	0.691394
C61	C	1.287737	-0.047774	0.776929
C62	C	1.371645	-0.040820	0.663958
C63	C	1.287737	-0.401121	1.130276
C64	C	1.371645	-0.514089	1.137228
C65	C	0.657294	-0.159984	1.547682
C66	C	0.578462	-0.166542	1.653821
C67	C	0.551695	-0.108817	1.767904
C68	C	0.603772	-0.044539	1.775847
C69	C	0.682608	-0.037989	1.669709
C70	C	0.682622	0.491621	1.140090
C71	C	0.603794	0.597778	1.133552
C72	C	0.551702	0.589870	1.069289
C73	C	0.578450	0.475797	1.011549
C74	C	0.657282	0.369644	1.018080
C75	C	0.718555	0.330915	1.646987
C76	C	0.650066	0.430518	1.746614
C77	C	0.615808	0.549332	1.727441
C78	C	0.650051	0.568542	1.608632
C79	C	0.718544	0.468940	1.509008
C80	C	1.362464	-0.467443	0.572598
C81	C	1.430980	-0.567047	0.472971
C82	C	1.465243	-0.685861	0.492144
C83	C	1.430994	-0.705071	0.610953
C84	C	1.362485	-0.605469	0.710577
C85	C	1.423721	0.023444	0.671904
C86	C	1.502575	0.029973	0.565766
C87	C	1.529346	-0.027756	0.451683
C88	C	1.477265	-0.092029	0.443740
C89	C	1.398418	-0.098564	0.549877
C90	C	1.423714	-0.506142	1.201501
C91	C	1.502546	-0.612279	1.208057
C92	C	1.529314	-0.726361	1.150331
C93	C	1.477237	-0.734306	1.086055
C94	C	1.398401	-0.628170	1.079508
H95	H	1.166717	0.371252	1.030062
C96	C	1.195773	-0.166353	0.547074
C97	C	1.296386	-0.229910	0.421674
C98	C	1.408225	-0.300564	0.413123
C99	C	1.419452	-0.307660	0.529971
C100	C	1.318836	-0.244101	0.655380
C101	C	1.206997	-0.173447	0.663931
H102	H	1.288078	-0.224659	0.335167
H103	H	1.482707	-0.347615	0.320286
H104	H	1.502242	-0.359962	0.523641
H105	H	1.327144	-0.249352	0.741887
H106	H	1.132515	-0.126397	0.756768
C107	C	1.324806	-0.626614	0.841253
C108	C	1.249443	-0.517073	0.950853
C109	C	1.211768	-0.538229	1.081528
C110	C	1.249455	-0.668926	1.102602
C111	C	1.324822	-0.778476	0.992999
C112	C	1.362497	-0.757320	0.862324
H113	H	1.221541	-0.420315	0.935256
H114	H	1.155976	-0.457132	1.162663
H115	H	1.221566	-0.684587	1.199335
H116	H	1.352724	-0.875234	1.008596
H117	H	1.418289	-0.838417	0.781188
H118	H	0.487514	0.676316	1.063981
C119	C	0.686729	-0.223492	1.422200
C120	C	0.773441	-0.216303	1.305435
C121	C	0.802873	-0.279821	1.179958
C122	C	0.745592	-0.350528	1.171245
C123	C	0.658874	-0.357719	1.288013
C124	C	0.629443	-0.294201	1.413491
H125	H	0.815849	-0.163960	1.311881
H126	H	0.867067	-0.274497	1.093518
H127	H	0.767379	-0.397548	1.078359
H128	H	0.616467	-0.410063	1.281567
H129	H	0.565248	-0.299525	1.499931
H130	H	1.401933	0.070463	0.764785
C131	C	0.574307	0.018972	1.901343
C132	C	0.487575	0.011775	2.018079
C133	C	0.458099	0.075298	2.143578
C134	C	0.515355	0.146018	2.152340
C135	C	0.602092	0.153218	2.035600
C136	C	0.631568	0.089696	1.910101
H137	H	0.445187	-0.040579	2.011597
H138	H	0.393890	0.069967	2.229996
H139	H	0.493535	0.193041	2.245241
H140	H	0.644480	0.205572	2.042082
H141	H	0.695777	0.095026	1.823683
C142	C	0.574376	0.723245	1.197083
C143	C	0.458621	0.807610	1.296936
C144	C	0.429205	0.933073	1.360468
C145	C	0.515545	0.974171	1.324147
C146	C	0.631308	0.889804	1.224289
C147	C	0.660723	0.764341	1.160757
H148	H	0.394701	0.777189	1.323827
H149	H	0.343510	0.995527	1.434389
H150	H	0.493770	1.067046	1.371177
H151	H	0.695228	0.920225	1.197398
H152	H	0.746419	0.701888	1.086836
H153	H	0.914296	0.492221	1.189528
H154	H	0.914295	0.011456	0.670282
H155	H	1.401933	-0.413260	1.248510
H156	H	0.560036	0.630424	1.808572
H157	H	0.536069	-0.218883	1.647331
H158	H	0.487499	-0.114159	1.854319
H159	H	0.724993	0.014358	1.676195
H160	H	0.725028	0.498083	1.192420
H161	H	1.458900	-0.801821	0.626549
H162	H	0.536025	0.469376	0.959226
H163	H	0.679042	0.276774	0.971070
H164	H	1.334569	-0.370707	0.556963
H165	H	0.746438	0.234178	1.662621
H166	H	0.622192	0.414855	1.843345
H167	H	0.622148	0.665294	1.593039
H168	H	0.746409	0.484600	1.412281
H169	H	1.458853	-0.551381	0.376241
H170	H	1.521027	-0.766953	0.411013
H171	H	1.544968	0.082315	0.572257
H172	H	1.499044	-0.827206	1.039057
H173	H	1.593550	-0.022425	0.365269
H174	H	1.499074	-0.139029	0.350840
H175	H	1.356018	-0.150891	0.543390
H176	H	1.544941	-0.605787	1.260395
H177	H	1.593510	-0.812774	1.155672
H178	H	1.356013	-0.634657	1.027164
