data_functionalizedCrystal
_audit_creation_method	'MofGen! by Chris Wilmer'
_symmetry_space_group_name_H-M	'P1'
_symmetry_Int_Tables_number	1
_symmetry_cell_setting	triclinic
loop_
_symmetry_equiv_pos_as_xyz
  x,y,z
_cell_length_a	17.699083
_cell_length_b	17.699092
_cell_length_c	16.776229
_cell_angle_alpha	89.995030
_cell_angle_beta	89.998886
_cell_angle_gamma	83.284691
loop_
_atom_site_label
_atom_site_type_symbol
_atom_site_fract_x
_atom_site_fract_y
_atom_site_fract_z
O1	O	1.004081	0.095713	-0.066173
O2	O	1.337415	0.429046	0.267160
O3	O	1.670748	0.762379	0.600493
O4	O	0.783703	0.108165	-0.066199
O5	O	1.117037	0.441498	0.267134
O6	O	1.450370	0.774832	0.600467
O7	O	0.900115	-0.008250	-0.066184
O8	O	1.233449	0.325083	0.267150
O9	O	1.566782	0.658417	0.600483
O10	O	0.887669	0.212128	-0.066189
O11	O	1.221003	0.545461	0.267144
O12	O	1.554336	0.878794	0.600478
O13	O	0.900100	-0.008257	0.066393
O14	O	1.233433	0.325076	0.399726
O15	O	1.566767	0.658410	0.733059
O16	O	0.783688	0.108158	0.066377
O17	O	1.117021	0.441491	0.399711
O18	O	1.450355	0.774825	0.733044
O19	O	1.004066	0.095705	0.066403
O20	O	1.337399	0.429039	0.399736
O21	O	1.670733	0.762372	0.733070
Zn22	Zn	0.893874	0.101931	0.087440
Zn23	Zn	1.227208	0.435264	0.420773
Zn24	Zn	1.560541	0.768597	0.754106
Zn25	Zn	0.893895	0.101940	-0.087236
Zn26	Zn	1.227228	0.435273	0.246098
Zn27	Zn	1.560561	0.768607	0.579431
O28	O	0.887654	0.212120	0.066388
O29	O	1.220987	0.545454	0.399721
O30	O	1.554321	0.878787	0.733054
C31	C	0.755499	0.107715	0.000086
C32	C	1.088832	0.441049	0.333419
C33	C	1.422165	0.774382	0.666752
C34	C	0.671480	0.106377	0.000076
C35	C	1.004814	0.439710	0.333409
C36	C	1.338147	0.773043	0.666742
C37	C	0.622862	0.174710	0.000074
C38	C	0.956195	0.508043	0.333408
C39	C	1.289528	0.841376	0.666741
C40	C	0.543918	0.173448	0.000085
C41	C	0.877251	0.506781	0.333418
C42	C	1.210585	0.840114	0.666751
C43	C	0.513595	0.103851	0.000091
C44	C	0.846929	0.437185	0.333424
C45	C	1.180262	0.770518	0.666757
C46	C	0.562220	0.035513	0.000095
C47	C	0.895554	0.368846	0.333428
C48	C	1.228887	0.702180	0.666761
C49	C	0.641162	0.036776	0.000090
C50	C	0.974496	0.370109	0.333423
C51	C	1.307829	0.703443	0.666757
C52	C	0.243857	0.030418	0.000114
C53	C	0.577191	0.363751	0.333448
C54	C	0.910524	0.697084	0.666781
C55	C	0.164909	0.029160	0.000117
C56	C	0.498243	0.362493	0.333450
C57	C	0.831576	0.695827	0.666783
C58	C	0.146613	0.167089	0.000109
C59	C	0.479946	0.500423	0.333443
C60	C	0.813280	0.833756	0.666776
C61	C	0.225555	0.168352	0.000105
C62	C	0.558888	0.501686	0.333438
C63	C	0.892222	0.835019	0.666771
C64	C	0.274173	0.100014	0.000113
C65	C	0.607507	0.433348	0.333446
C66	C	0.940840	0.766681	0.666779
C67	C	0.359772	0.101384	0.000103
C68	C	0.693106	0.434717	0.333436
C69	C	1.026439	0.768051	0.666770
C70	C	0.427998	0.102481	0.000095
C71	C	0.761331	0.435814	0.333428
C72	C	1.094664	0.769148	0.666761
C73	C	0.899661	-0.036450	0.000103
C74	C	1.232994	0.296883	0.333436
C75	C	1.566327	0.630216	0.666770
C76	C	0.898319	-0.120468	0.000099
C77	C	1.231653	0.212865	0.333433
C78	C	1.564986	0.546199	0.666766
C79	C	0.897700	-0.159932	-0.072169
C80	C	1.231033	0.173402	0.261164
C81	C	1.564366	0.506735	0.594498
C82	C	0.896435	-0.238875	-0.072170
C83	C	1.229768	0.094459	0.261163
C84	C	1.563101	0.427792	0.594496
C85	C	0.895795	-0.278353	0.000098
C86	C	1.229128	0.054980	0.333431
C87	C	1.562462	0.388313	0.666765
C88	C	0.896413	-0.238884	0.072372
C89	C	1.229746	0.094449	0.405705
C90	C	1.563079	0.427783	0.739039
C91	C	0.897672	-0.159942	0.072372
C92	C	1.231006	0.173392	0.405706
C93	C	1.564339	0.506725	0.739039
C94	C	0.891332	-0.557249	0.072373
C95	C	1.224666	-0.223916	0.405706
C96	C	1.557999	0.109418	0.739039
C97	C	0.890075	-0.636197	0.072367
C98	C	1.223408	-0.302864	0.405700
C99	C	1.556742	0.030470	0.739033
C100	C	0.890095	-0.636182	-0.072170
C101	C	1.223428	-0.302849	0.261163
C102	C	1.556761	0.030485	0.594497
C103	C	0.891354	-0.557240	-0.072170
C104	C	1.224688	-0.223906	0.261164
C105	C	1.558021	0.109427	0.594497
C106	C	0.891968	-0.517777	0.000104
C107	C	1.225301	-0.184443	0.333437
C108	C	1.558634	0.148890	0.666771
C109	C	0.893338	-0.432178	0.000104
C110	C	1.226671	-0.098844	0.333437
C111	C	1.560005	0.234489	0.666771
C112	C	0.894430	-0.363952	0.000099
C113	C	1.227764	-0.030618	0.333432
C114	C	1.561097	0.302715	0.666765
C115	C	1.032271	0.096155	0.000116
C116	C	1.365604	0.429489	0.333450
C117	C	1.698937	0.762822	0.666783
C118	C	1.116289	0.097494	0.000121
C119	C	1.449622	0.430827	0.333454
C120	C	1.782955	0.764160	0.666788
C121	C	0.888109	0.240321	0.000099
C122	C	1.221442	0.573654	0.333432
C123	C	1.554775	0.906988	0.666766
C124	C	0.889450	0.324339	0.000097
C125	C	1.222783	0.657672	0.333431
C126	C	1.556116	0.991005	0.666764
N127	N	0.893866	0.101924	0.206651
N128	N	1.227199	0.435257	0.539984
N129	N	1.560533	0.768590	0.873317
N130	N	0.893909	0.101941	-0.206447
N131	N	1.227242	0.435274	0.126886
N132	N	1.560576	0.768607	0.460220
C133	C	0.945429	0.050396	0.248375
C134	C	1.278762	0.383730	0.581708
C135	C	1.612096	0.717063	0.915041
C136	C	0.945433	0.050396	0.331827
C137	C	1.278767	0.383729	0.665160
C138	C	1.612100	0.717062	0.998494
C139	C	0.893878	0.101927	0.373554
C140	C	1.227211	0.435260	0.706887
C141	C	1.560544	0.768593	1.040220
C142	C	0.842309	0.153457	0.331824
C143	C	1.175642	0.486790	0.665157
C144	C	1.508976	0.820123	0.998491
C145	C	0.842302	0.153453	0.248373
C146	C	1.175635	0.486786	0.581707
C147	C	1.508969	0.820120	0.915040
C148	C	0.842337	0.153471	0.668371
C149	C	1.175670	0.486805	1.001704
C150	C	1.509003	0.820138	1.335038
C151	C	0.842349	0.153472	0.751828
C152	C	1.175683	0.486806	1.085161
C153	C	1.509016	0.820139	1.418494
C154	C	0.945468	0.050414	0.751825
C155	C	1.278801	0.383747	1.085158
C156	C	1.612134	0.717081	1.418491
C157	C	0.945461	0.050410	0.668374
C158	C	1.278794	0.383744	1.001707
C159	C	1.612127	0.717077	1.335041
C160	C	0.893890	0.101937	0.626652
C161	C	1.227223	0.435271	0.959985
C162	C	1.560557	0.768604	1.293318
C163	C	0.893885	0.101936	0.536163
C164	C	1.227218	0.435270	0.869497
C165	C	1.560552	0.768603	1.202830
C166	C	0.893885	0.101932	0.464040
C167	C	1.227219	0.435265	0.797374
C168	C	1.560552	0.768598	1.130707
H169	H	0.283433	-0.025227	0.000121
H170	H	0.616767	0.308106	0.333455
H171	H	0.950100	0.641439	0.666788
O172	O	0.786736	0.209056	0.796832
O173	O	1.120070	0.542389	1.130165
O174	O	1.453403	0.875722	1.463498
H175	H	0.795414	0.200406	0.861869
H176	H	1.128748	0.533739	1.195203
H177	H	1.462081	0.867072	1.528536
O178	O	1.001094	-0.005165	0.796825
O179	O	1.334427	0.328169	1.130158
O180	O	1.667760	0.661502	1.463491
H181	H	0.991570	-0.064157	0.780810
H182	H	1.324903	0.269176	1.114143
H183	H	1.658237	0.602510	1.447476
H184	H	0.898224	-0.127794	-0.131018
H185	H	1.231558	0.205539	0.202315
H186	H	1.564891	0.538872	0.535648
O187	O	0.895728	-0.281437	-0.150116
O188	O	1.229062	0.051896	0.183217
O189	O	1.562395	0.385230	0.516551
H190	H	0.896380	-0.240722	-0.200368
H191	H	1.229713	0.092611	0.132965
H192	H	1.563047	0.425945	0.466299
H193	H	0.891879	-0.525101	-0.131018
H194	H	1.225212	-0.191767	0.202315
H195	H	1.558545	0.141566	0.535649
O196	O	0.491476	0.247149	0.000084
O197	O	0.824810	0.580482	0.333417
O198	O	1.158143	0.913816	0.666750
H199	H	0.525824	0.295755	0.000069
H200	H	0.859157	0.629088	0.333403
H201	H	1.192491	0.962422	0.666736
O202	O	0.529521	-0.039555	0.000104
O203	O	0.862855	0.293778	0.333437
O204	O	1.196188	0.627112	0.666771
H205	H	0.466460	-0.028955	0.000100
H206	H	0.799793	0.304379	0.333433
H207	H	1.133126	0.637712	0.666766
H208	H	0.987415	0.008437	0.214406
H209	H	1.320748	0.341770	0.547740
H210	H	1.654081	0.675104	0.881073
H211	H	0.800347	0.195428	0.634407
H212	H	1.133681	0.528761	0.967741
H213	H	1.467014	0.862094	1.301074
O214	O	0.892004	-0.514701	0.150327
O215	O	1.225338	-0.181368	0.483660
O216	O	1.558671	0.151966	0.816994
H217	H	0.841008	-0.471902	0.153791
H218	H	1.174341	-0.138568	0.487124
H219	H	1.507674	0.194765	0.820458
H220	H	0.889591	-0.668322	-0.131019
H221	H	1.222925	-0.334988	0.202315
H222	H	1.556258	-0.001655	0.535648
O223	O	0.786703	0.209042	0.376823
O224	O	1.120036	0.542375	0.710156
O225	O	1.453370	0.875709	1.043490
H226	H	0.795376	0.200396	0.441862
H227	H	1.128709	0.533729	0.775195
H228	H	1.462043	0.867062	1.108529
H229	H	0.140224	-0.027517	0.000123
H230	H	0.473557	0.305816	0.333456
H231	H	0.806891	0.639150	0.666789
O232	O	1.001061	-0.005179	0.623373
O233	O	1.334394	0.328154	0.956706
O234	O	1.667727	0.661487	1.290040
H235	H	0.992394	0.003476	0.558335
H236	H	1.325727	0.336810	0.891668
H237	H	1.659061	0.670143	1.225001
H238	H	0.250239	0.225025	0.000096
H239	H	0.583572	0.558358	0.333429
H240	H	0.916906	0.891691	0.666763
H241	H	0.895887	-0.271033	0.131214
H242	H	1.229221	0.062300	0.464547
H243	H	1.562554	0.395633	0.797881
H244	H	0.898166	-0.127810	0.131221
H245	H	1.231500	0.205523	0.464554
H246	H	1.564833	0.538857	0.797887
O247	O	0.786692	0.209032	0.203364
O248	O	1.120025	0.542365	0.536698
O249	O	1.453359	0.875699	0.870031
H250	H	0.750848	0.244871	0.246398
H251	H	1.084181	0.578204	0.579731
H252	H	1.417515	0.911538	0.913064
O253	O	1.001063	-0.005172	0.376822
O254	O	1.334397	0.328162	0.710156
O255	O	1.667730	0.661495	1.043489
H256	H	0.991546	-0.064166	0.360808
H257	H	1.324879	0.269167	0.694142
H258	H	1.658212	0.602501	1.027475
O259	O	0.655566	0.249775	0.000076
O260	O	0.988900	0.583108	0.333409
O261	O	1.322233	0.916441	0.666742
H262	H	0.608493	0.297078	0.000087
H263	H	0.941826	0.630412	0.333420
H264	H	1.275159	0.963745	0.666754
O265	O	0.693607	-0.036925	0.000089
O266	O	1.026941	0.296408	0.333422
O267	O	1.360274	0.629742	0.666756
H268	H	0.659261	-0.085533	0.000087
H269	H	0.992595	0.247801	0.333420
H270	H	1.325928	0.581134	0.666753
H271	H	0.889552	-0.668338	0.131220
H272	H	1.222886	-0.335005	0.464553
H273	H	1.556219	-0.001672	0.797886
O274	O	0.094176	0.240802	0.000118
O275	O	0.427509	0.574135	0.333451
O276	O	0.760843	0.907468	0.666785
H277	H	0.034188	0.228236	0.000134
H278	H	0.367521	0.561569	0.333468
H279	H	0.700854	0.894903	0.666801
