data_functionalizedCrystal
_audit_creation_method	'MofGen! by Chris Wilmer'
_symmetry_space_group_name_H-M	'P1'
_symmetry_Int_Tables_number	1
_symmetry_cell_setting	triclinic
loop_
_symmetry_equiv_pos_as_xyz
  x,y,z
_cell_length_a	15.072220
_cell_length_b	14.971486
_cell_length_c	14.971487
_cell_angle_alpha	83.614266
_cell_angle_beta	89.999616
_cell_angle_gamma	89.992455
loop_
_atom_site_label
_atom_site_type_symbol
_atom_site_fract_x
_atom_site_fract_y
_atom_site_fract_z
O1	O	0.073679	-1.186956	-0.116557
O2	O	0.073703	-0.926556	-0.130516
O3	O	0.073686	-1.063735	0.006664
O4	O	0.073696	-1.049777	-0.253736
O5	O	-0.073879	-1.063701	0.006656
O6	O	-0.073862	-0.926522	-0.130523
O7	O	-0.073886	-1.186922	-0.116564
Zn8	Zn	-0.097303	-1.056717	-0.123545
Zn9	Zn	0.097120	-1.056761	-0.123535
O10	O	-0.073869	-1.049743	-0.253744
C11	C	-0.000077	-0.893214	-0.129895
C12	C	-0.000067	-0.793917	-0.128024
N13	N	-0.229992	-1.056693	-0.123551
C14	C	-0.000096	-1.063094	0.039985
C15	C	-0.000093	-1.061223	0.139282
C16	C	-0.589194	-1.056759	-0.123531
C17	C	-0.551578	-0.983111	-0.196687
C18	C	-0.448752	-0.983280	-0.196954
C19	C	-0.410990	-1.056726	-0.123541
C20	C	-0.448289	-1.150076	-0.144025
C21	C	-0.551146	-1.149663	-0.144545
C22	C	-0.551295	-1.037890	-0.029676
C23	C	-0.448432	-1.035749	-0.030300
C24	C	-0.310276	-1.056712	-0.123545
C25	C	-0.689907	-1.056779	-0.123530
N26	N	0.229809	-1.056792	-0.123522
C27	C	-0.000105	-1.220264	-0.117185
C28	C	-0.000108	-1.319561	-0.119055
C29	C	-0.000066	-0.736692	-0.208614
C30	C	-0.000079	-0.643393	-0.206850
C31	C	-0.000088	-0.607320	-0.124497
C32	C	-0.000092	-0.664552	-0.043902
C33	C	-0.000085	-0.757850	-0.045666
C34	C	-0.000104	-0.470090	-0.040231
C35	C	-0.000110	-0.376786	-0.038466
C36	C	-0.000098	-0.355632	-0.201415
C37	C	-0.000091	-0.448930	-0.203179
C38	C	-0.000094	-0.506156	-0.122584
C39	C	-0.000100	-1.141812	0.196507
C40	C	-0.000090	-1.140049	0.289807
C41	C	-0.000078	-1.057695	0.325879
C42	C	-0.000068	-0.977100	0.268646
C43	C	-0.000072	-0.978864	0.175349
C44	C	-0.000061	-0.973428	0.463109
C45	C	-0.000059	-0.971664	0.556413
C46	C	-0.000078	-1.134613	0.577567
C47	C	-0.000083	-1.136377	0.484269
C48	C	-0.000075	-1.055781	0.427043
C49	C	-0.000082	-1.050384	0.712935
C50	C	-0.000066	-1.052253	0.613638
H51	H	-0.423535	-0.913894	-0.184735
Br52	Br	-0.000047	-0.864047	0.385445
H53	H	-0.424054	-0.967079	-0.014757
Br54	Br	-0.594620	-1.002942	-0.312121
H55	H	-0.000082	-1.200237	0.624165
Br56	Br	-0.405339	-1.178428	-0.256815
H57	H	-0.576333	-0.913501	-0.184667
Br58	Br	-0.000129	-1.253583	0.147562
H59	H	-0.424137	-0.995340	-0.266601
H60	H	-0.000100	-0.309034	-0.267039
H61	H	-0.575127	-1.166276	-0.212996
H62	H	-0.000053	-0.910046	0.298024
H63	H	-0.000097	-1.205672	0.336396
H64	H	-0.000077	-0.596803	-0.272474
Br65	Br	-0.000045	-0.785638	-0.320385
Br66	Br	-0.405607	-1.119344	0.064703
Br67	Br	-0.000066	-0.497886	-0.314946
Br68	Br	-0.000096	-1.248143	0.435314
H69	H	-0.000086	-0.804443	0.019958
Br70	Br	-0.591836	-1.127405	0.061063
Br71	Br	-0.000151	-0.327830	0.073300
Br72	Br	-0.000047	-0.859897	0.605368
H73	H	-0.576028	-1.206184	-0.093369
H74	H	-0.000108	-0.516682	0.025399
Br75	Br	-0.000113	-0.615598	0.067865
H76	H	-0.423826	-1.206194	-0.092164
H77	H	-0.000066	-0.913240	0.128756
H78	H	-0.577280	-0.971292	-0.010004
