data_functionalizedCrystal
_audit_creation_method	'MofGen! by Chris Wilmer'
_symmetry_space_group_name_H-M	'P1'
_symmetry_Int_Tables_number	1
_symmetry_cell_setting	triclinic
loop_
_symmetry_equiv_pos_as_xyz
  x,y,z
_cell_length_a	23.096457
_cell_length_b	16.704494
_cell_length_c	16.704479
_cell_angle_alpha	60.174845
_cell_angle_beta	89.998476
_cell_angle_gamma	63.426309
loop_
_atom_site_label
_atom_site_type_symbol
_atom_site_fract_x
_atom_site_fract_y
_atom_site_fract_z
Zr1	Zr	0.595135	0.863910	-0.142487
O2	O	0.513216	1.018035	-0.271916
O3	O	0.615748	0.701127	-0.097156
O4	O	0.627515	0.851426	-0.263767
O5	O	0.497286	0.880604	0.019689
O6	O	0.722796	0.851427	-0.263772
O7	O	0.501449	0.867736	-0.105305
O8	O	0.701746	0.582571	0.034265
O9	O	0.518335	1.149460	-0.278348
O10	O	0.701083	0.771291	-0.084658
O11	O	0.626869	0.780892	0.008627
O12	O	0.640724	0.957849	-0.187537
O13	O	0.566510	0.967451	-0.094252
Zr14	Zr	0.740458	0.884435	0.056855
Zr15	Zr	0.747097	0.863913	-0.142495
Zr16	Zr	0.588496	0.884433	0.056862
Zr17	Zr	0.603300	1.073519	-0.152746
Zr18	Zr	0.732293	0.674827	0.067114
O19	O	0.719845	1.047219	0.011523
O20	O	0.729286	1.018038	-0.271926
O21	O	0.503775	1.047215	0.011534
O22	O	0.822377	0.730311	0.186283
O23	O	0.831818	0.701131	-0.097166
O24	O	0.606308	0.730307	0.186294
O25	O	0.838308	0.867742	-0.105321
O26	O	0.708078	0.896920	0.178135
O27	O	0.612797	0.896918	0.178139
O28	O	0.834145	0.880610	0.019672
O29	O	0.639124	1.149462	-0.278354
O30	O	0.696469	0.598883	0.192722
O31	O	0.817258	0.598886	0.192716
O32	O	0.822536	0.582573	0.034259
O33	O	0.513057	1.165773	-0.119892
O34	O	0.633847	1.165775	-0.119898
O35	O	0.694869	0.790496	0.101904
O36	O	0.769083	0.780895	0.008620
O37	O	0.708724	0.967454	-0.094259
O38	O	0.634510	0.977055	-0.000974
C39	C	0.657584	0.611984	-0.029984
C40	C	0.654118	0.523000	-0.025628
C41	C	0.477716	0.874169	-0.042807
C42	C	0.413204	0.874168	-0.042804
C43	C	0.725100	0.345749	-0.114828
C44	C	0.721846	0.262140	-0.110738
C45	C	0.644358	0.272166	-0.013354
C46	C	0.647613	0.355775	-0.017444
C47	C	0.687984	0.392564	-0.068183
C48	C	0.691235	0.476180	-0.072278
C49	C	0.613752	0.486199	0.025111
C50	C	0.610497	0.402590	0.029200
C51	C	0.414406	0.776789	0.010889
C52	C	0.353790	0.776787	0.010893
C53	C	0.291974	0.874170	-0.042814
C54	C	0.290775	0.971563	-0.096509
C55	C	0.351390	0.971562	-0.096504
N56	N	0.174786	0.942230	-0.125793
N57	N	0.117207	0.942224	-0.125796
C58	C	0.109342	0.874178	-0.042831
N59	N	0.161238	0.806122	0.040137
N60	N	0.218824	0.806124	0.040138
C61	C	0.226244	0.874182	-0.042825
C62	C	0.044819	0.776791	0.010871
C63	C	-0.015799	0.776794	0.010877
C64	C	-0.078813	0.971571	-0.096534
C65	C	-0.018195	0.971566	-0.096531
C66	C	0.043618	0.874172	-0.042831
C67	C	0.857877	0.874176	-0.042826
C68	C	0.922389	0.874178	-0.042829
C69	C	0.676101	0.848503	-0.292172
C70	C	0.678920	0.839790	-0.376802
C71	C	0.678009	1.136362	-0.055649
C72	C	0.681475	1.225346	-0.060004
C73	C	0.714400	0.730138	-0.442387
C74	C	0.711752	0.738317	-0.362867
C75	C	0.648735	0.933092	-0.470267
C76	C	0.651383	0.924913	-0.549788
C77	C	0.684215	0.823432	-0.535843
C78	C	0.686858	0.815254	-0.615365
C79	C	0.623845	1.010028	-0.722764
C80	C	0.621198	1.018207	-0.643243
C81	C	0.659492	0.899843	0.206540
C82	C	0.656673	0.908556	0.291169
C83	C	0.847665	0.611988	-0.029993
C84	C	0.908710	0.523004	-0.025641
C85	C	0.649279	0.637655	0.219373
C86	C	0.642994	0.557382	0.308357
C87	C	0.839360	0.637658	0.219363
C88	C	0.897587	0.557387	0.308345
C89	C	0.496233	1.110688	-0.304996
C90	C	0.438006	1.190959	-0.393977
C91	C	0.487928	1.136358	-0.055639
C92	C	0.426883	1.225341	-0.059992
C93	C	0.686314	1.110691	-0.305005
C94	C	0.692599	1.190963	-0.393990
C95	C	0.901883	0.476203	-0.072295
C96	C	0.959237	0.392603	-0.068225
C97	C	1.023418	0.355802	-0.017495
C98	C	1.030244	0.402612	0.029161
C99	C	0.972891	0.486215	0.025085
C100	C	0.675538	0.524700	0.398844
C101	C	0.669630	0.449288	0.482461
C102	C	0.631183	0.406555	0.475590
C103	C	0.598635	0.439244	0.385094
C104	C	0.604539	0.514660	0.301479
C105	C	0.963676	0.514679	0.301438
C106	C	1.018393	0.439267	0.385037
C107	C	1.007019	0.406558	0.475542
C108	C	0.940923	0.449274	0.482447
C109	C	0.886208	0.524691	0.398849
C110	C	0.371918	1.233677	-0.387071
C111	C	0.317202	1.309115	-0.470671
C112	C	0.328576	1.341828	-0.561177
C113	C	0.394671	1.299107	-0.568081
C114	C	0.449386	1.223676	-0.484482
C115	C	0.433711	1.272151	-0.013346
C116	C	0.376358	1.355771	-0.017439
C117	C	0.312178	1.392575	-0.068173
C118	C	0.305351	1.345762	-0.114824
C119	C	0.362704	1.262148	-0.110736
C120	C	0.731052	1.233674	-0.387088
C121	C	0.736970	1.309088	-0.470690
C122	C	0.704431	1.341796	-0.561193
C123	C	0.665976	1.299077	-0.568093
C124	C	0.660063	1.223659	-0.484491
H125	H	0.724106	0.506136	-0.113596
N126	N	0.768632	0.385447	-0.169562
H127	H	0.791649	0.343106	-0.198496
H128	H	0.803892	0.375502	-0.124143
N129	N	0.704742	0.414027	0.580062
H130	H	0.687517	0.478587	0.584382
H131	H	0.755059	0.380079	0.589138
H132	H	0.403924	1.325751	-0.641781
H133	H	0.350407	1.050863	-0.140225
N134	N	0.749804	0.620696	-0.427364
H135	H	0.727418	0.579547	-0.390052
H136	H	0.798811	0.579624	-0.390079
N137	N	0.975948	0.549962	0.203824
H138	H	0.953062	0.531788	0.169374
H139	H	1.026130	0.511451	0.212220
H140	H	0.594469	1.100829	-0.654584
H141	H	0.381930	1.393874	0.020555
N142	N	0.111493	0.671752	0.068790
H143	H	0.103054	0.610061	0.102813
H144	H	0.136454	0.672332	0.117960
N145	N	1.085271	0.265629	-0.013107
H146	H	1.081664	0.199111	0.017995
H147	H	1.126937	0.249501	0.026090
N148	N	0.710822	1.423135	-0.651352
H149	H	0.692407	1.492503	-0.654771
H150	H	0.684384	1.437295	-0.709691
H151	H	0.578040	0.541259	0.227804
N152	N	0.245916	1.355181	-0.463220
H153	H	0.240423	1.393467	-0.429774
H154	H	0.236632	1.294946	-0.425002
N155	N	0.761875	0.211659	-0.161058
H156	H	0.730032	0.221166	-0.210771
H157	H	0.794470	0.132348	-0.112234
H158	H	1.051578	0.345148	0.543606
N159	N	0.481072	0.671747	0.068825
H160	H	0.519292	0.686519	0.060685
H161	H	0.485801	0.624397	0.045447
N162	N	0.250319	1.482746	-0.072566
H163	H	0.226037	1.545345	-0.141903
H164	H	0.264438	1.506718	-0.035264
H165	H	0.503197	1.188894	-0.490117
H166	H	0.622012	1.015711	-0.481603
H167	H	0.713589	0.732624	-0.604007
N168	N	-0.019489	1.076598	-0.154462
H169	H	0.028290	1.061822	-0.146310
H170	H	-0.045405	1.123950	-0.131086
N171	N	0.744311	0.637694	-0.262067
H172	H	0.765511	0.572170	-0.265305
H173	H	0.708888	0.636842	-0.226731
N174	N	0.591281	1.110662	-0.823566
H175	H	0.597937	1.090085	-0.871829
H176	H	0.612755	1.154623	-0.833122
N177	N	0.624829	0.325203	0.565786
H178	H	0.643254	0.255823	0.569226
H179	H	0.575684	0.354384	0.564363
N180	N	0.236126	1.385446	-0.169523
H181	H	0.200834	1.445508	-0.165019
H182	H	0.227178	1.324217	-0.140811
H183	H	1.072206	0.404494	0.379398
H184	H	0.583526	0.524330	0.063088
N185	N	0.355088	0.671743	0.068797
H186	H	0.332905	0.662597	0.024347
H187	H	0.329796	0.672270	0.118021
N188	N	0.778442	1.355155	-0.463224
H189	H	0.748699	1.435910	-0.498152
H190	H	0.816260	1.337348	-0.493299
H191	H	0.611498	0.242185	0.027968
N192	N	0.355334	1.211664	-0.161050
H193	H	0.305972	1.247672	-0.193805
H194	H	0.374101	1.132338	-0.112235
N195	N	0.566959	0.362903	0.083930
H196	H	0.570530	0.302831	0.079446
H197	H	0.518390	0.424124	0.055235
N198	N	0.630883	1.334360	-0.665710
H199	H	0.640466	1.388621	-0.717616
H200	H	0.580568	1.368240	-0.674775
H201	H	0.485964	1.242193	0.027973
N202	N	0.832664	0.515883	-0.127013
H203	H	0.837052	0.473542	-0.155950
H204	H	0.810798	0.594775	-0.180068
H205	H	0.757550	1.207055	-0.313403
N206	N	0.618585	1.177598	-0.491943
H207	H	0.598871	1.209770	-0.561964
H208	H	0.580803	1.195335	-0.461792
N209	N	1.099471	0.362895	0.083883
H210	H	1.101535	0.335205	0.153701
H211	H	1.108461	0.424081	0.055158
N212	N	0.951866	0.342127	-0.118550
H213	H	0.902504	0.378124	-0.151296
H214	H	0.970642	0.262797	-0.069741
H215	H	0.240441	1.050852	-0.140237
N216	N	0.980258	0.536690	0.075409
H217	H	1.002285	0.479904	0.146644
H218	H	0.934168	0.595246	0.065057
N219	N	0.928663	0.413975	0.580069
H220	H	0.878493	0.452468	0.571770
H221	H	0.951596	0.432138	0.614469
H222	H	0.832396	0.559454	0.404486
N223	N	0.717010	0.570779	0.406268
H224	H	0.736724	0.538626	0.476285
H225	H	0.687226	0.651532	0.371287
H226	H	0.362643	1.207046	-0.313384
N227	N	0.557174	0.393141	0.377688
H228	H	0.519365	0.410857	0.407804
H229	H	0.586982	0.312398	0.412614
H230	H	-0.129144	1.050862	-0.140264
N231	N	-0.014505	0.671759	0.068797
H232	H	0.033853	0.610065	0.102813
H233	H	-0.036723	0.662703	0.024302
N234	N	0.269558	1.423185	-0.651341
H235	H	0.225967	1.445275	-0.633223
H236	H	0.269725	1.390091	-0.688153
