data_functionalizedCrystal
_audit_creation_method	'MofGen! by Chris Wilmer'
_symmetry_space_group_name_H-M	'P1'
_symmetry_Int_Tables_number	1
_symmetry_cell_setting	triclinic
loop_
_symmetry_equiv_pos_as_xyz
  x,y,z
_cell_length_a	10.654556
_cell_length_b	10.540539
_cell_length_c	9.130313
_cell_angle_alpha	89.997616
_cell_angle_beta	89.998135
_cell_angle_gamma	84.506514
loop_
_atom_site_label
_atom_site_type_symbol
_atom_site_fract_x
_atom_site_fract_y
_atom_site_fract_z
O1	O	1.667898	0.178339	-0.121736
O2	O	1.302426	0.195318	-0.121751
O3	O	1.493500	0.002119	-0.121741
O4	O	1.476824	0.371538	-0.121746
O5	O	1.493487	0.002114	0.121857
O6	O	1.302413	0.195312	0.121848
O7	O	1.667884	0.178334	0.121862
Cu8	Cu	1.485147	0.186822	0.144098
Cu9	Cu	1.485163	0.186829	-0.143986
O10	O	1.476811	0.371532	0.121853
C11	C	1.255621	0.194067	0.000047
C12	C	1.116177	0.190332	0.000041
C13	C	1.492243	-0.045186	0.000055
C14	C	1.488501	-0.186133	0.000047
C15	C	0.919637	0.185076	-0.132733
C16	C	1.050660	0.188578	-0.132742
C17	C	1.050665	0.188571	0.132842
C18	C	0.919645	0.185061	0.132850
C19	C	1.345130	-0.369511	-0.000505
C20	C	1.348923	-0.222895	0.000043
C21	C	1.555665	-0.247816	0.139157
C22	C	1.550901	-0.394359	0.139274
C23	C	1.553755	-0.394872	-0.137744
C24	C	1.555041	-0.247891	-0.139583
C25	C	1.714689	0.179585	0.000062
C26	C	1.854133	0.183320	0.000058
C27	C	1.478068	0.418838	0.000053
C28	C	1.481809	0.559784	0.000052
N29	N	1.485146	0.186817	0.346720
N30	N	1.485175	0.186825	-0.346609
C31	C	1.569782	0.101305	0.423376
C32	C	1.569794	0.101305	0.576713
C33	C	1.400529	0.272341	0.576725
C34	C	1.400512	0.272333	0.423390
H35	H	0.866302	0.183657	-0.240861
F36	F	1.659873	0.010289	0.658291
F37	F	1.273065	-0.406863	-0.130898
F38	F	1.659853	0.010287	0.341784
H39	H	1.103988	0.190006	-0.240874
H40	H	1.104020	0.189992	0.240957
F41	F	1.310464	0.363352	0.658332
F42	F	1.682104	-0.457106	0.147543
H43	H	1.331585	0.341968	0.360973
H44	H	1.296075	-0.180271	-0.099676
F45	F	0.849927	0.183188	0.274192
H46	H	1.295693	-0.181123	0.099925
F47	F	1.486003	-0.431203	0.275183
F48	F	1.273160	-0.409402	0.128794
F49	F	1.689643	-0.218646	0.145928
H50	H	1.508586	-0.426407	-0.243179
F51	F	1.491311	-0.193867	-0.274113
F52	F	1.494670	-0.192123	0.274464
F53	F	1.688052	-0.216270	-0.150567
H54	H	1.654572	-0.442132	-0.138675
