data_functionalizedCrystal
_audit_creation_method	'MofGen! by Chris Wilmer'
_symmetry_space_group_name_H-M	'P1'
_symmetry_Int_Tables_number	1
_symmetry_cell_setting	triclinic
loop_
_symmetry_equiv_pos_as_xyz
  x,y,z
_cell_length_a	14.446369
_cell_length_b	14.446369
_cell_length_c	18.878441
_cell_angle_alpha	89.999679
_cell_angle_beta	59.999419
_cell_angle_gamma	59.996355
loop_
_atom_site_label
_atom_site_type_symbol
_atom_site_fract_x
_atom_site_fract_y
_atom_site_fract_z
Zr1	Zr	1.013203	0.891726	-0.092939
O2	O	1.206334	0.743908	-0.206050
O3	O	0.820079	0.937045	-0.058264
O4	O	1.013202	0.937038	-0.206044
O5	O	1.013208	0.743915	0.058301
O6	O	1.013194	1.089375	-0.206040
O7	O	1.013210	0.743916	-0.058270
O8	O	0.667731	1.089388	0.058312
O9	O	1.358671	0.743902	-0.206051
O10	O	0.899505	1.070054	-0.043473
O11	O	0.899509	0.956366	0.043520
O12	O	1.126887	0.956357	-0.130473
O13	O	1.126892	0.842669	-0.043480
Zr14	Zr	1.013186	1.134684	0.092985
Zr15	Zr	1.013189	1.134686	-0.092932
Zr16	Zr	1.013199	0.891724	0.092978
Zr17	Zr	1.256163	0.891714	-0.092940
Zr18	Zr	0.770226	1.134695	0.092986
O19	O	1.206310	1.089364	0.058309
O20	O	1.206315	1.089366	-0.206041
O21	O	1.206329	0.743906	0.058300
O22	O	0.820055	1.282501	0.206096
O23	O	0.820060	1.282503	-0.058254
O24	O	0.820074	0.937043	0.206086
O25	O	1.013181	1.282495	-0.058255
O26	O	1.013186	1.089371	0.206089
O27	O	1.013195	0.937034	0.206085
O28	O	1.013178	1.282493	0.058316
O29	O	1.358660	0.937022	-0.206046
O30	O	0.667729	1.089387	0.206091
O31	O	0.667718	1.282508	0.206097
O32	O	0.667721	1.282509	0.058318
O33	O	1.358668	0.743900	-0.058272
O34	O	1.358657	0.937021	-0.058267
O35	O	0.899501	1.070052	0.130518
O36	O	0.899497	1.183741	0.043526
O37	O	1.126879	1.070044	-0.043474
O38	O	1.126884	0.956355	0.043518
C39	C	0.709288	1.013218	0.000025
C40	C	0.606146	1.013223	0.000025
C41	C	0.566861	1.084929	-0.054850
C42	C	0.459941	1.084594	-0.055145
C43	C	0.546957	0.889621	-0.039715
C44	C	0.654333	0.890035	-0.040127
C45	C	0.479328	1.064079	0.094665
C46	C	0.370865	1.066554	0.094520
C47	C	1.013211	0.709299	0.000014
C48	C	1.013217	0.606156	0.000011
C49	C	1.156612	0.387781	-0.054583
C50	C	1.156709	0.495013	-0.054890
C51	C	0.941985	0.602836	-0.040010
C52	C	0.942895	0.495067	-0.040410
C53	C	0.939940	0.496429	0.094696
C54	C	0.942642	0.602398	0.094547
C55	C	1.317100	1.013191	0.000021
C56	C	1.420243	1.013186	0.000021
C57	C	1.013199	1.013207	-0.232531
C58	C	1.013200	1.013208	-0.311457
C59	C	1.013178	1.317111	0.000031
C60	C	1.013172	1.420254	0.000034
C61	C	1.013197	1.097131	-0.348535
C62	C	1.013187	1.097135	-0.422690
C63	C	1.013189	1.013209	-0.459771
C64	C	1.013188	0.929281	-0.422686
C65	C	1.013189	0.929283	-0.348529
C66	C	1.013189	0.929281	-0.577256
C67	C	1.013191	0.929278	-0.651420
C68	C	1.013188	1.097133	-0.651417
C69	C	1.013189	1.097135	-0.577260
C70	C	1.013190	1.013205	-0.540182
C71	C	1.013190	1.013202	0.232576
C72	C	1.013188	1.013201	0.311503
C73	C	0.709272	1.317125	0.000033
C74	C	0.606123	1.420272	0.000037
C75	C	0.709284	1.013216	0.232578
C76	C	0.606140	1.013220	0.311505
C77	C	0.709267	1.317122	0.232587
C78	C	0.606117	1.420269	0.311517
C79	C	1.317121	0.709287	-0.232541
C80	C	1.420271	0.606140	-0.311471
C81	C	1.317117	0.709285	0.000013
C82	C	1.420265	0.606137	0.000009
C83	C	1.317104	1.013193	-0.232533
C84	C	1.420249	1.013189	-0.311460
C85	C	0.557698	1.072565	0.393991
C86	C	0.460797	1.072564	0.468158
C87	C	0.412332	1.013225	0.459839
C88	C	0.460783	0.953872	0.377345
C89	C	0.557690	0.953867	0.303179
C90	C	0.557675	1.528062	0.303174
C91	C	0.460768	1.624989	0.377330
C92	C	0.412299	1.614120	0.459828
C93	C	0.460751	1.506315	0.468169
C94	C	0.557663	1.409391	0.394014
C95	C	1.468726	0.498347	-0.303128
C96	C	1.565662	0.401420	-0.377285
C97	C	1.614137	0.412289	-0.459782
C98	C	1.565678	0.520094	-0.468123
C99	C	1.468749	0.617018	-0.393968
C100	C	1.468683	1.072541	-0.303112
C101	C	1.565585	1.072559	-0.377266
C102	C	1.614058	1.013219	-0.459766
C103	C	1.565614	0.953866	-0.468111
C104	C	1.468707	0.953855	-0.393959
C105	C	0.459796	1.638647	0.054625
C106	C	0.566725	1.531410	0.054936
C107	C	0.479263	1.423606	0.040057
C108	C	0.371879	1.531380	0.040454
C109	C	0.546862	1.530000	-0.094654
C110	C	0.655340	1.424026	-0.094501
H111	H	0.439849	1.153727	0.127889
H112	H	1.692966	1.013237	-0.520138
Cl113	Cl	0.517293	1.721953	0.013391
Cl114	Cl	0.517986	1.030069	-0.162934
H115	H	1.605017	1.120890	-0.370454
Cl116	Cl	1.022805	0.601623	0.140720
H117	H	0.333425	1.013238	0.520236
H118	H	0.280480	1.157591	0.124206
Cl119	Cl	0.618568	0.879261	0.199486
Cl120	Cl	1.407806	0.484653	-0.199426
H121	H	1.212906	0.333822	-0.027874
Cl122	Cl	0.399839	0.879282	0.366900
H123	H	0.370123	1.693637	0.124032
Cl124	Cl	0.320959	0.994317	0.162914
Cl125	Cl	1.013182	1.202642	-0.469302
H126	H	1.605096	0.905553	-0.535292
H127	H	0.370705	1.175572	-0.028519
H128	H	1.429231	1.120862	-0.235943
H129	H	0.501514	1.345337	0.002193
H130	H	0.597124	1.536934	0.236007
Cl131	Cl	1.243111	0.302890	-0.161746
H132	H	1.013184	0.860940	-0.547067
Cl133	Cl	1.013189	0.823768	-0.698027
Cl134	Cl	1.013181	0.823777	-0.469297
Cl135	Cl	1.013198	1.202636	-0.530647
Cl136	Cl	1.626557	0.265909	-0.366779
H137	H	0.991462	0.604969	-0.109007
Cl138	Cl	0.290463	1.735980	0.553045
H139	H	0.529744	1.176150	-0.028368
H140	H	0.421328	1.712759	0.370523
H141	H	0.656655	1.049963	-0.124248
Cl142	Cl	0.517245	0.983833	0.158078
Cl143	Cl	1.013190	1.202641	-0.698033
Cl144	Cl	1.013185	0.823778	-0.301915
H145	H	0.421273	1.497482	0.535349
Cl146	Cl	1.243546	0.491230	-0.162702
H147	H	0.529256	1.533869	0.124766
H148	H	0.597147	1.120887	0.400781
H149	H	1.693062	0.333358	-0.520157
H150	H	1.013204	1.165469	-0.318352
Cl151	Cl	0.399902	1.147189	0.571854
Cl152	Cl	0.618543	1.273883	0.404517
H153	H	1.429283	0.905519	-0.400767
H154	H	0.993518	0.444721	-0.110069
Cl155	Cl	0.780420	0.536217	0.017023
Cl156	Cl	0.794633	0.827221	-0.147635
H157	H	1.605158	0.528930	-0.535302
H158	H	1.429299	0.704786	-0.400771
Cl159	Cl	0.704720	1.533848	0.013432
Cl160	Cl	0.231750	1.609124	0.148000
H161	H	0.341927	1.504728	0.003241
Cl162	Cl	0.419718	1.420320	0.146587
H163	H	0.586432	1.580016	-0.128086
Cl164	Cl	0.795063	1.424807	-0.140667
H165	H	0.836480	0.681108	-0.002145
Cl166	Cl	0.780994	0.724599	0.162658
Cl167	Cl	0.704944	1.301812	-0.162616
Cl168	Cl	0.508594	1.487625	-0.157778
H169	H	0.524485	0.833840	-0.001649
Cl170	Cl	0.700255	0.803007	0.017610
H171	H	0.585623	0.848637	-0.108677
H172	H	0.985834	0.446403	0.128130
Cl173	Cl	1.242992	0.492517	-0.013446
H174	H	0.834275	0.523872	0.135583
