data_functionalizedCrystal
_audit_creation_method	'MofGen! by Chris Wilmer'
_symmetry_space_group_name_H-M	'P1'
_symmetry_Int_Tables_number	1
_symmetry_cell_setting	triclinic
loop_
_symmetry_equiv_pos_as_xyz
  x,y,z
_cell_length_a	8.634740
_cell_length_b	15.995350
_cell_length_c	7.088929
_cell_angle_alpha	83.778427
_cell_angle_beta	97.174953
_cell_angle_gamma	92.031341
loop_
_atom_site_label
_atom_site_type_symbol
_atom_site_fract_x
_atom_site_fract_y
_atom_site_fract_z
O1	O	2.030234	0.280321	-0.158962
O2	O	1.581281	0.257429	-0.158968
O3	O	1.818030	0.147977	-0.158963
O4	O	1.793485	0.389773	-0.158967
O5	O	1.849669	0.133311	0.159013
O6	O	1.612920	0.242763	0.159008
O7	O	2.061873	0.265655	0.159014
Cu8	Cu	1.840286	0.252870	0.188044
Cu9	Cu	1.802869	0.270214	-0.187999
O10	O	1.825124	0.375107	0.159009
C11	C	1.539651	0.244911	0.000019
C12	C	1.368467	0.229449	0.000016
C13	C	1.832835	0.109368	0.000021
C14	C	1.829791	0.016173	0.000010
C15	C	1.818867	-0.322457	0.000017
C16	C	1.650188	-0.288592	-0.000699
C17	C	1.653302	-0.191689	0.000018
C18	C	1.824286	-0.154459	0.000012
C19	C	1.925516	-0.197202	0.181590
C20	C	1.921296	-0.294186	0.181742
C21	C	1.888799	-0.277585	-0.179856
C22	C	1.888520	-0.180533	-0.182256
C23	C	1.827358	-0.059514	0.000016
C24	C	1.815801	-0.417402	0.000025
C25	C	2.103503	0.278174	0.000023
C26	C	2.274686	0.293636	0.000013
C27	C	1.810319	0.413716	0.000020
C28	C	1.813361	0.506912	0.000019
N29	N	1.866614	0.240671	0.452533
N30	N	1.776553	0.282407	-0.452487
H31	H	1.574979	-0.162538	-0.130144
H32	H	1.317792	0.162669	-0.000033
H33	H	1.683215	0.325657	0.465864
H34	H	1.600464	-0.175147	0.130400
H35	H	1.325364	0.360422	0.000024
O36	O	1.578379	-0.329622	0.170821
H37	H	1.459346	-0.305281	0.168926
H38	H	1.874159	-0.323641	0.317478
H39	H	1.959969	0.197426	0.534191
O40	O	1.543728	-0.312400	-0.173147
H41	H	1.609894	-0.348627	-0.260191
O42	O	2.086347	-0.324191	0.192696
H43	H	2.168824	-0.269430	0.197877
H44	H	2.051805	-0.173253	0.188339
H45	H	1.881200	-0.179713	0.316717
O46	O	2.053309	-0.306290	-0.181474
H47	H	2.101877	-0.274328	-0.308855
H48	H	1.819979	-0.296225	-0.317481
O49	O	1.790400	-0.142653	-0.360207
H50	H	1.696276	-0.105405	-0.319032
H51	H	2.012118	-0.154606	-0.193223
