data_functionalizedCrystal
_audit_creation_method	'MofGen! by Chris Wilmer'
_symmetry_space_group_name_H-M	'P1'
_symmetry_Int_Tables_number	1
_symmetry_cell_setting	triclinic
loop_
_symmetry_equiv_pos_as_xyz
  x,y,z
_cell_length_a	16.959455
_cell_length_b	13.897448
_cell_length_c	16.959447
_cell_angle_alpha	89.973219
_cell_angle_beta	90.014701
_cell_angle_gamma	89.981003
loop_
_atom_site_label
_atom_site_type_symbol
_atom_site_fract_x
_atom_site_fract_y
_atom_site_fract_z
Zn1	Zn	1.208387	0.384011	0.446936
Zn2	Zn	1.708387	0.884011	0.946936
Zn3	Zn	1.208310	0.545329	0.314766
Zn4	Zn	1.708310	1.045329	0.814766
Zn5	Zn	1.076215	0.384048	0.314773
Zn6	Zn	1.576215	0.884048	0.814773
Zn7	Zn	1.076181	0.545264	0.446903
Zn8	Zn	1.576181	1.045264	0.946903
O9	O	1.142273	0.464663	0.380845
O10	O	1.642273	0.964663	0.880845
O11	O	1.318987	0.405421	0.429414
O12	O	1.818987	0.905421	0.929414
O13	O	1.190770	0.523977	0.204156
O14	O	1.690770	1.023977	0.704156
O15	O	1.093794	0.249061	0.332321
O16	O	1.593794	0.749061	0.832321
O17	O	1.318931	0.523941	0.332309
O18	O	1.818931	1.023941	0.832309
O19	O	1.190900	0.249034	0.429421
O20	O	1.690900	0.749034	0.929421
O21	O	1.093720	0.405485	0.204161
O22	O	1.593720	0.905485	0.704161
O23	O	0.965600	0.405422	0.332289
O24	O	1.465600	0.905422	0.832289
O25	O	1.093736	0.523830	0.557519
O26	O	1.593736	1.023830	1.057519
O27	O	0.965575	0.523866	0.429365
O28	O	1.465575	1.023866	0.929365
O29	O	1.190867	0.405358	0.557543
O30	O	1.690867	0.905358	1.057543
O31	O	1.190737	0.680302	0.332277
O32	O	1.690737	1.180302	0.832277
O33	O	1.093662	0.680254	0.429358
O34	O	1.593662	1.180254	0.929358
C35	C	0.936907	0.464642	0.380825
C36	C	1.436907	0.964642	0.880825
C37	C	0.849050	0.464656	0.380835
C38	C	1.349050	0.964656	0.880835
C39	C	0.807745	0.526276	0.330205
C40	C	1.307745	1.026276	0.830205
C41	C	0.807802	0.403044	0.431472
C42	C	1.307802	0.903044	0.931472
C43	C	0.725256	0.403051	0.431481
C44	C	1.225256	0.903051	0.931481
C45	C	0.683951	0.464671	0.380851
C46	C	1.183951	0.964671	0.880851
C47	C	0.725192	0.526283	0.330212
C48	C	1.225192	1.026283	0.830212
C49	C	0.684009	0.341433	0.482114
C50	C	1.184009	0.841433	0.982114
C51	C	0.601458	0.341438	0.482125
C52	C	1.101458	0.841438	0.982125
C53	C	0.560151	0.403063	0.431498
C54	C	1.060151	0.903063	0.931498
C55	C	0.601397	0.464679	0.380857
C56	C	1.101397	0.964679	0.880857
C57	C	0.560092	0.526299	0.330227
C58	C	1.060092	1.026299	0.830227
C59	C	0.601337	0.587920	0.279590
C60	C	1.101337	1.087920	0.779590
C61	C	0.683885	0.587909	0.279585
C62	C	1.183885	1.087909	0.779585
C63	C	0.477603	0.403074	0.431503
C64	C	0.977603	0.903074	0.931503
C65	C	0.477539	0.526306	0.330234
C66	C	0.977539	1.026306	0.830234
C67	C	1.142209	0.715277	0.380831
C68	C	1.642209	1.215277	0.880831
C69	C	1.142254	0.822491	0.380852
C70	C	1.642254	1.322491	0.880852
C71	C	1.142331	1.018786	0.380908
C72	C	1.642331	1.518786	0.880908
C73	C	1.142286	0.909554	0.380879
C74	C	1.642286	1.409554	0.880879
C75	C	1.348441	0.464684	0.380865
C76	C	1.848441	0.964684	0.880865
C77	C	1.436298	0.464694	0.380873
C78	C	1.936298	0.964694	0.880873
C79	C	1.142306	0.464583	0.587013
C80	C	1.642306	0.964583	1.087013
C81	C	1.142320	0.464549	0.674869
C82	C	1.642320	0.964549	1.174869
C83	C	1.142353	1.213070	0.380885
C84	C	1.642353	1.713070	0.880885
C85	C	1.142369	1.105856	0.380926
C86	C	1.642369	1.605856	0.880926
C87	C	1.142286	0.464673	0.175478
C88	C	1.642286	0.964673	0.675478
C89	C	1.142425	0.464435	0.087622
C90	C	1.642425	0.964435	0.587622
C91	C	1.091843	0.526130	1.046335
C92	C	1.591843	1.026130	1.546335
C93	C	1.192986	0.402764	1.046355
C94	C	1.692986	0.902764	1.546355
C95	C	1.192965	0.402785	0.963809
C96	C	1.692965	0.902785	1.463809
C97	C	1.142383	0.464480	0.922523
C98	C	1.642383	0.964480	1.422523
C99	C	1.091822	0.526154	0.963782
C100	C	1.591822	1.026154	1.463782
C101	C	1.243531	0.341118	0.922544
C102	C	1.743531	0.841118	1.422544
C103	C	1.243513	0.341137	0.839993
C104	C	1.743513	0.841137	1.339993
C105	C	1.192926	0.402828	0.798705
C106	C	1.692926	0.902828	1.298705
C107	C	1.142362	0.464504	0.839969
C108	C	1.642362	0.964504	1.339969
C109	C	1.091780	0.526199	0.798682
C110	C	1.591780	1.026199	1.298682
C111	C	1.041212	0.587871	0.839945
C112	C	1.541212	1.087871	1.339945
C113	C	1.041235	0.587845	0.922493
C114	C	1.541235	1.087845	1.422493
C115	C	1.192902	0.402854	0.716156
C116	C	1.692902	0.902854	1.216156
C117	C	1.091759	0.526224	0.716129
C118	C	1.591759	1.026224	1.216129
H119	H	0.443914	0.576489	0.289007
H120	H	0.943914	1.076489	0.789007
H121	H	1.000068	0.638059	0.956097
H122	H	1.500068	1.138059	1.456097
H123	H	1.050669	0.576339	1.079935
H124	H	1.550669	1.076339	1.579935
O125	O	0.986646	0.654407	0.795416
O126	O	1.486646	1.154407	1.295416
H127	H	1.021993	0.703499	0.757794
H128	H	1.521993	1.203499	1.257794
H129	H	1.234172	0.352540	1.079976
H130	H	1.734172	0.852540	1.579976
H131	H	1.284717	0.290895	0.956166
H132	H	1.784717	0.790895	1.456166
O133	O	1.298051	0.274618	0.795496
O134	O	1.798051	0.774618	1.295496
H135	H	1.289543	0.285000	0.731158
H136	H	1.789543	0.785000	1.231158
O137	O	0.852225	0.592728	0.275585
O138	O	1.352225	1.092728	0.775585
H139	H	0.889840	0.641849	0.310891
H140	H	1.389840	1.141849	0.810891
H141	H	1.234076	0.352644	0.682564
H142	H	1.734076	0.852644	1.182564
H143	H	0.567695	0.638087	0.238364
H144	H	1.067695	1.138087	0.738364
H145	H	0.717474	0.638075	0.238357
H146	H	1.217474	1.138075	0.738357
H147	H	0.841437	0.352871	0.472689
H148	H	1.341437	0.852871	0.972689
O149	O	0.728561	0.274974	0.536715
O150	O	1.228561	0.774974	1.036715
H151	H	0.686016	0.232120	0.571920
H152	H	1.186016	0.732120	1.071920
H153	H	0.444025	0.352896	0.472726
H154	H	0.944025	0.852896	0.972726
O155	O	0.556974	0.274981	0.536739
O156	O	1.056974	0.774981	1.036739
H157	H	0.572833	0.291615	0.598751
H158	H	1.072833	0.791615	1.098751
O159	O	1.037184	0.592745	0.671597
O160	O	1.537184	1.092745	1.171597
H161	H	1.002025	0.635617	0.714160
H162	H	1.502025	1.135617	1.214160
