data_functionalizedCrystal
_audit_creation_method	'MofGen! by Chris Wilmer'
_symmetry_space_group_name_H-M	'P1'
_symmetry_Int_Tables_number	1
_symmetry_cell_setting	triclinic
loop_
_symmetry_equiv_pos_as_xyz
  x,y,z
_cell_length_a	14.908993
_cell_length_b	16.120444
_cell_length_c	14.908294
_cell_angle_alpha	95.986824
_cell_angle_beta	96.371074
_cell_angle_gamma	96.051849
loop_
_atom_site_label
_atom_site_type_symbol
_atom_site_fract_x
_atom_site_fract_y
_atom_site_fract_z
Zn1	Zn	1.337642	-0.284423	-0.448593
Zn2	Zn	1.837642	0.215577	0.051407
Zn3	Zn	1.338595	-0.416138	-0.304903
Zn4	Zn	1.838595	0.083862	0.195097
Zn5	Zn	1.195014	-0.284463	-0.305974
Zn6	Zn	1.695014	0.215537	0.194026
Zn7	Zn	1.177566	-0.433266	-0.465930
Zn8	Zn	1.677566	0.066734	0.034070
O9	O	1.262204	-0.354572	-0.381350
O10	O	1.762204	0.145428	0.118650
O11	O	1.464850	-0.294711	-0.421829
O12	O	1.964850	0.205289	0.078171
O13	O	1.327250	-0.391519	-0.177968
O14	O	1.827250	0.108481	0.322032
O15	O	1.220836	-0.167060	-0.318085
O16	O	1.720836	0.332940	0.181915
O17	O	1.465550	-0.391481	-0.316260
O18	O	1.965550	0.108519	0.183740
O19	O	1.325624	-0.167031	-0.422867
O20	O	1.825624	0.332969	0.077133
O21	O	1.221761	-0.294778	-0.178754
O22	O	1.721761	0.205222	0.321246
O23	O	1.065618	-0.311386	-0.334896
O24	O	1.565618	0.188614	0.165104
O25	O	1.191099	-0.420673	-0.590708
O26	O	1.691099	0.079327	-0.090708
O27	O	1.052799	-0.420711	-0.452415
O28	O	1.552799	0.079289	0.047585
O29	O	1.308706	-0.311319	-0.577970
O30	O	1.808706	0.188681	-0.077970
O31	O	1.310332	-0.535807	-0.333071
O32	O	1.810332	-0.035807	0.166929
O33	O	1.192024	-0.548391	-0.451377
O34	O	1.692024	-0.048391	0.048623
C35	C	1.026257	-0.367912	-0.395654
C36	C	1.526257	0.132088	0.104346
C37	C	0.925316	-0.373641	-0.401796
C38	C	1.425316	0.126359	0.098204
C39	C	1.249412	-0.572539	-0.394007
C40	C	1.749412	-0.072539	0.105993
C41	C	1.244020	-0.665783	-0.399447
C42	C	1.744020	-0.165783	0.100553
C43	C	0.748931	-0.270413	-0.291117
C44	C	1.248931	0.229587	0.208883
C45	C	0.654088	-0.275792	-0.296885
C46	C	1.154088	0.224208	0.203115
C47	C	0.640784	-0.389782	-0.419094
C48	C	1.140784	0.110218	0.080906
C49	C	0.735627	-0.384403	-0.413326
C50	C	1.235627	0.115597	0.086674
C51	C	0.789698	-0.324715	-0.349337
C52	C	1.289698	0.175285	0.150663
C53	C	0.884543	-0.319332	-0.343574
C54	C	1.384543	0.180668	0.156426
C55	C	0.871237	-0.433326	-0.465778
C56	C	1.371237	0.066674	0.034222
C57	C	0.776394	-0.438705	-0.471546
C58	C	1.276394	0.061295	0.028454
C59	C	1.290383	-0.871790	-0.353311
C60	C	1.790383	-0.371790	0.146689
C61	C	1.234193	-0.836494	-0.409388
C62	C	1.734193	-0.336494	0.090612
C63	C	1.239662	-0.741501	-0.403855
C64	C	1.739662	-0.241501	0.096145
C65	C	1.284915	-0.966791	-0.358843
C66	C	1.784915	-0.466791	0.141157
C67	C	1.499072	-0.341181	-0.366991
C68	C	1.999072	0.158819	0.133009
C69	C	1.600011	-0.335474	-0.360872
C70	C	2.100011	0.164526	0.139128
C71	C	1.247850	-0.367902	-0.618210
C72	C	1.747850	0.132098	-0.118210
C73	C	1.241733	-0.373582	-0.719146
C74	C	1.741733	0.126418	-0.219146
C75	C	1.275070	-0.135754	-0.368662
C76	C	1.775070	0.364246	0.131338
C77	C	1.280553	-0.042507	-0.363255
C78	C	1.780553	0.457493	0.136745
C79	C	1.171883	-0.438513	-0.868042
C80	C	1.671883	0.061487	-0.368042
C81	C	1.177628	-0.433182	-0.773205
C82	C	1.677628	0.066818	-0.273205
C83	C	1.300095	-0.319308	-0.759931
C84	C	1.800095	0.180692	-0.259931
C85	C	1.294350	-0.324639	-0.854768
C86	C	1.794350	0.175361	-0.354768
C87	C	1.230243	-0.384244	-0.908821
C88	C	1.730243	0.115756	-0.408821
C89	C	1.224502	-0.389579	-1.003660
C90	C	1.724502	0.110421	-0.503660
C91	C	1.346965	-0.275701	-0.990385
C92	C	1.846965	0.224299	-0.490385
C93	C	1.352710	-0.270370	-0.895547
C94	C	1.852710	0.229630	-0.395547
C95	C	1.276558	-0.341231	-0.145405
C96	C	1.776558	0.158769	0.354595
C97	C	1.282865	-0.335304	-0.044445
C98	C	1.782865	0.164696	0.455555
H99	H	0.928566	-0.270727	-0.291475
H100	H	1.428566	0.229273	0.208525
Br101	Br	1.147163	-0.905033	-0.496332
Br102	Br	1.647163	-0.405033	0.003668
H103	H	1.342593	-0.830670	-0.301149
H104	H	1.842593	-0.330670	0.198851
Br105	Br	0.822317	-0.189402	-0.204287
Br106	Br	1.322317	0.310598	0.295713
Br107	Br	1.137504	-0.470473	-1.077017
Br108	Br	1.637504	0.029527	-0.577017
Br109	Br	0.598764	-0.202097	-0.217865
Br110	Br	1.098764	0.297903	0.282135
Br111	Br	1.084893	-0.519411	-0.941403
Br112	Br	1.584893	-0.019411	-0.441403
Br113	Br	1.098418	-0.506831	-0.717864
Br114	Br	1.598418	-0.006831	-0.217864
H115	H	1.394487	-0.231513	-1.023596
H116	H	1.894487	0.268487	-0.523596
H117	H	1.404902	-0.221840	-0.851525
H118	H	1.904902	0.278160	-0.351525
H119	H	0.596744	-0.438384	-0.471183
H120	H	1.096744	0.061616	0.028817
H121	H	1.352284	-0.270776	-0.715905
H122	H	1.852284	0.229224	-0.215905
H123	H	0.732357	-0.487303	-0.523642
H124	H	1.232357	0.012697	-0.023642
H125	H	0.904439	-0.477539	-0.513189
H126	H	1.404439	0.022461	-0.013189
