data_functionalizedCrystal
_audit_creation_method	'MofGen! by Chris Wilmer'
_symmetry_space_group_name_H-M	'P1'
_symmetry_Int_Tables_number	1
_symmetry_cell_setting	triclinic
loop_
_symmetry_equiv_pos_as_xyz
  x,y,z
_cell_length_a	12.784893
_cell_length_b	9.565339
_cell_length_c	12.837942
_cell_angle_alpha	90.000794
_cell_angle_beta	83.967597
_cell_angle_gamma	89.997504
loop_
_atom_site_label
_atom_site_type_symbol
_atom_site_fract_x
_atom_site_fract_y
_atom_site_fract_z
O1	O	-1.410968	0.116227	-0.006416
O2	O	-1.105968	0.116237	-0.050411
O3	O	-1.251705	0.116224	0.121880
O4	O	-1.265231	0.116241	-0.178706
O5	O	-1.251693	-0.116296	0.121869
O6	O	-1.105957	-0.116283	-0.050422
O7	O	-1.410956	-0.116293	-0.006427
Zn8	Zn	-1.258455	-0.153206	-0.028426
Zn9	Zn	-1.258470	0.153150	-0.028411
O10	O	-1.265219	-0.116280	-0.178717
C11	C	-1.066653	-0.000022	-0.053278
C12	C	-0.949521	-0.000018	-0.061792
C13	C	-0.781352	-0.000012	-0.168493
C14	C	-0.891407	-0.000011	-0.160500
C15	C	-0.897572	-0.000021	0.028930
C16	C	-0.787516	-0.000022	0.020937
C17	C	-0.729410	-0.000019	-0.077778
C18	C	-0.619353	-0.000029	-0.085770
C19	C	-0.625519	-0.000029	0.103659
C20	C	-0.735575	-0.000029	0.111652
N21	N	-1.258452	-0.362285	-0.028434
C22	C	-1.191028	-0.453482	-0.108091
C23	C	-1.288227	-0.546663	-0.119443
C24	C	-1.161295	-0.546660	-0.017086
C25	C	-1.355703	-0.453414	-0.039829
C26	C	-1.228704	-0.453403	0.062563
C27	C	-1.325968	-0.546541	0.051257
C28	C	-0.450272	-0.000033	-0.003560
C29	C	-0.567404	-0.000033	0.004952
C30	C	-1.247130	-0.000035	0.160083
C31	C	-1.233502	-0.000033	0.273932
N32	N	-1.258481	0.362229	-0.028394
C33	C	-1.269795	-0.000017	-0.216920
C34	C	-1.283423	-0.000011	-0.330769
C35	C	-1.397334	-0.000009	0.529659
C36	C	-1.384534	-0.000006	0.636631
C37	C	-1.195104	-0.000014	0.594850
C38	C	-1.207904	-0.000017	0.487878
C39	C	-1.309022	-0.000016	0.455287
C40	C	-1.321821	-0.000029	0.348313
C41	C	-1.132391	-0.000028	0.306534
C42	C	-1.119592	-0.000025	0.413506
H43	H	-0.782900	-0.000026	0.192022
Br44	Br	-0.982367	-0.000008	0.457747
Br45	Br	-0.555022	-0.000060	0.226780
H46	H	-1.060481	-0.000045	0.245967
Br47	Br	-1.459050	-0.000043	0.304082
H48	H	-0.572044	-0.000034	-0.166148
H49	H	-1.383067	-0.587145	0.118647
H50	H	-0.734040	-0.000026	-0.248870
Br51	Br	-0.976448	-0.000017	0.162888
H52	H	-0.933693	-0.000008	-0.234369
H53	H	-1.456448	0.000005	0.697183
H54	H	-1.134073	-0.412622	-0.175505
H55	H	-1.203497	-0.412407	0.139471
H56	H	-1.313407	-0.587626	-0.196379
H57	H	-1.437906	-0.412627	-0.049503
Br58	Br	-1.024332	-0.614936	-0.001113
Br59	Br	-1.534561	-0.000051	0.485422
H60	H	-1.112778	-0.000000	0.621405
