data_functionalizedCrystal
_audit_creation_method	'MofGen! by Chris Wilmer'
_symmetry_space_group_name_H-M	'P1'
_symmetry_Int_Tables_number	1
_symmetry_cell_setting	triclinic
loop_
_symmetry_equiv_pos_as_xyz
  x,y,z
_cell_length_a	13.185408
_cell_length_b	14.971496
_cell_length_c	12.376755
_cell_angle_alpha	102.660411
_cell_angle_beta	74.687840
_cell_angle_gamma	112.204188
loop_
_atom_site_label
_atom_site_type_symbol
_atom_site_fract_x
_atom_site_fract_y
_atom_site_fract_z
O1	O	1.465292	0.222139	-0.093907
O2	O	1.965292	0.722139	0.406093
O3	O	1.147922	0.131501	-0.093931
O4	O	1.647922	0.631501	0.406069
O5	O	1.315106	0.309075	-0.093909
O6	O	1.815106	0.809075	0.406091
O7	O	1.298108	0.044566	-0.093930
O8	O	1.798108	0.544566	0.406070
O9	O	1.277777	0.330706	0.094095
O10	O	1.777777	0.830706	0.594095
O11	O	1.110593	0.153132	0.094073
O12	O	1.610593	0.653132	0.594073
O13	O	1.427963	0.243770	0.094096
O14	O	1.927963	0.743770	0.594096
Zn15	Zn	1.263351	0.201886	0.123934
Zn16	Zn	1.763351	0.701886	0.623934
Zn17	Zn	1.312534	0.173386	-0.123769
Zn18	Zn	1.812534	0.673386	0.376231
O19	O	1.260779	0.066197	0.094074
O20	O	1.760779	0.566197	0.594074
C21	C	1.088642	0.133128	0.000068
C22	C	1.588642	0.633128	0.500068
C23	C	0.967620	0.105759	0.000059
C24	C	1.467620	0.605759	0.500059
C25	C	0.897883	0.008313	0.000049
C26	C	1.397883	0.508313	0.500049
C27	C	0.784174	-0.017402	0.000057
C28	C	1.284174	0.482598	0.500057
C29	C	0.740192	0.054324	0.000066
C30	C	1.240192	0.554324	0.500066
C31	C	0.809930	0.151770	0.000068
C32	C	1.309930	0.651770	0.500068
C33	C	0.923649	0.177490	0.000069
C34	C	1.423649	0.677490	0.500069
C35	C	0.765957	0.223500	0.000087
C36	C	1.265957	0.723500	0.500087
C37	C	0.835696	0.320947	0.000089
C38	C	1.335696	0.820947	0.500089
C39	C	0.949403	0.346661	0.000089
C40	C	1.449403	0.846661	0.500089
C41	C	0.993386	0.274935	0.000079
C42	C	1.493386	0.774935	0.500079
C43	C	0.652238	0.197781	0.000086
C44	C	1.152238	0.697781	0.500086
C45	C	0.678004	0.366957	0.000107
C46	C	1.178004	0.866957	0.500107
C47	C	0.791713	0.392673	0.000098
C48	C	1.291713	0.892673	0.500098
C49	C	1.295679	0.353031	0.000093
C50	C	1.795679	0.853031	0.500093
C51	C	1.293395	0.451776	0.000094
C52	C	1.793395	0.951776	0.500094
C53	C	1.487244	0.242143	0.000095
C54	C	1.987244	0.742143	0.500095
C55	C	1.608267	0.269512	0.000096
C56	C	2.108267	0.769512	0.500096
C57	C	1.280207	0.022241	0.000069
C58	C	1.780207	0.522241	0.500069
C59	C	1.282492	-0.076505	0.000062
C60	C	1.782492	0.423495	0.500062
C61	C	1.303916	0.865309	-0.102417
C62	C	1.803916	1.365309	0.397583
C63	C	1.306067	0.772531	-0.102412
C64	C	1.806067	1.272531	0.397588
C65	C	1.286787	0.737937	0.000073
C66	C	1.786787	1.237937	0.500073
C67	C	1.265365	0.796131	0.102560
C68	C	1.765365	1.296131	0.602560
C69	C	1.263222	0.888910	0.102554
C70	C	1.763222	1.388910	0.602554
C71	C	1.269830	0.602748	0.102566
C72	C	1.769830	1.102748	0.602566
C73	C	1.271972	0.509961	0.102573
C74	C	1.771972	1.009961	0.602573
C75	C	1.312676	0.486368	-0.102400
C76	C	1.812676	0.986368	0.397600
C77	C	1.310532	0.579147	-0.102406
C78	C	1.810532	1.079147	0.397594
C79	C	1.289109	0.637334	0.000081
C80	C	1.789109	1.137334	0.500081
N81	N	1.229793	0.221338	0.292985
N82	N	1.729793	0.721338	0.792985
C83	C	1.151862	0.266500	0.352152
C84	C	1.651862	0.766500	0.852152
C85	C	1.128359	0.280111	0.470487
C86	C	1.628359	0.780111	0.970487
C87	C	1.182793	0.248569	0.529666
C88	C	1.682793	0.748569	1.029666
C89	C	1.260732	0.203412	0.470499
C90	C	1.760732	0.703412	0.970499
C91	C	1.284230	0.189793	0.352153
C92	C	1.784230	0.689793	0.852153
C93	C	1.315161	0.171862	0.529666
C94	C	1.815161	0.671862	1.029666
C95	C	1.393101	0.126705	0.470499
C96	C	1.893101	0.626705	0.970499
C97	C	1.416596	0.113089	0.352164
C98	C	1.916596	0.613089	0.852164
C99	C	1.362162	0.144631	0.292985
C100	C	1.862162	0.644631	0.792985
C101	C	1.291663	0.185481	0.648013
C102	C	1.791663	0.685481	1.148013
C103	C	1.424032	0.108775	0.648013
C104	C	1.924032	0.608775	1.148013
C105	C	1.447534	0.095163	0.529678
C106	C	1.947534	0.595163	1.029678
N107	N	1.346100	0.153936	0.707180
N108	N	1.846100	0.653936	1.207180
H109	H	1.006180	0.426010	0.000105
H110	H	1.506180	0.926010	0.500105
F111	F	1.328871	0.710610	-0.211485
F112	F	1.828871	1.210610	0.288515
F113	F	1.331045	0.615960	-0.211482
F114	F	1.831045	1.115960	0.288518
H115	H	1.064901	0.316877	0.518653
H116	H	1.564901	0.816877	1.018653
F117	F	1.530481	0.047105	0.466694
F118	F	2.030481	0.547105	0.966694
H119	H	1.252387	0.650122	0.186022
H120	H	1.752387	1.150122	0.686022
H121	H	0.595467	0.118439	0.000086
H122	H	1.095467	0.618439	0.500086
H123	H	1.256237	0.481786	0.186025
H124	H	1.756237	0.981786	0.686025
H125	H	1.468352	0.083085	0.696196
H126	H	1.968352	0.583085	1.196196
F127	F	1.335433	0.424425	-0.211475
F128	F	1.835433	0.924425	0.288525
H129	H	1.163653	0.259655	0.626020
H130	H	1.663653	0.759655	1.126020
F131	F	1.324429	0.902115	-0.211498
F132	F	1.824429	1.402115	0.288502
H133	H	0.647603	0.033380	0.000074
H134	H	1.147603	0.533380	0.500074
H135	H	1.249674	0.767960	0.186005
H136	H	1.749674	1.267960	0.686005
F137	F	1.240426	0.950838	0.211626
F138	F	1.740426	1.450838	0.711626
H139	H	0.933704	-0.050074	0.000049
H140	H	1.433704	0.449926	0.500049
H141	H	1.228204	0.222247	0.696175
H142	H	1.728204	0.722247	1.196175
H143	H	1.381299	0.133556	0.196627
H144	H	1.881299	0.633556	0.696627
F145	F	0.709962	-0.121108	0.000050
F146	F	1.209962	0.378892	0.500050
F147	F	0.865946	0.496380	0.000104
F148	F	1.365946	0.996380	0.500104
F149	F	1.499516	0.064998	0.289197
F150	F	1.999516	0.564998	0.789197
H151	H	1.085976	0.295868	0.000076
H152	H	1.585976	0.795868	0.500076
H153	H	1.107545	0.292171	0.303958
H154	H	1.607545	0.792171	0.803958
F155	F	0.631200	0.443299	0.000122
F156	F	1.131200	0.943299	0.500122
