data_functionalizedCrystal
_audit_creation_method	'MofGen! by Chris Wilmer'
_symmetry_space_group_name_H-M	'P1'
_symmetry_Int_Tables_number	1
_symmetry_cell_setting	triclinic
loop_
_symmetry_equiv_pos_as_xyz
  x,y,z
_cell_length_a	14.809577
_cell_length_b	27.440280
_cell_length_c	14.809374
_cell_angle_alpha	90.004513
_cell_angle_beta	73.426528
_cell_angle_gamma	65.408408
loop_
_atom_site_label
_atom_site_type_symbol
_atom_site_fract_x
_atom_site_fract_y
_atom_site_fract_z
Zr1	Zr	0.867207	0.541435	0.015072
O2	O	1.010603	0.482252	-0.095951
O3	O	0.705800	0.550703	0.032460
O4	O	0.841217	0.571126	-0.119936
O5	O	0.901967	0.455814	0.195594
O6	O	0.841205	0.651327	-0.119921
O7	O	0.875185	0.461829	0.056446
O8	O	0.598967	0.614794	0.152689
O9	O	1.144205	0.492347	-0.077016
O10	O	0.778851	0.625231	0.059999
O11	O	0.798847	0.560889	0.163832
O12	O	0.958284	0.584935	-0.015595
O13	O	0.978280	0.520593	0.088238
Zr14	Zr	0.909902	0.659754	0.237022
Zr15	Zr	0.867188	0.669346	0.015096
Zr16	Zr	0.909921	0.531842	0.236997
Zr17	Zr	1.080287	0.557536	0.045271
Zr18	Zr	0.696822	0.643652	0.206822
O19	O	1.071309	0.650486	0.219633
O20	O	1.010575	0.664125	-0.095917
O21	O	1.071337	0.468613	0.219599
O22	O	0.766506	0.718937	0.348044
O23	O	0.705772	0.732576	0.032495
O24	O	0.766534	0.537064	0.348010
O25	O	0.875142	0.745374	0.056499
O26	O	0.935891	0.630063	0.372030
O27	O	0.935904	0.549862	0.372015
O28	O	0.901924	0.739360	0.195648
O29	O	1.144189	0.594020	-0.076997
O30	O	0.632920	0.607169	0.329090
O31	O	0.632904	0.708841	0.329109
O32	O	0.598952	0.716466	0.152708
O33	O	1.178157	0.484723	0.099385
O34	O	1.178141	0.586395	0.099405
O35	O	0.818825	0.616254	0.267689
O36	O	0.798829	0.680595	0.163855
O37	O	0.978262	0.640299	0.088261
O38	O	0.998258	0.575958	0.192095
C39	C	0.622024	0.580454	0.088272
C40	C	0.531566	0.573619	0.075451
C41	C	0.341809	0.597063	0.119419
C42	C	0.435296	0.604129	0.132682
C43	C	0.888579	0.440597	0.126016
C44	C	0.888587	0.386295	0.126006
C45	C	0.794879	0.070624	0.165532
C46	C	0.794874	0.019605	0.165540
O47	O	0.715224	0.011104	0.199130
N48	N	0.888535	-0.026946	0.126080
C49	C	0.982208	-0.022477	0.086617
O50	O	1.061874	-0.066757	0.053054
C51	C	0.982213	0.028542	0.086615
C52	C	0.888544	0.075092	0.126070
C53	C	0.701218	0.117172	0.204984
C54	C	0.701222	0.168188	0.204974
C55	C	0.794888	0.172656	0.165512
C56	C	0.888549	0.126107	0.126060
C57	C	1.075886	0.033010	0.047159
C58	C	1.075883	0.084034	0.047161
C59	C	0.982214	0.130584	0.086616
C60	C	0.982219	0.181591	0.086587
N61	N	0.888558	0.228142	0.126048
C62	C	0.794893	0.223674	0.165510
C63	C	0.982192	-0.129617	0.086625
C64	C	0.982187	-0.180635	0.086620
C65	C	0.794853	-0.138550	0.165545
C66	C	0.794857	-0.087531	0.165544
C67	C	0.888531	-0.083067	0.126086
C68	C	0.794909	0.330809	0.165485
C69	C	0.794922	0.381828	0.165468
C70	C	0.982256	0.339738	0.086548
C71	C	0.982244	0.288724	0.086560
C72	C	0.888562	0.284263	0.126035
O73	O	1.061829	0.190133	0.053018
O74	O	0.715242	0.267957	0.199078
C75	C	1.155085	0.620734	0.163822
C76	C	1.245543	0.627570	0.176642
C77	C	0.835125	0.612593	-0.151548
C78	C	0.816992	0.616665	-0.245762
C79	C	0.888530	0.760592	0.126077
C80	C	0.888522	0.814893	0.126087
C81	C	0.897919	0.598491	-0.325265
C82	C	0.879179	0.602700	-0.422640
C83	C	0.941983	0.588595	0.403642
C84	C	0.960117	0.584523	0.497855
C85	C	0.622000	0.740452	0.088302
C86	C	0.531533	0.787918	0.075492
C87	C	0.675453	0.568455	0.365867
C88	C	0.603129	0.557548	0.447260
C89	C	0.675429	0.728453	0.365897
C90	C	0.603096	0.771847	0.447300
C91	C	1.101680	0.472736	-0.113804
C92	C	1.174013	0.429342	-0.195207
C93	C	1.155109	0.460737	0.163791
C94	C	1.245575	0.413271	0.176602
C95	C	1.101656	0.632733	-0.113773
C96	C	1.173980	0.643641	-0.195166
C97	C	0.478619	0.781309	0.015255
C98	C	0.393625	0.825906	0.003199
C99	C	0.361541	0.877110	0.051387
C100	C	0.414463	0.883718	0.111626
C101	C	0.499461	0.839122	0.123676
C102	C	0.579594	0.581325	0.539704
C103	C	0.511651	0.571074	0.616191
C104	C	0.467238	0.537050	0.600231
C105	C	0.490778	0.513270	0.507778
C106	C	0.558726	0.523518	0.431294
C107	C	0.558690	0.825816	0.431328
C108	C	0.490735	0.866595	0.507808
C109	C	0.467183	0.853404	0.600259
C110	C	0.511597	0.799429	0.616230
C111	C	0.579556	0.758652	0.539752
C112	C	1.218430	0.375373	-0.179233
C113	C	1.286410	0.334596	-0.255709
C114	C	1.309967	0.347788	-0.348159
C115	C	1.265548	0.401762	-0.364132
C116	C	1.197574	0.442539	-0.287655
C117	C	1.298497	0.419880	0.236831
C118	C	1.383510	0.375287	0.248865
C119	C	1.415596	0.324083	0.200675
C120	C	1.362670	0.317475	0.140439
C121	C	1.277663	0.362069	0.128400
C122	C	1.218373	0.677668	-0.179177
C123	C	1.286320	0.687927	-0.255647
C124	C	1.309879	0.664156	-0.348105
C125	C	1.265478	0.630127	-0.364093
C126	C	1.197526	0.619871	-0.287625
H127	H	0.544781	0.542267	0.016637
Cl128	Cl	0.414889	0.652530	0.223493
H129	H	0.454578	0.910541	0.494786
Cl130	Cl	0.381744	0.904674	0.696394
Cl131	Cl	0.434933	0.470498	0.487730
H132	H	0.577877	0.504156	0.356023
H133	H	0.411912	0.528710	0.662518
H134	H	1.152162	-0.004885	0.015032
Cl135	Cl	0.362210	0.548658	0.028624
H136	H	0.624940	0.113544	0.237123
Cl137	Cl	0.327106	0.817586	-0.072529
H138	H	0.492494	0.590442	0.691463
Cl139	Cl	1.450025	0.383606	0.324598
Cl140	Cl	1.522464	0.268027	0.215822
H141	H	1.272381	0.461568	0.276081
Cl142	Cl	0.225144	0.675968	0.267449
Cl143	Cl	0.677099	-0.029016	0.215148
Cl144	Cl	1.395421	0.296518	-0.444293
H145	H	1.161388	0.592161	-0.300656
Cl146	Cl	1.342235	0.266748	-0.235609
H147	H	1.043281	0.565848	-0.498128
Cl148	Cl	0.588290	0.842414	0.315113
H149	H	0.981076	0.579819	-0.321240
Cl150	Cl	0.481976	0.782855	0.732460
H151	H	0.718584	-0.142195	0.197674
Cl152	Cl	0.565967	0.847439	0.199416
H153	H	1.199254	0.364621	-0.103963
Cl154	Cl	0.677157	0.440347	0.215070
H155	H	0.292328	0.913417	0.041567
Cl156	Cl	0.677136	0.325209	0.215108
Cl157	Cl	0.635367	0.690804	0.559847
Cl158	Cl	1.295168	0.418337	-0.480362
H159	H	1.161408	0.486481	-0.300674
H160	H	0.796015	0.621378	-0.426658
Cl161	Cl	1.403017	0.253100	0.079868
H162	H	0.733834	0.635342	-0.249786
Cl163	Cl	1.100004	0.345365	0.036958
H164	H	0.615750	0.609030	0.552717
Cl165	Cl	1.099963	-0.124012	0.037006
Cl166	Cl	1.211136	0.353749	0.052684
H167	H	1.058459	-0.218533	0.054479
H168	H	1.199204	0.697027	-0.103899
H169	H	0.624947	0.206087	0.237097
H170	H	1.322466	0.715635	-0.242611
H171	H	1.365211	0.672511	-0.410362
Cl172	Cl	1.295116	0.600241	-0.480331
H173	H	0.388328	0.925414	0.150857
H174	H	1.152168	0.087663	0.015043
Cl175	Cl	1.099996	0.230204	0.036939
H176	H	0.504738	0.739622	-0.023999
