data_functionalizedCrystal
_audit_creation_method	'MofGen! by Chris Wilmer'
_symmetry_space_group_name_H-M	'P1'
_symmetry_Int_Tables_number	1
_symmetry_cell_setting	triclinic
loop_
_symmetry_equiv_pos_as_xyz
  x,y,z
_cell_length_a	18.050589
_cell_length_b	12.827893
_cell_length_c	18.050583
_cell_angle_alpha	89.983761
_cell_angle_beta	89.971909
_cell_angle_gamma	90.028191
loop_
_atom_site_label
_atom_site_type_symbol
_atom_site_fract_x
_atom_site_fract_y
_atom_site_fract_z
Zn1	Zn	-0.295635	1.597545	-0.419896
Zn2	Zn	-0.419840	1.597409	-0.295715
Zn3	Zn	-0.295668	1.422796	-0.295724
Zn4	Zn	-0.419787	1.422733	-0.419868
O5	O	-0.357732	1.510121	-0.357801
O6	O	-0.312119	1.743763	-0.403431
O7	O	-0.403403	1.574216	-0.191792
O8	O	-0.191739	1.446060	-0.312211
O9	O	-0.403371	1.743663	-0.312196
O10	O	-0.191715	1.574448	-0.403439
O11	O	-0.312175	1.445928	-0.191798
O12	O	-0.312125	1.276551	-0.312184
O13	O	-0.403283	1.445952	-0.523796
O14	O	-0.403315	1.276505	-0.403392
O15	O	-0.312068	1.574386	-0.523817
O16	O	-0.523757	1.574155	-0.312169
O17	O	-0.523719	1.445821	-0.403383
C18	C	-0.357718	1.238611	-0.357786
C19	C	-0.357730	1.122458	-0.357798
C20	C	-0.402924	1.070678	-0.402861
C21	C	-0.402937	0.950627	-0.402874
C22	C	-0.550685	1.509995	-0.357788
C23	C	-0.633230	1.510036	-0.357808
C24	C	-0.832687	1.440317	-0.407393
C25	C	-0.882133	1.414845	-0.339626
C26	C	-0.784361	1.510139	-0.357818
C27	C	-0.881997	1.535662	-0.425592
C28	C	-0.930346	1.510236	-0.357833
C29	C	-0.832719	1.484617	-0.290015
C30	C	-0.832579	1.605478	-0.376026
C31	C	-0.882002	1.580043	-0.308213
C32	C	-0.700262	1.510080	-0.357810
C33	C	-1.014442	1.510295	-0.357833
C34	C	-0.164027	1.510276	-0.357829
C35	C	-0.081481	1.510342	-0.357841
C36	C	-0.357666	1.510177	-0.551506
C37	C	-0.357638	1.510202	-0.634052
C38	C	-0.357747	1.782691	-0.357815
C39	C	-0.357754	1.898844	-0.357821
C40	C	-0.307985	1.580109	-0.882889
C41	C	-0.375749	1.605609	-0.833479
C42	C	-0.357590	1.510269	-0.931173
C43	C	-0.289855	1.484785	-0.833500
C44	C	-0.357610	1.510239	-0.785187
C45	C	-0.425389	1.535819	-0.882850
C46	C	-0.339450	1.414950	-0.882876
C47	C	-0.407260	1.440414	-0.833489
C48	C	-0.357578	1.510289	-1.015271
C49	C	-0.357630	1.510218	-0.701091
C50	C	-0.357745	1.510124	-0.164849
C51	C	-0.357564	1.510303	-0.082303
H52	H	-0.319044	1.077912	-0.319231
O53	O	-0.908016	1.318705	-0.321149
C54	C	-0.881846	1.291314	-0.250185
H55	H	-0.829447	1.337542	-0.237366
H56	H	-0.868857	1.204376	-0.248751
H57	H	-0.926072	1.309871	-0.207056
H58	H	-0.811033	1.381184	-0.449258
H59	H	-0.324072	1.334378	-0.904591
H60	H	-0.232563	1.463245	-0.811820
O61	O	-0.449098	1.123649	-0.448949
C62	C	-0.491136	1.052195	-0.490838
H63	H	-0.460780	0.974378	-0.493517
H64	H	-0.499103	1.083843	-0.549314
H65	H	-0.547515	1.040586	-0.463556
O66	O	-0.449030	0.897352	-0.448879
C67	C	-0.438791	0.789349	-0.438641
H68	H	-0.381441	0.774558	-0.414407
H69	H	-0.443873	0.747824	-0.494238
H70	H	-0.482778	0.758329	-0.399002
H71	H	-0.811163	1.462975	-0.232689
H72	H	-0.903519	1.639131	-0.266247
O73	O	-0.311693	0.952067	-0.311754
C74	C	-0.353953	1.015132	-0.263737
H75	H	-0.410274	1.031364	-0.289843
H76	H	-0.323734	1.091937	-0.253876
H77	H	-0.362022	0.973093	-0.208665
O78	O	-0.806622	1.701555	-0.394549
C79	C	-0.831699	1.728124	-0.466064
H80	H	-0.845603	1.654053	-0.498059
H81	H	-0.786441	1.772942	-0.496548
H82	H	-0.883328	1.778860	-0.461414
H83	H	-0.482693	1.557476	-0.904438
H84	H	-0.266080	1.639229	-0.904579
O85	O	-0.907733	1.561254	-0.494016
C86	C	-0.882622	1.487366	-0.546091
H87	H	-0.830661	1.447543	-0.524055
H88	H	-0.869250	1.528281	-0.600556
H89	H	-0.927646	1.426527	-0.555771
O90	O	-0.393948	1.701819	-0.807622
C91	C	-0.341512	1.775239	-0.832802
H92	H	-0.287433	1.733726	-0.846678
H93	H	-0.331108	1.835561	-0.787618
H94	H	-0.363594	1.815800	-0.884470
H95	H	-0.449266	1.381339	-0.811935
