data_functionalizedCrystal
_audit_creation_method	'MofGen! by Chris Wilmer'
_symmetry_space_group_name_H-M	'P1'
_symmetry_Int_Tables_number	1
_symmetry_cell_setting	triclinic
loop_
_symmetry_equiv_pos_as_xyz
  x,y,z
_cell_length_a	6.817900
_cell_length_b	11.102291
_cell_length_c	11.102251
_cell_angle_alpha	91.948312
_cell_angle_beta	108.604984
_cell_angle_gamma	108.605753
loop_
_atom_site_label
_atom_site_type_symbol
_atom_site_fract_x
_atom_site_fract_y
_atom_site_fract_z
V1	V	-4.111524	-0.175844	-0.396258
O2	O	-4.070556	0.008445	-0.388714
O3	O	-4.088302	-0.348664	-0.393549
O4	O	-4.088302	-0.173141	-0.569079
O5	O	-4.070556	-0.168293	-0.211968
V6	V	-4.588627	-0.153801	-0.374215
O7	O	-4.386865	-0.224198	-0.444610
O8	O	-4.763483	-0.105447	-0.325863
O9	O	-4.388642	0.019020	-0.376924
O10	O	-4.746992	-0.338090	-0.381759
O11	O	-4.746992	-0.161351	-0.558505
O12	O	-4.388642	-0.156503	-0.201394
C13	C	-3.938613	-0.390794	-0.387298
C14	C	-4.001081	-0.532077	-0.386235
C15	C	-4.149267	-0.749352	-0.501128
C16	C	-4.090592	-0.616602	-0.502125
C17	C	-3.970265	-0.580308	-0.269341
C18	C	-4.028954	-0.713057	-0.268346
C19	C	-4.238758	-0.833871	-0.617025
C20	C	-4.269583	-0.785649	-0.733919
C21	C	-4.210907	-0.652899	-0.734916
C22	C	-4.121408	-0.568371	-0.619018
C23	C	-3.938611	-0.166895	-0.611203
C24	C	-4.001075	-0.165829	-0.752485
C25	C	-4.028927	-0.047930	-0.933453
C26	C	-3.970247	-0.048937	-0.800704
C27	C	-4.090611	-0.281722	-0.837023
C28	C	-4.149304	-0.280713	-0.969770
C29	C	-3.998072	0.068970	-0.981663
C30	C	-3.908543	0.184863	-0.897134
C31	C	-3.849863	0.183856	-0.764386
C32	C	-3.880711	0.066955	-0.716166
C33	C	-4.201673	0.061143	-0.383172
C34	C	-4.118445	0.202425	-0.384243
C35	C	-4.201674	-0.162753	-0.159264
C36	C	-4.118448	-0.163813	-0.017980
H37	H	-4.342469	-0.854480	-0.828279
H38	H	-4.115716	-0.376896	-0.797751
N39	N	-4.302063	-0.977051	-0.615959
H40	H	-4.417725	-1.006306	-0.574340
H41	H	-4.167322	-0.997395	-0.565726
H42	H	-3.832940	0.066144	-0.608072
N43	N	-3.995729	-0.765081	-0.142282
H44	H	-3.930117	-0.691397	-0.069012
H45	H	-3.892318	-0.814968	-0.132485
N46	N	-4.061343	0.070069	-1.124838
H47	H	-4.176981	0.111703	-1.154090
H48	H	-4.122633	-0.021112	-1.170976
H49	H	-4.222192	-0.375076	-1.038594
N50	N	-3.753288	0.308841	-0.673205
H51	H	-3.851388	0.309308	-0.621718
H52	H	-3.742639	0.382979	-0.723977
N53	N	-4.058086	-0.425186	-0.620073
H54	H	-4.145457	-0.390485	-0.578924
H55	H	-4.091167	-0.407552	-0.711731
N56	N	-4.244138	-0.600888	-0.860987
H57	H	-4.193386	-0.503967	-0.844037
H58	H	-4.405811	-0.636424	-0.915960
N59	N	-3.875274	0.310948	-0.949124
H60	H	-4.022074	0.312246	-1.007796
H61	H	-3.771716	0.320798	-0.998921
H62	H	-3.897389	-0.511476	-0.174983
