data_functionalizedCrystal
_audit_creation_method	'MofGen! by Chris Wilmer'
_symmetry_space_group_name_H-M	'P1'
_symmetry_Int_Tables_number	1
_symmetry_cell_setting	triclinic
loop_
_symmetry_equiv_pos_as_xyz
  x,y,z
_cell_length_a	15.944499
_cell_length_b	10.723024
_cell_length_c	9.198806
_cell_angle_alpha	90.002012
_cell_angle_beta	90.000529
_cell_angle_gamma	96.027260
loop_
_atom_site_label
_atom_site_type_symbol
_atom_site_fract_x
_atom_site_fract_y
_atom_site_fract_z
O1	O	1.115470	-0.160624	-0.120738
O2	O	1.615470	0.339376	0.379262
O3	O	0.871029	-0.180533	-0.120773
O4	O	1.371029	0.319467	0.379227
O5	O	0.998888	0.011070	-0.120749
O6	O	1.498888	0.511070	0.379251
O7	O	0.987611	-0.352228	-0.120762
O8	O	1.487611	0.147772	0.379238
O9	O	0.998878	0.011071	0.121036
O10	O	1.498878	0.511071	0.621036
O11	O	0.871018	-0.180533	0.121012
O12	O	1.371018	0.319467	0.621012
O13	O	1.115460	-0.160624	0.121047
O14	O	1.615460	0.339376	0.621047
Cu15	Cu	0.993238	-0.170578	0.143107
Cu16	Cu	1.493238	0.329422	0.643107
Cu17	Cu	0.993250	-0.170579	-0.142832
Cu18	Cu	1.493250	0.329421	0.357168
O19	O	0.987601	-0.352227	0.121023
O20	O	1.487601	0.147773	0.621023
C21	C	0.839724	-0.179718	0.000115
C22	C	1.339724	0.320282	0.500115
C23	C	0.746462	-0.177274	0.000101
C24	C	1.246462	0.322726	0.500101
C25	C	0.998062	0.057560	0.000142
C26	C	1.498062	0.557560	0.500142
C27	C	0.995607	0.196082	0.000136
C28	C	1.495607	0.696082	0.500136
C29	C	1.146765	-0.161439	0.000156
C30	C	1.646765	0.338561	0.500156
C31	C	1.240027	-0.163883	0.000160
C32	C	1.740027	0.336117	0.500160
C33	C	1.530926	-0.052566	0.000136
C34	C	2.030926	0.447434	0.500136
C35	C	1.470229	-0.110431	-0.119080
C36	C	1.970229	0.389569	0.380920
C37	C	1.575714	-0.172761	0.000118
C38	C	2.075714	0.327239	0.500118
C39	C	1.470241	-0.110464	0.119301
C40	C	1.970241	0.389536	0.619301
C41	C	1.410780	-0.168392	0.000141
C42	C	1.910780	0.331608	0.500141
C43	C	1.516246	-0.230659	-0.119196
C44	C	2.016246	0.269341	0.380804
C45	C	1.516264	-0.230675	0.119292
C46	C	2.016264	0.269325	0.619292
C47	C	1.455585	-0.288627	0.000047
C48	C	1.955585	0.211373	0.500047
C49	C	1.670729	-0.175274	0.000104
C50	C	2.170729	0.324726	0.500104
C51	C	1.315767	-0.165888	0.000146
C52	C	1.815767	0.334112	0.500146
C53	C	0.988427	-0.398716	0.000130
C54	C	1.488427	0.101284	0.500130
C55	C	0.990882	-0.537239	0.000126
C56	C	1.490882	-0.037239	0.500126
N57	N	0.993236	-0.170577	0.344221
N58	N	1.493236	0.329423	0.844221
C59	C	1.067150	0.271988	0.000144
C60	C	1.567150	0.771988	0.500144
C61	C	1.064614	0.415159	0.000139
C62	C	1.564614	0.915159	0.500139
N63	N	0.993259	-0.170570	-0.343946
N64	N	1.493259	0.329430	0.156054
C65	C	1.046920	-0.089777	0.416428
C66	C	1.546920	0.410223	0.916428
C67	C	1.046933	-0.089772	0.583840
C68	C	1.546933	0.410228	1.083840
H69	H	1.563711	0.047167	-0.000005
H70	H	2.063711	0.547167	0.499995
Cl71	Cl	0.922297	-0.277389	0.560199
Cl72	Cl	1.422297	0.222611	1.060199
Cl73	Cl	1.117902	0.017030	0.679704
Cl74	Cl	1.617902	0.517030	1.179704
Cl75	Cl	0.922282	-0.277374	0.440118
Cl76	Cl	1.422282	0.222626	0.940118
H77	H	0.932479	0.237089	0.000117
H78	H	1.432479	0.737089	0.500117
Cl79	Cl	1.438758	-0.031945	-0.274685
Cl80	Cl	1.938758	0.468055	0.225315
H81	H	1.092870	-0.020598	0.354310
H82	H	1.592870	0.479402	0.854310
Cl83	Cl	0.896313	0.362075	0.000126
Cl84	Cl	1.396313	0.862075	0.500126
H85	H	1.536516	-0.281458	-0.220094
H86	H	2.036516	0.218542	0.279906
H87	H	1.536669	-0.281472	0.220080
H88	H	2.036669	0.218528	0.720080
H89	H	1.422974	-0.388463	-0.000026
H90	H	1.922974	0.111537	0.499974
Cl91	Cl	1.438795	-0.031947	0.274908
Cl92	Cl	1.938795	0.468053	0.774908
H93	H	1.130278	0.230981	0.000163
H94	H	1.630278	0.730981	0.500163
Cl95	Cl	1.159180	0.515852	0.000161
Cl96	Cl	1.659180	1.015852	0.500161
