data_functionalizedCrystal
_audit_creation_method	'MofGen! by Chris Wilmer'
_symmetry_space_group_name_H-M	'P1'
_symmetry_Int_Tables_number	1
_symmetry_cell_setting	triclinic
loop_
_symmetry_equiv_pos_as_xyz
  x,y,z
_cell_length_a	13.032831
_cell_length_b	29.839125
_cell_length_c	13.032721
_cell_angle_alpha	97.166862
_cell_angle_beta	90.902885
_cell_angle_gamma	82.818235
loop_
_atom_site_label
_atom_site_type_symbol
_atom_site_fract_x
_atom_site_fract_y
_atom_site_fract_z
Zn1	Zn	1.520117	-0.370139	-0.609602
Zn2	Zn	2.020117	0.129861	-0.109602
Zn3	Zn	1.498182	-0.303203	-0.781539
Zn4	Zn	1.998182	0.196797	-0.281539
Zn5	Zn	1.348164	-0.284455	-0.587718
Zn6	Zn	1.848164	0.215545	-0.087718
Zn7	Zn	1.326266	-0.367740	-0.759648
Zn8	Zn	1.826266	0.132260	-0.259648
O9	O	1.423182	-0.331384	-0.684627
O10	O	1.923182	0.168616	-0.184627
O11	O	1.661118	-0.370110	-0.650731
O12	O	2.161118	0.129890	-0.150731
O13	O	1.478266	-0.237848	-0.755832
O14	O	1.978266	0.262152	-0.255832
O15	O	1.389319	-0.288979	-0.446711
O16	O	1.889319	0.211021	0.053289
O17	O	1.645002	-0.320932	-0.777052
O18	O	2.145002	0.179068	-0.277052
O19	O	1.515652	-0.351931	-0.462789
O20	O	2.015652	0.148069	0.037211
O21	O	1.368049	-0.224075	-0.613432
O22	O	1.868049	0.275925	-0.113432
O23	O	1.201349	-0.286653	-0.592204
O24	O	1.701349	0.213347	-0.092204
O25	O	1.351996	-0.430926	-0.739741
O26	O	1.851996	0.069074	-0.239741
O27	O	1.185261	-0.347843	-0.718520
O28	O	1.685261	0.152157	-0.218520
O29	O	1.494418	-0.432688	-0.629503
O30	O	1.994418	0.067312	-0.129503
O31	O	1.457032	-0.318606	-0.922545
O32	O	1.957032	0.181394	-0.422545
O33	O	1.330727	-0.366022	-0.906461
O34	O	1.830727	0.133978	-0.406461
C35	C	1.155991	-0.314954	-0.650613
C36	C	1.655991	0.185046	-0.150613
C37	C	1.041682	-0.307936	-0.636086
C38	C	1.541682	0.192064	-0.136086
C39	C	0.982774	-0.335047	-0.692208
C40	C	1.482774	0.164953	-0.192208
C41	C	0.864629	-0.327795	-0.677196
C42	C	1.364629	0.172205	-0.177196
C43	C	1.423211	-0.448564	-0.684621
C44	C	1.923211	0.051436	-0.184621
C45	C	1.423224	-0.498499	-0.684619
C46	C	1.923224	0.001501	-0.184619
C47	C	1.497474	-0.809059	-0.627054
C48	C	1.997474	-0.309059	-0.127054
C49	C	1.497536	-0.996731	-0.626973
C50	C	1.997536	-0.496731	-0.126973
O51	O	1.560577	-1.021775	-0.578118
O52	O	2.060577	-0.521775	-0.078118
N53	N	1.423395	-1.019280	-0.684361
N54	N	1.923395	-0.519280	-0.184361
C55	C	1.349229	-0.994906	-0.741767
C56	C	1.849229	-0.494906	-0.241767
O57	O	1.286163	-1.018391	-0.790568
O58	O	1.786163	-0.518391	-0.290568
C59	C	1.349163	-0.807235	-0.741842
C60	C	1.849163	-0.307235	-0.241842
C61	C	1.423316	-0.784690	-0.684459
C62	C	1.923316	-0.284690	-0.184459
C63	C	1.571619	-0.786514	-0.569675
C64	C	2.071619	-0.286514	-0.069675
C65	C	1.571606	-0.739599	-0.569701
C66	C	2.071606	-0.239599	-0.069701
C67	C	1.497448	-0.715230	-0.627105
C68	C	1.997448	-0.215230	-0.127105
C69	C	1.423303	-0.737775	-0.684484
C70	C	1.923303	-0.237775	-0.184484
C71	C	1.274994	-0.782862	-0.799241
C72	C	1.774994	-0.282862	-0.299241
C73	C	1.274983	-0.735941	-0.799253
C74	C	1.774983	-0.235941	-0.299253
C75	C	1.349135	-0.713396	-0.741870
C76	C	1.849135	-0.213396	-0.241870
C77	C	1.349132	-0.666491	-0.741914
C78	C	1.849132	-0.166491	-0.241914
N79	N	1.423273	-0.643942	-0.684527
N80	N	1.923273	-0.143942	-0.184527
C81	C	1.497431	-0.668312	-0.627122
C82	C	1.997431	-0.168312	-0.127122
C83	C	1.349270	-1.093437	-0.741725
C84	C	1.849270	-0.593437	-0.241725
C85	C	1.349288	-1.140355	-0.741708
C86	C	1.849288	-0.640355	-0.241708
C87	C	1.497593	-1.142176	-0.626913
C88	C	1.997593	-0.642176	-0.126913
C89	C	1.497580	-1.095258	-0.626936
C90	C	1.997580	-0.595258	-0.126936
C91	C	1.423411	-1.070889	-0.684338
C92	C	1.923411	-0.570889	-0.184338
C93	C	1.497399	-0.569787	-0.627180
C94	C	1.997399	-0.069787	-0.127180
C95	C	1.497382	-0.522869	-0.627214
C96	C	1.997382	-0.022869	-0.127214
C97	C	1.349073	-0.521051	-0.742005
C98	C	1.849073	-0.021051	-0.242005
C99	C	1.349093	-0.567966	-0.741976
C100	C	1.849093	-0.067966	-0.241976
C101	C	1.423260	-0.592333	-0.684556
C102	C	1.923260	-0.092333	-0.184556
O103	O	1.286117	-0.641417	-0.790735
O104	O	1.786117	-0.141417	-0.290735
O105	O	1.560474	-0.644818	-0.578310
O106	O	2.060474	-0.144818	-0.078310
C107	C	1.497486	-0.855974	-0.627029
C108	C	1.997486	-0.355974	-0.127029
C109	C	1.423341	-0.878519	-0.684408
C110	C	1.923341	-0.378519	-0.184408
C111	C	1.349183	-0.854150	-0.741813
C112	C	1.849183	-0.354150	-0.241813
C113	C	1.423359	-0.925437	-0.684391
C114	C	1.923359	-0.425437	-0.184391
C115	C	1.497517	-0.949807	-0.626987
C116	C	1.997517	-0.449807	-0.126987
C117	C	1.571657	-0.927258	-0.569599
C118	C	2.071657	-0.427258	-0.069599
C119	C	1.571645	-0.880344	-0.569625
C120	C	2.071645	-0.380344	-0.069625
C121	C	1.275042	-0.876698	-0.799200
C122	C	1.775042	-0.376698	-0.299200
C123	C	1.275062	-0.923613	-0.799171
C124	C	1.775062	-0.423613	-0.299171
C125	C	1.349220	-0.947983	-0.741766
C126	C	1.849220	-0.447983	-0.241766
C127	C	1.691417	-0.347880	-0.718775
C128	C	2.191417	0.152120	-0.218775
C129	C	1.805723	-0.354909	-0.733326
C130	C	2.305723	0.145091	-0.233326
C131	C	1.389151	-0.344100	-0.951821
C132	C	1.889151	0.155900	-0.451821
C133	C	1.374686	-0.349560	-1.066140
C134	C	1.874686	0.150440	-0.566140
C135	C	1.423222	-0.214661	-0.684566
C136	C	1.923222	0.285339	-0.184566
C137	C	1.423446	-0.164724	-0.684304
C138	C	1.923446	0.335276	-0.184304
C139	C	1.430786	-0.328558	-1.125037
C140	C	1.930786	0.171442	-0.625037
C141	C	1.415838	-0.334201	-1.243192
C142	C	1.915838	0.165799	-0.743192
C143	C	1.457375	-0.318631	-0.416393
C144	C	1.957375	0.181369	0.083607
C145	C	1.471945	-0.313196	-0.302087
C146	C	1.971945	0.186804	0.197913
H147	H	1.557769	-0.504515	-0.580486
H148	H	2.057769	-0.004515	-0.080486
H149	H	1.214679	-0.941966	-0.845909
H150	H	1.714679	-0.441966	-0.345909
H151	H	1.315594	-0.371720	-1.103189
H152	H	1.815594	0.128280	-0.603189
F153	F	1.338594	-0.363168	-1.291608
F154	F	1.838594	0.136832	-0.791608
H155	H	1.531050	-0.291039	-1.265044
H156	H	2.031050	0.208961	-0.765044
H157	H	1.288721	-0.586324	-0.788712
H158	H	1.788721	-0.086324	-0.288712
H159	H	1.019807	-0.363627	-0.751368
H160	H	1.519807	0.136373	-0.251368
H161	H	0.827602	-0.299215	-0.618025
H162	H	1.327602	0.200785	-0.118025
F163	F	0.854116	-0.392273	-0.810650
F164	F	1.354116	0.107727	-0.310650
H165	H	1.288698	-0.501201	-0.788746
H166	H	1.788698	-0.001201	-0.288746
F167	F	0.993284	-0.270582	-0.558749
F168	F	1.493284	0.229418	-0.058749
F169	F	1.196107	-0.850768	-0.860299
F170	F	1.696107	-0.350768	-0.360299
F171	F	1.576331	-0.595713	-0.566062
F172	F	2.076331	-0.095713	-0.066062
F173	F	1.650525	-0.715610	-0.508619
F174	F	2.150525	-0.215610	-0.008619
H175	H	1.632008	-0.806351	-0.522924
H176	H	2.132008	-0.306351	-0.022924
H177	H	1.557959	-1.076905	-0.580208
H178	H	2.057959	-0.576905	-0.080208
H179	H	1.557976	-1.162026	-0.580172
H180	H	2.057976	-0.662026	-0.080172
F181	F	1.650567	-0.856355	-0.508548
F182	F	2.150567	-0.356355	-0.008548
H183	H	1.288915	-1.158708	-0.788448
H184	H	1.788915	-0.658708	-0.288448
F185	F	1.270325	-1.067507	-0.802825
F186	F	1.770325	-0.567507	-0.302825
H187	H	1.214611	-0.801210	-0.845969
H188	H	1.714611	-0.301210	-0.345969
H189	H	1.214575	-0.716100	-0.845985
H190	H	1.714575	-0.216100	-0.345985
H191	H	1.632043	-0.947109	-0.522862
H192	H	2.132043	-0.447109	-0.022862
H193	H	1.489887	-0.306402	-1.087991
H194	H	1.989887	0.193598	-0.587991
