data_functionalizedCrystal
_audit_creation_method	'MofGen! by Chris Wilmer'
_symmetry_space_group_name_H-M	'P1'
_symmetry_Int_Tables_number	1
_symmetry_cell_setting	triclinic
loop_
_symmetry_equiv_pos_as_xyz
  x,y,z
_cell_length_a	12.759401
_cell_length_b	12.759400
_cell_length_c	12.759393
_cell_angle_alpha	89.969553
_cell_angle_beta	89.980563
_cell_angle_gamma	90.013177
loop_
_atom_site_label
_atom_site_type_symbol
_atom_site_fract_x
_atom_site_fract_y
_atom_site_fract_z
Zn1	Zn	1.606267	-0.418204	-0.594016
Zn2	Zn	2.106267	0.081796	-0.094016
Zn3	Zn	1.606166	-0.593923	-0.418339
Zn4	Zn	2.106166	-0.093923	0.081661
Zn5	Zn	1.430569	-0.418259	-0.418352
Zn6	Zn	1.930569	0.081741	0.081648
Zn7	Zn	1.430562	-0.593841	-0.593978
Zn8	Zn	1.930562	-0.093841	-0.093978
O9	O	1.518391	-0.506057	-0.506171
O10	O	2.018391	-0.006057	-0.006171
O11	O	1.753274	-0.441525	-0.570722
O12	O	2.253274	0.058475	-0.070722
O13	O	1.582833	-0.570677	-0.271320
O14	O	2.082833	-0.070677	0.228680
O15	O	1.453920	-0.271230	-0.441676
O16	O	1.953920	0.228770	0.058324
O17	O	1.753200	-0.570625	-0.441654
O18	O	2.253200	-0.070625	0.058346
O19	O	1.583005	-0.271190	-0.570735
O20	O	2.083005	0.228810	-0.070735
O21	O	1.453822	-0.441618	-0.271330
O22	O	1.953822	0.058382	0.228670
O23	O	1.283547	-0.441539	-0.441639
O24	O	1.783547	0.058461	0.058361
O25	O	1.453909	-0.570486	-0.741004
O26	O	1.953909	-0.070486	-0.241004
O27	O	1.283542	-0.570539	-0.570670
O28	O	1.783542	-0.070539	-0.070670
O29	O	1.582998	-0.441446	-0.741032
O30	O	2.082998	0.058554	-0.241032
O31	O	1.582826	-0.740933	-0.441617
O32	O	2.082826	-0.240933	0.058383
O33	O	1.453811	-0.740873	-0.570658
O34	O	1.953811	-0.240873	-0.070658
C35	C	1.245423	-0.506037	-0.506153
C36	C	1.745423	-0.006037	-0.006153
C37	C	1.128647	-0.506053	-0.506170
C38	C	1.628647	-0.006053	-0.006170
C39	C	0.964085	-0.573343	-0.573269
C40	C	1.464085	-0.073343	-0.073269
C41	C	1.073809	-0.573329	-0.573252
C42	C	1.573809	-0.073329	-0.073252
C43	C	1.073755	-0.438794	-0.439093
C44	C	1.573755	0.061206	0.060907
C45	C	0.964033	-0.438814	-0.439105
C46	C	1.464033	0.061186	0.060895
C47	C	0.909253	-0.640615	-0.640363
C48	C	1.409253	-0.140615	-0.140363
C49	C	0.964137	-0.707876	-0.707438
C50	C	1.464137	-0.207876	-0.207438
C51	C	1.073861	-0.707863	-0.707421
C52	C	1.573861	-0.207863	-0.207421
C53	C	1.128701	-0.640588	-0.640329
C54	C	1.628701	-0.140588	-0.140329
C55	C	1.518336	-0.779024	-0.506155
C56	C	2.018336	-0.279024	-0.006155
C57	C	1.518408	-0.895801	-0.506183
C58	C	2.018408	-0.395801	-0.006183
C59	C	1.585589	-0.950562	-0.573439
C60	C	2.085589	-0.450562	-0.073439
C61	C	1.585638	-1.060286	-0.573465
C62	C	2.085638	-0.560286	-0.073465
C63	C	1.451322	-1.060478	-0.438969
C64	C	1.951322	-0.560478	0.061031
C65	C	1.451269	-0.950756	-0.438949
C66	C	1.951269	-0.450756	0.061051
C67	C	1.652728	-0.895607	-0.640673
C68	C	2.152728	-0.395607	-0.140673
C69	C	1.719915	-0.950369	-0.707933
C70	C	2.219915	-0.450369	-0.207933
C71	C	1.719964	-1.060093	-0.707959
C72	C	2.219964	-0.560093	-0.207959
C73	C	1.652826	-1.115055	-0.640724
C74	C	2.152826	-0.615055	-0.140724
C75	C	1.792424	-0.506078	-0.506191
C76	C	2.292424	-0.006078	-0.006191
C77	C	1.909201	-0.506087	-0.506199
C78	C	2.409201	-0.006087	-0.006199
C79	C	1.518464	-0.505951	-0.780205
C80	C	2.018464	-0.005951	-0.280205
C81	C	1.518496	-0.505906	-0.896982
C82	C	2.018496	-0.005906	-0.396982
C83	C	1.518475	-0.232023	-0.506211
C84	C	2.018475	0.267977	-0.006211
C85	C	1.518510	-0.115247	-0.506228
C86	C	2.018510	0.384753	-0.006228
C87	C	1.585722	-0.438708	-0.951860
C88	C	2.085722	0.061292	-0.451860
C89	C	1.585747	-0.438670	-1.061584
C90	C	2.085747	0.061330	-0.561584
C91	C	1.451316	-0.573036	-1.061542
C92	C	1.951316	-0.073036	-0.561542
C93	C	1.451287	-0.573068	-0.951820
C94	C	1.951287	-0.073068	-0.451820
C95	C	1.663337	-0.361136	-0.951885
C96	C	2.163337	0.138864	-0.451885
C97	C	1.663362	-0.361098	-1.061609
C98	C	2.163362	0.138902	-0.561609
C99	C	1.518378	-0.506086	-0.233204
C100	C	2.018378	-0.006086	0.266796
C101	C	1.518550	-0.505836	-0.116428
C102	C	2.018550	-0.005836	0.383572
H103	H	1.218046	-0.640589	-0.640314
H104	H	1.718046	-0.140589	-0.140314
H105	H	1.396541	-0.627783	-0.907142
H106	H	1.896541	-0.127783	-0.407142
H107	H	1.652698	-0.806264	-0.640657
H108	H	2.152698	-0.306264	-0.140657
H109	H	1.774571	-0.905613	-0.762680
H110	H	2.274571	-0.405613	-0.262680
F111	F	1.791458	-1.118371	-0.779553
F112	F	2.291458	-0.618371	-0.279553
F113	F	1.764338	-0.399257	-0.907394
F114	F	2.264338	0.100743	-0.407394
H115	H	1.396595	-0.627715	-1.106205
H116	H	1.896595	-0.127715	-0.606205
F117	F	1.634881	-0.254790	-0.912984
F118	F	2.134881	0.245210	-0.412984
H119	H	1.396662	-1.105237	-0.384229
H120	H	1.896662	-0.605237	0.115771
H121	H	1.118545	-0.762637	-0.762031
H122	H	1.618545	-0.262637	-0.262031
F123	F	1.379770	-0.892471	-0.367365
F124	F	1.879770	-0.392471	0.132635
F125	F	1.625188	-0.260097	-1.106115
F126	F	2.125188	0.239903	-0.606115
H127	H	1.744733	-0.382890	-1.091389
H128	H	2.244733	0.117110	-0.591389
F129	F	0.792475	-0.640632	-0.640390
F130	F	1.292475	-0.140632	-0.140390
F131	F	0.905771	-0.779481	-0.778828
F132	F	1.405771	-0.279481	-0.278828
H133	H	1.118414	-0.384021	-0.384470
H134	H	1.618414	0.115979	0.115530
H135	H	1.652859	-1.204400	-0.640762
H136	H	2.152859	-0.704400	-0.140762
F137	F	0.905618	-0.367237	-0.367717
F138	F	1.405618	0.132763	0.132283
