data_functionalizedCrystal
_audit_creation_method	'MofGen! by Chris Wilmer'
_symmetry_space_group_name_H-M	'P1'
_symmetry_Int_Tables_number	1
_symmetry_cell_setting	triclinic
loop_
_symmetry_equiv_pos_as_xyz
  x,y,z
_cell_length_a	19.288867
_cell_length_b	17.766277
_cell_length_c	19.288865
_cell_angle_alpha	90.011603
_cell_angle_beta	83.136658
_cell_angle_gamma	90.007874
loop_
_atom_site_label
_atom_site_type_symbol
_atom_site_fract_x
_atom_site_fract_y
_atom_site_fract_z
O1	O	0.921352	0.062576	0.086655
O2	O	0.719092	0.062585	0.098343
O3	O	0.826066	0.062566	-0.008631
O4	O	0.814378	0.062596	0.193629
O5	O	0.826048	-0.062623	-0.008637
O6	O	0.719073	-0.062604	0.098337
O7	O	0.921333	-0.062612	0.086650
Cu8	Cu	0.820201	-0.074039	0.092493
Cu9	Cu	0.820224	0.074011	0.092500
O10	O	0.814359	-0.062593	0.193624
C11	C	0.693206	-0.000009	0.097964
C12	C	0.616102	-0.000006	0.096834
N13	N	0.820191	-0.178169	0.092488
C14	C	0.060547	0.068224	0.088701
C15	C	0.132995	0.068227	0.089758
C16	C	0.169213	-0.000013	0.090287
C17	C	0.132980	-0.068261	0.089741
C18	C	0.060535	-0.068262	0.088676
C19	C	0.278533	-0.052287	0.132652
C20	C	0.350976	-0.052283	0.133721
C21	C	0.392659	-0.000012	0.093566
C22	C	0.361888	0.052267	0.052352
C23	C	0.289443	0.052266	0.051288
C24	C	0.247768	-0.000019	0.091440
C25	C	0.507439	0.068235	0.095254
C26	C	0.579889	0.068235	0.096306
C27	C	0.579872	-0.068255	0.096296
C28	C	0.507425	-0.068253	0.095236
C29	C	0.471213	-0.000006	0.094718
C30	C	0.867575	-0.217564	0.045143
C31	C	0.867579	-0.296366	0.045140
C32	C	0.820206	-0.335769	0.092494
C33	C	0.772813	-0.296364	0.139842
C34	C	0.772806	-0.217564	0.139839
C35	C	0.810907	-0.460598	0.155781
C36	C	0.810919	-0.539397	0.155785
C37	C	0.820224	-0.578816	0.092502
C38	C	0.829532	-0.539426	0.029213
C39	C	0.829525	-0.460626	0.029210
C40	C	0.820208	-0.421215	0.092502
C41	C	0.867615	-0.703657	0.045150
C42	C	0.867614	-0.782460	0.045146
C43	C	0.772852	-0.782457	0.139854
C44	C	0.772849	-0.703655	0.139852
C45	C	0.820234	-0.664260	0.092501
C46	C	0.947219	-0.000017	0.087029
C47	C	1.024323	-0.000015	0.088159
N48	N	0.820240	0.178142	0.092499
C49	C	0.825681	-0.000031	-0.034510
C50	C	0.824552	-0.000038	-0.111614
C51	C	0.887320	-0.000044	-0.156310
C52	C	0.886259	-0.000032	-0.228757
C53	C	0.822427	-0.000029	-0.256505
C54	C	0.759651	-0.000018	-0.211799
C55	C	0.760713	-0.000023	-0.139354
C56	C	0.772241	-0.043877	-0.364795
C57	C	0.771181	-0.043878	-0.437239
C58	C	0.819147	-0.000012	-0.479951
C59	C	0.868185	0.043845	-0.450210
C60	C	0.869248	0.043840	-0.377765
C61	C	0.821268	-0.000024	-0.335059
C62	C	0.880769	-0.000004	-0.603202
C63	C	0.879706	0.000013	-0.675650
C64	C	0.753096	0.000019	-0.658691
C65	C	0.754161	0.000010	-0.586245
C66	C	0.818000	-0.000005	-0.558505
C67	C	0.814744	0.000005	0.219503
C68	C	0.815873	0.000017	0.296607
H69	H	0.162494	0.123798	0.090203
H70	H	0.162474	-0.123822	0.090170
N71	N	0.721753	-0.661154	0.190924
H72	H	0.691083	-0.628474	0.164457
H73	H	0.691788	-0.698114	0.220913
N74	N	0.618958	0.141843	0.096883
H75	H	0.600589	0.171680	0.139751
H76	H	0.670339	0.131433	0.097604
N77	N	0.686461	0.000012	-0.538031
H78	H	0.645861	0.000015	-0.566600
H79	H	0.684138	-0.046399	-0.507614
N80	N	0.800876	-0.581878	0.224042
H81	H	0.794969	-0.544951	0.264131
H82	H	0.757887	-0.614581	0.225595
N83	N	0.721752	-0.824948	0.190924
H84	H	0.691732	-0.788029	0.220917
H85	H	0.691137	-0.857652	0.164402
H86	H	0.031068	0.123797	0.088276
N87	N	0.918732	-0.824949	-0.005918
H88	H	0.892304	-0.857658	-0.036615
H89	H	0.948733	-0.787978	-0.035859
H90	H	0.477954	0.123805	0.094830
H91	H	0.734220	-0.185488	0.178394
N92	N	0.618926	-0.141859	0.096859
H93	H	0.670318	-0.131505	0.097613
H94	H	0.600495	-0.171657	0.139719
N95	N	0.918692	-0.338874	-0.005918
H96	H	0.892256	-0.371586	-0.036606
H97	H	0.948697	-0.301915	-0.035869
N98	N	0.839561	-0.418141	-0.039045
H99	H	0.845458	-0.455064	-0.079137
H100	H	0.797375	-0.385458	-0.042993
N101	N	0.021460	-0.141866	0.088091
H102	H	0.055458	-0.185095	0.088103
H103	H	-0.014037	-0.145060	0.130943
H104	H	0.906157	-0.185491	0.006586
N105	N	0.721714	-0.338858	0.190914
H106	H	0.728909	-0.394756	0.183733
H107	H	0.729575	-0.325068	0.240169
H108	H	0.803317	-0.428509	0.207317
H109	H	0.939302	-0.000053	-0.133729
H110	H	0.937374	-0.000034	-0.265155
N111	N	0.256252	0.108637	0.006829
H112	H	0.222021	0.140800	0.037551
H113	H	0.293687	0.141702	-0.018445
H114	H	0.837109	-0.571520	-0.022318
N115	N	0.922132	0.091139	-0.345685
H116	H	0.952360	0.118931	-0.383731
H117	H	0.897017	0.128600	-0.312196
N118	N	0.918717	-0.661159	-0.005920
H119	H	0.948733	-0.698077	-0.035919
H120	H	0.892223	-0.628477	-0.036560
N121	N	0.468348	-0.141855	0.094655
H122	H	0.502346	-0.185084	0.094667
H123	H	0.432851	-0.145049	0.137507
H124	H	0.907244	0.079565	-0.484985
H125	H	0.707678	-0.000014	-0.234396
H126	H	0.932750	-0.000013	-0.580616
N127	N	0.406838	0.108640	0.009028
H128	H	0.376353	0.141754	-0.017243
H129	H	0.432727	0.140753	0.040670
H130	H	0.709598	-0.000018	-0.102962
N131	N	0.947409	0.000009	-0.723862
H132	H	0.988008	-0.000004	-0.695293
H133	H	0.949712	-0.046398	-0.754301
H134	H	0.701123	0.000025	-0.681283
H135	H	0.733179	-0.079602	-0.330024
N136	N	0.384152	-0.108669	0.178176
H137	H	0.373573	-0.161352	0.162790
H138	H	0.436360	-0.100674	0.172749
H139	H	0.244600	-0.094861	0.165348
H140	H	0.731248	-0.079584	-0.461447
