data_functionalizedCrystal
_audit_creation_method	'MofGen! by Chris Wilmer'
_symmetry_space_group_name_H-M	'P1'
_symmetry_Int_Tables_number	1
_symmetry_cell_setting	triclinic
loop_
_symmetry_equiv_pos_as_xyz
  x,y,z
_cell_length_a	14.044220
_cell_length_b	17.699077
_cell_length_c	16.776229
_cell_angle_alpha	89.993415
_cell_angle_beta	90.005202
_cell_angle_gamma	91.765273
loop_
_atom_site_label
_atom_site_type_symbol
_atom_site_fract_x
_atom_site_fract_y
_atom_site_fract_z
O1	O	-0.119823	1.012347	-0.066276
O2	O	-0.135422	0.793044	-0.066280
O3	O	0.010355	0.899404	-0.066274
O4	O	-0.265599	0.905987	-0.066281
O5	O	0.010364	0.899388	0.066302
O6	O	-0.135413	0.793028	0.066297
O7	O	-0.119814	1.012331	0.066301
Zn8	Zn	-0.127612	0.902677	0.087348
Zn9	Zn	-0.127624	0.902698	-0.087327
O10	O	-0.265590	0.905971	0.066295
C11	C	-0.134859	0.764800	0.000008
C12	C	-0.133185	0.680667	0.000007
C13	C	-0.132392	0.641136	0.072275
C14	C	-0.130804	0.562084	0.072276
C15	C	-0.130016	0.522564	0.000008
C16	C	-0.130807	0.562100	-0.072266
C17	C	-0.132388	0.641151	-0.072266
C18	C	-0.124429	0.243297	-0.072268
C19	C	-0.122851	0.164240	-0.072262
C20	C	-0.122845	0.164230	0.072275
C21	C	-0.124426	0.243281	0.072275
C22	C	-0.125212	0.282810	0.000001
C23	C	-0.126932	0.368528	0.000001
C24	C	-0.128303	0.436848	0.000007
C25	C	-0.300903	0.908861	0.000006
C26	C	-0.406108	0.917457	0.000003
C27	C	-0.598733	0.933172	0.000007
C28	C	-0.656508	0.872206	0.000007
C29	C	-0.763691	0.880950	0.000009
C30	C	-0.491540	0.924429	0.000005
C31	C	0.045667	0.896514	0.000013
C32	C	0.150873	0.887918	0.000011
C33	C	-0.120376	1.040575	0.000011
C34	C	-0.122050	1.124708	0.000007
N35	N	-0.127603	0.902668	0.206559
N36	N	-0.127625	0.902712	-0.206538
C37	C	-0.063080	0.949782	0.248279
C38	C	-0.063079	0.949786	0.331731
C39	C	-0.127607	0.902680	0.373462
C40	C	-0.192133	0.855561	0.331737
C41	C	-0.192129	0.855553	0.248286
C42	C	-0.192152	0.855589	0.668284
C43	C	-0.192153	0.855602	0.751741
C44	C	-0.063102	0.949822	0.751729
C45	C	-0.063098	0.949814	0.668278
C46	C	-0.127620	0.902693	0.626560
C47	C	-0.127619	0.902688	0.536072
C48	C	-0.127613	0.902688	0.463949
H49	H	-0.122209	0.132065	-0.131115
Br50	Br	0.024468	1.013773	0.808350
Br51	Br	-0.604788	0.774265	0.000010
Br52	Br	-0.650456	1.031107	0.000011
Br53	Br	0.024492	1.013721	0.191652
Br54	Br	0.024493	1.013724	0.388353
H55	H	-0.122201	0.132036	0.131123
H56	H	-0.010557	0.988175	0.634303
H57	H	-0.244702	0.817240	0.785717
Br58	Br	-0.279717	0.791643	0.611671
H59	H	-0.244670	0.817202	0.365719
Br60	Br	-0.129742	0.508437	0.170359
H61	H	-0.125066	0.275472	-0.131117
Br62	Br	-0.279694	0.791605	0.191667
Br63	Br	-0.129696	0.508468	-0.170346
H64	H	-0.133041	0.673308	0.131124
Br65	Br	-0.133457	0.694801	-0.170349
Br66	Br	-0.125504	0.296911	0.170356
