data_functionalizedCrystal
_audit_creation_method	'MofGen! by Chris Wilmer'
_symmetry_space_group_name_H-M	'P1'
_symmetry_Int_Tables_number	1
_symmetry_cell_setting	triclinic
loop_
_symmetry_equiv_pos_as_xyz
  x,y,z
_cell_length_a	13.262522
_cell_length_b	13.262508
_cell_length_c	7.681481
_cell_angle_alpha	100.048420
_cell_angle_beta	79.935868
_cell_angle_gamma	88.759796
loop_
_atom_site_label
_atom_site_type_symbol
_atom_site_fract_x
_atom_site_fract_y
_atom_site_fract_z
O1	O	1.346015	0.188700	-0.700634
O2	O	1.050236	0.194323	-0.556301
O3	O	1.200944	0.043633	-0.700633
O4	O	1.195306	0.339390	-0.556302
O5	O	1.219493	0.025042	-0.425560
O6	O	1.068784	0.175732	-0.281228
O7	O	1.364563	0.170109	-0.425561
Zn8	Zn	1.219618	0.169969	-0.309721
Zn9	Zn	1.195180	0.194463	-0.672141
O10	O	1.213854	0.320799	-0.281229
C11	C	1.021563	0.183004	-0.401562
C12	C	0.908492	0.176962	-0.350309
C13	C	1.208197	-0.003606	-0.580303
C14	C	1.202160	-0.116668	-0.631566
C15	C	0.865490	0.163991	-0.176278
C16	C	0.759256	0.158304	-0.128115
C17	C	0.696013	0.165596	-0.253974
C18	C	0.739015	0.178575	-0.428004
C19	C	0.845260	0.184254	-0.476177
C20	C	0.675783	0.185859	-0.553872
C21	C	0.718785	0.198837	-0.727903
C22	C	0.825019	0.204517	-0.776066
C23	C	0.888262	0.197225	-0.650207
C24	C	0.569538	0.180179	-0.505700
C25	C	0.549308	0.200442	-0.805598
C26	C	0.655542	0.206129	-0.853761
C27	C	1.225581	-0.475922	-0.176279
C28	C	1.231245	-0.369694	-0.128109
C29	C	1.223975	-0.306432	-0.253969
C30	C	1.211039	-0.349409	-0.428008
C31	C	1.205366	-0.455647	-0.476179
C32	C	1.203759	-0.286158	-0.553869
C33	C	1.190823	-0.329134	-0.727907
C34	C	1.185152	-0.435362	-0.776070
C35	C	1.192423	-0.498623	-0.650210
C36	C	1.209432	-0.179920	-0.505698
C37	C	1.189216	-0.159645	-0.805597
C38	C	1.183552	-0.265873	-0.853768
C39	C	1.393236	0.181429	-0.580304
C40	C	1.506306	0.187471	-0.631568
C41	C	1.206602	0.368039	-0.401563
C42	C	1.212638	0.481102	-0.350310
N43	N	1.236304	0.153252	-0.062383
N44	N	1.178503	0.211173	-0.919487
H45	H	0.609513	0.160966	-0.214748
H46	H	1.119499	0.270292	0.061882
C47	C	0.935066	0.155977	-0.037865
C48	C	1.002477	0.245015	0.016348
C49	C	1.072060	0.237003	0.154766
C50	C	1.074234	0.139952	0.238973
C51	C	1.006821	0.050906	0.184761
C52	C	0.937237	0.058919	0.046343
H53	H	1.000870	0.316865	-0.045988
H54	H	1.121964	0.302920	0.194896
H55	H	1.125743	0.134020	0.341438
H56	H	1.008427	-0.020943	0.247097
H57	H	0.887333	-0.006999	0.006213
H58	H	1.228586	-0.219937	-0.214737
C59	C	0.479753	0.208467	-0.944059
C60	C	0.412341	0.119435	-0.998300
C61	C	0.342780	0.127455	-1.136750
C62	C	0.340631	0.224506	-1.220960
C63	C	0.408046	0.313545	-1.166721
C64	C	0.477606	0.305525	-1.028270
H65	H	0.413929	0.047585	-0.935961
H66	H	0.292875	0.061542	-1.176901
H67	H	0.289138	0.230443	-1.323450
H68	H	0.406457	0.385395	-1.229059
H69	H	0.527511	0.371438	-0.988119
C70	C	1.316027	0.073383	-0.037224
C71	C	1.328790	0.060615	0.153316
C72	C	1.408511	-0.019252	0.178476
C73	C	1.475470	-0.086351	0.013094
C74	C	1.462709	-0.073585	-0.177460
C75	C	1.382988	0.006282	-0.202619
H76	H	1.279221	0.110288	0.275754
H77	H	1.417957	-0.028702	0.319537
H78	H	1.534484	-0.145473	0.031719
H79	H	1.512278	-0.123257	-0.299897
H80	H	1.373542	0.015732	-0.343681
H81	H	0.534536	0.169620	-0.363999
H82	H	0.724253	0.147723	0.013573
H83	H	0.974767	0.201858	-0.689411
H84	H	0.860029	0.215071	-0.917780
H85	H	0.690569	0.216697	-0.995460
H86	H	1.219956	-0.144938	-0.363990
H87	H	1.241789	-0.334711	0.013587
H88	H	1.231492	-0.527437	-0.073819
H89	H	1.187817	-0.585125	-0.689424
H90	H	1.174609	-0.470349	-0.917779
H91	H	1.173019	-0.300880	-0.995472
H92	H	1.183289	-0.108136	-0.908080
