data_functionalizedCrystal
_audit_creation_method	'MofGen! by Chris Wilmer'
_symmetry_space_group_name_H-M	'P1'
_symmetry_Int_Tables_number	1
_symmetry_cell_setting	triclinic
loop_
_symmetry_equiv_pos_as_xyz
  x,y,z
_cell_length_a	8.965430
_cell_length_b	10.723024
_cell_length_c	10.723024
_cell_angle_alpha	95.532131
_cell_angle_beta	89.998405
_cell_angle_gamma	89.996456
loop_
_atom_site_label
_atom_site_type_symbol
_atom_site_fract_x
_atom_site_fract_y
_atom_site_fract_z
O1	O	0.124026	-1.657188	0.175018
O2	O	0.124030	-1.294036	0.191771
O3	O	0.124022	-1.483989	0.001818
O4	O	0.124034	-1.467235	0.364971
O5	O	-0.124057	-1.483973	0.001831
O6	O	-0.124049	-1.294020	0.191784
O7	O	-0.124053	-1.657172	0.175031
Cu8	Cu	-0.146703	-1.475595	0.183408
Cu9	Cu	0.146680	-1.475614	0.183393
O10	O	-0.124045	-1.467219	0.364983
C11	C	-0.000009	-1.247528	0.190558
C12	C	-0.000007	-1.108974	0.186911
N13	N	-0.353052	-1.475590	0.183418
C14	C	-0.000015	-1.482762	-0.044675
C15	C	-0.000010	-1.479114	-0.183229
C16	C	-0.450354	-1.387716	0.271236
C17	C	-0.549768	-1.500691	0.296416
C18	C	-0.549765	-1.362663	0.158249
C19	C	-0.450277	-1.588622	0.208655
C20	C	-0.450265	-1.450520	0.070438
C21	C	-0.549634	-1.563576	0.095571
N22	N	0.353029	-1.475628	0.183374
C23	C	-0.000011	-1.703680	0.176243
C24	C	-0.000003	-1.842234	0.179891
C25	C	-0.000002	-1.033991	0.293198
C26	C	-0.000001	-0.890788	0.289431
C27	C	-0.000009	-1.585401	-0.258212
C28	C	-0.000004	-1.581634	-0.401415
C29	C	-0.000004	-1.468447	0.411477
C30	C	0.000000	-1.472094	0.550031
H31	H	-0.593474	-1.521921	0.391941
H32	H	-0.000010	-1.672624	-0.465848
H33	H	-0.406760	-1.684160	0.230038
N34	N	-0.603966	-1.656928	0.002381
N35	N	-0.571757	-1.769602	0.008437
H36	H	-0.610129	-1.835536	-0.057375
H37	H	-0.406524	-1.429254	-0.025057
H38	H	-0.406762	-1.313473	0.345569
H39	H	-0.000008	-1.075814	0.386984
N40	N	-0.000030	-0.809970	0.403586
N41	N	-0.104608	-0.815098	0.480017
H42	H	-0.104633	-0.758017	0.560643
H43	H	-0.000020	-1.679187	-0.216390
N44	N	-0.000024	-0.923065	0.065744
N45	N	-0.104598	-0.998826	0.042425
H46	H	-0.104615	-1.055923	-0.038191
N47	N	-0.604595	-1.242837	0.131584
N48	N	-0.572790	-1.147200	0.202605
H49	H	-0.611514	-1.062569	0.183786
N50	N	0.000006	-1.056543	0.069240
N51	N	0.000009	-1.126965	-0.030690
H52	H	0.000019	-1.089941	-0.113800
N53	N	0.000015	-1.357948	-0.369137
N54	N	0.104585	-1.334630	-0.293370
H55	H	0.104598	-1.254015	-0.236272
N56	N	-0.000022	-1.361465	-0.235704
N57	N	-0.104591	-1.334310	-0.305294
H58	H	-0.104601	-1.251218	-0.342354
