data_functionalizedCrystal
_audit_creation_method	'MofGen! by Chris Wilmer'
_symmetry_space_group_name_H-M	'P1'
_symmetry_Int_Tables_number	1
_symmetry_cell_setting	triclinic
loop_
_symmetry_equiv_pos_as_xyz
  x,y,z
_cell_length_a	19.288865
_cell_length_b	19.288865
_cell_length_c	18.366186
_cell_angle_alpha	89.993214
_cell_angle_beta	90.004920
_cell_angle_gamma	96.863753
loop_
_atom_site_label
_atom_site_type_symbol
_atom_site_fract_x
_atom_site_fract_y
_atom_site_fract_z
O1	O	0.921351	-0.086644	0.060533
O2	O	0.719090	-0.098333	0.060541
O3	O	0.826065	0.008642	0.060522
O4	O	0.814376	-0.193619	0.060552
O5	O	0.826051	0.008638	-0.060577
O6	O	0.719076	-0.098337	-0.060558
O7	O	0.921337	-0.086648	-0.060566
Zn8	Zn	0.820204	-0.092493	-0.079789
Zn9	Zn	0.820222	-0.092488	0.079764
O10	O	0.814362	-0.193623	-0.060548
C11	C	0.693207	-0.097959	-0.000008
C12	C	0.616103	-0.096830	-0.000005
N13	N	0.820197	-0.092496	-0.188681
C14	C	0.947220	-0.087022	-0.000016
C15	C	1.024324	-0.088151	-0.000013
C16	C	0.825682	0.034516	-0.000029
C17	C	0.824553	0.111620	-0.000036
C18	C	1.069020	-0.025383	-0.000016
C19	C	1.141467	-0.026444	-0.000020
C20	C	1.169215	-0.090276	-0.000007
C21	C	1.124508	-0.153052	-0.000008
C22	C	1.052063	-0.151990	-0.000012
C23	C	1.277496	-0.140454	0.042431
C24	C	1.349941	-0.141514	0.042439
C25	C	1.392660	-0.093556	-0.000000
C26	C	1.362928	-0.044526	-0.042438
C27	C	1.290482	-0.043463	-0.042441
C28	C	1.247769	-0.091435	-0.000004
C29	C	1.515912	-0.031934	-0.000009
C30	C	1.588361	-0.032997	-0.000017
C31	C	1.571400	-0.159607	0.000002
C32	C	1.498954	-0.158542	0.000003
C33	C	1.471215	-0.094703	0.000001
C34	C	0.814745	-0.219497	0.000006
C35	C	0.815874	-0.296601	0.000017
C36	C	0.887320	0.156316	-0.000042
C37	C	0.886260	0.228763	-0.000030
C38	C	0.822428	0.256511	-0.000027
C39	C	0.759651	0.211805	-0.000017
C40	C	0.760714	0.139359	-0.000021
C41	C	0.772243	0.364797	-0.042444
C42	C	0.771183	0.437241	-0.042444
C43	C	0.819148	0.479956	-0.000011
C44	C	0.868184	0.450220	0.042413
C45	C	0.869247	0.377774	0.042409
C46	C	0.821268	0.335065	-0.000022
C47	C	0.880770	0.603209	-0.000003
C48	C	0.879707	0.675657	0.000013
C49	C	0.753097	0.658697	0.000019
C50	C	0.754162	0.586250	0.000010
C51	C	0.818000	0.558511	-0.000005
C52	C	0.862228	-0.134494	-0.773225
C53	C	0.862221	-0.134500	-0.696998
C54	C	0.820229	-0.092480	-0.658892
C55	C	0.778228	-0.050464	-0.697020
C56	C	0.778231	-0.050463	-0.773247
C57	C	0.818502	-0.029856	-0.538135
C58	C	0.818504	-0.029855	-0.461910
C59	C	0.820215	-0.092482	-0.423784
C60	C	0.821939	-0.155112	-0.461893
C61	C	0.821942	-0.155111	-0.538120
C62	C	0.820221	-0.092476	-0.576237
C63	C	0.862202	-0.134507	-0.303010
C64	C	0.862190	-0.134515	-0.226781
C65	C	0.778201	-0.050472	-0.226805
C66	C	0.778209	-0.050470	-0.303033
C67	C	0.820214	-0.092487	-0.341131
N68	N	0.820235	-0.092480	0.188655
H69	H	1.046440	0.026599	-0.000020
H70	H	0.701123	0.681288	0.000025
Cl71	Cl	0.915027	-0.187311	-0.649066
Cl72	Cl	1.442761	-0.237455	0.000015
Cl73	Cl	0.914970	-0.187354	-0.178859
H74	H	1.374144	-0.181432	0.076999
Cl75	Cl	0.725436	0.002359	-0.821170
H76	H	1.177866	0.024671	-0.000020
H77	H	0.817105	0.021142	-0.430887
H78	H	1.266277	-0.003543	-0.076996
Cl79	Cl	0.824094	-0.233848	-0.413973
Cl80	Cl	0.675249	0.530057	0.000014
H81	H	0.733183	0.330023	-0.077002
H82	H	0.823344	-0.206106	-0.569145
H83	H	0.731252	0.461447	-0.076984
Cl84	Cl	1.416625	0.015775	-0.095786
Cl85	Cl	0.915003	-0.187329	-0.350908
H86	H	0.932751	0.580622	-0.000012
H87	H	1.015670	-0.203105	-0.000010
H88	H	1.147105	-0.205025	0.000001
H89	H	1.493326	0.020048	-0.000013
H90	H	0.744006	-0.016263	-0.195780
Cl91	Cl	1.644552	0.045919	-0.000029
H92	H	0.707679	0.234401	-0.000013
Cl93	Cl	1.223798	-0.200755	0.095783
H94	H	0.817102	0.021146	-0.569170
H95	H	0.744036	-0.016252	-0.665990
Cl96	Cl	0.915027	-0.187320	-0.821116
Cl97	Cl	0.725418	0.002354	-0.350957
H98	H	0.709599	0.102967	-0.000017
H99	H	0.937375	0.265162	-0.000032
H100	H	1.593991	-0.211580	0.000008
Cl101	Cl	0.958623	0.731848	0.000010
H102	H	0.939303	0.133736	-0.000051
Cl103	Cl	0.930885	0.340392	0.095744
H104	H	0.907241	0.484997	0.076967
