data_functionalizedCrystal
_audit_creation_method	'MofGen! by Chris Wilmer'
_symmetry_space_group_name_H-M	'P1'
_symmetry_Int_Tables_number	1
_symmetry_cell_setting	triclinic
loop_
_symmetry_equiv_pos_as_xyz
  x,y,z
_cell_length_a	19.288840
_cell_length_b	15.995350
_cell_length_c	18.366186
_cell_angle_alpha	89.995992
_cell_angle_beta	89.983729
_cell_angle_gamma	83.309196
loop_
_atom_site_label
_atom_site_type_symbol
_atom_site_fract_x
_atom_site_fract_y
_atom_site_fract_z
O1	O	0.921635	0.104352	-0.060668
O2	O	1.421635	0.604352	0.439332
O3	O	0.719408	0.118464	-0.060642
O4	O	1.219408	0.618464	0.439358
O5	O	0.826049	-0.010501	-0.060655
O6	O	1.326049	0.489499	0.439345
O7	O	0.814993	0.233317	-0.060655
O8	O	1.314993	0.733317	0.439345
O9	O	0.826031	-0.010508	0.060444
O10	O	1.326031	0.489492	0.560444
O11	O	0.719390	0.118457	0.060457
O12	O	1.219390	0.618457	0.560457
O13	O	0.921617	0.104345	0.060432
O14	O	1.421617	0.604345	0.560432
Zn15	Zn	0.820500	0.111400	0.079672
Zn16	Zn	1.320500	0.611400	0.579672
Zn17	Zn	0.820524	0.111409	-0.079882
Zn18	Zn	1.320524	0.611409	0.420118
O19	O	0.814975	0.233310	0.060444
O20	O	1.314975	0.733310	0.560444
C21	C	0.693521	0.118010	-0.000089
C22	C	1.193521	0.618010	0.499911
C23	C	0.616413	0.116657	-0.000079
C24	C	1.116413	0.616657	0.499921
C25	C	0.580218	0.116011	-0.066093
C26	C	1.080218	0.616011	0.433907
C27	C	0.507768	0.114731	-0.066101
C28	C	1.007768	0.614731	0.433899
C29	C	0.471517	0.114080	-0.000094
C30	C	0.971517	0.614080	0.499906
C31	C	0.507721	0.114731	0.065928
C32	C	1.007721	0.614731	0.565928
C33	C	0.580169	0.116020	0.065935
C34	C	1.080169	0.616020	0.565935
C35	C	0.362050	0.062993	0.050468
C36	C	0.862050	0.562993	0.550468
C37	C	0.289603	0.061699	0.050458
C38	C	0.789603	0.561699	0.550458
C39	C	0.248063	0.110109	-0.000113
C40	C	0.748063	0.610109	0.499887
C41	C	0.278980	0.159803	-0.050685
C42	C	0.778980	0.659803	0.449315
C43	C	0.351427	0.161091	-0.050678
C44	C	0.851427	0.661091	0.449322
C45	C	0.392960	0.112683	-0.000094
C46	C	0.892960	0.612683	0.499906
C47	C	0.133309	0.108076	-0.066140
C48	C	0.633309	0.608076	0.433860
C49	C	0.060857	0.106801	-0.066146
C50	C	0.560857	0.606801	0.433854
C51	C	0.060813	0.106793	0.065886
C52	C	0.560813	0.606793	0.565886
C53	C	0.133262	0.108076	0.065890
C54	C	0.633262	0.608076	0.565890
C55	C	0.169507	0.108714	-0.000125
C56	C	0.669507	0.608714	0.499875
C57	C	0.825583	-0.041698	-0.000107
C58	C	1.325583	0.458302	0.499893
C59	C	0.824213	-0.134643	-0.000111
C60	C	1.324213	0.365357	0.499889
C61	C	0.819292	-0.472371	-0.000107
C62	C	1.319292	0.027629	0.499893
C63	C	0.743344	-0.424642	-0.000369
C64	C	1.243344	0.075358	0.499631
C65	C	0.744715	-0.327957	-0.000097
C66	C	1.244715	0.172043	0.499903
C67	C	0.821733	-0.304820	-0.000109
C68	C	1.321733	0.195180	0.499891
C69	C	0.859183	-0.346046	0.069038
C70	C	1.359183	0.153954	0.569038
C71	C	0.857275	-0.442675	0.069096
C72	C	1.357275	0.057325	0.569096
C73	C	0.858864	-0.443032	-0.068616
C74	C	1.358864	0.056968	0.431384
C75	C	0.858847	-0.346086	-0.069530
C76	C	1.358847	0.153914	0.430470
C77	C	0.823116	-0.210128	-0.000108
C78	C	1.323116	0.289872	0.499892
C79	C	0.817911	-0.567064	-0.000104
C80	C	1.317911	-0.067064	0.499896
C81	C	0.947504	0.104799	-0.000123
C82	C	1.447504	0.604799	0.499877
C83	C	1.024612	0.106152	-0.000137
C84	C	1.524612	0.606152	0.499863
C85	C	0.815441	0.264507	-0.000105
C86	C	1.315441	0.764507	0.499895
C87	C	0.816812	0.357452	-0.000106
C88	C	1.316812	0.857452	0.499894
N89	N	0.820489	0.111394	0.188563
N90	N	1.320489	0.611394	0.688563
N91	N	0.820541	0.111408	-0.188773
N92	N	1.320541	0.611408	0.311227
C93	C	0.867725	0.054316	0.226657
C94	C	1.367725	0.554316	0.726657
C95	C	0.867730	0.054313	0.302885
C96	C	1.367730	0.554313	0.802885
C97	C	0.820505	0.111401	0.341015
C98	C	1.320505	0.611401	0.841015
C99	C	0.773260	0.168483	0.302912
C100	C	1.273260	0.668483	0.802912
C101	C	0.773252	0.168480	0.226685
C102	C	1.273252	0.668480	0.726685
C103	C	0.811404	0.187693	0.461776
C104	C	1.311404	0.687693	0.961776
C105	C	0.811417	0.187697	0.538001
C106	C	1.311417	0.687697	1.038001
C107	C	0.820524	0.111412	0.576123
C108	C	1.320524	0.611412	1.076123
C109	C	0.829634	0.035118	0.538010
C110	C	1.329634	0.535118	1.038010
C111	C	0.829626	0.035114	0.461784
C112	C	1.329626	0.535114	0.961784
C113	C	0.820507	0.111411	0.423670
C114	C	1.320507	0.611411	0.923670
C115	C	0.867768	0.054325	0.696873
C116	C	1.367768	0.554325	1.196873
C117	C	0.867768	0.054320	0.773102
C118	C	1.367768	0.554320	1.273102
C119	C	0.773301	0.168498	0.773127
C120	C	1.273301	0.668498	1.273127
C121	C	0.773298	0.168496	0.696899
C122	C	1.273298	0.668496	1.196899
C123	C	0.820535	0.111410	0.658776
C124	C	1.320535	0.611410	1.158776
H125	H	0.245158	0.199226	-0.091862
H126	H	0.745158	0.699226	0.408138
N127	N	0.930165	-0.328602	0.072246
N128	N	1.430165	0.171398	0.572246
N129	N	0.954000	-0.285486	0.023489
N130	N	1.454000	0.214514	0.523489
H131	H	1.004133	-0.273164	0.025752
H132	H	1.504133	0.226836	0.525752
H133	H	0.734786	0.214960	0.195668
H134	H	1.234786	0.714960	0.695668
N135	N	0.404492	0.013552	0.102126
N136	N	0.904492	0.513552	0.602126
N137	N	0.441182	0.048533	0.146221
N138	N	0.941182	0.548533	0.646221
H139	H	0.471158	0.013619	0.182703
H140	H	0.971158	0.513619	0.682703
H141	H	0.715063	-0.299980	0.049563
H142	H	1.215063	0.200020	0.549563
H143	H	0.609639	0.116547	0.119693
H144	H	1.109639	0.616547	0.619693
N145	N	0.826529	-0.310316	0.133598
N146	N	1.326529	0.189684	0.633598
N147	N	0.775686	-0.254501	0.128863
N148	N	1.275686	0.245499	0.628863
H149	H	0.752620	-0.229267	0.174456
H150	H	1.252620	0.270733	0.674456
N151	N	0.725061	0.226826	0.812055
N152	N	1.225061	0.726826	1.312055
N153	N	0.682893	0.277792	0.778028
N154	N	1.182893	0.777792	1.278028
H155	H	0.648821	0.318988	0.805523
H156	H	1.148821	0.818988	1.305523
H157	H	0.162734	0.108597	0.119645
H158	H	0.662734	0.608597	0.619645
N159	N	0.023872	0.106129	-0.133574
N160	N	0.523872	0.606129	0.366426
N161	N	-0.040813	0.104979	-0.133573
N162	N	0.459187	0.604979	0.366427
H163	H	-0.066935	0.104502	-0.181195
H164	H	0.433065	0.604502	0.318805
N165	N	0.617234	0.116648	-0.133527
N166	N	1.117234	0.616648	0.366473
N167	N	0.615562	0.057491	-0.177720
N168	N	1.115562	0.557491	0.322280
H169	H	0.641703	0.057939	-0.225348
H170	H	1.141703	0.557939	0.274652
N171	N	0.802121	0.265633	0.576918
N172	N	1.302121	0.765633	1.076918
N173	N	0.793983	0.333740	0.542875
N174	N	1.293983	0.833740	1.042875
H175	H	0.787419	0.388785	0.570357
H176	H	1.287419	0.888785	1.070357
N177	N	0.707780	-0.292162	-0.062279
N178	N	1.207780	0.207838	0.437721
N179	N	0.680807	-0.338580	-0.106181
N180	N	1.180807	0.161420	0.393819
H181	H	0.654718	-0.313303	-0.150098
H182	H	1.154718	0.186697	0.349902
N183	N	0.929115	-0.483131	-0.069229
N184	N	1.429115	0.016869	0.430771
N185	N	0.978928	-0.439696	-0.067506
N186	N	1.478928	0.060304	0.432494
H187	H	1.028541	-0.468016	-0.067936
H188	H	1.528541	0.031984	0.432064
H189	H	0.478292	0.114206	-0.119859
H190	H	0.978292	0.614206	0.380141
H191	H	0.834041	-0.463472	-0.121027
H192	H	1.334041	0.036528	0.378973
N193	N	0.470708	0.114056	0.133361
N194	N	0.970708	0.614056	0.633361
N195	N	0.503038	0.114629	0.192299
N196	N	1.003038	0.614629	0.692299
H197	H	0.476899	0.114154	0.239926
H198	H	0.976899	0.614154	0.739926
N199	N	0.916038	-0.003929	0.187729
N200	N	1.416038	0.496071	0.687729
N201	N	0.958250	-0.054841	0.221758
N202	N	1.458250	0.445159	0.721758
H203	H	0.992394	-0.095952	0.194264
H204	H	1.492394	0.404048	0.694264
H205	H	0.906231	0.007836	0.804119
H206	H	1.406231	0.507836	1.304119
N207	N	0.725010	0.226797	0.341846
N208	N	1.225010	0.726797	0.841846
N209	N	0.660812	0.225847	0.333359
N210	N	1.160812	0.725847	0.833359
H211	H	0.626731	0.267030	0.360856
H212	H	1.126731	0.767030	0.860856
N213	N	0.705279	-0.447736	-0.062582
N214	N	1.205279	0.052264	0.437418
N215	N	0.733677	-0.499645	-0.107453
N216	N	1.233677	0.000355	0.392547
H217	H	0.706794	-0.515958	-0.151395
H218	H	1.206794	-0.015958	0.348605
H219	H	0.913034	-0.475139	0.072225
H220	H	1.413034	0.024861	0.572225
H221	H	0.713116	-0.444122	0.048949
H222	H	1.213116	0.055878	0.548949
H223	H	0.264438	0.021231	0.091634
H224	H	0.764438	0.521231	0.591634
N225	N	0.824536	-0.311702	-0.133700
N226	N	1.324536	0.188298	0.366300
N227	N	0.772942	-0.257005	-0.128382
N228	N	1.272942	0.242995	0.371618
H229	H	0.748709	-0.232716	-0.173701
H230	H	1.248709	0.267284	0.326299
H231	H	0.915012	-0.330942	-0.073715
H232	H	1.415012	0.169058	0.426285
N233	N	0.822997	-0.465497	0.133952
N234	N	1.322997	0.034503	0.633952
N235	N	0.800645	-0.410087	0.178857
N236	N	1.300645	0.089913	0.678857
H237	H	0.776434	-0.426200	0.224663
H238	H	1.276434	0.073800	0.724663
N239	N	0.802120	0.265620	0.422835
N240	N	1.302120	0.765620	0.922835
N241	N	0.848520	0.284256	0.380282
N242	N	1.348520	0.784256	0.880282
H243	H	0.841966	0.339289	0.352777
H244	H	1.341966	0.839289	0.852777
H245	H	0.734836	0.214977	0.665880
H246	H	1.234836	0.714977	1.165880
N247	N	0.915976	-0.003998	0.341813
N248	N	1.415976	0.496002	0.841813
N249	N	0.915036	-0.081392	0.333319
N250	N	1.415036	0.418608	0.833319
H251	H	0.949109	-0.122573	0.360812
H252	H	1.449109	0.377427	0.860812
N253	N	0.382997	0.211852	-0.102338
N254	N	0.882997	0.711852	0.397662
N255	N	0.345908	0.255071	-0.147490
N256	N	0.845908	0.755071	0.352510
H257	H	0.368203	0.290924	-0.183975
H258	H	0.868203	0.790924	0.316025
H259	H	0.837050	-0.027002	0.569047
H260	H	1.337050	0.472998	1.069047
N261	N	0.170326	0.108727	-0.133575
N262	N	0.670326	0.608727	0.366425
N263	N	0.137996	0.108157	-0.192513
N264	N	0.637996	0.608157	0.307487
H265	H	0.164137	0.108616	-0.240141
H266	H	0.664137	0.608616	0.259859
H267	H	0.837042	-0.027007	0.430755
H268	H	1.337042	0.472993	0.930755
N269	N	0.915926	-0.004054	0.657887
N270	N	1.415926	0.495946	1.157887
N271	N	0.914875	-0.081428	0.666409
N272	N	1.414875	0.418572	1.166409
H273	H	0.948854	-0.122681	0.638859
H274	H	1.448854	0.377319	1.138859
N275	N	0.023780	0.106146	0.133306
N276	N	0.523780	0.606146	0.633306
N277	N	-0.040906	0.105006	0.133292
N278	N	0.459094	0.605006	0.633292
H279	H	-0.067065	0.104556	0.180909
H280	H	0.432935	0.604556	0.680909
