data_functionalizedCrystal
_audit_creation_method	'MofGen! by Chris Wilmer'
_symmetry_space_group_name_H-M	'P1'
_symmetry_Int_Tables_number	1
_symmetry_cell_setting	triclinic
loop_
_symmetry_equiv_pos_as_xyz
  x,y,z
_cell_length_a	14.908571
_cell_length_b	14.909383
_cell_length_c	14.908854
_cell_angle_alpha	90.161788
_cell_angle_beta	89.795614
_cell_angle_gamma	83.623926
loop_
_atom_site_label
_atom_site_type_symbol
_atom_site_fract_x
_atom_site_fract_y
_atom_site_fract_z
Zn1	Zn	1.367132	-0.402785	-0.612125
Zn2	Zn	1.384372	-0.562757	-0.471503
Zn3	Zn	1.225498	-0.403809	-0.453181
Zn4	Zn	1.224462	-0.545345	-0.612098
O5	O	1.300366	-0.478674	-0.537227
O6	O	1.495617	-0.430865	-0.601150
O7	O	1.370946	-0.549388	-0.343715
O8	O	1.237504	-0.277490	-0.466608
O9	O	1.508283	-0.548396	-0.497836
O10	O	1.341563	-0.276739	-0.583384
O11	O	1.254221	-0.432609	-0.330254
O12	O	1.099162	-0.415725	-0.466582
O13	O	1.235739	-0.518718	-0.737459
O14	O	1.098401	-0.519711	-0.583338
O15	O	1.340558	-0.413981	-0.737479
O16	O	1.369941	-0.686630	-0.497810
O17	O	1.252456	-0.673837	-0.601104
C18	C	1.066060	-0.465940	-0.522970
C19	C	0.965823	-0.460512	-0.516893
C20	C	0.776742	-0.558783	-0.626909
C21	C	0.682560	-0.553686	-0.621203
C22	C	0.683275	-0.445218	-0.499779
C23	C	0.777457	-0.450315	-0.505486
C24	C	0.824187	-0.507100	-0.569052
C25	C	0.918371	-0.512201	-0.574753
C26	C	0.919084	-0.403728	-0.453334
C27	C	0.824903	-0.398632	-0.447628
C28	C	1.312980	-0.712951	-0.551464
C29	C	1.318457	-0.813178	-0.557589
C30	C	1.220505	-1.002465	-0.447403
C31	C	1.225649	-1.096637	-0.453156
C32	C	1.333892	-1.095698	-0.574842
C33	C	1.328749	-1.001526	-0.569089
C34	C	1.272052	-0.954912	-0.505369
C35	C	1.266904	-0.860737	-0.499621
C36	C	1.375152	-0.859801	-0.621302
C37	C	1.380296	-0.953973	-0.627055
C38	C	1.535587	-0.491458	-0.551540
C39	C	1.635824	-0.496906	-0.557639
C40	C	1.286110	-0.464293	-0.770882
C41	C	1.280035	-0.458165	-0.870452
C42	C	1.287726	-0.243482	-0.522955
C43	C	1.282339	-0.143257	-0.516874
C44	C	1.390185	-0.568249	-1.071574
C45	C	1.384480	-0.562494	-1.165130
C46	C	1.262925	-0.440896	-1.151119
C47	C	1.268630	-0.446651	-1.057564
C48	C	1.332261	-0.510331	-1.017795
C49	C	1.337961	-0.516089	-0.924238
C50	C	1.216411	-0.394487	-0.910229
C51	C	1.210706	-0.388732	-1.003785
C52	C	1.314615	-0.492937	-0.304480
C53	C	1.320851	-0.498820	-0.204905
H54	H	0.814791	-0.605025	-0.678663
F55	F	0.632068	-0.608692	-0.682784
F56	F	0.633526	-0.384775	-0.432144
H57	H	1.183674	-1.135351	-0.405953
F58	F	0.775159	-0.338196	-0.379984
H59	H	0.957725	-0.361646	-0.406221
H60	H	1.220737	-0.822785	-0.447739
H61	H	0.956418	-0.558440	-0.626510
F62	F	1.457896	-0.636030	-1.029247
H63	H	1.431649	-0.609656	-1.208914
H64	H	1.174334	-0.964511	-0.395525
F65	F	1.394235	-1.145324	-0.642646
H66	H	1.158901	-0.336884	-1.036177
F67	F	1.154738	-0.332864	-0.852987
F68	F	1.440635	-1.003593	-0.694865
F69	F	1.430016	-0.809185	-0.682997
F70	F	1.405680	-0.583865	-0.881915
F71	F	1.195217	-0.373121	-1.193459
