data_functionalizedCrystal
_audit_creation_method	'MofGen! by Chris Wilmer'
_symmetry_space_group_name_H-M	'P1'
_symmetry_Int_Tables_number	1
_symmetry_cell_setting	triclinic
loop_
_symmetry_equiv_pos_as_xyz
  x,y,z
_cell_length_a	18.215407
_cell_length_b	18.215406
_cell_length_c	18.215399
_cell_angle_alpha	90.019188
_cell_angle_beta	89.980167
_cell_angle_gamma	90.001785
loop_
_atom_site_label
_atom_site_type_symbol
_atom_site_fract_x
_atom_site_fract_y
_atom_site_fract_z
Zn1	Zn	-1.125211	-0.292983	0.416161
Zn2	Zn	-0.875211	-0.042983	0.666161
Zn3	Zn	-0.625211	0.207017	0.916161
Zn4	Zn	-0.375211	0.457017	1.166161
Zn5	Zn	-1.125177	-0.416054	0.293113
Zn6	Zn	-0.875177	-0.166054	0.543113
Zn7	Zn	-0.625177	0.083946	0.793113
Zn8	Zn	-0.375177	0.333946	1.043113
Zn9	Zn	-1.002143	-0.293007	0.293108
Zn10	Zn	-0.752143	-0.043007	0.543108
Zn11	Zn	-0.502143	0.206993	0.793108
Zn12	Zn	-0.252143	0.456993	1.043108
Zn13	Zn	-1.002167	-0.416013	0.416138
Zn14	Zn	-0.752167	-0.166013	0.666138
Zn15	Zn	-0.502167	0.083987	0.916138
Zn16	Zn	-0.252167	0.333987	1.166138
O17	O	-1.063675	-0.354514	0.354630
O18	O	-0.813675	-0.104514	0.604630
O19	O	-0.563675	0.145486	0.854630
O20	O	-0.313675	0.395486	1.104630
O21	O	-1.228190	-0.309316	0.399850
O22	O	-0.978190	-0.059316	0.649850
O23	O	-0.728190	0.190684	0.899850
O24	O	-0.478190	0.440684	1.149850
O25	O	-1.108833	-0.399759	0.190128
O26	O	-0.858833	-0.149759	0.440128
O27	O	-0.608833	0.100241	0.690128
O28	O	-0.358833	0.350241	0.940128
O29	O	-1.018472	-0.190020	0.309439
O30	O	-0.768472	0.059980	0.559439
O31	O	-0.518472	0.309980	0.809439
O32	O	-0.268472	0.559980	1.059439
O33	O	-1.228166	-0.399736	0.309447
O34	O	-0.978166	-0.149736	0.559447
O35	O	-0.728166	0.100264	0.809447
O36	O	-0.478166	0.350264	1.059447
O37	O	-1.108889	-0.190002	0.399845
O38	O	-0.858889	0.059998	0.649845
O39	O	-0.608889	0.309998	0.899845
O40	O	-0.358889	0.559998	1.149845
O41	O	-1.018440	-0.309357	0.190124
O42	O	-0.768440	-0.059357	0.440124
O43	O	-0.518440	0.190643	0.690124
O44	O	-0.268440	0.440643	0.940124
O45	O	-0.899162	-0.309317	0.309417
O46	O	-0.649162	-0.059317	0.559417
O47	O	-0.399162	0.190683	0.809417
O48	O	-0.149162	0.440683	1.059417
O49	O	-1.018513	-0.399666	0.519125
O50	O	-0.768513	-0.149666	0.769125
O51	O	-0.518513	0.100334	1.019125
O52	O	-0.268513	0.350334	1.269125
O53	O	-0.899180	-0.399689	0.399806
O54	O	-0.649180	-0.149689	0.649806
O55	O	-0.399180	0.100311	0.899806
O56	O	-0.149180	0.350311	1.149806
O57	O	-1.108913	-0.309276	0.519142
O58	O	-0.858913	-0.059276	0.769142
O59	O	-0.608913	0.190724	1.019142
O60	O	-0.358913	0.440724	1.269142
O61	O	-1.108856	-0.519033	0.309426
O62	O	-0.858856	-0.269033	0.559426
O63	O	-0.608856	-0.019033	0.809426
O64	O	-0.358856	0.230967	1.059426
O65	O	-1.018481	-0.519003	0.399811
O66	O	-0.768481	-0.269003	0.649811
O67	O	-0.518481	-0.019003	0.899811
O68	O	-0.268481	0.230997	1.149811
C69	C	-1.063687	-0.545721	0.354633
C70	C	-0.813687	-0.295721	0.604633
C71	C	-0.563687	-0.045721	0.854633
C72	C	-0.313687	0.204279	1.104633
C73	C	-1.063760	-0.627519	0.354658
C74	C	-0.813760	-0.377519	0.604658
C75	C	-0.563760	-0.127519	0.854658
C76	C	-0.313760	0.122481	1.104658
C77	C	-1.063719	-0.354464	0.546583
C78	C	-0.813719	-0.104464	0.796583
C79	C	-0.563719	0.145536	1.046583
C80	C	-0.313719	0.395536	1.296583
C81	C	-1.063739	-0.354442	0.628382
C82	C	-0.813739	-0.104442	0.878382
C83	C	-0.563739	0.145558	1.128382
C84	C	-0.313739	0.395558	1.378382
C85	C	-0.872468	-0.354502	0.354609
C86	C	-0.622468	-0.104502	0.604609
C87	C	-0.372468	0.145498	0.854609
C88	C	-0.122468	0.395498	1.104609
C89	C	-0.790669	-0.354514	0.354617
C90	C	-0.540669	-0.104514	0.604617
C91	C	-0.290669	0.145486	0.854617
C92	C	-0.040669	0.395486	1.104617
C93	C	-1.255628	-0.354528	0.354652
C94	C	-1.005628	-0.104528	0.604652
C95	C	-0.755628	0.145472	0.854652
C96	C	-0.505628	0.395472	1.104652
C97	C	-1.337426	-0.354533	0.354661
C98	C	-1.087426	-0.104533	0.604661
C99	C	-0.837426	0.145467	0.854661
C100	C	-0.587426	0.395467	1.104661
C101	C	-0.602504	-0.401645	0.401624
C102	C	-0.352504	-0.151645	0.651624
C103	C	-0.102504	0.098355	0.901624
C104	C	0.147496	0.348355	1.151624
C105	C	-0.525645	-0.401647	0.401633
C106	C	-0.275645	-0.151647	0.651633
C107	C	-0.025645	0.098353	0.901633
C108	C	0.224355	0.348353	1.151633
C109	C	-0.525597	-0.307397	0.307652
C110	C	-0.275597	-0.057397	0.557652
C111	C	-0.025597	0.192603	0.807652
C112	C	0.224403	0.442603	1.057652
C113	C	-0.602455	-0.307392	0.307647
C114	C	-0.352455	-0.057392	0.557647
C115	C	-0.102455	0.192608	0.807647
C116	C	0.147545	0.442608	1.057647
C117	C	-0.640906	-0.354520	0.354632
C118	C	-0.390906	-0.104520	0.604632
C119	C	-0.140906	0.145480	0.854632
C120	C	0.109094	0.395480	1.104632
C121	C	-0.487190	-0.354528	0.354646
C122	C	-0.237190	-0.104528	0.604646
C123	C	0.012810	0.145472	0.854646
C124	C	0.262810	0.395472	1.104646
C125	C	-0.403856	-0.354530	0.354656
C126	C	-0.153856	-0.104530	0.604656
C127	C	0.096144	0.145470	0.854656
C128	C	0.346144	0.395470	1.104656
C129	C	-0.724245	-0.354517	0.354624
C130	C	-0.474245	-0.104517	0.604624
C131	C	-0.224245	0.145483	0.854624
C132	C	0.025755	0.395483	1.104624
C133	C	-1.063682	-0.162561	0.354644
C134	C	-0.813682	0.087439	0.604644
C135	C	-0.563682	0.337439	0.854644
C136	C	-0.313682	0.587439	1.104644
C137	C	-1.063685	-0.080763	0.354649
C138	C	-0.813685	0.169237	0.604649
C139	C	-0.563685	0.419237	0.854649
C140	C	-0.313685	0.669237	1.104649
C141	C	-1.016680	0.184315	0.401717
C142	C	-0.766680	0.434315	0.651717
C143	C	-0.516680	0.684315	0.901717
C144	C	-0.266680	0.934315	1.151717
C145	C	-1.016665	0.107456	0.401714
C146	C	-0.766665	0.357456	0.651714
C147	C	-0.516665	0.607456	0.901714
C148	C	-0.266665	0.857456	1.151714
C149	C	-1.110767	0.107408	0.307586
C150	C	-0.860767	0.357408	0.557586
C151	C	-0.610767	0.607408	0.807586
C152	C	-0.360767	0.857408	1.057586
C153	C	-1.110778	0.184266	0.307585
C154	C	-0.860778	0.434266	0.557585
C155	C	-0.610778	0.684266	0.807585
C156	C	-0.360778	0.934266	1.057585
C157	C	-1.063735	0.222717	0.354655
C158	C	-0.813735	0.472717	0.604655
C159	C	-0.563735	0.722717	0.854655
C160	C	-0.313735	0.972717	1.104655
C161	C	-1.063710	0.069001	0.354653
C162	C	-0.813710	0.319001	0.604653
C163	C	-0.563710	0.569001	0.854653
C164	C	-0.313710	0.819001	1.104653
C165	C	-1.063695	-0.014333	0.354650
C166	C	-0.813695	0.235667	0.604650
C167	C	-0.563695	0.485667	0.854650
C168	C	-0.313695	0.735667	1.104650
C169	C	-1.063749	0.306056	0.354657
C170	C	-0.813749	0.556056	0.604657
C171	C	-0.563749	0.806056	0.854657
C172	C	-0.313749	1.056056	1.104657
C173	C	-1.063672	-0.354512	0.163424
C174	C	-0.813672	-0.104512	0.413424
C175	C	-0.563672	0.145488	0.663424
C176	C	-0.313672	0.395488	0.913424
C177	C	-1.063796	-0.354326	0.081625
C178	C	-0.813796	-0.104326	0.331625
C179	C	-0.563796	0.145674	0.581625
C180	C	-0.313796	0.395674	0.831625
C181	C	-1.110826	-0.307332	0.816586
C182	C	-0.860826	-0.057332	1.066586
C183	C	-0.610826	0.192668	1.316586
C184	C	-0.360826	0.442668	1.566586
C185	C	-1.110835	-0.307311	0.893445
C186	C	-0.860835	-0.057311	1.143445
C187	C	-0.610835	0.192689	1.393445
C188	C	-0.360835	0.442689	1.643445
C189	C	-1.016703	-0.401438	0.893416
C190	C	-0.766703	-0.151438	1.143416
C191	C	-0.516703	0.098562	1.393416
C192	C	-0.266703	0.348562	1.643416
C193	C	-1.016691	-0.401455	0.816559
C194	C	-0.766691	-0.151455	1.066559
C195	C	-0.516691	0.098545	1.316559
C196	C	-0.266691	0.348545	1.566559
C197	C	-1.063757	-0.354403	0.778146
C198	C	-0.813757	-0.104403	1.028146
C199	C	-0.563757	0.145597	1.278146
C200	C	-0.313757	0.395597	1.528146
C201	C	-1.063777	-0.354365	0.931862
C202	C	-0.813777	-0.104365	1.181862
C203	C	-0.563777	0.145635	1.431862
C204	C	-0.313777	0.395635	1.681862
C205	C	-1.063787	-0.354342	1.015195
C206	C	-0.813787	-0.104342	1.265195
C207	C	-0.563787	0.145658	1.515195
C208	C	-0.313787	0.395658	1.765195
C209	C	-1.063747	-0.354425	0.694807
C210	C	-0.813747	-0.104425	0.944807
C211	C	-0.563747	0.145575	1.194807
C212	C	-0.313747	0.395575	1.444807
H213	H	-0.633809	-0.440018	0.439884
H214	H	-0.383809	-0.190018	0.689884
H215	H	-0.133809	0.059982	0.939884
H216	H	0.116191	0.309982	1.189884
H217	H	-1.149069	0.076092	0.269264
H218	H	-0.899069	0.326092	0.519264
H219	H	-0.649069	0.576092	0.769264
H220	H	-0.399069	0.826092	1.019264
F221	F	-1.160862	0.225138	0.257491
F222	F	-0.910862	0.475138	0.507491
F223	F	-0.660862	0.725138	0.757491
F224	F	-0.410862	0.975138	1.007491
F225	F	-0.484778	-0.451803	0.451650
F226	F	-0.234778	-0.201803	0.701650
F227	F	0.015222	0.048197	0.951650
F228	F	0.265222	0.298197	1.201650
F229	F	-0.484668	-0.257244	0.257649
F230	F	-0.234668	-0.007244	0.507649
F231	F	0.015332	0.242756	0.757649
F232	F	0.265332	0.492756	1.007649
H233	H	-1.149149	-0.269017	0.785312
H234	H	-0.899149	-0.019017	1.035312
H235	H	-0.649149	0.230983	1.285312
H236	H	-0.399149	0.480983	1.535312
F237	F	-0.643327	-0.257228	0.257633
F238	F	-0.393327	-0.007228	0.507633
F239	F	-0.143327	0.242772	0.757633
F240	F	0.106673	0.492772	1.007633
F241	F	-1.160938	-0.257215	0.934352
F242	F	-0.910938	-0.007215	1.184352
F243	F	-0.660938	0.242785	1.434352
F244	F	-0.410938	0.492785	1.684352
F245	F	-0.966583	0.066589	0.451804
F246	F	-0.716583	0.316589	0.701804
F247	F	-0.466583	0.566589	0.951804
F248	F	-0.216583	0.816589	1.201804
H249	H	-0.978374	0.215620	0.440042
H250	H	-0.728374	0.465620	0.690042
H251	H	-0.478374	0.715620	0.940042
H252	H	-0.228374	0.965620	1.190042
H253	H	-0.978385	-0.439748	0.924701
H254	H	-0.728385	-0.189748	1.174701
H255	H	-0.478385	0.060252	1.424701
H256	H	-0.228385	0.310252	1.674701
H257	H	-0.978356	-0.439786	0.785260
H258	H	-0.728356	-0.189786	1.035260
H259	H	-0.478356	0.060214	1.285260
H260	H	-0.228356	0.310214	1.535260
