data_functionalizedCrystal
_audit_creation_method	'MofGen! by Chris Wilmer'
_symmetry_space_group_name_H-M	'P1'
_symmetry_Int_Tables_number	1
_symmetry_cell_setting	triclinic
loop_
_symmetry_equiv_pos_as_xyz
  x,y,z
_cell_length_a	13.339070
_cell_length_b	13.262508
_cell_length_c	11.804365
_cell_angle_alpha	117.325227
_cell_angle_beta	74.875130
_cell_angle_gamma	99.430496
loop_
_atom_site_label
_atom_site_type_symbol
_atom_site_fract_x
_atom_site_fract_y
_atom_site_fract_z
O1	O	1.328993	0.538430	0.075332
O2	O	1.039025	0.465650	0.051765
O3	O	1.201992	0.343501	0.012204
O4	O	1.166026	0.660579	0.114893
O5	O	1.159092	0.375613	0.220660
O6	O	0.996125	0.497762	0.260221
O7	O	1.286093	0.570542	0.283788
Cu8	Cu	1.137192	0.537084	0.291038
Cu9	Cu	1.187926	0.499108	0.044514
O10	O	1.123126	0.692691	0.323349
C11	C	0.980656	0.469412	0.152011
C12	C	0.870649	0.432766	0.140145
C13	C	1.182471	0.318145	0.103017
C14	C	1.188207	0.194747	0.063046
C15	C	0.488010	0.717700	0.232405
C16	C	0.591367	0.752134	0.243551
C17	C	0.661192	0.672295	0.217701
C18	C	0.627652	0.558017	0.180701
C19	C	0.524287	0.523579	0.169544
C20	C	0.697469	0.478173	0.154840
C21	C	0.663928	0.363895	0.117840
C22	C	0.560573	0.329463	0.106685
C23	C	0.490747	0.409302	0.132536
C24	C	0.800833	0.512611	0.165998
C25	C	0.837110	0.318489	0.103137
C26	C	0.733753	0.284056	0.091990
C27	C	1.110829	-0.083087	0.404906
C28	C	1.105432	0.032850	0.442461
C29	C	1.126125	0.073331	0.347611
C30	C	1.152217	-0.002139	0.215198
C31	C	1.157607	-0.118089	0.177638
C32	C	1.172903	0.038329	0.120343
C33	C	1.198995	-0.037141	-0.012070
C34	C	1.204385	-0.153079	-0.049623
C35	C	1.183691	-0.193559	0.045227
C36	C	1.167513	0.154279	0.157903
C37	C	1.214291	0.119277	-0.069364
C38	C	1.219689	0.003339	-0.106920
C39	C	1.344463	0.566779	0.183538
C40	C	1.454471	0.603424	0.195397
C41	C	1.142648	0.718046	0.232532
C42	C	1.136913	0.841443	0.272495
N43	N	1.101515	0.563796	0.464430
N44	N	1.223611	0.472389	-0.128880
C45	C	1.309285	0.408223	0.787992
C46	C	1.336274	0.388010	0.656784
C47	C	1.277586	0.431954	0.608689
C48	C	1.191906	0.496116	0.691815
C49	C	1.164920	0.516338	0.823039
C50	C	1.133221	0.540070	0.643735
C51	C	1.047540	0.604231	0.726861
C52	C	1.020558	0.624449	0.858071
C53	C	1.079246	0.580504	0.906167
C54	C	1.160207	0.519847	0.512512
C55	C	1.015841	0.627963	0.547558
C56	C	0.988853	0.648175	0.678766
H57	H	0.828131	0.605657	0.196128
H58	H	0.533271	0.236408	0.076544
H59	H	1.240932	-0.058124	-0.214733
H60	H	0.968054	0.663749	0.508402
O61	O	1.188976	-0.306220	0.008520
C62	C	1.216381	-0.364165	-0.128691
H63	H	1.258237	-0.302033	-0.169705
H64	H	1.269940	-0.434798	-0.158130
H65	H	1.143128	-0.402519	-0.169190
O66	O	0.701163	0.173027	0.055822
C67	C	0.664657	0.130682	-0.060453
H68	H	0.701048	0.184510	-0.114715
H69	H	0.686980	0.038863	-0.124618
H70	H	0.576426	0.134429	-0.036051
H71	H	1.084198	0.094291	0.550272
H72	H	1.121727	0.167733	0.378197
O73	O	1.090623	-0.122571	0.496900
C74	C	1.005667	-0.202916	0.477343
H75	H	0.997885	-0.240249	0.371511
H76	H	1.019055	-0.273824	0.500053
H77	H	0.931367	-0.159648	0.544647
H78	H	1.299564	0.415494	0.501853
O79	O	0.420333	0.795382	0.257497
C80	C	0.472087	0.903637	0.292585
H81	H	0.559208	0.893657	0.251869
H82	H	0.441995	0.952238	0.250811
H83	H	0.456907	0.952555	0.403443
H84	H	1.146260	0.215714	0.265714
O85	O	0.761544	0.705941	0.228654
C86	C	0.776182	0.823919	0.266824
H87	H	0.698222	0.865116	0.317650
H88	H	0.831767	0.862180	0.336723
H89	H	0.810394	0.839860	0.176968
H90	H	1.357066	0.372456	0.827164
O91	O	0.390404	0.375693	0.121492
C92	C	0.388038	0.294342	-0.007446
H93	H	0.465599	0.251962	-0.055370
H94	H	0.322805	0.227334	-0.006080
H95	H	0.373794	0.337947	-0.065150
H96	H	0.893964	0.253477	0.082082
H97	H	1.231134	0.152233	-0.146600
O98	O	1.229614	-0.226295	-0.178296
C99	C	1.155864	-0.222979	-0.242907
H100	H	1.116396	-0.138612	-0.184877
H101	H	1.196581	-0.231778	-0.344519
H102	H	1.094983	-0.295865	-0.251573
H103	H	0.950800	0.676703	0.925757
H104	H	0.618670	0.845177	0.273667
O105	O	1.419497	0.325620	0.576203
C106	C	1.465524	0.291190	0.646792
H107	H	1.405691	0.291599	0.735801
H108	H	1.493998	0.201765	0.581809
H109	H	1.534103	0.352363	0.679845
O110	O	1.052857	0.600203	1.033647
C111	C	0.964672	0.666287	1.096717
H112	H	0.919915	0.655405	1.021361
H113	H	0.912423	0.637315	1.170741
H114	H	0.990366	0.759576	1.149050
H115	H	1.229968	0.467608	0.444841
O116	O	0.905570	0.710362	0.759609
C117	C	0.832462	0.643618	0.810098
H118	H	0.873366	0.572486	0.805720
H119	H	0.794900	0.699075	0.915733
H120	H	0.770005	0.605324	0.749672
