data_functionalizedCrystal
_audit_creation_method	'MofGen! by Chris Wilmer'
_symmetry_space_group_name_H-M	'P1'
_symmetry_Int_Tables_number	1
_symmetry_cell_setting	triclinic
loop_
_symmetry_equiv_pos_as_xyz
  x,y,z
_cell_length_a	10.685904
_cell_length_b	18.050590
_cell_length_c	10.686551
_cell_angle_alpha	94.409718
_cell_angle_beta	98.408451
_cell_angle_gamma	94.385190
loop_
_atom_site_label
_atom_site_type_symbol
_atom_site_fract_x
_atom_site_fract_y
_atom_site_fract_z
Zn1	Zn	1.995784	-0.166454	0.866689
Zn2	Zn	2.495784	0.333546	1.366689
Zn3	Zn	1.979346	-0.300994	0.654408
Zn4	Zn	2.479346	0.199006	1.154408
Zn5	Zn	1.767207	-0.187125	0.638150
Zn6	Zn	2.267207	0.312875	1.138150
Zn7	Zn	1.783468	-0.300922	0.850318
Zn8	Zn	2.283468	0.199078	1.350318
O9	O	1.881451	-0.238874	0.752391
O10	O	2.381451	0.261126	1.252391
O11	O	2.171240	-0.175681	0.852185
O12	O	2.671240	0.324319	1.352185
O13	O	1.937520	-0.294570	0.474618
O14	O	2.437520	0.205430	0.974618
O15	O	1.797603	-0.080453	0.668514
O16	O	2.297603	0.419547	1.168514
O17	O	2.159162	-0.274526	0.696223
O18	O	2.659162	0.225474	1.196223
O19	O	1.965538	-0.065266	0.836421
O20	O	2.465538	0.434734	1.336421
O21	O	1.781663	-0.210911	0.462674
O22	O	2.281663	0.289089	0.962674
O23	O	1.591728	-0.210841	0.652639
O24	O	2.091728	0.289159	1.152639
O25	O	1.825317	-0.274404	1.030123
O26	O	2.325317	0.225596	1.530123
O27	O	1.603675	-0.294448	0.808518
O28	O	2.103675	0.205552	1.308518
O29	O	1.981305	-0.175611	1.042151
O30	O	2.481305	0.324389	1.542151
O31	O	1.953288	-0.404915	0.680348
O32	O	2.453288	0.095085	1.180348
O33	O	1.809377	-0.404862	0.824282
O34	O	2.309377	0.095138	1.324282
C35	C	1.551643	-0.254880	0.727038
C36	C	2.051643	0.245120	1.227038
C37	C	1.410551	-0.261744	0.716222
C38	C	1.910551	0.238256	1.216222
C39	C	1.881350	-0.431833	0.752333
C40	C	2.381350	0.068167	1.252333
C41	C	1.881426	-0.514374	0.752360
C42	C	2.381426	-0.014374	1.252360
C43	C	1.959870	-0.713812	0.674220
C44	C	2.459870	-0.213812	1.174220
C45	C	1.999776	-0.755996	0.792452
C46	C	2.499776	-0.255996	1.292452
C47	C	1.881502	-0.665499	0.752416
C48	C	2.381502	-0.165499	1.252416
C49	C	1.841729	-0.770388	0.634246
C50	C	2.341729	-0.270388	1.134246
C51	C	1.881577	-0.811478	0.752460
C52	C	2.381577	-0.311478	1.252460
C53	C	1.921472	-0.706589	0.870713
C54	C	2.421472	-0.206589	1.370713
C55	C	1.763365	-0.720983	0.712425
C56	C	2.263365	-0.220983	1.212425
C57	C	1.803233	-0.763143	0.830733
C58	C	2.303233	-0.263143	1.330733
C59	C	1.881462	-0.581404	0.752389
C60	C	2.381462	-0.081404	1.252389
C61	C	1.881618	-0.895571	0.752500
C62	C	2.381618	-0.395571	1.252500
C63	C	2.212548	-0.222806	0.777844
C64	C	2.712548	0.277194	1.277844
C65	C	2.353642	-0.215959	0.788690
C66	C	2.853642	0.284041	1.288690
C67	C	1.906959	-0.222694	1.083483
C68	C	2.406959	0.277306	1.583483
C69	C	1.917828	-0.215799	1.224574
C70	C	2.417828	0.284201	1.724574
C71	C	1.881590	-0.045158	0.752480
C72	C	2.381590	0.454842	1.252480
C73	C	1.881649	0.037392	0.752518
C74	C	2.381649	0.537392	1.252518
C75	C	1.856116	-0.254934	0.422593
C76	C	2.356116	0.245066	0.922593
C77	C	1.845493	-0.261608	0.281522
C78	C	2.345493	0.238392	0.781522
H79	H	1.412864	-0.171505	0.859005
H80	H	1.912864	0.328495	1.359005
H81	H	1.736999	-0.784665	0.896962
H82	H	2.236999	-0.284665	1.396962
H83	H	1.955051	-0.678897	0.970743
H84	H	2.455051	-0.178897	1.470743
H85	H	1.663452	-0.705351	0.678542
H86	H	2.163452	-0.205351	1.178542
Cl87	Cl	2.026299	-0.147103	1.315953
Cl88	Cl	2.526299	0.352897	1.815953
H89	H	2.026173	-0.692142	0.608169
H90	H	2.526173	-0.192142	1.108169
Cl91	Cl	2.154079	-0.780089	0.844738
Cl92	Cl	2.654079	-0.280089	1.344738
Cl93	Cl	1.737041	-0.330308	1.190150
Cl94	Cl	2.237041	0.169692	1.690150
Cl95	Cl	1.319130	-0.330367	0.607649
Cl96	Cl	1.819130	0.169633	1.107649
H97	H	1.808059	-0.798172	0.534294
H98	H	2.308059	-0.298172	1.034294
