data_functionalizedCrystal
_audit_creation_method	'MofGen! by Chris Wilmer'
_symmetry_space_group_name_H-M	'P1'
_symmetry_Int_Tables_number	1
_symmetry_cell_setting	triclinic
loop_
_symmetry_equiv_pos_as_xyz
  x,y,z
_cell_length_a	10.654550
_cell_length_b	9.065215
_cell_length_c	7.540329
_cell_angle_alpha	89.997574
_cell_angle_beta	89.999340
_cell_angle_gamma	95.250186
loop_
_atom_site_label
_atom_site_type_symbol
_atom_site_fract_x
_atom_site_fract_y
_atom_site_fract_z
O1	O	-0.184140	1.959394	-0.147443
O2	O	-0.199250	1.530026	-0.147449
O3	O	-0.008995	1.754582	-0.147453
O4	O	-0.374395	1.734838	-0.147439
O5	O	-0.008992	1.754569	0.147512
O6	O	-0.199247	1.530013	0.147516
O7	O	-0.184138	1.959381	0.147522
Cu8	Cu	-0.191692	1.744696	0.174452
Cu9	Cu	-0.191695	1.744712	-0.174379
O10	O	-0.374393	1.734825	0.147526
C11	C	-0.197797	1.475041	0.000032
C12	C	-0.193458	1.311221	0.000029
C13	C	-0.421198	1.736281	0.000045
C14	C	-0.560658	1.740619	0.000051
C15	C	-0.639621	1.608404	0.000044
C16	C	-0.770658	1.612488	0.000016
C17	C	-0.743756	1.881014	0.000008
C18	C	-0.612722	1.876928	0.000023
C19	C	-0.965887	1.456775	-0.103345
C20	C	-1.044855	1.324553	-0.103321
C21	C	-1.014210	1.204685	0.000047
C22	C	-0.904600	1.217034	0.103433
C23	C	-0.825638	1.349258	0.103425
C24	C	-0.856281	1.469121	0.000016
C25	C	-0.417491	2.032631	0.103399
C26	C	-0.338527	2.164857	0.103404
C27	C	-0.369168	2.284737	0.000047
C28	C	-0.478782	2.272403	-0.103313
C29	C	-0.557746	2.140177	-0.103318
C30	C	-0.527096	2.020296	0.000036
C31	C	0.037810	1.753126	0.000024
C32	C	0.177271	1.748788	0.000007
C33	C	-0.185590	2.014366	0.000037
C34	C	-0.189930	2.178186	0.000028
N35	N	-0.191689	1.744695	0.419800
N36	N	-0.191688	1.744724	-0.419727
H37	H	-0.736394	1.359312	0.187598
C38	C	-1.163792	1.310855	-0.215700
C39	C	-1.157684	1.195459	-0.337917
C40	C	-1.267234	1.182779	-0.441438
H41	H	-1.170849	1.401054	-0.277452
H42	H	-1.235195	1.290303	-0.141257
H43	H	-1.086300	1.216019	-0.412350
H44	H	-1.150645	1.105239	-0.276213
H45	H	-1.338638	1.162228	-0.366996
H46	H	-1.274283	1.272985	-0.503179
H47	H	-1.263110	1.104475	-0.524363
H48	H	-0.786163	1.991992	0.000003
H49	H	-0.647000	2.130142	-0.187483
C50	C	-0.511808	2.402697	-0.215491
C51	C	-0.419177	2.521118	-0.193405
C52	C	-0.449548	2.641167	-0.296726
H53	H	-0.591169	2.432173	-0.179273
H54	H	-0.515862	2.374326	-0.336794
H55	H	-0.415137	2.549486	-0.072128
H56	H	-0.339808	2.491689	-0.229633
H57	H	-0.453602	2.612797	-0.418029
H58	H	-0.528910	2.670631	-0.260500
H59	H	-0.386698	2.721525	-0.281768
H60	H	-0.304868	2.392406	0.000072
H61	H	-0.597236	1.497412	0.000073
H62	H	-0.879667	1.119427	0.187619
H63	H	-1.078516	1.097028	0.000065
H64	H	-0.392529	1.935017	0.187562
C65	C	-0.999212	1.586719	-0.215888
C66	C	-1.005218	1.544385	-0.394479
C67	C	-1.035938	1.664046	-0.498199
H68	H	-0.936552	1.667315	-0.201334
H69	H	-1.078656	1.615997	-0.179670
H70	H	-0.925784	1.515128	-0.430685
H71	H	-1.067880	1.463807	-0.409088
H72	H	-1.115383	1.693323	-0.461981
H73	H	-0.973274	1.744633	-0.483630
H74	H	-1.040028	1.635334	-0.619381
H75	H	-0.249271	2.174890	0.187566
