data_functionalizedCrystal
_audit_creation_method	'MofGen! by Chris Wilmer'
_symmetry_space_group_name_H-M	'P1'
_symmetry_Int_Tables_number	1
_symmetry_cell_setting	triclinic
loop_
_symmetry_equiv_pos_as_xyz
  x,y,z
_cell_length_a	23.532407
_cell_length_b	15.995350
_cell_length_c	14.472310
_cell_angle_alpha	89.998838
_cell_angle_beta	90.007660
_cell_angle_gamma	83.170526
loop_
_atom_site_label
_atom_site_type_symbol
_atom_site_fract_x
_atom_site_fract_y
_atom_site_fract_z
O1	O	-0.755658	-0.101635	-0.076721
O2	O	-0.589851	-0.116342	-0.076748
O3	O	-0.677287	0.012937	-0.076733
O4	O	-0.668222	-0.230914	-0.076736
O5	O	-0.677265	0.012929	0.076949
O6	O	-0.589829	-0.116350	0.076934
O7	O	-0.755636	-0.101643	0.076961
Cu8	Cu	-0.672730	-0.108997	0.090980
Cu9	Cu	-0.672757	-0.108988	-0.090767
O10	O	-0.668200	-0.230922	0.076946
C11	C	-0.568623	-0.115971	0.000090
C12	C	-0.505401	-0.114846	0.000079
C13	C	-0.676901	0.044124	0.000106
C14	C	-0.675778	0.137065	0.000101
C15	C	-0.776864	-0.102014	0.000121
C16	C	-0.840086	-0.103140	0.000125
C17	C	-0.106565	-0.184288	0.000120
C18	C	-0.047161	-0.183242	0.000126
O19	O	-0.010664	-0.247615	0.000159
N20	N	-0.024239	-0.106386	0.000125
C21	C	-0.060725	-0.030570	0.000129
O22	O	-0.035773	0.034898	0.000130
C23	C	-0.120128	-0.031617	0.000130
C24	C	-0.143047	-0.108478	0.000121
C25	C	-0.129484	-0.261143	0.000113
C26	C	-0.188885	-0.262188	0.000105
C27	C	-0.225366	-0.186379	0.000106
C28	C	-0.202447	-0.109524	0.000113
C29	C	-0.156613	0.044197	0.000139
C30	C	-0.216019	0.043143	0.000141
C31	C	-0.238938	-0.033718	0.000132
C32	C	-0.298328	-0.034760	0.000106
N33	N	-0.321250	-0.111617	0.000107
C34	C	-0.284769	-0.187426	0.000107
C35	C	0.064026	-0.028378	0.000128
C36	C	0.123428	-0.027330	0.000121
C37	C	0.136988	-0.180002	0.000120
C38	C	0.077585	-0.181049	0.000121
C39	C	0.041104	-0.105234	0.000129
C40	C	-0.409514	-0.189616	0.000090
C41	C	-0.468920	-0.190655	0.000079
C42	C	-0.482475	-0.037984	0.000085
C43	C	-0.423074	-0.036944	0.000091
C44	C	-0.386594	-0.112767	0.000097
O45	O	-0.334860	0.029579	0.000077
O46	O	-0.309729	-0.252883	0.000118
C47	C	-0.668586	-0.262110	0.000105
C48	C	-0.669709	-0.355051	0.000104
N49	N	-0.672716	-0.109003	0.218811
C50	C	-0.671743	0.474779	0.000103
C51	C	-0.609473	0.426827	-0.000251
C52	C	-0.610596	0.330146	0.000095
C53	C	-0.673744	0.307235	0.000101
C54	C	-0.704445	0.348564	0.087865
C55	C	-0.702881	0.445187	0.087938
C56	C	-0.704193	0.445564	-0.086827
C57	C	-0.704178	0.348619	-0.087987
C58	C	-0.674879	0.212547	0.000104
C59	C	-0.670610	0.569468	0.000107
N60	N	-0.672776	-0.108976	-0.218598
C61	C	-0.672756	-0.108985	0.592902
C62	C	-0.625814	-0.177930	0.553728
C63	C	-0.625922	-0.178179	0.446640
C64	C	-0.672735	-0.108994	0.407311
C65	C	-0.732158	-0.127581	0.446157
C66	C	-0.731894	-0.128071	0.553279
C67	C	-0.660806	-0.021245	0.553430
C68	C	-0.659443	-0.021842	0.446302
C69	C	-0.672728	-0.108997	0.302423
C70	C	-0.672768	-0.108983	0.697790
H71	H	-0.487576	-0.253247	0.000071
H72	H	-0.750838	0.334824	0.091133
H73	H	-0.680475	0.463299	0.153538
H74	H	-0.379819	-0.251358	0.000098
Br75	Br	-0.717862	0.064261	0.595649
H76	H	0.034326	0.033364	0.000127
H77	H	-0.683103	0.320002	0.153170
H78	H	-0.137964	0.106785	0.000147
H79	H	-0.681732	0.321187	-0.152912
Br80	Br	-0.531996	0.064895	0.000087
Br81	Br	0.046488	-0.285363	0.000109
Br82	Br	-0.749446	-0.234696	0.594914
H83	H	-0.618416	-0.003249	0.580491
Br84	Br	-0.638614	-0.286730	0.403907
Br85	Br	-0.670271	0.479509	-0.197698
H86	H	-0.245720	0.104882	0.000148
Br87	Br	-0.780715	0.499136	-0.087805
H88	H	-0.748598	0.477815	0.091924
H89	H	-0.207539	-0.324776	0.000098
H90	H	-0.767916	-0.079808	0.579191
Br91	Br	-0.570372	0.282440	-0.104764
Br92	Br	-0.791773	-0.046076	0.403703
Br93	Br	-0.391969	0.067368	0.000106
H94	H	-0.750229	0.333640	-0.093281
H95	H	-0.581753	-0.167177	0.420377
H96	H	-0.099787	-0.322879	0.000116
Br97	Br	-0.551950	-0.159895	0.596670
Br98	Br	-0.638362	-0.285864	0.598558
H99	H	0.166702	-0.241730	0.000124
Br100	Br	-0.750133	-0.232986	0.401431
Br101	Br	-0.568001	0.457370	-0.105154
H102	H	-0.615732	-0.007724	0.420913
Br103	Br	-0.570066	0.283352	0.105116
Br104	Br	0.154524	0.076985	0.000105
Br105	Br	-0.568038	0.459534	0.103731
Br106	Br	-0.712733	0.067618	0.401701
