data_functionalizedCrystal
_audit_creation_method	'MofGen! by Chris Wilmer'
_symmetry_space_group_name_H-M	'P1'
_symmetry_Int_Tables_number	1
_symmetry_cell_setting	triclinic
loop_
_symmetry_equiv_pos_as_xyz
  x,y,z
_cell_length_a	21.606444
_cell_length_b	23.196402
_cell_length_c	23.196401
_cell_angle_alpha	60.007332
_cell_angle_beta	90.014117
_cell_angle_gamma	60.004848
loop_
_atom_site_label
_atom_site_type_symbol
_atom_site_fract_x
_atom_site_fract_y
_atom_site_fract_z
Zr1	Zr	0.596283	0.630977	-0.075622
O2	O	0.497448	0.751240	-0.167671
O3	O	0.626573	0.510715	-0.047408
O4	O	0.626555	0.630978	-0.167673
O5	O	0.497490	0.630975	0.047466
O6	O	0.728407	0.630978	-0.167672
O7	O	0.497466	0.630977	-0.047405
O8	O	0.728439	0.415850	0.047462
O9	O	0.497458	0.846104	-0.167667
O10	O	0.715512	0.560180	-0.035369
O11	O	0.639520	0.560179	0.035431
O12	O	0.639499	0.701773	-0.106167
O13	O	0.563506	0.701772	-0.035366
Zr14	Zr	0.758764	0.630974	0.075689
Zr15	Zr	0.758725	0.630977	-0.075620
Zr16	Zr	0.596322	0.630975	0.075687
Zr17	Zr	0.596300	0.782274	-0.075617
Zr18	Zr	0.758748	0.479677	0.075683
O19	O	0.728475	0.751236	0.047474
O20	O	0.728420	0.751239	-0.167668
O21	O	0.497503	0.751236	0.047471
O22	O	0.857600	0.510712	0.167738
O23	O	0.857544	0.510715	-0.047404
O24	O	0.626628	0.510712	0.167734
O25	O	0.857557	0.630976	-0.047400
O26	O	0.728493	0.630973	0.167740
O27	O	0.626641	0.630973	0.167739
O28	O	0.857582	0.630975	0.047472
O29	O	0.626578	0.846104	-0.167665
O30	O	0.728469	0.415848	0.167732
O31	O	0.857589	0.415848	0.167734
O32	O	0.857558	0.415850	0.047464
O33	O	0.497489	0.846102	-0.047397
O34	O	0.626609	0.846102	-0.047395
O35	O	0.715549	0.560178	0.106233
O36	O	0.791542	0.560179	0.035433
O37	O	0.715528	0.701772	-0.035364
O38	O	0.639535	0.701771	0.035436
C39	C	0.677503	0.441726	0.000026
C40	C	0.677496	0.377496	0.000024
C41	C	0.733621	0.295067	0.052285
C42	C	0.733627	0.234706	0.052292
C43	C	0.677512	0.256780	0.000026
C44	C	0.621377	0.339224	-0.052240
C45	C	0.621369	0.399582	-0.052241
C46	C	0.660025	0.201194	-0.063766
C47	C	0.660038	0.140835	-0.063766
C48	C	0.677533	0.070619	0.000029
C49	C	0.695030	0.060759	0.063827
C50	C	0.695022	0.121117	0.063826
C51	C	0.677514	0.191338	0.000022
C52	C	0.733667	-0.077264	0.052302
C53	C	0.733667	-0.137624	0.052309
C54	C	0.621420	-0.033103	-0.052229
C55	C	0.621417	0.027253	-0.052230
C56	C	0.677544	0.005168	0.000035
C57	C	0.474333	0.630976	0.000030
C58	C	0.405372	0.630976	0.000029
C59	C	0.372961	0.630979	-0.052238
C60	C	0.308167	0.630975	-0.052235
C61	C	0.275783	0.630974	0.000032
C62	C	0.308200	0.630968	0.052305
C63	C	0.372996	0.630966	0.052305
C64	C	0.046887	0.630974	0.052307
C65	C	-0.017915	0.630978	0.052302
C66	C	-0.017943	0.630983	-0.052233
C67	C	0.046853	0.630981	-0.052233
C68	C	0.079267	0.630971	0.000042
C69	C	0.149525	0.630974	0.000039
C70	C	0.205523	0.630977	0.000032
C71	C	0.880714	0.630975	0.000036
C72	C	0.949675	0.630975	0.000037
C73	C	0.677475	0.630979	-0.189231
C74	C	0.677459	0.630980	-0.253466
C75	C	0.677544	0.820225	0.000040
C76	C	0.677551	0.884455	0.000043
C77	C	0.637784	0.704888	-0.320594
C78	C	0.637803	0.704889	-0.380949
C79	C	0.677487	0.630978	-0.374172
C80	C	0.717170	0.557060	-0.307031
C81	C	0.717156	0.557061	-0.246678
C82	C	0.671845	0.574352	-0.441491
C83	C	0.671853	0.574354	-0.501845
C84	C	0.677535	0.630971	-0.560320
C85	C	0.683192	0.687601	-0.558440
C86	C	0.683178	0.687602	-0.498087
C87	C	0.677507	0.630968	-0.439611
C88	C	0.637879	0.704886	-0.692895
C89	C	0.637904	0.704884	-0.753250
C90	C	0.717266	0.557053	-0.679329
C91	C	0.717246	0.557057	-0.618977
C92	C	0.677549	0.630976	-0.625764
C93	C	0.677572	0.630973	0.189298
C94	C	0.677589	0.630972	0.253532
C95	C	0.880694	0.441726	0.000029
C96	C	0.949648	0.377496	0.000028
C97	C	0.677552	0.441723	0.189291
C98	C	0.677561	0.377492	0.253523
C99	C	0.880742	0.441723	0.189294
C100	C	0.949713	0.377492	0.253527
C101	C	0.474305	0.820229	-0.189227
C102	C	0.405335	0.884459	-0.253460
C103	C	0.474354	0.820226	0.000038
C104	C	0.405400	0.884455	0.000039
C105	C	0.677496	0.820228	-0.189224
C106	C	0.677486	0.884459	-0.253456
C107	C	0.942343	0.347334	-0.036937
C108	C	1.007126	0.286991	-0.036953
C109	C	1.079214	0.256808	0.000001
C110	C	1.086517	0.286977	0.036968
C111	C	1.021734	0.347322	0.036979
C112	C	0.717252	0.347328	0.320652
C113	C	0.717258	0.286985	0.381010
C114	C	0.677578	0.256803	0.374239
C115	C	0.637882	0.286973	0.307103
C116	C	0.637872	0.347319	0.246746
C117	C	1.021776	0.347329	0.246734
C118	C	1.086588	0.286986	0.307082
C119	C	1.079334	0.256803	0.374222
C120	C	1.007262	0.286971	0.381013
C121	C	0.942453	0.347318	0.320666
C122	C	0.333271	0.914630	-0.246668
C123	C	0.268460	0.974992	-0.307016
C124	C	0.275714	1.005178	-0.374156
C125	C	0.347785	0.975005	-0.380947
C126	C	0.412595	0.914649	-0.320599
C127	C	0.412705	0.914624	0.036998
C128	C	0.347921	0.974983	0.036997
C129	C	0.275834	1.005168	0.000040
C130	C	0.268530	0.974997	-0.036923
C131	C	0.333313	0.914643	-0.036926
C132	C	0.717175	0.914622	-0.246662
C133	C	0.717181	0.974966	-0.307009
C134	C	0.677493	1.005149	-0.374150
C135	C	0.637803	0.974980	-0.380943
C136	C	0.637802	0.914634	-0.320596
H137	H	0.709267	0.113086	0.115772
H138	H	1.145265	0.262429	0.301540
H139	H	0.749586	0.262428	0.435669
H140	H	1.027697	0.371895	0.192071
Cl141	Cl	0.767075	1.012884	-0.298454
H142	H	0.645771	0.258370	-0.115720
Cl143	Cl	0.717045	-0.027520	0.144033
Cl144	Cl	0.851861	0.385224	0.329218
Cl145	Cl	0.550806	0.503215	-0.117947
Cl146	Cl	1.160648	0.180943	-0.000018
H147	H	0.677592	0.207665	0.423391
Cl148	Cl	0.194230	1.081055	-0.450015
H149	H	0.667242	0.528246	-0.503370
Cl150	Cl	0.588026	0.797805	-0.837645
H151	H	0.779365	-0.095248	0.094862
H152	H	0.605480	0.890082	-0.326138
H153	H	0.605491	0.999565	-0.435616
Cl154	Cl	0.767032	0.464140	-0.162282
Cl155	Cl	0.998156	0.249017	0.465424
Cl156	Cl	1.177147	0.249020	0.083425
H157	H	0.281832	0.630962	0.094865
Cl158	Cl	0.587974	0.385227	0.162358
Cl159	Cl	0.767164	0.464135	-0.670803
H160	H	0.471396	0.890052	0.067097
Cl161	Cl	0.356891	1.012960	-0.465357
Cl162	Cl	0.194399	1.081041	0.000052
Cl163	Cl	0.550830	0.366975	-0.117943
Cl164	Cl	1.160817	0.180936	0.450082
Cl165	Cl	0.767109	0.464138	-0.534582
Cl166	Cl	0.804226	-0.241256	0.118020
Cl167	Cl	0.804175	0.267299	0.117995
H168	H	0.209828	0.999583	-0.067012
H169	H	0.471270	0.890084	-0.326138
Cl170	Cl	0.767145	0.385257	0.329183
H171	H	0.327350	0.890055	-0.192004
H172	H	0.749482	0.496881	-0.301517
H173	H	1.027693	0.371872	0.067084
H174	H	0.209783	0.999548	-0.301472
Cl175	Cl	0.664764	0.503124	-0.367961
H176	H	0.749493	0.890056	-0.191998
Cl177	Cl	0.550872	-0.005347	-0.117932
Cl178	Cl	0.588003	0.249019	0.298602
Cl179	Cl	0.324116	0.876719	-0.083388
H180	H	0.353883	0.999538	0.067099
H181	H	0.645793	0.148868	-0.115713
Cl182	Cl	0.804191	0.131068	0.117995
Cl183	Cl	0.413662	0.630987	-0.117953
Cl184	Cl	0.550858	0.130885	-0.117936
Cl185	Cl	0.267420	0.630978	-0.117943
Cl186	Cl	0.677499	1.081017	-0.450008
H187	H	0.073216	0.630986	-0.094796
H188	H	-0.044281	0.630976	0.094868
Cl189	Cl	0.087629	0.630966	0.118019
Cl190	Cl	-0.058693	0.630991	-0.117948
H191	H	0.399386	0.630962	0.094867
H192	H	0.605556	0.765075	-0.698422
Cl193	Cl	0.587863	0.797814	-0.329130
Cl194	Cl	0.587923	0.797809	-0.465351
H195	H	0.687787	0.733710	-0.496560
H196	H	0.687815	0.733707	-0.606053
H197	H	0.883651	0.371908	-0.067039
H198	H	1.001165	0.262436	-0.067055
