data_functionalizedCrystal
_audit_creation_method	'MofGen! by Chris Wilmer'
_symmetry_space_group_name_H-M	'P1'
_symmetry_Int_Tables_number	1
_symmetry_cell_setting	triclinic
loop_
_symmetry_equiv_pos_as_xyz
  x,y,z
_cell_length_a	13.262390
_cell_length_b	14.519709
_cell_length_c	12.376457
_cell_angle_alpha	78.710743
_cell_angle_beta	63.168449
_cell_angle_gamma	95.931092
loop_
_atom_site_label
_atom_site_type_symbol
_atom_site_fract_x
_atom_site_fract_y
_atom_site_fract_z
O1	O	1.512442	-0.019563	-0.559023
O2	O	1.185382	-0.051893	-0.458473
O3	O	1.357576	0.098984	-0.511380
O4	O	1.340247	-0.170440	-0.506116
O5	O	1.314543	0.061314	-0.310146
O6	O	1.142348	-0.089564	-0.257239
O7	O	1.469408	-0.057233	-0.357789
Zn8	Zn	1.299046	-0.079379	-0.275564
Zn9	Zn	1.355744	-0.029747	-0.540698
O10	O	1.297214	-0.208110	-0.304882
C11	C	1.122008	-0.072381	-0.344987
C12	C	0.997286	-0.077293	-0.306642
C13	C	0.739558	-0.008987	-0.637343
C14	C	0.856742	-0.004367	-0.673372
C15	C	0.891884	-0.022598	-0.581693
C16	C	0.809830	-0.045450	-0.453978
C17	C	0.692636	-0.050063	-0.417945
C18	C	0.844962	-0.063674	-0.362295
C19	C	0.762909	-0.086526	-0.234580
C20	C	0.645727	-0.091139	-0.198553
C21	C	0.610585	-0.072908	-0.290233
C22	C	0.962156	-0.059061	-0.398328
C23	C	0.915234	-0.100137	-0.178930
C24	C	0.798051	-0.104757	-0.142901
C25	C	1.335250	0.114463	-0.410509
C26	C	1.332824	0.216706	-0.409746
C27	C	1.323900	0.591103	-0.406972
C28	C	1.326378	0.486934	-0.407742
C29	C	1.328361	0.403908	-0.408357
C30	C	1.330840	0.299732	-0.409130
C31	C	1.532783	-0.036745	-0.471277
C32	C	1.657506	-0.031831	-0.509631
C33	C	1.319532	0.776403	-0.405713
C34	C	1.321932	0.674137	-0.406356
N35	N	1.260359	-0.113251	-0.094619
N36	N	1.394440	0.004132	-0.721646
C37	C	1.484244	0.082777	0.191577
C38	C	1.511315	0.106484	0.064920
C39	C	1.448578	0.051553	0.025029
C40	C	1.358766	-0.027090	0.111808
C41	C	1.331699	-0.050804	0.238476
C42	C	1.296032	-0.082029	0.071927
C43	C	1.206221	-0.160671	0.158706
C44	C	1.179157	-0.184380	0.285362
C45	C	1.241894	-0.129449	0.325253
C46	C	1.323100	-0.058315	-0.054741
C47	C	1.170554	-0.191896	-0.007842
C48	C	1.143484	-0.215603	0.118815
H49	H	0.987301	-0.018836	-0.611036
H50	H	1.535323	0.127491	0.224065
O51	O	1.050654	-0.034418	-0.536066
H52	H	1.029533	-0.088806	-0.578730
H53	H	0.943845	-0.114982	-0.104277
O54	O	1.212700	-0.155029	0.461866
H55	H	1.271418	-0.103621	0.475017
O56	O	1.082310	-0.269210	0.378974
H57	H	1.117391	-0.322285	0.422068
O58	O	1.419946	0.026518	-0.148311
H59	H	1.384882	0.079600	-0.191419
H60	H	1.470623	0.070858	-0.078102
O61	O	0.484190	-0.077893	-0.251377
H62	H	0.433034	-0.096848	-0.147168
H63	H	0.710934	0.005863	-0.711975
O64	O	1.608166	0.191306	-0.028674
H65	H	1.647235	0.225527	0.020343
H66	H	1.119470	-0.236628	-0.040319
O67	O	0.945240	0.020272	-0.811110
H68	H	0.901118	0.032165	-0.868808
O69	O	0.557221	-0.115783	-0.060807
H70	H	0.601339	-0.127695	-0.003107
H71	H	0.731227	-0.123363	-0.038913
H72	H	1.070357	-0.279635	0.189486
