data_functionalizedCrystal
_audit_creation_method	'MofGen! by Chris Wilmer'
_symmetry_space_group_name_H-M	'P1'
_symmetry_Int_Tables_number	1
_symmetry_cell_setting	triclinic
loop_
_symmetry_equiv_pos_as_xyz
  x,y,z
_cell_length_a	16.992694
_cell_length_b	12.996460
_cell_length_c	16.992695
_cell_angle_alpha	89.999594
_cell_angle_beta	89.331777
_cell_angle_gamma	90.000812
loop_
_atom_site_label
_atom_site_type_symbol
_atom_site_fract_x
_atom_site_fract_y
_atom_site_fract_z
O1	O	1.050853	0.085439	-0.166911
O2	O	1.300853	0.335439	0.083089
O3	O	1.550853	0.585439	0.333089
O4	O	1.800853	0.835439	0.583089
O5	O	0.822453	0.085469	-0.165080
O6	O	1.072453	0.335469	0.084920
O7	O	1.322453	0.585469	0.334920
O8	O	1.572453	0.835469	0.584920
O9	O	0.935737	0.085446	-0.051796
O10	O	1.185737	0.335446	0.198204
O11	O	1.435737	0.585446	0.448204
O12	O	1.685737	0.835446	0.698204
O13	O	0.937568	0.085462	-0.280196
O14	O	1.187568	0.335462	-0.030196
O15	O	1.437568	0.585462	0.219804
O16	O	1.687568	0.835462	0.469804
O17	O	0.935722	-0.085688	-0.051802
O18	O	1.185722	0.164312	0.198198
O19	O	1.435722	0.414312	0.448198
O20	O	1.685722	0.664312	0.698198
O21	O	0.822438	-0.085665	-0.165086
O22	O	1.072438	0.164335	0.084914
O23	O	1.322438	0.414335	0.334914
O24	O	1.572438	0.664335	0.584914
O25	O	1.050838	-0.085695	-0.166917
O26	O	1.300838	0.164305	0.083083
O27	O	1.550838	0.414305	0.333083
O28	O	1.800838	0.664305	0.583083
Cu29	Cu	0.936636	-0.101306	-0.166002
Cu30	Cu	1.186636	0.148694	0.083998
Cu31	Cu	1.436636	0.398694	0.333998
Cu32	Cu	1.686636	0.648694	0.583998
Cu33	Cu	0.936654	0.101080	-0.165995
Cu34	Cu	1.186654	0.351080	0.084005
Cu35	Cu	1.436654	0.601080	0.334005
Cu36	Cu	1.686654	0.851080	0.584005
O37	O	0.937553	-0.085672	-0.280202
O38	O	1.187553	0.164328	-0.030202
O39	O	1.437553	0.414328	0.219798
O40	O	1.687553	0.664328	0.469798
C41	C	0.793085	-0.000094	-0.162727
C42	C	1.043085	0.249906	0.087273
C43	C	1.293085	0.499906	0.337273
C44	C	1.543085	0.749906	0.587273
C45	C	0.705600	-0.000083	-0.155699
C46	C	0.955600	0.249917	0.094301
C47	C	1.205600	0.499917	0.344301
C48	C	1.455600	0.749917	0.594301
N49	N	0.936629	-0.243653	-0.166007
N50	N	1.186629	0.006347	0.083993
N51	N	1.436629	0.256347	0.333993
N52	N	1.686629	0.506347	0.583993
C53	C	0.659610	-0.000079	-0.223517
C54	C	0.909610	0.249921	0.026483
C55	C	1.159610	0.499921	0.276483
C56	C	1.409610	0.749921	0.526483
C57	C	0.577409	-0.000093	-0.216908
C58	C	0.827409	0.249907	0.033092
C59	C	1.077409	0.499907	0.283092
C60	C	1.327409	0.749907	0.533092
C61	C	0.541201	-0.000105	-0.142480
C62	C	0.791201	0.249895	0.107520
C63	C	1.041201	0.499895	0.357520
C64	C	1.291201	0.749895	0.607520
C65	C	0.587198	-0.000112	-0.074657
C66	C	0.837198	0.249888	0.175343
C67	C	1.087198	0.499888	0.425343
C68	C	1.337198	0.749888	0.675343
C69	C	0.669397	-0.000104	-0.081267
C70	C	0.919397	0.249896	0.168733
C71	C	1.169397	0.499896	0.418733
C72	C	1.419397	0.749896	0.668733
C73	C	0.295886	-0.000134	-0.115086
C74	C	0.545886	0.249866	0.134914
C75	C	0.795886	0.499866	0.384914
C76	C	1.045886	0.749866	0.634914
C77	C	0.213681	-0.000138	-0.108481
C78	C	0.463681	0.249862	0.141519
C79	C	0.713681	0.499862	0.391519
C80	C	0.963681	0.749862	0.641519
C81	C	0.203898	-0.000122	-0.250732
C82	C	0.453898	0.249878	-0.000732
C83	C	0.703898	0.499878	0.249268
C84	C	0.953898	0.749878	0.499268
C85	C	0.286099	-0.000108	-0.257336
C86	C	0.536099	0.249892	-0.007336
C87	C	0.786099	0.499892	0.242664
C88	C	1.036099	0.749892	0.492664
C89	C	0.332089	-0.000121	-0.189512
C90	C	0.582089	0.249879	0.060488
C91	C	0.832089	0.499879	0.310488
C92	C	1.082089	0.749879	0.560488
N93	N	0.457178	-0.000116	-0.135723
N94	N	0.707178	0.249884	0.114277
N95	N	0.957178	0.499884	0.364277
N96	N	1.207178	0.749884	0.614277
N97	N	0.416110	-0.000116	-0.196270
N98	N	0.666110	0.249884	0.053730
N99	N	0.916110	0.499884	0.303730
N100	N	1.166110	0.749884	0.553730
C101	C	0.936633	-0.336759	-0.166009
C102	C	1.186633	-0.086759	0.083991
C103	C	1.436633	0.163241	0.333991
C104	C	1.686633	0.413241	0.583991
C105	C	0.936640	-0.453564	-0.166005
C106	C	1.186640	-0.203564	0.083995
C107	C	1.436640	0.046436	0.333995
C108	C	1.686640	0.296436	0.583995
C109	C	0.936649	-0.546662	-0.165997
C110	C	1.186649	-0.296662	0.084003
C111	C	1.436649	-0.046662	0.334003
C112	C	1.686649	0.203338	0.584003
C113	C	0.936658	-0.663475	-0.165993
C114	C	1.186658	-0.413475	0.084007
C115	C	1.436658	-0.163475	0.334007
C116	C	1.686658	0.086525	0.584007
C117	C	1.080205	-0.000130	-0.169270
C118	C	1.330205	0.249870	0.080730
C119	C	1.580205	0.499870	0.330730
C120	C	1.830205	0.749870	0.580730
C121	C	1.167690	-0.000134	-0.176299
C122	C	1.417690	0.249866	0.073701
C123	C	1.667690	0.499866	0.323701
C124	C	1.917690	0.749866	0.573701
C125	C	0.933374	-0.000121	-0.022439
C126	C	1.183374	0.249879	0.227561
C127	C	1.433374	0.499879	0.477561
C128	C	1.683374	0.749879	0.727561
C129	C	0.926345	-0.000119	0.065046
C130	C	1.176345	0.249881	0.315046
C131	C	1.426345	0.499881	0.565046
C132	C	1.676345	0.749881	0.815046
N133	N	0.936667	0.243427	-0.165984
N134	N	1.186667	0.493427	0.084016
N135	N	1.436667	0.743427	0.334016
N136	N	1.686667	0.993427	0.584016
C137	C	0.939917	-0.000103	-0.309559
C138	C	1.189917	0.249897	-0.059559
C139	C	1.439917	0.499897	0.190441
C140	C	1.689917	0.749897	0.440441
C141	C	0.946945	-0.000097	-0.397044
C142	C	1.196945	0.249903	-0.147044
C143	C	1.446945	0.499903	0.102956
C144	C	1.696945	0.749903	0.352956
C145	C	0.994163	-0.000129	0.111037
C146	C	1.244163	0.249871	0.361037
C147	C	1.494163	0.499871	0.611037
C148	C	1.744163	0.749871	0.861037
C149	C	0.987554	-0.000119	0.193238
C150	C	1.237554	0.249881	0.443238
C151	C	1.487554	0.499881	0.693238
C152	C	1.737554	0.749881	0.943238
C153	C	0.913127	-0.000105	0.229446
C154	C	1.163127	0.249895	0.479446
C155	C	1.413127	0.499895	0.729446
C156	C	1.663127	0.749895	0.979446
C157	C	0.845303	-0.000092	0.183449
C158	C	1.095303	0.249908	0.433449
C159	C	1.345303	0.499908	0.683449
C160	C	1.595303	0.749908	0.933449
C161	C	0.851913	-0.000096	0.101250
C162	C	1.101913	0.249904	0.351250
C163	C	1.351913	0.499904	0.601250
C164	C	1.601913	0.749904	0.851250
C165	C	0.885732	-0.000088	0.474760
C166	C	1.135732	0.249912	0.724760
C167	C	1.385732	0.499912	0.974760
C168	C	1.635732	0.749912	1.224760
C169	C	0.879127	-0.000087	0.556966
C170	C	1.129127	0.249913	0.806966
C171	C	1.379127	0.499913	1.056966
C172	C	1.629127	0.749913	1.306966
C173	C	1.021379	-0.000112	0.566749
C174	C	1.271379	0.249888	0.816749
C175	C	1.521379	0.499888	1.066749
C176	C	1.771379	0.749888	1.316749
C177	C	1.027982	-0.000121	0.484547
C178	C	1.277982	0.249879	0.734547
C179	C	1.527982	0.499879	0.984547
C180	C	1.777982	0.749879	1.234547
C181	C	0.960159	-0.000103	0.438558
C182	C	1.210159	0.249897	0.688558
C183	C	1.460159	0.499897	0.938558
C184	C	1.710159	0.749897	1.188558
N185	N	0.906369	-0.000098	0.313468
N186	N	1.156369	0.249902	0.563468
N187	N	1.406369	0.499902	0.813468
N188	N	1.656369	0.749902	1.063468
N189	N	0.966917	-0.000103	0.354537
N190	N	1.216917	0.249897	0.604537
N191	N	1.466917	0.499897	0.854537
N192	N	1.716917	0.749897	1.104537
H193	H	0.689084	-0.000069	-0.284124
H194	H	0.939084	0.249931	-0.034124
H195	H	1.189084	0.499931	0.215876
H196	H	1.439084	0.749931	0.465876
H197	H	1.088589	-0.000132	0.455073
H198	H	1.338589	0.249868	0.705073
H199	H	1.588589	0.499868	0.955073
H200	H	1.838589	0.749868	1.205073
H201	H	0.315574	-0.000087	-0.317942
H202	H	0.565574	0.249913	-0.067942
H203	H	0.815574	0.499913	0.182058
H204	H	1.065574	0.749913	0.432058
H205	H	1.076596	-0.000125	0.604202
H206	H	1.326596	0.249875	0.854202
H207	H	1.576596	0.499875	1.104202
H208	H	1.826596	0.749875	1.354202
H209	H	0.166444	-0.000114	-0.305950
H210	H	0.416444	0.249886	-0.055950
H211	H	0.666444	0.499886	0.194050
H212	H	0.916444	0.749886	0.444050
H213	H	1.042779	-0.000129	0.230680
H214	H	1.292779	0.249871	0.480680
H215	H	1.542779	0.499871	0.730680
H216	H	1.792779	0.749871	0.980680
H217	H	0.184203	-0.000146	-0.047870
H218	H	0.434203	0.249854	0.202130
H219	H	0.684203	0.499854	0.452130
H220	H	0.934203	0.749854	0.702130
H221	H	0.333322	-0.000145	-0.059859
H222	H	0.583322	0.249855	0.190141
H223	H	0.833322	0.499855	0.440141
H224	H	1.083322	0.749855	0.690141
H225	H	0.784703	-0.000075	0.212936
H226	H	1.034703	0.249925	0.462936
H227	H	1.284703	0.499925	0.712936
H228	H	1.534703	0.749925	0.962936
H229	H	0.706842	-0.000107	-0.026042
H230	H	0.956842	0.249893	0.223958
H231	H	1.206842	0.499893	0.473958
H232	H	1.456842	0.749893	0.723958
H233	H	1.054770	-0.000147	0.081563
H234	H	1.304770	0.249853	0.331563
H235	H	1.554770	0.499853	0.581563
H236	H	1.804770	0.749853	0.831563
H237	H	0.796688	-0.000087	0.063804
H238	H	1.046688	0.249913	0.313804
H239	H	1.296688	0.499913	0.563804
H240	H	1.546688	0.749913	0.813804
H241	H	0.818516	-0.000093	0.586443
H242	H	1.068516	0.249907	0.836443
H243	H	1.318516	0.499907	1.086443
H244	H	1.568516	0.749907	1.336443
H245	H	0.557710	-0.000135	-0.014056
H246	H	0.807710	0.249865	0.235944
H247	H	1.057710	0.499865	0.485944
H248	H	1.307710	0.749865	0.735944
H249	H	0.830505	-0.000073	0.437325
H250	H	1.080505	0.249927	0.687325
H251	H	1.330505	0.499927	0.937325
H252	H	1.580505	0.749927	1.187325
H253	H	0.539966	-0.000089	-0.272133
H254	H	0.789966	0.249911	-0.022133
H255	H	1.039966	0.499911	0.227867
H256	H	1.289966	0.749911	0.477867
