data_functionalizedCrystal
_audit_creation_method	'MofGen! by Chris Wilmer'
_symmetry_space_group_name_H-M	'P1'
_symmetry_Int_Tables_number	1
_symmetry_cell_setting	triclinic
loop_
_symmetry_equiv_pos_as_xyz
  x,y,z
_cell_length_a	19.188930
_cell_length_b	19.188930
_cell_length_c	18.266242
_cell_angle_alpha	89.979776
_cell_angle_beta	90.006796
_cell_angle_gamma	96.855221
loop_
_atom_site_label
_atom_site_type_symbol
_atom_site_fract_x
_atom_site_fract_y
_atom_site_fract_z
O1	O	0.087164	-0.926147	0.061124
O2	O	0.420498	-0.592814	0.394458
O3	O	0.753831	-0.259480	0.727791
O4	O	0.098898	-0.722836	0.061075
O5	O	0.432232	-0.389502	0.394409
O6	O	0.765565	-0.056169	0.727742
O7	O	-0.008624	-0.830359	0.061087
O8	O	0.324709	-0.497025	0.394420
O9	O	0.658042	-0.163692	0.727754
O10	O	0.194687	-0.818624	0.061113
O11	O	0.528020	-0.485291	0.394446
O12	O	0.861354	-0.151958	0.727779
O13	O	-0.008621	-0.830345	-0.060675
O14	O	0.324713	-0.497011	0.272658
O15	O	0.658046	-0.163678	0.605992
O16	O	0.098902	-0.722822	-0.060687
O17	O	0.432235	-0.389489	0.272647
O18	O	0.765569	-0.056155	0.605980
O19	O	0.087168	-0.926133	-0.060638
O20	O	0.420501	-0.592800	0.272696
O21	O	0.753834	-0.259467	0.606029
Zn22	Zn	0.093035	-0.824475	-0.079994
Zn23	Zn	0.426369	-0.491142	0.253339
Zn24	Zn	0.759702	-0.157809	0.586672
Zn25	Zn	0.093031	-0.824494	0.080432
Zn26	Zn	0.426364	-0.491160	0.413766
Zn27	Zn	0.759697	-0.157827	0.747099
O28	O	0.194690	-0.818611	-0.060649
O29	O	0.528024	-0.485277	0.272684
O30	O	0.861357	-0.151944	0.606017
C31	C	-0.034634	-0.829972	0.000204
C32	C	0.298700	-0.496638	0.333537
C33	C	0.632033	-0.163305	0.666870
C34	C	-0.112138	-0.828831	0.000197
C35	C	0.221195	-0.495498	0.333531
C36	C	0.554529	-0.162164	0.666864
C37	C	0.098520	-0.696818	0.000188
C38	C	0.431854	-0.363485	0.333521
C39	C	0.765187	-0.030151	0.666855
C40	C	0.097380	-0.619313	0.000169
C41	C	0.430713	-0.285980	0.333502
C42	C	0.764046	0.047353	0.666835
C43	C	0.087546	-0.952151	0.000252
C44	C	0.420879	-0.618818	0.333585
C45	C	0.754213	-0.285485	0.666918
C46	C	0.088687	-1.029656	0.000276
C47	C	0.422020	-0.696322	0.333609
C48	C	0.755353	-0.362989	0.666942
C49	C	-0.157062	-0.891922	0.000209
C50	C	0.176271	-0.558589	0.333542
C51	C	0.509605	-0.225255	0.666876
C52	C	-0.229886	-0.890850	0.000220
C53	C	0.103448	-0.557517	0.333554
C54	C	0.436781	-0.224184	0.666887
C55	C	-0.257782	-0.826684	0.000206
C56	C	0.075551	-0.493351	0.333539
C57	C	0.408884	-0.160017	0.666872
C58	C	-0.212849	-0.763585	0.000198
C59	C	0.120485	-0.430252	0.333531
C60	C	0.453818	-0.096918	0.666865
C61	C	-0.140026	-0.764658	0.000194
C62	C	0.193307	-0.431325	0.333527
C63	C	0.526640	-0.097992	0.666860
N64	N	-0.365786	-0.777632	-0.041244
N65	N	-0.032453	-0.444299	0.292089
N66	N	0.300880	-0.110965	0.625422
N67	N	-0.434965	-0.776617	-0.041242
N68	N	-0.101631	-0.443283	0.292091
N69	N	0.231702	-0.109950	0.625425
C70	C	-0.477191	-0.823446	0.000220
C71	C	-0.143858	-0.490113	0.333553
C72	C	0.189476	-0.156779	0.666886
N73	N	-0.447627	-0.871340	0.041669
N74	N	-0.114293	-0.538006	0.375003
N75	N	0.219040	-0.204673	0.708336
N76	N	-0.378442	-0.872357	0.041664
N77	N	-0.045109	-0.539024	0.374997
N78	N	0.288225	-0.205691	0.708330
C79	C	-0.336745	-0.825513	0.000210
C80	C	-0.003412	-0.492180	0.333544
C81	C	0.329922	-0.158846	0.666877
C82	C	-0.601079	-0.885379	0.000245
C83	C	-0.267746	-0.552046	0.333578
C84	C	0.065587	-0.218712	0.666911
C85	C	-0.673904	-0.884305	0.000261
C86	C	-0.340571	-0.550971	0.333594
C87	C	-0.007238	-0.217638	0.666927
C88	C	-0.656865	-0.757038	0.000231
C89	C	-0.323532	-0.423704	0.333564
C90	C	0.009801	-0.090371	0.666897
C91	C	-0.584042	-0.758114	0.000222
C92	C	-0.250709	-0.424781	0.333556
C93	C	0.082624	-0.091447	0.666889
C94	C	-0.556154	-0.822286	0.000226
C95	C	-0.222821	-0.488953	0.333559
C96	C	0.110513	-0.155620	0.666892
C97	C	0.220700	-0.818997	0.000236
C98	C	0.554033	-0.485664	0.333569
C99	C	0.887366	-0.152331	0.666902
C100	C	0.298204	-0.820138	0.000247
C101	C	0.631538	-0.486805	0.333580
C102	C	0.964871	-0.153471	0.666914
N103	N	0.093038	-0.824468	-0.189481
N104	N	0.426371	-0.491135	0.143852
N105	N	0.759705	-0.157802	0.477185
C106	C	0.160470	-0.574389	0.000188
C107	C	0.493804	-0.241056	0.333521
C108	C	0.827137	0.092277	0.666855
C109	C	0.159399	-0.501566	0.000196
C110	C	0.492732	-0.168232	0.333529
C111	C	0.826065	0.165101	0.666863
C112	C	0.095233	-0.473669	0.000199
C113	C	0.428566	-0.140336	0.333532
C114	C	0.761899	0.192998	0.666866
C115	C	0.032133	-0.518603	0.000175
C116	C	0.365467	-0.185270	0.333509
C117	C	0.698800	0.148064	0.666842
C118	C	0.033207	-0.591425	0.000160
C119	C	0.366540	-0.258092	0.333494
C120	C	0.699874	0.075242	0.666827
N121	N	0.046184	-0.365694	0.041663
N122	N	0.379518	-0.032360	0.374997
N123	N	0.712851	0.300973	0.708330
N124	N	0.045169	-0.296515	0.041679
N125	N	0.378502	0.036818	0.375013
N126	N	0.711836	0.370152	0.708346
C127	C	0.091994	-0.254260	0.000243
C128	C	0.425328	0.079073	0.333577
C129	C	0.758661	0.412406	0.666910
N130	N	0.139884	-0.283796	-0.041200
N131	N	0.473218	0.049537	0.292133
N132	N	0.806551	0.382870	0.625467
N133	N	0.140902	-0.352981	-0.041213
N134	N	0.474235	-0.019648	0.292121
N135	N	0.807569	0.313686	0.625454
C136	C	0.094062	-0.394707	0.000215
C137	C	0.427395	-0.061373	0.333548
C138	C	0.760728	0.271960	0.666882
C139	C	0.153928	-0.130372	0.000270
C140	C	0.487261	0.202961	0.333604
C141	C	0.820594	0.536295	0.666937
C142	C	0.152853	-0.057547	0.000274
C143	C	0.486187	0.275786	0.333607
C144	C	0.819520	0.609119	0.666940
C145	C	0.025586	-0.074586	0.000261
C146	C	0.358920	0.258747	0.333594
C147	C	0.692253	0.592081	0.666927
C148	C	0.026662	-0.147409	0.000250
C149	C	0.359996	0.185924	0.333583
C150	C	0.693329	0.519257	0.666917
C151	C	0.090835	-0.175298	0.000258
C152	C	0.424168	0.158036	0.333592
C153	C	0.757502	0.491369	0.666925
C154	C	0.135258	-0.866721	-0.771741
C155	C	0.468592	-0.533387	-0.438408
C156	C	0.801925	-0.200054	-0.105075
C157	C	0.135265	-0.866713	-0.695096
C158	C	0.468599	-0.533380	-0.361763
C159	C	0.801932	-0.200047	-0.028430
C160	C	0.093024	-0.824500	-0.656794
C161	C	0.426357	-0.491167	-0.323461
C162	C	0.759690	-0.157833	0.009873
C163	C	0.050785	-0.782277	-0.695143
C164	C	0.384119	-0.448944	-0.361809
C165	C	0.717452	-0.115611	-0.028476
C166	C	0.050785	-0.782281	-0.771786
C167	C	0.384118	-0.448947	-0.438453
C168	C	0.717452	-0.115614	-0.105119
N169	N	0.031863	-0.822809	-0.536465
N170	N	0.365197	-0.489476	-0.203131
N171	N	0.698530	-0.156142	0.130202
N172	N	0.031866	-0.822810	-0.463657
N173	N	0.365199	-0.489477	-0.130323
N174	N	0.698532	-0.156143	0.203010
C175	C	0.093024	-0.824487	-0.425872
C176	C	0.426357	-0.491153	-0.092538
C177	C	0.759690	-0.157820	0.240795
N178	N	0.154180	-0.826176	-0.463645
N179	N	0.487514	-0.492843	-0.130312
N180	N	0.820847	-0.159509	0.203022
N181	N	0.154177	-0.826179	-0.536460
N182	N	0.487510	-0.492846	-0.203126
N183	N	0.820844	-0.159512	0.130207
C184	C	0.093020	-0.824492	-0.573687
C185	C	0.426353	-0.491158	-0.240354
C186	C	0.759686	-0.157825	0.092980
C187	C	0.135271	-0.866695	-0.304425
C188	C	0.468604	-0.533362	0.028908
C189	C	0.801937	-0.200028	0.362242
C190	C	0.135279	-0.866683	-0.227779
C191	C	0.468613	-0.533349	0.105555
C192	C	0.801946	-0.200016	0.438888
C193	C	0.050793	-0.782251	-0.227826
C194	C	0.384126	-0.448918	0.105507
C195	C	0.717459	-0.115584	0.438840
C196	C	0.050791	-0.782259	-0.304471
C197	C	0.384124	-0.448926	0.028862
C198	C	0.717458	-0.115592	0.362196
C199	C	0.093029	-0.824485	-0.342766
C200	C	0.426362	-0.491152	-0.009432
C201	C	0.759695	-0.157818	0.323901
N202	N	0.093023	-0.824506	0.189919
N203	N	0.426356	-0.491173	0.523253
N204	N	0.759689	-0.157840	0.856586
H205	H	-0.134360	-0.944176	0.000214
H206	H	0.198973	-0.610843	0.333548
H207	H	0.532306	-0.277509	0.666881
H208	H	0.016395	-0.747887	-0.335687
H209	H	0.349728	-0.414554	-0.002354
H210	H	0.683061	-0.081220	0.330979
Cl211	Cl	-0.691928	-0.676371	0.000216
Cl212	Cl	-0.358595	-0.343037	0.333550
Cl213	Cl	-0.025262	-0.009704	0.666883
H214	H	-0.547464	-0.706738	0.000208
H215	H	-0.214131	-0.373405	0.333542
H216	H	0.119203	-0.040072	0.666875
H217	H	-0.266470	-0.942228	0.000233
H218	H	0.066863	-0.608895	0.333566
H219	H	0.400197	-0.275561	0.666900
H220	H	0.212725	-0.597091	0.000196
H221	H	0.546058	-0.263758	0.333530
H222	H	0.879391	0.069576	0.666863
H223	H	0.169653	-0.901103	-0.802916
H224	H	0.502986	-0.567770	-0.469583
H225	H	0.836320	-0.234436	-0.136250
Cl226	Cl	-0.730382	-0.963627	0.000280
Cl227	Cl	-0.397049	-0.630293	0.333614
Cl228	Cl	-0.063715	-0.296960	0.666947
Cl229	Cl	-0.247918	-0.682919	0.000185
Cl230	Cl	0.085416	-0.349586	0.333518
Cl231	Cl	0.418749	-0.016252	0.666852
H232	H	0.169662	-0.901088	-0.663874
H233	H	0.502995	-0.567755	-0.330541
H234	H	0.836328	-0.234422	0.002792
H235	H	-0.103449	-0.713281	0.000184
H236	H	0.229885	-0.379947	0.333517
H237	H	0.563218	-0.046614	0.666851
H238	H	0.016394	-0.747906	-0.663952
H239	H	0.349727	-0.414572	-0.330619
H240	H	0.683060	-0.081239	0.002715
H241	H	0.210776	-0.464982	0.000210
H242	H	0.544110	-0.131648	0.333543
H243	H	0.877443	0.201685	0.666876
Cl244	Cl	-0.002316	-0.729207	-0.819987
Cl245	Cl	0.331017	-0.395874	-0.486654
Cl246	Cl	0.664350	-0.062541	-0.153320
Cl247	Cl	0.188371	-0.919775	-0.352570
Cl248	Cl	0.521705	-0.586441	-0.019237
Cl249	Cl	0.855038	-0.253108	0.314096
H250	H	-0.020111	-0.495885	0.000188
H251	H	0.313222	-0.162552	0.333521
H252	H	0.646556	0.170782	0.666855
Cl253	Cl	-0.046114	-0.647904	0.000136
Cl254	Cl	0.287219	-0.314571	0.333470
Cl255	Cl	0.620553	0.018762	0.666803
H256	H	0.169677	-0.901057	-0.196564
H257	H	0.503010	-0.567724	0.136769
H258	H	0.836344	-0.234390	0.470103
Cl259	Cl	-0.002306	-0.729176	-0.179682
Cl260	Cl	0.331027	-0.395843	0.153652
Cl261	Cl	0.664361	-0.062510	0.486985
Cl262	Cl	-0.052657	-0.203888	0.000230
Cl263	Cl	0.280677	0.129445	0.333563
Cl264	Cl	0.614010	0.462778	0.666897
H265	H	0.206181	-0.153080	0.000267
H266	H	0.539514	0.180254	0.333600
H267	H	0.872847	0.513587	0.666933
H268	H	-0.026659	-0.051874	0.000309
H269	H	0.306674	0.281460	0.333642
H270	H	0.640008	0.614793	0.666975
Cl271	Cl	-0.566016	-0.966051	0.000245
Cl272	Cl	-0.232683	-0.632718	0.333578
Cl273	Cl	0.100650	-0.299385	0.666912
H274	H	0.204232	-0.020970	0.000285
H275	H	0.537565	0.312363	0.333619
H276	H	0.870898	0.645697	0.666952
