data_functionalizedCrystal
_audit_creation_method	'MofGen! by Chris Wilmer'
_symmetry_space_group_name_H-M	'P1'
_symmetry_Int_Tables_number	1
_symmetry_cell_setting	triclinic
loop_
_symmetry_equiv_pos_as_xyz
  x,y,z
_cell_length_a	23.532407
_cell_length_b	14.044220
_cell_length_c	13.101039
_cell_angle_alpha	86.332523
_cell_angle_beta	86.661131
_cell_angle_gamma	91.981223
loop_
_atom_site_label
_atom_site_type_symbol
_atom_site_fract_x
_atom_site_fract_y
_atom_site_fract_z
O1	O	0.764361	-0.109747	-0.085276
O2	O	0.599399	-0.126389	-0.085265
O3	O	0.679404	0.019893	-0.085260
O4	O	0.684357	-0.256028	-0.085281
O5	O	0.673664	0.009380	0.085169
O6	O	0.593660	-0.136901	0.085164
O7	O	0.758622	-0.120260	0.085154
Zn8	Zn	0.675230	-0.130250	0.112218
Zn9	Zn	0.682791	-0.116399	-0.112330
O10	O	0.678617	-0.266541	0.085149
C11	C	0.575291	-0.131221	-0.000049
C12	C	0.512004	-0.129948	-0.000045
C13	C	0.674366	0.049930	-0.000045
C14	C	0.667900	0.155095	-0.000043
C15	C	0.782730	-0.115427	-0.000065
C16	C	0.846017	-0.116700	-0.000075
C17	C	1.240860	-0.038128	-0.000034
C18	C	1.300324	-0.039311	-0.000030
O19	O	1.333119	0.033526	0.000012
N20	N	1.327664	-0.126275	-0.000039
C21	C	1.295536	-0.212062	-0.000043
O22	O	1.324251	-0.286140	-0.000049
C23	C	1.236073	-0.210877	-0.000040
C24	C	1.208736	-0.123907	-0.000041
C25	C	1.213523	0.048835	-0.000034
C26	C	1.154063	0.050019	-0.000040
C27	C	1.121940	-0.035760	-0.000047
C28	C	1.149276	-0.122723	-0.000047
C29	C	1.203946	-0.296663	-0.000036
C30	C	1.144479	-0.295471	-0.000032
C31	C	1.117142	-0.208501	-0.000033
C32	C	1.057693	-0.207319	-0.000060
N33	N	1.030353	-0.120356	-0.000051
C34	C	1.062476	-0.034576	-0.000044
C35	C	1.420413	-0.214542	-0.000047
C36	C	1.479876	-0.215727	-0.000057
C37	C	1.484659	-0.042977	-0.000042
C38	C	1.425196	-0.041792	-0.000039
C39	C	1.393073	-0.127578	-0.000037
C40	C	0.937606	-0.032097	-0.000058
C41	C	0.878140	-0.030921	-0.000069
C42	C	0.873362	-0.203671	-0.000078
C43	C	0.932822	-0.204848	-0.000073
C44	C	0.964943	-0.119053	-0.000060
O45	O	1.024861	-0.280119	-0.000098
O46	O	1.033753	0.039489	-0.000024
C47	C	0.683655	-0.296579	-0.000069
C48	C	0.690121	-0.401743	-0.000077
N49	N	0.670073	-0.139702	0.265467
C50	C	0.656080	0.347646	-0.000057
C51	C	0.701939	0.405712	-0.000063
C52	C	0.695362	0.512854	-0.000071
C53	C	0.662656	0.240494	-0.000049
N54	N	0.687952	-0.106939	-0.265578
C55	C	0.663058	-0.152571	0.474509
C56	C	0.694966	-0.094073	0.525386
C57	C	0.691062	-0.101233	0.641705
C58	C	0.666960	-0.145412	0.358180
H59	H	0.855886	0.039904	-0.000072
O60	O	0.730915	-0.027702	0.473135
C61	C	0.699354	0.034141	0.411253
H62	H	0.657351	-0.003268	0.395213
H63	H	0.690376	0.101461	0.452713
C64	C	0.785332	0.107236	0.329018
C65	C	0.733746	0.061287	0.309310
H66	H	0.806547	0.123985	0.266137
H67	H	0.806596	0.065574	0.370712
H68	H	0.777843	0.163331	0.363571
H69	H	0.741236	0.005188	0.274770
H70	H	0.712484	0.102940	0.267608
O71	O	1.389299	-0.297964	-0.000106
C72	C	1.426186	-0.374967	-0.000091
H73	H	1.470361	-0.348487	-0.032352
H74	H	1.429021	-0.406698	0.081669
C75	C	1.348722	-0.484511	-0.027317
C76	C	1.402977	-0.451989	-0.066949
H77	H	1.334405	-0.532024	-0.068553
H78	H	1.323869	-0.432634	-0.027323
H79	H	1.351091	-0.510947	0.040816
H80	H	1.400606	-0.425543	-0.135075
H81	H	1.427828	-0.503864	-0.066955
H82	H	1.131811	0.120839	-0.000037
H83	H	1.239672	0.118691	-0.000025
H84	H	0.746142	0.374961	-0.000135
O85	O	1.515954	0.040262	0.000016
C86	C	1.574299	0.020559	-0.000009
H87	H	1.579270	-0.055826	0.032249
H88	H	1.594043	0.029360	-0.081772
C89	C	1.598541	0.184151	0.027216
C90	C	1.604646	0.090336	0.066844
H91	H	1.617261	0.227194	0.068451
H92	H	1.559233	0.197427	0.027229
H93	H	1.614994	0.191471	-0.040918
H94	H	1.588186	0.083014	0.134973
H95	H	1.643952	0.077060	0.066844
H96	H	0.632811	-0.208027	0.518304
H97	H	0.611882	0.378399	-0.000057
H98	H	1.402943	0.029026	-0.000039
O99	O	0.968784	0.051279	-0.000234
C100	C	0.958668	0.109556	-0.088491
H101	H	0.943005	0.063137	-0.150182
H102	H	0.924967	0.162861	-0.068538
C103	C	1.033539	0.220922	-0.052746
C104	C	1.014306	0.163909	-0.128520
H105	H	1.067858	0.254454	-0.077436
H106	H	1.040354	0.181663	0.006716
H107	H	1.005450	0.265336	-0.036125
H108	H	1.042392	0.119490	-0.145130
H109	H	1.007498	0.203163	-0.187986
O110	O	1.506457	-0.300176	-0.000258
C111	C	1.543694	-0.300578	-0.088513
H112	H	1.529217	-0.247389	-0.150197
H113	H	1.588733	-0.279518	-0.068553
C114	C	1.560865	-0.466642	-0.052795
C115	C	1.543081	-0.401320	-0.128560
H116	H	1.560490	-0.528785	-0.077496
H117	H	1.535780	-0.466371	0.006666
H118	H	1.598396	-0.449080	-0.036169
H119	H	1.505549	-0.418875	-0.145175
H120	H	1.568160	-0.401596	-0.188026
O121	O	1.230399	-0.381234	0.000018
C122	C	1.189284	-0.456677	-0.000004
H123	H	1.146514	-0.432481	0.032254
H124	H	1.184979	-0.478076	-0.081766
C125	C	1.260496	-0.572582	0.027224
C126	C	1.207965	-0.542867	0.066852
H127	H	1.272019	-0.625751	0.068460
H128	H	1.288196	-0.521756	0.027236
H129	H	1.256901	-0.590408	-0.040910
H130	H	1.211562	-0.525031	0.134980
H131	H	1.180266	-0.593693	0.066854
O132	O	1.113219	-0.378736	-0.000171
C133	C	1.081668	-0.377792	-0.088454
H134	H	1.075827	-0.300809	-0.117881
H135	H	1.105490	-0.417060	-0.150261
C136	C	1.030087	-0.522261	-0.025508
C137	C	1.022909	-0.427709	-0.061644
H138	H	0.993843	-0.553055	-0.008973
H139	H	1.051345	-0.522900	0.033969
H140	H	1.049940	-0.554972	-0.077020
H141	H	1.003062	-0.394997	-0.010128
H142	H	1.001646	-0.427066	-0.121112
O143	O	0.842181	-0.287006	-0.000265
C144	C	0.858234	-0.334421	-0.088517
H145	H	0.878065	-0.280414	-0.150213
H146	H	0.890579	-0.390204	-0.068559
C147	C	0.780931	-0.450150	-0.052761
C148	C	0.805283	-0.383815	-0.128541
H149	H	0.748270	-0.480622	-0.077448
H150	H	0.770117	-0.418208	0.006698
H151	H	0.807891	-0.496626	-0.036137
H152	H	0.778326	-0.337334	-0.145155
H153	H	0.816092	-0.415750	-0.188004
H154	H	0.955081	-0.275666	-0.000074
