data_functionalizedCrystal
_audit_creation_method	'MofGen! by Chris Wilmer'
_symmetry_space_group_name_H-M	'P1'
_symmetry_Int_Tables_number	1
_symmetry_cell_setting	triclinic
loop_
_symmetry_equiv_pos_as_xyz
  x,y,z
_cell_length_a	8.634740
_cell_length_b	15.995350
_cell_length_c	7.681481
_cell_angle_alpha	84.260013
_cell_angle_beta	96.618670
_cell_angle_gamma	92.031341
loop_
_atom_site_label
_atom_site_type_symbol
_atom_site_fract_x
_atom_site_fract_y
_atom_site_fract_z
O1	O	2.031482	0.279742	-0.146416
O2	O	1.582530	0.256851	-0.146420
O3	O	1.819279	0.147399	-0.146416
O4	O	1.794733	0.389194	-0.146420
O5	O	1.848418	0.133891	0.146442
O6	O	1.611670	0.243343	0.146438
O7	O	2.060622	0.266235	0.146442
Zn8	Zn	1.840772	0.252644	0.192938
Zn9	Zn	1.802379	0.270441	-0.192916
O10	O	1.823873	0.375686	0.146438
C11	C	1.539650	0.244911	0.000009
C12	C	1.368466	0.229449	0.000007
C13	C	1.832833	0.109369	0.000009
C14	C	1.829790	0.016173	-0.000001
C15	C	1.818866	-0.322456	0.000005
C16	C	1.650192	-0.288594	-0.000653
C17	C	1.653301	-0.191689	0.000007
C18	C	1.824284	-0.154458	0.000001
C19	C	1.924088	-0.196540	0.167235
C20	C	1.919866	-0.293524	0.167375
C21	C	1.890212	-0.278240	-0.165659
C22	C	1.889952	-0.181196	-0.167870
C23	C	1.827356	-0.059513	0.000005
C24	C	1.815800	-0.417402	0.000013
C25	C	2.103502	0.278174	0.000009
C26	C	2.274684	0.293637	-0.000001
C27	C	1.810318	0.413717	0.000009
C28	C	1.813360	0.506913	0.000007
N29	N	1.866986	0.240499	0.456272
N30	N	1.776178	0.282581	-0.456250
H31	H	1.570869	-0.307031	-0.120579
H32	H	2.013636	-0.155309	-0.177971
N33	N	1.338265	0.377411	0.000028
N34	N	1.481901	0.390274	0.000051
H35	H	1.526816	0.449441	0.000074
N36	N	1.304884	0.145668	0.000025
N37	N	1.161251	0.132802	0.000022
H38	H	1.116343	0.073632	0.000038
N39	N	1.556321	-0.155720	-0.150381
N40	N	1.485860	-0.202180	-0.256561
H41	H	1.417356	-0.176782	-0.362775
N42	N	1.580922	-0.326870	0.148955
N43	N	1.655239	-0.378979	0.256060
H44	H	1.606321	-0.406014	0.361724
N45	N	1.585730	-0.170347	0.150657
N46	N	1.536138	-0.227062	0.255645
H47	H	1.488416	-0.211992	0.362051
N48	N	1.859394	-0.329847	0.324207
N49	N	1.820592	-0.283531	0.432794
H50	H	1.777880	-0.309180	0.543561
H51	H	2.044410	-0.316135	0.174959
H52	H	2.050324	-0.172567	0.173450
H53	H	1.683482	0.325533	0.468552
N54	N	1.798395	-0.145935	-0.323118
N55	N	1.729227	-0.193054	-0.428799
H56	H	1.664580	-0.168142	-0.538451
H57	H	2.014413	-0.299920	-0.166788
N58	N	1.983279	0.186617	0.550631
N59	N	1.999530	0.179093	0.715219
H60	H	2.081656	0.141037	0.781863
H61	H	1.878710	-0.178558	0.291689
H62	H	1.822474	-0.297381	-0.292413
