data_functionalizedCrystal
_audit_creation_method	'MofGen! by Chris Wilmer'
_symmetry_space_group_name_H-M	'P1'
_symmetry_Int_Tables_number	1
_symmetry_cell_setting	triclinic
loop_
_symmetry_equiv_pos_as_xyz
  x,y,z
_cell_length_a	10.654550
_cell_length_b	14.519731
_cell_length_c	9.130313
_cell_angle_alpha	89.997760
_cell_angle_beta	89.996220
_cell_angle_gamma	84.086878
loop_
_atom_site_label
_atom_site_type_symbol
_atom_site_fract_x
_atom_site_fract_y
_atom_site_fract_z
O1	O	1.666602	0.129527	-0.121923
O2	O	1.301006	0.141868	-0.121900
O3	O	1.493484	0.001510	-0.121899
O4	O	1.474125	0.269884	-0.121925
O5	O	1.493481	0.001514	0.121700
O6	O	1.301004	0.141872	0.121699
O7	O	1.666600	0.129531	0.121675
Cu8	Cu	1.483802	0.135701	0.143930
Cu9	Cu	1.483804	0.135697	-0.144154
O10	O	1.474122	0.269888	0.121674
C11	C	1.254216	0.140964	-0.000098
C12	C	1.114798	0.138253	-0.000088
C13	C	1.034527	0.220893	-0.000118
C14	C	0.903530	0.218340	-0.000143
C15	C	0.933090	0.050499	-0.000116
C16	C	1.064084	0.053053	-0.000080
C17	C	1.085241	0.306092	-0.000126
C18	C	1.004968	0.388739	-0.000157
C19	C	0.873971	0.386186	-0.000182
C20	C	0.823248	0.300986	-0.000176
C21	C	1.492575	-0.032852	-0.000099
C22	C	1.489857	-0.135246	-0.000098
C23	C	1.487649	-0.218402	-0.000102
C24	C	1.484889	-0.322725	-0.000113
C25	C	1.482699	-0.405875	-0.000122
C26	C	1.479939	-0.510205	-0.000130
C27	C	1.713390	0.130435	-0.000130
C28	C	1.852808	0.133146	-0.000149
C29	C	1.475031	0.304250	-0.000129
C30	C	1.477749	0.406645	-0.000139
N31	N	1.483809	0.135704	0.346552
N32	N	1.483807	0.135687	-0.346777
C33	C	1.569059	0.073575	0.423205
C34	C	1.569056	0.073564	0.576541
C35	C	1.398547	0.197819	0.576560
C36	C	1.398546	0.197825	0.423226
C37	C	1.654322	0.011454	0.346531
C38	C	1.739581	-0.050679	0.423184
C39	C	1.739578	-0.050690	0.576520
C40	C	1.654316	0.011432	0.653205
H41	H	0.808616	0.453481	-0.000192
H42	H	1.654312	0.011412	0.778062
H43	H	1.046276	0.458106	-0.000149
H44	H	1.808990	-0.101287	0.638929
H45	H	1.329132	0.248397	0.639006
F46	F	0.683827	0.298274	-0.000183
H47	H	1.654335	0.011459	0.221677
F48	F	1.307808	0.263948	0.341646
H49	H	0.891780	-0.018866	-0.000135
H50	H	1.129444	-0.014240	-0.000060
F51	F	1.224657	0.308816	-0.000106
H52	H	1.808992	-0.101262	0.360739
