data_functionalizedCrystal
_audit_creation_method	'MofGen! by Chris Wilmer'
_symmetry_space_group_name_H-M	'P1'
_symmetry_Int_Tables_number	1
_symmetry_cell_setting	triclinic
loop_
_symmetry_equiv_pos_as_xyz
  x,y,z
_cell_length_a	14.908618
_cell_length_b	14.908579
_cell_length_c	14.908694
_cell_angle_alpha	83.252790
_cell_angle_beta	96.408947
_cell_angle_gamma	90.205933
loop_
_atom_site_label
_atom_site_type_symbol
_atom_site_fract_x
_atom_site_fract_y
_atom_site_fract_z
Zn1	Zn	-1.387400	0.474991	-0.617460
Zn2	Zn	-0.887400	0.974991	-0.117460
Zn3	Zn	-1.370832	0.616620	-0.473821
Zn4	Zn	-0.870832	1.116620	0.026179
Zn5	Zn	-1.228310	0.456533	-0.456384
Zn6	Zn	-0.728310	0.956533	0.043616
Zn7	Zn	-1.228268	0.616546	-0.616412
Zn8	Zn	-0.728268	1.116546	-0.116412
O9	O	-1.303702	0.541173	-0.541019
O10	O	-0.803702	1.041173	-0.041019
O11	O	-1.511446	0.501534	-0.606142
O12	O	-1.011446	1.001534	-0.106142
O13	O	-1.345010	0.587691	-0.344423
O14	O	-0.845010	1.087691	0.155577
O15	O	-1.256364	0.332743	-0.470891
O16	O	-0.756364	0.832743	0.029109
O17	O	-1.499273	0.605588	-0.500612
O18	O	-0.999273	1.105588	-0.000612
O19	O	-1.373247	0.346304	-0.589233
O20	O	-0.873247	0.846304	-0.089233
O21	O	-1.240299	0.470076	-0.331611
O22	O	-0.740299	0.970076	0.168389
O23	O	-1.102061	0.470004	-0.469875
O24	O	-0.602061	0.970004	0.030125
O25	O	-1.256293	0.605462	-0.743636
O26	O	-0.756293	1.105462	-0.243636
O27	O	-1.102030	0.587565	-0.587448
O28	O	-0.602030	1.087565	-0.087448
O29	O	-1.373207	0.501461	-0.744406
O30	O	-0.873207	1.001461	-0.244406
O31	O	-1.344970	0.742849	-0.499596
O32	O	-0.844970	1.242849	0.000404
O33	O	-1.240228	0.742795	-0.604356
O34	O	-0.740228	1.242795	-0.104356
C35	C	-1.069312	0.526774	-0.526656
C36	C	-0.569312	1.026774	-0.026656
C37	C	-0.969038	0.520637	-0.520534
C38	C	-0.469038	1.020637	-0.020534
C39	C	-0.780612	0.631691	-0.631312
C40	C	-0.280612	1.131691	-0.131312
C41	C	-0.686396	0.625928	-0.625563
C42	C	-0.186396	1.125928	-0.125563
C43	C	-0.686390	0.503345	-0.503293
C44	C	-0.186390	1.003345	-0.003293
C45	C	-0.780606	0.509108	-0.509042
C46	C	-0.280606	1.009108	-0.009042
C47	C	-0.827713	0.573284	-0.573053
C48	C	-0.327713	1.073284	-0.073053
C49	C	-0.921930	0.579051	-0.578796
C50	C	-0.421930	1.079051	-0.078796
C51	C	-0.921923	0.456464	-0.456531
C52	C	-0.421923	0.956464	0.043469
C53	C	-0.827707	0.450701	-0.450782
C54	C	-0.327707	0.950701	0.049218
C55	C	-1.290822	0.775557	-0.553776
C56	C	-0.790822	1.275557	-0.053776
C57	C	-1.285396	0.875834	-0.559269
C58	C	-0.785396	1.375834	-0.059269
C59	C	-0.539008	0.555621	-0.555432
C60	C	-0.039008	1.055621	-0.055432
C61	C	-0.639282	0.561758	-0.561555
C62	C	-0.139282	1.061758	-0.061555
C63	C	-1.384391	1.064275	-0.460604
C64	C	-0.884391	1.564275	0.039396
C65	C	-1.379296	1.158495	-0.465762
C66	C	-0.879296	1.658495	0.034238
C67	C	-1.270115	1.158495	-0.574747
C68	C	-0.770115	1.658495	-0.074747
C69	C	-1.275211	1.064276	-0.569589
C70	C	-0.775211	1.564276	-0.069589
C71	C	-1.332349	1.017169	-0.512514
C72	C	-0.832349	1.517169	-0.012514
C73	C	-1.337439	0.922947	-0.507352
C74	C	-0.837439	1.422947	-0.007352
C75	C	-1.228264	0.922950	-0.616342
C76	C	-0.728264	1.422950	-0.116342
C77	C	-1.223169	1.017170	-0.621500
C78	C	-0.723169	1.517170	-0.121500
C79	C	-1.316593	0.555512	-0.777894
C80	C	-0.816593	1.055512	-0.277894
C81	C	-1.322087	0.561623	-0.878837
C82	C	-0.822087	1.061623	-0.378837
C83	C	-1.316653	1.305876	-0.528245
C84	C	-0.816653	1.805876	-0.028245
C85	C	-1.322159	1.205608	-0.522831
C86	C	-0.822159	1.705608	-0.022831
C87	C	-1.223353	0.450634	-1.055177
C88	C	-0.723353	0.950634	-0.555177
C89	C	-1.228511	0.456372	-1.150021
C90	C	-0.728511	0.956372	-0.650021
C91	C	-1.337557	0.578842	-1.163370
C92	C	-0.837557	1.078842	-0.663370
C93	C	-1.332398	0.573103	-1.068526
C94	C	-0.832398	1.073103	-0.568526
C95	C	-1.275295	0.508996	-1.014433
C96	C	-0.775295	1.008996	-0.514433
C97	C	-1.270142	0.503254	-0.919587
C98	C	-0.770142	1.003254	-0.419587
C99	C	-1.379182	0.625727	-0.932937
C100	C	-0.879182	1.125727	-0.432937
C101	C	-1.384341	0.631466	-1.027781
C102	C	-0.884341	1.131466	-0.527781
C103	C	-1.290917	0.526827	-0.305065
C104	C	-0.790917	1.026827	0.194935
C105	C	-1.285612	0.520473	-0.204120
C106	C	-0.785612	1.020473	0.295880
H107	H	-0.960284	0.631308	-0.630916
H108	H	-0.460284	1.131308	-0.130916
O109	O	-1.435419	1.209306	-0.409768
O110	O	-0.935419	1.709306	0.090232
H111	H	-1.475999	1.160716	-0.369211
H112	H	-0.975999	1.660716	0.130789
H113	H	-0.789339	0.398448	-0.398669
H114	H	-0.289339	0.898448	0.101331
H115	H	-0.648019	0.451090	-0.451184
H116	H	-0.148019	0.951090	0.048816
O117	O	-1.435225	0.688674	-0.888997
O118	O	-0.935225	1.188674	-0.388997
H119	H	-1.416863	0.759631	-0.910104
H120	H	-0.916863	1.259631	-0.410104
O121	O	-1.172130	0.872146	-0.672341
O122	O	-0.672130	1.372146	-0.172341
H123	H	-1.185274	0.798714	-0.659171
H124	H	-0.685274	1.298714	-0.159171
H125	H	-0.960282	0.408906	-0.409090
H126	H	-0.460282	0.908906	0.090910
O127	O	-1.399140	0.647981	-1.221724
O128	O	-0.899140	1.147981	-0.721724
H129	H	-1.378778	0.716731	-1.206425
H130	H	-0.878778	1.216731	-0.706425
H131	H	-1.383962	0.884593	-0.460876
H132	H	-0.883962	1.384593	0.039124
H133	H	-0.648050	0.673488	-0.673006
H134	H	-0.148050	1.173488	-0.173006
O135	O	-1.445926	0.700604	-1.086134
O136	O	-0.945926	1.200604	-0.586134
H137	H	-1.425566	0.769355	-1.070836
H138	H	-0.925566	1.269355	-0.570836
O139	O	-0.831431	0.700905	-0.700346
O140	O	-0.331431	1.200905	-0.200346
H141	H	-0.782849	0.740551	-0.739896
H142	H	-0.282849	1.240551	-0.239896
H143	H	-1.430909	1.025919	-0.414124
H144	H	-0.930909	1.525919	0.085876
H145	H	-1.223602	1.196867	-0.621221
H146	H	-0.723602	1.696867	-0.121221
H147	H	-1.176651	1.055537	-0.667971
H148	H	-0.676651	1.555537	-0.167971
O149	O	-1.208558	0.434113	-0.861238
O150	O	-0.708558	0.934113	-0.361238
H151	H	-1.173301	0.394500	-0.905509
H152	H	-0.673301	0.894500	-0.405509
H153	H	-1.176866	0.398428	-1.011134
H154	H	-0.676866	0.898428	-0.511134
O155	O	-1.172496	0.393419	-1.193972
O156	O	-0.672496	0.893419	-0.693972
H157	H	-1.131930	0.347875	-1.140421
H158	H	-0.631930	0.847875	-0.640421
