data_functionalizedCrystal
_audit_creation_method	'MofGen! by Chris Wilmer'
_symmetry_space_group_name_H-M	'P1'
_symmetry_Int_Tables_number	1
_symmetry_cell_setting	triclinic
loop_
_symmetry_equiv_pos_as_xyz
  x,y,z
_cell_length_a	9.065218
_cell_length_b	9.065218
_cell_length_c	18.366186
_cell_angle_alpha	89.996787
_cell_angle_beta	89.990848
_cell_angle_gamma	85.015885
loop_
_atom_site_label
_atom_site_type_symbol
_atom_site_fract_x
_atom_site_fract_y
_atom_site_fract_z
O1	O	-1.960411	-0.216357	0.060548
O2	O	-1.531127	-0.234103	0.060549
O3	O	-1.754642	-0.010587	0.060547
O4	O	-1.736896	-0.439872	0.060550
O5	O	-1.754603	-0.010581	-0.060552
O6	O	-1.531087	-0.234096	-0.060550
O7	O	-1.960372	-0.216350	-0.060551
Zn8	Zn	-1.745723	-0.225222	-0.079778
Zn9	Zn	-1.745775	-0.225231	0.079776
O10	O	-1.736856	-0.439865	-0.060549
C11	C	-1.476120	-0.232394	-0.000001
C12	C	-1.312277	-0.227294	-0.000000
C13	C	-1.752917	0.044403	-0.000001
C14	C	-1.747817	0.208245	0.000002
C15	C	-2.015378	-0.218059	0.000000
C16	C	-2.179221	-0.223158	0.000004
C17	C	-1.738582	-0.494855	0.000001
C18	C	-1.743681	-0.658698	0.000002
N19	N	-1.745699	-0.225215	-0.188669
C20	C	-1.836372	-0.315964	-0.226763
C21	C	-1.836396	-0.315960	-0.302991
C22	C	-1.745720	-0.225224	-0.341122
C23	C	-1.655041	-0.134457	-0.303019
C24	C	-1.655030	-0.134452	-0.226792
C25	C	-1.612642	-0.219299	-0.461902
C26	C	-1.612650	-0.219314	-0.538127
C27	C	-1.745753	-0.225230	-0.576229
C28	C	-1.878852	-0.231162	-0.538097
C29	C	-1.878841	-0.231157	-0.461870
C30	C	-1.745721	-0.225218	-0.423776
C31	C	-1.836460	-0.315979	-0.696978
C32	C	-1.836487	-0.315965	-0.773207
C33	C	-1.655118	-0.134471	-0.773234
C34	C	-1.655105	-0.134476	-0.697006
C35	C	-1.745773	-0.225239	-0.658883
N36	N	-1.745811	-0.225226	0.188667
H37	H	-1.910207	-0.389864	-0.195727
H38	H	-1.504244	-0.214491	-0.430886
H39	H	-1.987236	-0.235986	-0.569118
H40	H	-1.910234	-0.389863	-0.334013
H41	H	-1.581262	-0.060585	-0.665990
H42	H	-1.987215	-0.235983	-0.430826
O43	O	-1.924678	-0.404172	-0.660053
C44	C	-2.104505	-0.584250	-0.668069
C45	C	-2.004697	-0.484420	-0.709975
H46	H	-2.169203	-0.649180	-0.708413
H47	H	-2.185119	-0.512882	-0.632393
H48	H	-2.032992	-0.664674	-0.632370
H49	H	-2.076092	-0.403980	-0.745714
H50	H	-1.924076	-0.555880	-0.745606
O51	O	-1.483239	-0.213508	-0.575053
C52	C	-1.219185	-0.201882	-0.567037
C53	C	-1.365646	-0.208401	-0.525131
H54	H	-1.124070	-0.197782	-0.526694
H55	H	-1.225896	-0.098605	-0.602717
H56	H	-1.199156	-0.304549	-0.602733
H57	H	-1.385765	-0.105808	-0.489395
H58	H	-1.358864	-0.311743	-0.489497
O59	O	-1.566801	-0.046260	-0.189897
C60	C	-1.386982	0.133823	-0.197968
C61	C	-1.486806	0.033996	-0.239843
H62	H	-1.322304	0.198760	-0.238331
H63	H	-1.306352	0.062453	-0.162309
H64	H	-1.458482	0.214242	-0.162253
H65	H	-1.415426	-0.046438	-0.275598
H66	H	-1.567445	0.105459	-0.275456
H67	H	-1.910334	-0.389860	-0.804222
H68	H	-1.581289	-0.060590	-0.804279
H69	H	-1.581213	-0.060578	-0.334070
