data_functionalizedCrystal
_audit_creation_method	'MofGen! by Chris Wilmer'
_symmetry_space_group_name_H-M	'P1'
_symmetry_Int_Tables_number	1
_symmetry_cell_setting	triclinic
loop_
_symmetry_equiv_pos_as_xyz
  x,y,z
_cell_length_a	18.101398
_cell_length_b	21.395361
_cell_length_c	21.395355
_cell_angle_alpha	90.021511
_cell_angle_beta	89.970130
_cell_angle_gamma	89.974026
loop_
_atom_site_label
_atom_site_type_symbol
_atom_site_fract_x
_atom_site_fract_y
_atom_site_fract_z
Zn1	Zn	1.132164	0.249590	-0.354337
Zn2	Zn	1.132048	0.354350	-0.249554
Zn3	Zn	1.008310	0.249582	-0.249564
Zn4	Zn	1.008274	0.354325	-0.354285
O5	O	1.070199	0.301962	-0.301935
O6	O	1.235781	0.263501	-0.340455
O7	O	1.115601	0.340459	-0.161878
O8	O	1.024803	0.161905	-0.263489
O9	O	1.235696	0.340467	-0.263472
O10	O	1.115798	0.161911	-0.340465
O11	O	1.024692	0.263486	-0.161885
O12	O	0.904673	0.263462	-0.263438
O13	O	1.024741	0.340425	-0.441970
O14	O	0.904646	0.340417	-0.340376
O15	O	1.115762	0.263477	-0.442008
O16	O	1.115566	0.442025	-0.263421
O17	O	1.024629	0.442006	-0.340366
C18	C	0.877789	0.301936	-0.301902
C19	C	0.795474	0.301941	-0.301903
C20	C	1.070101	0.464749	-0.301900
C21	C	1.070127	0.534391	-0.301906
C22	C	1.070261	0.301949	-0.465358
C23	C	1.070287	0.301944	-0.535000
C24	C	0.496383	0.301980	-0.301956
C25	C	0.527701	0.253320	-0.253785
C26	C	0.613319	0.253450	-0.253579
C27	C	0.644766	0.301960	-0.301930
C28	C	0.613646	0.367957	-0.283884
C29	C	0.528001	0.367687	-0.283549
C30	C	0.528006	0.285215	-0.368286
C31	C	0.613656	0.283746	-0.367925
C32	C	0.728626	0.301953	-0.301916
C33	C	0.412524	0.301991	-0.301968
C34	C	1.263361	0.301988	-0.301968
C35	C	1.345675	0.301999	-0.301982
C36	C	1.070317	0.138538	-0.301984
C37	C	1.070368	0.068897	-0.302005
C38	C	1.117520	0.567092	-0.261882
C39	C	1.117554	0.632528	-0.261896
C40	C	1.070183	0.665259	-0.301928
C41	C	1.022787	0.632549	-0.341960
C42	C	1.022759	0.567115	-0.341949
C43	C	1.003502	0.768969	-0.306832
C44	C	1.003529	0.834402	-0.306839
C45	C	1.070269	0.867080	-0.301965
C46	C	1.136985	0.834316	-0.297071
C47	C	1.136957	0.768882	-0.297060
C48	C	1.070208	0.736211	-0.301944
C49	C	1.117703	0.970734	-0.261953
C50	C	1.117739	1.036171	-0.261972
C51	C	1.022965	1.036191	-0.342032
C52	C	1.022936	0.970755	-0.342017
C53	C	1.070304	0.938031	-0.301974
C54	C	1.117679	0.261875	-0.567734
C55	C	1.117678	0.261848	-0.633169
C56	C	1.070293	0.301901	-0.665868
C57	C	1.022891	0.341973	-0.633126
C58	C	1.022888	0.341994	-0.567692
C59	C	1.064411	0.358316	-0.769530
C60	C	1.064419	0.358296	-0.834963
C61	C	1.070297	0.301835	-0.867689
C62	C	1.076183	0.245393	-0.834974
C63	C	1.076180	0.245414	-0.769540
C64	C	1.070290	0.301882	-0.736821
C65	C	1.117691	0.261734	-0.971376
C66	C	1.117685	0.261706	-1.036812
C67	C	1.022901	0.341836	-1.036768
C68	C	1.022904	0.341858	-0.971332
C69	C	1.070302	0.301808	-0.938640
C70	C	1.070180	0.301929	-0.139148
C71	C	1.070298	0.301758	-0.069507
H72	H	0.634360	0.204510	-0.264892
H73	H	0.506435	0.237928	-0.384693
H74	H	0.984292	0.374622	-0.541040
H75	H	0.506146	0.264276	-0.204921
N76	N	1.168780	0.218669	-0.532467
H77	H	1.203080	0.244140	-0.505326
H78	H	1.198754	0.193283	-0.563171
N79	N	0.642005	0.327271	-0.418019
H80	H	0.697713	0.325080	-0.419571
H81	H	0.626136	0.371451	-0.408159
H82	H	1.059631	0.404254	-0.861595
H83	H	0.633767	0.264532	-0.204429
N84	N	1.168799	0.218628	-0.668482
H85	H	1.221703	0.228376	-0.657116
H86	H	1.161546	0.224713	-0.714884
N87	N	1.168810	0.218544	-0.936104
H88	H	1.157347	0.173768	-0.947477
H89	H	1.161592	0.224702	-0.889697
H90	H	1.080970	0.199457	-0.742905
H91	H	0.984311	0.374441	-1.063390
H92	H	0.634002	0.235179	-0.381532
H93	H	0.507984	0.381906	-0.235058
N94	N	0.501185	0.332160	-0.415833
H95	H	0.468710	0.364134	-0.394546
H96	H	0.471945	0.309906	-0.449303
N97	N	1.168855	1.071443	-0.218796
H98	H	1.161689	1.117862	-0.224880
H99	H	1.221736	1.059962	-0.228586
H100	H	0.507131	0.204230	-0.264973
H101	H	1.156277	0.229073	-1.063464
H102	H	0.635056	0.382423	-0.235916
N103	N	0.640615	0.417258	-0.328918
H104	H	0.696362	0.418919	-0.327908
H105	H	0.619884	0.459275	-0.316411
N106	N	1.208975	0.869552	-0.291810
H107	H	1.215914	0.896672	-0.329991
H108	H	1.251186	0.838827	-0.288687
N109	N	0.931511	0.733730	-0.312080
H110	H	0.941615	0.687307	-0.311330
H111	H	0.906319	0.745160	-0.352605
N112	N	0.971690	0.667844	-0.385138
H113	H	1.001779	0.694959	-0.414202
H114	H	0.937405	0.694991	-0.359606
N115	N	1.208911	0.733545	-0.291799
H116	H	1.198763	0.687135	-0.292535
H117	H	1.234115	0.744981	-0.251278
H118	H	1.156275	0.944089	-0.229350
N119	N	1.168618	0.531797	-0.218704
H120	H	1.198650	0.562447	-0.193354
H121	H	1.202862	0.504616	-0.244240
H122	H	1.059426	0.404281	-0.742891
N123	N	0.971876	1.071484	-0.385215
H124	H	0.979086	1.117899	-0.379151
H125	H	0.918985	1.060090	-0.375418
H126	H	0.984306	0.374582	-0.659754
N127	N	1.168673	0.667810	-0.218727
H128	H	1.198677	0.637150	-0.193359
H129	H	1.138550	0.694994	-0.189713
N130	N	0.971814	0.935479	-0.385182
H131	H	0.941807	0.966141	-0.410544
H132	H	0.937547	0.908369	-0.359641
H133	H	0.984166	0.540489	-0.374542
H134	H	0.949205	0.861074	-0.310817
H135	H	0.984316	0.374490	-0.944680
N136	N	0.500550	0.417333	-0.327995
H137	H	0.544087	0.439298	-0.347715
H138	H	0.469586	0.448658	-0.304274
N139	N	1.082530	0.184490	-0.870260
H140	H	1.081636	0.193038	-0.916676
H141	H	1.039726	0.156475	-0.858804
