data_functionalizedCrystal
_audit_creation_method	'MofGen! by Chris Wilmer'
_symmetry_space_group_name_H-M	'P1'
_symmetry_Int_Tables_number	1
_symmetry_cell_setting	triclinic
loop_
_symmetry_equiv_pos_as_xyz
  x,y,z
_cell_length_a	19.121063
_cell_length_b	12.594517
_cell_length_c	12.594510
_cell_angle_alpha	90.021120
_cell_angle_beta	92.399685
_cell_angle_gamma	87.531195
loop_
_atom_site_label
_atom_site_type_symbol
_atom_site_fract_x
_atom_site_fract_y
_atom_site_fract_z
Zn1	Zn	-0.279552	-1.609107	-0.619878
Zn2	Zn	-0.397027	-1.601368	-0.449471
Zn3	Zn	-0.279595	-1.431108	-0.441909
Zn4	Zn	-0.396966	-1.423466	-0.627397
O5	O	-0.338285	-1.516262	-0.534664
O6	O	-0.295143	-1.757025	-0.597291
O7	O	-0.381493	-1.578742	-0.299525
O8	O	-0.181305	-1.461157	-0.459206
O9	O	-0.381452	-1.751340	-0.472093
O10	O	-0.181274	-1.591932	-0.589959
O11	O	-0.295216	-1.453653	-0.293969
O12	O	-0.295156	-1.281149	-0.466497
O13	O	-0.381347	-1.448132	-0.775343
O14	O	-0.381388	-1.275535	-0.602774
O15	O	-0.295084	-1.584522	-0.769818
O16	O	-0.495303	-1.571332	-0.479384
O17	O	-0.495258	-1.440628	-0.610106
C18	C	-0.338271	-1.239722	-0.534631
C19	C	-0.338282	-1.121416	-0.534644
C20	C	-0.520764	-1.504340	-0.546405
C21	C	-0.598830	-1.499337	-0.551463
C22	C	-0.338204	-1.516338	-0.812280
C23	C	-0.338169	-1.516370	-0.930583
C24	C	-0.635505	-1.565089	-0.485836
C25	C	-0.708856	-1.560390	-0.490600
C26	C	-0.745530	-1.489932	-0.560986
C27	C	-0.708849	-1.424177	-0.626620
C28	C	-0.635500	-1.428882	-0.621861
C29	C	-0.966998	-1.472323	-0.578762
C30	C	-1.040352	-1.467621	-0.583514
C31	C	-1.040354	-1.603836	-0.447495
C32	C	-0.967003	-1.608530	-0.442738
C33	C	-0.930329	-1.542779	-0.508376
C34	C	-0.820506	-1.485125	-0.565854
C35	C	-0.855354	-1.547592	-0.503512
C36	C	-0.155093	-1.528260	-0.522900
C37	C	-0.077028	-1.533373	-0.517887
C38	C	-0.338300	-1.793882	-0.534697
C39	C	-0.338306	-1.912187	-0.534711
C40	C	-0.291316	-1.055190	-0.460654
C41	C	-0.355383	-0.980218	-0.438604
C42	C	-0.274246	-0.985587	-0.556715
C43	C	-0.402382	-1.048000	-0.512545
C44	C	-0.321202	-1.053378	-0.630698
C45	C	-0.385313	-0.978435	-0.608687
C46	C	-0.291247	-1.590574	-0.996831
C47	C	-0.274056	-1.494614	-1.066514
C48	C	-0.355312	-1.612389	-1.071696
C49	C	-0.320945	-1.420361	-0.998705
C50	C	-0.402230	-1.538200	-1.003883
C51	C	-0.385063	-1.442172	-1.073535
C52	C	-0.338315	-1.516252	-0.258125
C53	C	-0.338152	-1.516438	-0.139809
H54	H	-0.605650	-1.622459	-0.428516
H55	H	-0.251544	-1.653221	-0.963244
C56	C	-0.201076	-0.948364	-0.581908
C57	C	-0.160642	-0.879429	-0.501391
C58	C	-0.087471	-0.842209	-0.526573
C59	C	-0.054734	-0.873923	-0.632273
C60	C	-0.095169	-0.942862	-0.712796
C61	C	-0.168340	-0.980082	-0.687614
H62	H	-0.184875	-0.855948	-0.423140
H63	H	-0.057539	-0.791176	-0.466964
H64	H	-0.000569	-0.846371	-0.650914
H65	H	-0.070936	-0.966342	-0.791048
H66	H	-0.198272	-1.031115	-0.747223
H67	H	-0.425087	-0.945026	-0.671289
H68	H	-0.251638	-1.088788	-0.398013
C69	C	-1.080691	-1.390120	-0.660957
C70	C	-1.131045	-1.432979	-0.747821
C71	C	-1.171383	-1.355484	-0.825261
C72	C	-1.161367	-1.235130	-0.815836
C73	C	-1.111010	-1.192265	-0.728968
C74	C	-1.070673	-1.269760	-0.651528
H75	H	-1.138462	-1.522078	-0.754801
H76	H	-1.208660	-1.387216	-0.889566
H77	H	-1.191227	-1.177764	-0.873162
H78	H	-1.103594	-1.103167	-0.721988
H79	H	-1.033396	-1.238028	-0.587223
C80	C	-0.200862	-1.469697	-1.103873
C81	C	-0.137120	-1.543419	-1.071905
C82	C	-0.063926	-1.518511	-1.109260
C83	C	-0.054472	-1.419880	-1.178582
C84	C	-0.118216	-1.346151	-1.210554
C85	C	-0.191411	-1.371060	-1.173200
H86	H	-0.144116	-1.616437	-1.020585
H87	H	-0.016738	-1.573090	-1.085591
H88	H	-0.000289	-1.401441	-1.206235
H89	H	-0.111220	-1.273133	-1.261875
H90	H	-0.238598	-1.316481	-1.196868
H91	H	-0.306721	-1.085503	-0.711874
H92	H	-0.369845	-0.948120	-0.357402
C93	C	-0.301253	-1.310676	-0.955624
C94	C	-0.297591	-1.290386	-0.834977
C95	C	-0.277894	-1.180707	-0.791893
C96	C	-0.261859	-1.091316	-0.869456
C97	C	-0.265521	-1.111603	-0.990111
C98	C	-0.285217	-1.221283	-1.033194
H99	H	-0.309461	-1.356561	-0.777554
H100	H	-0.275184	-1.165689	-0.702577
H101	H	-0.247279	-1.010125	-0.837563
H102	H	-0.253650	-1.045429	-1.047534
H103	H	-0.287928	-1.236300	-1.122511
C104	C	-0.438657	-1.357351	-1.118654
C105	C	-0.430740	-1.239495	-1.089938
C106	C	-0.484329	-1.154672	-1.135060
C107	C	-0.545837	-1.187705	-1.208899
C108	C	-0.553757	-1.305567	-1.237619
C109	C	-0.500168	-1.390390	-1.192497
H110	H	-0.385206	-1.215036	-1.035274
H111	H	-0.478466	-1.067422	-1.113799
H112	H	-0.585507	-1.124914	-1.242301
H113	H	-0.599291	-1.330026	-1.292283
H114	H	-0.506031	-1.477640	-1.213758
H115	H	-0.738714	-1.613932	-0.437159
H116	H	-0.456563	-1.075422	-0.493815
H117	H	-0.605639	-1.375341	-0.675302
C118	C	-0.475405	-1.563151	-0.966490
C119	C	-0.507638	-1.669618	-0.996426
C120	C	-0.580813	-1.694584	-0.959030
C121	C	-0.621756	-1.613082	-0.891698
C122	C	-0.589524	-1.506607	-0.861759
C123	C	-0.516348	-1.481642	-0.899154
H124	H	-0.477329	-1.729957	-1.046272
H125	H	-0.604673	-1.773403	-0.981194
H126	H	-0.675924	-1.631562	-0.864016
H127	H	-0.619832	-1.446268	-0.811912
H128	H	-0.492488	-1.402822	-0.876991
H129	H	-0.369817	-1.693563	-1.103723
C130	C	-0.926669	-1.686041	-0.365311
C131	C	-0.936836	-1.676770	-0.244964
C132	C	-0.896505	-1.754279	-0.167532
C133	C	-0.846006	-1.841060	-0.210446
C134	C	-0.835837	-1.850335	-0.330799
C135	C	-0.876169	-1.772826	-0.408232
H136	H	-0.974220	-1.612526	-0.213191
H137	H	-0.904033	-1.747413	-0.078439
H138	H	-0.816151	-1.898437	-0.153126
H139	H	-0.798453	-1.914579	-0.362572
H140	H	-0.868640	-1.779693	-0.497325
C141	C	-1.080696	-1.676168	-0.375306
C142	C	-1.161378	-1.671003	-0.380536
C143	C	-1.201719	-1.743342	-0.308347
C144	C	-1.161380	-1.820846	-0.230927
C145	C	-1.080694	-1.826014	-0.225693
C146	C	-1.040352	-1.753675	-0.297882
H147	H	-1.191243	-1.613627	-0.437850
H148	H	-1.261449	-1.739516	-0.312221
H149	H	-1.191243	-1.874395	-0.177488
H150	H	-1.050828	-1.883389	-0.168379
H151	H	-0.980623	-1.757501	-0.294008
H152	H	-0.738715	-1.366813	-0.683934
C153	C	-0.926667	-1.399994	-0.650965
C154	C	-0.936824	-1.278348	-0.642832
C155	C	-0.896492	-1.206016	-0.715042
C156	C	-0.846003	-1.255331	-0.795386
C157	C	-0.835843	-1.376984	-0.803522
C158	C	-0.876175	-1.449315	-0.731312
H159	H	-0.974202	-1.241837	-0.583353
H160	H	-0.904013	-1.115961	-0.709018
H161	H	-0.816146	-1.201787	-0.848840
H162	H	-0.798465	-1.413495	-0.863001
H163	H	-0.868654	-1.539371	-0.737336
H164	H	-0.850374	-1.427756	-0.623161
C165	C	-0.815015	-1.625093	-0.426088
C166	C	-0.825168	-1.615817	-0.305738
C167	C	-0.784821	-1.693314	-0.228310
C168	C	-0.734321	-1.780087	-0.271233
C169	C	-0.724165	-1.789368	-0.391589
C170	C	-0.764512	-1.711870	-0.469016
H171	H	-0.862554	-1.551578	-0.273959
H172	H	-0.792339	-1.686443	-0.139215
H173	H	-0.704453	-1.837455	-0.213916
H174	H	-0.686779	-1.853606	-0.423368
H175	H	-0.756994	-1.718741	-0.558112
