data_functionalizedCrystal
_audit_creation_method	'MofGen! by Chris Wilmer'
_symmetry_space_group_name_H-M	'P1'
_symmetry_Int_Tables_number	1
_symmetry_cell_setting	triclinic
loop_
_symmetry_equiv_pos_as_xyz
  x,y,z
_cell_length_a	13.033293
_cell_length_b	13.897447
_cell_length_c	13.032268
_cell_angle_alpha	97.149071
_cell_angle_beta	89.079182
_cell_angle_gamma	97.189355
loop_
_atom_site_label
_atom_site_type_symbol
_atom_site_fract_x
_atom_site_fract_y
_atom_site_fract_z
Zn1	Zn	1.498451	-0.300099	-0.781486
Zn2	Zn	1.998451	0.199901	-0.281486
Zn3	Zn	1.520188	-0.438718	-0.609515
Zn4	Zn	2.020188	0.061282	-0.109515
Zn5	Zn	1.348311	-0.295006	-0.587662
Zn6	Zn	1.848311	0.204994	-0.087662
Zn7	Zn	1.326438	-0.478928	-0.759555
Zn8	Zn	1.826438	0.021072	-0.259555
O9	O	1.423347	-0.378188	-0.684554
O10	O	1.923347	0.121812	-0.184554
O11	O	1.645254	-0.303791	-0.776997
O12	O	2.145254	0.196209	-0.276997
O13	O	1.515640	-0.400694	-0.462707
O14	O	2.015640	0.099306	0.037293
O15	O	1.368285	-0.160697	-0.613405
O16	O	1.868285	0.339303	-0.113405
O17	O	1.661224	-0.405633	-0.650651
O18	O	2.161224	0.094367	-0.150651
O19	O	1.478591	-0.164439	-0.755807
O20	O	1.978591	0.335561	-0.255807
O21	O	1.389363	-0.295109	-0.446652
O22	O	1.889363	0.204891	0.053348
O23	O	1.201490	-0.334100	-0.592140
O24	O	1.701490	0.165900	-0.092140
O25	O	1.331004	-0.474167	-0.906373
O26	O	1.831004	0.025833	-0.406373
O27	O	1.185420	-0.469227	-0.718429
O28	O	1.685420	0.030773	-0.218429
O29	O	1.457382	-0.342782	-0.922486
O30	O	1.957382	0.157218	-0.422486
O31	O	1.494430	-0.579036	-0.629385
O32	O	1.994430	-0.079036	-0.129385
O33	O	1.352082	-0.608579	-0.739619
O34	O	1.852082	-0.108579	-0.239619
C35	C	1.156139	-0.405475	-0.650534
C36	C	1.656139	0.094525	-0.150534
C37	C	1.041822	-0.417175	-0.636005
C38	C	1.541822	0.082825	-0.136005
C39	C	0.982942	-0.372106	-0.692137
C40	C	1.482942	0.127894	-0.192137
C41	C	0.864790	-0.384197	-0.677122
C42	C	1.364790	0.115803	-0.177122
C43	C	1.423267	-0.628808	-0.684520
C44	C	1.923267	-0.128808	-0.184520
C45	C	1.423322	-0.736019	-0.684552
C46	C	1.923322	-0.236019	-0.184552
C47	C	1.423368	-0.823086	-0.684581
C48	C	1.923368	-0.323086	-0.184581
C49	C	1.423437	-0.932315	-0.684617
C50	C	1.923437	-0.432315	-0.184617
C51	C	1.691599	-0.350795	-0.718708
C52	C	2.191599	0.149205	-0.218708
C53	C	1.805912	-0.339121	-0.733262
C54	C	2.305912	0.160879	-0.233262
C55	C	1.389328	-0.413528	-0.952787
C56	C	1.889328	0.086472	-0.452787
C57	C	1.374831	-0.428587	-1.067091
C58	C	1.874831	0.071413	-0.567091
C59	C	1.423453	-0.126590	-0.684615
C60	C	1.923453	0.373410	-0.184615
C61	C	1.423498	-0.019373	-0.684641
C62	C	1.923498	0.480627	-0.184641
C63	C	1.430897	-0.370295	-1.126024
C64	C	1.930897	0.129705	-0.626024
C65	C	1.415915	-0.385859	-1.244164
C66	C	1.915915	0.114141	-0.744164
C67	C	1.457293	-0.342910	-0.417373
C68	C	1.957293	0.157090	0.082627
C69	C	1.471989	-0.327558	-0.303095
C70	C	1.971989	0.172442	0.196905
H71	H	0.827733	-0.431735	-0.617942
H72	H	1.327733	0.068265	-0.117942
H73	H	1.531079	-0.266120	-1.266092
H74	H	2.031079	0.233880	-0.766092
H75	H	1.315733	-0.490010	-1.104098
H76	H	1.815733	0.009990	-0.604098
C77	C	0.855968	-0.274896	-0.813212
C78	C	1.355968	0.225104	-0.313212
N79	N	0.893672	-0.226525	-0.873431
N80	N	1.393672	0.273475	-0.373431
C81	C	1.033006	-0.307879	-0.772077
C82	C	1.533006	0.192121	-0.272077
N83	N	1.070713	-0.259502	-0.832290
N84	N	1.570713	0.240498	-0.332290
C85	C	1.510726	-0.287303	-1.076033
C86	C	2.010726	0.212697	-0.576033
N87	N	1.570856	-0.224791	-1.038381
N88	N	2.070856	0.275209	-0.538381
H89	H	1.004761	-0.464710	-0.576829
H90	H	1.504761	0.035290	-0.076829
C91	C	1.336075	-0.468849	-1.294149
C92	C	1.836075	0.031151	-0.794149
N93	N	1.275941	-0.531356	-1.331801
N94	N	1.775941	-0.031356	-0.831801
