data_functionalizedCrystal
_audit_creation_method	'MofGen! by Chris Wilmer'
_symmetry_space_group_name_H-M	'P1'
_symmetry_Int_Tables_number	1
_symmetry_cell_setting	triclinic
loop_
_symmetry_equiv_pos_as_xyz
  x,y,z
_cell_length_a	17.077402
_cell_length_b	17.077404
_cell_length_c	17.077395
_cell_angle_alpha	90.017597
_cell_angle_beta	90.029271
_cell_angle_gamma	90.031633
loop_
_atom_site_label
_atom_site_type_symbol
_atom_site_fract_x
_atom_site_fract_y
_atom_site_fract_z
Zn1	Zn	0.312537	-1.199972	-0.443872
Zn2	Zn	0.443809	-1.199866	-0.312602
Zn3	Zn	0.312559	-1.068713	-0.312616
Zn4	Zn	0.443762	-1.068650	-0.443821
O5	O	0.378167	-1.134300	-0.378228
O6	O	0.329960	-1.309805	-0.426475
O7	O	0.426427	-1.182450	-0.202757
O8	O	0.202709	-1.086195	-0.330055
O9	O	0.426405	-1.309727	-0.330031
O10	O	0.202693	-1.182631	-0.426489
O11	O	0.329998	-1.086092	-0.202767
O12	O	0.329953	-0.958858	-0.330005
O13	O	0.426326	-1.086088	-0.553675
O14	O	0.426348	-0.958811	-0.426401
O15	O	0.329915	-1.182570	-0.553713
O16	O	0.553649	-1.182389	-0.329981
O17	O	0.553615	-1.085985	-0.426387
C18	C	0.378148	-0.930352	-0.378199
C19	C	0.378160	-0.843103	-0.378205
C20	C	0.582115	-1.134190	-0.378194
C21	C	0.669364	-1.134215	-0.378205
C22	C	0.428427	-0.802109	-0.428317
C23	C	0.428427	-0.720128	-0.428327
C24	C	0.378163	-0.679143	-0.378220
C25	C	0.327890	-0.720143	-0.328107
C26	C	0.327886	-0.802122	-0.328102
C27	C	0.327902	-0.549273	-0.328120
C28	C	0.327906	-0.467288	-0.328124
C29	C	0.428443	-0.467279	-0.428345
C30	C	0.428439	-0.549258	-0.428340
C31	C	0.378167	-0.590252	-0.378225
C32	C	1.045107	-1.184515	-0.428515
C33	C	0.963126	-1.184491	-0.428499
C34	C	0.922213	-1.134307	-0.378245
C35	C	0.963285	-1.084150	-0.328000
C36	C	1.045264	-1.084179	-0.328013
C37	C	0.792415	-1.084091	-0.327978
C38	C	0.710430	-1.084060	-0.327965
C39	C	0.710277	-1.184402	-0.428463
C40	C	0.792256	-1.184431	-0.428476
C41	C	0.833322	-1.134274	-0.378231
C42	C	1.173422	-1.134400	-0.378273
C43	C	1.086173	-1.134361	-0.378275
C44	C	0.378113	-1.134334	-0.582972
C45	C	0.378091	-1.134348	-0.670222
C46	C	0.378181	-0.339044	-0.378248
C47	C	0.378174	-0.426294	-0.378235
C48	C	0.327783	-1.184673	-1.046058
C49	C	0.327810	-1.184657	-0.964077
C50	C	0.378016	-1.134413	-0.923071
C51	C	0.428204	-1.084187	-0.964050
C52	C	0.428180	-1.084207	-1.046029
C53	C	0.428249	-1.084146	-0.793180
C54	C	0.428272	-1.084124	-0.711195
C55	C	0.327880	-1.184596	-0.711228
C56	C	0.327856	-1.184617	-0.793207
C57	C	0.378042	-1.134389	-0.834180
C58	C	0.378163	-1.134312	-0.174280
C59	C	0.377965	-1.134450	-0.087031
H60	H	0.469361	-0.835473	-0.469117
C61	C	0.272679	-1.239852	-0.666156
N62	N	0.231102	-1.281468	-0.632204
C63	C	1.090103	-1.239724	-0.483797
N64	N	1.123993	-1.281311	-0.525435
H65	H	0.929691	-1.225331	-0.469407
H66	H	0.469086	-1.043280	-0.930656
C67	C	0.272597	-0.675056	-0.272992
N68	N	0.230950	-0.641097	-0.231476
H69	H	0.469361	-0.686755	-0.469132
H70	H	0.469373	-0.582626	-0.469136
C71	C	1.090436	-1.029004	-0.272746
N72	N	1.124459	-0.987445	-0.231117
H73	H	0.469374	-0.433898	-0.469152
H74	H	0.929969	-1.043292	-0.287079
H75	H	0.677123	-1.043196	-0.287043
H76	H	0.469136	-1.043193	-0.677810
H77	H	0.469119	-1.043248	-0.826537
C78	C	0.483382	-1.028955	-1.091099
N79	N	0.524963	-0.987339	-1.125044
H80	H	0.286967	-0.433920	-0.287332
C81	C	0.837586	-1.028912	-0.272707
N82	N	0.871608	-0.987349	-0.231082
C83	C	0.272590	-0.847214	-0.272974
N84	N	0.230937	-0.881177	-0.231451
C85	C	0.837259	-1.239640	-0.483754
N86	N	0.871155	-1.281228	-0.525385
C87	C	0.665103	-1.239579	-0.483730
N88	N	0.631074	-1.281136	-0.525357
H89	H	0.286894	-1.225583	-1.079439
C90	C	0.272599	-1.239901	-0.919011
N91	N	0.231010	-1.281511	-0.885067
H92	H	0.286958	-0.582647	-0.287318
H93	H	0.286970	-1.225527	-0.826592
