data_functionalizedCrystal
_audit_creation_method	'MofGen! by Chris Wilmer'
_symmetry_space_group_name_H-M	'P1'
_symmetry_Int_Tables_number	1
_symmetry_cell_setting	triclinic
loop_
_symmetry_equiv_pos_as_xyz
  x,y,z
_cell_length_a	18.215407
_cell_length_b	19.121063
_cell_length_c	18.215399
_cell_angle_alpha	87.590157
_cell_angle_beta	90.016899
_cell_angle_gamma	92.466335
loop_
_atom_site_label
_atom_site_type_symbol
_atom_site_fract_x
_atom_site_fract_y
_atom_site_fract_z
Zn1	Zn	1.112557	-0.279668	0.428541
Zn2	Zn	1.362557	-0.029668	0.678541
Zn3	Zn	1.612557	0.220332	0.928541
Zn4	Zn	1.862557	0.470332	1.178541
Zn5	Zn	1.107209	-0.397123	0.310718
Zn6	Zn	1.357209	-0.147123	0.560718
Zn7	Zn	1.607209	0.102877	0.810718
Zn8	Zn	1.857209	0.352877	1.060718
Zn9	Zn	0.989489	-0.279685	0.305496
Zn10	Zn	1.239489	-0.029685	0.555496
Zn11	Zn	1.489489	0.220315	0.805496
Zn12	Zn	1.739489	0.470315	1.055496
Zn13	Zn	0.984201	-0.397078	0.433747
Zn14	Zn	1.234201	-0.147078	0.683747
Zn15	Zn	1.484201	0.102922	0.933747
Zn16	Zn	1.734201	0.352922	1.183747
O17	O	1.048364	-0.338389	0.369626
O18	O	1.298364	-0.088389	0.619626
O19	O	1.548364	0.161611	0.869626
O20	O	1.798364	0.411611	1.119626
O21	O	1.214831	-0.295261	0.412919
O22	O	1.464831	-0.045261	0.662919
O23	O	1.714831	0.204739	0.912919
O24	O	1.964831	0.454739	1.162919
O25	O	1.091568	-0.381571	0.207042
O26	O	1.341568	-0.131571	0.457042
O27	O	1.591568	0.118429	0.707042
O28	O	1.841568	0.368429	0.957042
O29	O	1.010265	-0.181399	0.317454
O30	O	1.260265	0.068601	0.567454
O31	O	1.510265	0.318601	0.817454
O32	O	1.760265	0.568601	1.067454
O33	O	1.210902	-0.381554	0.326354
O34	O	1.460902	-0.131554	0.576354
O35	O	1.710902	0.118446	0.826354
O36	O	1.960902	0.368446	1.076354
O37	O	1.100682	-0.181386	0.407855
O38	O	1.350682	0.068614	0.657855
O39	O	1.600682	0.318614	0.907855
O40	O	1.850682	0.568614	1.157855
O41	O	1.005079	-0.295290	0.203205
O42	O	1.255079	-0.045290	0.453205
O43	O	1.505079	0.204710	0.703205
O44	O	1.755079	0.454710	0.953205
O45	O	0.885803	-0.295246	0.322502
O46	O	1.135803	-0.045246	0.572502
O47	O	1.385803	0.204754	0.822502
O48	O	1.635803	0.454754	1.072502
O49	O	1.001253	-0.381477	0.536040
O50	O	1.251253	-0.131477	0.786040
O51	O	1.501253	0.118523	1.036040
O52	O	1.751253	0.368523	1.286040
O53	O	0.881919	-0.381494	0.416727
O54	O	1.131919	-0.131494	0.666727
O55	O	1.381919	0.118506	0.916727
O56	O	1.631919	0.368506	1.166727
O57	O	1.095555	-0.295217	0.532215
O58	O	1.345555	-0.045217	0.782215
O59	O	1.595555	0.204783	1.032215
O60	O	1.845555	0.454783	1.282215
O61	O	1.086441	-0.495402	0.331402
O62	O	1.336441	-0.245402	0.581402
O63	O	1.586441	0.004598	0.831402
O64	O	1.836441	0.254598	1.081402
O65	O	0.996067	-0.495368	0.421791
O66	O	1.246067	-0.245368	0.671791
O67	O	1.496067	0.004632	0.921791
O68	O	1.746067	0.254632	1.171791
C69	C	0.857159	-0.338367	0.369613
C70	C	1.107159	-0.088367	0.619613
C71	C	1.357159	0.161633	0.869613
C72	C	1.607159	0.411633	1.119613
C73	C	0.775359	-0.338375	0.369626
C74	C	1.025359	-0.088375	0.619626
C75	C	1.275359	0.161625	0.869626
C76	C	1.525359	0.411625	1.119626
C77	C	0.508294	-0.383372	0.418628
C78	C	0.758294	-0.133372	0.668628
C79	C	1.008294	0.116628	0.918628
C80	C	1.258294	0.366628	1.168628
C81	C	0.585153	-0.383366	0.418624
C82	C	0.835153	-0.133366	0.668624
C83	C	1.085153	0.116634	0.918624
C84	C	1.335153	0.366634	1.168624
C85	C	0.589174	-0.293421	0.320637
C86	C	0.839174	-0.043421	0.570637
C87	C	1.089174	0.206579	0.820637
C88	C	1.339174	0.456579	1.070637
C89	C	0.512316	-0.293431	0.320638
C90	C	0.762316	-0.043431	0.570638
C91	C	1.012316	0.206569	0.820638
C92	C	1.262316	0.456569	1.070638
C93	C	0.471878	-0.338406	0.369637
C94	C	0.721878	-0.088406	0.619637
C95	C	0.971878	0.161594	0.869637
C96	C	1.221878	0.411594	1.119637
C97	C	0.625595	-0.338390	0.369633
C98	C	0.875595	-0.088390	0.619633
C99	C	1.125595	0.161610	0.869633
C100	C	1.375595	0.411610	1.119633
C101	C	0.708929	-0.338383	0.369628
C102	C	0.958929	-0.088383	0.619628
C103	C	1.208929	0.161617	0.869628
C104	C	1.458929	0.411617	1.119628
C105	C	0.388539	-0.338414	0.369641
C106	C	0.638539	-0.088414	0.619641
C107	C	0.888539	0.161586	0.869641
C108	C	1.138539	0.411586	1.119641
C109	C	1.040120	-0.520869	0.377744
C110	C	1.290120	-0.270869	0.627744
C111	C	1.540120	-0.020869	0.877744
C112	C	1.790120	0.229131	1.127744
C113	C	1.036661	-0.598935	0.381242
C114	C	1.286661	-0.348935	0.631242
C115	C	1.536661	-0.098935	0.881242
C116	C	1.786661	0.151065	1.131242
C117	C	1.082125	-0.635604	0.335863
C118	C	1.332125	-0.385604	0.585863
C119	C	1.582125	-0.135604	0.835863
C120	C	1.832125	0.114396	1.085863
C121	C	1.078876	-0.708956	0.339157
C122	C	1.328876	-0.458956	0.589157
C123	C	1.578876	-0.208956	0.839157
C124	C	1.828876	0.041044	1.089157
C125	C	1.030158	-0.745636	0.387826
C126	C	1.280158	-0.495636	0.637826
C127	C	1.530158	-0.245636	0.887826
C128	C	1.780158	0.004364	1.137826
C129	C	0.984692	-0.708961	0.433210
C130	C	1.234692	-0.458961	0.683210
C131	C	1.484692	-0.208961	0.933210
C132	C	1.734692	0.041039	1.183210
C133	C	0.987946	-0.635611	0.429919
C134	C	1.237946	-0.385611	0.679919
C135	C	1.487946	-0.135611	0.929919
C136	C	1.737946	0.114389	1.179919
C137	C	1.017983	-0.967105	0.400118
C138	C	1.267983	-0.717105	0.650118
C139	C	1.517983	-0.467105	0.900118
C140	C	1.767983	-0.217105	1.150118
C141	C	1.014731	-1.040460	0.403404
C142	C	1.264731	-0.790460	0.653404
C143	C	1.514731	-0.540460	0.903404
C144	C	1.764731	-0.290460	1.153404
C145	C	1.108916	-1.040450	0.309352
C146	C	1.358916	-0.790450	0.559352
C147	C	1.608916	-0.540450	0.809352
C148	C	1.858916	-0.290450	1.059352
C149	C	1.112162	-0.967098	0.306062
C150	C	1.362162	-0.717098	0.556062
C151	C	1.612162	-0.467098	0.806062
C152	C	1.862162	-0.217098	1.056062
C153	C	1.066699	-0.930430	0.351448
C154	C	1.316699	-0.680430	0.601448
C155	C	1.566699	-0.430430	0.851448
C156	C	1.816699	-0.180430	1.101448
C157	C	1.026834	-0.820613	0.391193
C158	C	1.276834	-0.570613	0.641193
C159	C	1.526834	-0.320613	0.891193
C160	C	1.776834	-0.070613	1.141193
C161	C	1.070027	-0.855455	0.348085
C162	C	1.320027	-0.605455	0.598085
C163	C	1.570027	-0.355455	0.848085
C164	C	1.820027	-0.105455	1.098085
C165	C	1.240316	-0.338411	0.369638
C166	C	1.490316	-0.088411	0.619638
C167	C	1.740316	0.161589	0.869638
C168	C	1.990316	0.411589	1.119638
C169	C	1.322114	-0.338420	0.369644
C170	C	1.572114	-0.088420	0.619644
C171	C	1.822114	0.161580	0.869644
C172	C	2.072114	0.411580	1.119644
C173	C	1.048411	-0.338340	0.561576
C174	C	1.298411	-0.088340	0.811576
C175	C	1.548411	0.161660	1.061576
C176	C	1.798411	0.411660	1.311576
C177	C	1.048431	-0.338320	0.643374
C178	C	1.298431	-0.088320	0.893374
C179	C	1.548431	0.161680	1.143374
C180	C	1.798431	0.411680	1.393374
C181	C	1.056660	-0.155196	0.361492
C182	C	1.306660	0.094804	0.611492
C183	C	1.556660	0.344804	0.861492
C184	C	1.806660	0.594804	1.111492
C185	C	1.060195	-0.077130	0.358025
C186	C	1.310195	0.172870	0.608025
C187	C	1.560195	0.422870	0.858025
C188	C	1.810195	0.672870	1.108025
C189	C	1.048362	-0.338386	0.178419
C190	C	1.298362	-0.088386	0.428419
C191	C	1.548362	0.161614	0.678419
C192	C	1.798362	0.411614	0.928419
C193	C	1.048493	-0.338209	0.096613
C194	C	1.298493	-0.088209	0.346613
C195	C	1.548493	0.161791	0.596613
C196	C	1.798493	0.411791	0.846613
C197	C	1.097553	-0.293362	0.829576
C198	C	1.347553	-0.043362	1.079576
C199	C	1.597553	0.206638	1.329576
C200	C	1.847553	0.456638	1.579576
C201	C	1.097563	-0.293341	0.906434
C202	C	1.347563	-0.043341	1.156434
C203	C	1.597563	0.206659	1.406434
C204	C	1.847563	0.456659	1.656434
C205	C	0.999366	-0.383169	0.910406
C206	C	1.249366	-0.133169	1.160406
C207	C	1.499366	0.116831	1.410406
C208	C	1.749366	0.366831	1.660406
C209	C	0.999353	-0.383185	0.833549
C210	C	1.249353	-0.133185	1.083549
C211	C	1.499353	0.116815	1.333549
C212	C	1.749353	0.366815	1.583549
C213	C	1.048451	-0.338283	0.793136
C214	C	1.298451	-0.088283	1.043136
C215	C	1.548451	0.161717	1.293136
C216	C	1.798451	0.411717	1.543136
C217	C	1.048473	-0.338246	0.946851
C218	C	1.298473	-0.088246	1.196851
C219	C	1.548473	0.161754	1.446851
C220	C	1.798473	0.411754	1.696851
C221	C	1.048483	-0.338224	1.030184
C222	C	1.298483	-0.088224	1.280184
C223	C	1.548483	0.161776	1.530184
C224	C	1.798483	0.411776	1.780184
C225	C	1.048440	-0.338304	0.709798
C226	C	1.298440	-0.088304	0.959798
C227	C	1.548440	0.161696	1.209798
C228	C	1.798440	0.411696	1.459798
H229	H	0.614800	-0.419982	0.458516
H230	H	0.864800	-0.169982	0.708516
H231	H	1.114800	0.080018	0.958516
H232	H	1.364800	0.330018	1.208516
F233	F	1.149805	-0.245571	0.786569
F234	F	1.399805	0.004429	1.036569
F235	F	1.649805	0.254429	1.286569
F236	F	1.899805	0.504429	1.536569
F237	F	1.133972	-0.596573	0.284058
F238	F	1.383972	-0.346573	0.534058
F239	F	1.633972	-0.096573	0.784058
F240	F	1.883972	0.153427	1.034058
F241	F	0.465260	-0.431239	0.470775
F242	F	0.715260	-0.181239	0.720775
F243	F	0.965260	0.068761	0.970775
F244	F	1.215260	0.318761	1.220775
F245	F	0.947118	-0.430957	0.953422
F246	F	1.197118	-0.180957	1.203422
F247	F	1.447118	0.069043	1.453422
F248	F	1.697118	0.319043	1.703422
H249	H	0.980963	-0.937256	0.437072
H250	H	1.230963	-0.687256	0.687072
H251	H	1.480963	-0.437256	0.937072
H252	H	1.730963	-0.187256	1.187072
H253	H	0.622108	-0.256804	0.280745
H254	H	0.872108	-0.006804	0.530745
H255	H	1.122108	0.243196	0.780745
H256	H	1.372108	0.493196	1.030745
H257	H	0.482666	-0.256814	0.280741
H258	H	0.732666	-0.006814	0.530741
H259	H	0.982666	0.243186	0.780741
H260	H	1.232666	0.493186	1.030741
F261	F	1.127267	-0.747979	0.290861
F262	F	1.377267	-0.497979	0.540861
F263	F	1.627267	-0.247979	0.790861
F264	F	1.877267	0.002021	1.040861
F265	F	0.939559	-0.596585	0.478219
F266	F	1.189559	-0.346585	0.728219
F267	F	1.439559	-0.096585	0.978219
F268	F	1.689559	0.153415	1.228219
H269	H	0.975068	-1.070323	0.443049
H270	H	1.225068	-0.820323	0.693049
H271	H	1.475068	-0.570323	0.943049
H272	H	1.725068	-0.320323	1.193049
H273	H	0.959363	-0.419765	0.803879
H274	H	1.209363	-0.169765	1.053879
H275	H	1.459363	0.080235	1.303879
H276	H	1.709363	0.330235	1.553879
H277	H	1.151831	-0.937235	0.266432
H278	H	1.401831	-0.687235	0.516432
H279	H	1.651831	-0.437235	0.766432
H280	H	1.901831	-0.187235	1.016432
F281	F	1.121877	-0.816416	0.296293
F282	F	1.371877	-0.566416	0.546293
F283	F	1.621877	-0.316416	0.796293
F284	F	1.871877	-0.066416	1.046293
H285	H	0.945029	-0.738832	0.472841
H286	H	1.195029	-0.488832	0.722841
H287	H	1.445029	-0.238832	0.972841
H288	H	1.695029	0.011168	1.222841
H289	H	1.137545	-0.256761	0.936100
H290	H	1.387545	-0.006761	1.186100
H291	H	1.637545	0.243239	1.436100
H292	H	1.887545	0.493239	1.686100
F293	F	0.974986	-0.859657	0.442988
F294	F	1.224986	-0.609657	0.692988
F295	F	1.474986	-0.359657	0.942988
F296	F	1.724986	-0.109657	1.192988
F297	F	1.157300	-1.079480	0.261055
F298	F	1.407300	-0.829480	0.511055
F299	F	1.657300	-0.579480	0.761055
F300	F	1.907300	-0.329480	1.011055
