data_functionalizedCrystal
_audit_creation_method	'MofGen! by Chris Wilmer'
_symmetry_space_group_name_H-M	'P1'
_symmetry_Int_Tables_number	1
_symmetry_cell_setting	triclinic
loop_
_symmetry_equiv_pos_as_xyz
  x,y,z
_cell_length_a	6.817900
_cell_length_b	11.102244
_cell_length_c	27.923559
_cell_angle_alpha	95.505816
_cell_angle_beta	98.965071
_cell_angle_gamma	108.604870
loop_
_atom_site_label
_atom_site_type_symbol
_atom_site_fract_x
_atom_site_fract_y
_atom_site_fract_z
V1	V	-4.003132	-0.177646	-0.151267
O2	O	-3.964234	0.006677	-0.148389
O3	O	-3.980645	-0.350453	-0.150231
O4	O	-3.932639	-0.175730	-0.217240
O5	O	-4.012572	-0.169257	-0.080916
V6	V	-4.486265	-0.155502	-0.142853
O7	O	-4.265246	-0.226220	-0.169725
O8	O	-4.674348	-0.106929	-0.124395
O9	O	-4.285545	0.017305	-0.143888
O10	O	-4.642560	-0.339825	-0.145731
O11	O	-4.594222	-0.163892	-0.213204
O12	O	-4.333551	-0.157419	-0.076879
C13	C	-3.832665	-0.392554	-0.147845
C14	C	-3.895419	-0.533832	-0.147437
C15	C	-3.896564	-0.581533	-0.102819
C16	C	-3.955538	-0.714281	-0.102442
C17	C	-4.012212	-0.751615	-0.191306
C18	C	-3.953252	-0.618870	-0.191682
C19	C	-3.863835	-0.559980	-0.051514
C20	C	-3.922810	-0.692727	-0.051137
C21	C	-3.771428	-0.169675	-0.233321
C22	C	-3.795247	-0.169252	-0.287254
C23	C	-3.998424	-0.283247	-0.628639
C24	C	-4.088067	-0.281731	-0.831348
O25	O	-4.146690	-0.380588	-0.863453
N26	N	-4.044066	-0.165071	-0.849765
C27	C	-3.977662	-0.048783	-0.817501
O28	O	-3.942314	0.050477	-0.837818
C29	C	-3.888034	-0.050300	-0.614794
C30	C	-3.932020	-0.166967	-0.596380
C31	C	-4.042407	-0.399904	-0.610224
C32	C	-4.019986	-0.400281	-0.559550
C33	C	-3.953582	-0.284002	-0.527290
C34	C	-3.909599	-0.167344	-0.545705
C35	C	-3.821645	0.065986	-0.582532
C36	C	-3.799247	0.065596	-0.531852
C37	C	-3.843233	-0.051070	-0.513438
C38	C	-3.820774	-0.051442	-0.462771
N39	N	-3.864775	-0.168102	-0.444354
C40	C	-3.931179	-0.284382	-0.476614
C41	C	-4.024717	-0.047994	-0.923926
C42	C	-4.047121	-0.047614	-0.974603
C43	C	-4.157528	-0.280563	-0.988446
C44	C	-4.135110	-0.280941	-0.937768
C45	C	-4.068719	-0.164654	-0.905509
C46	C	-3.884088	-0.285165	-0.370193
C47	C	-3.861651	-0.285532	-0.319514
C48	C	-3.751257	-0.052584	-0.305675
C49	C	-3.773680	-0.052216	-0.356350
C50	C	-3.840106	-0.168517	-0.388609
O51	O	-3.762184	0.047362	-0.430639
O52	O	-3.966561	-0.383629	-0.456288
C53	C	-4.020845	-0.282870	-0.679313
C54	C	-3.976862	-0.166212	-0.697728
C55	C	-3.910457	-0.049933	-0.665469
C56	C	-3.999265	-0.165832	-0.748405
C57	C	-4.065669	-0.282112	-0.780664
C58	C	-4.109670	-0.398772	-0.762247
C59	C	-4.087249	-0.399149	-0.711573
C60	C	-3.866456	0.066727	-0.683886
C61	C	-3.888879	0.067095	-0.734561
C62	C	-3.955284	-0.049185	-0.766820
C63	C	-4.096869	0.059399	-0.146274
C64	C	-4.013353	0.200675	-0.146684
C65	C	-4.158107	-0.163477	-0.060796
C66	C	-4.113525	-0.163894	-0.006862
H67	H	-4.075331	-0.732360	-0.037016
H68	H	-3.897468	-0.380540	-0.304524
H69	H	-3.737873	0.042783	-0.371344
N70	N	-4.229194	-0.405981	-1.023247
H71	H	-4.253690	-0.479953	-1.003896
H72	H	-4.116972	-0.406574	-1.042900
N73	N	-3.952024	-0.567423	-0.239807
H74	H	-3.905902	-0.470426	-0.233333
H75	H	-4.098673	-0.603201	-0.260786
N76	N	-3.794824	0.192146	-0.649093
H77	H	-3.898519	0.238803	-0.656563
H78	H	-3.650631	0.247356	-0.653230
N79	N	-3.679567	0.072830	-0.270876
H80	H	-3.672032	0.054878	-0.235979
H81	H	-3.783290	0.119447	-0.278378
H82	H	-3.853041	0.162107	-0.749548
H83	H	-3.786307	-0.715488	-0.029482
N84	N	-4.011387	-0.507911	-0.028030
H85	H	-4.003403	-0.525148	0.006959
H86	H	-4.160621	-0.551588	-0.047062
N87	N	-4.114010	-0.525326	-0.645016
H88	H	-4.249705	-0.534713	-0.668031
H89	H	-4.138342	-0.599201	-0.625619
H90	H	-4.059306	-0.820869	-0.227328
N91	N	-3.634908	-0.489761	-0.028049
H92	H	-3.609248	-0.504025	0.007231
H93	H	-3.600028	-0.394715	-0.029218
N94	N	-3.955737	-0.410601	-0.404982
H95	H	-3.980189	-0.484550	-0.385620
H96	H	-3.843508	-0.411191	-0.424634
H97	H	-4.170928	-0.375942	-0.922779
N98	N	-4.067499	-0.526117	-0.539693
H99	H	-4.112991	-0.599713	-0.567825
H100	H	-4.184559	-0.535661	-0.520652
H101	H	-4.011274	0.047388	-0.989590
N102	N	-3.774230	0.191812	-0.602390
H103	H	-3.657130	0.201512	-0.621430
H104	H	-3.728875	0.265337	-0.574237
N105	N	-3.953104	0.077438	-0.889135
H106	H	-3.928630	0.151388	-0.908497
H107	H	-3.817462	0.086693	-0.866130
H108	H	-4.163731	-0.493451	-0.788522
H109	H	-3.745189	0.160294	-0.505589
H110	H	-4.123070	-0.494151	-0.696585
