data_functionalizedCrystal
_audit_creation_method	'MofGen! by Chris Wilmer'
_symmetry_space_group_name_H-M	'P1'
_symmetry_Int_Tables_number	1
_symmetry_cell_setting	triclinic
loop_
_symmetry_equiv_pos_as_xyz
  x,y,z
_cell_length_a	19.188930
_cell_length_b	19.188924
_cell_length_c	11.892095
_cell_angle_alpha	93.873774
_cell_angle_beta	86.100356
_cell_angle_gamma	83.143372
loop_
_atom_site_label
_atom_site_type_symbol
_atom_site_fract_x
_atom_site_fract_y
_atom_site_fract_z
O1	O	0.930638	0.082673	-0.094373
O2	O	0.727323	0.094411	-0.094296
O3	O	0.834850	-0.013113	-0.094324
O4	O	0.823112	0.190197	-0.094346
O5	O	0.825884	-0.004162	0.093686
O6	O	0.718358	0.103362	0.093713
O7	O	0.921673	0.091624	0.093636
Zn8	Zn	0.818592	0.098915	0.123525
Zn9	Zn	0.830404	0.087121	-0.124185
O10	O	0.814146	0.199149	0.093664
C11	C	0.696829	0.098507	-0.000282
C12	C	0.619323	0.097368	-0.000252
C13	C	0.574399	0.160458	-0.000276
C14	C	0.501575	0.159385	-0.000289
C15	C	0.473681	0.095219	-0.000299
C16	C	0.518615	0.032121	-0.000268
C17	C	0.591436	0.033195	-0.000244
N18	N	0.368755	0.043123	-0.064327
N19	N	0.299578	0.042106	-0.064352
C20	C	0.254276	0.091977	-0.000368
N21	N	0.280764	0.142913	0.063628
N22	N	0.349947	0.143932	0.063648
C23	C	0.394720	0.094046	-0.000324
C24	C	0.130387	0.153909	-0.000404
C25	C	0.057563	0.152834	-0.000410
C26	C	0.074605	0.025567	-0.000400
C27	C	0.147427	0.026644	-0.000384
C28	C	0.175314	0.090817	-0.000391
C29	C	0.829988	-0.034649	-0.000318
C30	C	0.828849	-0.112153	-0.000314
C31	C	0.833204	-0.153432	-0.102798
C32	C	0.832125	-0.226255	-0.102807
C33	C	0.826703	-0.257798	-0.000325
C34	C	0.822343	-0.216510	0.102173
C35	C	0.823416	-0.143688	0.102178
N36	N	0.861115	-0.373831	0.075935
N37	N	0.860098	-0.443010	0.075924
C38	C	0.823470	-0.477208	-0.000334
N39	N	0.787907	-0.439616	-0.076597
N40	N	0.788928	-0.370432	-0.076589
C41	C	0.825539	-0.336762	-0.000319
C42	C	0.826654	-0.597450	-0.102835
C43	C	0.825570	-0.670273	-0.102838
C44	C	0.815796	-0.660528	0.102144
C45	C	0.816873	-0.587705	0.102145
C46	C	0.822306	-0.556171	-0.000347
C47	C	0.952167	0.087528	-0.000381
C48	C	1.029673	0.088667	-0.000418
C49	C	0.819008	0.220684	-0.000345
C50	C	0.820148	0.298188	-0.000356
N51	N	0.810535	0.106963	0.292582
N52	N	0.838466	0.079067	-0.293242
C53	C	0.894526	0.023021	0.529208
C54	C	0.888900	0.028652	0.647551
C55	C	0.793654	0.123852	0.647614
C56	C	0.799280	0.118221	0.529270
C57	C	0.849719	0.067805	0.470072
C58	C	0.855348	0.062178	0.351726
C59	C	0.760098	0.157374	0.351791
C60	C	0.754472	0.163005	0.470134
H61	H	0.184006	-0.024731	-0.000370
H62	H	0.935600	-0.018026	0.481008
H63	H	0.837626	-0.127761	-0.186256
C64	C	0.161066	0.224495	-0.000401
H65	H	0.123877	0.261917	-0.000401
H66	H	0.192261	0.224438	-0.065958
H67	H	0.185977	0.230680	0.065177
H68	H	0.811376	-0.686209	0.185587
H69	H	0.831074	-0.571773	-0.186290
C70	C	0.816379	-0.251201	0.214903
H71	H	0.813933	-0.216184	0.275942
H72	H	0.856464	-0.284858	0.219151
H73	H	0.775045	-0.273955	0.219171
H74	H	0.020985	0.204212	-0.000423
H75	H	0.819866	-0.110078	0.185636
C76	C	0.698974	0.218441	0.535253
H77	H	0.673086	0.244297	0.483081
H78	H	0.721784	0.249645	0.581419
H79	H	0.667797	0.195570	0.581421
C80	C	0.836944	-0.271673	-0.215543
H81	H	0.840344	-0.242464	-0.276582
H82	H	0.796032	-0.294848	-0.219822
H83	H	0.877448	-0.305723	-0.219783
C84	C	0.830358	-0.715680	-0.215577
H85	H	0.833753	-0.686467	-0.276612
H86	H	0.789435	-0.738837	-0.219830
H87	H	0.870853	-0.749743	-0.219849
C88	C	0.812094	-0.542298	0.214879
H89	H	0.808716	-0.571513	0.275914
H90	H	0.771604	-0.508235	0.219161
H91	H	0.853023	-0.519142	0.219121
H92	H	0.925386	-0.007816	0.695697
H93	H	0.051897	-0.026682	-0.000479
H94	H	0.495899	-0.020125	-0.000292
C95	C	0.910825	0.006720	0.286609
H96	H	0.936699	-0.019150	0.338783
H97	H	0.942009	0.029561	0.240417
H98	H	0.887986	-0.024478	0.240468
H99	H	0.752583	0.164896	0.695829
H100	H	0.723615	0.193842	0.303628
H101	H	0.597099	0.212712	-0.000285
C102	C	0.640858	-0.036205	-0.000226
H103	H	0.688222	-0.026374	-0.000207
H104	H	0.635567	-0.065649	-0.065788
H105	H	0.629283	-0.059402	0.065347
C106	C	0.452151	0.228786	-0.000333
H107	H	0.479190	0.267157	-0.000344
H108	H	0.420239	0.234141	0.065214
H109	H	0.426541	0.227878	-0.065921
