data_functionalizedCrystal
_audit_creation_method	'MofGen! by Chris Wilmer'
_symmetry_space_group_name_H-M	'P1'
_symmetry_Int_Tables_number	1
_symmetry_cell_setting	triclinic
loop_
_symmetry_equiv_pos_as_xyz
  x,y,z
_cell_length_a	19.902436
_cell_length_b	14.560438
_cell_length_c	19.902436
_cell_angle_alpha	60.006005
_cell_angle_beta	90.005183
_cell_angle_gamma	59.996626
loop_
_atom_site_label
_atom_site_type_symbol
_atom_site_fract_x
_atom_site_fract_y
_atom_site_fract_z
Zr1	Zr	0.647320	1.005160	-0.088105
O2	O	0.540025	1.196765	-0.195392
O3	O	0.680211	0.813558	-0.055217
O4	O	0.680208	1.005142	-0.195383
O5	O	0.540031	1.005194	0.055341
O6	O	0.790787	1.005124	-0.195374
O7	O	0.540028	1.005181	-0.055226
O8	O	0.790792	0.662415	0.055357
O9	O	0.540025	1.347903	-0.195390
O10	O	0.776763	0.892352	-0.041182
O11	O	0.694241	0.892375	0.041326
O12	O	0.694237	1.117941	-0.123701
O13	O	0.611716	1.117964	-0.041193
Zr14	Zr	0.823685	1.005153	0.088252
Zr15	Zr	0.823680	1.005132	-0.088091
Zr16	Zr	0.647324	1.005181	0.088238
Zr17	Zr	0.647320	1.246208	-0.088102
Zr18	Zr	0.823684	0.764105	0.088249
O19	O	0.790793	1.196755	0.055364
O20	O	0.790787	1.196725	-0.195372
O21	O	0.540031	1.196795	0.055344
O22	O	0.930979	0.813547	0.195539
O23	O	0.930973	0.813518	-0.055197
O24	O	0.680217	0.813588	0.195519
O25	O	0.930973	1.005118	-0.055194
O26	O	0.790796	1.005170	0.195531
O27	O	0.680218	1.005188	0.195522
O28	O	0.930976	1.005131	0.055373
O29	O	0.680208	1.347881	-0.195379
O30	O	0.790796	0.662432	0.195526
O31	O	0.930979	0.662409	0.195537
O32	O	0.930975	0.662393	0.055368
O33	O	0.540029	1.347920	-0.055221
O34	O	0.680212	1.347897	-0.055210
O35	O	0.776767	0.892372	0.123848
O36	O	0.859289	0.892349	0.041340
O37	O	0.776763	1.117937	-0.041179
O38	O	0.694241	1.117960	0.041329
C39	C	0.735502	0.703643	0.000069
C40	C	0.735502	0.601311	0.000068
C41	C	0.778575	0.553223	-0.043001
C42	C	0.778579	0.457064	-0.042993
C43	C	0.692428	0.457093	0.043153
C44	C	0.692430	0.553244	0.043150
C45	C	0.514902	1.005192	0.000056
C46	C	0.440033	1.005204	0.000050
C47	C	0.168031	1.005140	0.000081
C48	C	0.144462	1.147446	-0.051724
C49	C	0.222300	1.147535	-0.052011
C50	C	0.302974	1.005173	0.000066
C51	C	0.300561	0.934493	-0.037894
C52	C	0.222334	0.935403	-0.038277
C53	C	0.223324	0.932495	0.089870
C54	C	0.300245	0.935170	0.089731
C55	C	0.379240	1.005183	0.000057
C56	C	0.091765	1.005125	0.000087
C57	C	0.956102	1.005121	0.000091
C58	C	1.030972	1.005109	0.000098
C59	C	0.735497	1.005130	-0.220504
C60	C	0.735495	1.005122	-0.295366
C61	C	0.735503	1.306670	0.000078
C62	C	0.735503	1.409001	0.000079
C63	C	0.735500	1.005145	-0.432445
C64	C	0.787555	0.862850	-0.408911
C65	C	0.787836	0.862794	-0.486761
C66	C	0.735505	1.005167	-0.567408
C67	C	0.773195	1.076233	-0.565118
C68	C	0.773586	1.075292	-0.486879
C69	C	0.645725	1.077407	-0.487587
C70	C	0.645864	1.074759	-0.564519
C71	C	0.735507	1.005187	-0.643686
C72	C	0.735501	1.005130	-0.356169
C73	C	0.735508	1.005182	0.220651
C74	C	0.735510	1.005191	0.295513
C75	C	0.956102	0.703607	0.000087
C76	C	1.030971	0.601264	0.000092
C77	C	0.735507	0.703669	0.220647
C78	C	0.735509	0.601346	0.295507
C79	C	0.956107	0.703633	0.220665
C80	C	1.030979	0.601299	0.295531
C81	C	0.514897	1.306680	-0.220518
C82	C	0.440026	1.409014	-0.295384
C83	C	0.514903	1.306706	0.000060
C84	C	0.440033	1.409049	0.000055
C85	C	0.735497	1.306644	-0.220500
C86	C	0.735495	1.408966	-0.295360
C87	C	1.023053	0.553204	-0.042989
C88	C	1.093394	0.457055	-0.043001
C89	C	1.171653	0.408961	0.000073
C90	C	1.179569	0.457030	0.043155
C91	C	1.109229	0.553184	0.043162
C92	C	0.778587	0.553293	0.373746
C93	C	0.778586	0.457164	0.444092
C94	C	0.735510	0.409083	0.436198
C95	C	0.692427	0.457146	0.357952
C96	C	0.692424	0.553280	0.287607
C97	C	1.109222	0.553229	0.287621
C98	C	1.179578	0.457089	0.357959
C99	C	1.171689	0.409013	0.436208
C100	C	1.093438	0.457092	0.444116
C101	C	1.023083	0.553237	0.373779
C102	C	0.361782	1.457095	-0.287474
C103	C	0.291426	1.553265	-0.357812
C104	C	0.299315	1.601346	-0.436060
C105	C	0.377566	1.553261	-0.443969
C106	C	0.447921	1.457099	-0.373632
C107	C	0.447951	1.457118	0.043129
C108	C	0.377610	1.553294	0.043121
C109	C	0.299352	1.601391	0.000045
C110	C	0.291435	1.553318	-0.043034
C111	C	0.361776	1.457151	-0.043031
C112	C	0.778579	1.457016	-0.287440
C113	C	0.778594	1.553146	-0.357773
C114	C	0.735519	1.601231	-0.436025
C115	C	0.692434	1.553171	-0.443944
C116	C	0.692424	1.457037	-0.373612
H117	H	0.813654	0.417912	-0.078062
F118	F	0.609058	1.007015	-0.563896
H119	H	1.086932	0.417929	-0.078083
F120	F	0.353368	1.405938	-0.204203
F121	F	0.224496	1.703741	0.000050
H122	H	0.185789	0.985619	-0.104349
F123	F	0.375339	0.799401	0.144426
H124	H	0.603840	1.178605	-0.621951
H125	H	0.813673	0.418042	0.507797
F126	F	0.385949	1.604444	-0.527254
H127	H	0.606763	1.182230	-0.507487
H128	H	0.853386	0.807555	-0.369112
H129	H	0.657363	1.592337	-0.507666
F130	F	0.646587	0.604419	0.088997
F131	F	1.117669	0.604316	0.089022
H132	H	0.738099	1.179710	-0.506209
F133	F	0.208153	1.604420	-0.349378
F134	F	0.531191	1.405931	-0.382063
F135	F	0.531233	1.405950	0.088978
F136	F	0.386053	1.604436	0.088976
F137	F	0.725999	1.213080	-0.639358
F138	F	0.646594	0.405923	0.089005
H139	H	0.959337	0.592362	-0.078075
F140	F	0.858704	1.012487	-0.567297
H141	H	0.187013	0.978039	0.121578
F142	F	0.824441	0.604443	0.382166
H143	H	1.228921	0.330666	0.000062
H144	H	0.221023	1.203271	-0.026747
H145	H	1.115661	0.592359	0.223914
H146	H	0.242021	1.679647	-0.493327
H147	H	0.299869	0.986705	0.118089
H148	H	1.243296	0.417858	0.078224
F149	F	0.208140	1.604517	-0.088874
F150	F	0.249371	0.795469	0.140557
H151	H	0.105297	1.203306	-0.026392
H152	H	0.735519	0.330805	0.493484
H153	H	0.839639	1.025365	-0.450448
F154	F	0.353336	1.405994	-0.088874
H155	H	0.762579	0.807062	-0.485500
F156	F	0.092295	1.220088	-0.137775
H157	H	0.220524	1.203312	-0.118243
H158	H	0.735533	1.679510	-0.493287
H159	H	0.302111	0.983569	-0.103337
F160	F	0.646586	0.405961	0.349563
F161	F	0.824429	1.405858	-0.204165
H162	H	0.657347	0.592393	0.223905
H163	H	1.243288	0.417953	0.351505
H164	H	0.813648	0.592356	-0.078079
H165	H	0.241682	0.830995	-0.002984
H166	H	0.357376	0.829819	-0.001976
F167	F	0.754719	0.789445	-0.357590
F168	F	0.604533	1.017468	-0.439998
F169	F	0.874397	0.790246	-0.484584
F170	F	1.246575	0.306684	0.511061
H171	H	1.087027	0.417934	0.507835
F172	F	0.939813	0.604380	0.382210
H173	H	0.813678	1.592266	-0.351309
H174	H	0.657337	1.417925	-0.380072
