data_functionalizedCrystal
_audit_creation_method	'MofGen! by Chris Wilmer'
_symmetry_space_group_name_H-M	'P1'
_symmetry_Int_Tables_number	1
_symmetry_cell_setting	triclinic
loop_
_symmetry_equiv_pos_as_xyz
  x,y,z
_cell_length_a	19.805407
_cell_length_b	19.121063
_cell_length_c	19.121605
_cell_angle_alpha	90.075163
_cell_angle_beta	87.543967
_cell_angle_gamma	92.469032
loop_
_atom_site_label
_atom_site_type_symbol
_atom_site_fract_x
_atom_site_fract_y
_atom_site_fract_z
Zn1	Zn	1.040717	-0.262209	-0.408313
Zn2	Zn	1.030995	-0.384450	-0.296069
Zn3	Zn	0.922511	-0.267230	-0.291087
Zn4	Zn	0.922877	-0.379413	-0.413264
O5	O	0.979275	-0.323325	-0.352183
O6	O	1.134144	-0.278431	-0.393436
O7	O	1.012382	-0.373111	-0.197302
O8	O	0.942107	-0.168457	-0.302480
O9	O	1.127001	-0.368242	-0.310971
O10	O	1.028952	-0.164768	-0.388606
O11	O	0.932680	-0.286989	-0.193642
O12	O	0.827843	-0.282104	-0.307282
O13	O	0.942731	-0.359656	-0.510713
O14	O	0.828112	-0.364524	-0.397044
O15	O	1.029307	-0.273546	-0.507076
O16	O	1.012737	-0.481890	-0.315772
O17	O	0.933304	-0.478188	-0.401875
C18	C	0.803419	-0.323313	-0.352160
C19	C	0.728186	-0.323324	-0.352168
C20	C	0.692994	-0.366311	-0.398837
C21	C	0.622306	-0.366311	-0.398847
C22	C	0.586811	-0.323329	-0.352183
C23	C	0.622009	-0.280337	-0.305511
C24	C	0.692696	-0.280333	-0.305505
C25	C	0.336936	-0.280352	-0.305535
C26	C	0.266244	-0.280360	-0.305543
C27	C	0.266546	-0.366330	-0.398877
C28	C	0.337233	-0.366326	-0.398871
C29	C	0.372425	-0.323332	-0.352202
C30	C	0.449073	-0.323331	-0.352193
C31	C	0.510164	-0.323333	-0.352189
C32	C	0.972024	-0.505476	-0.359917
C33	C	0.968985	-0.583400	-0.363249
C34	C	1.008949	-0.621911	-0.320022
C35	C	1.006095	-0.695129	-0.323160
C36	C	0.963273	-0.729834	-0.369521
C37	C	0.923307	-0.691318	-0.412752
C38	C	0.926165	-0.618101	-0.409618
C39	C	0.952576	-0.950805	-0.381230
C40	C	0.949719	-1.024026	-0.384360
C41	C	1.032508	-1.027832	-0.294768
C42	C	1.035360	-0.954615	-0.291634
C43	C	0.995397	-0.916104	-0.334868
C44	C	0.960353	-0.804674	-0.372728
C45	C	0.998321	-0.841266	-0.331664
C46	C	1.155818	-0.323338	-0.352207
C47	C	1.231050	-0.323344	-0.352217
C48	C	0.987145	-0.315479	-0.535043
C49	C	0.990498	-0.312135	-0.612967
C50	C	0.986573	-0.140463	-0.344435
C51	C	0.989684	-0.062537	-0.341133
C52	C	1.011760	-0.290978	-1.053596
C53	C	1.008605	-0.294123	-0.980378
C54	C	0.961948	-0.340524	-0.945666
C55	C	0.918449	-0.383788	-0.984176
C56	C	0.921608	-0.380646	-1.057393
C57	C	0.950158	-0.352257	-0.724694
C58	C	0.947001	-0.355394	-0.651472
C59	C	1.037158	-0.265730	-0.647679
C60	C	1.040310	-0.262589	-0.720897
C61	C	0.996813	-0.305855	-0.759401
C62	C	0.958720	-0.343738	-0.870826
C63	C	1.000044	-0.302644	-0.834240
C64	C	0.971477	-0.331091	-0.170033
C65	C	0.968263	-0.334237	-0.092100
H66	H	0.721889	-0.401315	-0.436834
C67	C	0.354923	-0.251103	-0.185420
C68	C	0.375609	-0.233095	-0.254234
H69	H	0.378804	-0.221928	-0.153748
H70	H	0.307750	-0.244958	-0.178753
H71	H	0.364199	-0.298633	-0.177087
H72	H	0.366330	-0.185565	-0.262568
H73	H	0.422794	-0.239234	-0.260903
C74	C	0.775521	-0.186418	-0.291906
C75	C	0.731379	-0.233081	-0.254202
H76	H	0.799397	-0.157242	-0.260232
H77	H	0.806774	-0.212015	-0.319689
H78	H	0.750324	-0.158341	-0.321360
H79	H	0.756577	-0.261161	-0.224752
H80	H	0.700122	-0.207481	-0.226407
H81	H	1.078305	-0.224808	-0.749154
C82	C	0.868183	-1.012913	-0.472622
C83	C	0.902653	-1.062176	-0.435331
H84	H	0.839132	-1.036467	-0.504090
H85	H	0.842110	-0.985705	-0.440837
H86	H	0.899934	-0.983166	-0.498238
H87	H	0.870903	-1.091920	-0.409710
H88	H	0.928728	-1.089396	-0.467121
H89	H	1.072571	-0.230506	-0.616321
H90	H	0.593103	-0.245337	-0.267520
H91	H	1.065045	-1.059195	-0.259570
C92	C	0.420412	-0.372156	-0.493567
C93	C	0.376250	-0.413571	-0.450167
H94	H	0.444501	-0.401324	-0.525234
H95	H	0.395209	-0.340508	-0.519138
H96	H	0.451485	-0.346559	-0.465762
H97	H	0.345173	-0.439165	-0.477972
H98	H	0.401455	-0.445232	-0.424595
H99	H	0.920732	-0.381517	-0.842555
C100	C	0.852000	-0.368686	-0.569558
C101	C	0.895714	-0.406414	-0.613330
H102	H	0.820337	-0.400185	-0.546018
H103	H	0.877444	-0.343379	-0.536142
H104	H	0.828563	-0.336914	-0.596833
H105	H	0.919154	-0.438182	-0.586054
H106	H	0.870266	-0.431732	-0.646750
H107	H	1.038034	-0.264867	-0.862505
C108	C	0.158322	-0.404509	-0.440345
C109	C	0.227862	-0.413583	-0.450186
H110	H	0.134444	-0.433679	-0.472022
H111	H	0.144297	-0.416720	-0.393663
H112	H	0.149066	-0.356975	-0.448687
H113	H	0.237120	-0.461117	-0.441838
H114	H	0.241893	-0.401378	-0.496878
H115	H	1.038638	-0.726481	-0.287959
C116	C	0.629704	-0.451311	-0.491085
C117	C	0.583622	-0.413576	-0.450137
H118	H	0.605820	-0.480496	-0.522746
H119	H	0.659645	-0.419658	-0.516663
H120	H	0.654891	-0.479381	-0.461616
H121	H	0.558438	-0.385502	-0.479606
H122	H	0.553669	-0.445233	-0.424558
H123	H	0.237346	-0.245354	-0.267544
H124	H	1.043816	-0.593659	-0.282267
H125	H	1.070229	-0.926359	-0.253883
C126	C	0.950361	-0.864406	-0.472010
C127	C	0.908642	-0.908486	-0.428749
H128	H	0.923234	-0.838283	-0.501350
H129	H	0.976264	-0.833256	-0.443956
H130	H	0.979871	-0.891788	-0.500072
H131	H	0.879135	-0.881103	-0.400683
H132	H	0.882726	-0.939640	-0.456806
C133	C	0.884864	-0.498387	-1.084960
C134	C	0.873793	-0.428197	-1.099719
H135	H	0.855342	-0.527745	-1.111087
H136	H	0.930443	-0.508133	-1.097398
H137	H	0.876304	-0.506889	-1.036386
H138	H	0.882358	-0.419694	-1.148293
H139	H	0.828203	-0.418448	-1.087286
C140	C	1.006940	-0.763009	-0.233852
C141	C	1.045388	-0.803120	-0.280702
H142	H	1.035996	-0.739459	-0.202386
H143	H	0.983554	-0.729601	-0.259154
H144	H	0.975201	-0.792768	-0.208235
H145	H	1.077123	-0.773360	-0.306323
H146	H	1.068785	-0.836532	-0.255397
H147	H	0.888444	-0.719581	-0.450504
C148	C	0.844046	-0.621689	-0.498490
C149	C	0.882237	-0.575767	-0.457135
H150	H	0.816926	-0.595553	-0.527825
H151	H	0.873557	-0.649059	-0.526551
H152	H	0.815745	-0.651592	-0.469137
H153	H	0.910542	-0.545868	-0.486488
H154	H	0.852722	-0.548386	-0.429071
C155	C	1.100562	-0.202671	-1.042484
C156	C	1.063048	-0.239973	-1.091747
H157	H	1.132229	-0.171186	-1.066038
H158	H	1.070913	-0.177076	-1.012792
H159	H	1.123996	-0.234455	-1.015221
H160	H	1.039610	-0.208189	-1.119007
H161	H	1.092702	-0.265570	-1.121451
C162	C	0.940548	-0.443051	-0.810996
C163	C	0.902349	-0.399825	-0.767003
H164	H	0.911031	-0.472425	-0.837112
H165	H	0.968773	-0.414970	-0.842154
H166	H	0.967739	-0.471080	-0.783556
H167	H	0.875161	-0.371792	-0.794444
H168	H	0.874112	-0.427909	-0.735842
C169	C	1.018190	-0.203331	-0.894070
C170	C	1.056403	-0.246544	-0.938064
H171	H	1.047699	-0.173953	-0.867949
H172	H	0.990996	-0.175312	-0.921506
H173	H	0.989969	-0.231425	-0.862912
H174	H	1.084622	-0.218450	-0.969226
H175	H	1.083610	-0.274566	-0.910626
H176	H	0.925486	-0.832939	-0.410474
H177	H	0.880463	-0.421572	-0.955909
