data_functionalizedCrystal
_audit_creation_method	'MofGen! by Chris Wilmer'
_symmetry_space_group_name_H-M	'P1'
_symmetry_Int_Tables_number	1
_symmetry_cell_setting	triclinic
loop_
_symmetry_equiv_pos_as_xyz
  x,y,z
_cell_length_a	18.215407
_cell_length_b	13.897448
_cell_length_c	18.215399
_cell_angle_alpha	90.023741
_cell_angle_beta	89.980167
_cell_angle_gamma	89.979983
loop_
_atom_site_label
_atom_site_type_symbol
_atom_site_fract_x
_atom_site_fract_y
_atom_site_fract_z
Zn1	Zn	1.125099	0.384013	-0.416137
Zn2	Zn	1.458432	0.717347	-0.082804
Zn3	Zn	1.791766	1.050680	0.250529
Zn4	Zn	1.125019	0.545323	-0.293080
Zn5	Zn	1.458352	0.878656	0.040253
Zn6	Zn	1.791686	1.211990	0.373587
Zn7	Zn	1.002032	0.384045	-0.293085
Zn8	Zn	1.335365	0.717378	0.040249
Zn9	Zn	1.668698	1.050711	0.373582
Zn10	Zn	1.002009	0.545269	-0.416105
Zn11	Zn	1.335342	0.878603	-0.082772
Zn12	Zn	1.668676	1.211936	0.250562
O13	O	1.063540	0.464663	-0.354602
O14	O	1.396873	0.797996	-0.021269
O15	O	1.730206	1.131329	0.312065
O16	O	1.228073	0.405421	-0.399825
O17	O	1.561406	0.738754	-0.066492
O18	O	1.894739	1.072087	0.266841
O19	O	1.108680	0.523965	-0.190096
O20	O	1.442014	0.857298	0.143237
O21	O	1.775347	1.190631	0.476570
O22	O	1.018400	0.249059	-0.309423
O23	O	1.351733	0.582392	0.023910
O24	O	1.685067	0.915726	0.357243
O25	O	1.228014	0.523934	-0.309416
O26	O	1.561347	0.857267	0.023918
O27	O	1.894681	1.190601	0.357251
O28	O	1.108817	0.249036	-0.399830
O29	O	1.442150	0.582369	-0.066496
O30	O	1.775484	0.915702	0.266837
O31	O	1.018322	0.405474	-0.190100
O32	O	1.351656	0.738808	0.143233
O33	O	1.684989	1.072141	0.476567
O34	O	0.899044	0.405422	-0.309392
O35	O	1.232378	0.738756	0.023941
O36	O	1.565711	1.072089	0.357275
O37	O	1.018361	0.523843	-0.519094
O38	O	1.351695	0.857176	-0.185760
O39	O	1.685028	1.190509	0.147573
O40	O	0.899028	0.523873	-0.399775
O41	O	1.232361	0.857207	-0.066441
O42	O	1.565694	1.190540	0.266892
O43	O	1.108795	0.405369	-0.519117
O44	O	1.442128	0.738702	-0.185784
O45	O	1.775462	1.072035	0.147549
O46	O	1.108658	0.680297	-0.309384
O47	O	1.441992	1.013631	0.023949
O48	O	1.775325	1.346964	0.357282
O49	O	1.018283	0.680258	-0.399770
O50	O	1.351617	1.013591	-0.066437
O51	O	1.684950	1.346925	0.266897
C52	C	0.872333	0.464646	-0.354581
C53	C	1.205667	0.797979	-0.021247
C54	C	1.539000	1.131313	0.312086
C55	C	0.790535	0.464662	-0.354589
C56	C	1.123868	0.797996	-0.021256
C57	C	1.457201	1.131329	0.312078
C58	C	1.063480	0.715277	-0.354589
C59	C	1.396813	1.048610	-0.021256
C60	C	1.730146	1.381944	0.312077
C61	C	1.063521	0.822491	-0.354608
C62	C	1.396855	1.155824	-0.021275
C63	C	1.730188	1.489157	0.312058
C64	C	0.602351	0.526437	-0.401592
C65	C	0.935685	0.859770	-0.068259
C66	C	1.269018	1.193103	0.265074
C67	C	0.525492	0.526440	-0.401601
C68	C	0.858826	0.859773	-0.068268
C69	C	1.192159	1.193106	0.265065
C70	C	0.525480	0.402906	-0.307628
C71	C	0.858814	0.736239	0.025706
C72	C	1.192147	1.069573	0.359039
C73	C	0.602338	0.402899	-0.307623
C74	C	0.935671	0.736232	0.025711
C75	C	1.269004	1.069566	0.359044
C76	C	0.640771	0.464670	-0.354604
C77	C	0.974104	0.798003	-0.021271
C78	C	1.307438	1.131336	0.312063
C79	C	0.487055	0.464680	-0.354618
C80	C	0.820388	0.798013	-0.021285
C81	C	1.153722	1.131346	0.312049
C82	C	0.403721	0.464683	-0.354628
C83	C	0.737055	0.798016	-0.021294
C84	C	1.070388	1.131349	0.312039
C85	C	0.724110	0.464666	-0.354595
C86	C	1.057443	0.797999	-0.021262
C87	C	1.390777	1.131332	0.312071
C88	C	1.063594	1.018786	-0.354661
C89	C	1.396927	1.352119	-0.021328
C90	C	1.730260	1.685453	0.312005
C91	C	1.063551	0.909553	-0.354634
C92	C	1.396885	1.242887	-0.021301
C93	C	1.730218	1.576220	0.312033
C94	C	1.255493	0.464680	-0.354623
C95	C	1.588826	0.798013	-0.021290
C96	C	1.922159	1.131346	0.312043
C97	C	1.337291	0.464687	-0.354633
C98	C	1.670625	0.798021	-0.021299
C99	C	2.003958	1.131354	0.312034
C100	C	1.063585	0.464596	-0.546555
C101	C	1.396918	0.797929	-0.213222
C102	C	1.730251	1.131263	0.120112
C103	C	1.063604	0.464568	-0.628354
C104	C	1.396937	0.797901	-0.295020
C105	C	1.730270	1.131234	0.038313
C106	C	1.063614	1.213070	-0.354639
C107	C	1.396947	1.546403	-0.021306
C108	C	1.730280	1.879736	0.312027
C109	C	1.063629	1.105856	-0.354677
C110	C	1.396963	1.439189	-0.021344
C111	C	1.730296	1.772522	0.311989
C112	C	1.110709	0.402821	-0.816561
C113	C	1.444043	0.736154	-0.483228
C114	C	1.777376	1.069487	-0.149895
C115	C	1.110718	0.402792	-0.893420
C116	C	1.444052	0.736126	-0.560087
C117	C	1.777385	1.069459	-0.226753
C118	C	1.016550	0.526166	-0.893384
C119	C	1.349883	0.859499	-0.560051
C120	C	1.683217	1.192832	-0.226717
C121	C	1.016538	0.526188	-0.816527
C122	C	1.349871	0.859522	-0.483193
C123	C	1.683205	1.192855	-0.149860
C124	C	1.063622	0.464517	-0.778117
C125	C	1.396955	0.797850	-0.444784
C126	C	1.730289	1.131184	-0.111451
C127	C	1.063643	0.464466	-0.931834
C128	C	1.396976	0.797800	-0.598500
C129	C	1.730309	1.131133	-0.265167
C130	C	1.063652	0.464436	-1.015167
C131	C	1.396985	0.797770	-0.681834
C132	C	1.730318	1.131103	-0.348501
C133	C	1.063612	0.464546	-0.694778
C134	C	1.396945	0.797879	-0.361445
C135	C	1.730279	1.131212	-0.028112
C136	C	1.063537	0.464659	-0.163396
C137	C	1.396871	0.797993	0.169938
C138	C	1.730204	1.131326	0.503271
C139	C	1.063661	0.464416	-0.081597
C140	C	1.396994	0.797749	0.251736
C141	C	1.730328	1.131082	0.585070
H142	H	0.633641	0.576732	-0.439849
H143	H	0.966975	0.910065	-0.106516
H144	H	1.300308	1.243399	0.226817
H145	H	1.149046	0.352601	-0.785291
H146	H	1.482380	0.685935	-0.451957
H147	H	1.815713	1.019268	-0.118624
H148	H	0.978188	0.576428	-0.785225
H149	H	1.311522	0.909761	-0.451891
H150	H	1.644855	1.243095	-0.118558
H151	H	0.494214	0.576735	-0.439865
H152	H	0.827548	0.910068	-0.106532
H153	H	1.160881	1.243402	0.226802
H154	H	0.978217	0.576378	-0.924666
H155	H	1.311551	0.909712	-0.591333
H156	H	1.644884	1.243045	-0.258000
O157	O	0.488110	0.343047	-0.261912
O158	O	0.821443	0.676380	0.071421
O159	O	1.154776	1.009714	0.404754
C160	C	0.443606	0.397888	-0.214325
C161	C	0.776940	0.731221	0.119008
C162	C	1.110273	1.064554	0.452342
H163	H	0.466751	0.473848	-0.209677
H164	H	0.800085	0.807181	0.123656
H165	H	1.133418	1.140514	0.456989
H166	H	0.442716	0.362905	-0.157735
H167	H	0.776049	0.696238	0.175598
H168	H	1.109382	1.029571	0.508932
H169	H	0.385367	0.401256	-0.237081
H170	H	0.718701	0.734590	0.096253
H171	H	1.052034	1.067923	0.429586
H172	H	0.633620	0.352595	-0.269359
H173	H	0.966953	0.685928	0.063974
H174	H	1.300287	1.019261	0.397308
O175	O	1.156530	0.342832	-0.930651
O176	O	1.489864	0.676165	-0.597317
O177	O	1.823197	1.009499	-0.263984
C178	C	1.198068	0.288390	-0.880265
C179	C	1.531401	0.621723	-0.546932
C180	C	1.864735	0.955057	-0.213599
H181	H	1.200596	0.327919	-0.825475
H182	H	1.533929	0.661252	-0.492141
H183	H	1.867262	0.994586	-0.158808
H184	H	1.256058	0.278097	-0.902485
H185	H	1.589391	0.611431	-0.569151
H186	H	1.922724	0.944764	-0.235818
H187	H	1.171140	0.215132	-0.872094
H188	H	1.504474	0.548465	-0.538760
H189	H	1.837807	0.881799	-0.205427
