data_functionalizedCrystal
_audit_creation_method	'MofGen! by Chris Wilmer'
_symmetry_space_group_name_H-M	'P1'
_symmetry_Int_Tables_number	1
_symmetry_cell_setting	triclinic
loop_
_symmetry_equiv_pos_as_xyz
  x,y,z
_cell_length_a	17.699097
_cell_length_b	16.109298
_cell_length_c	14.586319
_cell_angle_alpha	89.994791
_cell_angle_beta	90.009439
_cell_angle_gamma	83.374310
loop_
_atom_site_label
_atom_site_type_symbol
_atom_site_fract_x
_atom_site_fract_y
_atom_site_fract_z
O1	O	1.004221	0.105184	0.076306
O2	O	1.504221	0.605184	0.576306
O3	O	0.783863	0.118852	0.076289
O4	O	1.283863	0.618852	0.576289
O5	O	0.900096	-0.009023	0.076304
O6	O	1.400096	0.490977	0.576304
O7	O	0.887987	0.233059	0.076290
O8	O	1.387987	0.733059	0.576290
O9	O	0.900082	-0.009016	-0.076176
O10	O	1.400082	0.490984	0.423824
O11	O	0.783849	0.118859	-0.076192
O12	O	1.283849	0.618859	0.423808
O13	O	1.004206	0.105192	-0.076175
O14	O	1.504206	0.605192	0.423825
Cu15	Cu	0.894026	0.112026	-0.090106
Cu16	Cu	1.394026	0.612026	0.409894
Cu17	Cu	0.894043	0.112017	0.090220
Cu18	Cu	1.394043	0.612017	0.590220
O19	O	0.887973	0.233067	-0.076190
O20	O	1.387973	0.733067	0.423810
C21	C	0.755658	0.118364	0.000047
C22	C	1.255658	0.618364	0.500047
C23	C	0.671639	0.116889	0.000041
C24	C	1.171639	0.616889	0.500041
C25	C	0.155915	0.107845	0.083196
C26	C	0.655915	0.607845	0.583196
C27	C	0.234861	0.109225	0.083192
C28	C	0.734861	0.609225	0.583192
C29	C	0.274321	0.109921	0.000070
C30	C	0.774321	0.609921	0.500070
C31	C	0.234831	0.109228	-0.083051
C32	C	0.734831	0.609228	0.416949
C33	C	0.155887	0.107842	-0.083046
C34	C	0.655887	0.607842	0.416954
C35	C	0.553203	0.114816	-0.083076
C36	C	1.053203	0.614816	0.416924
C37	C	0.632152	0.116205	-0.083075
C38	C	1.132152	0.616205	0.416925
C39	C	0.632177	0.116200	0.083161
C40	C	1.132177	0.616200	0.583161
C41	C	0.553233	0.114814	0.083167
C42	C	1.053233	0.614814	0.583167
C43	C	0.513751	0.114116	0.000046
C44	C	1.013751	0.614116	0.500046
C45	C	0.428149	0.112618	0.000052
C46	C	0.928149	0.612618	0.500052
C47	C	0.359921	0.111425	0.000063
C48	C	0.859921	0.611425	0.500063
C49	C	0.899599	-0.039993	0.000068
C50	C	1.399599	0.460007	0.500068
C51	C	0.898130	-0.132286	0.000078
C52	C	1.398130	0.367714	0.500078
C53	C	1.032411	0.105680	0.000069
C54	C	1.532411	0.605680	0.500069
C55	C	1.116431	0.107155	0.000081
C56	C	1.616431	0.607155	0.500081
C57	C	0.893343	-0.431351	0.083176
C58	C	1.393343	0.068649	0.583176
C59	C	0.894734	-0.344634	0.083183
C60	C	1.394734	0.155366	0.583183
C61	C	0.894729	-0.344611	-0.083060
C62	C	1.394729	0.155389	0.416940
C63	C	0.893344	-0.431328	-0.083066
C64	C	1.393344	0.068672	0.416934
C65	C	0.892647	-0.474695	0.000055
C66	C	1.392647	0.025305	0.500055
C67	C	0.895423	-0.301261	0.000067
C68	C	1.395423	0.198739	0.500067
C69	C	0.896931	-0.207238	0.000074
C70	C	1.396931	0.292762	0.500074
C71	C	0.891140	-0.568725	0.000049
C72	C	1.391140	-0.068725	0.500049
C73	C	0.888470	0.264037	0.000048
C74	C	1.388470	0.764037	0.500048
C75	C	0.889939	0.356330	0.000044
C76	C	1.389939	0.856330	0.500044
N77	N	0.894020	0.112032	-0.216938
N78	N	1.394020	0.612032	0.283062
C79	C	0.939921	0.162384	-0.451944
C80	C	1.439921	0.662384	0.048056
C81	C	0.939929	0.162378	-0.547925
C82	C	1.439929	0.662378	-0.047925
C83	C	0.848152	0.061647	-0.547936
C84	C	1.348152	0.561647	-0.047936
C85	C	0.848149	0.061649	-0.451956
C86	C	1.348149	0.561649	0.048044
C87	C	0.894032	0.112022	-0.403963
C88	C	1.394032	0.612022	0.096037
C89	C	0.894043	0.112015	-0.595923
C90	C	1.394043	0.612015	-0.095923
C91	C	0.894052	0.112008	-0.699991
C92	C	1.394052	0.612008	-0.199991
C93	C	0.894025	0.112028	-0.299889
C94	C	1.394025	0.612028	0.200111
N95	N	0.894055	0.112005	0.217052
N96	N	1.394055	0.612005	0.717052
H97	H	0.521109	0.114252	0.150853
H98	H	1.021109	0.614252	0.650853
H99	H	0.266965	0.109789	-0.150730
H100	H	0.766965	0.609789	0.349270
H101	H	0.977298	0.203387	-0.586987
H102	H	1.477298	0.703387	-0.086987
C103	C	0.895497	-0.296959	0.174623
C104	C	1.395497	0.203041	0.674623
N105	N	0.896073	-0.261051	0.243499
N106	N	1.396073	0.238949	0.743499
C107	C	0.990401	0.217789	-0.399154
C108	C	1.490401	0.717789	0.100846
N109	N	1.028426	0.259518	-0.359396
N110	N	1.528426	0.759518	0.140604
C111	C	0.892575	-0.479009	-0.174510
C112	C	1.392575	0.020991	0.325490
N113	N	0.891998	-0.514922	-0.243384
N114	N	1.391998	-0.014922	0.256616
H115	H	0.664277	0.116771	-0.150766
H116	H	1.164277	0.616771	0.349234
C117	C	0.895483	-0.296897	-0.174488
C118	C	1.395483	0.203103	0.325512
N119	N	0.896047	-0.260959	-0.243354
N120	N	1.396047	0.239041	0.256646
C121	C	0.278292	0.109974	0.174625
C122	C	0.778292	0.609974	0.674625
N123	N	0.311005	0.110533	0.243497
N124	N	0.811005	0.610533	0.743497
H125	H	0.810795	0.020636	-0.587024
H126	H	1.310795	0.520636	-0.087024
C127	C	0.797664	0.006245	-0.399174
C128	C	1.297664	0.506245	0.100826
N129	N	0.759641	-0.035484	-0.359418
N130	N	1.259641	0.464516	0.140582
C131	C	0.675616	0.116956	0.174598
C132	C	1.175616	0.616956	0.674598
N133	N	0.708334	0.117526	0.243465
N134	N	1.208334	0.617526	0.743465
C135	C	0.112454	0.107086	-0.174479
C136	C	0.612454	0.607086	0.325521
N137	N	0.079741	0.106514	-0.243350
N138	N	0.579741	0.606514	0.256650
C139	C	0.112518	0.107079	0.174638
C140	C	0.612518	0.607079	0.674638
N141	N	0.079833	0.106498	0.243514
N142	N	0.579833	0.606498	0.743514
H143	H	0.521067	0.114236	-0.150758
H144	H	1.021067	0.614236	0.349242
H145	H	0.892774	-0.466658	0.150858
H146	H	1.392774	0.033342	0.650858
