data_functionalizedCrystal
_audit_creation_method	'MofGen! by Chris Wilmer'
_symmetry_space_group_name_H-M	'P1'
_symmetry_Int_Tables_number	1
_symmetry_cell_setting	triclinic
loop_
_symmetry_equiv_pos_as_xyz
  x,y,z
_cell_length_a	12.759395
_cell_length_b	18.050589
_cell_length_c	12.759387
_cell_angle_alpha	90.030942
_cell_angle_beta	89.981185
_cell_angle_gamma	89.963765
loop_
_atom_site_label
_atom_site_type_symbol
_atom_site_fract_x
_atom_site_fract_y
_atom_site_fract_z
Zn1	Zn	1.606105	0.295581	-0.594012
Zn2	Zn	1.605940	0.419793	-0.418336
Zn3	Zn	1.430409	0.295624	-0.418349
Zn4	Zn	1.430334	0.419737	-0.593975
O5	O	1.518197	0.357684	-0.506168
O6	O	1.753104	0.312063	-0.570719
O7	O	1.582617	0.403363	-0.271317
O8	O	1.453815	0.191694	-0.441673
O9	O	1.752983	0.403321	-0.441650
O10	O	1.582899	0.191662	-0.570732
O11	O	1.453655	0.312137	-0.271326
O12	O	1.283378	0.312083	-0.441636
O13	O	1.453689	0.403227	-0.741001
O14	O	1.283323	0.403268	-0.570668
O15	O	1.582827	0.312010	-0.741029
O16	O	1.582545	0.523710	-0.441614
O17	O	1.453529	0.523669	-0.570655
C18	C	1.245229	0.357675	-0.506150
C19	C	1.128453	0.357689	-0.506167
C20	C	1.518039	0.550636	-0.506152
C21	C	1.518068	0.633182	-0.506180
C22	C	1.128435	0.452794	-0.640310
C23	C	1.073565	0.500352	-0.707385
C24	C	0.963843	0.500361	-0.707398
C25	C	0.908989	0.452805	-0.640331
C26	C	0.963859	0.405247	-0.573257
C27	C	1.073583	0.405245	-0.573249
C28	C	0.963877	0.310139	-0.439120
C29	C	1.073599	0.310133	-0.439101
C30	C	0.909023	0.262583	-0.372054
C31	C	0.963893	0.215028	-0.304972
C32	C	1.073621	0.215021	-0.304961
C33	C	1.128468	0.262575	-0.372026
C34	C	1.447946	0.832637	-0.576329
C35	C	1.422325	0.882087	-0.480460
C36	C	1.518147	0.784312	-0.506194
C37	C	1.543796	0.881944	-0.602074
C38	C	1.518221	0.930297	-0.506217
C39	C	1.492475	0.832675	-0.410275
C40	C	1.613992	0.832527	-0.531954
C41	C	1.588407	0.881955	-0.436019
C42	C	1.518101	0.700214	-0.506183
C43	C	1.518267	1.014394	-0.506217
C44	C	1.792230	0.357694	-0.506187
C45	C	1.909007	0.357698	-0.506195
C46	C	1.518268	0.357607	-0.780202
C47	C	1.518299	0.357575	-0.896979
C48	C	1.518344	1.163978	-0.506209
C49	C	1.518304	1.081433	-0.506230
C50	C	1.384019	0.262575	-0.897008
C51	C	1.316899	0.215060	-0.951883
C52	C	1.316930	0.215033	-1.061605
C53	C	1.384087	0.262528	-1.116454
C54	C	1.451208	0.310042	-1.061578
C55	C	1.451171	0.310062	-0.951854
C56	C	1.585480	0.405045	-1.061549
C57	C	1.585456	0.405069	-0.951827
C58	C	1.652637	0.452540	-1.116398
C59	C	1.719764	0.500052	-1.061523
C60	C	1.719731	0.500076	-0.951794
C61	C	1.652576	0.452584	-0.896952
C62	C	1.518186	0.357707	-0.233201
C63	C	1.518360	0.357530	-0.116425
H64	H	1.118239	0.539070	-0.761991
H65	H	1.262274	0.176343	-1.106284
H66	H	1.565462	0.903587	-0.683150
O67	O	1.383824	0.262663	-0.790425
C68	C	1.283094	0.281709	-0.753752
H69	H	1.239638	0.314067	-0.816968
H70	H	1.237635	0.229129	-0.734299
C71	C	1.346543	0.290090	-0.576935
C72	C	1.293173	0.329838	-0.654574
H73	H	1.352759	0.319776	-0.515755
H74	H	1.414407	0.277256	-0.601641
H75	H	1.308654	0.246275	-0.560737
H76	H	1.331069	0.373647	-0.670781
H77	H	1.225315	0.342681	-0.629869
H78	H	1.262219	0.176392	-0.907213
O79	O	1.784959	0.546113	-1.114963
C80	C	1.770567	0.535920	-1.223572
H81	H	1.736222	0.478601	-1.238574
H82	H	1.714578	0.579959	-1.254686
C83	C	1.919056	0.613122	-1.261492
C84	C	1.876881	0.542720	-1.279918
H85	H	1.984634	0.617320	-1.296250
H86	H	1.928751	0.619992	-1.188320
H87	H	1.872388	0.649814	-1.287420
H88	H	1.923542	0.506030	-1.253978
H89	H	1.867196	0.535843	-1.353087
H90	H	1.774392	0.538766	-0.907121
O91	O	1.652537	0.452745	-0.790369
C92	C	1.625434	0.523921	-0.753691
H93	H	1.643358	0.566686	-0.816907
H94	H	1.538250	0.525487	-0.734227
C95	C	1.667371	0.489259	-0.576880
C96	C	1.689394	0.541785	-0.654520
H97	H	1.706820	0.500279	-0.515704
H98	H	1.685627	0.441306	-0.601589
H99	H	1.594716	0.490570	-0.560673
H100	H	1.762044	0.540467	-0.670735
H101	H	1.671151	0.589739	-0.629811
H102	H	1.652653	0.452518	-1.205739
O103	O	0.910700	0.546623	-0.772592
C104	C	0.982636	0.588578	-0.831810
H105	H	1.060830	0.591115	-0.788766
H106	H	0.994361	0.561445	-0.911666
C107	C	0.843708	0.664513	-0.899637
C108	C	0.939746	0.667635	-0.846765
H109	H	0.817251	0.713278	-0.908867
H110	H	0.795242	0.636246	-0.859744
H111	H	0.853492	0.641900	-0.966178
H112	H	0.929958	0.690239	-0.780221
H113	H	0.988209	0.695908	-0.886647
O114	O	0.802440	0.262473	-0.372158
C115	C	0.765841	0.191321	-0.399299
H116	H	0.829110	0.160654	-0.445178
H117	H	0.746366	0.159082	-0.325002
C118	C	0.588996	0.236239	-0.410986
C119	C	0.666701	0.198575	-0.467343
H120	H	0.527839	0.240712	-0.452954
H121	H	0.613652	0.284175	-0.392697
H122	H	0.572780	0.209368	-0.349074
H123	H	0.682925	0.225451	-0.529245
H124	H	0.642046	0.150643	-0.485644
O125	O	0.910563	0.168943	-0.239718
C126	C	0.847005	0.211168	-0.171786
H127	H	0.880020	0.269653	-0.165145
H128	H	0.763864	0.213758	-0.204280
C129	C	0.804743	0.102962	-0.070814
C130	C	0.845297	0.174791	-0.062650
H131	H	0.803684	0.080522	-0.003495
H132	H	0.847559	0.074513	-0.116583
H133	H	0.735462	0.105129	-0.097897
H134	H	0.914581	0.172622	-0.035581
H135	H	0.802492	0.203239	-0.016874
H136	H	1.384098	0.262508	-1.205795
O137	O	1.126756	0.168800	-0.239702
C138	C	1.054807	0.126820	-0.180536
H139	H	0.976568	0.157239	-0.176836
H140	H	1.043203	0.070451	-0.219154
C141	C	1.193676	0.078654	-0.073281
C142	C	1.097583	0.116019	-0.068730
H143	H	1.220062	0.071987	-0.004315
H144	H	1.242150	0.106934	-0.113144
H145	H	1.183992	0.031684	-0.105467
H146	H	1.107270	0.162991	-0.036556
H147	H	1.049111	0.087745	-0.028859
O148	O	1.466540	0.807094	-0.313450
C149	C	1.448422	0.867517	-0.245741
H150	H	1.490972	0.918493	-0.276821
H151	H	1.360733	0.879312	-0.241537
C152	C	1.437344	0.786117	-0.097302
C153	C	1.489612	0.848725	-0.135470
H154	H	1.462747	0.774525	-0.029280
H155	H	1.449547	0.745408	-0.142919
H156	H	1.364273	0.795955	-0.093807
H157	H	1.562680	0.838884	-0.138976
H158	H	1.477423	0.889432	-0.089851
H159	H	1.217776	0.452797	-0.640299
H160	H	0.819648	0.452810	-0.640357
H161	H	1.217810	0.262576	-0.372021
H162	H	1.341307	0.903872	-0.458693
O163	O	1.376958	0.806921	-0.646998
C164	C	1.326627	0.867248	-0.695918
H165	H	1.332067	0.918137	-0.643254
H166	H	1.366378	0.879365	-0.774078
C167	C	1.203920	0.785534	-0.779597
C168	C	1.210594	0.848035	-0.714910
H169	H	1.132347	0.773682	-0.791317
H170	H	1.237831	0.744890	-0.746642
H171	H	1.237052	0.795639	-0.844723
H172	H	1.177474	0.837925	-0.649781
H173	H	1.176675	0.888677	-0.747854
O174	O	1.659151	0.907598	-0.365055
C175	C	1.631773	0.882344	-0.264152
H176	H	1.544600	0.868617	-0.262076
H177	H	1.679116	0.830569	-0.244673
C178	C	1.762735	0.960097	-0.185600
C179	C	1.655667	0.943244	-0.183047
H180	H	1.777478	0.997661	-0.135569
H181	H	1.781184	0.977110	-0.253580
H182	H	1.802175	0.916947	-0.169370
H183	H	1.616230	0.986391	-0.199290
H184	H	1.637212	0.926240	-0.115068
H185	H	1.694991	0.810744	-0.553767
