data_functionalizedCrystal
_audit_creation_method	'MofGen! by Chris Wilmer'
_symmetry_space_group_name_H-M	'P1'
_symmetry_Int_Tables_number	1
_symmetry_cell_setting	triclinic
loop_
_symmetry_equiv_pos_as_xyz
  x,y,z
_cell_length_a	13.339070
_cell_length_b	15.995350
_cell_length_c	12.376457
_cell_angle_alpha	101.278656
_cell_angle_beta	75.589755
_cell_angle_gamma	99.560835
loop_
_atom_site_label
_atom_site_type_symbol
_atom_site_fract_x
_atom_site_fract_y
_atom_site_fract_z
O1	O	1.361687	0.408219	-0.094025
O2	O	1.067160	0.353123	-0.094021
O3	O	1.222474	0.260654	-0.094022
O4	O	1.206373	0.500688	-0.094024
O5	O	1.183660	0.283730	0.093990
O6	O	1.028345	0.376200	0.093991
O7	O	1.322873	0.431295	0.093987
Zn8	Zn	1.169446	0.407411	0.123840
Zn9	Zn	1.220586	0.377007	-0.123874
O10	O	1.167558	0.523765	0.093988
C11	C	1.010063	0.355354	-0.000015
C12	C	0.897761	0.327613	-0.000013
C13	C	0.532972	0.543314	-0.000033
C14	C	0.638486	0.569381	-0.000038
C15	C	0.703309	0.508941	-0.000031
C16	C	0.662609	0.422430	-0.000021
C17	C	0.557087	0.396360	-0.000025
C18	C	0.727425	0.361987	-0.000023
C19	C	0.686725	0.275476	-0.000013
C20	C	0.581212	0.249410	-0.000016
C21	C	0.516389	0.309850	-0.000023
C22	C	0.832947	0.388057	-0.000019
C23	C	0.857062	0.241103	-0.000011
C24	C	0.751549	0.215036	-0.000006
C25	C	1.202402	0.240842	-0.000018
C26	C	1.200407	0.147428	-0.000025
C27	C	1.193239	-0.191985	-0.000021
C28	C	1.082714	-0.170299	-0.000441
C29	C	1.084622	-0.073093	-0.000017
C30	C	1.196795	-0.023598	-0.000023
C31	C	1.229188	-0.038823	0.107338
C32	C	1.226391	-0.136094	0.107428
C33	C	1.272816	-0.162164	-0.106377
C34	C	1.273082	-0.065398	-0.107796
C35	C	1.198810	0.071568	-0.000021
C36	C	1.191226	-0.287149	-0.000015
C37	C	1.379970	0.429064	-0.000022
C38	C	1.492273	0.456804	-0.000031
C39	C	1.187631	0.543576	-0.000018
C40	C	1.189627	0.636990	-0.000019
N41	N	1.134551	0.428163	0.292899
N42	N	1.255489	0.356251	-0.292933
C43	C	1.336490	0.308063	0.647882
C44	C	1.360907	0.293538	0.529542
C45	C	1.304320	0.327193	0.470376
C46	C	1.223312	0.375376	0.529561
C47	C	1.198898	0.389908	0.647912
C48	C	1.166728	0.409038	0.470405
C49	C	1.085720	0.457221	0.529590
C50	C	1.061310	0.471751	0.647930
C51	C	1.117897	0.438096	0.707097
C52	C	1.191142	0.394505	0.352054
C53	C	1.053550	0.476350	0.352084
C54	C	1.029133	0.490876	0.470424
H55	H	0.866073	0.458495	-0.000023
N56	N	1.394311	0.273693	0.708293
N57	N	1.490542	0.294990	0.695042
H58	H	1.531388	0.270714	0.737704
H59	H	1.257099	0.355275	0.303876
H60	H	0.789223	0.530169	-0.000038
N61	N	1.007675	-0.195923	0.095607
N62	N	1.035243	-0.230086	0.164367
H63	H	0.982249	-0.248184	0.232203
H64	H	0.995356	0.510992	0.696119
N65	N	0.466749	0.605029	-0.000064
N66	N	0.372544	0.581738	-0.000081
H67	H	0.325773	0.625327	-0.000108
H68	H	0.548081	0.178966	-0.000020
N69	N	1.243706	-0.054946	-0.207430
N70	N	1.306513	-0.014791	-0.278442
H71	H	1.285767	-0.007392	-0.348804
H72	H	1.324204	0.315364	0.374018
H73	H	0.909843	0.191887	-0.000011
H74	H	1.310774	-0.005063	0.111327
H75	H	0.671618	0.639816	-0.000055
H76	H	0.430470	0.288631	-0.000018
H77	H	1.054398	-0.208552	-0.077432
H78	H	1.057625	-0.064081	-0.076978
N79	N	0.709951	0.126674	0.000009
N80	N	0.615737	0.103415	0.000011
H81	H	0.586356	0.041010	0.000024
H82	H	1.356221	-0.031829	-0.114283
N83	N	0.946388	0.540087	0.530903
N84	N	0.924603	0.553050	0.636567
H85	H	0.866163	0.587805	0.679283
N86	N	1.092961	0.452919	0.827982
N87	N	1.143488	0.422856	0.880788
H88	H	1.125880	0.433322	0.966165
H89	H	1.025532	-0.045796	0.077076
H90	H	1.426864	0.254309	0.481358
H91	H	1.170038	-0.153787	0.187687
N92	N	1.327005	-0.152123	0.113549
N93	N	1.399062	-0.091497	0.117749
H94	H	1.470118	-0.102813	0.122080
N95	N	1.160954	-0.001960	0.207565
N96	N	1.088422	0.035551	0.200203
H97	H	1.040225	0.061584	0.270986
H98	H	1.253451	-0.201093	-0.187751
N99	N	0.995759	0.510734	0.291642
N100	N	1.017569	0.497755	0.185978
H101	H	0.976762	0.522039	0.143283
N102	N	1.375310	-0.178340	-0.107267
N103	N	1.389824	-0.211681	-0.029996
H104	H	1.462207	-0.223105	-0.030612
