data_functionalizedCrystal
_audit_creation_method	'MofGen! by Chris Wilmer'
_symmetry_space_group_name_H-M	'P1'
_symmetry_Int_Tables_number	1
_symmetry_cell_setting	triclinic
loop_
_symmetry_equiv_pos_as_xyz
  x,y,z
_cell_length_a	16.109318
_cell_length_b	10.489716
_cell_length_c	15.186229
_cell_angle_alpha	90.000291
_cell_angle_beta	90.000224
_cell_angle_gamma	83.998849
loop_
_atom_site_label
_atom_site_type_symbol
_atom_site_fract_x
_atom_site_fract_y
_atom_site_fract_z
O1	O	1.104123	0.164054	-0.073147
O2	O	1.604123	0.664054	0.426853
O3	O	0.862188	0.184434	-0.073164
O4	O	1.362188	0.684434	0.426836
O5	O	0.988671	-0.011435	-0.073159
O6	O	1.488671	0.488565	0.426841
O7	O	0.977640	0.359923	-0.073153
O8	O	1.477640	0.859923	0.426847
O9	O	0.988663	-0.011438	0.073299
O10	O	1.488663	0.488562	0.573299
O11	O	0.862179	0.184431	0.073293
O12	O	1.362179	0.684431	0.573293
O13	O	1.104115	0.164051	0.073310
O14	O	1.604115	0.664051	0.573310
Zn15	Zn	0.983146	0.174241	0.096555
Zn16	Zn	1.483146	0.674241	0.596555
Zn17	Zn	0.983157	0.174245	-0.096409
Zn18	Zn	1.483157	0.674245	0.403591
O19	O	0.977631	0.359921	0.073304
O20	O	1.477631	0.859921	0.573304
C21	C	0.831204	0.183603	0.000062
C22	C	1.331204	0.683603	0.500062
C23	C	0.738894	0.181117	0.000055
C24	C	1.238894	0.681117	0.500055
C25	C	0.439776	0.173087	-0.079763
C26	C	0.939776	0.673087	0.420237
C27	C	0.526512	0.175415	-0.079768
C28	C	1.026512	0.675415	0.420232
C29	C	0.526521	0.175394	0.079907
C30	C	1.026521	0.675394	0.579907
C31	C	0.439788	0.173057	0.079912
C32	C	0.939788	0.673057	0.579912
C33	C	0.396417	0.171910	0.000074
C34	C	0.896417	0.671910	0.500074
C35	C	0.569886	0.176575	0.000064
C36	C	1.069886	0.676575	0.500064
C37	C	0.663928	0.179099	0.000059
C38	C	1.163928	0.679099	0.500059
C39	C	0.302369	0.169384	0.000079
C40	C	0.802369	0.669384	0.500079
C41	C	0.987838	-0.058957	0.000067
C42	C	1.487838	0.441043	0.500067
C43	C	0.985358	-0.200552	0.000059
C44	C	1.485358	0.299448	0.500059
C45	C	1.062922	-0.299344	0.000073
C46	C	1.562922	0.200656	0.500073
C47	C	1.021940	-0.376112	-0.072139
C48	C	1.521940	0.123888	0.427861
C49	C	1.021914	-0.376079	0.072256
C50	C	1.521914	0.123921	0.572256
C51	C	0.944409	-0.275456	-0.072212
C52	C	1.444409	0.224544	0.427788
C53	C	0.944394	-0.275417	0.072248
C54	C	1.444394	0.224583	0.572248
C55	C	0.903355	-0.352136	0.000019
C56	C	1.403355	0.147864	0.500019
C57	C	1.135099	0.164882	0.000082
C58	C	1.635099	0.664882	0.500082
C59	C	1.227409	0.167369	0.000083
C60	C	1.727409	0.667369	0.500083
C61	C	0.978464	0.407442	0.000076
C62	C	1.478464	0.907442	0.500076
C63	C	0.980944	0.549038	0.000079
C64	C	1.480944	1.049038	0.500079
N65	N	0.983144	0.174238	0.228247
N66	N	1.483144	0.674238	0.728247
N67	N	0.983165	0.174238	-0.228102
N68	N	1.483165	0.674238	0.271898
C69	C	1.039170	0.087536	0.453973
C70	C	1.539170	0.587536	0.953973
C71	C	1.039173	0.087533	0.546162
C72	C	1.539173	0.587533	1.046162
C73	C	0.927133	0.260944	0.546167
C74	C	1.427133	0.760944	1.046167
C75	C	0.927127	0.260940	0.453979
C76	C	1.427127	0.760940	0.953979
C77	C	0.983150	0.174237	0.407884
C78	C	1.483150	0.674237	0.907884
C79	C	0.983159	0.174238	0.592262
C80	C	1.483159	0.674238	1.092262
C81	C	0.983161	0.174236	0.692218
C82	C	1.483161	0.674236	1.192218
C83	C	0.983147	0.174238	0.307922
C84	C	1.483147	0.674238	0.807922
H85	H	0.561844	0.176331	0.144908
H86	H	1.061844	0.676331	0.644908
N87	N	1.096386	-0.001057	0.593232
N88	N	1.596386	0.498943	1.093232
N89	N	1.094541	-0.118951	0.582923
N90	N	1.594541	0.381049	1.082923
H91	H	1.134949	-0.181528	0.616163
H92	H	1.634949	0.318472	1.116163
H93	H	0.911676	-0.231428	0.133297
H94	H	1.411676	0.268572	0.633297
N95	N	1.147560	-0.269618	-0.000017
N96	N	1.647560	0.230382	0.499983
N97	N	1.195058	-0.306485	-0.062115
N98	N	1.695058	0.193515	0.437885
H99	H	1.254833	-0.285491	-0.062182
H100	H	1.754833	0.214509	0.437818
N101	N	1.063011	-0.431202	0.148837
N102	N	1.563011	0.068798	0.648837
N103	N	1.138437	-0.419171	0.161687
N104	N	1.638437	0.080829	0.661687
H105	H	1.167469	-0.458101	0.215769
H106	H	1.667469	0.041899	0.715769
H107	H	0.561811	0.176371	-0.144780
H108	H	1.061811	0.676371	0.355220
N109	N	0.395506	0.171843	0.161476
N110	N	0.895506	0.671843	0.661476
N111	N	0.434236	0.172874	0.232753
N112	N	0.934236	0.672874	0.732753
H113	H	0.402963	0.172010	0.290356
H114	H	0.902963	0.672010	0.790356
N115	N	1.096349	-0.001110	0.406901
N116	N	1.596349	0.498890	0.906901
N117	N	1.146328	-0.078568	0.448068
N118	N	1.646328	0.421432	0.948068
H119	H	1.186693	-0.141209	0.414827
H120	H	1.686693	0.358791	0.914827
N121	N	1.063024	-0.431254	-0.148721
N122	N	1.563024	0.068746	0.351279
N123	N	1.138449	-0.419233	-0.161586
N124	N	1.638449	0.080767	0.338414
H125	H	1.167470	-0.458171	-0.215671
H126	H	1.667470	0.041829	0.284329
H127	H	0.835837	-0.375593	-0.000025
H128	H	1.335837	0.124407	0.499975
H129	H	0.881521	0.331537	0.583706
H130	H	1.381521	0.831537	1.083706
N131	N	0.869913	0.349530	0.406895
N132	N	1.369913	0.849530	0.906895
N133	N	0.896760	0.428715	0.355452
N134	N	1.396760	0.928715	0.855452
H135	H	0.856354	0.491279	0.322199
H136	H	1.356354	0.991279	0.822199
N137	N	0.395488	0.171887	-0.161320
N138	N	0.895488	0.671887	0.338680
N139	N	0.412308	0.082293	-0.214776
N140	N	0.912308	0.582293	0.285224
H141	H	0.381033	0.081440	-0.272379
H142	H	0.881033	0.581440	0.227621
N143	N	0.903364	-0.220530	-0.148882
N144	N	1.403364	0.279470	0.351118
N145	N	0.898695	-0.102194	-0.161278
N146	N	1.398695	0.397806	0.338722
H147	H	0.869710	-0.063399	-0.215426
H148	H	1.369710	0.436601	0.284574
