data_functionalizedCrystal
_audit_creation_method	'MofGen! by Chris Wilmer'
_symmetry_space_group_name_H-M	'P1'
_symmetry_Int_Tables_number	1
_symmetry_cell_setting	triclinic
loop_
_symmetry_equiv_pos_as_xyz
  x,y,z
_cell_length_a	14.908571
_cell_length_b	12.759394
_cell_length_c	14.908308
_cell_angle_alpha	93.268403
_cell_angle_beta	90.175053
_cell_angle_gamma	86.711101
loop_
_atom_site_label
_atom_site_type_symbol
_atom_site_fract_x
_atom_site_fract_y
_atom_site_fract_z
Zn1	Zn	1.345341	-0.548282	-0.587592
Zn2	Zn	1.353935	-0.714462	-0.437236
Zn3	Zn	1.203654	-0.528102	-0.428590
Zn4	Zn	1.194963	-0.713213	-0.578887
O5	O	1.274473	-0.626015	-0.508076
O6	O	1.472308	-0.579294	-0.574908
O7	O	1.341234	-0.681818	-0.310264
O8	O	1.222490	-0.383762	-0.449706
O9	O	1.478622	-0.701385	-0.464442
O10	O	1.326587	-0.398588	-0.566525
O11	O	1.230824	-0.544900	-0.303912
O12	O	1.076675	-0.543690	-0.441266
O13	O	1.207676	-0.699258	-0.705867
O14	O	1.070289	-0.679690	-0.551688
O15	O	1.318159	-0.578083	-0.712262
O16	O	1.332806	-0.861313	-0.456001
O17	O	1.216010	-0.860396	-0.560072
C18	C	1.040856	-0.609365	-0.494595
C19	C	0.940913	-0.602270	-0.488849
C20	C	0.746516	-0.730752	-0.592880
C21	C	0.652610	-0.724088	-0.587484
C22	C	0.659192	-0.582274	-0.472666
C23	C	0.753098	-0.588938	-0.478062
C24	C	0.796757	-0.663180	-0.538170
C25	C	0.890665	-0.669848	-0.543561
C26	C	0.897246	-0.528030	-0.428748
C27	C	0.803340	-0.521366	-0.423352
C28	C	1.274420	-0.898977	-0.508051
C29	C	1.274478	-1.015759	-0.508075
C30	C	1.396180	-1.016672	-0.399798
C31	C	1.457053	-1.071992	-0.345671
C32	C	1.457105	-1.181719	-0.345698
C33	C	1.396278	-1.236129	-0.399860
C34	C	1.335404	-1.180809	-0.453987
C35	C	1.335358	-1.071079	-0.453952
C36	C	1.213709	-1.179897	-0.562269
C37	C	1.213651	-1.070169	-0.562238
C38	C	1.152882	-1.234306	-0.616431
C39	C	1.092002	-1.178986	-0.670555
C40	C	1.091953	-1.069252	-0.670524
C41	C	1.152778	-1.014849	-0.616365
C42	C	1.509002	-0.642730	-0.521611
C43	C	1.608945	-0.649853	-0.527378
C44	C	1.260989	-0.640782	-0.742602
C45	C	1.255243	-0.647075	-0.842543
C46	C	1.274549	-0.351989	-0.508122
C47	C	1.274582	-0.235216	-0.508142
C48	C	1.359488	-0.532697	-1.037003
C49	C	1.354092	-0.538606	-1.130907
C50	C	1.239051	-0.664798	-1.124254
C51	C	1.244447	-0.658888	-1.030351
C52	C	1.304669	-0.592837	-0.986729
C53	C	1.310069	-0.586934	-0.892824
C54	C	1.195024	-0.713118	-0.886173
C55	C	1.189627	-0.719028	-0.980077
C56	C	1.287956	-0.611232	-0.274466
C57	C	1.293877	-0.604656	-0.174536
H58	H	0.926210	-0.730302	-0.592502
H59	H	0.782063	-0.791208	-0.641817
C60	C	1.044118	-0.475273	-0.386030
C61	C	0.952473	-0.453748	-0.368605
H62	H	1.078211	-0.429413	-0.348903
H63	H	1.060253	-0.546090	-0.373653
H64	H	1.056044	-0.464897	-0.447352
H65	H	0.940546	-0.464132	-0.307285
H66	H	0.936332	-0.382915	-0.380976
C67	C	1.134774	-0.850721	-0.529447
C68	C	1.152728	-0.894236	-0.616328
H69	H	1.134752	-0.776260	-0.529425
H70	H	1.077669	-0.870488	-0.510529
H71	H	1.179735	-0.875894	-0.489468
H72	H	1.107763	-0.869069	-0.656307
H73	H	1.209840	-0.874460	-0.635258
C74	C	1.378093	-0.385632	-0.932131
C75	C	1.425686	-0.460106	-0.989043
H76	H	1.418964	-0.340823	-0.902520
H77	H	1.336836	-0.344957	-0.966510
H78	H	1.346214	-0.420613	-0.888755
H79	H	1.457559	-0.425125	-1.032424
H80	H	1.466959	-0.500786	-0.954662
C81	C	1.328654	-0.439859	-0.787962
C82	C	1.376258	-0.514326	-0.844870
H83	H	1.369518	-0.395035	-0.758356
H84	H	1.287387	-0.399198	-0.822342
H85	H	1.296785	-0.474844	-0.744581
H86	H	1.408121	-0.479341	-0.888256
H87	H	1.417541	-0.554991	-0.810487
C88	C	0.655540	-0.864934	-0.701516
C89	C	0.597384	-0.798366	-0.647622
H90	H	0.621444	-0.910793	-0.738641
H91	H	0.690195	-0.823987	-0.738077
H92	H	0.694411	-0.905180	-0.664379
H93	H	0.558516	-0.758114	-0.684760
H94	H	0.562713	-0.839317	-0.611058
C95	C	1.462360	-0.859983	-0.340792
C96	C	1.396120	-0.896058	-0.399761
H97	H	1.462326	-0.785521	-0.340774
H98	H	1.450194	-0.880096	-0.281880
H99	H	1.519486	-0.889857	-0.359743
H100	H	1.338993	-0.866191	-0.380806
H101	H	1.408280	-0.875936	-0.458686
C102	C	0.518155	-0.509039	-0.413475
C103	C	0.611190	-0.500633	-0.406636
H104	H	0.488522	-0.458629	-0.372716
H105	H	0.499337	-0.496522	-0.473035
H106	H	0.503512	-0.577666	-0.399297
H107	H	0.625834	-0.432008	-0.420821
H108	H	0.630016	-0.513142	-0.347063
C109	C	0.783139	-0.458287	-0.269508
C110	C	0.755345	-0.439763	-0.357283
H111	H	0.753513	-0.407904	-0.228721
H112	H	0.768496	-0.526919	-0.255373
H113	H	0.846257	-0.452584	-0.264901
H114	H	0.692227	-0.445474	-0.361892
H115	H	0.769981	-0.371114	-0.371423
C116	C	1.509692	-1.031792	-0.195966
C117	C	1.523909	-1.012183	-0.286132
H118	H	1.550970	-0.994875	-0.159212
H119	H	1.450044	-1.008741	-0.179283
H120	H	1.518437	-1.105062	-0.188250
H121	H	1.515157	-0.938914	-0.293849
H122	H	1.583571	-1.035229	-0.302820
H123	H	1.398730	-0.489631	-1.171837
C124	C	1.170907	-1.398435	-0.703346
C125	C	1.152944	-1.354921	-0.616466
H126	H	1.170949	-1.472897	-0.703364
H127	H	1.125948	-1.373281	-0.743323
H128	H	1.228014	-1.378649	-0.722264
H129	H	1.095833	-1.374700	-0.597550
H130	H	1.197905	-1.380085	-0.576475
H131	H	1.042386	-1.024217	-0.714605
H132	H	1.506677	-1.226761	-0.301628
H133	H	1.396332	-1.325475	-0.399886
H134	H	1.190021	-0.718573	-1.159788
H135	H	1.140595	-0.772803	-1.015607
H136	H	1.150388	-0.762092	-0.845230
C137	C	1.039363	-1.219190	-0.820255
C138	C	1.025152	-1.238796	-0.730087
H139	H	0.998094	-1.256123	-0.857007
H140	H	1.030610	-1.145932	-0.827975
H141	H	1.099022	-1.242235	-0.836937
H142	H	0.965494	-1.215744	-0.713403
H143	H	1.033898	-1.312069	-0.722363
