data_functionalizedCrystal
_audit_creation_method	'MofGen! by Chris Wilmer'
_symmetry_space_group_name_H-M	'P1'
_symmetry_Int_Tables_number	1
_symmetry_cell_setting	triclinic
loop_
_symmetry_equiv_pos_as_xyz
  x,y,z
_cell_length_a	12.594517
_cell_length_b	12.594516
_cell_length_c	12.645324
_cell_angle_alpha	89.969158
_cell_angle_beta	89.976917
_cell_angle_gamma	90.015853
loop_
_atom_site_label
_atom_site_type_symbol
_atom_site_fract_x
_atom_site_fract_y
_atom_site_fract_z
Zn1	Zn	1.627285	-0.423667	-0.599457
Zn2	Zn	1.627171	-0.601692	-0.422199
Zn3	Zn	1.449284	-0.423727	-0.422201
Zn4	Zn	1.449272	-0.601603	-0.599414
O5	O	1.538253	-0.512672	-0.510818
O6	O	1.776216	-0.447294	-0.575960
O7	O	1.603531	-0.578146	-0.273852
O8	O	1.472949	-0.274773	-0.445732
O9	O	1.776132	-0.578088	-0.445730
O10	O	1.603726	-0.274729	-0.575961
O11	O	1.472838	-0.447396	-0.273853
O12	O	1.300336	-0.447311	-0.445691
O13	O	1.472928	-0.577937	-0.747767
O14	O	1.300327	-0.577996	-0.575890
O15	O	1.603714	-0.447208	-0.747798
O16	O	1.603519	-0.750626	-0.445689
O17	O	1.472817	-0.750561	-0.575888
C18	C	1.261712	-0.512651	-0.510787
C19	C	1.143406	-0.512667	-0.510798
C20	C	1.074127	-0.441491	-0.440118
C21	C	1.003316	-0.538582	-0.414047
C22	C	1.003419	-0.415624	-0.536888
C23	C	1.074153	-0.609809	-0.484676
C24	C	1.074263	-0.486786	-0.607562
C25	C	1.003483	-0.583944	-0.581527
C26	C	1.538183	-0.789213	-0.510807
C27	C	1.538251	-0.907519	-0.510838
C28	C	1.467155	-0.976775	-0.581604
C29	C	1.441219	-1.047648	-0.484871
C30	C	1.564284	-1.047444	-0.607588
C31	C	1.512263	-0.976833	-0.414054
C32	C	1.635373	-0.976623	-0.536836
C33	C	1.609474	-1.047465	-0.440037
C34	C	1.815874	-0.512694	-0.510850
C35	C	1.934179	-0.512704	-0.510863
C36	C	1.538333	-0.512556	-0.787323
C37	C	1.538367	-0.512507	-0.905153
C38	C	1.538352	-0.235051	-0.510851
C39	C	1.538394	-0.116746	-0.510866
C40	C	1.620965	-0.430504	-1.072737
C41	C	1.620700	-0.430208	-0.950177
C42	C	1.426233	-0.482026	-0.949631
C43	C	1.426735	-0.481404	-1.072229
C44	C	1.566992	-0.625111	-1.072353
C45	C	1.569446	-0.624545	-0.949748
C46	C	1.538235	-0.512711	-0.235388
C47	C	1.538407	-0.512460	-0.117558
H48	H	0.972154	-0.560495	-0.332244
O49	O	0.962219	-0.306913	-0.566086
H50	H	0.991830	-0.284902	-0.645824
H51	H	1.669659	-1.078308	-0.380135
O52	O	0.962646	-0.663784	-0.660738
H53	H	0.914194	-0.622365	-0.721345
O54	O	1.393529	-0.374164	-0.908990
H55	H	1.452392	-0.313907	-0.934884
H56	H	1.105450	-0.464843	-0.689341
H57	H	1.406924	-0.945735	-0.641361
H58	H	1.717423	-0.945406	-0.558850
O59	O	1.394650	-0.372327	-1.110138
H60	H	1.378928	-0.320518	-1.040905
O61	O	1.332509	-1.088975	-0.455739
H62	H	1.273573	-1.060671	-0.514579
O63	O	1.593384	-1.088528	-0.715950
H64	H	1.534181	-1.060215	-0.774520
H65	H	1.105146	-0.381358	-0.380273
H66	H	1.703849	-0.449296	-0.920107
H67	H	1.490207	-0.945945	-0.332223
H68	H	1.647331	-0.652860	-1.103339
H69	H	1.506867	-0.686178	-1.101347
H70	H	1.513686	-0.688894	-0.919096
H71	H	1.704389	-0.449353	-1.102230
O72	O	1.678756	-0.655000	-0.911254
H73	H	1.710823	-0.590621	-0.860565
O74	O	1.115122	-0.718569	-0.455340
H75	H	1.203247	-0.717688	-0.455498
O76	O	1.596205	-0.320564	-1.113526
H77	H	1.525355	-0.324040	-1.165584
H78	H	1.601773	-0.346758	-0.920862
H79	H	1.363129	-0.538500	-1.101877
H80	H	1.363047	-0.539885	-0.920465
