data_functionalizedCrystal
_audit_creation_method	'MofGen! by Chris Wilmer'
_symmetry_space_group_name_H-M	'P1'
_symmetry_Int_Tables_number	1
_symmetry_cell_setting	triclinic
loop_
_symmetry_equiv_pos_as_xyz
  x,y,z
_cell_length_a	16.959455
_cell_length_b	21.295417
_cell_length_c	16.959447
_cell_angle_alpha	90.034146
_cell_angle_beta	90.014322
_cell_angle_gamma	90.026649
loop_
_atom_site_label
_atom_site_type_symbol
_atom_site_fract_x
_atom_site_fract_y
_atom_site_fract_z
Zn1	Zn	1.208331	-0.250648	0.446888
Zn2	Zn	1.541664	0.082685	0.780221
Zn3	Zn	1.874998	0.416019	1.113554
Zn4	Zn	1.208231	-0.355925	0.314700
Zn5	Zn	1.541564	-0.022591	0.648034
Zn6	Zn	1.874898	0.310742	0.981367
Zn7	Zn	1.076159	-0.250668	0.314725
Zn8	Zn	1.409493	0.082666	0.648058
Zn9	Zn	1.742826	0.415999	0.981392
Zn10	Zn	1.076102	-0.355878	0.446839
Zn11	Zn	1.409435	-0.022544	0.780172
Zn12	Zn	1.742768	0.310789	1.113506
O13	O	1.142206	-0.303280	0.380788
O14	O	1.475539	0.030054	0.714121
O15	O	1.808872	0.363387	1.047455
O16	O	1.318929	-0.264625	0.429363
O17	O	1.652262	0.068709	0.762696
O18	O	1.985595	0.402042	1.096029
O19	O	1.190694	-0.341990	0.204093
O20	O	1.524027	-0.008657	0.537426
O21	O	1.857361	0.324676	0.870759
O22	O	1.093758	-0.162576	0.332288
O23	O	1.427091	0.170758	0.665621
O24	O	1.760425	0.504091	0.998954
O25	O	1.318855	-0.341971	0.332245
O26	O	1.652189	-0.008638	0.665579
O27	O	1.985522	0.324696	0.998912
O28	O	1.190864	-0.162561	0.429387
O29	O	1.524197	0.170772	0.762720
O30	O	1.857531	0.504105	1.096054
O31	O	1.093661	-0.264658	0.204111
O32	O	1.426995	0.068675	0.537444
O33	O	1.760328	0.402008	0.870778
O34	O	0.965541	-0.264613	0.332240
O35	O	1.298874	0.068721	0.665574
O36	O	1.632207	0.402054	0.998907
O37	O	1.093660	-0.341891	0.557456
O38	O	1.426993	-0.008558	0.890790
O39	O	1.760327	0.324776	1.224123
O40	O	0.965499	-0.341910	0.429304
O41	O	1.298832	-0.008577	0.762637
O42	O	1.632165	0.324757	1.095970
O43	O	1.190808	-0.264579	0.557492
O44	O	1.524141	0.068754	0.890825
O45	O	1.857475	0.402088	1.224159
O46	O	1.190638	-0.444008	0.332198
O47	O	1.523971	-0.110675	0.665531
O48	O	1.857305	0.222659	0.998865
O49	O	1.093563	-0.443973	0.429280
O50	O	1.426897	-0.110640	0.762613
O51	O	1.760230	0.222693	1.095946
C52	C	0.936840	-0.303259	0.380770
C53	C	1.270173	0.030074	0.714103
C54	C	1.603506	0.363408	1.047437
C55	C	0.848983	-0.303265	0.380781
C56	C	1.182316	0.030068	0.714114
C57	C	1.515650	0.363402	1.047448
C58	C	0.477505	-0.262998	0.330353
C59	C	0.810838	0.070335	0.663686
C60	C	1.144172	0.403669	0.997019
C61	C	0.477510	-0.343613	0.431269
C62	C	0.810843	-0.010280	0.764602
C63	C	1.144176	0.323054	1.097935
C64	C	0.560056	-0.343604	0.431264
C65	C	0.893389	-0.010271	0.764597
C66	C	1.226722	0.323063	1.097930
C67	C	0.601330	-0.303292	0.380802
C68	C	0.934663	0.030041	0.714135
C69	C	1.267997	0.363375	1.047468
C70	C	0.560058	-0.262989	0.330345
C71	C	0.893392	0.070344	0.663678
C72	C	1.226725	0.403678	0.997011
C73	C	0.601333	-0.383911	0.481714
C74	C	0.934667	-0.050577	0.815048
C75	C	1.268000	0.282756	1.148381
C76	C	0.683884	-0.383904	0.481711
C77	C	1.017218	-0.050571	0.815044
C78	C	1.350551	0.282763	1.148378
C79	C	0.725160	-0.343588	0.431252
C80	C	1.058493	-0.010255	0.764586
C81	C	1.391827	0.323078	1.097919
C82	C	0.683884	-0.303283	0.380794
C83	C	1.017217	0.030050	0.714127
C84	C	1.350550	0.363384	1.047460
C85	C	0.725158	-0.262971	0.330332
C86	C	1.058491	0.070362	0.663665
C87	C	1.391825	0.403696	0.996998
C88	C	0.683883	-0.222662	0.279877
C89	C	1.017216	0.110671	0.613210
C90	C	1.350549	0.444004	0.946543
C91	C	0.601334	-0.222673	0.279886
C92	C	0.934668	0.110660	0.613219
C93	C	1.268001	0.443993	0.946553
C94	C	0.807709	-0.343577	0.431243
C95	C	1.141042	-0.010244	0.764576
C96	C	1.474375	0.323090	1.097909
C97	C	0.807711	-0.262962	0.330324
C98	C	1.141045	0.070371	0.663657
C99	C	1.474378	0.403705	0.996990
C100	C	1.142105	-0.466831	0.380748
C101	C	1.475438	-0.133498	0.714081
C102	C	1.808772	0.199835	1.047415
C103	C	1.142134	-0.536799	0.380757
C104	C	1.475468	-0.203466	0.714091
C105	C	1.808801	0.129867	1.047424
C106	C	1.192668	-0.569601	0.431353
C107	C	1.526002	-0.236268	0.764686
C108	C	1.859335	0.097065	1.098020
C109	C	1.192696	-0.635344	0.431372
C110	C	1.526030	-0.302010	0.764706
C111	C	1.859363	0.031323	1.098039
C112	C	1.142198	-0.668282	0.380782
C113	C	1.475532	-0.334948	0.714116
C114	C	1.808865	-0.001615	1.047449
C115	C	1.091654	-0.635472	0.330183
C116	C	1.424988	-0.302139	0.663516
C117	C	1.758321	0.031195	0.996850
C118	C	1.091622	-0.569731	0.330170
C119	C	1.424956	-0.236397	0.663504
C120	C	1.758289	0.096936	0.996837
N121	N	1.136233	-0.771547	0.311606
N122	N	1.469566	-0.438214	0.644940
N123	N	1.802900	-0.104880	0.978273
N124	N	1.136268	-0.833998	0.311620
N125	N	1.469601	-0.500665	0.644954
N126	N	1.802935	-0.167332	0.978287
C127	C	1.142291	-0.866356	0.380818
C128	C	1.475624	-0.533023	0.714151
C129	C	1.808957	-0.199690	1.047485
N130	N	1.148292	-0.833904	0.450002
N131	N	1.481626	-0.500571	0.783336
N132	N	1.814959	-0.167237	1.116669
N133	N	1.148261	-0.771447	0.449987
N134	N	1.481595	-0.438113	0.783321
N135	N	1.814928	-0.104780	1.116654
C136	C	1.142227	-0.739567	0.380790
C137	C	1.475560	-0.406234	0.714124
C138	C	1.808894	-0.072901	1.047457
C139	C	1.192858	-0.970444	0.431439
C140	C	1.526191	-0.637111	0.764772
C141	C	1.859524	-0.303777	1.098106
C142	C	1.192880	-1.036188	0.431460
C143	C	1.526213	-0.702854	0.764793
C144	C	1.859547	-0.369521	1.098126
C145	C	1.091842	-1.036315	0.330263
C146	C	1.425176	-0.702981	0.663597
C147	C	1.758509	-0.369648	0.996930
C148	C	1.091816	-0.970572	0.330249
C149	C	1.425149	-0.637239	0.663583
C150	C	1.758483	-0.303906	0.996916
C151	C	1.142328	-0.937641	0.380836
C152	C	1.475661	-0.604307	0.714170
C153	C	1.808994	-0.270974	1.047503
C154	C	1.348374	-0.303301	0.380807
C155	C	1.681707	0.030032	0.714140
C156	C	2.015041	0.363366	1.047473
C157	C	1.436231	-0.303310	0.380815
C158	C	1.769564	0.030023	0.714148
C159	C	2.102897	0.363357	1.047481
C160	C	1.142239	-0.303228	0.586956
C161	C	1.475572	0.030106	0.920290
C162	C	1.808905	0.363439	1.253623
C163	C	1.142253	-0.303205	0.674813
C164	C	1.475586	0.030128	1.008146
C165	C	1.808919	0.363461	1.341480
C166	C	1.142328	-0.139089	0.380845
C167	C	1.475662	0.194244	0.714179
C168	C	1.808995	0.527577	1.047512
C169	C	1.142381	-0.069121	0.380870
C170	C	1.475714	0.264212	0.714203
C171	C	1.809047	0.597545	1.047537
C172	C	1.142219	-0.303286	0.175422
C173	C	1.475552	0.030047	0.508755
C174	C	1.808885	0.363381	0.842088
C175	C	1.142358	-0.303131	0.087566
C176	C	1.475691	0.030202	0.420899
C177	C	1.809024	0.363536	0.754232
C178	C	1.091767	-0.343392	1.046273
C179	C	1.425100	-0.010058	1.379606
C180	C	1.758433	0.323275	1.712939
C181	C	1.192928	-0.262886	1.046305
C182	C	1.526261	0.070447	1.379638
C183	C	1.859594	0.403780	1.712972
C184	C	1.192907	-0.262900	0.963759
C185	C	1.526240	0.070434	1.297092
C186	C	1.859573	0.403767	1.630426
C187	C	1.142316	-0.303160	0.922466
C188	C	1.475649	0.030173	1.255799
C189	C	1.808982	0.363506	1.589133
C190	C	1.091746	-0.343407	0.963719
C191	C	1.425079	-0.010074	1.297052
C192	C	1.758412	0.323259	1.630386
C193	C	1.243482	-0.222658	0.922500
C194	C	1.576815	0.110676	1.255833
C195	C	1.910148	0.444009	1.589167
C196	C	1.243463	-0.222670	0.839949
C197	C	1.576796	0.110664	1.173282
C198	C	1.910130	0.443997	1.506616
C199	C	1.192867	-0.262928	0.798654
C200	C	1.526201	0.070406	1.131988
C201	C	1.859534	0.403739	1.465321
C202	C	1.142295	-0.303176	0.839912
C203	C	1.475628	0.030157	1.173246
C204	C	1.808961	0.363491	1.506579
C205	C	1.091704	-0.343437	0.798619
C206	C	1.425037	-0.010103	1.131953
C207	C	1.758370	0.323230	1.465286
C208	C	1.041126	-0.383682	0.839876
C209	C	1.374460	-0.050349	1.173209
C210	C	1.707793	0.282984	1.506543
C211	C	1.041150	-0.383665	0.922425
C212	C	1.374483	-0.050332	1.255758
C213	C	1.707817	0.283001	1.589091
C214	C	1.192844	-0.262945	0.716106
C215	C	1.526177	0.070389	1.049439
C216	C	1.859510	0.403722	1.382773
C217	C	1.091683	-0.343453	0.716066
C218	C	1.425016	-0.010119	1.049399
C219	C	1.758349	0.323214	1.382733
H220	H	0.567722	-0.416735	0.522792
H221	H	0.901055	-0.083402	0.856125
H222	H	1.234388	0.249932	1.189459
H223	H	0.567721	-0.189857	0.238807
H224	H	0.901054	0.143477	0.572141
H225	H	1.234387	0.476810	0.905474
H226	H	1.050478	-0.376232	0.682451
H227	H	1.383811	-0.042899	1.015784
H228	H	1.717144	0.290434	1.349118
F229	F	1.246660	-1.071098	0.485322
F230	F	1.579993	-0.737764	0.818655
F231	F	1.913327	-0.404431	1.151989
H232	H	1.050537	-0.662294	0.288994
H233	H	1.383870	-0.328961	0.622327
H234	H	1.717204	0.004372	0.955660
H235	H	1.050721	-1.063132	0.289077
H236	H	1.384054	-0.729799	0.622410
H237	H	1.717388	-0.396465	0.955743
F238	F	1.246673	-0.220119	0.672201
F239	F	1.580006	0.113214	1.005535
F240	F	1.913339	0.446547	1.338868
H241	H	0.717483	-0.416725	0.522795
H242	H	1.050817	-0.083392	0.856128
H243	H	1.384150	0.249941	1.189462
H244	H	1.050670	-0.943863	0.289046
H245	H	1.384003	-0.610530	0.622380
H246	H	1.717336	-0.277196	0.955713
F247	F	1.037834	-0.534819	0.276318
F248	F	1.371167	-0.201486	0.609651
F249	F	1.704500	0.131847	0.942985
H250	H	0.443895	-0.230178	0.289275
H251	H	0.777228	0.103156	0.622609
H252	H	1.110562	0.436489	0.955942
H253	H	0.443899	-0.376437	0.472348
H254	H	0.777233	-0.043104	0.805681
H255	H	1.110566	0.290230	1.139014
H256	H	0.841311	-0.230131	0.289236
H257	H	1.174645	0.103202	0.622569
H258	H	1.507978	0.436536	0.955902
F259	F	0.987289	-0.426532	0.795920
F260	F	1.320623	-0.093199	1.129253
F261	F	1.653956	0.240134	1.462586
F262	F	1.297326	-0.179817	0.966451
F263	F	1.630659	0.153517	1.299784
F264	F	1.963992	0.486850	1.633117
F265	F	1.246487	-0.670261	0.485222
F266	F	1.579821	-0.336928	0.818555
F267	F	1.913154	-0.003594	1.151889
F268	F	1.297289	-0.179836	0.796048
F269	F	1.630623	0.153497	1.129381
F270	F	1.963956	0.486831	1.462715
F271	F	0.851633	-0.386477	0.484932
F272	F	1.184966	-0.053144	0.818266
F273	F	1.518299	0.280190	1.151599
F274	F	1.246424	-0.534557	0.485196
F275	F	1.579757	-0.201224	0.818530
F276	F	1.913091	0.132110	1.151863
H277	H	1.233985	-0.943630	0.472632
H278	H	1.567318	-0.610297	0.805966
H279	H	1.900652	-0.276963	1.139299
H280	H	0.999975	-0.416433	0.956023
H281	H	1.333308	-0.083100	1.289356
H282	H	1.666642	0.250233	1.622690
H283	H	1.234121	-0.230111	1.079931
H284	H	1.567454	0.103222	1.413264
H285	H	1.900788	0.436555	1.746597
F286	F	0.727819	-0.179764	0.226169
F287	F	1.061153	0.153569	0.559502
F288	F	1.394486	0.486902	0.892835
F289	F	1.037939	-0.386220	1.090180
F290	F	1.371272	-0.052887	1.423513
F291	F	1.704606	0.280447	1.756847
