data_functionalizedCrystal
_audit_creation_method	'MofGen! by Chris Wilmer'
_symmetry_space_group_name_H-M	'P1'
_symmetry_Int_Tables_number	1
_symmetry_cell_setting	triclinic
loop_
_symmetry_equiv_pos_as_xyz
  x,y,z
_cell_length_a	18.215405
_cell_length_b	18.215407
_cell_length_c	18.215399
_cell_angle_alpha	90.019833
_cell_angle_beta	90.027541
_cell_angle_gamma	90.023180
loop_
_atom_site_label
_atom_site_type_symbol
_atom_site_fract_x
_atom_site_fract_y
_atom_site_fract_z
Zn1	Zn	-0.292983	1.125083	0.416118
Zn2	Zn	0.040350	1.458416	0.749451
Zn3	Zn	0.373684	1.791750	1.082785
Zn4	Zn	-0.416054	1.124996	0.293053
Zn5	Zn	-0.082721	1.458329	0.626386
Zn6	Zn	0.250612	1.791663	0.959719
Zn7	Zn	-0.293007	1.002016	0.293065
Zn8	Zn	0.040326	1.335349	0.626399
Zn9	Zn	0.373660	1.668682	0.959732
Zn10	Zn	-0.416013	1.001986	0.416077
Zn11	Zn	-0.082680	1.335319	0.749411
Zn12	Zn	0.250653	1.668653	1.082744
O13	O	-0.354514	1.063520	0.354578
O14	O	-0.021181	1.396853	0.687912
O15	O	0.312152	1.730187	1.021245
O16	O	-0.309316	1.228056	0.399805
O17	O	0.024018	1.561389	0.733138
O18	O	0.357351	1.894722	1.066471
O19	O	-0.399759	1.108658	0.190070
O20	O	-0.066426	1.441992	0.523403
O21	O	0.266908	1.775325	0.856737
O22	O	-0.190020	1.018389	0.309411
O23	O	0.143314	1.351723	0.642744
O24	O	0.476647	1.685056	0.976077
O25	O	-0.399736	1.227992	0.309389
O26	O	-0.066402	1.561325	0.642722
O27	O	0.266931	1.894658	0.976056
O28	O	-0.190002	1.108807	0.399817
O29	O	0.143331	1.442140	0.733150
O30	O	0.476665	1.775473	1.066484
O31	O	-0.309357	1.018305	0.190079
O32	O	0.023977	1.351638	0.523413
O33	O	0.357310	1.684972	0.856746
O34	O	-0.309317	0.899027	0.309372
O35	O	0.024016	1.232361	0.642705
O36	O	0.357350	1.565694	0.976038
O37	O	-0.399666	1.018339	0.519067
O38	O	-0.066333	1.351672	0.852400
O39	O	0.267001	1.685006	1.185734
O40	O	-0.399689	0.899006	0.399748
O41	O	-0.066356	1.232339	0.733081
O42	O	0.266977	1.565672	1.066415
O43	O	-0.309276	1.108778	0.519097
O44	O	0.024057	1.442111	0.852430
O45	O	0.357391	1.775445	1.185764
O46	O	-0.519033	1.108630	0.309350
O47	O	-0.185700	1.441963	0.642683
O48	O	0.147634	1.775296	0.976016
O49	O	-0.519003	1.018255	0.399736
O50	O	-0.185670	1.351588	0.733069
O51	O	0.147664	1.684921	1.066402
C52	C	-0.354502	0.872314	0.354557
C53	C	-0.021168	1.205647	0.687891
C54	C	0.312165	1.538981	1.021224
C55	C	-0.354514	0.790515	0.354566
C56	C	-0.021181	1.123848	0.687899
C57	C	0.312152	1.457182	1.021232
C58	C	-0.401645	0.602329	0.401566
C59	C	-0.068312	0.935662	0.734899
C60	C	0.265022	1.268996	1.068232
C61	C	-0.401647	0.525470	0.401575
C62	C	-0.068314	0.858804	0.734908
C63	C	0.265019	1.192137	1.068241
C64	C	-0.307397	0.525463	0.307607
C65	C	0.025936	0.858797	0.640940
C66	C	0.359269	1.192130	0.974274
C67	C	-0.307392	0.602321	0.307602
C68	C	0.025942	0.935654	0.640936
C69	C	0.359275	1.268987	0.974269
C70	C	-0.354520	0.640751	0.354580
C71	C	-0.021186	0.974085	0.687914
C72	C	0.312147	1.307418	1.021247
C73	C	-0.354528	0.487035	0.354594
C74	C	-0.021194	0.820369	0.687928
C75	C	0.312139	1.153702	1.021261
C76	C	-0.354530	0.403702	0.354604
C77	C	-0.021196	0.737035	0.687937
C78	C	0.312137	1.070368	1.021271
C79	C	-0.354517	0.724090	0.354572
C80	C	-0.021184	1.057424	0.687905
C81	C	0.312150	1.390757	1.021239
C82	C	-0.545721	1.063450	0.354553
C83	C	-0.212387	1.396783	0.687886
C84	C	0.120946	1.730116	1.021220
C85	C	-0.627520	1.063487	0.354567
C86	C	-0.294186	1.396820	0.687900
C87	C	0.039147	1.730153	1.021233
C88	C	-0.815643	1.110589	0.401705
C89	C	-0.482310	1.443923	0.735038
C90	C	-0.148977	1.777256	1.068372
C91	C	-0.892502	1.110616	0.401719
C92	C	-0.559169	1.443949	0.735052
C93	C	-0.225835	1.777283	1.068385
C94	C	-0.892634	1.016542	0.307497
C95	C	-0.559300	1.349875	0.640831
C96	C	-0.225967	1.683209	0.974164
C97	C	-0.815776	1.016512	0.307488
C98	C	-0.482443	1.349845	0.640821
C99	C	-0.149110	1.683179	0.974154
C100	C	-0.777283	1.063540	0.354590
C101	C	-0.443950	1.396873	0.687924
C102	C	-0.110616	1.730207	1.021257
C103	C	-0.930999	1.063597	0.354614
C104	C	-0.597666	1.396930	0.687947
C105	C	-0.264332	1.730263	1.021281
C106	C	-1.014333	1.063625	0.354628
C107	C	-0.680999	1.396958	0.687962
C108	C	-0.347666	1.730292	1.021295
C109	C	-0.693944	1.063511	0.354577
C110	C	-0.360611	1.396844	0.687910
C111	C	-0.027277	1.730177	1.021244
C112	C	-0.162561	1.063611	0.354620
C113	C	0.170772	1.396944	0.687953
C114	C	0.504105	1.730278	1.021287
C115	C	-0.080763	1.063650	0.354638
C116	C	0.252571	1.396983	0.687971
C117	C	0.585904	1.730316	1.021304
C118	C	-0.354464	1.063565	0.546531
C119	C	-0.021130	1.396898	0.879865
C120	C	0.312203	1.730232	1.213198
C121	C	-0.354442	1.063584	0.628330
C122	C	-0.021109	1.396917	0.961664
C123	C	0.312225	1.730251	1.294997
C124	C	-0.354528	1.255473	0.354600
C125	C	-0.021194	1.588806	0.687933
C126	C	0.312139	1.922140	1.021267
C127	C	-0.354533	1.337272	0.354609
C128	C	-0.021200	1.670605	0.687942
C129	C	0.312133	2.003939	1.021276
C130	C	-0.354512	1.063518	0.163372
C131	C	-0.021179	1.396851	0.496705
C132	C	0.312155	1.730184	0.830039
C133	C	-0.354326	1.063641	0.081574
C134	C	-0.020993	1.396975	0.414907
C135	C	0.312341	1.730308	0.748240
C136	C	-0.307332	1.110692	0.816541
C137	C	0.026001	1.444026	1.149874
C138	C	0.359335	1.777359	1.483208
C139	C	-0.307311	1.110701	0.893400
C140	C	0.026023	1.444035	1.226733
C141	C	0.359356	1.777368	1.560066
C142	C	-0.401438	1.016528	0.893358
C143	C	-0.068105	1.349861	1.226691
C144	C	0.265228	1.683194	1.560024
C145	C	-0.401455	1.016516	0.816500
C146	C	-0.068122	1.349849	1.149833
C147	C	0.265211	1.683182	1.483167
C148	C	-0.354403	1.063602	0.778094
C149	C	-0.021070	1.396936	1.111427
C150	C	0.312263	1.730269	1.444761
C151	C	-0.354365	1.063623	0.931810
C152	C	-0.021031	1.396956	1.265143
C153	C	0.312302	1.730290	1.598477
C154	C	-0.354342	1.063632	1.015144
C155	C	-0.021009	1.396966	1.348477
C156	C	0.312325	1.730299	1.681810
C157	C	-0.354425	1.063592	0.694755
C158	C	-0.021092	1.396926	1.028088
C159	C	0.312242	1.730259	1.361421
H160	H	-0.269028	0.494163	0.269358
H161	H	0.064305	0.827497	0.602691
H162	H	0.397638	1.160830	0.936025
C163	C	-0.255553	0.644588	0.255915
C164	C	0.077781	0.977922	0.589248
C165	C	0.411114	1.311255	0.922581
H166	H	-0.227493	0.610694	0.227930
H167	H	0.105840	0.944027	0.561263
H168	H	0.439174	1.277360	0.894596
H169	H	-0.223522	0.674593	0.284121
H170	H	0.109811	1.007926	0.617454
H171	H	0.443145	1.341260	0.950788
H172	H	-0.283668	0.674547	0.223797
H173	H	0.049665	1.007880	0.557131
H174	H	0.382999	1.341214	0.890464
H175	H	-0.923731	1.148927	0.440086
H176	H	-0.590398	1.482260	0.773419
H177	H	-0.257065	1.815593	1.106752
C178	C	-0.453241	0.964719	0.774205
C179	C	-0.119908	1.298052	1.107539
C180	C	0.213425	1.631386	1.440872
H181	H	-0.481270	0.936686	0.808085
H182	H	-0.147936	1.270019	1.141418
H183	H	0.185397	1.603353	1.474752
H184	H	-0.425098	0.932661	0.744222
H185	H	-0.091765	1.265995	1.077555
H186	H	0.241569	1.599328	1.410889
H187	H	-0.485315	0.992861	0.744223
H188	H	-0.151981	1.326195	1.077556
H189	H	0.181352	1.659528	1.410890
C190	C	-0.453198	0.964743	0.935607
C191	C	-0.119864	1.298077	1.268940
C192	C	0.213469	1.631410	1.602273
H193	H	-0.446452	0.971500	0.986887
H194	H	-0.113119	1.304833	1.320220
H195	H	0.220215	1.638166	1.653554
H196	H	-0.442431	0.915299	0.923006
H197	H	-0.109098	1.248632	1.256339
H198	H	0.224235	1.581965	1.589673
H199	H	-0.502649	0.975497	0.922998
H200	H	-0.169316	1.308831	1.256332
H201	H	0.164017	1.642164	1.589665
C202	C	-0.453483	0.483209	0.453260
C203	C	-0.120150	0.816542	0.786594
C204	C	0.213183	1.149875	1.119927
H205	H	-0.481550	0.517107	0.481233
H206	H	-0.148217	0.850440	0.814567
H207	H	0.185116	1.183773	1.147900
H208	H	-0.425372	0.453252	0.485377
H209	H	-0.092039	0.786585	0.818711
H210	H	0.241295	1.119919	1.152044
H211	H	-0.485518	0.453202	0.425054
H212	H	-0.152185	0.786535	0.758387
H213	H	0.181148	1.119869	1.091720
H214	H	-0.784304	1.148881	0.440060
H215	H	-0.450971	1.482215	0.773393
H216	H	-0.117637	1.815548	1.106727
H217	H	-0.269017	1.149031	0.785273
H218	H	0.064316	1.482365	1.118606
H219	H	0.397649	1.815698	1.451940
C220	C	-0.934978	0.964823	0.255681
C221	C	-0.601645	1.298157	0.589014
C222	C	-0.268312	1.631490	0.922348
H223	H	-0.986246	0.971584	0.262428
H224	H	-0.652913	1.304918	0.595761
H225	H	-0.319579	1.638251	0.929095
H226	H	-0.922418	0.915364	0.266398
H227	H	-0.589084	1.248697	0.599731
H228	H	-0.255751	1.582030	0.933065
H229	H	-0.922401	0.975627	0.206242
H230	H	-0.589068	1.308961	0.539575
H231	H	-0.255735	1.642294	0.872908
C232	C	-0.773577	0.964757	0.255658
C233	C	-0.440244	1.298090	0.588991
C234	C	-0.106910	1.631423	0.922324
H235	H	-0.807509	0.936760	0.227599
H236	H	-0.474175	1.270094	0.560932
H237	H	-0.140842	1.603427	0.894266
H238	H	-0.743603	0.932664	0.283775
H239	H	-0.410269	1.265997	0.617109
H240	H	-0.076936	1.599330	0.950442
H241	H	-0.743593	0.992923	0.223614
H242	H	-0.410260	1.326256	0.556948
H243	H	-0.076926	1.659589	0.890281
H244	H	-0.440018	0.633617	0.439820
H245	H	-0.106684	0.966951	0.773153
H246	H	0.226649	1.300284	1.106487
C247	C	-0.255536	1.162504	0.935689
C248	C	0.077798	1.495837	1.269022
C249	C	0.411131	1.829171	1.602355
H250	H	-0.227522	1.190547	0.901805
H251	H	0.105812	1.523880	1.235138
H252	H	0.439145	1.857213	1.568472
H253	H	-0.223460	1.134374	0.965673
H254	H	0.109874	1.467707	1.299007
H255	H	0.443207	1.801041	1.632340
H256	H	-0.283688	1.194563	0.965669
H257	H	0.049646	1.527896	1.299002
H258	H	0.382979	1.861229	1.632336
