data_functionalizedCrystal
_audit_creation_method	'MofGen! by Chris Wilmer'
_symmetry_space_group_name_H-M	'P1'
_symmetry_Int_Tables_number	1
_symmetry_cell_setting	triclinic
loop_
_symmetry_equiv_pos_as_xyz
  x,y,z
_cell_length_a	15.944493
_cell_length_b	14.519709
_cell_length_c	13.596369
_cell_angle_alpha	90.006934
_cell_angle_beta	89.995239
_cell_angle_gamma	96.422406
loop_
_atom_site_label
_atom_site_type_symbol
_atom_site_fract_x
_atom_site_fract_y
_atom_site_fract_z
O1	O	1.114728	-0.118688	-0.081780
O2	O	1.448061	0.214645	0.251553
O3	O	1.781394	0.547978	0.584886
O4	O	0.870193	-0.133409	-0.081786
O5	O	1.203526	0.199925	0.251548
O6	O	1.536859	0.533258	0.584881
O7	O	0.998944	0.008203	-0.081774
O8	O	1.332277	0.341536	0.251559
O9	O	1.665610	0.674869	0.584893
O10	O	0.985977	-0.260300	-0.081792
O11	O	1.319310	0.073034	0.251541
O12	O	1.652643	0.406367	0.584875
O13	O	0.998931	0.008210	0.081809
O14	O	1.332264	0.341544	0.415142
O15	O	1.665597	0.674877	0.748476
O16	O	0.870180	-0.133401	0.081797
O17	O	1.203513	0.199932	0.415131
O18	O	1.536846	0.533266	0.748464
O19	O	1.114715	-0.118681	0.081802
O20	O	1.448048	0.214652	0.415136
O21	O	1.781381	0.547986	0.748469
Zn22	Zn	0.992445	-0.126040	0.107772
Zn23	Zn	1.325779	0.207294	0.441106
Zn24	Zn	1.659112	0.540627	0.774439
Zn25	Zn	0.992462	-0.126050	-0.107755
Zn26	Zn	1.325795	0.207284	0.225578
Zn27	Zn	1.659129	0.540617	0.558911
O28	O	0.985964	-0.260292	0.081791
O29	O	1.319297	0.073041	0.415124
O30	O	1.652630	0.406374	0.748458
C31	C	0.838891	-0.132803	0.000005
C32	C	1.172224	0.200530	0.333339
C33	C	1.505557	0.533864	0.666672
C34	C	0.745639	-0.130999	0.000004
C35	C	1.078973	0.202334	0.333337
C36	C	1.412306	0.535667	0.666670
C37	C	0.510000	-0.214355	-0.000003
C38	C	0.843334	0.118978	0.333331
C39	C	1.176667	0.452312	0.666664
C40	C	0.459370	-0.169401	0.080660
C41	C	0.792704	0.163932	0.413993
C42	C	1.126037	0.497266	0.747326
C43	C	0.574913	-0.127657	0.000006
C44	C	0.908247	0.205676	0.333339
C45	C	1.241580	0.539009	0.666672
C46	C	0.459388	-0.169388	-0.080620
C47	C	0.792721	0.163946	0.252713
C48	C	1.126054	0.497279	0.586046
C49	C	0.409999	-0.124435	0.000004
C50	C	0.743332	0.208898	0.333337
C51	C	1.076666	0.542231	0.666670
C52	C	0.525512	-0.082727	0.080735
C53	C	0.858845	0.250607	0.414068
C54	C	1.192178	0.583940	0.747401
C55	C	0.525532	-0.082726	-0.080618
C56	C	0.858866	0.250607	0.252715
C57	C	1.192199	0.583941	0.586049
C58	C	0.474935	-0.037708	0.000064
C59	C	0.808269	0.295625	0.333397
C60	C	1.141602	0.628958	0.666731
C61	C	0.669916	-0.129516	0.000008
C62	C	1.003249	0.203818	0.333341
C63	C	1.336583	0.537151	0.666675
C64	C	0.314999	-0.122570	0.000008
C65	C	0.648333	0.210763	0.333342
C66	C	0.981666	0.544097	0.666675
C67	C	0.998333	0.042565	0.000018
C68	C	1.331666	0.375898	0.333351
C69	C	1.664999	0.709232	0.666684
C70	C	0.996522	0.144943	0.000018
C71	C	1.329855	0.478276	0.333351
C72	C	1.663189	0.811609	0.666685
C73	C	1.146017	-0.119286	0.000009
C74	C	1.479350	0.214047	0.333343
C75	C	1.812683	0.547380	0.666676
C76	C	1.239268	-0.121090	0.000005
C77	C	1.572601	0.212243	0.333338
C78	C	1.905935	0.545577	0.666671
C79	C	0.986575	-0.294655	-0.000003
C80	C	1.319908	0.038679	0.333330
C81	C	1.653241	0.372012	0.666664
C82	C	0.988385	-0.397032	-0.000010
C83	C	1.321719	-0.063699	0.333323
C84	C	1.655052	0.269634	0.666657
N85	N	0.992440	-0.126032	0.254864
N86	N	1.325773	0.207301	0.588197
N87	N	1.659106	0.540634	0.921531
C88	C	0.989855	0.519825	-0.000008
C89	C	1.323189	0.853159	0.333326
C90	C	1.656522	1.186492	0.666659
C91	C	0.991707	0.415521	-0.000000
C92	C	1.325040	0.748855	0.333333
C93	C	1.658373	1.082188	0.666667
C94	C	0.993188	0.332387	0.000006
C95	C	1.326522	0.665721	0.333340
C96	C	1.659855	0.999054	0.666673
C97	C	0.995040	0.228077	0.000012
C98	C	1.328373	0.561410	0.333345
C99	C	1.661707	0.894743	0.666678
N100	N	0.992474	-0.126050	-0.254847
N101	N	1.325808	0.207284	0.078486
N102	N	1.659141	0.540617	0.411820
C103	C	0.992461	-0.126051	0.656155
C104	C	1.325794	0.207283	0.989488
C105	C	1.659128	0.540616	1.322822
C106	C	0.992453	-0.126049	0.544504
C107	C	1.325786	0.207285	0.877837
C108	C	1.659119	0.540618	1.211170
C109	C	0.992451	-0.126042	0.455513
C110	C	1.325784	0.207291	0.788846
C111	C	1.659117	0.540624	1.122180
C112	C	0.992442	-0.126039	0.343855
C113	C	1.325775	0.207294	0.677188
C114	C	1.659108	0.540628	1.010521
H115	H	0.525732	-0.289036	0.000068
H116	H	0.859066	0.044297	0.333401
H117	H	1.192399	0.377631	0.666734
F118	F	0.563112	-0.034895	0.169959
F119	F	0.896445	0.298438	0.503292
F120	F	1.229779	0.631771	0.836625
H121	H	0.430481	-0.206012	0.148847
H122	H	0.763814	0.127322	0.482181
H123	H	1.097147	0.460655	0.815514
F124	F	0.454572	0.059976	0.000131
F125	F	0.787905	0.393309	0.333465
F126	F	1.121238	0.726643	0.666798
F127	F	0.563317	-0.034917	-0.169749
F128	F	0.896650	0.298416	0.163585
F129	F	1.229983	0.631750	0.496918
H130	H	0.430508	-0.206022	-0.148804
H131	H	0.763841	0.127311	0.184529
H132	H	1.097174	0.460644	0.517862
