data_functionalizedCrystal
_audit_creation_method	'MofGen! by Chris Wilmer'
_symmetry_space_group_name_H-M	'P1'
_symmetry_Int_Tables_number	1
_symmetry_cell_setting	triclinic
loop_
_symmetry_equiv_pos_as_xyz
  x,y,z
_cell_length_a	18.050590
_cell_length_b	18.050590
_cell_length_c	19.805399
_cell_angle_alpha	89.972574
_cell_angle_beta	89.997050
_cell_angle_gamma	90.007719
loop_
_atom_site_label
_atom_site_type_symbol
_atom_site_fract_x
_atom_site_fract_y
_atom_site_fract_z
Zn1	Zn	1.135370	-0.295891	-0.382420
Zn2	Zn	1.635370	0.204109	0.117580
Zn3	Zn	1.135293	-0.420084	-0.269232
Zn4	Zn	1.635293	0.079916	0.230768
Zn5	Zn	1.011181	-0.295888	-0.269278
Zn6	Zn	1.511181	0.204112	0.230722
Zn7	Zn	1.011158	-0.420021	-0.382412
Zn8	Zn	1.511158	0.079979	0.117588
O9	O	1.073250	-0.357971	-0.325835
O10	O	1.573250	0.142029	0.174165
O11	O	1.239284	-0.312393	-0.367390
O12	O	1.739284	0.187607	0.132610
O13	O	1.118807	-0.403634	-0.174522
O14	O	1.618807	0.096366	0.325478
O15	O	1.027696	-0.191964	-0.284309
O16	O	1.527696	0.308036	0.215691
O17	O	1.239228	-0.403637	-0.284231
O18	O	1.739228	0.096363	0.215769
O19	O	1.118937	-0.191966	-0.367434
O20	O	1.618937	0.308034	0.132566
O21	O	1.027622	-0.312388	-0.174555
O22	O	1.527622	0.187612	0.325445
O23	O	0.907253	-0.312327	-0.284301
O24	O	1.407253	0.187673	0.215699
O25	O	1.027657	-0.403530	-0.477129
O26	O	1.527657	0.096470	0.022871
O27	O	0.907236	-0.403527	-0.367420
O28	O	1.407236	0.096473	0.132580
O29	O	1.118915	-0.312332	-0.477136
O30	O	1.618915	0.187668	0.022864
O31	O	1.118785	-0.524000	-0.284223
O32	O	1.618785	-0.024000	0.215777
O33	O	1.027583	-0.523954	-0.367376
O34	O	1.527583	-0.023954	0.132624
C35	C	0.880298	-0.357920	-0.325865
C36	C	1.380298	0.142080	0.174135
C37	C	0.797752	-0.357917	-0.325893
C38	C	1.297752	0.142083	0.174107
C39	C	0.598314	-0.407653	-0.370986
C40	C	1.098314	0.092347	0.129014
C41	C	0.548911	-0.339936	-0.387643
C42	C	1.048911	0.160064	0.112357
C43	C	0.646622	-0.357958	-0.325860
C44	C	1.146622	0.142042	0.174140
C45	C	0.548944	-0.425713	-0.309203
C46	C	1.048944	0.074287	0.190797
C47	C	0.500637	-0.358004	-0.325829
C48	C	1.000637	0.141996	0.174171
C49	C	0.598306	-0.290206	-0.342549
C50	C	1.098306	0.209794	0.157451
C51	C	0.598343	-0.376028	-0.264080
C52	C	1.098343	0.123972	0.235920
C53	C	0.548962	-0.308265	-0.280714
C54	C	1.048962	0.191735	0.219286
C55	C	0.730720	-0.357932	-0.325879
C56	C	1.230720	0.142068	0.174121
C57	C	0.416540	-0.358022	-0.325810
C58	C	0.916540	0.141978	0.174190
C59	C	1.073193	-0.550923	-0.325808
C60	C	1.573193	-0.050923	0.174192
C61	C	1.073237	-0.633469	-0.325819
C62	C	1.573237	-0.133469	0.174181
C63	C	1.122935	-0.832918	-0.280664
C64	C	1.622935	-0.332918	0.219336
C65	C	1.141075	-0.882255	-0.342434
C66	C	1.641075	-0.382255	0.157566
C67	C	1.073279	-0.784599	-0.325846
C68	C	1.573279	-0.284599	0.174154
C69	C	1.055215	-0.882344	-0.264104
C70	C	1.555215	-0.382344	0.235896
C71	C	1.073321	-0.930584	-0.325867
C72	C	1.573321	-0.430584	0.174133
C73	C	1.091454	-0.832849	-0.387649
C74	C	1.591454	-0.332849	0.112351
C75	C	1.005561	-0.832934	-0.309277
C76	C	1.505561	-0.332934	0.190723
C77	C	1.023675	-0.882249	-0.371090
C78	C	1.523675	-0.382249	0.128910
C79	C	1.073257	-0.700501	-0.325834
C80	C	1.573257	-0.200501	0.174166
C81	C	1.073343	-1.014681	-0.325887
C82	C	1.573343	-0.514681	0.174113
C83	C	1.266956	-0.358022	-0.325806
C84	C	1.766956	0.141978	0.174194
C85	C	1.349502	-0.358044	-0.325794
C86	C	1.849502	0.141956	0.174206
C87	C	1.073292	-0.357924	-0.502378
C88	C	1.573292	0.142076	-0.002378
C89	C	1.073310	-0.357904	-0.577610
C90	C	1.573310	0.142096	-0.077610
C91	C	1.073328	-0.164265	-0.325877
C92	C	1.573328	0.335735	0.174123
C93	C	1.073361	-0.081720	-0.325895
C94	C	1.573361	0.418280	0.174105
C95	C	1.120829	-0.310416	-0.612959
C96	C	1.620829	0.189584	-0.112959
C97	C	1.120836	-0.310394	-0.683647
C98	C	1.620836	0.189606	-0.183647
C99	C	1.073328	-0.357866	-0.718986
C100	C	1.573328	0.142134	-0.218986
C101	C	1.025804	-0.405356	-0.683632
C102	C	1.525804	0.094644	-0.183632
C103	C	1.025793	-0.405374	-0.612945
C104	C	1.525793	0.094626	-0.112945
C105	C	1.025846	-0.405287	-0.968706
C106	C	1.525846	0.094713	-0.468706
C107	C	1.025862	-0.405268	-1.039398
C108	C	1.525862	0.094732	-0.539398
C109	C	1.120889	-0.310308	-1.039408
C110	C	1.620889	0.189692	-0.539408
C111	C	1.120878	-0.310325	-0.968721
C112	C	1.620878	0.189675	-0.468721
C113	C	1.073352	-0.357813	-0.933373
C114	C	1.573352	0.142187	-0.433373
C115	C	1.073343	-0.357834	-0.856725
C116	C	1.573343	0.142166	-0.356725
C117	C	1.073340	-0.357848	-0.795633
C118	C	1.573340	0.142152	-0.295633
C119	C	1.073252	-0.357964	-0.149979
C120	C	1.573252	0.142036	0.350021
C121	C	1.073378	-0.357775	-0.074748
C122	C	1.573378	0.142225	0.425252
H123	H	0.527429	-0.266211	-0.242539
H124	H	1.027429	0.233789	0.257461
O125	O	1.167096	-0.264311	-0.934358
O126	O	1.667096	0.235689	-0.434358
C127	C	1.215028	-0.306604	-0.893435
C128	C	1.715028	0.193396	-0.393435
H129	H	1.219614	-0.365089	-0.914723
H130	H	1.719614	0.134911	-0.414723
H131	H	1.192045	-0.309175	-0.839868
H132	H	1.692045	0.190825	-0.339868
C133	C	1.286603	-0.198491	-0.866189
C134	C	1.786603	0.301509	-0.366189
C135	C	1.292241	-0.270322	-0.892339
C136	C	1.792241	0.229678	-0.392339
H137	H	1.334232	-0.176109	-0.865510
H138	H	1.834232	0.323891	-0.365510
H139	H	1.254310	-0.169996	-0.893758
H140	H	1.754310	0.330004	-0.393758
H141	H	1.267448	-0.200643	-0.821552
H142	H	1.767448	0.299357	-0.321552
H143	H	1.311387	-0.268167	-0.936977
H144	H	1.811387	0.231833	-0.436977
H145	H	1.324540	-0.298815	-0.864778
H146	H	1.824540	0.201185	-0.364778
O147	O	1.173146	-0.807104	-0.235204
O148	O	1.673146	-0.307104	0.264796
C149	C	1.244488	-0.832251	-0.252933
C150	C	1.744488	-0.332251	0.247067
H151	H	1.245856	-0.846065	-0.309079
H152	H	1.745856	-0.346065	0.190921
H153	H	1.258448	-0.883950	-0.222395
H154	H	1.758448	-0.383950	0.277605
C155	C	1.300031	-0.754256	-0.168749
C156	C	1.800031	-0.254256	0.331251
C157	C	1.301713	-0.771217	-0.237710
C158	C	1.801713	-0.271217	0.262290
H159	H	1.335331	-0.716609	-0.159356
H160	H	1.835331	-0.216609	0.340644
H161	H	1.251967	-0.737316	-0.156803
H162	H	1.751967	-0.237316	0.343197
H163	H	1.311663	-0.797343	-0.143309
H164	H	1.811663	-0.297343	0.356691
H165	H	1.290072	-0.728132	-0.263148
H166	H	1.790072	-0.228132	0.236852
H167	H	1.349777	-0.788148	-0.249660
H168	H	1.849777	-0.288148	0.250340
O169	O	0.624140	-0.457618	-0.416651
O170	O	1.124140	0.042382	0.083349
C171	C	0.598935	-0.438316	-0.481703
C172	C	1.098935	0.061684	0.018297
H173	H	0.585068	-0.376722	-0.483076
H174	H	1.085068	0.123278	0.016924
H175	H	0.547257	-0.471876	-0.494331
H176	H	1.047257	0.028124	0.005669
C177	C	0.676977	-0.530752	-0.532160
C178	C	1.176977	-0.030752	-0.032160
C179	C	0.659951	-0.455100	-0.533849
C180	C	1.159951	0.044900	-0.033849
H181	H	0.714612	-0.541108	-0.564328
H182	H	1.214612	-0.041108	-0.064328
H183	H	0.693956	-0.543758	-0.488334
H184	H	1.193956	-0.043758	0.011666
H185	H	0.633906	-0.558710	-0.542682
H186	H	1.133906	-0.058710	-0.042682
H187	H	0.703018	-0.427144	-0.523319
H188	H	1.203018	0.072856	-0.023319
H189	H	0.642980	-0.442089	-0.577675
H190	H	1.142980	0.057911	-0.077675
H191	H	0.620073	-0.391317	-0.211862
H192	H	1.120073	0.108683	0.288138
O193	O	0.523157	-0.494101	-0.292487
O194	O	1.023157	0.005899	0.207513
C195	C	0.548285	-0.546285	-0.340228
C196	C	1.048285	-0.046285	0.159772
H197	H	0.600282	-0.524306	-0.366052
H198	H	1.100282	-0.024306	0.133948
H199	H	0.503292	-0.556059	-0.379625
H200	H	1.003292	-0.056059	0.120375
C201	C	0.502408	-0.646769	-0.272554
C202	C	1.002408	-0.146769	0.227446
C203	C	0.566275	-0.619777	-0.304269
C204	C	1.066275	-0.119777	0.195731
H205	H	0.513502	-0.692104	-0.250375
H206	H	1.013502	-0.192104	0.249625
H207	H	0.485476	-0.611612	-0.240392
H208	H	0.985476	-0.111612	0.259608
H209	H	0.464920	-0.654908	-0.305391
H210	H	0.964920	-0.154908	0.194609
H211	H	0.603758	-0.611630	-0.271431
H212	H	1.103758	-0.111630	0.228569
H213	H	0.583213	-0.654934	-0.336425
H214	H	1.083213	-0.154934	0.163575
H215	H	1.159518	-0.271761	-0.584191
H216	H	1.659518	0.228239	-0.084191
H217	H	1.198361	-0.903921	-0.356462
H218	H	1.698361	-0.403921	0.143538
H219	H	1.159533	-0.271726	-0.712425
H220	H	1.659533	0.228274	-0.212425
H221	H	1.159585	-0.271638	-1.068196
H222	H	1.659585	0.228362	-0.568196
H223	H	0.619898	-0.232909	-0.356684
H224	H	1.119898	0.267091	0.143316
O225	O	0.979636	-0.451405	-1.073623
O226	O	1.479636	0.048595	-0.573623
C227	C	0.937696	-0.493335	-1.027268
C228	C	1.437696	0.006665	-0.527268
H229	H	0.935127	-0.462929	-0.976886
H230	H	1.435127	0.037071	-0.476886
H231	H	0.964862	-0.549750	-1.019734
H232	H	1.464862	-0.049750	-0.519734
C233	C	0.861813	-0.541346	-1.116746
C234	C	1.361813	-0.041346	-0.616746
C235	C	0.858652	-0.503998	-1.054867
C236	C	1.358652	-0.003998	-0.554867
H237	H	0.813055	-0.547927	-1.133771
H238	H	1.313055	-0.047927	-0.633771
H239	H	0.890069	-0.513099	-1.147977
H240	H	1.390069	-0.013099	-0.647977
H241	H	0.884454	-0.588355	-1.110459
H242	H	1.384454	-0.088355	-0.610459
H243	H	0.836020	-0.456987	-1.061156
H244	H	1.336020	0.043013	-0.561156
H245	H	0.830390	-0.532238	-1.023638
H246	H	1.330390	-0.032238	-0.523638
H247	H	1.106693	-0.811201	-0.439917
H248	H	1.606693	-0.311201	0.060083
O249	O	0.979782	-0.451456	-0.934308
O250	O	1.479782	0.048544	-0.434308
C251	C	1.022027	-0.499465	-0.893415
C252	C	1.522027	0.000535	-0.393415
H253	H	1.078315	-0.473294	-0.882812
H254	H	1.578315	0.026706	-0.382812
H255	H	1.030173	-0.554492	-0.920649
H256	H	1.530173	-0.054492	-0.420649
C257	C	0.911998	-0.545069	-0.839303
C258	C	1.411998	-0.045069	-0.339303
C259	C	0.981130	-0.512922	-0.826275
C260	C	1.481130	-0.012922	-0.326275
H261	H	0.886771	-0.553373	-0.797889
H262	H	1.386771	-0.053373	-0.297889
H263	H	0.883537	-0.512727	-0.866855
H264	H	1.383537	-0.012727	-0.366855
H265	H	0.918797	-0.590921	-0.862000
H266	H	1.418797	-0.090921	-0.362000
H267	H	0.974330	-0.467067	-0.803587
H268	H	1.474330	0.032933	-0.303587
H269	H	1.009589	-0.545257	-0.798718
H270	H	1.509589	-0.045257	-0.298718
H271	H	0.527198	-0.324668	-0.439876
H272	H	1.027198	0.175332	0.060124
O273	O	0.937206	-0.807185	-0.292482
O274	O	1.437206	-0.307185	0.207518
C275	C	0.889428	-0.867488	-0.280135
C276	C	1.389428	-0.367488	0.219865
H277	H	0.923562	-0.918367	-0.266163
H278	H	1.423562	-0.418367	0.233837
H279	H	0.855648	-0.879655	-0.327486
H280	H	1.355648	-0.379655	0.172514
C281	C	0.794833	-0.785707	-0.238719
C282	C	1.294833	-0.285707	0.261281
C283	C	0.836758	-0.848195	-0.221553
C284	C	1.336758	-0.348195	0.278447
H285	H	0.762341	-0.773806	-0.202586
H286	H	1.262341	-0.273806	0.297414
H287	H	0.827021	-0.745079	-0.247040
H288	H	1.327021	-0.245079	0.252960
H289	H	0.766691	-0.795854	-0.278179
H290	H	1.266691	-0.295854	0.221821
H291	H	0.864906	-0.838044	-0.182099
H292	H	1.364906	-0.338044	0.317901
H293	H	0.804573	-0.888821	-0.213224
H294	H	1.304573	-0.388821	0.286776
H295	H	0.981701	-0.903773	-0.409352
H296	H	1.481701	-0.403773	0.090648
H297	H	1.039919	-0.904084	-0.211881
H298	H	1.539919	-0.404084	0.288119
H299	H	0.987119	-0.444006	-0.712411
H300	H	1.487119	0.055994	-0.212411
H301	H	0.987091	-0.444036	-0.584165
H302	H	1.487091	0.055964	-0.084165
