data_functionalizedCrystal
_audit_creation_method	'MofGen! by Chris Wilmer'
_symmetry_space_group_name_H-M	'P1'
_symmetry_Int_Tables_number	1
_symmetry_cell_setting	triclinic
loop_
_symmetry_equiv_pos_as_xyz
  x,y,z
_cell_length_a	10.654562
_cell_length_b	14.519731
_cell_length_c	9.730223
_cell_angle_alpha	89.997677
_cell_angle_beta	89.996961
_cell_angle_gamma	84.089478
loop_
_atom_site_label
_atom_site_type_symbol
_atom_site_fract_x
_atom_site_fract_y
_atom_site_fract_z
O1	O	1.666592	0.129583	-0.114384
O2	O	1.300999	0.141911	-0.114367
O3	O	1.493475	0.001560	-0.114363
O4	O	1.474116	0.269934	-0.114387
O5	O	1.493472	0.001564	0.114217
O6	O	1.300996	0.141915	0.114213
O7	O	1.666590	0.129586	0.114196
Zn8	Zn	1.483793	0.135751	0.150497
Zn9	Zn	1.483796	0.135747	-0.150667
O10	O	1.474114	0.269937	0.114193
C11	C	1.254208	0.141006	-0.000075
C12	C	1.114792	0.138290	-0.000068
C13	C	1.049272	0.137025	0.124520
C14	C	0.918274	0.134481	0.124498
C15	C	0.918326	0.134470	-0.124713
C16	C	1.049323	0.137008	-0.124689
C17	C	1.114740	0.138307	0.249141
C18	C	1.049220	0.137044	0.373739
C19	C	0.918222	0.134499	0.373717
C20	C	0.852744	0.133219	0.249096
C21	C	1.492566	-0.032802	-0.000073
C22	C	1.489848	-0.135196	-0.000072
C23	C	1.487640	-0.218352	-0.000075
C24	C	1.484880	-0.322675	-0.000085
C25	C	1.482690	-0.405826	-0.000094
C26	C	1.479930	-0.510155	-0.000102
C27	C	1.713380	0.130492	-0.000099
C28	C	1.852797	0.133208	-0.000115
C29	C	1.475022	0.304300	-0.000101
C30	C	1.477740	0.406694	-0.000111
N31	N	1.483800	0.135754	0.356033
N32	N	1.483799	0.135737	-0.356204
C33	C	1.569050	0.073628	0.427961
C34	C	1.569047	0.073616	0.571844
C35	C	1.398539	0.197866	0.571859
C36	C	1.398537	0.197872	0.427978
C37	C	1.654313	0.011510	0.356015
C38	C	1.739571	-0.050621	0.427943
C39	C	1.739567	-0.050632	0.571826
C40	C	1.654306	0.011487	0.643781
H41	H	1.102670	0.138042	-0.226139
O42	O	0.854838	0.133363	-0.245848
C43	C	0.872820	0.213724	-0.321633
H44	H	0.963256	0.242144	-0.286192
H45	H	0.880471	0.195882	-0.435622
H46	H	0.789277	0.268129	-0.304369
H47	H	1.654325	0.011515	0.238859
O48	O	1.315850	0.258175	0.641965
C49	C	1.334114	0.244833	0.784381
H50	H	1.433875	0.211048	0.804020
H51	H	1.320304	0.314577	0.839067
H52	H	1.262932	0.198088	0.825217
H53	H	1.221405	0.140382	0.249174
O54	O	1.315856	0.258350	0.358158
C55	C	1.336451	0.349786	0.393335
H56	H	1.436990	0.350929	0.432887
H57	H	1.322114	0.395970	0.298711
H58	H	1.266904	0.376395	0.476850
O59	O	1.822536	-0.110923	0.358178
C60	C	1.946896	-0.095084	0.393272
H61	H	1.946857	-0.059557	0.497750
H62	H	2.008569	-0.163989	0.398150
H63	H	1.985821	-0.048900	0.312296
H64	H	1.808979	-0.101227	0.630388
O65	O	1.654498	0.011376	0.783550
C66	C	1.747996	-0.056802	0.831612
H67	H	1.822773	-0.072365	0.748698
H68	H	1.793799	-0.030518	0.927877
H69	H	1.703023	-0.122651	0.857124
H70	H	1.102542	0.138079	0.475201
H71	H	0.864880	0.133463	0.475171
H72	H	0.746077	0.131145	0.249087
