data_functionalizedCrystal
_audit_creation_method	'MofGen! by Chris Wilmer'
_symmetry_space_group_name_H-M	'P1'
_symmetry_Int_Tables_number	1
_symmetry_cell_setting	triclinic
loop_
_symmetry_equiv_pos_as_xyz
  x,y,z
_cell_length_a	11.169417
_cell_length_b	14.908308
_cell_length_c	14.908506
_cell_angle_alpha	96.362085
_cell_angle_beta	93.320593
_cell_angle_gamma	93.281299
loop_
_atom_site_label
_atom_site_type_symbol
_atom_site_fract_x
_atom_site_fract_y
_atom_site_fract_z
Zn1	Zn	1.763998	-0.532504	-0.389852
Zn2	Zn	1.763864	-0.389877	-0.532498
Zn3	Zn	1.575587	-0.381169	-0.381157
Zn4	Zn	1.550968	-0.541195	-0.541174
O5	O	1.663604	-0.461186	-0.461170
O6	O	1.931929	-0.513591	-0.408783
O7	O	1.749136	-0.262061	-0.505152
O8	O	1.610940	-0.393962	-0.255645
O9	O	1.931830	-0.408804	-0.513584
O10	O	1.749364	-0.505147	-0.262034
O11	O	1.610810	-0.255663	-0.393963
O12	O	1.404373	-0.402390	-0.402376
O13	O	1.568979	-0.666703	-0.528370
O14	O	1.386285	-0.519960	-0.519939
O15	O	1.725492	-0.660318	-0.417195
O16	O	1.725263	-0.417232	-0.660314
O17	O	1.568849	-0.528404	-0.666688
C18	C	1.351782	-0.461174	-0.461156
C19	C	1.218379	-0.461191	-0.461173
C20	C	1.644504	-0.697271	-0.474720
C21	C	1.636365	-0.797876	-0.480495
C22	C	1.784045	-0.980275	-0.375557
C23	C	1.776401	-1.074802	-0.380980
C24	C	1.613429	-1.081459	-0.496757
C25	C	1.621072	-0.986932	-0.491334
C26	C	1.706384	-0.936343	-0.430734
C27	C	1.714033	-0.841814	-0.425316
C28	C	1.551056	-0.848473	-0.541088
C29	C	1.543412	-0.943000	-0.546510
C30	C	1.976644	-0.461199	-0.461185
C31	C	2.110043	-0.461205	-0.461192
C32	C	1.644401	-0.474726	-0.696345
C33	C	1.636293	-0.480548	-0.796955
C34	C	1.682705	-0.226016	-0.447607
C35	C	1.691097	-0.125397	-0.441578
C36	C	1.543374	-0.546582	-0.942109
C37	C	1.550989	-0.541117	-0.847577
C38	C	1.713991	-0.425441	-0.840872
C39	C	1.706376	-0.430906	-0.935404
C40	C	1.621064	-0.491477	-0.986020
C41	C	1.613444	-0.496937	-1.080553
C42	C	1.776451	-0.381266	-1.073847
C43	C	1.784066	-0.375801	-0.979315
C44	C	1.682913	-0.447614	-0.225078
C45	C	1.691142	-0.441830	-0.124470
H46	H	1.783500	-0.800626	-0.375974
H47	H	1.853515	-0.939084	-0.326219
C48	C	1.389104	-0.656004	-0.863704
C49	C	1.465589	-0.601688	-0.799310
H50	H	1.336377	-0.693396	-0.833904
H51	H	1.435589	-0.692786	-0.902516
H52	H	1.343460	-0.618663	-0.898354
H53	H	1.511239	-0.639030	-0.764664
H54	H	1.419098	-0.564903	-0.760483
H55	H	1.783458	-0.376132	-0.799649
H56	H	1.543972	-1.122664	-0.546094
C57	C	1.938264	-1.058723	-0.266001
C58	C	1.861772	-1.123093	-0.320333
H59	H	1.990974	-1.088538	-0.228563
H60	H	1.891783	-1.019865	-0.229264
H61	H	1.983926	-1.024121	-0.303334
H62	H	1.816104	-1.157691	-0.283000
H63	H	1.908259	-1.161966	-0.357074
H64	H	1.853528	-0.326488	-0.938093
H65	H	1.839711	-0.336395	-1.109608
H66	H	1.473952	-0.984202	-0.595848
H67	H	1.543982	-0.546259	-1.121763
C68	C	1.490405	-0.706527	-0.584190
C69	C	1.465682	-0.800181	-0.601742
H70	H	1.437697	-0.676716	-0.621633
H71	H	1.571205	-0.691807	-0.596550
H72	H	1.479058	-0.687543	-0.522483
H73	H	1.477038	-0.819166	-0.663448
H74	H	1.384863	-0.814907	-0.589389
H75	H	1.473911	-0.595903	-0.983321
