data_functionalizedCrystal
_audit_creation_method	'MofGen! by Chris Wilmer'
_symmetry_space_group_name_H-M	'P1'
_symmetry_Int_Tables_number	1
_symmetry_cell_setting	triclinic
loop_
_symmetry_equiv_pos_as_xyz
  x,y,z
_cell_length_a	14.853566
_cell_length_b	10.489716
_cell_length_c	13.930277
_cell_angle_alpha	89.994326
_cell_angle_beta	89.987070
_cell_angle_gamma	84.081775
loop_
_atom_site_label
_atom_site_type_symbol
_atom_site_fract_x
_atom_site_fract_y
_atom_site_fract_z
O1	O	1.197270	0.166514	0.079759
O2	O	0.934921	0.186353	0.079773
O3	O	1.072077	-0.009233	0.079769
O4	O	1.060114	0.362101	0.079763
O5	O	1.072102	-0.009221	-0.079893
O6	O	0.934946	0.186366	-0.079888
O7	O	1.197295	0.166526	-0.079903
Zn8	Zn	1.066124	0.176448	-0.105246
Zn9	Zn	1.066092	0.176432	0.105116
O10	O	1.060139	0.362113	-0.079899
C11	C	0.901339	0.185461	-0.000055
C12	C	0.801241	0.182768	-0.000049
C13	C	0.377979	0.171371	0.086966
C14	C	0.378028	0.171385	-0.087104
C15	C	0.472076	0.173914	-0.087101
C16	C	0.519080	0.175173	-0.000064
C17	C	0.472036	0.173904	0.086971
C18	C	0.519126	0.175196	-0.174134
C19	C	0.613179	0.177727	-0.174135
C20	C	0.660186	0.178977	-0.087096
C21	C	0.613136	0.177706	-0.000058
C22	C	0.660140	0.178966	0.086980
C23	C	0.613093	0.177685	0.174019
C24	C	0.519042	0.175154	0.174010
C25	C	0.754237	0.181508	-0.087087
C26	C	0.754197	0.181498	0.086985
C27	C	1.071190	-0.056749	-0.000059
C28	C	1.068501	-0.198350	-0.000050
C29	C	1.152610	-0.296969	-0.000063
C30	C	1.108153	-0.373836	0.078658
C31	C	1.108158	-0.373788	-0.078756
C32	C	1.024079	-0.273353	0.078737
C33	C	1.024097	-0.273299	-0.078748
C34	C	0.979578	-0.350117	-0.000007
C35	C	1.230877	0.167419	-0.000072
C36	C	1.330975	0.170112	-0.000072
C37	C	1.061026	0.409629	-0.000069
C38	C	1.063715	0.551230	-0.000071
N39	N	1.066070	0.176411	0.248682
N40	N	1.066153	0.176458	-0.248812
C41	C	1.005293	0.262884	0.700953
C42	C	1.126995	0.090022	0.700919
C43	C	1.126981	0.090013	0.600423
C44	C	1.066121	0.176439	0.550188
C45	C	1.005275	0.262875	0.600448
C46	C	1.187819	0.003570	0.550155
C47	C	1.187807	0.003556	0.449653
C48	C	1.126950	0.089990	0.399416
C49	C	1.066102	0.176430	0.449683
C50	C	1.005242	0.262857	0.399447
C51	C	0.944398	0.349304	0.449712
C52	C	0.944418	0.349309	0.550211
C53	C	1.126930	0.089985	0.298917
C54	C	1.005224	0.262847	0.298942
H55	H	0.792461	0.182520	0.157863
H56	H	0.955667	0.333231	0.258047
H57	H	0.651375	0.178720	0.244885
C58	C	0.467283	0.173754	0.269744
N59	N	0.428293	0.172704	0.341851
H60	H	0.988583	-0.229655	0.145363
C61	C	0.880669	-0.382017	0.000055
N62	N	0.806172	-0.406047	0.000106
H63	H	0.339751	0.170369	-0.157966
H64	H	1.143648	-0.417735	0.145209
C65	C	0.877448	0.444361	0.394440
N66	N	0.827021	0.515953	0.352805
H67	H	0.988633	-0.229378	-0.145301
C68	C	1.254728	-0.091547	0.394371
N69	N	1.305132	-0.163183	0.352732
H70	H	0.651478	0.178767	-0.245007
C71	C	1.156158	-0.433035	-0.168670
N72	N	1.192318	-0.477655	-0.236391
C73	C	0.805984	0.182917	-0.182824
N74	N	0.844960	0.183975	-0.254938
C75	C	0.877490	0.444383	0.605509
N76	N	0.827076	0.515988	0.647164
H77	H	0.955757	0.333272	0.741881
H78	H	1.176464	0.019595	0.257996
C79	C	1.251444	-0.264736	0.000038
N80	N	1.325883	-0.240456	0.000118
H81	H	0.339670	0.170323	0.157831
C82	C	1.193917	-0.005071	0.756181
N83	N	1.244320	-0.076706	0.797808
C84	C	1.254730	-0.091536	0.605419
N85	N	1.305120	-0.163186	0.647050
C86	C	0.467416	0.173817	-0.269869
N87	N	0.428463	0.172775	-0.341979
