data_functionalizedCrystal
_audit_creation_method	'MofGen! by Chris Wilmer'
_symmetry_space_group_name_H-M	'P1'
_symmetry_Int_Tables_number	1
_symmetry_cell_setting	triclinic
loop_
_symmetry_equiv_pos_as_xyz
  x,y,z
_cell_length_a	14.971486
_cell_length_b	10.654541
_cell_length_c	14.048226
_cell_angle_alpha	89.993817
_cell_angle_beta	89.998499
_cell_angle_gamma	84.049029
loop_
_atom_site_label
_atom_site_type_symbol
_atom_site_fract_x
_atom_site_fract_y
_atom_site_fract_z
O1	O	1.187837	0.163659	-0.079051
O2	O	0.927543	0.183258	-0.079076
O3	O	1.063676	-0.009345	-0.079057
O4	O	1.051704	0.356262	-0.079070
O5	O	1.063659	-0.009357	0.079264
O6	O	0.927526	0.183246	0.079245
O7	O	1.187820	0.163648	0.079271
Zn8	Zn	1.057671	0.173445	0.104395
Zn9	Zn	1.057692	0.173460	-0.104200
O10	O	1.051687	0.356251	0.079251
C11	C	0.894205	0.182376	0.000081
C12	C	0.794894	0.179749	0.000071
C13	C	0.738284	0.292898	0.000069
C14	C	0.644971	0.290423	0.000083
C15	C	0.608270	0.174797	0.000093
C16	C	0.664887	0.061639	0.000098
C17	C	0.758199	0.064116	0.000091
C18	C	0.470397	0.056485	0.000112
C19	C	0.377079	0.054008	0.000117
C20	C	0.357169	0.282792	0.000104
C21	C	0.450480	0.285268	0.000096
C22	C	0.507091	0.172110	0.000100
C23	C	1.062789	-0.056140	0.000103
C24	C	1.060160	-0.195555	0.000101
C25	C	1.222944	-0.225272	0.000129
C26	C	1.303097	-0.305626	0.000145
C27	C	1.300621	-0.436618	0.000142
C28	C	1.217984	-0.487256	0.000120
C29	C	1.137831	-0.406902	0.000104
C30	C	1.140315	-0.275909	0.000110
C31	C	0.975050	-0.377185	0.000069
C32	C	0.977523	-0.246194	0.000079
C33	C	0.892412	-0.427824	0.000047
C34	C	0.812257	-0.347470	0.000038
C35	C	0.814736	-0.216471	0.000042
C36	C	0.897370	-0.165839	0.000063
C37	C	1.221158	0.164530	0.000111
C38	C	1.320469	0.167157	0.000115
C39	C	1.052574	0.403045	0.000089
C40	C	1.055203	0.542460	0.000085
N41	N	1.057662	0.173434	0.246755
N42	N	1.057708	0.173461	-0.246561
C43	C	1.117961	0.088185	0.296582
C44	C	1.117967	0.088184	0.396240
C45	C	1.057678	0.173440	0.446069
C46	C	0.997373	0.258693	0.396235
C47	C	0.997363	0.258687	0.296579
C48	C	0.997398	0.258702	0.603950
C49	C	0.997409	0.258711	0.703612
C50	C	1.118003	0.088200	0.703610
C51	C	1.117993	0.088193	0.603954
C52	C	1.057688	0.173449	0.554127
H53	H	0.634998	-0.032506	0.000120
F54	F	0.489538	0.408330	0.000076
H55	H	0.948260	0.328104	0.256012
F56	F	0.530645	-0.063952	0.000119
F57	F	1.182163	-0.002537	0.550921
H58	H	0.598882	0.382560	0.000080
H59	H	0.768157	0.387054	0.000060
F60	F	0.933203	0.349424	0.449268
F61	F	0.818448	-0.056313	0.000097
H62	H	0.899396	-0.059181	0.000072
F63	F	1.215354	-0.626670	0.000064
F64	F	1.225585	-0.085860	0.000151
F65	F	0.296918	0.403224	0.000101
H66	H	0.749465	-0.151052	0.000025
F67	F	1.385929	-0.522139	0.000151
H68	H	1.167104	0.018782	0.744184
H69	H	1.370379	-0.264381	0.000171
F70	F	0.889780	-0.567238	-0.000005
F71	F	0.724319	-0.401371	0.000004
F72	F	0.933239	0.349450	0.756637
F73	F	0.338022	-0.069054	0.000153
F74	F	1.182135	-0.002552	0.243559
H75	H	1.167066	0.018767	0.436808
F76	F	0.933212	0.349439	0.550924
