data_functionalizedCrystal
_audit_creation_method	'MofGen! by Chris Wilmer'
_symmetry_space_group_name_H-M	'P1'
_symmetry_Int_Tables_number	1
_symmetry_cell_setting	triclinic
loop_
_symmetry_equiv_pos_as_xyz
  x,y,z
_cell_length_a	17.699083
_cell_length_b	14.971486
_cell_length_c	13.448316
_cell_angle_alpha	89.998199
_cell_angle_beta	90.000153
_cell_angle_gamma	96.551429
loop_
_atom_site_label
_atom_site_type_symbol
_atom_site_fract_x
_atom_site_fract_y
_atom_site_fract_z
O1	O	-0.098633	1.186608	-0.082563
O2	O	0.401367	1.686608	0.417437
O3	O	-0.110445	0.926168	-0.082588
O4	O	0.389555	1.426168	0.417412
O5	O	0.005632	1.063746	-0.082585
O6	O	0.505632	1.563746	0.417415
O7	O	-0.214710	1.049030	-0.082567
O8	O	0.285290	1.549030	0.417433
O9	O	0.005639	1.063729	0.082799
O10	O	0.505639	1.563729	0.582799
O11	O	-0.110438	0.926150	0.082796
O12	O	0.389562	1.426150	0.582796
O13	O	-0.098626	1.186591	0.082821
O14	O	0.401374	1.686591	0.582821
Cu15	Cu	-0.104531	1.056369	0.097909
Cu16	Cu	0.395469	1.556369	0.597909
Cu17	Cu	-0.104540	1.056390	-0.097676
Cu18	Cu	0.395460	1.556390	0.402324
O19	O	-0.214703	1.049013	0.082817
O20	O	0.285297	1.549013	0.582817
C21	C	-0.109913	0.892836	0.000100
C22	C	0.390087	1.392836	0.500100
C23	C	-0.108330	0.793544	0.000090
C24	C	0.391670	1.293544	0.500090
C25	C	-0.176522	0.736085	0.000097
C26	C	0.323478	1.236085	0.500097
C27	C	-0.175030	0.642790	0.000111
C28	C	0.324970	1.142790	0.500111
C29	C	-0.105346	0.606958	0.000112
C30	C	0.394654	1.106958	0.500112
C31	C	-0.037148	0.664425	0.000108
C32	C	0.462852	1.164425	0.500108
C33	C	-0.038641	0.757717	0.000100
C34	C	0.461359	1.257717	0.500100
C35	C	-0.034042	0.469973	0.000121
C36	C	0.465958	0.969973	0.500121
C37	C	-0.032549	0.376674	0.000127
C38	C	0.467451	0.876674	0.500127
C39	C	-0.170431	0.355046	0.000133
C40	C	0.329569	0.855046	0.500133
C41	C	-0.171924	0.448339	0.000125
C42	C	0.328076	0.948339	0.500125
C43	C	-0.103726	0.505799	0.000119
C44	C	0.396274	1.005799	0.500119
C45	C	-0.242905	1.049549	0.000128
C46	C	0.257095	1.549549	0.500128
C47	C	-0.326927	1.051131	0.000135
C48	C	0.173073	1.551131	0.500135
C49	C	-0.375349	0.970375	0.000127
C50	C	0.124651	1.470375	0.500127
C51	C	-0.454296	0.971867	0.000116
C52	C	0.045704	1.471867	0.500116
C53	C	-0.484819	1.054115	0.000119
C54	C	0.015181	1.554115	0.500119
C55	C	-0.436391	1.134877	0.000124
C56	C	0.063609	1.634877	0.500124
C57	C	-0.357445	1.133384	0.000129
C58	C	0.142555	1.633384	0.500129
C59	C	-0.754769	1.140898	0.000105
C60	C	-0.254769	1.640898	0.500105
C61	C	-0.833720	1.142385	0.000104
C62	C	-0.333720	1.642385	0.500104
C63	C	-0.851619	0.979381	0.000092
C64	C	-0.351619	1.479381	0.500092
C65	C	-0.772674	0.977888	0.000097
C66	C	-0.272674	1.477888	0.500097
C67	C	-0.724252	1.058649	0.000096
C68	C	-0.224252	1.558649	0.500096
C69	C	-0.638649	1.057031	0.000107
C70	C	-0.138649	1.557031	0.500107
C71	C	-0.570421	1.055734	0.000116
C72	C	-0.070421	1.555734	0.500116
C73	C	0.033834	1.063210	0.000103
C74	C	0.533834	1.563210	0.500103
C75	C	0.117856	1.061628	0.000089
C76	C	0.617856	1.561628	0.500089
C77	C	-0.099158	1.219923	0.000130
C78	C	0.400842	1.719923	0.500130
C79	C	-0.100741	1.319214	0.000134
C80	C	0.399259	1.819214	0.500134
N81	N	-0.104525	1.056361	0.235473
N82	N	0.395475	1.556361	0.735473
N83	N	-0.104540	1.056404	-0.235241
N84	N	0.395460	1.556404	0.264759
C85	C	-0.053147	1.117300	0.287515
C86	C	0.446853	1.617300	0.787515
C87	C	-0.053147	1.117306	0.391619
C88	C	0.446853	1.617306	0.891619
C89	C	-0.104528	1.056376	0.443678
C90	C	0.395472	1.556376	0.943678
C91	C	-0.155908	0.995431	0.391629
C92	C	0.344092	1.495431	0.891629
C93	C	-0.155904	0.995422	0.287527
C94	C	0.344096	1.495422	0.787527
C95	C	-0.155913	0.995456	0.608609
C96	C	0.344087	1.495456	1.108609
C97	C	-0.155918	0.995466	0.712717
C98	C	0.344082	1.495466	1.212717
C99	C	-0.053155	1.117339	0.712700
C100	C	0.446845	1.617339	1.212700
C101	C	-0.053152	1.117330	0.608599
C102	C	0.446848	1.617330	1.108599
C103	C	-0.104533	1.056386	0.556557
C104	C	0.395467	1.556386	1.056557
H105	H	0.021492	0.516756	0.000118
H106	H	0.521492	1.016756	0.500118
H107	H	-0.715353	1.206659	0.000111
H108	H	-0.215353	1.706659	0.500111
H109	H	0.019590	0.635242	0.000123
H110	H	0.519590	1.135242	0.500123
H111	H	-0.350504	0.903399	0.000136
H112	H	0.149496	1.403399	0.500136
H113	H	0.016888	0.804501	0.000094
H114	H	0.516888	1.304501	0.500094
Br115	Br	-0.291728	1.242985	0.000129
Br116	Br	0.208272	1.742985	0.500129
H117	H	-0.493719	0.906107	0.000106
H118	H	0.006281	1.406107	0.500106
Br119	Br	-0.731254	0.866262	0.000099
Br120	Br	-0.231254	1.366262	0.500099
H121	H	-0.233267	0.765252	0.000096
H122	H	0.266733	1.265252	0.500096
H123	H	-0.197741	0.945817	0.434021
H124	H	0.302259	1.445817	0.934021
Br125	Br	0.016583	1.200001	0.216874
Br126	Br	0.516583	1.700001	0.716874
H127	H	-0.225960	0.308257	0.000142
H128	H	0.274040	0.808257	0.500142
H129	H	-0.461249	1.201845	0.000129
H130	H	0.038751	1.701845	0.500129
Br131	Br	0.062024	0.328044	0.000161
Br132	Br	0.562024	0.828044	0.500161
Br133	Br	-0.917339	0.869774	0.000090
Br134	Br	-0.417339	1.369774	0.500090
H135	H	-0.858569	1.209365	0.000105
H136	H	-0.358569	1.709365	0.500105
Br137	Br	-0.225629	0.912710	0.216899
Br138	Br	0.274371	1.412710	0.716899
Br139	Br	0.016573	1.200027	0.537943
Br140	Br	0.516573	1.700027	1.037943
H141	H	-0.197751	0.945826	0.566240
H142	H	0.302249	1.445826	1.066240
Br143	Br	-0.267581	0.564812	0.000118
Br144	Br	0.232419	1.064812	0.500118
H145	H	-0.011311	1.166926	0.433991
H146	H	0.488689	1.666926	0.933991
H147	H	-0.197757	0.945850	0.755099
H148	H	0.302243	1.445850	1.255099
H149	H	-0.228667	0.477510	0.000115
H150	H	0.271333	0.977510	0.500115
H151	H	-0.011319	1.166962	0.755079
H152	H	0.488681	1.666962	1.255079
