data_functionalizedCrystal
_audit_creation_method	'MofGen! by Chris Wilmer'
_symmetry_space_group_name_H-M	'P1'
_symmetry_Int_Tables_number	1
_symmetry_cell_setting	triclinic
loop_
_symmetry_equiv_pos_as_xyz
  x,y,z
_cell_length_a	14.044202
_cell_length_b	14.044220
_cell_length_c	12.503572
_cell_angle_alpha	86.150791
_cell_angle_beta	93.844866
_cell_angle_gamma	93.190789
loop_
_atom_site_label
_atom_site_type_symbol
_atom_site_fract_x
_atom_site_fract_y
_atom_site_fract_z
O1	O	-1.272121	-0.235257	0.089272
O2	O	-1.022121	0.014743	0.339272
O3	O	-0.772121	0.264743	0.589272
O4	O	-0.522121	0.514743	0.839272
O5	O	-0.995448	-0.226943	0.089286
O6	O	-0.745448	0.023057	0.339286
O7	O	-0.495448	0.273057	0.589286
O8	O	-0.245448	0.523057	0.839286
O9	O	-1.129632	-0.092763	0.089269
O10	O	-0.879632	0.157237	0.339269
O11	O	-0.629632	0.407237	0.589269
O12	O	-0.379632	0.657237	0.839269
O13	O	-1.137936	-0.369436	0.089290
O14	O	-0.887936	-0.119436	0.339290
O15	O	-0.637936	0.130564	0.589290
O16	O	-0.387936	0.380564	0.839290
O17	O	-1.139727	-0.082659	-0.089375
O18	O	-0.889727	0.167341	0.160625
O19	O	-0.639727	0.417341	0.410625
O20	O	-0.389727	0.667341	0.660625
O21	O	-1.005543	-0.216838	-0.089357
O22	O	-0.755543	0.033162	0.160643
O23	O	-0.505543	0.283162	0.410643
O24	O	-0.255543	0.533162	0.660643
O25	O	-1.282216	-0.225152	-0.089371
O26	O	-1.032216	0.024848	0.160629
O27	O	-0.782216	0.274848	0.410629
O28	O	-0.532216	0.524848	0.660629
Cu29	Cu	-1.144801	-0.220073	-0.105676
Cu30	Cu	-0.894801	0.029927	0.144324
Cu31	Cu	-0.644801	0.279927	0.394324
Cu32	Cu	-0.394801	0.529927	0.644324
Cu33	Cu	-1.132862	-0.232022	0.105591
Cu34	Cu	-0.882862	0.017978	0.355591
Cu35	Cu	-0.632862	0.267978	0.605591
Cu36	Cu	-0.382862	0.517978	0.855591
O37	O	-1.148032	-0.359332	-0.089354
O38	O	-0.898032	-0.109332	0.160646
O39	O	-0.648032	0.140668	0.410646
O40	O	-0.398032	0.390668	0.660646
C41	C	-0.964873	-0.218254	-0.000034
C42	C	-0.714873	0.031746	0.249966
C43	C	-0.464873	0.281746	0.499966
C44	C	-0.214873	0.531746	0.749966
C45	C	-0.858730	-0.207406	-0.000029
C46	C	-0.608730	0.042594	0.249971
C47	C	-0.358730	0.292594	0.499971
C48	C	-0.108730	0.542594	0.749971
C49	C	-0.613272	-0.264504	-0.000035
C50	C	-0.363272	-0.014504	0.249965
C51	C	-0.113272	0.235496	0.499965
C52	C	0.136728	0.485496	0.749965
C53	C	-0.664397	-0.187588	-0.000039
C54	C	-0.414397	0.062412	0.249961
C55	C	-0.164397	0.312412	0.499961
C56	C	0.085603	0.562412	0.749961
C57	C	-0.772534	-0.198617	-0.000033
C58	C	-0.522534	0.051383	0.249967
C59	C	-0.272534	0.301383	0.499967
C60	C	-0.022534	0.551383	0.749967
C61	C	-0.505125	-0.253476	-0.000040
C62	C	-0.255125	-0.003476	0.249960
C63	C	-0.005125	0.246524	0.499960
C64	C	0.244875	0.496524	0.749960
N65	N	-1.153205	-0.211668	-0.254269
N66	N	-0.903205	0.038332	-0.004269
N67	N	-0.653205	0.288332	0.245731
N68	N	-0.403205	0.538332	0.495731
C69	C	-1.131044	-0.052089	-0.000053
C70	C	-0.881044	0.197911	0.249947
C71	C	-0.631044	0.447911	0.499947
C72	C	-0.381044	0.697911	0.749947
C73	C	-1.120199	0.054054	-0.000054
C74	C	-0.870199	0.304054	0.249946
C75	C	-0.620199	0.554054	0.499946
C76	C	-0.370199	0.804054	0.749946
C77	C	-0.312790	-0.233839	-0.000048
C78	C	-0.062790	0.016161	0.249952
C79	C	0.187210	0.266161	0.499952
C80	C	0.437210	0.516161	0.749952
C81	C	-0.418933	-0.244682	-0.000045
C82	C	-0.168933	0.005318	0.249955
C83	C	0.081067	0.255318	0.499955
C84	C	0.331067	0.505318	0.749955
C85	C	-1.146619	-0.400006	-0.000029
C86	C	-0.896619	-0.150006	0.249971
C87	C	-0.646619	0.099994	0.499971
C88	C	-0.396619	0.349994	0.749971
C89	C	-1.157464	-0.506150	-0.000022
C90	C	-0.907464	-0.256150	0.249978
C91	C	-0.657464	-0.006150	0.499978
C92	C	-0.407464	0.243850	0.749978
C93	C	-1.100372	0.248392	-0.000038
C94	C	-0.850372	0.498392	0.249962
C95	C	-0.600372	0.748392	0.499962
C96	C	-0.350372	0.998392	0.749962
C97	C	-1.177287	0.299519	-0.000038
C98	C	-0.927287	0.549519	0.249962
C99	C	-0.677287	0.799519	0.499962
C100	C	-0.427287	1.049519	0.749962
C101	C	-1.166254	0.407655	-0.000029
C102	C	-0.916254	0.657655	0.249971
C103	C	-0.666254	0.907655	0.499971
C104	C	-0.416254	1.157655	0.749971
C105	C	-1.111403	0.140246	-0.000047
C106	C	-0.861403	0.390246	0.249953
C107	C	-0.611403	0.640246	0.499953
C108	C	-0.361403	0.890246	0.749953
N109	N	-1.124465	-0.240420	0.254184
N110	N	-0.874465	0.009580	0.504184
N111	N	-0.624465	0.259580	0.754184
N112	N	-0.374465	0.509580	1.004184
C113	C	-1.112105	-0.252773	0.473301
C114	C	-0.862105	-0.002773	0.723301
C115	C	-0.612105	0.247227	0.973301
C116	C	-0.362105	0.497227	1.223301
C117	C	-1.165562	-0.199319	0.526621
C118	C	-0.915562	0.050681	0.776621
C119	C	-0.665562	0.300681	1.026621
C120	C	-0.415562	0.550681	1.276621
C121	C	-1.158685	-0.206192	0.648545
C122	C	-0.908685	0.043808	0.898545
C123	C	-0.658685	0.293808	1.148545
C124	C	-0.408685	0.543808	1.398545
C125	C	-1.118981	-0.245900	0.351366
C126	C	-0.868981	0.004100	0.601366
C127	C	-0.618981	0.254100	0.851366
C128	C	-0.368981	0.504100	1.101366
H129	H	-1.251416	0.262073	0.000030
H130	H	-1.001416	0.512073	0.250030
H131	H	-0.751416	0.762073	0.500030
H132	H	-0.501416	1.012073	0.750030
N133	N	-0.614810	-0.089387	-0.000048
N134	N	-0.364810	0.160613	0.249952
N135	N	-0.114810	0.410613	0.499952
N136	N	0.135190	0.660613	0.749952
H137	H	-0.543470	-0.095323	-0.000048
H138	H	-0.293470	0.154677	0.249952
H139	H	-0.043470	0.404677	0.499952
H140	H	0.206530	0.654677	0.749952
H141	H	-0.630195	-0.057326	0.066179
H142	H	-0.380195	0.192674	0.316179
H143	H	-0.130195	0.442674	0.566179
H144	H	0.119805	0.692674	0.816179
H145	H	-1.026244	0.285831	-0.000031
H146	H	-0.776244	0.535831	0.249969
H147	H	-0.526244	0.785831	0.499969
H148	H	-0.276244	1.035831	0.749969
H149	H	-0.650712	-0.338631	-0.000026
H150	H	-0.400712	-0.088631	0.249974
H151	H	-0.150712	0.161369	0.499974
H152	H	0.099288	0.411369	0.749974
N153	N	-1.044635	-0.320221	0.534109
N154	N	-0.794635	-0.070221	0.784109
N155	N	-0.544635	0.179779	1.034109
N156	N	-0.294635	0.429779	1.284109
H157	H	-1.082104	-0.368180	0.580781
H158	H	-0.832104	-0.118180	0.830781
H159	H	-0.582104	0.131820	1.080781
H160	H	-0.332104	0.381820	1.330781
H161	H	-0.996697	-0.282659	0.580699
H162	H	-0.746697	-0.032659	0.830699
H163	H	-0.496697	0.217341	1.080699
H164	H	-0.246697	0.467341	1.330699
H165	H	-1.216493	-0.148393	0.480702
H166	H	-0.966493	0.101607	0.730702
H167	H	-0.716493	0.351607	0.980702
H168	H	-0.466493	0.601607	1.230702
