data_functionalizedCrystal
_audit_creation_method	'MofGen! by Chris Wilmer'
_symmetry_space_group_name_H-M	'P1'
_symmetry_Int_Tables_number	1
_symmetry_cell_setting	triclinic
loop_
_symmetry_equiv_pos_as_xyz
  x,y,z
_cell_length_a	23.532355
_cell_length_b	14.044220
_cell_length_c	13.101039
_cell_angle_alpha	93.667477
_cell_angle_beta	86.670091
_cell_angle_gamma	88.008188
loop_
_atom_site_label
_atom_site_type_symbol
_atom_site_fract_x
_atom_site_fract_y
_atom_site_fract_z
O1	O	0.764361	0.109522	-0.085076
O2	O	1.264361	0.609522	0.414924
O3	O	0.599399	0.126212	-0.085109
O4	O	1.099399	0.626212	0.414891
O5	O	0.679404	-0.020092	-0.085083
O6	O	1.179404	0.479908	0.414917
O7	O	0.684356	0.255827	-0.085102
O8	O	1.184356	0.755827	0.414898
O9	O	0.673664	-0.009578	0.085345
O10	O	1.173664	0.490422	0.585345
O11	O	0.593660	0.136727	0.085319
O12	O	1.093660	0.636727	0.585319
O13	O	0.758622	0.120037	0.085352
O14	O	1.258622	0.620037	0.585352
Zn15	Zn	0.675229	0.130051	0.112394
Zn16	Zn	1.175229	0.630051	0.612394
Zn17	Zn	0.682791	0.116198	-0.112152
Zn18	Zn	1.182791	0.616198	0.387848
O19	O	0.678617	0.266342	0.085325
O20	O	1.178617	0.766342	0.585325
C21	C	0.674366	-0.050129	0.000131
C22	C	1.174366	0.449871	0.500131
C23	C	0.667900	-0.155291	0.000131
C24	C	1.167900	0.344709	0.500131
C25	C	0.575290	0.131052	0.000101
C26	C	1.075290	0.631052	0.500101
C27	C	0.512004	0.129797	0.000088
C28	C	1.012004	0.629797	0.500088
C29	C	0.656080	-0.347839	0.000114
C30	C	1.156080	0.152161	0.500114
C31	C	0.701939	-0.405918	0.000120
C32	C	1.201939	0.094082	0.500120
C33	C	0.695362	-0.513058	0.000110
C34	C	1.195362	-0.013058	0.500110
C35	C	0.662656	-0.240689	0.000123
C36	C	1.162656	0.259311	0.500123
C37	C	0.116433	0.127649	0.093032
C38	C	0.616433	0.627649	0.593032
C39	C	0.056969	0.126456	0.093036
C40	C	0.556969	0.626456	0.593036
O41	O	0.023554	0.130681	0.172043
O42	O	0.523554	0.630681	0.672043
N43	N	0.030357	0.120133	0.000136
N44	N	0.530357	0.620133	0.500136
C45	C	0.063213	0.114993	-0.092774
C46	C	0.563213	0.614993	0.407226
O47	O	0.035117	0.109504	-0.171792
O48	O	0.535117	0.609504	0.328208
C49	C	0.122676	0.116179	-0.092777
C50	C	0.622676	0.616179	0.407223
C51	C	0.149284	0.122512	0.000129
C52	C	0.649284	0.622512	0.500129
C53	C	0.143042	0.133981	0.185931
C54	C	0.643042	0.633981	0.685931
C55	C	0.202502	0.135176	0.185926
C56	C	0.702502	0.635176	0.685926
C57	C	0.235353	0.130039	0.093023
C58	C	0.735353	0.630039	0.593023
C59	C	0.208745	0.123707	0.000125
C60	C	0.708745	0.623707	0.500125
C61	C	0.155531	0.111033	-0.185686
C62	C	0.655531	0.611033	0.314314
C63	C	0.214998	0.112219	-0.185681
C64	C	0.714998	0.612219	0.314319
C65	C	0.241606	0.118552	-0.092775
C66	C	0.741606	0.618552	0.407225
C67	C	0.301056	0.119766	-0.092783
C68	C	0.801056	0.619766	0.407217
N69	N	0.327668	0.126089	0.000117
N70	N	0.827668	0.626089	0.500117
C71	C	0.294817	0.131226	0.093020
C72	C	0.794817	0.631226	0.593020
C73	C	-0.061664	0.112500	-0.092760
C74	C	0.438336	0.612500	0.407240
C75	C	-0.121127	0.111320	-0.092759
C76	C	0.378873	0.611320	0.407241
C77	C	-0.127366	0.122782	0.093052
C78	C	0.372634	0.622782	0.593052
C79	C	-0.067903	0.123968	0.093049
C80	C	0.432097	0.623968	0.593049
C81	C	-0.035052	0.118823	0.000139
C82	C	0.464948	0.618823	0.500139
C83	C	0.419687	0.133735	0.093004
C84	C	0.919687	0.633735	0.593004
C85	C	0.479153	0.134934	0.092991
C86	C	0.979153	0.634934	0.592991
C87	C	0.485387	0.123467	-0.092818
C88	C	0.985387	0.623467	0.407182
C89	C	0.425927	0.122274	-0.092806
C90	C	0.925927	0.622274	0.407194
C91	C	0.393078	0.127405	0.000113
C92	C	0.893078	0.627405	0.500113
O93	O	0.334507	0.115540	-0.171749
O94	O	0.834507	0.615540	0.328251
O95	O	0.322921	0.136701	0.172025
O96	O	0.822921	0.636701	0.672025
C97	C	0.782730	0.115197	0.000139
C98	C	1.282730	0.615197	0.500139
C99	C	0.846017	0.116452	0.000145
C100	C	1.346017	0.616452	0.500145
C101	C	0.683655	0.296378	0.000109
C102	C	1.183655	0.796378	0.500109
C103	C	0.690121	0.401540	0.000103
C104	C	1.190121	0.901540	0.500103
N105	N	0.670073	0.139505	0.265641
N106	N	1.170073	0.639505	0.765641
N107	N	0.687952	0.106737	-0.265399
N108	N	1.187952	0.606737	0.234601
C109	C	0.663057	0.152376	0.474681
C110	C	1.163057	0.652376	0.974681
C111	C	0.694966	0.093869	0.525567
C112	C	1.194966	0.593869	1.025567
C113	C	0.691062	0.101030	0.641885
C114	C	1.191062	0.601030	1.141885
C115	C	0.666960	0.145216	0.358354
C116	C	1.166960	0.645216	0.858354
H117	H	0.746142	-0.375180	0.000060
H118	H	1.246142	0.124820	0.500060
H119	H	0.611882	-0.378579	0.000102
H120	H	1.111882	0.121421	0.500102
H121	H	0.116300	0.138162	0.261587
H122	H	0.616300	0.638162	0.761587
Cl123	Cl	0.616359	0.238014	0.542287
Cl124	Cl	1.116359	0.738014	1.042287
Cl125	Cl	0.512600	0.142899	0.209796
Cl126	Cl	1.012600	0.642899	0.709796
Cl127	Cl	0.741904	0.008590	0.457961
Cl128	Cl	1.241904	0.508590	0.957961
H129	H	0.512145	0.119289	-0.168458
H130	H	1.012145	0.619289	0.331542
H131	H	0.224161	0.140327	0.261580
H132	H	0.724161	0.640327	0.761580
Cl133	Cl	-0.034459	0.131927	0.209849
Cl134	Cl	0.465541	0.631927	0.709849
Cl135	Cl	0.378401	0.140186	0.209819
Cl136	Cl	0.878401	0.640186	0.709819
H137	H	-0.154125	0.126962	0.168698
H138	H	0.345875	0.626962	0.668698
Cl139	Cl	-0.154571	0.103377	-0.209560
Cl140	Cl	0.345429	0.603377	0.290440
H141	H	-0.034921	0.108319	-0.168423
H142	H	0.465079	0.608319	0.331577
Cl143	Cl	0.122095	0.103067	-0.302490
Cl144	Cl	0.622095	0.603067	0.197510
Cl145	Cl	0.256292	0.105748	-0.302489
Cl146	Cl	0.756292	0.605748	0.197511
H147	H	0.404261	0.117132	-0.168458
H148	H	0.904261	0.617132	0.331542
