data_functionalizedCrystal
_audit_creation_method	'MofGen! by Chris Wilmer'
_symmetry_space_group_name_H-M	'P1'
_symmetry_Int_Tables_number	1
_symmetry_cell_setting	triclinic
loop_
_symmetry_equiv_pos_as_xyz
  x,y,z
_cell_length_a	15.944551
_cell_length_b	16.053802
_cell_length_c	16.992695
_cell_angle_alpha	92.741074
_cell_angle_beta	87.083481
_cell_angle_gamma	87.423060
loop_
_atom_site_label
_atom_site_type_symbol
_atom_site_fract_x
_atom_site_fract_y
_atom_site_fract_z
O1	O	1.124624	-0.069342	0.097830
O2	O	0.880912	-0.069363	0.110297
O3	O	1.001791	-0.069346	-0.010079
O4	O	1.003745	-0.069359	0.218206
O5	O	0.995135	0.069512	-0.003480
O6	O	0.874256	0.069495	0.116896
O7	O	1.117969	0.069516	0.104429
Zn8	Zn	0.995056	0.091552	0.111710
Zn9	Zn	1.003825	-0.091399	0.103016
O10	O	0.997090	0.069499	0.224805
C11	C	0.846256	0.000063	0.113079
C12	C	0.752906	0.000055	0.111527
N13	N	0.989078	0.216411	0.117643
N14	N	1.009809	-0.216259	0.097077
C15	C	0.532795	0.000076	0.033203
C16	C	0.477496	-0.068390	0.066321
C17	C	0.581991	0.000065	0.108720
C18	C	0.470958	0.068513	0.072845
C19	C	0.416896	0.000079	0.106003
C20	C	0.527924	-0.068457	0.141855
C21	C	0.521389	0.068507	0.148371
C22	C	0.466111	0.000024	0.181543
C23	C	0.677099	0.000057	0.110283
C24	C	0.321790	0.000081	0.104446
C25	C	1.152625	0.000087	0.101647
C26	C	1.245975	0.000090	0.103199
C27	C	0.995949	0.000083	-0.035992
C28	C	0.988449	0.000082	-0.123037
C29	C	1.040533	0.260113	0.066441
C30	C	1.036359	0.347519	0.070598
C31	C	0.980734	0.391222	0.125962
C32	C	0.929273	0.347515	0.177166
C33	C	0.933443	0.260110	0.173004
C34	C	0.962518	0.652629	0.144119
C35	C	0.958354	0.740040	0.148279
C36	C	1.065439	0.740038	0.041710
C37	C	1.069608	0.652632	0.037556
C38	C	1.018144	0.608932	0.088757
N39	N	0.976469	0.480565	0.130215
N40	N	1.022406	0.519590	0.084500
C41	C	1.060814	0.000089	-0.173273
C42	C	1.053762	0.000080	-0.255060
C43	C	0.974345	0.000071	-0.286610
C44	C	0.901975	0.000061	-0.236367
C45	C	0.909028	0.000064	-0.154581
C46	C	0.945114	0.000057	-0.530210
C47	C	0.938067	0.000057	-0.612001
C48	C	1.089855	0.000074	-0.630689
C49	C	1.096901	0.000082	-0.548901
C50	C	1.024531	0.000068	-0.498666
N51	N	0.967135	0.000065	-0.370209
N52	N	1.031742	0.000068	-0.415068
C53	C	1.002931	0.000068	0.250718
C54	C	1.010432	0.000064	0.337762
H55	H	0.561929	-0.000005	-0.029473
H56	H	0.552830	-0.126404	0.171018
H57	H	0.873392	0.000062	-0.637684
H58	H	0.886185	0.000045	-0.489317
N59	N	1.163774	0.000098	-0.682003
N60	N	1.173969	0.058633	-0.726946
H61	H	1.226177	0.058649	-0.763186
N62	N	1.127692	0.000099	-0.306360
N63	N	1.176484	0.058641	-0.300701
H64	H	1.228702	0.058654	-0.336929
N65	N	0.835117	0.000068	-0.103252
N66	N	0.841424	0.000071	-0.030231
H67	H	0.789223	0.000072	0.006022
N68	N	1.178019	0.000099	-0.516667
N69	N	1.196078	0.058638	-0.470340
H70	H	1.253369	0.058655	-0.447574
N71	N	0.820844	0.000047	-0.268575
N72	N	0.773619	-0.058487	-0.255958
H73	H	0.716317	-0.058494	-0.278701
H74	H	0.883977	0.383103	0.222242
H75	H	0.458018	-0.126270	0.031630
N76	N	0.880873	0.215481	0.225309
N77	N	0.831210	0.254509	0.274737
H78	H	0.794078	0.222991	0.311677
N79	N	1.141944	0.000110	-0.141063
N80	N	1.206548	0.000117	-0.185930
H81	H	1.263849	0.000131	-0.163184
N82	N	0.901526	0.784696	0.204822
N83	N	0.897816	0.862735	0.208529
H84	H	0.857685	0.894276	0.248460
N85	N	0.429801	-0.000033	0.260245
N86	N	0.447389	-0.058873	0.303043
H87	H	0.421745	-0.058917	0.358626
H88	H	0.445954	0.126394	0.043641
H89	H	0.540886	0.126390	0.183036
H90	H	1.085833	0.224535	0.021361
N91	N	1.088910	0.392136	0.018269
N92	N	1.083349	0.382355	-0.054668
H93	H	1.120463	0.413858	-0.091637
N94	N	1.126585	0.608005	-0.018868
N95	N	1.172625	0.647035	-0.064492
H96	H	1.212925	0.615519	-0.104291
N97	N	1.118000	0.784689	-0.010582
N98	N	1.114273	0.862728	-0.006862
H99	H	1.151394	0.894265	-0.043796
N100	N	0.909941	0.608012	0.196421
N101	N	0.860281	0.647046	0.245848
H102	H	0.823144	0.615532	0.282789
