data_functionalizedCrystal
_audit_creation_method	'MofGen! by Chris Wilmer'
_symmetry_space_group_name_H-M	'P1'
_symmetry_Int_Tables_number	1
_symmetry_cell_setting	triclinic
loop_
_symmetry_equiv_pos_as_xyz
  x,y,z
_cell_length_a	19.188933
_cell_length_b	16.109301
_cell_length_c	15.186229
_cell_angle_alpha	90.005167
_cell_angle_beta	89.998062
_cell_angle_gamma	96.696475
loop_
_atom_site_label
_atom_site_type_symbol
_atom_site_fract_x
_atom_site_fract_y
_atom_site_fract_z
O1	O	0.926385	-0.103804	-0.073202
O2	O	1.259719	0.229529	0.260131
O3	O	1.593052	0.562863	0.593465
O4	O	0.723107	-0.117775	-0.073211
O5	O	1.056440	0.215558	0.260123
O6	O	1.389774	0.548891	0.593456
O7	O	0.830330	0.010260	-0.073197
O8	O	1.163664	0.343593	0.260136
O9	O	1.496997	0.676926	0.593470
O10	O	0.819162	-0.231839	-0.073215
O11	O	1.152495	0.101494	0.260118
O12	O	1.485829	0.434828	0.593451
O13	O	0.830323	0.010262	0.073260
O14	O	1.163657	0.343595	0.406594
O15	O	1.496990	0.676928	0.739927
O16	O	0.723100	-0.117773	0.073247
O17	O	1.056433	0.215560	0.406580
O18	O	1.389766	0.548893	0.739913
O19	O	0.926378	-0.103802	0.073255
O20	O	1.259712	0.229531	0.406589
O21	O	1.593045	0.562864	0.739922
Zn22	Zn	0.824738	-0.110788	0.096504
Zn23	Zn	1.158071	0.222546	0.429838
Zn24	Zn	1.491405	0.555879	0.763171
Zn25	Zn	0.824747	-0.110790	-0.096460
Zn26	Zn	1.158081	0.222543	0.236874
Zn27	Zn	1.491414	0.555877	0.570207
O28	O	0.819155	-0.231837	0.073242
O29	O	1.152488	0.101496	0.406575
O30	O	1.485821	0.434829	0.739908
C31	C	0.697091	-0.117322	0.000017
C32	C	1.030425	0.216012	0.333350
C33	C	1.363758	0.549345	0.666684
C34	C	0.619584	-0.115963	0.000014
C35	C	0.952917	0.217371	0.333347
C36	C	1.286250	0.550704	0.666681
C37	C	0.066310	-0.106264	-0.079810
C38	C	0.399643	0.227069	0.253524
C39	C	0.732976	0.560402	0.586857
C40	C	0.139137	-0.107536	-0.079813
C41	C	0.472470	0.225797	0.253520
C42	C	0.805803	0.559130	0.586854
C43	C	0.175551	-0.108175	0.000020
C44	C	0.508885	0.225158	0.333354
C45	C	0.842218	0.558491	0.666687
C46	C	0.139135	-0.107521	0.079863
C47	C	0.472468	0.225813	0.413197
C48	C	0.805802	0.559146	0.746530
C49	C	0.066310	-0.106240	0.079865
C50	C	0.399643	0.227093	0.413198
C51	C	0.732977	0.560426	0.746531
N52	N	0.284684	-0.157495	0.059440
N53	N	0.618017	0.175838	0.392774
N54	N	0.951350	0.509172	0.726107
N55	N	0.353864	-0.158713	0.059434
N56	N	0.687198	0.174621	0.392767
N57	N	1.020531	0.507954	0.726101
C58	C	0.394969	-0.112031	0.000022
C59	C	0.728302	0.221302	0.333355
C60	C	1.061636	0.554636	0.666688
N61	N	0.364279	-0.064095	-0.059397
N62	N	0.697612	0.269238	0.273936
N63	N	1.030946	0.602571	0.607269
N64	N	0.295092	-0.062881	-0.059393
N65	N	0.628425	0.270452	0.273940
N66	N	0.961758	0.603786	0.607274
C67	C	0.254518	-0.109563	0.000028
C68	C	0.587851	0.223770	0.333361
C69	C	0.921185	0.557104	0.666695
C70	C	0.510345	-0.114058	-0.079820
C71	C	0.843678	0.219275	0.253513
C72	C	1.177012	0.552608	0.586847
C73	C	0.583174	-0.115325	-0.079820
C74	C	0.916507	0.218008	0.253513
C75	C	1.249841	0.551341	0.586846
C76	C	0.583170	-0.115318	0.079859
C77	C	0.916503	0.218015	0.413192
C78	C	1.249837	0.551349	0.746525
C79	C	0.510343	-0.114043	0.079856
C80	C	0.843676	0.219290	0.413190
C81	C	1.177010	0.552624	0.746523
C82	C	0.473935	-0.113417	0.000015
C83	C	0.807268	0.219916	0.333348
C84	C	1.140601	0.553250	0.666681
C85	C	0.829874	0.041234	0.000032
C86	C	1.163208	0.374567	0.333365
C87	C	1.496541	0.707901	0.666699
C88	C	0.828518	0.133525	0.000033
C89	C	1.161851	0.466858	0.333367
C90	C	1.495185	0.800192	0.666700
C91	C	0.952394	-0.104256	0.000026
C92	C	1.285727	0.229078	0.333359
C93	C	1.619061	0.562411	0.666692
C94	C	1.029902	-0.105615	0.000023
C95	C	1.363235	0.227719	0.333356
C96	C	1.696568	0.561052	0.666690
C97	C	0.819611	-0.262812	0.000011
C98	C	1.152944	0.070522	0.333344
C99	C	1.486277	0.403855	0.666677
C100	C	0.820967	-0.355102	0.000004
C101	C	1.154300	-0.021769	0.333337
C102	C	1.487634	0.311564	0.666670
N103	N	0.824737	-0.110785	0.228197
N104	N	1.158070	0.222548	0.561530
N105	N	1.491403	0.555881	0.894864
C106	C	0.888989	0.355997	0.000022
C107	C	1.222322	0.689331	0.333355
C108	C	1.555655	1.022664	0.666688
C109	C	0.887709	0.442713	0.000014
C110	C	1.221042	0.776047	0.333348
C111	C	1.554375	1.109380	0.666681
C112	C	0.760492	0.422418	0.000013
C113	C	1.093825	0.755752	0.333346
C114	C	1.427158	1.089085	0.666679
C115	C	0.761772	0.335704	0.000014
C116	C	1.095106	0.669037	0.333347
C117	C	1.428439	1.002371	0.666680
C118	C	0.826023	0.302496	0.000023
C119	C	1.159356	0.635829	0.333356
C120	C	1.492690	0.969163	0.666689
C121	C	0.823462	0.475927	0.000014
C122	C	1.156796	0.809260	0.333348
C123	C	1.490129	1.142593	0.666681
C124	C	0.822074	0.569948	0.000006
C125	C	1.155408	0.903281	0.333340
C126	C	1.488741	1.236615	0.666673
C127	C	0.827411	0.208469	0.000029
C128	C	1.160745	0.541802	0.333362
C129	C	1.494078	0.875135	0.666696
N130	N	0.824754	-0.110785	-0.228152
N131	N	1.158088	0.222548	0.105181
N132	N	1.491421	0.555881	0.438514
C133	C	0.872231	-0.054110	0.453926
C134	C	1.205565	0.279223	0.787259
C135	C	1.538898	0.612556	1.120592
C136	C	0.872233	-0.054108	0.546115
C137	C	1.205567	0.279225	0.879449
C138	C	1.538900	0.612558	1.212782
C139	C	0.777254	-0.167463	0.546113
C140	C	1.110588	0.165870	0.879446
C141	C	1.443921	0.499204	1.212779
C142	C	0.777249	-0.167460	0.453925
C143	C	1.110583	0.165873	0.787258
C144	C	1.443916	0.499206	1.120591
C145	C	0.824742	-0.110785	0.407834
C146	C	1.158075	0.222548	0.741167
C147	C	1.491408	0.555882	1.074500
C148	C	0.824749	-0.110786	0.592211
C149	C	1.158082	0.222548	0.925545
C150	C	1.491416	0.555881	1.258878
C151	C	0.824751	-0.110784	0.692167
C152	C	1.158084	0.222549	1.025501
C153	C	1.491418	0.555883	1.358834
C154	C	0.824739	-0.110786	0.307871
C155	C	1.158072	0.222548	0.641204
C156	C	1.491406	0.555881	0.974538
H157	H	0.036671	-0.105752	-0.144823
H158	H	0.370004	0.227582	0.188510
H159	H	0.703337	0.560915	0.521844
C160	C	0.924470	0.008245	0.596813
C161	C	1.257804	0.341578	0.930146
C162	C	1.591137	0.674911	1.263479
N163	N	0.963815	0.055215	0.634997
N164	N	1.297148	0.388548	0.968331
N165	N	1.630481	0.721882	1.301664
C166	C	0.725014	-0.229801	0.596821
C167	C	1.058348	0.103532	0.930155
C168	C	1.391681	0.436866	1.263488
N169	N	0.685666	-0.276755	0.635014
N170	N	1.018999	0.056578	0.968348
N171	N	1.352332	0.389912	1.301681
C172	C	0.725036	-0.229848	0.403220
C173	C	1.058370	0.103486	0.736553
C174	C	1.391703	0.436819	1.069887
N175	N	0.685721	-0.276848	0.365030
N176	N	1.019055	0.056485	0.698363
N177	N	1.352388	0.389818	1.031696
H178	H	0.168786	-0.108070	-0.144824
H179	H	0.502119	0.225263	0.188509
H180	H	0.835452	0.558597	0.521842
H181	H	0.710495	0.292141	0.000012
H182	H	1.043828	0.625474	0.333345
H183	H	1.377162	0.958807	0.666678
C184	C	0.956976	0.501562	0.000021
C185	C	1.290310	0.834895	0.333355
C186	C	1.623643	1.168228	0.666688
N187	N	1.009152	0.545886	0.000028
N188	N	1.342485	0.879219	0.333362
N189	N	1.675819	1.212553	0.666695
C190	C	0.689820	0.458956	0.000020
C191	C	1.023153	0.792289	0.333353
C192	C	1.356487	1.125623	0.666686
N193	N	0.636588	0.486475	0.000032
N194	N	0.969922	0.819808	0.333365
N195	N	1.303255	1.153142	0.666698
C196	C	0.623224	-0.116030	-0.167647
C197	C	0.956557	0.217303	0.165686
C198	C	1.289891	0.550637	0.499020
N199	N	0.653390	-0.116559	-0.233800
N200	N	0.986723	0.216774	0.099533
N201	N	1.320057	0.550108	0.432867
C202	C	0.924469	0.008241	0.403229
C203	C	1.257802	0.341574	0.736562
C204	C	1.591135	0.674907	1.069896
N205	N	0.963813	0.055208	0.365046
N206	N	1.297147	0.388541	0.698380
N207	N	1.630480	0.721875	1.031713
H208	H	0.168789	-0.108039	0.144864
H209	H	0.502122	0.225294	0.478198
H210	H	0.835455	0.558627	0.811531
H211	H	0.036667	-0.105715	0.144876
H212	H	0.370000	0.227619	0.478209
H213	H	0.703333	0.560952	0.811543
C214	C	0.470294	-0.113360	-0.167647
C215	C	0.803627	0.219974	0.165687
C216	C	1.136961	0.553307	0.499020
N217	N	0.440130	-0.112832	-0.233799
N218	N	0.773463	0.220501	0.099535
N219	N	1.106797	0.553835	0.432868
H220	H	0.480699	-0.113517	0.144865
H221	H	0.814032	0.219817	0.478198
H222	H	1.147366	0.553150	0.811531
C223	C	0.959666	0.319472	0.000022
C224	C	1.292999	0.652805	0.333355
C225	C	1.626332	0.986138	0.666689
N226	N	1.012902	0.291963	0.000018
N227	N	1.346235	0.625297	0.333352
N228	N	1.679569	0.958630	0.666685
C229	C	0.623223	-0.116012	0.167677
C230	C	0.956556	0.217321	0.501010
C231	C	1.289889	0.550655	0.834344
N232	N	0.653395	-0.116531	0.233824
N233	N	0.986728	0.216803	0.567157
N234	N	1.320061	0.550136	0.900491
