data_functionalizedCrystal
_audit_creation_method	'MofGen! by Chris Wilmer'
_symmetry_space_group_name_H-M	'P1'
_symmetry_Int_Tables_number	1
_symmetry_cell_setting	triclinic
loop_
_symmetry_equiv_pos_as_xyz
  x,y,z
_cell_length_a	14.044191
_cell_length_b	14.044190
_cell_length_c	12.503572
_cell_angle_alpha	93.839403
_cell_angle_beta	86.162165
_cell_angle_gamma	93.191777
loop_
_atom_site_label
_atom_site_type_symbol
_atom_site_fract_x
_atom_site_fract_y
_atom_site_fract_z
O1	O	1.282215	0.225145	-0.089290
O2	O	1.005543	0.216832	-0.089303
O3	O	1.139721	0.082653	-0.089276
O4	O	1.148036	0.359323	-0.089318
O5	O	1.129632	0.092762	0.089364
O6	O	0.995453	0.226941	0.089337
O7	O	1.272125	0.235254	0.089350
Cu8	Cu	1.132868	0.232021	0.105654
Cu9	Cu	1.144800	0.220065	-0.105608
O10	O	1.137947	0.369433	0.089322
C11	C	0.964876	0.218249	0.000016
C12	C	0.858733	0.207402	0.000012
C13	C	0.613276	0.264503	0.000014
C14	C	0.664399	0.187587	0.000023
C15	C	0.772536	0.198615	0.000017
C16	C	0.505129	0.253476	0.000020
C17	C	1.131040	0.052086	0.000047
C18	C	1.120192	-0.054057	0.000056
C19	C	1.177295	-0.299516	0.000017
C20	C	1.100378	-0.248393	0.000021
C21	C	1.111405	-0.140254	0.000040
C22	C	1.166269	-0.407664	-0.000003
C23	C	1.312792	0.233836	0.000029
C24	C	1.418936	0.244683	0.000026
C25	C	1.146629	0.400000	-0.000003
C26	C	1.157477	0.506142	-0.000019
N27	N	1.124483	0.240429	0.254245
N28	N	1.153192	0.211649	-0.254198
C29	C	1.112148	0.252807	0.473358
C30	C	1.165524	0.199275	0.526696
C31	C	1.158661	0.206162	0.648618
C32	C	1.119010	0.245921	0.351425
H33	H	0.626957	0.113450	-0.000041
O34	O	1.044806	0.320374	0.534156
H35	H	1.064593	0.394610	0.512627
H36	H	1.216376	0.148273	0.480793
H37	H	1.251421	-0.262072	0.000031
H38	H	0.650720	0.338629	-0.000001
H39	H	1.026246	-0.285838	0.000011
