data_functionalizedCrystal
_audit_creation_method	'MofGen! by Chris Wilmer'
_symmetry_space_group_name_H-M	'P1'
_symmetry_Int_Tables_number	1
_symmetry_cell_setting	triclinic
loop_
_symmetry_equiv_pos_as_xyz
  x,y,z
_cell_length_a	11.792254
_cell_length_b	11.792241
_cell_length_c	10.868271
_cell_angle_alpha	89.998441
_cell_angle_beta	89.995692
_cell_angle_gamma	84.196007
loop_
_atom_site_label
_atom_site_type_symbol
_atom_site_fract_x
_atom_site_fract_y
_atom_site_fract_z
O1	O	1.506901	0.155631	-0.102322
O2	O	1.840234	0.488964	0.231012
O3	O	2.173567	0.822297	0.564345
O4	O	1.176561	0.171649	-0.102324
O5	O	1.509895	0.504982	0.231009
O6	O	1.843228	0.838315	0.564342
O7	O	1.349747	-0.001530	-0.102314
O8	O	1.683081	0.331803	0.231019
O9	O	2.016414	0.665136	0.564352
O10	O	1.333715	0.328810	-0.102332
O11	O	1.667048	0.662143	0.231002
O12	O	2.000381	0.995477	0.564335
O13	O	1.349732	-0.001525	0.102330
O14	O	1.683065	0.331808	0.435664
O15	O	2.016398	0.665142	0.768997
O16	O	1.176546	0.171654	0.102320
O17	O	1.509879	0.504988	0.435653
O18	O	1.843212	0.838321	0.768987
O19	O	1.506885	0.155636	0.102323
O20	O	1.840218	0.488970	0.435656
O21	O	2.173551	0.822303	0.768990
Zn22	Zn	1.341713	0.163646	0.134813
Zn23	Zn	1.675046	0.496980	0.468147
Zn24	Zn	2.008379	0.830313	0.801480
Zn25	Zn	1.341733	0.163639	-0.134815
Zn26	Zn	1.675067	0.496972	0.198518
Zn27	Zn	2.008400	0.830306	0.531852
O28	O	1.333699	0.328815	0.102313
O29	O	1.667032	0.662149	0.435646
O30	O	2.000365	0.995482	0.768980
C31	C	1.134263	0.170642	-0.000002
C32	C	1.467596	0.503976	0.333331
C33	C	1.800929	0.837309	0.666664
C34	C	1.008250	0.167622	-0.000003
C35	C	1.341583	0.500956	0.333330
C36	C	1.674916	0.834289	0.666663
C37	C	0.905913	0.165168	-0.000008
C38	C	1.239247	0.498502	0.333325
C39	C	1.572580	0.831835	0.666658
C40	C	0.777527	0.162100	-0.000009
C41	C	1.110860	0.495433	0.333324
C42	C	1.444193	0.828767	0.666658
C43	C	1.348732	-0.043819	0.000008
C44	C	1.682066	0.289515	0.333341
C45	C	2.015399	0.622848	0.666674
C46	C	1.345718	-0.169832	0.000006
C47	C	1.679051	0.163501	0.333340
C48	C	2.012385	0.496834	0.666673
C49	C	1.340175	-0.400545	-0.000014
C50	C	1.673508	-0.067212	0.333319
C51	C	2.006842	0.266122	0.666652
C52	C	1.343255	-0.272160	-0.000003
C53	C	1.676588	0.061174	0.333330
C54	C	2.009921	0.394507	0.666664
C55	C	1.549183	0.156643	-0.000002
C56	C	1.882517	0.489976	0.333331
C57	C	2.215850	0.823309	0.666665
C58	C	1.675196	0.159663	-0.000009
C59	C	2.008530	0.492996	0.333324
C60	C	2.341863	0.826329	0.666658
C61	C	1.334714	0.371104	-0.000012
C62	C	1.668047	0.704437	0.333322
C63	C	2.001380	1.037770	0.666655
C64	C	1.337728	0.497118	-0.000019
C65	C	1.671061	0.830451	0.333315
C66	C	2.004395	1.163784	0.666648
N67	N	1.341707	0.163651	0.318827
N68	N	1.675040	0.496984	0.652161
N69	N	2.008373	0.830317	0.985494
N70	N	1.341748	0.163626	-0.318829
N71	N	1.675082	0.496959	0.014504
N72	N	2.008415	0.830292	0.347838
C73	C	1.341716	0.163651	0.430165
C74	C	1.675049	0.496984	0.763498
C75	C	2.008382	0.830318	1.096832
C76	C	1.341730	0.163640	0.569843
C77	C	1.675064	0.496974	0.903176
C78	C	2.008397	0.830307	1.236509
