data_functionalizedCrystal
_audit_creation_method	'MofGen! by Chris Wilmer'
_symmetry_space_group_name_H-M	'P1'
_symmetry_Int_Tables_number	1
_symmetry_cell_setting	triclinic
loop_
_symmetry_equiv_pos_as_xyz
  x,y,z
_cell_length_a	14.446369
_cell_length_b	14.628931
_cell_length_c	14.628931
_cell_angle_alpha	60.000000
_cell_angle_beta	89.998509
_cell_angle_gamma	60.001050
loop_
_atom_site_label
_atom_site_type_symbol
_atom_site_fract_x
_atom_site_fract_y
_atom_site_fract_z
Zr1	Zr	0.891723	1.000626	-0.120009
O2	O	0.743923	1.191324	-0.265962
O3	O	0.937032	0.809923	-0.075266
O4	O	0.937033	1.000628	-0.265972
O5	O	0.743922	1.000619	0.075175
O6	O	1.089361	1.000637	-0.265980
O7	O	0.743922	1.000619	-0.075257
O8	O	1.089360	0.659500	0.075157
O9	O	0.743923	1.341756	-0.265962
O10	O	1.070037	0.888371	-0.056191
O11	O	0.956356	0.888365	0.056081
O12	O	0.956356	1.112895	-0.168450
O13	O	0.842675	1.112890	-0.056179
Zr14	Zr	1.134670	1.000640	0.119899
Zr15	Zr	1.134670	1.000640	-0.120022
Zr16	Zr	0.891723	1.000627	0.119912
Zr17	Zr	0.891724	1.240548	-0.120009
Zr18	Zr	1.134670	0.760719	0.119900
O19	O	1.089361	1.191343	0.075157
O20	O	1.089362	1.191342	-0.265980
O21	O	0.743922	1.191325	0.075175
O22	O	1.282471	0.809943	0.265852
O23	O	1.282471	0.809942	-0.075285
O24	O	0.937032	0.809924	0.265871
O25	O	1.282471	1.000648	-0.075285
O26	O	1.089361	1.000638	0.265862
O27	O	0.937032	1.000630	0.265870
O28	O	1.282471	1.000648	0.075147
O29	O	0.937033	1.341766	-0.265973
O30	O	1.089360	0.659501	0.265863
O31	O	1.282470	0.659511	0.265852
O32	O	1.282471	0.659511	0.075147
O33	O	0.743923	1.341756	-0.075257
O34	O	0.937033	1.341767	-0.075267
O35	O	1.070037	0.888371	0.168340
O36	O	1.183718	0.888377	0.056069
O37	O	1.070038	1.112902	-0.056191
O38	O	0.956356	1.112896	0.056081
C39	C	1.013196	0.700528	-0.000055
C40	C	1.013196	0.598675	-0.000054
C41	C	0.709307	1.000617	-0.000039
C42	C	0.606170	1.000611	-0.000033
C43	C	0.956804	0.447998	0.055639
C44	C	0.956803	0.553268	0.055640
C45	C	0.531187	0.859018	0.070401
C46	C	0.638516	0.858923	0.070805
C47	C	0.531610	1.070949	0.051614
C48	C	0.424751	1.070050	0.052123
C49	C	0.423178	1.072966	-0.122229
C50	C	0.531850	1.070297	-0.122029
C51	C	1.317086	1.000650	-0.000071
C52	C	1.420223	1.000655	-0.000076
C53	C	1.013197	1.000632	-0.300160
C54	C	1.013197	1.000632	-0.402013
C55	C	1.013197	1.300739	-0.000055
C56	C	1.013197	1.402592	-0.000056
C57	C	0.956804	1.112012	-0.503110
C58	C	0.956803	1.112014	-0.608382
C59	C	1.013196	1.000634	0.300050
C60	C	1.013196	1.000635	0.401903
C61	C	1.317086	0.700545	-0.000071
C62	C	1.420223	0.598697	-0.000076
C63	C	1.013196	0.700529	0.300050
C64	C	1.013196	0.598676	0.401903
C65	C	1.317085	0.700545	0.300034
C66	C	1.420222	0.598698	0.401882
C67	C	0.709308	1.300721	-0.300144
C68	C	0.606171	1.402568	-0.401992
C69	C	0.709308	1.300722	-0.000039
C70	C	0.606171	1.402570	-0.000034
C71	C	1.013198	1.300738	-0.300160
C72	C	1.013198	1.402590	-0.402013
C73	C	1.409811	0.553287	-0.055767
C74	C	1.516407	0.448023	-0.055773
C75	C	1.069589	0.553270	0.503001
C76	C	1.069590	0.448000	0.608272
C77	C	1.522598	0.553295	0.391594
C78	C	1.629196	0.448030	0.496858
H79	H	0.908530	0.408932	0.103325
H80	H	1.411493	0.559645	0.488619
H81	H	1.061475	0.559639	-0.047744
C82	C	1.630595	0.455376	0.064326
N83	N	1.639489	0.495119	0.112839
H84	H	0.964919	0.441630	0.511264
C85	C	1.291158	0.606033	-0.120166
N86	N	1.201788	0.645756	-0.168668
C87	C	1.134817	0.606033	0.514650
N88	N	1.183952	0.645771	0.523427
H89	H	1.507670	0.408967	-0.103448
C90	C	0.891589	1.240836	-0.514760
N91	N	0.842469	1.337870	-0.523537
C92	C	1.078415	0.455365	-0.064482
N93	N	1.127533	0.495118	-0.113014
H94	H	1.508053	0.559648	0.047594
C95	C	0.497378	1.209945	-0.198939
N96	N	0.471416	1.315132	-0.256864
C97	C	0.711846	0.784357	0.024018
N98	N	0.767078	0.728184	-0.011216
H99	H	1.117872	0.408951	0.695000
C100	C	1.500137	0.455368	0.609630
N101	N	1.410768	0.495101	0.618418
H102	H	0.908517	0.592322	0.103316
C103	C	0.891576	1.240841	-0.725547
N104	N	0.842446	1.337877	-0.813800
H105	H	1.061473	0.905274	-0.511373
H106	H	0.964911	0.559620	0.393286
H107	H	1.531330	0.592356	0.304859
H108	H	0.533522	0.803426	0.035938
H109	H	0.532219	0.803704	0.159968
H110	H	0.692378	0.803227	0.160926
C111	C	0.601317	1.004945	0.171906
N112	N	0.653823	0.955221	0.262512
H113	H	1.717020	0.408980	0.488223
H114	H	0.346172	1.173967	0.004107
C115	C	0.425118	1.002510	0.173559
N116	N	0.425403	0.951631	0.265029
H117	H	0.504380	1.175128	0.002757
C118	C	0.601315	1.001009	-0.174154
N119	N	0.653642	0.948816	-0.213410
C120	C	0.317514	1.213924	-0.193502
N121	N	0.237925	1.320088	-0.247177
C122	C	0.417625	1.011728	-0.180515
N123	N	0.413450	0.965589	-0.224404
C124	C	1.078422	0.871808	-0.390363
N125	N	1.127549	0.774773	-0.381586
