data_functionalizedCrystal
_audit_creation_method	'MofGen! by Chris Wilmer'
_symmetry_space_group_name_H-M	'P1'
_symmetry_Int_Tables_number	1
_symmetry_cell_setting	triclinic
loop_
_symmetry_equiv_pos_as_xyz
  x,y,z
_cell_length_a	16.120484
_cell_length_b	15.298093
_cell_length_c	15.299447
_cell_angle_alpha	88.363199
_cell_angle_beta	83.655277
_cell_angle_gamma	82.730642
loop_
_atom_site_label
_atom_site_type_symbol
_atom_site_fract_x
_atom_site_fract_y
_atom_site_fract_z
Zn1	Zn	-0.508976	1.402164	-0.295170
Zn2	Zn	-0.665095	1.369817	-0.158463
Zn3	Zn	-0.501030	1.230706	-0.173579
Zn4	Zn	-0.618990	1.250817	-0.327365
O5	O	-0.573523	1.313376	-0.238644
O6	O	-0.552306	1.519431	-0.257235
O7	O	-0.659301	1.329409	-0.038895
O8	O	-0.387381	1.258572	-0.182560
O9	O	-0.667006	1.495665	-0.156797
O10	O	-0.393218	1.384541	-0.271893
O11	O	-0.538763	1.227205	-0.050001
O12	O	-0.494057	1.111816	-0.213778
O13	O	-0.588426	1.292848	-0.444666
O14	O	-0.580721	1.126592	-0.326764
O15	O	-0.507599	1.404042	-0.421013
O16	O	-0.773682	1.348910	-0.188015
O17	O	-0.739809	1.261481	-0.312107
C18	C	-0.786489	1.303895	-0.251930
C19	C	-0.877607	1.299923	-0.257629
C20	C	-0.531524	1.087686	-0.275406
C21	C	-0.513574	0.991137	-0.291155
C22	C	-0.543756	1.354296	-0.465243
C23	C	-0.531072	1.371734	-0.561806
C24	C	-1.044443	1.292681	-0.268053
C25	C	-1.101788	1.334230	-0.209224
C26	C	-1.194622	1.330200	-0.215023
C27	C	-0.951601	1.296710	-0.262255
C28	C	-0.359727	1.322921	-0.225321
C29	C	-0.268620	1.326989	-0.219644
C30	C	-0.615685	1.539948	-0.201739
C31	C	-0.633652	1.636499	-0.186012
C32	C	-0.445413	1.958154	-0.350837
C33	C	-0.428529	1.867439	-0.365614
C34	C	-0.479809	1.809700	-0.320715
C35	C	-0.547975	1.842684	-0.261036
C36	C	-0.564857	1.933406	-0.246253
C37	C	-0.599252	1.784953	-0.216131
C38	C	-0.667418	1.817936	-0.156452
C39	C	-0.684297	1.908650	-0.141671
C40	C	-0.633018	1.966390	-0.186570
C41	C	-0.582370	1.694230	-0.230914
C42	C	-0.701813	1.669482	-0.126330
C43	C	-0.718697	1.760197	-0.111553
C44	C	-0.663647	1.189319	-0.883263
C45	C	-0.675559	1.172927	-0.792538
C46	C	-0.639439	1.222627	-0.734851
C47	C	-0.591404	1.288722	-0.767897
C48	C	-0.579485	1.305111	-0.858631
C49	C	-0.555276	1.338420	-0.710219
C50	C	-0.507241	1.404515	-0.743265
C51	C	-0.495325	1.420902	-0.833991
C52	C	-0.531446	1.371201	-0.891678
C53	C	-0.567195	1.322031	-0.619485
C54	C	-0.483032	1.437824	-0.594853
C55	C	-0.471120	1.454216	-0.685578
C56	C	-0.603123	1.272667	-0.012914
C57	C	-0.615608	1.255408	0.083690
H58	H	-1.065067	1.254085	-0.322769
C59	C	-0.758238	1.944629	-0.076877
C60	C	-0.762034	2.036431	-0.073525
C61	C	-0.830131	2.069602	-0.013839
H62	H	-0.808934	1.929695	-0.095379
H63	H	-0.751151	1.919801	-0.020152
H64	H	-0.769128	2.061251	-0.130238
H65	H	-0.711354	2.051389	-0.055013
H66	H	-0.823043	2.044773	0.042886
H67	H	-0.880822	2.054662	-0.032347
H68	H	-0.832711	2.131891	-0.011550
H69	H	-1.081163	1.372826	-0.154502
H70	H	-0.646770	2.040260	-0.174554
H71	H	-0.526868	1.667384	-0.279504
H72	H	-0.432009	1.508031	-0.712498
C73	C	-0.389877	2.020902	-0.399684
C74	C	-0.438662	2.080959	-0.449786
C75	C	-0.387524	2.138771	-0.494807
H76	H	-0.365101	2.051968	-0.358542
H77	H	-0.346875	1.988308	-0.437395
H78	H	-0.481648	2.113550	-0.412079
H79	H	-0.463438	2.049918	-0.490943
H80	H	-0.344523	2.106176	-0.532518
H81	H	-0.362751	2.169831	-0.453659
H82	H	-0.420616	2.179521	-0.528813
H83	H	-0.456205	1.474715	-0.860894
H84	H	-0.466055	1.735836	-0.332747
C85	C	-0.792653	1.795878	-0.046631
C86	C	-0.782007	1.759067	0.036840
C87	C	-0.850124	1.791906	0.096663
H88	H	-0.795432	1.858164	-0.044143
H89	H	-0.843306	1.780821	-0.065155
H90	H	-0.731367	1.774130	0.055359
H91	H	-0.779238	1.696784	0.034380
H92	H	-0.900777	1.776850	0.078140
H93	H	-0.852896	1.854192	0.099143
H94	H	-0.842913	1.766929	0.153303
C95	C	-0.518634	1.389159	-0.990162
C96	C	-0.551017	1.476342	-1.008004
C97	C	-0.539246	1.492911	-1.098719
H98	H	-0.460273	1.380282	-1.009952
H99	H	-0.547061	1.350141	-1.019807
H100	H	-0.522588	1.515348	-0.978370
H101	H	-0.609378	1.485239	-0.988235
H102	H	-0.567673	1.453893	-1.128364
H103	H	-0.480884	1.484030	-1.118501
H104	H	-0.561222	1.552063	-1.110837
C105	C	-0.443871	1.491943	-0.532316
C106	C	-0.474794	1.581083	-0.541503
C107	C	-0.438730	1.630956	-0.483910
H108	H	-0.457825	1.472832	-0.473515
H109	H	-0.384472	1.484429	-0.545831
H110	H	-0.534180	1.588592	-0.527982
H111	H	-0.460842	1.600221	-0.600291
H112	H	-0.379331	1.623442	-0.497424
H113	H	-0.452686	1.611837	-0.425112
H114	H	-0.459700	1.691443	-0.490141
C115	C	-0.354513	1.831806	-0.430473
C116	C	-0.313231	1.901786	-0.466647
C117	C	-0.245046	1.868995	-0.526410
H118	H	-0.316494	1.792025	-0.400871
H119	H	-0.374287	1.801882	-0.476090
H120	H	-0.293455	1.931696	-0.421037
H121	H	-0.351225	1.941572	-0.496265
H122	H	-0.264820	1.839071	-0.572027
H123	H	-0.207034	1.829215	-0.496801
H124	H	-0.217032	1.916472	-0.550968
C125	C	-0.757424	1.606666	-0.077699
C126	C	-0.728067	1.520163	-0.103439
C127	C	-0.779275	1.462269	-0.058671
H128	H	-0.755902	1.611406	-0.016142
H129	H	-0.813601	1.621324	-0.091443
H130	H	-0.671904	1.505508	-0.089688
H131	H	-0.729591	1.515394	-0.164989
H132	H	-0.835452	1.476927	-0.072415
H133	H	-0.777749	1.467017	0.002884
H134	H	-0.759368	1.403571	-0.076135
C135	C	-0.619506	1.250395	-0.583643
C136	C	-0.701231	1.269694	-0.607670
C137	C	-0.749454	1.203729	-0.574657
H138	H	-0.594808	1.195207	-0.607245
H139	H	-0.621491	1.247758	-0.521341
H140	H	-0.699243	1.272322	-0.669959
H141	H	-0.725953	1.324871	-0.584069
H142	H	-0.751439	1.201092	-0.512355
H143	H	-0.724748	1.148545	-0.598261
H144	H	-0.804911	1.216819	-0.590947
C145	C	-0.727760	1.101153	-0.756829
C146	C	-0.756855	1.061146	-0.826763
C147	C	-0.804951	0.995024	-0.793902
H148	H	-0.694074	1.058238	-0.725670
H149	H	-0.774349	1.126361	-0.718267
H150	H	-0.710274	1.035937	-0.865311
H151	H	-0.790553	1.104038	-0.857930
H152	H	-0.851540	1.020232	-0.755340
H153	H	-0.771260	0.952115	-0.762743
H154	H	-0.824705	0.967876	-0.841346
H155	H	-0.649142	1.209278	-0.660979
H156	H	-0.693048	1.148857	-0.930239
