data_functionalizedCrystal
_audit_creation_method	'MofGen! by Chris Wilmer'
_symmetry_space_group_name_H-M	'P1'
_symmetry_Int_Tables_number	1
_symmetry_cell_setting	triclinic
loop_
_symmetry_equiv_pos_as_xyz
  x,y,z
_cell_length_a	15.944551
_cell_length_b	27.731996
_cell_length_c	14.421503
_cell_angle_alpha	89.998301
_cell_angle_beta	89.996859
_cell_angle_gamma	83.060063
loop_
_atom_site_label
_atom_site_type_symbol
_atom_site_fract_x
_atom_site_fract_y
_atom_site_fract_z
O1	O	1.113694	0.062335	-0.077027
O2	O	1.613694	0.562335	0.422973
O3	O	0.869041	0.070021	-0.077052
O4	O	1.369041	0.570021	0.422948
O5	O	0.998989	-0.004187	-0.077019
O6	O	1.498989	0.495813	0.422981
O7	O	0.983746	0.136544	-0.077061
O8	O	1.483746	0.636544	0.422939
O9	O	0.998967	-0.004176	0.077204
O10	O	1.498967	0.495824	0.577204
O11	O	0.869020	0.070032	0.077171
O12	O	1.369020	0.570032	0.577171
O13	O	1.113672	0.062346	0.077196
O14	O	1.613672	0.562346	0.577196
Cu15	Cu	0.991344	0.066190	0.091265
Cu16	Cu	1.491344	0.566190	0.591265
Cu17	Cu	0.991369	0.066177	-0.091122
Cu18	Cu	1.491369	0.566177	0.408878
O19	O	0.983725	0.136555	0.077163
O20	O	1.483725	0.636555	0.577163
C21	C	0.837741	0.069708	0.000057
C22	C	1.337741	0.569708	0.500057
C23	C	0.744508	0.068751	0.000048
C24	C	1.244508	0.568751	0.500048
C25	C	0.998665	-0.022190	0.000096
C26	C	1.498665	0.477810	0.500096
C27	C	0.997722	-0.075851	0.000105
C28	C	1.497722	0.424149	0.500105
C29	C	0.530298	0.020467	0.000081
C30	C	1.030298	0.520467	0.500081
C31	C	0.468988	0.042883	-0.075966
C32	C	0.968988	0.542883	0.424034
C33	C	0.573805	0.067021	0.000060
C34	C	1.073805	0.567021	0.500060
C35	C	0.468989	0.042905	0.076086
C36	C	0.968989	0.542905	0.576086
C37	C	0.408915	0.065346	0.000075
C38	C	0.908915	0.565346	0.500075
C39	C	0.513723	0.089450	-0.076050
C40	C	1.013723	0.589450	0.423950
C41	C	0.513730	0.089465	0.076071
C42	C	1.013730	0.589465	0.576071
C43	C	0.452437	0.111915	0.000005
C44	C	0.952437	0.611915	0.500005
C45	C	0.668794	0.067984	0.000050
C46	C	1.168794	0.567984	0.500050
C47	C	0.313926	0.064385	0.000078
C48	C	0.813926	0.564385	0.500078
C49	C	0.991800	-0.408599	-0.084008
C50	C	1.491800	0.091401	0.415992
C51	C	0.988218	-0.610273	-0.084024
C52	C	1.488218	-0.110273	0.415976
O53	O	0.987729	-0.636350	-0.155521
O54	O	1.487729	-0.136350	0.344479
N55	N	0.987762	-0.635486	0.000042
N56	N	1.487762	-0.135486	0.500042
C57	C	0.988195	-0.610277	0.084118
C58	C	1.488195	-0.110277	0.584118
O59	O	0.987716	-0.636349	0.155622
O60	O	1.487716	-0.136349	0.655622
C61	C	0.991771	-0.408603	0.084134
C62	C	1.491771	0.091397	0.584134
C63	C	0.992236	-0.383394	0.000062
C64	C	1.492236	0.116606	0.500062
C65	C	0.992264	-0.383389	-0.168073
C66	C	1.492264	0.116611	0.331927
C67	C	0.993164	-0.332974	-0.168068
C68	C	1.493164	0.167026	0.331932
C69	C	0.993600	-0.307769	-0.083998
C70	C	1.493600	0.192231	0.416002
C71	C	0.993135	-0.332979	0.000067
C72	C	1.493135	0.167021	0.500067
C73	C	0.992198	-0.383395	0.168210
C74	C	1.492198	0.116605	0.668210
C75	C	0.993089	-0.332973	0.168206
C76	C	1.493089	0.167027	0.668206
C77	C	0.993555	-0.307764	0.084134
C78	C	1.493555	0.192236	0.584134
C79	C	0.994471	-0.257358	0.084142
C80	C	1.494471	0.242642	0.584142
N81	N	0.994928	-0.232145	0.000076
N82	N	1.494928	0.267855	0.500076
C83	C	0.994492	-0.257350	-0.083994
C84	C	1.494492	0.242650	0.416006
C85	C	0.986320	-0.716158	0.084104
C86	C	1.486320	-0.216158	0.584104
C87	C	0.985428	-0.766576	0.084101
C88	C	1.485428	-0.266576	0.584101
C89	C	0.985449	-0.766569	-0.084043
C90	C	1.485449	-0.266569	0.415957
C91	C	0.986348	-0.716150	-0.084038
C92	C	1.486348	-0.216150	0.415962
C93	C	0.986776	-0.690945	0.000038
C94	C	1.486776	-0.190945	0.500038
C95	C	0.996382	-0.151475	-0.083977
C96	C	1.496382	0.348525	0.416023
C97	C	0.997286	-0.101056	-0.083965
C98	C	1.497286	0.398944	0.416035
C99	C	0.997260	-0.101068	0.084178
C100	C	1.497260	0.398932	0.584178
C101	C	0.996361	-0.151483	0.084166
C102	C	1.496361	0.348517	0.584166
C103	C	0.995919	-0.176685	0.000081
C104	C	1.495919	0.323315	0.500081
O105	O	0.994951	-0.231249	0.155601
O106	O	1.494951	0.268751	0.655601
O107	O	0.994952	-0.231268	-0.155487
O108	O	1.494952	0.268732	0.344513
C109	C	0.990900	-0.459014	-0.084013
C110	C	1.490900	0.040986	0.415987
C111	C	0.990436	-0.484224	0.000052
C112	C	1.490436	0.015776	0.500052
C113	C	0.990872	-0.459019	0.084122
C114	C	1.490872	0.040981	0.584122
C115	C	0.989544	-0.534642	0.000048
C116	C	1.489544	-0.034642	0.500048
C117	C	0.989108	-0.559847	-0.084022
C118	C	1.489108	-0.059847	0.415978
C119	C	0.989564	-0.534634	-0.168088
C120	C	1.489564	-0.034634	0.331912
C121	C	0.990464	-0.484219	-0.168083
C122	C	1.490464	0.015781	0.331917
C123	C	0.990415	-0.484232	0.168189
C124	C	1.490415	0.015768	0.668189
C125	C	0.989516	-0.534647	0.168177
C126	C	1.489516	-0.034647	0.668177
C127	C	0.989080	-0.559852	0.084107
C128	C	1.489080	-0.059852	0.584107
C129	C	1.144973	0.062660	0.000085
C130	C	1.644973	0.562660	0.500085
C131	C	1.238206	0.063616	0.000087
C132	C	1.738206	0.563616	0.500087
C133	C	0.984049	0.154558	0.000046
C134	C	1.484049	0.654558	0.500046
C135	C	0.984992	0.208218	0.000031
C136	C	1.484992	0.708218	0.500031
N137	N	0.991332	0.066199	0.219547
N138	N	1.491332	0.566199	0.719547
N139	N	0.991388	0.066165	-0.219403
N140	N	1.491388	0.566165	0.280597
C141	C	0.931234	0.100498	0.469185
C142	C	1.431234	0.600498	0.969185
C143	C	1.007008	0.109882	0.530992
C144	C	1.507008	0.609882	1.030992
C145	C	0.991353	0.066188	0.408708
C146	C	1.491353	0.566188	0.908708
C147	C	0.915598	0.056815	0.530995
C148	C	1.415598	0.556815	1.030995
C149	C	0.991366	0.066178	0.591430
C150	C	1.491366	0.566178	1.091430
C151	C	1.067165	0.075594	0.469154
C152	C	1.567165	0.575594	0.969154
C153	C	0.975705	0.022507	0.469152
C154	C	1.475705	0.522507	0.969152
C155	C	1.051534	0.031873	0.530931
C156	C	1.551534	0.531873	1.030931
C157	C	0.991344	0.066195	0.303447
C158	C	1.491344	0.566195	0.803447
C159	C	0.991383	0.066170	0.696689
C160	C	1.491383	0.566170	1.196689
H161	H	0.564149	-0.018169	-0.000002
H162	H	1.064149	0.481831	0.499998
F163	F	0.831855	0.046457	0.566503
F164	F	1.331855	0.546457	1.066503
H165	H	1.102435	0.002852	0.557872
H166	H	1.602435	0.502852	1.057872
F167	F	0.443060	0.017142	-0.159988
F168	F	0.943060	0.517142	0.340012
F169	F	0.958359	-0.025755	0.433617
F170	F	1.458359	0.474245	0.933617
F171	F	0.539512	0.115161	-0.160177
F172	F	1.039512	0.615161	0.339823
H173	H	0.418760	0.150591	-0.000049
H174	H	0.918760	0.650591	0.499951
F175	F	0.986841	-0.689324	-0.173518
F176	F	1.486841	-0.189324	0.326482
F177	F	0.991699	-0.410214	0.257692
F178	F	1.491699	0.089786	0.757692
F179	F	0.995881	-0.178315	0.173644
F180	F	1.495881	0.321685	0.673644
H181	H	0.533589	0.109144	0.140355
H182	H	1.033589	0.609144	0.640355
H183	H	1.131249	0.083561	0.442105
H184	H	1.631249	0.583561	0.942105
H185	H	0.449158	0.023210	0.140376
H186	H	0.949158	0.523210	0.640376
H187	H	1.020256	0.146817	0.558155
H188	H	1.520256	0.646817	1.058155
H189	H	0.997667	-0.080533	-0.152429
H190	H	1.497667	0.419467	0.347571
F191	F	0.997725	-0.074234	0.173647
F192	F	1.497725	0.425766	0.673647
F193	F	0.989105	-0.561469	-0.257562
F194	F	1.489105	-0.061469	0.242438
F195	F	0.995913	-0.178290	-0.173470
F196	F	1.495913	0.321710	0.326530
H197	H	0.993539	-0.312452	-0.236528
H198	H	1.493539	0.187548	0.263472
H199	H	0.991906	-0.403905	-0.236537
H200	H	1.491906	0.096095	0.263463
F201	F	0.984983	-0.793402	-0.173517
F202	F	1.484983	-0.293402	0.326483
H203	H	0.985062	-0.787099	0.152560
H204	H	1.485062	-0.287099	0.652560
F205	F	0.990958	-0.457395	-0.257564
F206	F	1.490958	0.042605	0.242436
F207	F	0.986772	-0.689339	0.173595
F208	F	1.486772	-0.189339	0.673595
F209	F	0.993545	-0.306151	0.257694
F210	F	1.493545	0.193849	0.757694
F211	F	0.989027	-0.561472	0.257664
F212	F	1.489027	-0.061472	0.757664
H213	H	0.990771	-0.463715	0.236650
H214	H	1.490771	0.036285	0.736650
F215	F	0.864850	0.138452	0.433745
F216	F	1.364850	0.638452	0.933745
