data_functionalizedCrystal
_audit_creation_method	'MofGen! by Chris Wilmer'
_symmetry_space_group_name_H-M	'P1'
_symmetry_Int_Tables_number	1
_symmetry_cell_setting	triclinic
loop_
_symmetry_equiv_pos_as_xyz
  x,y,z
_cell_length_a	16.120484
_cell_length_b	17.077404
_cell_length_c	17.077396
_cell_angle_alpha	89.980499
_cell_angle_beta	92.868746
_cell_angle_gamma	92.925780
loop_
_atom_site_label
_atom_site_type_symbol
_atom_site_fract_x
_atom_site_fract_y
_atom_site_fract_z
Zn1	Zn	-0.331902	1.184194	-0.459673
Zn2	Zn	-0.471326	1.177439	-0.335057
Zn3	Zn	-0.331932	1.052925	-0.328422
Zn4	Zn	-0.471277	1.046234	-0.466278
O5	O	-0.401609	1.115198	-0.397358
O6	O	-0.350406	1.293145	-0.443155
O7	O	-0.452868	1.160895	-0.224331
O8	O	-0.215262	1.075965	-0.340292
O9	O	-0.452840	1.288181	-0.351600
O10	O	-0.215241	1.172408	-0.436721
O11	O	-0.350456	1.069415	-0.219457
O12	O	-0.350408	0.942191	-0.346697
O13	O	-0.452756	1.064562	-0.575247
O14	O	-0.452784	0.937275	-0.447979
O15	O	-0.350358	1.165921	-0.570395
O16	O	-0.587986	1.154407	-0.358004
O17	O	-0.587949	1.058011	-0.454412
C18	C	-0.401594	0.911251	-0.397335
C19	C	-0.401608	0.824000	-0.397345
C20	C	-0.454996	0.780467	-0.450006
C21	C	-0.454997	0.698487	-0.450019
C22	C	-0.401615	0.660041	-0.397366
C23	C	-0.348221	0.703580	-0.344703
C24	C	-0.348216	0.785559	-0.344694
C25	C	-0.348238	0.532709	-0.344722
C26	C	-0.348244	0.450724	-0.344729
C27	C	-0.455019	0.445637	-0.450047
C28	C	-0.455014	0.527616	-0.450038
C29	C	-0.401621	0.571149	-0.397374
C30	C	-0.618218	1.104771	-0.407662
C31	C	-0.710884	1.100383	-0.412097
C32	C	-0.880545	1.092374	-0.420209
C33	C	-0.921833	1.138162	-0.374519
C34	C	-1.016239	1.133706	-0.379033
C35	C	-0.786131	1.096829	-0.415696
C36	C	-0.184155	1.125687	-0.387030
C37	C	-0.091489	1.130156	-0.382629
C38	C	-0.401625	1.319941	-0.397381
C39	C	-0.401632	1.407191	-0.397390
C40	C	-0.401548	1.115248	-0.602099
C41	C	-0.401522	1.115270	-0.689348
C42	C	-0.348199	1.168049	-0.727812
C43	C	-0.348171	1.168060	-0.809791
C44	C	-0.401471	1.115295	-0.853305
C45	C	-0.454796	1.062509	-0.814835
C46	C	-0.454819	1.062495	-0.732857
C47	C	-0.454746	1.062543	-0.985702
C48	C	-0.454725	1.062558	-1.067686
C49	C	-0.348098	1.168108	-1.062637
C50	C	-0.348121	1.168094	-0.980659
C51	C	-0.401448	1.115310	-0.942195
C52	C	-0.401610	1.115196	-0.193410
C53	C	-0.401402	1.115338	-0.106150
H54	H	-0.498472	0.663045	-0.492900
H55	H	-0.304798	1.211020	-0.692389
H56	H	-0.916096	1.049831	-0.462712
H57	H	-0.304752	1.211040	-0.841105
H58	H	-0.304724	1.211065	-0.945232
H59	H	-0.498487	0.558916	-0.492909
H60	H	-0.304676	1.211086	-1.093958
H61	H	-0.498191	1.019544	-0.850270
H62	H	-0.498158	1.019549	-0.954387
H63	H	-0.498232	1.019509	-0.701540
H64	H	-0.498469	0.811764	-0.492880
H65	H	-0.498491	0.410188	-0.492930
H66	H	-0.304766	0.419424	-0.301864
H67	H	-0.886279	1.180708	-0.332012
H68	H	-0.304738	0.821003	-0.301816
H69	H	-0.304753	0.672271	-0.301835
H70	H	-0.498124	1.019590	-1.103113
H71	H	-0.304752	0.568152	-0.301844
