data_functionalizedCrystal
_audit_creation_method	'MofGen! by Chris Wilmer'
_symmetry_space_group_name_H-M	'P1'
_symmetry_Int_Tables_number	1
_symmetry_cell_setting	triclinic
loop_
_symmetry_equiv_pos_as_xyz
  x,y,z
_cell_length_a	19.288864
_cell_length_b	17.766277
_cell_length_c	19.288865
_cell_angle_alpha	89.988397
_cell_angle_beta	96.863755
_cell_angle_gamma	90.023209
loop_
_atom_site_label
_atom_site_type_symbol
_atom_site_fract_x
_atom_site_fract_y
_atom_site_fract_z
O1	O	-0.921353	-0.062844	0.086649
O2	O	-0.421353	0.437156	0.586649
O3	O	-0.719092	-0.062794	0.098337
O4	O	-0.219092	0.437206	0.598337
O5	O	-0.826067	-0.062806	-0.008637
O6	O	-0.326067	0.437194	0.491363
O7	O	-0.814378	-0.062832	0.193623
O8	O	-0.314378	0.437168	0.693623
O9	O	-0.826048	0.062383	-0.008643
O10	O	-0.326048	0.562383	0.491357
O11	O	-0.719074	0.062395	0.098332
O12	O	-0.219074	0.562395	0.598332
O13	O	-0.921334	0.062344	0.086643
O14	O	-0.421334	0.562344	0.586643
Cu15	Cu	-0.820202	0.073800	0.092487
Cu16	Cu	-0.320202	0.573800	0.592487
Cu17	Cu	-0.820224	-0.074250	0.092494
Cu18	Cu	-0.320224	0.425750	0.592494
O19	O	-0.814360	0.062356	0.193618
O20	O	-0.314360	0.562356	0.693618
C21	C	-0.693207	-0.000193	0.097959
C22	C	-0.193207	0.499807	0.597959
C23	C	-0.616103	-0.000173	0.096830
C24	C	-0.116103	0.499827	0.596830
C25	C	-0.825682	-0.000209	-0.034516
C26	C	-0.325682	0.499791	0.465484
C27	C	-0.824553	-0.000202	-0.111620
C28	C	-0.324553	0.499798	0.388380
C29	C	-0.947220	-0.000258	0.087022
C30	C	-0.447220	0.499742	0.587022
C31	C	-1.024324	-0.000283	0.088151
C32	C	-0.524324	0.499717	0.588151
N33	N	-0.820192	0.177931	0.092482
N34	N	-0.320192	0.677931	0.592482
C35	C	-0.571407	-0.000193	0.159598
C36	C	-0.071407	0.499807	0.659598
C37	C	-0.498960	-0.000201	0.158537
C38	C	0.001040	0.499799	0.658537
C39	C	-0.471212	-0.000205	0.094705
C40	C	0.028788	0.499795	0.594705
C41	C	-0.515918	-0.000180	0.031929
C42	C	-0.015918	0.499820	0.531929
C43	C	-0.588364	-0.000164	0.032991
C44	C	-0.088364	0.499836	0.532991
C45	C	-0.362957	-0.044082	0.044527
C46	C	0.137043	0.455918	0.544527
C47	C	-0.290512	-0.044103	0.043468
C48	C	0.209488	0.455897	0.543468
C49	C	-0.247767	-0.000250	0.091425
C50	C	0.252233	0.499750	0.591425
C51	C	-0.277473	0.043614	0.140454
C52	C	0.222527	0.543614	0.640454
C53	C	-0.349918	0.043630	0.141517
C54	C	0.150082	0.543630	0.641517
C55	C	-0.392658	-0.000221	0.093546
C56	C	0.107342	0.499779	0.593546
C57	C	-0.124514	-0.000278	0.153047
C58	C	0.375486	0.499722	0.653047
C59	C	-0.052066	-0.000281	0.151984
C60	C	0.447934	0.499719	0.651984
C61	C	-0.069026	-0.000267	0.025374
C62	C	0.430974	0.499733	0.525374
C63	C	-0.141473	-0.000256	0.026439
C64	C	0.358527	0.499744	0.526439
C65	C	-0.169212	-0.000265	0.090278
C66	C	0.330788	0.499735	0.590278
N67	N	-0.820241	-0.178380	0.092493
N68	N	-0.320241	0.321620	0.592493
C69	C	-0.867575	0.217312	0.045137
C70	C	-0.367575	0.717312	0.545137
C71	C	-0.867579	0.296114	0.045134
C72	C	-0.367579	0.796114	0.545134
C73	C	-0.820206	0.335531	0.092488
C74	C	-0.320206	0.835531	0.592488
C75	C	-0.772814	0.296140	0.139837
C76	C	-0.272814	0.796140	0.639837
C77	C	-0.772807	0.217340	0.139834
C78	C	-0.272807	0.717340	0.639834
C79	C	-0.810908	0.460362	0.155775
C80	C	-0.310908	0.960362	0.655775
C81	C	-0.810920	0.539161	0.155779
C82	C	-0.310920	1.039161	0.655779
C83	C	-0.820225	0.578577	0.092496
C84	C	-0.320225	1.078577	0.592496
C85	C	-0.829533	0.539185	0.029207
C86	C	-0.329533	1.039185	0.529207
C87	C	-0.829525	0.460385	0.029204
C88	C	-0.329525	0.960385	0.529204
C89	C	-0.820209	0.420977	0.092496
C90	C	-0.320209	0.920977	0.592496
C91	C	-0.867616	0.703405	0.045143
C92	C	-0.367616	1.203405	0.545143
C93	C	-0.867615	0.782208	0.045139
C94	C	-0.367615	1.282208	0.545139
C95	C	-0.772853	0.782233	0.139848
C96	C	-0.272853	1.282233	0.639848
C97	C	-0.772850	0.703431	0.139846
C98	C	-0.272850	1.203431	0.639846
C99	C	-0.820235	0.664022	0.092495
C100	C	-0.320235	1.164022	0.592495
C101	C	-0.887321	-0.000214	-0.156316
C102	C	-0.387321	0.499786	0.343684
C103	C	-0.886260	-0.000226	-0.228763
C104	C	-0.386260	0.499774	0.271237
C105	C	-0.822428	-0.000210	-0.256511
C106	C	-0.322428	0.499790	0.243489
C107	C	-0.759652	-0.000203	-0.211805
C108	C	-0.259652	0.499797	0.288195
C109	C	-0.760714	-0.000198	-0.139359
C110	C	-0.260714	0.499802	0.360641
C111	C	-0.772242	0.043653	-0.364800
C112	C	-0.272242	0.543653	0.135200
C113	C	-0.771182	0.043654	-0.437245
C114	C	-0.271182	0.543654	0.062755
C115	C	-0.819148	-0.000226	-0.479956
C116	C	-0.319148	0.499774	0.020044
C117	C	-0.868186	-0.044097	-0.450216
C118	C	-0.368186	0.455903	0.049784
C119	C	-0.869249	-0.044093	-0.377771
C120	C	-0.369249	0.455907	0.122229
C121	C	-0.821269	-0.000215	-0.335065
C122	C	-0.321269	0.499785	0.164935
C123	C	-0.880770	-0.000252	-0.603209
C124	C	-0.380770	0.499748	-0.103209
C125	C	-0.879707	-0.000268	-0.675657
C126	C	-0.379707	0.499732	-0.175657
C127	C	-0.753097	-0.000238	-0.658697
C128	C	-0.253097	0.499762	-0.158697
C129	C	-0.754162	-0.000229	-0.586250
C130	C	-0.254162	0.499771	-0.086250
C131	C	-0.818001	-0.000232	-0.558511
C132	C	-0.318001	0.499768	-0.058511
C133	C	-0.814745	-0.000242	0.219497
C134	C	-0.314745	0.499758	0.719497
C135	C	-0.815874	-0.000254	0.296601
C136	C	-0.315874	0.499746	0.796601
H137	H	-0.593987	-0.000202	0.211580
H138	H	-0.093987	0.499798	0.711580
O139	O	-0.261617	-0.086802	-0.004063
O140	O	0.238383	0.413198	0.495937
C141	C	-0.214943	-0.139102	0.031077
C142	C	0.285057	0.360898	0.531077
H143	H	-0.229476	-0.148931	0.085936
H144	H	0.270524	0.351069	0.585936
H145	H	-0.218163	-0.194564	0.001149
H146	H	0.281837	0.305436	0.501149
H147	H	-0.159449	-0.116106	0.034560
H148	H	0.340551	0.383894	0.534560
H149	H	-0.937375	-0.000238	-0.265162
H150	H	-0.437375	0.499762	0.234838
O151	O	-0.726700	0.334393	0.185767
O152	O	-0.226700	0.834393	0.685767
C153	C	-0.657980	0.315167	0.174657
C154	C	-0.157980	0.815167	0.674657
H155	H	-0.657819	0.293520	0.119045
H156	H	-0.157819	0.793520	0.619045
H157	H	-0.623104	0.367008	0.182735
H158	H	-0.123104	0.867008	0.682735
H159	H	-0.637450	0.269429	0.213207
H160	H	-0.137450	0.769429	0.713207
H161	H	-0.803345	0.571228	0.207313
H162	H	-0.303345	1.071228	0.707313
H163	H	-0.731249	0.079371	-0.461453
H164	H	-0.231249	0.579371	0.038547
O165	O	-0.725737	0.086329	-0.323252
O166	O	-0.225737	0.586329	0.176748
C167	C	-0.762098	0.138630	-0.286161
C168	C	-0.262098	0.638630	0.213839
H169	H	-0.817252	0.117091	-0.282664
H170	H	-0.317252	0.617091	0.217336
H171	H	-0.733623	0.146037	-0.231306
H172	H	-0.233623	0.646037	0.268694
H173	H	-0.764822	0.195052	-0.314516
H174	H	-0.264822	0.695052	0.185484
H175	H	-0.906166	0.328185	0.006578
H176	H	-0.406166	0.828185	0.506578
O177	O	-0.699784	-0.000083	-0.095867
O178	O	-0.199784	0.499917	0.404133
C179	C	-0.696592	0.064768	-0.053483
C180	C	-0.196592	0.564768	0.446517
H181	H	-0.751709	0.086374	-0.049999
H182	H	-0.251709	0.586374	0.450001
H183	H	-0.670552	0.050197	0.001054
H184	H	-0.170552	0.550197	0.501054
H185	H	-0.664934	0.110172	-0.077230
H186	H	-0.164934	0.610172	0.422770
O187	O	-0.913746	0.665109	-0.000740
O188	O	-0.413746	1.165109	0.499260
C189	C	-0.956460	0.619519	0.036386
C190	C	-0.456460	1.119519	0.536386
H191	H	-0.957395	0.643253	0.091170
H192	H	-0.457395	1.143253	0.591170
H193	H	-1.011775	0.618650	0.007950
H194	H	-0.511775	1.118650	0.507950
H195	H	-0.934750	0.559790	0.040057
H196	H	-0.434750	1.059790	0.540057
H197	H	-0.462561	-0.000216	0.209652
H198	H	0.037439	0.499784	0.709652
O199	O	-0.378665	0.086309	0.189161
O200	O	0.121335	0.586309	0.689161
C201	C	-0.325407	0.124999	0.231277
C202	C	0.174593	0.624999	0.731277
H203	H	-0.277557	0.130288	0.202176
H204	H	0.222443	0.630288	0.702176
H205	H	-0.344670	0.183524	0.243822
H206	H	0.155330	0.683524	0.743822
H207	H	-0.310930	0.092473	0.281889
H208	H	0.189070	0.592473	0.781889
O209	O	-0.940619	-0.000317	-0.719176
O210	O	-0.440619	0.499683	-0.219176
C211	C	-0.925995	-0.000307	-0.789068
C212	C	-0.425995	0.499693	-0.289068
H213	H	-0.871451	-0.023999	-0.791669
H214	H	-0.371451	0.476001	-0.291669
H215	H	-0.966026	-0.036665	-0.822005
H216	H	-0.466026	0.463335	-0.322005
H217	H	-0.928683	0.059748	-0.810047
H218	H	-0.428683	0.559748	-0.310047
O219	O	-0.691150	-0.000193	-0.685757
O220	O	-0.191150	0.499807	-0.185757
C221	C	-0.703670	-0.000223	-0.759285
C222	C	-0.203670	0.499777	-0.259285
H223	H	-0.757923	0.023467	-0.776473
H224	H	-0.257923	0.523467	-0.276473
H225	H	-0.662830	0.036126	-0.781412
H226	H	-0.162830	0.536126	-0.281412
H227	H	-0.700381	-0.060285	-0.779425
H228	H	-0.200381	0.439715	-0.279425
O229	O	-0.726848	0.179115	0.185927
O230	O	-0.226848	0.679115	0.685927
C231	C	-0.737909	0.198364	0.254658
C232	C	-0.237909	0.698364	0.754658
H233	H	-0.793517	0.219999	0.254856
H234	H	-0.293517	0.719999	0.754856
H235	H	-0.729807	0.146539	0.289538
H236	H	-0.229807	0.646539	0.789538
H237	H	-0.699349	0.244119	0.275157
H238	H	-0.199349	0.744119	0.775157
H239	H	-0.837110	0.571277	-0.022324
H240	H	-0.337110	1.071277	0.477676
H241	H	-0.734269	0.671364	0.178402
H242	H	-0.234269	1.171364	0.678402
O243	O	-0.801898	0.422194	0.217317
O244	O	-0.301898	0.922194	0.717317
C245	C	-0.793679	0.473856	0.273175
C246	C	-0.293679	0.973856	0.773175
H247	H	-0.818153	0.530022	0.255229
H248	H	-0.318153	1.030022	0.755229
H249	H	-0.820533	0.451064	0.318364
H250	H	-0.320533	0.951064	0.818364
H251	H	-0.735708	0.482258	0.291101
H252	H	-0.235708	0.982258	0.791101
H253	H	-0.046435	-0.000317	-0.026600
H254	H	0.453565	0.499683	0.473400
H255	H	-0.177866	-0.000244	-0.024674
H256	H	0.322134	0.499756	0.475326
H257	H	-0.147101	-0.000274	0.205028
H258	H	0.352899	0.499726	0.705028
H259	H	-0.909176	-0.079815	-0.353560
H260	H	-0.409176	0.420185	0.146440
O261	O	-0.949392	-0.000256	-0.129487
O262	O	-0.449392	0.499744	0.370513
C263	C	-1.004566	-0.000249	-0.184479
C264	C	-0.504566	0.499751	0.315521
H265	H	-0.985254	-0.023949	-0.233629
H266	H	-0.485254	0.476051	0.266371
H267	H	-1.049155	-0.036601	-0.169471
H268	H	-0.549155	0.463399	0.330529
H269	H	-1.023904	0.059807	-0.194803
H270	H	-0.523904	0.559807	0.305197
O271	O	-0.697689	-0.000287	-0.238838
O272	O	-0.197689	0.499713	0.261162
C273	C	-0.693290	-0.065132	-0.280210
C274	C	-0.193290	0.434868	0.219790
H275	H	-0.748097	-0.086760	-0.298420
H276	H	-0.248097	0.413240	0.201580
H277	H	-0.665750	-0.050546	-0.327569
H278	H	-0.165750	0.449454	0.172431
H279	H	-0.662468	-0.110526	-0.248098
H280	H	-0.162468	0.389474	0.251902
H281	H	-0.907245	-0.079829	-0.484991
H282	H	-0.407245	0.420171	0.015009
O283	O	-0.404543	-0.086731	-0.001965
O284	O	0.095457	0.413269	0.498035
C285	C	-0.441673	-0.139028	0.034413
C286	C	0.058327	0.360972	0.534413
H287	H	-0.445145	-0.117503	0.089563
H288	H	0.054855	0.382497	0.589563
H289	H	-0.496536	-0.146408	0.005946
H290	H	0.003464	0.353592	0.505946
H291	H	-0.413365	-0.195461	0.037147
H292	H	0.086635	0.304539	0.537147
O293	O	-0.942840	-0.000302	-0.576373
O294	O	-0.442840	0.499698	-0.076373
C295	C	-0.998016	-0.000307	-0.631363
C296	C	-0.498016	0.499693	-0.131363
H297	H	-0.978702	-0.024004	-0.680513
H298	H	-0.478702	0.475996	-0.180513
H299	H	-1.042598	-0.036668	-0.616352
H300	H	-0.542598	0.463332	-0.116352
H301	H	-1.017365	0.059744	-0.641689
H302	H	-0.517365	0.559744	-0.141689
O303	O	-0.008675	-0.000433	0.212980
O304	O	0.491325	0.499567	0.712980
C305	C	-0.021267	-0.065266	0.251754
C306	C	0.478733	0.434734	0.751754
H307	H	-0.046165	-0.110572	0.215004
H308	H	0.453835	0.389428	0.715004
H309	H	0.030211	-0.087043	0.279770
H310	H	0.530211	0.412957	0.779770
H311	H	-0.058025	-0.050610	0.291841
H312	H	0.441975	0.449390	0.791841
H313	H	-0.242670	0.079324	0.179505
H314	H	0.257330	0.579324	0.679505
H315	H	-0.703049	-0.000215	-0.549857
H316	H	-0.203049	0.499785	-0.049857
O317	O	-0.489050	-0.000286	-0.030121
O318	O	0.010950	0.499714	0.469879
C319	C	-0.511935	-0.065123	-0.068362
C320	C	-0.011935	0.434877	0.431638
H321	H	-0.562137	-0.086726	-0.049591
H322	H	-0.062137	0.413274	0.450409
H323	H	-0.522161	-0.050533	-0.126237
H324	H	-0.022161	0.449467	0.373763
H325	H	-0.470013	-0.110535	-0.060182
H326	H	0.029987	0.389465	0.439818
H327	H	-0.906158	0.185228	0.006579
H328	H	-0.406158	0.685228	0.506579
O329	O	-0.631856	-0.000251	-0.027939
O330	O	-0.131856	0.499749	0.472061
C331	C	-0.674288	-0.065091	-0.031116
C332	C	-0.174288	0.434909	0.468884
H333	H	-0.677788	-0.086711	0.024006
H334	H	-0.177788	0.413289	0.524006
H335	H	-0.728813	-0.050499	-0.057160
H336	H	-0.228813	0.449501	0.442840
H337	H	-0.650575	-0.110492	-0.062763
H338	H	-0.150575	0.389508	0.437237
H339	H	-0.837102	0.428315	-0.022328
H340	H	-0.337102	0.928315	0.477672
O341	O	-0.913714	0.820350	-0.000880
O342	O	-0.413714	1.320350	0.499120
C343	C	-0.955522	0.768664	-0.042681
C344	C	-0.455522	1.268664	0.457319
H345	H	-0.956208	0.712485	-0.014205
H346	H	-0.456208	1.212485	0.485795
H347	H	-1.011026	0.791406	-0.053410
H348	H	-0.511026	1.291406	0.446590
H349	H	-0.933142	0.760308	-0.094228
H350	H	-0.433142	1.260308	0.405772
H351	H	-0.734278	0.814325	0.178402
H352	H	-0.234278	1.314325	0.678402
