data_functionalizedCrystal
_audit_creation_method	'MofGen! by Chris Wilmer'
_symmetry_space_group_name_H-M	'P1'
_symmetry_Int_Tables_number	1
_symmetry_cell_setting	triclinic
loop_
_symmetry_equiv_pos_as_xyz
  x,y,z
_cell_length_a	15.711867
_cell_length_b	15.624967
_cell_length_c	14.586319
_cell_angle_alpha	71.913215
_cell_angle_beta	90.004910
_cell_angle_gamma	78.967642
loop_
_atom_site_label
_atom_site_type_symbol
_atom_site_fract_x
_atom_site_fract_y
_atom_site_fract_z
O1	O	-1.147548	0.494702	-0.240784
O2	O	-0.895799	0.426019	-0.217936
O3	O	-1.028392	0.331333	-0.186453
O4	O	-1.014954	0.589389	-0.272267
O5	O	-1.028383	0.331328	-0.033971
O6	O	-0.895790	0.426014	-0.065454
O7	O	-1.147538	0.494697	-0.088301
Cu8	Cu	-1.021663	0.460355	-0.062955
Cu9	Cu	-1.021674	0.460361	-0.243283
O10	O	-1.014945	0.589383	-0.119785
C11	C	-0.863576	0.414797	-0.137963
C12	C	-0.767577	0.381355	-0.126840
C13	C	-0.642473	0.255462	-0.084973
C14	C	-0.732678	0.286895	-0.095427
C15	C	-0.712277	0.444420	-0.147815
C16	C	-0.622068	0.413000	-0.137369
C17	C	-0.587174	0.318520	-0.105946
C18	C	-0.566769	0.476059	-0.158342
C19	C	-0.476568	0.444641	-0.147892
C20	C	-0.441667	0.350165	-0.116468
C21	C	-0.496973	0.287103	-0.095496
C22	C	-0.601665	0.570539	-0.189758
C23	C	-0.546366	0.633597	-0.210732
C24	C	-0.456164	0.602180	-0.200288
C25	C	-0.421262	0.507704	-0.168865
C26	C	-0.400858	0.665243	-0.221261
C27	C	-0.310657	0.633825	-0.210811
C28	C	-0.331062	0.476286	-0.158414
C29	C	-1.027777	0.297540	-0.098977
C30	C	-1.025947	0.196851	-0.065499
C31	C	-1.023363	0.054926	0.064800
C32	C	-1.025082	0.149538	0.033333
C33	C	-1.025096	0.149563	-0.132904
C34	C	-1.023381	0.054949	-0.101451
C35	C	-1.022513	0.007638	-0.002598
C36	C	-1.022532	0.007661	-0.168849
C37	C	-1.020812	-0.086945	-0.137398
C38	C	-1.019942	-0.134264	-0.038549
C39	C	-1.020794	-0.086969	0.028853
C40	C	-1.023393	0.054973	-0.267701
C41	C	-1.022544	0.007685	-0.335099
C42	C	-1.020830	-0.086922	-0.303649
C43	C	-1.019960	-0.134240	-0.204800
C44	C	-1.019978	-0.134217	-0.371051
C45	C	-1.018258	-0.228823	-0.339599
C46	C	-1.018240	-0.228846	-0.173349
C47	C	-0.179761	0.505915	-0.168272
C48	C	-0.275763	0.539345	-0.179388
C49	C	-1.015560	0.623177	-0.207263
C50	C	-1.017391	0.723866	-0.240747
N51	N	-1.021662	0.460353	0.063878
N52	N	-1.021682	0.460359	-0.370114
C53	C	-1.080394	0.418453	0.312816
C54	C	-1.080396	0.418451	0.408798
C55	C	-0.962944	0.502260	0.380941
C56	C	-0.962938	0.502255	0.284963
C57	C	-1.021668	0.460354	0.250902
C58	C	-1.021676	0.460358	0.442862
C59	C	-1.021679	0.460356	0.546929
C60	C	-1.021665	0.460354	0.146828
H61	H	-0.740701	0.521347	-0.173396
H62	H	-1.018534	-0.211300	-0.012943
H63	H	-0.915113	0.536376	0.234548
H64	H	-0.777701	0.235537	-0.078349
H65	H	-0.368219	0.324586	-0.107952
H66	H	-1.128214	0.384332	0.285088
H67	H	-0.915129	0.536377	0.408682
Br68	Br	-0.283696	0.348061	-0.115769
Br69	Br	-0.448226	0.793461	-0.263890
H70	H	-0.614060	0.178527	-0.059395
H71	H	-1.020676	-0.095683	-0.451536
Br72	Br	-1.160094	0.361577	0.492825
Br73	Br	-0.593732	0.761816	-0.253374
Br74	Br	-1.026296	0.213783	-0.267059
Br75	Br	-0.449607	0.158878	-0.052851
Br76	Br	-1.017083	-0.293060	-0.039190
Br77	Br	-0.235602	0.719404	-0.239263
Br78	Br	-0.724082	0.613178	-0.203840
H79	H	-1.024780	0.132005	-0.293304
H80	H	-1.020092	-0.125491	0.109348
Br81	Br	-1.026242	0.213714	0.124812
Br82	Br	-1.022205	-0.009288	0.198958
Br83	Br	-1.023744	0.071906	-0.469254
H84	H	-1.017560	-0.267327	-0.394481
