data_functionalizedCrystal
_audit_creation_method	'MofGen! by Chris Wilmer'
_symmetry_space_group_name_H-M	'P1'
_symmetry_Int_Tables_number	1
_symmetry_cell_setting	triclinic
loop_
_symmetry_equiv_pos_as_xyz
  x,y,z
_cell_length_a	13.897449
_cell_length_b	12.759400
_cell_length_c	12.759393
_cell_angle_alpha	89.973664
_cell_angle_beta	89.979261
_cell_angle_gamma	90.005443
loop_
_atom_site_label
_atom_site_type_symbol
_atom_site_fract_x
_atom_site_fract_y
_atom_site_fract_z
Zn1	Zn	1.474793	-0.418177	-0.594071
Zn2	Zn	1.974793	0.081823	-0.094071
Zn3	Zn	1.474725	-0.593893	-0.418405
Zn4	Zn	1.974725	-0.093893	0.081595
Zn5	Zn	1.313482	-0.418233	-0.418404
Zn6	Zn	1.813482	0.081767	0.081596
Zn7	Zn	1.313502	-0.593818	-0.594040
Zn8	Zn	1.813502	-0.093818	-0.094040
O9	O	1.394126	-0.506030	-0.506230
O10	O	1.894126	-0.006030	-0.006230
O11	O	1.609766	-0.441494	-0.570782
O12	O	2.109766	0.058506	-0.070782
O13	O	1.453299	-0.570646	-0.271383
O14	O	1.953299	-0.070646	0.228617
O15	O	1.334901	-0.271204	-0.441719
O16	O	1.834901	0.228796	0.058281
O17	O	1.609716	-0.570592	-0.441720
O18	O	2.109716	-0.070592	0.058280
O19	O	1.453415	-0.271163	-0.570781
O20	O	1.953415	0.228837	-0.070781
O21	O	1.334835	-0.441589	-0.271383
O22	O	1.834835	0.058411	0.228617
O23	O	1.178503	-0.441516	-0.441689
O24	O	1.678503	0.058484	0.058311
O25	O	1.334935	-0.570464	-0.741065
O26	O	1.834935	-0.070464	-0.241065
O27	O	1.178518	-0.570518	-0.570728
O28	O	1.678518	-0.070518	-0.070728
O29	O	1.453434	-0.441421	-0.741088
O30	O	1.953434	0.058579	-0.241088
O31	O	1.453319	-0.740904	-0.441690
O32	O	1.953319	-0.240904	0.058310
O33	O	1.334869	-0.740849	-0.570729
O34	O	1.834869	-0.240849	-0.070729
C35	C	1.143512	-0.506016	-0.506206
C36	C	1.643512	-0.006016	-0.006206
C37	C	1.036298	-0.506035	-0.506220
C38	C	1.536298	-0.006035	-0.006220
C39	C	1.394115	-0.778997	-0.506229
C40	C	1.894115	-0.278997	-0.006229
C41	C	1.394198	-0.895774	-0.506264
C42	C	1.894198	-0.395774	-0.006264
C43	C	1.394194	-0.505928	-0.780263
C44	C	1.894194	-0.005928	-0.280263
C45	C	1.394223	-0.505884	-0.897040
C46	C	1.894223	-0.005884	-0.397040
C47	C	0.840003	-0.506039	-0.506248
C48	C	1.340003	-0.006039	-0.006248
C49	C	0.949235	-0.506034	-0.506230
C50	C	1.449235	-0.006034	-0.006230
C51	C	1.645719	-0.506045	-0.506254
C52	C	2.145719	-0.006045	-0.006254
C53	C	1.752933	-0.506051	-0.506265
C54	C	2.252933	-0.006051	-0.006265
C55	C	1.394163	-0.231997	-0.506254
C56	C	1.894163	0.268003	-0.006254
C57	C	1.394179	-0.115220	-0.506264
C58	C	1.894179	0.384780	-0.006264
C59	C	1.455857	-0.060393	-0.439084
C60	C	1.955857	0.439607	0.060916
C61	C	1.455864	0.049331	-0.439081
C62	C	1.955864	0.549331	0.060919
C63	C	1.332514	0.049391	-0.573446
C64	C	1.832514	0.549391	-0.073446
C65	C	1.332502	-0.060331	-0.573443
C66	C	1.832502	0.439669	-0.073443
C67	C	1.517534	-0.115282	-0.371905
C68	C	2.017534	0.384718	0.128095
C69	C	1.579217	-0.060455	-0.304721
C70	C	2.079217	0.439545	0.195279
C71	C	1.579225	0.049269	-0.304718
C72	C	2.079225	0.549269	0.195282
C73	C	1.517549	0.104166	-0.371899
C74	C	2.017549	0.604166	0.128101
C75	C	1.332580	-0.438634	-1.061626
C76	C	1.832580	0.061366	-0.561626
C77	C	1.332558	-0.438671	-0.951902
C78	C	1.832558	0.061329	-0.451902
C79	C	1.455922	-0.573057	-0.951908
C80	C	1.955922	-0.073057	-0.451908
C81	C	1.455947	-0.573014	-1.061630
C82	C	1.955947	-0.073014	-0.561630
C83	C	1.270903	-0.371424	-1.116482
C84	C	1.770903	0.128576	-0.616482
C85	C	1.209206	-0.304249	-1.061622
C86	C	1.709206	0.195751	-0.561622
C87	C	1.209184	-0.304286	-0.951898
C88	C	1.709184	0.195714	-0.451898
C89	C	1.270860	-0.371498	-0.897034
C90	C	1.770860	0.128502	-0.397034
C91	C	1.394113	-0.506056	-0.233262
C92	C	1.894113	-0.006056	0.266738
C93	C	1.394271	-0.505804	-0.116486
C94	C	1.894271	-0.005804	0.383514
H95	H	1.517537	-0.204625	-0.371902
H96	H	2.017537	0.295375	0.128098
H97	H	1.282288	-0.104972	-0.628156
H98	H	1.782288	0.395028	-0.128156
H99	H	1.270912	-0.371387	-1.205825
H100	H	1.770912	0.128613	-0.705825
Cl101	Cl	1.533511	-0.657450	-1.130602
Cl102	Cl	2.033511	-0.157450	-0.630602
H103	H	1.629427	-0.105160	-0.250020
H104	H	2.129427	0.394840	0.249980
H105	H	1.158998	-0.249522	-1.106300
H106	H	1.658998	0.250478	-0.606300
Cl107	Cl	1.131632	-0.219832	-0.882934
Cl108	Cl	1.631632	0.280168	-0.382934
Cl109	Cl	1.656763	0.118192	-0.220255
Cl110	Cl	2.156763	0.618192	0.279745
H111	H	1.270843	-0.371517	-0.807689
H112	H	1.770843	0.128483	-0.307689
H113	H	1.517548	0.193510	-0.371879
H114	H	2.017548	0.693510	0.128121
Cl115	Cl	1.254989	0.118405	-0.657901
Cl116	Cl	1.754989	0.618405	-0.157901
Cl117	Cl	1.533448	-0.657548	-0.882935
Cl118	Cl	2.033448	-0.157548	-0.382935
