data_functionalizedCrystal
_audit_creation_method	'MofGen! by Chris Wilmer'
_symmetry_space_group_name_H-M	'P1'
_symmetry_Int_Tables_number	1
_symmetry_cell_setting	triclinic
loop_
_symmetry_equiv_pos_as_xyz
  x,y,z
_cell_length_a	12.827893
_cell_length_b	12.594516
_cell_length_c	12.827885
_cell_angle_alpha	89.967116
_cell_angle_beta	89.980728
_cell_angle_gamma	90.013684
loop_
_atom_site_label
_atom_site_type_symbol
_atom_site_fract_x
_atom_site_fract_y
_atom_site_fract_z
Zn1	Zn	1.597683	-0.423684	-0.590828
Zn2	Zn	2.097683	0.076316	-0.090828
Zn3	Zn	1.597583	-0.601701	-0.416079
Zn4	Zn	2.097583	-0.101701	0.083921
Zn5	Zn	1.422925	-0.423737	-0.416101
Zn6	Zn	1.922925	0.076263	0.083899
Zn7	Zn	1.422916	-0.601621	-0.590779
Zn8	Zn	1.922916	-0.101621	-0.090779
O9	O	1.510277	-0.512686	-0.503447
O10	O	2.010277	-0.012686	-0.003447
O11	O	1.743906	-0.447309	-0.567658
O12	O	2.243906	0.052691	-0.067658
O13	O	1.574376	-0.578149	-0.269846
O14	O	2.074376	-0.078149	0.230154
O15	O	1.446152	-0.274784	-0.439309
O16	O	1.946152	0.225216	0.060691
O17	O	1.743832	-0.578097	-0.439271
O18	O	2.243832	-0.078097	0.060729
O19	O	1.574547	-0.274745	-0.567679
O20	O	2.074547	0.225255	-0.067679
O21	O	1.446055	-0.447400	-0.269862
O22	O	1.946055	0.052600	0.230138
O23	O	1.276687	-0.447323	-0.439262
O24	O	1.776687	0.052677	0.060738
O25	O	1.446137	-0.577962	-0.737022
O26	O	1.946137	-0.077962	-0.237022
O27	O	1.276681	-0.578014	-0.567597
O28	O	1.776681	-0.078014	-0.067597
O29	O	1.574538	-0.447232	-0.737057
O30	O	2.074538	0.052768	-0.237057
O31	O	1.574367	-0.750636	-0.439224
O32	O	2.074367	-0.250636	0.060776
O33	O	1.446040	-0.750578	-0.567575
O34	O	1.946040	-0.250578	-0.067575
C35	C	1.238767	-0.512666	-0.503427
C36	C	1.738767	-0.012666	-0.003427
C37	C	1.122614	-0.512683	-0.503443
C38	C	1.622614	-0.012683	-0.003443
C39	C	0.950748	-0.577318	-0.439847
C40	C	1.450748	-0.077318	0.060153
C41	C	1.070799	-0.577302	-0.439829
C42	C	1.570799	-0.077302	0.060171
C43	C	1.510220	-0.789227	-0.503414
C44	C	2.010220	-0.289227	-0.003414
C45	C	1.510291	-0.907532	-0.503436
C46	C	2.010291	-0.407532	-0.003436
C47	C	1.580217	-1.047542	-0.433747
C48	C	2.080217	-0.547542	0.066253
C49	C	1.484854	-0.976859	-0.408068
C50	C	1.984854	-0.476859	0.091932
C51	C	1.605643	-0.976644	-0.529067
C52	C	2.105643	-0.476644	-0.029067
C53	C	1.414986	-1.047635	-0.477798
C54	C	1.914986	-0.547635	0.022202
C55	C	1.535839	-1.047426	-0.598842
C56	C	2.035839	-0.547426	-0.098842
C57	C	1.440410	-0.976775	-0.573199
C58	C	1.940410	-0.476775	-0.073199
C59	C	1.782847	-0.512706	-0.503467
C60	C	2.282847	-0.012706	-0.003467
C61	C	1.899000	-0.512715	-0.503476
C62	C	2.399000	-0.012715	-0.003476
C63	C	1.510348	-0.512583	-0.776017
C64	C	2.010348	-0.012583	-0.276017
C65	C	1.510378	-0.512539	-0.892170
C66	C	2.010378	-0.012539	-0.392170
C67	C	1.510362	-0.235065	-0.503502
C68	C	2.010362	0.264935	-0.003502
C69	C	1.510398	-0.116759	-0.503525
C70	C	2.010398	0.383241	-0.003525
C71	C	1.446934	-0.447783	-1.064007
C72	C	1.946934	0.052217	-0.564007
C73	C	1.446901	-0.447827	-0.943957
C74	C	1.946901	0.052173	-0.443957
C75	C	1.510266	-0.512712	-0.231937
C76	C	2.010266	-0.012712	0.268063
C77	C	1.510438	-0.512456	-0.115784
C78	C	2.010438	-0.012456	0.384216
H79	H	1.078118	-0.457375	-0.557924
H80	H	1.578118	0.042625	-0.057924
H81	H	1.392530	-0.392462	-0.899430
H82	H	1.892530	0.107538	-0.399430
Br83	Br	0.876468	-0.669521	-0.349059
Br84	Br	1.376468	-0.169521	0.150941
H85	H	1.686235	-0.945462	-0.550707
H86	H	2.186235	-0.445462	-0.050707
H87	H	1.564748	-0.567911	-0.936690
H88	H	2.064748	-0.067911	-0.436690
Br89	Br	1.601029	-0.604791	-1.041544
Br90	Br	2.101029	-0.104791	-0.541544
H91	H	1.392594	-0.392379	-1.108556
H92	H	1.892594	0.107621	-0.608556
Br93	Br	1.144965	-0.669503	-0.349036
Br94	Br	1.644965	-0.169503	0.150964
H95	H	0.943573	-0.457389	-0.557933
H96	H	1.443573	0.042611	-0.057933
Br97	Br	1.678582	-1.099334	-0.335389
Br98	Br	2.178582	-0.599334	0.164611
Br99	Br	1.448901	-0.925180	-0.273657
Br100	Br	1.948901	-0.425180	0.226343
Br101	Br	1.280620	-1.099377	-0.441571
Br102	Br	1.780620	-0.599377	0.058429
H103	H	1.381253	-0.945899	-0.632170
H104	H	1.881253	-0.445899	-0.132170
H105	H	1.557438	-1.078449	-0.679464
H106	H	2.057438	-0.578449	-0.179464
