data_functionalizedCrystal
_audit_creation_method	'MofGen! by Chris Wilmer'
_symmetry_space_group_name_H-M	'P1'
_symmetry_Int_Tables_number	1
_symmetry_cell_setting	triclinic
loop_
_symmetry_equiv_pos_as_xyz
  x,y,z
_cell_length_a	14.044220
_cell_length_b	14.044220
_cell_length_c	14.048226
_cell_angle_alpha	89.998644
_cell_angle_beta	90.005040
_cell_angle_gamma	86.811122
loop_
_atom_site_label
_atom_site_type_symbol
_atom_site_fract_x
_atom_site_fract_y
_atom_site_fract_z
O1	O	-0.230170	1.277171	-0.079055
O2	O	0.269830	1.777171	0.420945
O3	O	-0.221864	1.000499	-0.079079
O4	O	0.278136	1.500499	0.420921
O5	O	-0.087681	1.134682	-0.079063
O6	O	0.412319	1.634682	0.420937
O7	O	-0.364353	1.142988	-0.079070
O8	O	0.135647	1.642988	0.420930
O9	O	-0.087671	1.134664	0.079259
O10	O	0.412329	1.634664	0.579259
O11	O	-0.221854	1.000481	0.079243
O12	O	0.278146	1.500481	0.579243
O13	O	-0.230160	1.277152	0.079267
O14	O	0.269840	1.777152	0.579267
Zn15	Zn	-0.226005	1.138814	0.104392
Zn16	Zn	0.273995	1.638814	0.604392
Zn17	Zn	-0.226019	1.138838	-0.104204
Zn18	Zn	0.273981	1.638838	0.395796
O19	O	-0.364343	1.142969	0.079251
O20	O	0.135657	1.642969	0.579251
C21	C	-0.218223	0.964868	0.000079
C22	C	0.281777	1.464868	0.500079
C23	C	-0.207379	0.858725	0.000069
C24	C	0.292621	1.358725	0.500069
C25	C	-0.187553	0.664388	0.000089
C26	C	0.312447	1.164388	0.500089
C27	C	-0.264467	0.613258	0.000091
C28	C	0.235533	1.113258	0.500091
C29	C	-0.253435	0.505122	0.000102
C30	C	0.246565	1.005122	0.500102
C31	C	-0.198583	0.772534	0.000078
C32	C	0.301417	1.272534	0.500078
C33	C	-0.399969	1.146614	0.000089
C34	C	0.100031	1.646614	0.500089
C35	C	-0.506112	1.157459	0.000087
C36	C	-0.006112	1.657459	0.500087
C37	C	-0.700450	1.177285	0.000093
C38	C	-0.200450	1.677285	0.500093
C39	C	-0.751580	1.100371	0.000087
C40	C	-0.251580	1.600371	0.500087
C41	C	-0.859716	1.111402	0.000090
C42	C	-0.359716	1.611402	0.500090
C43	C	-0.592304	1.166255	0.000089
C44	C	-0.092304	1.666255	0.500089
C45	C	-0.052054	1.131037	0.000097
C46	C	0.447946	1.631037	0.500097
C47	C	0.054088	1.120193	0.000093
C48	C	0.554088	1.620193	0.500093
C49	C	-0.233800	1.312783	0.000107
C50	C	0.266200	1.812783	0.500107
C51	C	-0.244645	1.418926	0.000110
C52	C	0.255355	1.918926	0.500110
N53	N	-0.225996	1.138804	0.246752
N54	N	0.274004	1.638804	0.746752
N55	N	-0.226021	1.138854	-0.246564
N56	N	0.273979	1.638854	0.253436
C57	C	-0.166608	1.198243	0.296577
C58	C	0.333392	1.698243	0.796577
C59	C	-0.166608	1.198249	0.396235
C60	C	0.333392	1.698249	0.896235
C61	C	-0.226002	1.138821	0.446066
C62	C	0.273998	1.638821	0.946066
C63	C	-0.285392	1.079376	0.396234
C64	C	0.214608	1.579376	0.896234
C65	C	-0.285386	1.079365	0.296578
C66	C	0.214614	1.579365	0.796578
C67	C	-0.285401	1.079404	0.603948
C68	C	0.214599	1.579404	1.103948
C69	C	-0.285408	1.079415	0.703611
C70	C	0.214592	1.579415	1.203611
C71	C	-0.166623	1.198288	0.703605
C72	C	0.333377	1.698288	1.203605
C73	C	-0.166618	1.198277	0.603949
C74	C	0.333382	1.698277	1.103949
C75	C	-0.226009	1.138833	0.554124
C76	C	0.273991	1.638833	1.054124
H77	H	-0.714141	1.026237	0.000081
H78	H	-0.214141	1.526237	0.500081
O79	O	-0.349460	1.015318	0.757367
O80	O	0.150540	1.515318	1.257367
H81	H	-0.305311	0.965545	0.802791
H82	H	0.194689	1.465545	1.302791
H83	H	-0.338600	0.650697	0.000084
H84	H	0.161400	1.150697	0.500084
H85	H	-0.333761	1.030994	0.563384
H86	H	0.166239	1.530994	1.063384
H87	H	-0.333748	1.030983	0.436812
H88	H	0.166252	1.530983	0.936812
H89	H	-0.118248	1.246640	0.256012
H90	H	0.381752	1.746640	0.756012
H91	H	-0.118250	1.246648	0.436802
H92	H	0.381750	1.746648	0.936802
H93	H	-0.113425	0.626951	0.000096
H94	H	0.386575	1.126951	0.500096
O95	O	-0.102553	1.262368	0.550199
O96	O	0.397447	1.762368	1.050199
H97	H	-0.121045	1.337824	0.569314
H98	H	0.378955	1.837824	1.069314
O99	O	-0.349444	1.015262	0.242830
O100	O	0.150556	1.515262	0.742830
H101	H	-0.390753	0.973946	0.294221
H102	H	0.109247	1.473946	0.794221
O103	O	-0.750030	1.275481	0.000112
O104	O	-0.250030	1.775481	0.500112
H105	H	-0.828415	1.268844	0.000122
H106	H	-0.328415	1.768844	0.500122
H107	H	-0.118265	1.246689	0.744179
H108	H	0.381735	1.746689	1.244179
