data_functionalizedCrystal
_audit_creation_method	'MofGen! by Chris Wilmer'
_symmetry_space_group_name_H-M	'P1'
_symmetry_Int_Tables_number	1
_symmetry_cell_setting	triclinic
loop_
_symmetry_equiv_pos_as_xyz
  x,y,z
_cell_length_a	11.792241
_cell_length_b	13.185407
_cell_length_c	12.376457
_cell_angle_alpha	97.389854
_cell_angle_beta	78.632725
_cell_angle_gamma	68.083450
loop_
_atom_site_label
_atom_site_type_symbol
_atom_site_fract_x
_atom_site_fract_y
_atom_site_fract_z
O1	O	1.488445	0.128488	-0.093894
O2	O	1.153317	0.143859	-0.093920
O3	O	1.378297	-0.022234	-0.093899
O4	O	1.263465	0.294581	-0.093916
O5	O	1.322085	0.019232	0.094108
O6	O	1.097105	0.185325	0.094086
O7	O	1.432233	0.169954	0.094113
Zn8	Zn	1.255744	0.184223	0.123950
Zn9	Zn	1.329806	0.129590	-0.123757
O10	O	1.207253	0.336047	0.094091
C11	C	1.083222	0.163625	0.000080
C12	C	0.958113	0.160732	0.000070
C13	C	1.361833	-0.042061	0.000104
C14	C	1.396510	-0.162916	0.000103
C15	C	1.065583	-0.454136	0.000067
C16	C	1.033002	-0.340588	0.000056
C17	C	1.123876	-0.296164	0.000069
C18	C	1.247337	-0.365300	0.000090
C19	C	1.279923	-0.478861	0.000091
C20	C	1.338216	-0.320889	0.000093
C21	C	1.461677	-0.390025	0.000114
C22	C	1.494257	-0.503574	0.000116
C23	C	1.403384	-0.547998	0.000104
C24	C	1.305630	-0.207328	0.000092
C25	C	1.519970	-0.232053	0.000116
C26	C	1.552551	-0.345601	0.000126
C27	C	0.729049	0.155423	0.000103
C28	C	0.856518	0.158373	0.000085
C29	C	1.502329	0.150187	0.000110
C30	C	1.627440	0.153079	0.000113
C31	C	1.223717	0.355873	0.000086
C32	C	1.189043	0.476727	0.000080
N33	N	1.205207	0.221509	0.293003
N34	N	1.380355	0.092296	-0.292811
C35	C	1.497673	0.005723	0.648016
C36	C	1.533038	-0.020374	0.529680
C37	C	1.451083	0.040095	0.470505
C38	C	1.333758	0.126664	0.529678
C39	C	1.298394	0.152769	0.648026
C40	C	1.251804	0.187140	0.470515
C41	C	1.134479	0.273710	0.529688
C42	C	1.099120	0.299810	0.648024
C43	C	1.181075	0.239342	0.707199
C44	C	1.287168	0.161036	0.352167
C45	C	1.087888	0.308082	0.352176
C46	C	1.052524	0.334178	0.470513
H47	H	1.097341	-0.203708	0.000062
H48	H	0.932482	-0.284306	0.000036
C49	C	1.686544	-0.420566	0.000371
C50	C	1.714346	-0.379092	0.097116
C51	C	1.837761	-0.448128	0.097387
H52	H	1.744974	-0.421543	-0.065111
H53	H	1.692965	-0.494558	0.000431
H54	H	1.707937	-0.305120	0.097045
H55	H	1.655948	-0.378119	0.162613
H56	H	1.844182	-0.522120	0.097447
H57	H	1.896181	-0.449100	0.031901
H58	H	1.856637	-0.420004	0.163031
C59	C	0.998691	0.373717	0.288085
C60	C	0.884163	0.361719	0.316904
C61	C	0.801970	0.422174	0.257888
H62	H	1.036377	0.345842	0.209114
H63	H	0.982921	0.450751	0.307493
H64	H	0.899935	0.284700	0.297487
H65	H	0.846441	0.389599	0.395864
H66	H	0.786200	0.499208	0.277297
H67	H	0.839667	0.394294	0.178920
H68	H	0.724249	0.414050	0.277441
H69	H	1.382694	0.090551	0.303998
C70	C	1.618447	-0.183612	0.000187
C71	C	1.563477	-0.069362	0.000214
C72	C	1.654143	-0.024692	0.000289
H73	H	1.687468	-0.221632	-0.065354
H74	H	1.648203	-0.192775	0.065779
H75	H	1.533740	-0.060208	-0.065372
H76	H	1.494466	-0.031313	0.065750
H77	H	1.683900	-0.033854	0.065882
H78	H	1.723159	-0.062719	-0.065252
H79	H	1.616856	0.052833	0.000318
C80	C	1.586475	-0.060029	0.712330
C81	C	1.526196	-0.112084	0.780263
C82	C	1.607971	-0.172680	0.839516
H83	H	1.607902	-0.010484	0.758578
H84	H	1.661407	-0.115387	0.660185
H85	H	1.451287	-0.056734	0.832401
H86	H	1.504772	-0.161647	0.734042
H87	H	1.682904	-0.228037	0.787372
H88	H	1.629394	-0.123127	0.885758
H89	H	1.567089	-0.208015	0.885608
H90	H	1.479882	0.018843	0.374150
C91	C	1.660434	-0.114437	0.465643
C92	C	1.724624	-0.161827	0.542790
C93	C	1.841983	-0.248497	0.483839
H94	H	1.709564	-0.085283	0.419466
H95	H	1.647366	-0.170252	0.419509
H96	H	1.737696	-0.106023	0.588904
H97	H	1.675531	-0.191005	0.588969
H98	H	1.828915	-0.304312	0.437706
H99	H	1.891102	-0.219334	0.437664
H100	H	1.885545	-0.280669	0.536174
H101	H	1.594790	-0.559865	0.000122
H102	H	1.205107	-0.151049	0.000075
C103	C	0.971666	0.393810	0.712067
C104	C	0.907446	0.441162	0.634921
C105	C	0.790026	0.527748	0.693874
H106	H	0.984611	0.449673	0.758226
H107	H	0.922619	0.364552	0.758218
H108	H	0.956482	0.470421	0.588790
H109	H	0.894467	0.385328	0.588759
H110	H	0.740979	0.498490	0.740024
H111	H	0.802984	0.583603	0.740031
H112	H	0.746434	0.559880	0.641540
C113	C	1.142937	0.267548	0.835684
C114	C	1.239834	0.196076	0.874834
C115	C	1.204758	0.222035	0.993187
H116	H	1.067134	0.258077	0.862607
H117	H	1.129239	0.343114	0.862489
H118	H	1.253516	0.120527	0.848040
H119	H	1.315646	0.205535	0.847941
H120	H	1.191060	0.297601	1.019993
H121	H	1.128954	0.212564	1.020100
H122	H	1.270501	0.173552	1.019766
H123	H	0.991610	-0.490319	0.000048
H124	H	1.429901	-0.640454	0.000125
H125	H	0.956995	0.404665	0.518706
