data_functionalizedCrystal
_audit_creation_method	'MofGen! by Chris Wilmer'
_symmetry_space_group_name_H-M	'P1'
_symmetry_Int_Tables_number	1
_symmetry_cell_setting	triclinic
loop_
_symmetry_equiv_pos_as_xyz
  x,y,z
_cell_length_a	31.640172
_cell_length_b	23.096457
_cell_length_c	23.096457
_cell_angle_alpha	60.003654
_cell_angle_beta	60.002549
_cell_angle_gamma	90.009225
loop_
_atom_site_label
_atom_site_type_symbol
_atom_site_fract_x
_atom_site_fract_y
_atom_site_fract_z
Zr1	Zr	0.407224	-0.075884	0.633636
O2	O	0.339737	-0.168340	0.754428
O3	O	0.427906	-0.047544	0.512851
O4	O	0.427907	-0.168329	0.633631
O5	O	0.339742	0.047725	0.633650
O6	O	0.497465	-0.168316	0.633619
O7	O	0.339736	-0.047556	0.633648
O8	O	0.497462	0.047746	0.417566
O9	O	0.339744	-0.168337	0.849703
O10	O	0.488644	-0.035444	0.562520
O11	O	0.436738	0.035653	0.562530
O12	O	0.436740	-0.106555	0.704733
O13	O	0.384835	-0.035458	0.704743
Zr14	Zr	0.518168	0.076098	0.633619
Zr15	Zr	0.518159	-0.075864	0.633617
Zr16	Zr	0.407233	0.076077	0.633639
Zr17	Zr	0.407235	-0.075879	0.785588
Zr18	Zr	0.518157	0.076092	0.481667
O19	O	0.497486	0.047758	0.754404
O20	O	0.497473	-0.168312	0.754401
O21	O	0.339750	0.047729	0.754431
O22	O	0.585655	0.168554	0.512828
O23	O	0.585642	-0.047515	0.512824
O24	O	0.427919	0.168525	0.512855
O25	O	0.585651	-0.047511	0.633606
O26	O	0.497485	0.168542	0.633625
O27	O	0.427928	0.168530	0.633637
O28	O	0.585656	0.047769	0.633607
O29	O	0.427923	-0.168321	0.849687
O30	O	0.497469	0.168535	0.417568
O31	O	0.585648	0.168551	0.417553
O32	O	0.585641	0.047762	0.417551
O33	O	0.339752	-0.047548	0.849705
O34	O	0.427931	-0.047532	0.849689
O35	O	0.488652	0.106769	0.562523
O36	O	0.540557	0.035672	0.562512
O37	O	0.488654	-0.035439	0.704725
O38	O	0.436749	0.035658	0.704735
C39	C	0.323933	0.000082	0.633652
C40	C	0.276838	0.000073	0.633660
C41	C	0.462682	0.000100	0.443559
C42	C	0.462677	0.000098	0.379051
C43	C	0.462708	0.190187	0.633631
C44	C	0.462711	0.254699	0.633632
C45	C	0.011925	0.037240	0.559386
C46	C	-0.165060	0.037254	0.559372
O47	O	-0.164904	0.068849	0.496239
N48	N	-0.214283	0.000134	0.633605
C49	C	-0.219259	-0.036988	0.707847
O50	O	-0.265187	-0.068555	0.770986
C51	C	-0.042274	-0.036998	0.707860
C52	C	0.006948	0.000119	0.633623
C53	C	0.061145	0.074355	0.485155
C54	C	0.105388	0.074348	0.485159
C55	C	0.100412	0.037226	0.559395
C56	C	0.051191	0.000112	0.633627
C57	C	-0.047250	-0.074116	0.782101
C58	C	-0.002999	-0.074113	0.782098
C59	C	0.046223	-0.036997	0.707860
C60	C	0.090458	-0.037016	0.707867
N61	N	0.139681	0.000104	0.633634
C62	C	0.144658	0.037225	0.559398
C63	C	-0.312176	-0.036982	0.707835
C64	C	-0.356422	-0.036981	0.707832
C65	C	-0.302221	0.037263	0.559357
C66	C	-0.257974	0.037258	0.559361
C67	C	-0.262954	0.000138	0.633602
C68	C	0.237570	0.037207	0.559413
C69	C	0.281815	0.037194	0.559424
C70	C	0.227609	-0.037046	0.707898
C71	C	0.183368	-0.037037	0.707888
C72	C	0.188352	0.000095	0.633639
O73	O	0.090342	-0.068588	0.770967
O74	O	0.190590	0.068800	0.496268
C75	C	-0.032318	0.037247	0.559382
C76	C	-0.081539	0.000133	0.633614
C77	C	-0.086515	-0.036988	0.707850
C78	C	-0.125785	0.000134	0.633611
C79	C	-0.120808	0.037256	0.559375
C80	C	-0.071585	0.074376	0.485142
C81	C	-0.027342	0.074369	0.485146
C82	C	-0.135738	-0.074109	0.782083
C83	C	-0.179979	-0.074099	0.782073
C84	C	-0.175003	-0.036978	0.707837
C85	C	0.601459	0.000132	0.633604
C86	C	0.648554	0.000141	0.633596
C87	C	0.462685	-0.189973	0.633624
C88	C	0.462681	-0.254485	0.633623
C89	C	0.435621	0.247885	0.707863
C90	C	0.435613	0.308501	0.707864
C91	C	0.462706	0.375929	0.633630
C92	C	0.489798	0.382740	0.559389
C93	C	0.489801	0.322125	0.559390
N94	N	0.506797	0.498739	0.578369
N95	N	0.506793	0.556319	0.578373
C96	C	0.462699	0.558562	0.633623
N97	N	0.418609	0.501045	0.688880
N98	N	0.418613	0.443459	0.688878
C99	C	0.462706	0.441661	0.633621
C100	C	0.435597	0.617472	0.707860
C101	C	0.435588	0.678090	0.707859
C102	C	0.489778	0.752330	0.559381
C103	C	0.489782	0.691712	0.559385
C104	C	0.462693	0.624285	0.633627
C105	C	0.501001	0.052591	0.296260
C106	C	0.501004	0.052598	0.235638
C107	C	0.462688	0.000100	0.257813
C108	C	0.424359	-0.052397	0.340618
C109	C	0.424353	-0.052399	0.401237
N110	N	0.451093	-0.062147	0.201704
N111	N	0.451101	-0.062144	0.144114
C112	C	0.462702	0.000101	0.075174
N113	N	0.474304	0.062346	0.065989
N114	N	0.474298	0.062342	0.123582
C115	C	0.462690	0.000096	0.192087
C116	C	0.501031	0.052606	-0.073354
C117	C	0.501031	0.052613	-0.133975
C118	C	0.424388	-0.052388	-0.028992
C119	C	0.424386	-0.052389	0.031626
C120	C	0.462710	0.000107	0.009440
C121	C	0.462710	0.000114	0.823697
C122	C	0.462715	0.000116	0.888204
C123	C	0.601446	0.000125	0.443535
C124	C	0.648536	0.000132	0.379019
C125	C	0.462694	0.190180	0.443562
C126	C	0.462693	0.254690	0.379055
C127	C	0.601457	0.190206	0.443538
C128	C	0.648551	0.254724	0.379023
C129	C	0.323935	-0.189992	0.823717
C130	C	0.276841	-0.254510	0.888232
C131	C	0.323947	0.000088	0.823721
C132	C	0.276856	0.000082	0.888236
C133	C	0.462699	-0.189967	0.823694
C134	C	0.462699	-0.254476	0.888200
C135	C	0.643551	-0.036994	0.348726
C136	C	0.687793	-0.037002	0.288115
C137	C	0.737019	0.000120	0.257794
C138	C	0.742003	0.037246	0.288093
C139	C	0.697761	0.037250	0.348707
C140	C	0.489791	0.322112	0.348758
C141	C	0.489788	0.382731	0.288156
C142	C	0.462690	0.375926	0.257848
C143	C	0.435589	0.308497	0.288151
C144	C	0.435589	0.247879	0.348756
C145	C	0.697766	0.247910	0.348721
C146	C	0.742020	0.308525	0.288111
C147	C	0.737058	0.375954	0.257800
C148	C	0.687839	0.382766	0.288108
C149	C	0.643585	0.322152	0.348721
C150	C	0.227627	-0.247696	0.918542
C151	C	0.183372	-0.308312	0.979170
C152	C	0.188334	-0.375740	1.009485
C153	C	0.237554	-0.382553	0.979173
C154	C	0.281807	-0.321938	0.918549
C155	C	0.281841	0.037201	0.918536
C156	C	0.237599	0.037192	0.979164
C157	C	0.188373	0.000069	1.009487
C158	C	0.183389	-0.037055	0.979185
C159	C	0.227631	-0.037050	0.918562
C160	C	0.489803	-0.247648	0.918489
C161	C	0.489814	-0.308256	0.979092
C162	C	0.462718	-0.375690	1.009409
C163	C	0.435614	-0.382517	0.979114
C164	C	0.435606	-0.321910	0.918508
H165	H	0.321894	0.067422	0.498968
N166	N	0.517458	0.821194	0.483544
N167	N	0.541647	0.827265	0.417268
H168	H	0.561195	0.875904	0.363705
N169	N	0.407949	0.301560	0.783686
N170	N	0.407956	0.355688	0.783671
H171	H	0.388419	0.350786	0.837219
H172	H	0.223565	-0.067275	0.893894
N173	N	-0.066497	0.112306	0.409303
N174	N	-0.022549	0.145451	0.343022
H175	H	-0.018957	0.172242	0.289463
N176	N	0.407907	0.301540	0.257196
N177	N	0.360131	0.269915	0.304548
H178	H	0.340583	0.265002	0.282683
N179	N	0.462735	-0.437588	1.071314
N180	N	0.486939	-0.431474	1.098347
H181	H	0.486952	-0.475187	1.142069
N182	N	0.682695	-0.074908	0.257154
N183	N	0.701336	-0.042598	0.182742
H184	H	0.697734	-0.069367	0.160875
N185	N	0.407905	0.179015	0.379690
N186	N	0.383715	0.172957	0.352615
H187	H	0.364161	0.124323	0.374459
N188	N	0.702866	0.075180	0.379637
N189	N	0.746823	0.108320	0.352551
H190	H	0.750433	0.135110	0.374393
H191	H	0.241667	0.067426	1.003826
H192	H	0.511858	0.327667	0.373429
H193	H	0.511862	0.327678	0.498940
N194	N	0.332074	-0.328917	0.887600
N195	N	0.336490	-0.389128	0.914678
H196	H	0.371991	-0.394062	0.892824
N197	N	0.782265	0.437867	0.195868
N198	N	0.789922	0.481488	0.128218
H199	H	0.821850	0.525213	0.084475
H200	H	0.223577	-0.192798	0.893863
H201	H	0.603514	0.327709	0.373385
N202	N	0.407909	-0.328877	0.887581
N203	N	0.407895	-0.274766	0.833477
H204	H	0.388331	-0.279690	0.811638
H205	H	0.241587	-0.437460	1.003862
H206	H	0.393181	-0.095138	0.099040
H207	H	0.393143	-0.095144	0.468653
N208	N	0.155661	0.112269	0.409319
N209	N	0.160087	0.145410	0.343048
H210	H	0.195591	0.172196	0.289481
H211	H	0.701815	0.193011	0.373391
H212	H	0.065206	0.104587	0.424699
H213	H	0.773040	0.000112	0.208437
H214	H	-0.217898	0.067488	0.498909
N215	N	0.143133	-0.437661	1.071398
N216	N	0.147564	-0.497864	1.098457
H217	H	0.115640	-0.541594	1.142181
H218	H	0.782093	0.302966	0.263440
H219	H	0.683806	0.437675	0.263420
H220	H	0.393190	-0.095131	-0.010936
H221	H	0.511856	0.437645	0.498947
H222	H	0.413537	0.562570	0.768313
N223	N	0.593271	-0.074903	0.379680
N224	N	0.580068	-0.059172	0.332323
H225	H	0.544558	-0.085948	0.354183
N226	N	0.517459	0.698681	0.483551
N227	N	0.541646	0.758888	0.417274
H228	H	0.561193	0.763813	0.363712
N229	N	0.133104	-0.301331	1.010117
N230	N	0.128686	-0.241120	0.983032
H231	H	0.093185	-0.236187	1.004886
N232	N	0.133091	-0.074967	0.783725
N233	N	0.128657	-0.108115	0.850002
H234	H	0.093151	-0.134901	0.903564
H235	H	0.152353	0.000071	1.058850
H236	H	0.321919	0.067436	0.893852
N237	N	0.517476	0.451597	0.257219
N238	N	0.541672	0.457657	0.284285
H239	H	0.561227	0.506292	0.262438
H240	H	0.143304	-0.067280	1.003883
N241	N	0.517485	-0.178776	0.887538
N242	N	0.541684	-0.172703	0.914595
H243	H	0.561239	-0.124063	0.892736
H244	H	0.782089	0.067469	0.263397
H245	H	0.413553	-0.437430	1.003807
N246	N	0.242674	0.075142	0.483563
N247	N	0.286628	0.108274	0.417296
H248	H	0.290234	0.135063	0.363726
N249	N	-0.297143	0.075197	0.483526
N250	N	-0.274060	0.140646	0.433830
H251	H	-0.270477	0.167439	0.380278
N252	N	-0.406703	-0.074893	0.783657
N253	N	-0.446208	-0.074889	0.783654
H254	H	-0.481719	-0.101663	0.837207
N255	N	-0.317277	-0.074903	0.783683
N256	N	-0.361232	-0.108039	0.849951
H257	H	-0.364837	-0.134823	0.903520
H258	H	0.532207	0.095338	0.278188
N259	N	0.540155	0.106227	0.151062
N260	N	0.574367	0.153094	0.131266
H261	H	0.602018	0.190970	0.071535
H262	H	0.511885	-0.302684	1.003752
H263	H	-0.087323	-0.104339	0.842554
N264	N	0.540190	0.106226	-0.218548
N265	N	0.569693	0.089232	-0.264074
H266	H	0.597352	0.127095	-0.323806
N267	N	-0.008096	-0.112032	0.857944
N268	N	-0.052049	-0.145165	0.924215
H269	H	-0.055651	-0.171946	0.977782
N270	N	0.222541	-0.074963	0.783718
N271	N	0.262053	-0.074957	0.783701
H272	H	0.258475	-0.101733	0.837249
H273	H	0.012734	0.104595	0.424694
N274	N	0.462706	0.437858	0.195930
N275	N	0.504441	0.481486	0.128290
H276	H	0.504457	0.525229	0.084558
H277	H	0.413524	0.672536	0.768309
N278	N	-0.140817	-0.112025	0.857909
N279	N	-0.122169	-0.079728	0.874487
H280	H	-0.125758	-0.106511	0.928043
N281	N	-0.230254	-0.112027	0.857918
N282	N	-0.234684	-0.145166	0.924191
H283	H	-0.270188	-0.171948	0.977757
H284	H	0.413561	0.192987	0.768317
H285	H	0.393161	-0.095141	0.358669
N286	N	0.540181	0.106230	-0.096023
N287	N	0.574395	0.153100	-0.169953
H288	H	0.602047	0.190972	-0.185966
