data_functionalizedCrystal
_audit_creation_method	'MofGen! by Chris Wilmer'
_symmetry_space_group_name_H-M	'P1'
_symmetry_Int_Tables_number	1
_symmetry_cell_setting	triclinic
loop_
_symmetry_equiv_pos_as_xyz
  x,y,z
_cell_length_a	13.897448
_cell_length_b	13.897449
_cell_length_c	11.169409
_cell_angle_alpha	89.975859
_cell_angle_beta	90.035576
_cell_angle_gamma	89.982475
loop_
_atom_site_label
_atom_site_type_symbol
_atom_site_fract_x
_atom_site_fract_y
_atom_site_fract_z
Zn1	Zn	-0.383941	-1.474715	0.678654
Zn2	Zn	-0.050608	-1.141382	1.011987
Zn3	Zn	0.282726	-0.808048	1.345321
Zn4	Zn	-0.545277	-1.474605	0.477959
Zn5	Zn	-0.211943	-1.141272	0.811293
Zn6	Zn	0.121390	-0.807939	1.144626
Zn7	Zn	-0.383997	-1.313400	0.477973
Zn8	Zn	-0.050664	-0.980067	0.811307
Zn9	Zn	0.282670	-0.646734	1.144640
Zn10	Zn	-0.545195	-1.313386	0.678589
Zn11	Zn	-0.211862	-0.980052	1.011923
Zn12	Zn	0.121471	-0.646719	1.345256
O13	O	-0.464602	-1.394027	0.578294
O14	O	-0.131269	-1.060693	0.911627
O15	O	0.202064	-0.727360	1.244961
O16	O	-0.405353	-1.609682	0.652053
O17	O	-0.072020	-1.276349	0.985386
O18	O	0.261313	-0.943015	1.318719
O19	O	-0.523940	-1.453181	0.310011
O20	O	-0.190607	-1.119848	0.643345
O21	O	0.142727	-0.786515	0.976678
O22	O	-0.249008	-1.334851	0.504627
O23	O	0.084325	-1.001518	0.837960
O24	O	0.417659	-0.668184	1.171293
O25	O	-0.523886	-1.609601	0.504603
O26	O	-0.190553	-1.276268	0.837937
O27	O	0.142781	-0.942935	1.171270
O28	O	-0.248967	-1.453368	0.652066
O29	O	0.084367	-1.120035	0.985399
O30	O	0.417700	-0.786701	1.318733
O31	O	-0.405448	-1.334745	0.310022
O32	O	-0.072115	-1.001411	0.643355
O33	O	0.261218	-0.668078	0.976688
O34	O	-0.405369	-1.178417	0.504564
O35	O	-0.072036	-0.845083	0.837897
O36	O	0.261297	-0.511750	1.171231
O37	O	-0.523747	-1.334826	0.846548
O38	O	-0.190414	-1.001493	1.179881
O39	O	0.142920	-0.668159	1.513214
O40	O	-0.523801	-1.178406	0.651956
O41	O	-0.190468	-0.845073	0.985289
O42	O	0.142865	-0.511739	1.318622
O43	O	-0.405274	-1.453354	0.846595
O44	O	-0.071941	-1.120021	1.179929
O45	O	0.261392	-0.786687	1.513262
O46	O	-0.680248	-1.453167	0.504541
O47	O	-0.346914	-1.119834	0.837874
O48	O	-0.013581	-0.786500	1.171207
O49	O	-0.680188	-1.334720	0.651942
O50	O	-0.346854	-1.001386	0.985276
O51	O	-0.013521	-0.668053	1.318609
C52	C	-0.715217	-1.393956	0.578259
C53	C	-0.381884	-1.060623	0.911593
C54	C	-0.048550	-0.727289	1.244926
C55	C	-0.822431	-1.394014	0.578285
C56	C	-0.489097	-1.060681	0.911618
C57	C	-0.155764	-0.727348	1.244951
C58	C	-0.464583	-1.143412	0.578255
C59	C	-0.131250	-0.810079	0.911588
C60	C	0.202083	-0.476746	1.244922
C61	C	-0.464598	-1.036198	0.578267
C62	C	-0.131265	-0.702865	0.911600
C63	C	0.202068	-0.369532	1.244934
C64	C	-1.018726	-1.394116	0.578360
C65	C	-0.685392	-1.060782	0.911693
C66	C	-0.352059	-0.727449	1.245026
C67	C	-0.909493	-1.394057	0.578322
C68	C	-0.576160	-1.060723	0.911655
C69	C	-0.242827	-0.727390	1.244988
C70	C	-0.464597	-0.839903	0.578289
C71	C	-0.131263	-0.506570	0.911623
C72	C	0.202070	-0.173236	1.244956
C73	C	-0.464595	-0.949136	0.578273
C74	C	-0.131261	-0.615802	0.911607
C75	C	0.202072	-0.282469	1.244940
C76	C	-0.213009	-1.394123	0.578355
C77	C	0.120324	-1.060790	0.911688
C78	C	0.453657	-0.727457	1.245022
C79	C	-0.105796	-1.394165	0.578381
C80	C	0.227538	-1.060831	0.911715
C81	C	0.560871	-0.727498	1.245048
C82	C	-0.464495	-1.394101	0.891337
C83	C	-0.131162	-1.060767	1.224670
C84	C	0.202171	-0.727434	1.558003
C85	C	-0.464450	-1.394132	1.024737
C86	C	-0.131116	-1.060799	1.358070
C87	C	0.202217	-0.727465	1.691403
C88	C	-0.464616	-0.645619	0.578322
C89	C	-0.131283	-0.312286	0.911655
C90	C	0.202051	0.021047	1.244989
C91	C	-0.464606	-0.752833	0.578305
C92	C	-0.131272	-0.419500	0.911638
C93	C	0.202061	-0.086167	1.244971
C94	C	-0.464640	-1.394008	0.266469
C95	C	-0.131306	-1.060675	0.599803
C96	C	0.202027	-0.727342	0.933136
C97	C	-0.464413	-1.394164	0.133070
C98	C	-0.131080	-1.060830	0.466403
C99	C	0.202253	-0.727497	0.799737
