data_functionalizedCrystal
_audit_creation_method	'MofGen! by Chris Wilmer'
_symmetry_space_group_name_H-M	'P1'
_symmetry_Int_Tables_number	1
_symmetry_cell_setting	triclinic
loop_
_symmetry_equiv_pos_as_xyz
  x,y,z
_cell_length_a	19.288864
_cell_length_b	12.837942
_cell_length_c	17.766277
_cell_angle_alpha	89.994736
_cell_angle_beta	89.976791
_cell_angle_gamma	88.982593
loop_
_atom_site_label
_atom_site_type_symbol
_atom_site_fract_x
_atom_site_fract_y
_atom_site_fract_z
O1	O	0.930181	0.129276	-0.062838
O2	O	1.263514	0.462609	0.270496
O3	O	1.596847	0.795943	0.603829
O4	O	0.729111	0.146715	-0.062786
O5	O	1.062444	0.480049	0.270547
O6	O	1.395777	0.813382	0.603880
O7	O	0.825187	-0.012886	-0.062806
O8	O	1.158521	0.320447	0.270527
O9	O	1.491854	0.653780	0.603860
O10	O	0.834104	0.288878	-0.062818
O11	O	1.167438	0.622211	0.270516
O12	O	1.500771	0.955544	0.603849
O13	O	0.825168	-0.012894	0.062382
O14	O	1.158501	0.320439	0.395716
O15	O	1.491835	0.653772	0.729049
O16	O	0.729091	0.146707	0.062402
O17	O	1.062425	0.480040	0.395735
O18	O	1.395758	0.813374	0.729069
O19	O	0.930161	0.129268	0.062351
O20	O	1.263495	0.462601	0.395684
O21	O	1.596828	0.795935	0.729018
Cu22	Cu	0.829625	0.137987	0.073807
Cu23	Cu	1.162958	0.471320	0.407141
Cu24	Cu	1.496291	0.804654	0.740474
Cu25	Cu	0.829647	0.137996	-0.074243
Cu26	Cu	1.162981	0.471330	0.259091
Cu27	Cu	1.496314	0.804663	0.592424
O28	O	0.834085	0.288870	0.062371
O29	O	1.167418	0.622203	0.395704
O30	O	1.500752	0.955536	0.729037
C31	C	0.703186	0.146150	-0.000185
C32	C	1.036520	0.479483	0.333148
C33	C	1.369853	0.812817	0.666481
C34	C	0.625968	0.144466	-0.000166
C35	C	0.959301	0.477799	0.333168
C36	C	1.292634	0.811132	0.666501
C37	C	0.587666	0.238113	-0.000181
C38	C	0.920999	0.571446	0.333152
C39	C	1.254333	0.904779	0.666486
C40	C	0.515111	0.236530	-0.000189
C41	C	0.848444	0.569863	0.333144
C42	C	1.181778	0.903197	0.666477
C43	C	0.480860	0.141295	-0.000197
C44	C	0.814194	0.474629	0.333136
C45	C	1.147527	0.807962	0.666469
C46	C	0.519171	0.047636	-0.000178
C47	C	0.852504	0.380969	0.333156
C48	C	1.185838	0.714303	0.666489
C49	C	0.591725	0.049221	-0.000162
C50	C	0.925058	0.382555	0.333171
C51	C	1.258391	0.715888	0.666505
C52	C	0.367493	0.066433	-0.044079
C53	C	0.700826	0.399766	0.289254
C54	C	1.034160	0.733100	0.622588
C55	C	0.294941	0.064852	-0.044099
C56	C	0.628274	0.398185	0.289234
C57	C	0.961607	0.731518	0.622567
C58	C	0.257081	0.136402	-0.000243
C59	C	0.590414	0.469736	0.333091
C60	C	0.923747	0.803069	0.666424
C61	C	0.291782	0.209552	0.043625
C62	C	0.625115	0.542885	0.376958
C63	C	0.958448	0.876218	0.710291
C64	C	0.364335	0.211137	0.043640
C65	C	0.697669	0.544470	0.376974
C66	C	1.031002	0.877803	0.710307
C67	C	0.402188	0.139566	-0.000214
C68	C	0.735522	0.472899	0.333119
C69	C	1.068855	0.806233	0.666453
C70	C	0.140106	0.228340	-0.000266
C71	C	0.473440	0.561673	0.333067
C72	C	0.806773	0.895006	0.666401
C73	C	0.067550	0.226753	-0.000270
C74	C	0.400883	0.560087	0.333064
C75	C	0.734217	0.893420	0.666397
C76	C	0.071611	0.037857	-0.000265
C77	C	0.404945	0.371190	0.333068
C78	C	0.738278	0.704523	0.666401
C79	C	0.144166	0.039446	-0.000254
C80	C	0.477500	0.372779	0.333079
C81	C	0.810833	0.706112	0.666412
C82	C	0.178409	0.134690	-0.000258
C83	C	0.511743	0.468023	0.333075
C84	C	0.845076	0.801357	0.666409
C85	C	0.822165	-0.051497	-0.000212
C86	C	1.155499	0.281836	0.333122
C87	C	1.488832	0.615170	0.666455
C88	C	0.813181	-0.166532	-0.000211
C89	C	1.146514	0.166801	0.333123
C90	C	1.479848	0.500135	0.666456
C91	C	0.921187	-0.407995	-0.000254
C92	C	1.254520	-0.074661	0.333080
C93	C	1.587853	0.258672	0.666413
C94	C	0.912748	-0.516081	-0.000253
C95	C	1.246082	-0.182748	0.333080
C96	C	1.579415	0.150586	0.666414
C97	C	0.787867	-0.490793	-0.000213
C98	C	1.121201	-0.157460	0.333120
C99	C	1.454534	0.175873	0.666453
C100	C	0.796305	-0.382707	-0.000214
C101	C	1.129639	-0.049374	0.333119
C102	C	1.462972	0.283960	0.666453
C103	C	0.862967	-0.341312	-0.000233
C104	C	1.196301	-0.007979	0.333100
C105	C	1.529634	0.325355	0.666433
C106	C	0.871405	-0.233223	-0.000229
C107	C	1.204738	0.100110	0.333105
C108	C	1.538071	0.433443	0.666438
C109	C	0.746524	-0.207938	-0.000195
C110	C	1.079858	0.125396	0.333139
C111	C	1.413191	0.458729	0.666472
C112	C	0.738086	-0.316024	-0.000194
C113	C	1.071419	0.017309	0.333140
C114	C	1.404753	0.350642	0.666473
C115	C	0.956086	0.129833	-0.000252
C116	C	1.289419	0.463167	0.333082
C117	C	1.622752	0.796500	0.666415
C118	C	1.033304	0.131518	-0.000276
C119	C	1.366638	0.464851	0.333057
C120	C	1.699971	0.798184	0.666390
C121	C	0.837107	0.327480	-0.000225
C122	C	1.170440	0.660813	0.333108
C123	C	1.503774	0.994147	0.666441
C124	C	0.846091	0.442515	-0.000231
C125	C	1.179424	0.775849	0.333102
C126	C	1.512758	1.109182	0.666435
N127	N	0.829614	0.137979	0.177938
N128	N	1.162947	0.471313	0.511271
N129	N	1.496280	0.804646	0.844604
N130	N	0.829663	0.137996	-0.178373
N131	N	1.162997	0.471329	0.154960
N132	N	1.496330	0.804662	0.488294
C133	C	0.872174	0.067342	0.217316
C134	C	1.205507	0.400676	0.550649
C135	C	1.538841	0.734009	0.883982
C136	C	0.872178	0.067338	0.296118
C137	C	1.205511	0.400671	0.629451
C138	C	1.538844	0.734004	0.962784
C139	C	0.829629	0.137988	0.335538
C140	C	1.162962	0.471321	0.668871
C141	C	1.496295	0.804654	1.002205
C142	C	0.787060	0.208630	0.296151
C143	C	1.120393	0.541963	0.629484
C144	C	1.453727	0.875297	0.962817
C145	C	0.787052	0.208626	0.217350
C146	C	1.120386	0.541959	0.550684
C147	C	1.453719	0.875293	0.884017
C148	C	0.826778	0.232410	0.460374
C149	C	1.160111	0.565743	0.793707
C150	C	1.493444	0.899077	1.127041
C151	C	0.826790	0.232416	0.539173
C152	C	1.160123	0.565749	0.872506
C153	C	1.493457	0.899082	1.205839
C154	C	0.829648	0.138000	0.578584
C155	C	1.162982	0.471333	0.911918
C156	C	1.496315	0.804667	1.245251
C157	C	0.832508	0.043575	0.539188
C158	C	1.165842	0.376908	0.872521
C159	C	1.499175	0.710242	1.205854
C160	C	0.832501	0.043571	0.460387
C161	C	1.165834	0.376904	0.793721
C162	C	1.499167	0.710238	1.127054
C163	C	0.829632	0.138000	0.420984
C164	C	1.162965	0.471333	0.754317
C165	C	1.496299	0.804666	1.087651
C166	C	0.872215	0.067352	0.703409
C167	C	1.205548	0.400685	1.036742
C168	C	1.538881	0.734019	1.370075
C169	C	0.872213	0.067346	0.782212
C170	C	1.205547	0.400679	1.115545
C171	C	1.538880	0.734013	1.448878
C172	C	0.787100	0.208647	0.782243
C173	C	1.120433	0.541981	1.115577
C174	C	1.453767	0.875314	1.448910
C175	C	0.787097	0.208645	0.703442
C176	C	1.120431	0.541978	1.036775
C177	C	1.453764	0.875311	1.370108
C178	C	0.829658	0.137998	0.664029
C179	C	1.162992	0.471331	0.997362
C180	C	1.496325	0.804665	1.330696
H181	H	0.036366	0.303015	-0.000278
H182	H	0.369699	0.636348	0.333056
H183	H	0.703032	0.969682	0.666389
H184	H	0.483920	0.312791	-0.000200
H185	H	0.817253	0.646124	0.333133
H186	H	1.150586	0.979458	0.666467
H187	H	0.925684	-0.199522	-0.000242
H188	H	1.259017	0.133812	0.333092
H189	H	1.592351	0.467145	0.666425
H190	H	0.733594	-0.524517	-0.000206
H191	H	1.066928	-0.191183	0.333128
H192	H	1.400261	0.142150	0.666461
H193	H	0.975465	-0.374291	-0.000262
H194	H	1.308798	-0.040957	0.333071
H195	H	1.642132	0.292376	0.666405
H196	H	0.906869	0.009819	0.814274
H197	H	1.240202	0.343153	1.147607
H198	H	1.573535	0.676486	1.480941
H199	H	0.175352	-0.036812	-0.000246
H200	H	0.508686	0.296521	0.333087
H201	H	0.842019	0.629855	0.666421
H202	H	0.824438	0.309300	0.428291
H203	H	1.157772	0.642633	0.761625
H204	H	1.491105	0.975966	1.094958
H205	H	0.906828	0.009816	0.185228
H206	H	1.240161	0.343149	0.518562
H207	H	1.573494	0.676482	0.851895
H208	H	0.960157	-0.570371	-0.000272
H209	H	1.293490	-0.237038	0.333061
H210	H	1.626824	0.096295	0.666395
H211	H	0.824466	0.309302	0.571244
H212	H	1.157799	0.642635	0.904577
H213	H	1.491132	0.975968	1.237910
H214	H	0.683812	-0.349743	-0.000181
H215	H	1.017145	-0.016410	0.333152
H216	H	1.350478	0.316923	0.666486
H217	H	0.752415	0.266153	0.328251
H218	H	1.085748	0.599486	0.661584
H219	H	1.419082	0.932820	0.994917
H220	H	0.699118	-0.153632	-0.000172
H221	H	1.032451	0.179701	0.333161
H222	H	1.365784	0.513035	0.666495
H223	H	0.906836	0.009814	0.328185
H224	H	1.240170	0.343148	0.661518
H225	H	1.573503	0.676481	0.994852
H226	H	0.043725	-0.039685	-0.000319
H227	H	0.377059	0.293648	0.333015
H228	H	0.710392	0.626981	0.666348
H229	H	0.834828	-0.033313	0.428314
H230	H	1.168161	0.300020	0.761647
H231	H	1.501494	0.633354	1.094980
H232	H	0.834835	-0.033307	0.571275
H233	H	1.168169	0.300026	0.904608
H234	H	1.501502	0.633360	1.237942
H235	H	0.752394	0.266148	0.185288
H236	H	1.085727	0.599481	0.518621
H237	H	1.419061	0.932815	0.851955
H238	H	0.752453	0.266168	0.814339
H239	H	1.085786	0.599501	1.147672
H240	H	1.419120	0.932835	1.481006
H241	H	0.615542	0.315668	-0.000186
H242	H	0.948875	0.649001	0.333148
H243	H	1.282209	0.982335	0.666481
H244	H	0.906868	0.009824	0.671317
H245	H	1.240202	0.343157	1.004651
H246	H	1.573535	0.676491	1.337984
H247	H	0.392586	0.270694	0.079361
H248	H	0.725919	0.604027	0.412694
H249	H	1.059253	0.937361	0.746028
H250	H	0.752444	0.266168	0.671378
H251	H	1.085777	0.599501	1.004711
H252	H	1.419110	0.932835	1.338044
H253	H	0.260958	0.267814	0.079337
H254	H	0.594291	0.601148	0.412671
H255	H	0.927624	0.934481	0.746004
H256	H	0.491280	-0.029905	-0.000194
H257	H	0.824613	0.303428	0.333139
H258	H	1.157946	0.636762	0.666472
H259	H	0.266693	0.005293	-0.079822
H260	H	0.600026	0.338627	0.253512
H261	H	0.933359	0.671960	0.586845
H262	H	0.398313	0.008166	-0.079797
H263	H	0.731646	0.341499	0.253537
H264	H	1.064979	0.674833	0.586870
H265	H	0.167988	0.305893	-0.000258
H266	H	0.501322	0.639227	0.333075
H267	H	0.834655	0.972560	0.666409
H268	H	0.622910	-0.027040	-0.000150
H269	H	0.956243	0.306293	0.333184
H270	H	1.289577	0.639627	0.666517
