data_functionalizedCrystal
_audit_creation_method	'MofGen! by Chris Wilmer'
_symmetry_space_group_name_H-M	'P1'
_symmetry_Int_Tables_number	1
_symmetry_cell_setting	triclinic
loop_
_symmetry_equiv_pos_as_xyz
  x,y,z
_cell_length_a	10.868271
_cell_length_b	11.792241
_cell_length_c	11.792241
_cell_angle_alpha	84.193416
_cell_angle_beta	89.994263
_cell_angle_gamma	90.003536
loop_
_atom_site_label
_atom_site_type_symbol
_atom_site_fract_x
_atom_site_fract_y
_atom_site_fract_z
O1	O	0.102203	-1.506902	-0.155570
O2	O	0.352203	-1.256902	0.094430
O3	O	0.602203	-1.006902	0.344430
O4	O	0.852203	-0.756902	0.594430
O5	O	0.102232	-1.176561	-0.171603
O6	O	0.352232	-0.926561	0.078397
O7	O	0.602232	-0.676561	0.328397
O8	O	0.852232	-0.426561	0.578397
O9	O	0.102208	-1.349748	0.001584
O10	O	0.352208	-1.099748	0.251584
O11	O	0.602208	-0.849748	0.501584
O12	O	0.852208	-0.599748	0.751584
O13	O	0.102227	-1.333715	-0.328757
O14	O	0.352227	-1.083715	-0.078757
O15	O	0.602227	-0.833715	0.171243
O16	O	0.852227	-0.583715	0.421243
O17	O	-0.102436	-1.349746	0.001594
O18	O	0.147564	-1.099746	0.251594
O19	O	0.397564	-0.849746	0.501594
O20	O	0.647564	-0.599746	0.751594
O21	O	-0.102413	-1.176559	-0.171593
O22	O	0.147587	-0.926559	0.078407
O23	O	0.397587	-0.676559	0.328407
O24	O	0.647587	-0.426559	0.578407
O25	O	-0.102441	-1.506900	-0.155560
O26	O	0.147559	-1.256900	0.094440
O27	O	0.397559	-1.006900	0.344440
O28	O	0.647559	-0.756900	0.594440
Zn29	Zn	-0.134919	-1.341729	-0.163575
Zn30	Zn	0.115081	-1.091729	0.086425
Zn31	Zn	0.365081	-0.841729	0.336425
Zn32	Zn	0.615081	-0.591729	0.586425
Zn33	Zn	0.134709	-1.341732	-0.163588
Zn34	Zn	0.384709	-1.091732	0.086412
Zn35	Zn	0.634709	-0.841732	0.336412
Zn36	Zn	0.884709	-0.591732	0.586412
O37	O	-0.102418	-1.333713	-0.328747
O38	O	0.147582	-1.083713	-0.078747
O39	O	0.397582	-0.833713	0.171253
O40	O	0.647582	-0.583713	0.421253
C41	C	-0.000087	-1.134269	-0.170591
C42	C	0.249913	-0.884269	0.079409
C43	C	0.499913	-0.634269	0.329409
C44	C	0.749913	-0.384269	0.579409
C45	C	-0.000076	-1.008255	-0.167576
C46	C	0.249924	-0.758255	0.082424
C47	C	0.499924	-0.508255	0.332424
C48	C	0.749924	-0.258255	0.582424
N49	N	-0.318933	-1.341736	-0.163566
N50	N	-0.068933	-1.091736	0.086434
N51	N	0.181067	-0.841736	0.336434
N52	N	0.431067	-0.591736	0.586434
N53	N	0.318723	-1.341735	-0.163588
N54	N	0.568723	-1.091735	0.086412
N55	N	0.818723	-0.841735	0.336412
N56	N	1.068723	-0.591735	0.586412
C57	C	0.569729	-1.341731	-0.163581
C58	C	0.819729	-1.091731	0.086419
C59	C	1.069729	-0.841731	0.336419
C60	C	1.319729	-0.591731	0.586419
C61	C	0.430052	-1.341730	-0.163589
C62	C	0.680052	-1.091730	0.086411
C63	C	0.930052	-0.841730	0.336411
C64	C	1.180052	-0.591730	0.586411
C65	C	-0.000114	-1.348740	0.043880
C66	C	0.249886	-1.098740	0.293880
C67	C	0.499886	-0.848740	0.543880
C68	C	0.749886	-0.598740	0.793880
C69	C	-0.000112	-1.345726	0.169894
C70	C	0.249888	-1.095726	0.419894
C71	C	0.499888	-0.845726	0.669894
C72	C	0.749888	-0.595726	0.919894
C73	C	-0.000120	-1.549192	-0.156572
C74	C	0.249880	-1.299192	0.093428
C75	C	0.499880	-1.049192	0.343428
C76	C	0.749880	-0.799192	0.593428
C77	C	-0.000123	-1.675206	-0.159587
C78	C	0.249877	-1.425206	0.090413
C79	C	0.499877	-1.175206	0.340413
C80	C	0.749877	-0.925206	0.590413
C81	C	-0.000112	-0.777543	-0.162034
C82	C	0.249888	-0.527543	0.087966
C83	C	0.499888	-0.277543	0.337966
C84	C	0.749888	-0.027543	0.587966
C85	C	-0.000092	-0.905928	-0.165113
C86	C	0.249908	-0.655928	0.084887
C87	C	0.499908	-0.405928	0.334887
C88	C	0.749908	-0.155928	0.584887
C89	C	-0.000093	-1.334721	-0.371043
C90	C	0.249907	-1.084721	-0.121043
C91	C	0.499907	-0.834721	0.128957
C92	C	0.749907	-0.584721	0.378957
C93	C	-0.000087	-1.337736	-0.497057
C94	C	0.249913	-1.087736	-0.247057
C95	C	0.499913	-0.837736	0.002943
C96	C	0.749913	-0.587736	0.252943
C97	C	-0.000091	-1.340183	0.400606
C98	C	0.249909	-1.090183	0.650606
C99	C	0.499909	-0.840183	0.900606
C100	C	0.749909	-0.590183	1.150606
C101	C	-0.000102	-1.343262	0.272221
C102	C	0.249898	-1.093262	0.522221
C103	C	0.499898	-0.843262	0.772221
C104	C	0.749898	-0.593262	1.022221
