data_functionalizedCrystal
_audit_creation_method	'MofGen! by Chris Wilmer'
_symmetry_space_group_name_H-M	'P1'
_symmetry_Int_Tables_number	1
_symmetry_cell_setting	triclinic
loop_
_symmetry_equiv_pos_as_xyz
  x,y,z
_cell_length_a	12.759401
_cell_length_b	12.645330
_cell_length_c	12.645324
_cell_angle_alpha	89.968234
_cell_angle_beta	89.979035
_cell_angle_gamma	90.019217
loop_
_atom_site_label
_atom_site_type_symbol
_atom_site_fract_x
_atom_site_fract_y
_atom_site_fract_z
Zn1	Zn	1.606245	-0.421916	-0.599390
Zn2	Zn	1.606127	-0.599225	-0.422130
Zn3	Zn	1.430543	-0.421981	-0.422140
Zn4	Zn	1.430526	-0.599142	-0.599351
O5	O	1.518360	-0.510566	-0.510753
O6	O	1.753250	-0.445444	-0.575888
O7	O	1.582793	-0.575775	-0.273784
O8	O	1.453907	-0.273625	-0.445673
O9	O	1.753163	-0.575712	-0.445655
O10	O	1.582994	-0.273577	-0.575898
O11	O	1.453793	-0.445554	-0.273792
O12	O	1.283520	-0.445474	-0.445636
O13	O	1.453878	-0.575571	-0.747704
O14	O	1.283508	-0.575634	-0.575832
O15	O	1.582978	-0.445363	-0.747732
O16	O	1.582776	-0.747561	-0.445618
O17	O	1.453763	-0.747501	-0.575822
C18	C	1.245393	-0.510553	-0.510732
C19	C	1.128616	-0.510573	-0.510748
C20	C	1.073775	-0.578450	-0.578434
C21	C	0.964051	-0.578454	-0.578455
C22	C	0.964019	-0.442701	-0.443094
C23	C	1.073741	-0.442692	-0.443080
C24	C	0.814153	-0.616487	-0.703434
C25	C	0.759309	-0.684381	-0.771111
C26	C	0.794901	-0.787836	-0.787206
C27	C	0.885336	-0.823418	-0.735608
C28	C	0.940175	-0.755530	-0.667923
C29	C	0.904585	-0.652060	-0.651848
C30	C	1.223641	-0.404671	-0.318099
C31	C	1.278482	-0.336787	-0.250408
C32	C	1.242892	-0.233330	-0.234303
C33	C	1.152453	-0.197752	-0.285882
C34	C	1.097612	-0.265636	-0.353574
C35	C	1.133210	-0.369091	-0.369680
C36	C	1.518284	-0.785996	-0.510738
C37	C	1.518347	-0.903826	-0.510767
C38	C	1.437520	-1.071396	-0.592931
C39	C	1.437106	-0.948836	-0.592667
C40	C	1.488371	-0.948434	-0.399046
C41	C	1.487878	-1.071032	-0.399545
C42	C	1.629644	-1.070909	-0.539418
C43	C	1.628962	-0.948301	-0.541861
C44	C	1.792394	-0.510580	-0.510775
C45	C	1.909170	-0.510586	-0.510784
C46	C	1.518439	-0.510451	-0.787258
C47	C	1.518473	-0.510402	-0.905088
C48	C	1.518466	-0.234061	-0.510791
C49	C	1.518511	-0.116231	-0.510807
C50	C	1.600005	-0.428725	-1.072670
C51	C	1.599744	-0.428430	-0.950110
C52	C	1.407789	-0.480047	-0.949570
C53	C	1.408284	-0.479426	-1.072169
C54	C	1.546725	-0.622552	-1.072285
C55	C	1.549147	-0.621988	-0.949680
C56	C	1.518342	-0.510604	-0.235323
C57	C	1.518512	-0.510355	-0.117494
H58	H	1.023977	-0.236656	-0.395580
H59	H	1.383435	-0.398947	-0.918876
H60	H	1.345498	-0.536295	-1.101818
H61	H	1.287548	-0.178063	-0.179174
C62	C	1.659030	-0.909646	-0.651595
C63	C	1.674033	-0.996635	-0.718352
C64	C	1.701693	-0.961072	-0.819460
H65	H	1.722049	-0.869842	-0.647546
H66	H	1.604583	-0.866328	-0.678955
H67	H	1.728476	-1.039936	-0.690999
H68	H	1.611027	-1.036449	-0.722433
H69	H	1.647246	-0.917754	-0.846820
H70	H	1.764710	-0.921267	-0.815400
H71	H	1.711866	-1.020088	-0.864769
H72	H	1.681818	-0.447440	-0.920037
H73	H	1.455861	-0.918672	-0.675507
H74	H	0.919326	-0.387436	-0.388000
H75	H	1.456102	-1.100797	-0.676043
H76	H	1.345418	-0.537675	-0.920406
H77	H	1.626025	-0.650188	-1.103268
H78	H	1.352122	-0.365764	-0.208409
H79	H	1.354717	-0.919606	-0.573712
H80	H	1.355645	-1.102301	-0.574218
H81	H	0.785172	-0.532242	-0.690347
H82	H	1.406639	-1.099729	-0.375307
C83	C	1.114001	-0.085371	-0.268306
C84	C	1.181400	-0.033527	-0.198010
C85	C	1.146020	0.070003	-0.181798
H86	H	1.045277	-0.087026	-0.239444
H87	H	1.113023	-0.048645	-0.333862
H88	H	1.182366	-0.070243	-0.132466
H89	H	1.250126	-0.031843	-0.226852
H90	H	1.145043	0.106729	-0.247354
H91	H	1.077296	0.068338	-0.152939
H92	H	1.191750	0.105195	-0.134109
H93	H	1.487375	-0.683375	-1.101280
H94	H	1.252634	-0.488911	-0.331216
H95	H	1.544309	-1.100696	-0.336270
H96	H	1.545491	-0.919282	-0.336186
C97	C	1.657820	-0.652517	-0.911101
C98	C	1.724006	-0.667664	-0.998120
C99	C	1.824118	-0.695788	-0.962605
H100	H	1.653628	-0.716144	-0.871358
H101	H	1.685036	-0.597677	-0.867735
H102	H	1.696797	-0.722500	-1.041468
H103	H	1.728229	-0.604049	-1.037872
H104	H	1.851333	-0.640948	-0.919239
H105	H	1.819915	-0.759413	-0.922862
H106	H	1.869039	-0.706059	-1.021641
C107	C	1.381269	-0.907502	-0.365992
C108	C	1.390815	-0.849875	-0.271973
C109	C	1.292175	-0.812144	-0.241506
H110	H	1.335119	-0.965463	-0.355144
H111	H	1.354037	-0.863015	-0.419950
H112	H	1.418032	-0.894359	-0.218027
H113	H	1.436946	-0.791900	-0.282795
H114	H	1.264943	-0.767658	-0.295464
H115	H	1.246033	-0.870111	-0.230663
H116	H	1.298640	-0.773032	-0.177717
H117	H	1.656988	-1.101742	-0.619500
H118	H	1.494106	-0.686081	-0.919029
C119	C	1.133410	-0.652269	-0.651733
C120	C	1.196334	-0.720164	-0.591589
C121	C	1.251270	-0.788188	-0.659079
H122	H	1.176332	-0.611889	-0.698006
H123	H	1.085063	-0.692754	-0.692030
H124	H	1.244676	-0.679683	-0.551310
H125	H	1.153439	-0.760568	-0.545319
H126	H	1.202923	-0.828674	-0.699377
H127	H	1.294186	-0.747799	-0.705349
H128	H	1.293963	-0.834270	-0.618281
C129	C	1.713588	-0.907581	-0.467749
C130	C	1.690720	-0.939205	-0.364149
C131	C	1.768656	-0.901725	-0.295840
H132	H	1.716020	-0.832576	-0.471111
H133	H	1.779539	-0.935729	-0.488318
H134	H	1.624787	-0.911052	-0.343586
H135	H	1.688297	-1.014205	-0.360753
H136	H	1.834607	-0.929874	-0.316409
H137	H	1.771083	-0.826721	-0.299212
H138	H	1.753157	-0.923185	-0.225542
C139	C	1.709894	-0.453596	-1.111844
C140	C	1.780426	-0.379542	-1.070509
C141	C	1.881668	-0.402427	-1.106571
H142	H	1.711289	-0.450425	-1.186884
H143	H	1.729339	-0.522526	-1.089286
H144	H	1.760986	-0.310629	-1.093073
H145	H	1.779064	-0.382701	-0.995472
H146	H	1.901113	-0.471357	-1.084013
H147	H	1.883052	-0.399257	-1.181610
H148	H	1.929538	-0.352192	-1.078522
H149	H	1.689985	-1.099902	-0.479604
C150	C	1.038244	-0.794334	-0.611831
C151	C	1.012952	-0.881163	-0.547973
C152	C	1.103270	-0.916945	-0.496296
H153	H	1.065877	-0.739194	-0.569142
H154	H	1.089033	-0.814869	-0.662790
H155	H	0.962181	-0.860625	-0.497020
H156	H	0.985332	-0.936324	-0.590636
H157	H	1.154059	-0.937480	-0.547255
H158	H	1.130896	-0.861798	-0.453612
H159	H	1.086124	-0.975868	-0.452970
C160	C	1.575376	-0.318594	-1.113958
C161	C	1.580516	-0.318639	-1.224561
C162	C	1.557807	-0.217211	-1.262629
H163	H	1.624925	-0.269659	-1.086618
H164	H	1.506919	-0.298704	-1.092108
H165	H	1.648963	-0.338517	-1.246402
H166	H	1.530967	-0.367553	-1.251930
H167	H	1.489350	-0.197321	-1.240779
H168	H	1.607359	-0.168284	-1.235281
H169	H	1.561282	-0.217230	-1.337676
C170	C	0.924045	-0.935692	-0.753283
C171	C	0.946237	-0.950351	-0.860721
C172	C	0.981915	-1.053760	-0.877045
H173	H	0.871465	-0.984397	-0.731848
H174	H	0.985791	-0.947183	-0.712920
H175	H	0.884499	-0.938871	-0.901070
H176	H	0.998824	-0.901671	-0.882180
H177	H	1.043661	-1.065251	-0.836682
H178	H	0.929330	-1.102457	-0.855604
H179	H	0.996985	-1.063717	-0.949940
C180	C	1.574890	-0.317671	-0.910805
C181	C	1.574616	-0.317114	-0.800085
C182	C	1.551731	-0.215095	-0.763841
H183	H	1.507931	-0.296780	-0.936101
H184	H	1.626530	-0.269734	-0.936018
H185	H	1.522979	-0.365036	-0.774882
H186	H	1.641566	-0.337985	-0.774761
H187	H	1.603371	-0.167158	-0.789054
H188	H	1.484773	-0.194214	-0.789143
H189	H	1.551551	-0.214702	-0.688714
H190	H	0.750239	-0.843115	-0.842312
H191	H	0.685676	-0.655400	-0.813124
H192	H	1.384369	-0.397411	-1.100779
