data_functionalizedCrystal
_audit_creation_method	'MofGen! by Chris Wilmer'
_symmetry_space_group_name_H-M	'P1'
_symmetry_Int_Tables_number	1
_symmetry_cell_setting	triclinic
loop_
_symmetry_equiv_pos_as_xyz
  x,y,z
_cell_length_a	19.188930
_cell_length_b	23.532407
_cell_length_c	17.666332
_cell_angle_alpha	89.988854
_cell_angle_beta	89.976766
_cell_angle_gamma	82.996728
loop_
_atom_site_label
_atom_site_type_symbol
_atom_site_fract_x
_atom_site_fract_y
_atom_site_fract_z
O1	O	0.925923	0.071102	-0.063199
O2	O	0.722581	0.080673	-0.063148
O3	O	0.830384	-0.007031	-0.063161
O4	O	0.818120	0.158806	-0.063186
O5	O	0.830365	-0.007036	0.062735
O6	O	0.722562	0.080669	0.062748
O7	O	0.925904	0.071097	0.062697
Cu8	Cu	0.824231	0.075883	0.074218
Cu9	Cu	0.824253	0.075888	-0.074669
O10	O	0.818101	0.158802	0.062711
C11	C	0.696561	0.080361	-0.000193
C12	C	0.619060	0.079431	-0.000173
C13	C	0.573972	0.130893	-0.000193
C14	C	0.501151	0.130019	-0.000201
C15	C	0.473421	0.077680	-0.000205
C16	C	0.518519	0.026211	-0.000181
C17	C	0.591339	0.027086	-0.000165
N18	N	0.365575	0.037674	-0.043078
N19	N	0.296399	0.036846	-0.043094
C20	C	0.254021	0.075038	-0.000251
N21	N	0.283431	0.114099	0.042600
N22	N	0.352613	0.114929	0.042614
C23	C	0.394462	0.076724	-0.000222
C24	C	0.129971	0.125556	-0.000278
C25	C	0.057149	0.124680	-0.000282
C26	C	0.074520	0.020870	-0.000269
C27	C	0.147340	0.021748	-0.000258
C28	C	0.175061	0.074092	-0.000266
C29	C	0.830062	-0.028250	-0.000211
C30	C	0.829123	-0.091469	-0.000205
C31	C	0.887029	-0.490449	-0.000261
C32	C	0.886157	-0.549851	-0.000267
O33	O	0.939837	-0.586482	-0.000308
N34	N	0.822068	-0.572613	-0.000250
C35	C	0.758848	-0.535970	-0.000236
O36	O	0.704255	-0.560786	-0.000223
C37	C	0.759721	-0.476569	-0.000235
C38	C	0.823814	-0.453810	-0.000244
C39	C	0.951117	-0.467690	-0.000271
C40	C	0.951989	-0.408292	-0.000264
C41	C	0.888773	-0.371653	-0.000247
C42	C	0.824685	-0.394412	-0.000237
C43	C	0.696501	-0.439927	-0.000226
C44	C	0.697379	-0.380523	-0.000227
C45	C	0.761472	-0.357764	-0.000236
C46	C	0.762342	-0.298376	-0.000214
N47	N	0.826430	-0.275614	-0.000230
C48	C	0.889646	-0.312252	-0.000247
C49	C	0.757019	-0.660717	-0.000237
C50	C	0.756146	-0.720116	-0.000232
C51	C	0.883455	-0.733993	-0.000264
C52	C	0.884328	-0.674592	-0.000264
C53	C	0.821108	-0.637954	-0.000254
C54	C	0.891472	-0.187512	-0.000232
C55	C	0.892339	-0.128108	-0.000222
C56	C	0.765029	-0.114236	-0.000193
C57	C	0.764163	-0.173634	-0.000199
C58	C	0.827390	-0.210272	-0.000221
O59	O	0.708690	-0.261710	-0.000176
O60	O	0.944230	-0.287428	-0.000270
C61	C	0.951923	0.071410	-0.000259
C62	C	1.029425	0.072340	-0.000284
C63	C	0.818423	0.180021	-0.000241
C64	C	0.819362	0.243240	-0.000252
N65	N	0.824221	0.075878	0.178938
N66	N	0.824270	0.075888	-0.179389
C67	C	0.871971	0.037062	0.218542
C68	C	0.871975	0.037059	0.297789
C69	C	0.824236	0.075883	0.337430
C70	C	0.776476	0.114702	0.297816
C71	C	0.776469	0.114700	0.218570
N72	N	0.814998	0.126298	0.461842
N73	N	0.815010	0.126298	0.537123
C74	C	0.824254	0.075891	0.576194
N75	N	0.833500	0.025481	0.537141
N76	N	0.833493	0.025482	0.461853
C77	C	0.824238	0.075889	0.423359
C78	C	0.872011	0.037068	0.701727
C79	C	0.872010	0.037064	0.780976
C80	C	0.776515	0.114713	0.781002
C81	C	0.776512	0.114711	0.701754
C82	C	0.824264	0.075889	0.662122
H83	H	0.051943	-0.021745	-0.000319
H84	H	0.934929	-0.763836	-0.000281
C85	C	0.959179	-0.615839	-0.065002
C86	C	0.954779	-0.649577	-0.000282
H87	H	1.002673	-0.600395	-0.065010
H88	H	0.956200	-0.638719	-0.108894
H89	H	0.921655	-0.585515	-0.064986
H90	H	0.992301	-0.679903	-0.000301
H91	H	0.957765	-0.626695	0.043622
C92	C	0.966372	-0.039690	0.289812
C93	C	0.924464	-0.005613	0.341334
H94	H	0.998776	-0.066031	0.316695
H95	H	0.937453	-0.060118	0.258926
H96	H	0.991317	-0.016029	0.258882
H97	H	0.899514	-0.029274	0.372261
H98	H	0.953386	0.014817	0.372233
H99	H	0.464433	0.171927	-0.000215
C100	C	0.734095	0.149188	0.419308
C101	C	0.724002	0.157380	0.341386
H102	H	0.701699	0.175538	0.446204
H103	H	0.726779	0.111198	0.432309
H104	H	0.780651	0.155281	0.432257
H105	H	0.677447	0.151282	0.328436
H106	H	0.731312	0.195378	0.328380
C107	C	0.966417	-0.039674	0.772986
C108	C	0.924505	-0.005604	0.824512
H109	H	0.998828	-0.066012	0.799866
H110	H	0.937501	-0.060106	0.742101
H111	H	0.991354	-0.016008	0.742055
H112	H	0.899563	-0.029270	0.855440
H113	H	0.953424	0.014829	0.855410
C114	C	0.684134	-0.585860	-0.064933
C115	C	0.687520	-0.620447	-0.000215
H116	H	0.641226	-0.561004	-0.064921
H117	H	0.722417	-0.563799	-0.064937
H118	H	0.686450	-0.609321	-0.108832
H119	H	0.685210	-0.596985	0.043684
H120	H	0.649226	-0.642509	-0.000204
C121	C	0.266678	-0.023000	-0.000233
C122	C	0.196907	-0.034821	-0.000248
H123	H	0.297277	-0.057926	-0.000220
H124	H	0.275063	-0.001532	-0.044132
H125	H	0.275013	-0.001533	0.043674
H126	H	0.188570	-0.056284	-0.044158
H127	H	0.188519	-0.056299	0.043656
C128	C	0.760820	0.192249	0.612622
C129	C	0.724032	0.157388	0.658216
H130	H	0.728418	0.218594	0.585741
H131	H	0.789736	0.212673	0.643516
H132	H	0.789248	0.169120	0.577676
H133	H	0.695608	0.180516	0.693166
H134	H	0.695104	0.136962	0.627319
H135	H	0.644310	-0.458446	-0.000224
C136	C	1.018094	-0.147801	-0.000260
C137	C	0.962794	-0.103093	-0.000238
H138	H	1.061588	-0.132357	-0.000276
H139	H	1.015100	-0.170687	0.043639
H140	H	1.015103	-0.170673	-0.044167
H141	H	0.965782	-0.080223	0.043672
H142	H	0.965790	-0.080197	-0.044142
H143	H	0.737584	0.146310	0.186324
H144	H	0.910892	0.005455	0.669457
H145	H	0.495937	-0.016404	-0.000195
C146	C	1.023989	-0.542546	0.064430
C147	C	1.020610	-0.507960	-0.000288
H148	H	1.066893	-0.567407	0.064419
H149	H	1.021672	-0.519089	0.108324
H150	H	0.985698	-0.564607	0.064429
H151	H	1.058899	-0.485896	-0.000284
H152	H	1.022934	-0.531420	-0.044193
C153	C	0.571450	-0.372777	-0.000203
C154	C	0.627884	-0.340251	-0.000212
H155	H	0.528548	-0.347914	-0.000189
H156	H	0.573768	-0.396225	-0.044106
H157	H	0.573756	-0.396244	0.043700
H158	H	0.625580	-0.316787	-0.044119
H159	H	0.625564	-0.316793	0.043695
C160	C	0.964381	-0.262343	-0.064975
C161	C	0.960972	-0.227777	-0.000253
H162	H	1.007289	-0.287197	-0.064985
H163	H	0.926098	-0.284404	-0.064965
H164	H	0.962079	-0.238867	-0.108871
H165	H	0.963269	-0.251252	0.043643
H166	H	0.999265	-0.205713	-0.000256
C167	C	0.682122	0.191461	0.773062
C168	C	0.724035	0.157388	0.824565
H169	H	0.649719	0.217804	0.799960
H170	H	0.711038	0.211888	0.742135
H171	H	0.657175	0.167798	0.742172
H172	H	0.748987	0.181051	0.855452
H173	H	0.695116	0.136960	0.855505
C174	C	0.630396	-0.700418	-0.000201
C175	C	0.685693	-0.745128	-0.000216
H176	H	0.586901	-0.715859	-0.000200
H177	H	0.633380	-0.677550	0.043701
H178	H	0.633401	-0.677529	-0.044105
H179	H	0.682691	-0.768015	0.043691
H180	H	0.682708	-0.768007	-0.044123
C181	C	0.638411	-0.153948	-0.000175
C182	C	0.693712	-0.198654	-0.000191
H183	H	0.594918	-0.169392	-0.000181
H184	H	0.641388	-0.131083	0.043732
H185	H	0.641416	-0.131055	-0.044074
H186	H	0.690709	-0.221545	0.043712
H187	H	0.690733	-0.221529	-0.044102
H188	H	0.910852	0.005450	0.186275
C189	C	0.581598	0.219646	-0.064925
C190	C	0.604432	0.188434	-0.000197
H191	H	0.600399	0.255171	-0.064923
H192	H	0.597134	0.198466	-0.108812
H193	H	0.531775	0.226476	-0.064929
H194	H	0.654255	0.181600	-0.000196
H195	H	0.588900	0.209618	0.043702
H196	H	0.152543	0.168178	-0.000274
C197	C	0.683271	-0.032155	0.064576
C198	C	0.640904	-0.029485	-0.000150
H199	H	0.713868	-0.067082	0.064585
H200	H	0.710202	-0.000861	0.064571
H201	H	0.654473	-0.030341	0.108470
H202	H	0.669702	-0.031295	-0.044043
H203	H	0.613971	-0.060787	-0.000151
C204	C	0.047299	0.227377	-0.000311
C205	C	0.007585	0.181252	-0.000304
H206	H	0.016698	0.262302	-0.000330
H207	H	0.076038	0.225562	0.043594
H208	H	0.076087	0.225553	-0.044212
H209	H	-0.021200	0.183073	0.043600
H210	H	-0.021166	0.183068	-0.044213
C211	C	1.077737	-0.427993	-0.000304
C212	C	1.022442	-0.383281	-0.000284
H213	H	1.121233	-0.412554	-0.000323
H214	H	1.074740	-0.450877	0.043597
H215	H	1.074742	-0.450867	-0.044209
H216	H	1.025434	-0.360410	0.043625
H217	H	1.025440	-0.360388	-0.044189
H218	H	0.713561	-0.084394	-0.000177
