data_functionalizedCrystal
_audit_creation_method	'MofGen! by Chris Wilmer'
_symmetry_space_group_name_H-M	'P1'
_symmetry_Int_Tables_number	1
_symmetry_cell_setting	triclinic
loop_
_symmetry_equiv_pos_as_xyz
  x,y,z
_cell_length_a	9.482944
_cell_length_b	14.971486
_cell_length_c	11.026660
_cell_angle_alpha	83.900518
_cell_angle_beta	98.150972
_cell_angle_gamma	79.562103
loop_
_atom_site_label
_atom_site_type_symbol
_atom_site_fract_x
_atom_site_fract_y
_atom_site_fract_z
O1	O	0.120716	-1.227464	0.175083
O2	O	0.120754	-0.970104	0.194030
O3	O	0.120736	-1.077455	0.007874
O4	O	0.120733	-1.120112	0.361239
O5	O	-0.121051	-1.047045	-0.025994
O6	O	-0.121034	-0.939694	0.160163
O7	O	-0.121072	-1.197054	0.141215
Cu8	Cu	-0.143130	-1.065597	0.147597
Cu9	Cu	0.142812	-1.101560	0.187649
O10	O	-0.121055	-1.089703	0.327372
C11	C	-0.000135	-0.921439	0.176250
C12	C	-0.000120	-0.821737	0.173714
C13	C	-0.000154	-1.054381	-0.054281
C14	C	-0.000142	-1.030922	-0.189027
N15	N	-0.344246	-1.040309	0.119425
C16	C	-0.583864	-1.073068	0.155897
C17	C	-0.416450	-1.094103	0.179348
N18	N	0.343928	-1.126854	0.215811
C19	C	-0.000180	-1.245719	0.158996
C20	C	-0.000186	-1.345422	0.161534
C21	C	-0.000123	-0.782033	0.283074
C22	C	-0.000145	-0.688347	0.280678
C23	C	-0.000153	-0.634369	0.168923
C24	C	-0.000154	-0.674078	0.059554
C25	C	-0.000143	-0.767761	0.061949
C26	C	-0.000174	-0.478815	0.054569
C27	C	-0.000183	-0.385126	0.052174
C28	C	-0.000176	-0.399402	0.273298
C29	C	-0.000165	-0.493084	0.275694
C30	C	-0.000163	-0.532788	0.166324
C31	C	-0.000161	-1.112777	0.389527
C32	C	-0.000163	-1.136237	0.524274
C33	C	-0.000153	-1.095699	0.737257
C34	C	-0.000152	-1.071451	0.597989
H35	H	-0.645986	-1.011451	0.087236
H36	H	-0.000135	-0.998037	0.558003
C37	C	0.000141	-1.193640	0.790547
C38	C	0.124548	-1.251725	0.768620
C39	C	0.124881	-1.341954	0.817705
H40	H	-0.084081	-1.212113	0.752198
H41	H	0.000224	-1.196974	0.877081
H42	H	0.124452	-1.248395	0.682102
H43	H	0.208790	-1.233282	0.806970
H44	H	0.124964	-1.345288	0.904239
H45	H	0.040655	-1.360418	0.779352
H46	H	0.209296	-1.381375	0.802845
H47	H	-0.000062	-1.209666	0.564276
C48	C	0.000114	-0.356389	0.392127
C49	C	0.124537	-0.399098	0.476815
C50	C	0.124871	-0.359490	0.586284
H51	H	-0.084097	-0.364067	0.426299
H52	H	0.000178	-0.292869	0.374763
H53	H	0.124460	-0.462604	0.494180
H54	H	0.208768	-0.391423	0.442683
H55	H	0.124934	-0.295969	0.568920
H56	H	0.040654	-0.367169	0.620444
H57	H	0.209296	-0.388456	0.643754
H58	H	-0.593950	-1.188477	0.284462
H59	H	-0.000175	-0.511137	-0.034491
C60	C	-0.000200	-0.933079	0.757416
C61	C	-0.000236	-0.928474	0.629923
C62	C	-0.000308	-0.838352	0.580547
H63	H	0.084098	-0.914644	0.795682
H64	H	-0.084547	-0.893504	0.772123
H65	H	0.084102	-0.968036	0.615226
H66	H	-0.084527	-0.946892	0.591625
H67	H	-0.084654	-0.798777	0.595254
H68	H	0.083992	-0.819924	0.618821
H69	H	-0.000346	-0.835214	0.494037
H70	H	-0.354334	-1.155730	0.248004
H71	H	-0.000115	-0.825977	0.374078
C72	C	-0.427318	-0.958155	0.027967
C73	C	-0.576853	-0.953528	0.023051
C74	C	-0.653423	-0.877854	-0.061172
H75	H	-0.402724	-0.964441	-0.051682
H76	H	-0.402433	-0.903668	0.053835
H77	H	-0.601728	-1.008001	-0.002823
H78	H	-0.601490	-0.947228	0.102679
H79	H	-0.628538	-0.823368	-0.035303
H80	H	-0.628817	-0.884147	-0.140815
H81	H	-0.754889	-0.874700	-0.064510
H82	H	-0.000191	-0.341178	-0.038828
H83	H	-0.000145	-0.656026	0.369731
H84	H	-0.000144	-0.537034	0.366697
H85	H	-0.000181	-0.630119	-0.031443
C86	C	-0.000057	-0.810712	-0.056906
C87	C	-0.000024	-0.743396	-0.155285
C88	C	0.000069	-0.782929	-0.264794
H89	H	-0.084346	-0.836360	-0.072549
H90	H	0.084298	-0.857538	-0.048818
H91	H	-0.084371	-0.696587	-0.163374
H92	H	0.084259	-0.717743	-0.139684
H93	H	0.084425	-0.829755	-0.256706
H94	H	-0.084221	-0.808576	-0.280424
H95	H	0.000105	-0.737263	-0.331555
