data_functionalizedCrystal
_audit_creation_method	'MofGen! by Chris Wilmer'
_symmetry_space_group_name_H-M	'P1'
_symmetry_Int_Tables_number	1
_symmetry_cell_setting	triclinic
loop_
_symmetry_equiv_pos_as_xyz
  x,y,z
_cell_length_a	9.198806
_cell_length_b	10.654550
_cell_length_c	10.654550
_cell_angle_alpha	84.484931
_cell_angle_beta	89.996970
_cell_angle_gamma	89.999292
loop_
_atom_site_label
_atom_site_type_symbol
_atom_site_fract_x
_atom_site_fract_y
_atom_site_fract_z
O1	O	0.120784	-1.667840	-0.176396
O2	O	0.120810	-1.302362	-0.193202
O3	O	0.120787	-1.493504	-0.002060
O4	O	0.120807	-1.476698	-0.367539
O5	O	-0.120998	-1.493489	-0.002060
O6	O	-0.120975	-1.302347	-0.193202
O7	O	-0.121002	-1.667825	-0.176396
Cu8	Cu	-0.143065	-1.485085	-0.184799
Cu9	Cu	0.142874	-1.485103	-0.184799
O10	O	-0.120978	-1.476683	-0.367538
C11	C	-0.000079	-1.255556	-0.191968
C12	C	-0.000069	-1.116113	-0.188276
N13	N	-0.344179	-1.485081	-0.184798
C14	C	-0.000105	-1.492263	0.044738
C15	C	-0.000102	-1.488571	0.184181
C16	C	-0.416386	-1.565336	-0.104188
C17	C	-0.583798	-1.565356	-0.104184
N18	N	0.343988	-1.485116	-0.184791
C19	C	-0.000109	-1.714631	-0.177630
C20	C	-0.000110	-1.854074	-0.181322
C21	C	-0.000067	-1.036628	-0.300818
C22	C	-0.000093	-0.905607	-0.297341
C23	C	-0.000116	-0.933570	-0.068772
C24	C	-0.000101	-1.064588	-0.072250
C25	C	-0.000084	-1.477925	-0.414336
C26	C	-0.000077	-1.481616	-0.553779
C27	C	-0.000110	-1.601112	0.263667
C28	C	-0.000092	-1.597636	0.394688
C29	C	-0.000065	-1.369066	0.366725
C30	C	-0.000072	-1.372544	0.235706
H31	H	-0.354268	-1.634028	-0.035174
H32	H	-0.406299	-1.416381	-0.253802
O33	O	0.000128	-1.263130	0.158614
C34	C	0.125379	-1.192782	0.182091
H35	H	0.167125	-1.222751	0.281193
H36	H	0.097229	-1.088111	0.173780
H37	H	0.213060	-1.210595	0.110287
O38	O	-0.000161	-1.141990	0.036962
C39	C	-0.000108	-1.268677	0.009009
H40	H	-0.045874	-1.274553	-0.089684
H41	H	-0.070305	-1.327409	0.080670
H42	H	0.115892	-1.306512	0.013438
H43	H	-0.000043	-1.274601	0.408693
H44	H	-0.645893	-1.634070	-0.035176
H45	H	-0.593927	-1.416407	-0.253812
O46	O	0.000064	-0.883661	0.044006
C47	C	0.125304	-0.924151	0.112666
H48	H	0.167059	-1.015303	0.077647
H49	H	0.097137	-0.941423	0.217096
H50	H	0.212986	-0.848471	0.098778
O51	O	-0.000113	-1.086473	-0.413628
C52	C	-0.000083	-0.988215	-0.512213
H53	H	-0.045871	-0.898924	-0.476228
H54	H	-0.070271	-1.016295	-0.593148
H55	H	0.115914	-0.969971	-0.546983
O56	O	0.000112	-0.828268	-0.406581
C57	C	0.125343	-0.751656	-0.411416
H58	H	0.167071	-0.744159	-0.311668
H59	H	0.097174	-0.653611	-0.457345
H60	H	0.213045	-0.795245	-0.469143
H61	H	-0.000131	-1.695588	0.221720
H62	H	-0.000095	-1.689279	0.459401
