data_functionalizedCrystal
_audit_creation_method	'MofGen! by Chris Wilmer'
_symmetry_space_group_name_H-M	'P1'
_symmetry_Int_Tables_number	1
_symmetry_cell_setting	triclinic
loop_
_symmetry_equiv_pos_as_xyz
  x,y,z
_cell_length_a	21.295417
_cell_length_b	13.033304
_cell_length_c	13.032268
_cell_angle_alpha	90.922231
_cell_angle_beta	97.140648
_cell_angle_gamma	82.801865
loop_
_atom_site_label
_atom_site_type_symbol
_atom_site_fract_x
_atom_site_fract_y
_atom_site_fract_z
Zn1	Zn	-0.195869	-1.498389	-0.781480
Zn2	Zn	-0.286332	-1.520101	-0.609487
Zn3	Zn	-0.192543	-1.348251	-0.587652
Zn4	Zn	-0.312571	-1.326343	-0.759516
O5	O	-0.246829	-1.423271	-0.684534
O6	O	-0.198280	-1.645191	-0.776995
O7	O	-0.261518	-1.515560	-0.462686
O8	O	-0.104892	-1.368250	-0.613418
O9	O	-0.264743	-1.661142	-0.650633
O10	O	-0.107336	-1.478555	-0.755822
O11	O	-0.192611	-1.389302	-0.446644
O12	O	-0.218054	-1.201424	-0.592120
O13	O	-0.309464	-1.330911	-0.906335
O14	O	-0.306238	-1.185328	-0.718388
O15	O	-0.223723	-1.457312	-0.922472
O16	O	-0.377905	-1.494316	-0.629335
O17	O	-0.397182	-1.351963	-0.739561
C18	C	-0.264633	-1.156058	-0.650502
C19	C	-0.272266	-1.041741	-0.635967
C20	C	-0.242853	-0.982869	-0.692106
C21	C	-0.250742	-0.864715	-0.677085
C22	C	-0.410385	-1.423144	-0.684460
C23	C	-0.480351	-1.423179	-0.684475
C24	C	-0.503161	-1.497352	-0.627155
C25	C	-0.568902	-1.497397	-0.627184
C26	C	-0.611831	-1.423252	-0.684520
C27	C	-0.589015	-1.349073	-0.741852
C28	C	-0.523275	-1.349036	-0.741829
N29	N	-0.721771	-1.332286	-0.680901
N30	N	-0.784221	-1.332325	-0.680917
C31	C	-0.809904	-1.423360	-0.684594
N32	N	-0.770775	-1.514360	-0.688234
N33	N	-0.708320	-1.514321	-0.688213
C34	C	-0.683117	-1.423284	-0.684551
C35	C	-0.903997	-1.497588	-0.627303
C36	C	-0.969740	-1.497634	-0.627340
C37	C	-0.989852	-1.349302	-0.742001
C38	C	-0.924110	-1.349264	-0.741970
C39	C	-0.881186	-1.423407	-0.684616
C40	C	-0.082635	-1.423424	-0.684634
C41	C	-0.012665	-1.423490	-0.684677
C42	C	-0.269891	-1.389246	-0.952760
C43	C	-0.279719	-1.374746	-1.067061
C44	C	-0.228952	-0.691528	-0.718692
C45	C	-0.221325	-0.805846	-0.733231
C46	C	-0.241678	-1.430823	-1.126005
C47	C	-0.251835	-1.415838	-1.244142
C48	C	-0.223807	-1.457223	-0.417359
C49	C	-0.213788	-1.471922	-0.303084
H50	H	-0.211828	-1.019940	-0.751284
Br51	Br	-0.599868	-1.598068	-0.549388
H52	H	-0.281765	-0.827650	-0.617896
H53	H	-0.869047	-1.557962	-0.580605
Br54	Br	-0.146974	-1.570454	-1.241441
Br55	Br	-0.647275	-1.248454	-0.819674
Br56	Br	-0.169605	-0.867614	-0.831870
H57	H	-0.303287	-1.004670	-0.576783
Br58	Br	-0.346533	-1.276225	-1.128712
Br59	Br	-0.492317	-1.248366	-0.819628
H60	H	-0.988309	-1.558041	-0.580666
H61	H	-0.468214	-1.557725	-0.580457
H62	H	-1.024804	-1.288936	-0.788690
Br63	Br	-0.893151	-1.248593	-0.819763
Br64	Br	-0.174843	-1.529305	-1.064349
H65	H	-0.291921	-1.356724	-1.281133
