data_functionalizedCrystal
_audit_creation_method	'MofGen! by Chris Wilmer'
_symmetry_space_group_name_H-M	'P1'
_symmetry_Int_Tables_number	1
_symmetry_cell_setting	triclinic
loop_
_symmetry_equiv_pos_as_xyz
  x,y,z
_cell_length_a	10.654550
_cell_length_b	26.210047
_cell_length_c	10.654550
_cell_angle_alpha	90.005724
_cell_angle_beta	95.515097
_cell_angle_gamma	90.012641
loop_
_atom_site_label
_atom_site_type_symbol
_atom_site_fract_x
_atom_site_fract_y
_atom_site_fract_z
O1	O	1.667851	0.042470	-0.176381
O2	O	1.302373	0.042461	-0.193187
O3	O	1.493515	0.042464	-0.002045
O4	O	1.476709	0.042467	-0.367523
O5	O	1.493478	-0.042394	-0.002074
O6	O	1.302336	-0.042397	-0.193217
O7	O	1.667814	-0.042388	-0.176410
Cu8	Cu	1.485072	-0.050141	-0.184816
Cu9	Cu	1.485116	0.050214	-0.184781
O10	O	1.476672	-0.042391	-0.367553
C11	C	1.255556	0.000031	-0.191968
C12	C	1.116113	0.000028	-0.188276
N13	N	1.485050	-0.120725	-0.184840
C14	C	1.036627	0.000036	-0.300817
C15	C	0.905607	0.000045	-0.297341
C16	C	0.933570	0.000039	-0.068771
C17	C	1.064588	0.000027	-0.072249
C18	C	1.020482	0.000042	-0.432780
C19	C	0.889461	0.000051	-0.429304
C20	C	1.569745	-0.473238	-0.100162
C21	C	1.569772	-0.686896	-0.100145
O22	O	1.641734	-0.714517	-0.028154
N23	N	1.485122	-0.713619	-0.184754
C24	C	1.400453	-0.686923	-0.269367
O25	O	1.328445	-0.714555	-0.341322
C26	C	1.400421	-0.473266	-0.269377
C27	C	1.485085	-0.446546	-0.184771
C28	C	1.654401	-0.446518	-0.015563
C29	C	1.654398	-0.393107	-0.015573
C30	C	1.569739	-0.366415	-0.100182
C31	C	1.485082	-0.393134	-0.184781
C32	C	1.315747	-0.446571	-0.353983
C33	C	1.315744	-0.393153	-0.353976
C34	C	1.400408	-0.366434	-0.269370
C35	C	1.400419	-0.313031	-0.269400
N36	N	1.485069	-0.286309	-0.184792
C37	C	1.569729	-0.313001	-0.100183
C38	C	1.400478	-0.799096	-0.269357
C39	C	1.400487	-0.852511	-0.269356
C40	C	1.569805	-0.852480	-0.100133
C41	C	1.569801	-0.799065	-0.100141
C42	C	1.485128	-0.772374	-0.184749
C43	C	1.569717	-0.200833	-0.100210
C44	C	1.569710	-0.147417	-0.100231
C45	C	1.400388	-0.147452	-0.269449
C46	C	1.400399	-0.200863	-0.269434
C47	C	1.485068	-0.227552	-0.184804
O48	O	1.328485	-0.285377	-0.341344
O49	O	1.641708	-0.285360	-0.028219
C50	C	1.569748	-0.526649	-0.100153
C51	C	1.485091	-0.553369	-0.184752
C52	C	1.400432	-0.526677	-0.269361
C53	C	1.485101	-0.606783	-0.184751
C54	C	1.569760	-0.633475	-0.100142
C55	C	1.654411	-0.606752	-0.015534
C56	C	1.654408	-0.553341	-0.015544
C57	C	1.315781	-0.553399	-0.353969
C58	C	1.315792	-0.606811	-0.353954
C59	C	1.400452	-0.633503	-0.269345
C60	C	1.714631	0.000043	-0.177630
C61	C	1.854074	0.000049	-0.181321
C62	C	1.492263	0.000035	0.044739
C63	C	1.488571	0.000037	0.184182
N64	N	1.485147	0.120798	-0.184747
C65	C	1.477925	0.000039	-0.414336
C66	C	1.481616	0.000040	-0.553779
C67	C	1.601112	0.000038	0.263668
C68	C	1.597636	0.000041	0.394688
C69	C	1.369066	0.000041	0.366725
C70	C	1.372544	0.000041	0.235707
C71	C	1.733075	0.000036	0.279813
C72	C	1.729599	0.000040	0.410834
H73	H	0.891602	0.000046	0.025694
C74	C	1.747536	-0.636120	0.077540
C75	C	1.697619	-0.672840	0.174041
C76	C	1.790733	-0.702211	0.267115
C77	C	1.933764	-0.694860	0.263688
C78	C	1.983689	-0.658138	0.167183
C79	C	1.890575	-0.628768	0.074109
H80	H	1.591732	-0.678283	0.176582
H81	H	1.753775	-0.729395	0.338555
H82	H	2.002693	-0.716602	0.332587
H83	H	2.089575	-0.652696	0.164643
H84	H	1.927533	-0.601584	0.002670
C85	C	1.307275	-0.230256	-0.362507
C86	C	1.164249	-0.222919	-0.359068
C87	C	1.071112	-0.252306	-0.452135
C88	C	1.121002	-0.289031	-0.548640
C89	C	1.264035	-0.296370	-0.552083
C90	C	1.357172	-0.266982	-0.459016
H91	H	1.127311	-0.195732	-0.287626
H92	H	0.965230	-0.246873	-0.449586
H93	H	1.052057	-0.310785	-0.617534
H94	H	1.300973	-0.323557	-0.623525
H95	H	1.463055	-0.272415	-0.461565
C96	C	1.307260	-0.118086	-0.362514
C97	C	1.214129	-0.147472	-0.455577
C98	C	1.120992	-0.118105	-0.548634
C99	C	1.120986	-0.059351	-0.548629
C100	C	1.214121	-0.029962	-0.455563
C101	C	1.307258	-0.059329	-0.362505
H102	H	1.214130	-0.190968	-0.455584
H103	H	1.052048	-0.139861	-0.617528
H104	H	1.052041	-0.037612	-0.617516
H105	H	1.214120	0.013534	-0.455555
H106	H	1.376202	-0.037572	-0.293611
C107	C	1.747517	-0.363718	0.077506
C108	C	1.744159	-0.371061	0.220542
C109	C	1.837277	-0.341676	0.313630
C110	C	1.933755	-0.304947	0.263682
C111	C	1.937118	-0.297602	0.120639
C112	C	1.843999	-0.326987	0.027551
H113	H	1.672736	-0.398252	0.257523
H114	H	1.834788	-0.347113	0.419520
H115	H	2.002688	-0.283194	0.332591
H116	H	2.008540	-0.270411	0.083658
H117	H	1.846489	-0.321550	-0.078339
C118	C	1.802813	0.048010	0.240154
C119	C	1.855515	0.086687	0.340557
C120	C	1.925249	0.134660	0.300896
C121	C	1.942282	0.143955	0.160833
C122	C	1.889579	0.105277	0.060421
C123	C	1.819845	0.057304	0.100081
H124	H	1.842908	0.079807	0.444248
H125	H	1.964263	0.163292	0.375229
H126	H	1.993903	0.179468	0.131474
H127	H	1.902186	0.112157	-0.043270
H128	H	1.780831	0.028672	0.025749
H129	H	1.129302	0.000013	0.019393
C130	C	1.222606	-0.475955	-0.447042
C131	C	1.079583	-0.468619	-0.443580
C132	C	0.986434	-0.498003	-0.536641
C133	C	1.036309	-0.534723	-0.633165
C134	C	1.179339	-0.542061	-0.636630
C135	C	1.272488	-0.512677	-0.543569
H136	H	1.042656	-0.441434	-0.372124
H137	H	0.880553	-0.492570	-0.534075
H138	H	0.967355	-0.556475	-0.702054
H139	H	1.216266	-0.569245	-0.708086
H140	H	1.378369	-0.518110	-0.546135
C141	C	1.789832	-0.049457	0.231653
C142	C	1.834880	-0.091867	0.325373
C143	C	1.891636	-0.141360	0.277212
C144	C	1.903344	-0.148442	0.135331
C145	C	1.858295	-0.106031	0.041602
C146	C	1.801539	-0.056538	0.089764
H147	H	1.826214	-0.086625	0.430410
H148	H	1.924984	-0.172756	0.346596
H149	H	1.945358	-0.185080	0.099679
H150	H	1.866961	-0.111273	-0.063434
H151	H	1.768191	-0.025142	0.020379
H152	H	1.769496	0.036680	0.456490
C153	C	1.747533	-0.523953	0.077531
C154	C	1.697634	-0.487234	0.174044
C155	C	1.790763	-0.457851	0.267126
C156	C	1.933791	-0.465186	0.263695
C157	C	1.983697	-0.501906	0.167178
C158	C	1.890568	-0.531290	0.074096
H159	H	1.591750	-0.481803	0.176587
H160	H	1.753818	-0.430668	0.338574
H161	H	2.002730	-0.443434	0.332600
H162	H	2.089581	-0.507338	0.164635
H163	H	1.927513	-0.558473	0.002648
H164	H	1.049798	-0.035472	-0.484403
H165	H	1.056153	0.036679	-0.474786
H166	H	0.847744	0.035567	-0.479013
H167	H	0.843774	-0.036584	-0.469197
H168	H	1.246789	-0.371424	-0.422872
H169	H	1.638658	-0.125663	-0.031335
H170	H	1.638661	-0.222557	-0.031296
H171	H	1.246851	-0.628562	-0.422860
H172	H	1.723341	-0.468246	0.053341
H173	H	1.638741	-0.777313	-0.031247
H174	H	1.331525	-0.777368	-0.338258
H175	H	1.638740	-0.874222	-0.031243
H176	H	1.331559	-0.874262	-0.338263
H177	H	1.246839	-0.531671	-0.422867
H178	H	1.280902	0.000047	0.170993
H179	H	1.274601	0.000044	0.408693
H180	H	1.779305	-0.035471	0.452582
