data_functionalizedCrystal
_audit_creation_method	'MofGen! by Chris Wilmer'
_symmetry_space_group_name_H-M	'P1'
_symmetry_Int_Tables_number	1
_symmetry_cell_setting	triclinic
loop_
_symmetry_equiv_pos_as_xyz
  x,y,z
_cell_length_a	12.645330
_cell_length_b	17.077404
_cell_length_c	12.645324
_cell_angle_alpha	90.022675
_cell_angle_beta	89.968234
_cell_angle_gamma	89.982083
loop_
_atom_site_label
_atom_site_type_symbol
_atom_site_fract_x
_atom_site_fract_y
_atom_site_fract_z
Zn1	Zn	-0.421952	-1.200108	-0.599438
Zn2	Zn	-0.599262	-1.200019	-0.422178
Zn3	Zn	-0.422013	-1.068832	-0.422183
Zn4	Zn	-0.599175	-1.068819	-0.599395
O5	O	-0.510601	-1.134445	-0.510799
O6	O	-0.445484	-1.309943	-0.575940
O7	O	-0.575811	-1.182585	-0.273832
O8	O	-0.273658	-1.086288	-0.445717
O9	O	-0.575752	-1.309878	-0.445708
O10	O	-0.273613	-1.182736	-0.575945
O11	O	-0.445588	-1.086203	-0.273835
O12	O	-0.445504	-0.958983	-0.445675
O13	O	-0.575604	-1.086267	-0.747748
O14	O	-0.575663	-0.958974	-0.575871
O15	O	-0.445400	-1.182723	-0.747780
O16	O	-0.747598	-1.182573	-0.445666
O17	O	-0.747534	-1.086181	-0.575866
C18	C	-0.510581	-0.930497	-0.510769
C19	C	-0.510599	-0.843247	-0.510782
C20	C	-0.786030	-1.134387	-0.510784
C21	C	-0.903860	-1.134435	-0.510813
C22	C	-0.510485	-1.134503	-0.787304
C23	C	-0.510436	-1.134528	-0.905134
C24	C	-1.071428	-1.074044	-0.592974
C25	C	-0.948869	-1.073735	-0.592710
C26	C	-0.948468	-1.112038	-0.399091
C27	C	-1.071066	-1.111670	-0.399590
C28	C	-1.070946	-1.217590	-0.539467
C29	C	-0.948339	-1.217081	-0.541910
C30	C	-0.234095	-1.134523	-0.510837
C31	C	-0.116265	-1.134557	-0.510853
C32	C	-0.510621	-1.339189	-0.510829
C33	C	-0.510629	-1.426439	-0.510841
C34	C	-0.578475	-0.802272	-0.578466
C35	C	-0.578478	-0.720292	-0.578483
C36	C	-0.510608	-0.679287	-0.510810
C37	C	-0.442724	-0.720268	-0.443122
C38	C	-0.442717	-0.802247	-0.443111
C39	C	-0.442745	-0.549398	-0.443148
C40	C	-0.442753	-0.467413	-0.443157
C41	C	-0.578505	-0.467443	-0.578520
C42	C	-0.578498	-0.549422	-0.578509
C43	C	-0.510616	-0.590396	-0.510820
C44	C	-0.428762	-1.195446	-1.072719
C45	C	-0.428467	-1.195251	-0.950159
C46	C	-0.480079	-1.051831	-0.949613
C47	C	-0.479459	-1.052201	-1.072211
C48	C	-0.622588	-1.155637	-1.072332
C49	C	-0.622024	-1.157447	-0.949726
C50	C	-0.510639	-1.134431	-0.235369
C51	C	-0.510389	-1.134558	-0.117539
H52	H	-0.918705	-1.087748	-0.675551
C53	C	-1.111157	-1.092794	-0.705258
N54	N	-1.141091	-1.106917	-0.789832
H55	H	-0.644915	-1.218305	-0.920655
C56	C	-0.653139	-0.847370	-0.652914
N57	N	-0.709375	-0.881335	-0.708993
C58	C	-1.113163	-0.991400	-0.567684
N59	N	-1.144594	-0.929152	-0.548628
C60	C	-0.708609	-1.101884	-0.908328
N61	N	-0.773823	-1.060027	-0.877149
H62	H	-0.387458	-0.582757	-0.388038
C63	C	-1.112594	-1.245188	-0.647660
N64	N	-1.143963	-1.265965	-0.729156
C65	C	-1.110123	-1.278497	-0.458669
N66	N	-1.139639	-1.324367	-0.397810
H67	H	-0.397443	-1.034333	-1.100821
H68	H	-0.633750	-0.686934	-0.633598
C69	C	-0.659881	-1.235714	-1.114112
N70	N	-0.687959	-1.296032	-1.145581
H71	H	-0.919637	-1.012178	-0.573753
H72	H	-1.100731	-1.153832	-0.336316
H73	H	-1.099761	-1.050972	-0.375350
H74	H	-0.683409	-1.111294	-1.101325
H75	H	-0.387459	-0.686875	-0.388026
C76	C	-0.556277	-0.988824	-1.112267
N77	N	-0.614129	-0.941086	-1.142432
C78	C	-0.909080	-1.169688	-0.314167
N79	N	-0.879408	-1.213109	-0.250203
H80	H	-0.387439	-0.835607	-0.388001
H81	H	-0.345353	-1.181294	-0.920845
H82	H	-0.633770	-0.582805	-0.633609
C83	C	-0.454104	-1.278102	-0.909531
N84	N	-0.473399	-1.340511	-0.878936
C85	C	-0.907130	-1.030888	-0.365755
N86	N	-0.875997	-0.969764	-0.340652
H87	H	-0.537706	-1.005230	-0.920446
H88	H	-0.919178	-1.233971	-0.624132
H89	H	-0.917695	-1.264540	-0.486453
C90	C	-0.370506	-1.027254	-0.908164
N91	N	-0.287972	-1.008748	-0.876948
H92	H	-0.633775	-0.434077	-0.633638
C93	C	-0.368089	-0.422310	-0.368716
N94	N	-0.311850	-0.388338	-0.312647
H95	H	-0.447534	-1.256971	-1.102211
C96	C	-0.317096	-1.176832	-1.114353
N97	N	-0.232990	-1.162810	-1.145713
