data_functionalizedCrystal
_audit_creation_method	'MofGen! by Chris Wilmer'
_symmetry_space_group_name_H-M	'P1'
_symmetry_Int_Tables_number	1
_symmetry_cell_setting	triclinic
loop_
_symmetry_equiv_pos_as_xyz
  x,y,z
_cell_length_a	31.640172
_cell_length_b	31.640172
_cell_length_c	14.395555
_cell_angle_alpha	60.005570
_cell_angle_beta	60.002225
_cell_angle_gamma	60.016955
loop_
_atom_site_label
_atom_site_type_symbol
_atom_site_fract_x
_atom_site_fract_y
_atom_site_fract_z
Zr1	Zr	0.407149	0.055538	0.894839
Zr2	Zr	0.907149	0.555538	1.394839
O3	O	0.427846	0.123019	0.746517
O4	O	0.927846	0.623019	1.246517
O5	O	0.339664	0.034841	0.940314
O6	O	0.839664	0.534841	1.440314
O7	O	0.339680	0.123006	0.940318
O8	O	0.839680	0.623006	1.440318
O9	O	0.497366	-0.034680	0.746503
O10	O	0.997366	0.465320	1.246503
O11	O	0.339681	0.123007	1.093185
O12	O	0.839681	0.623007	1.593185
O13	O	0.427830	0.034854	0.746513
O14	O	0.927830	0.534854	1.246513
O15	O	0.339653	-0.034703	1.093177
O16	O	0.839653	0.465297	1.593177
O17	O	0.497394	0.123031	0.746511
O18	O	0.997394	0.623031	1.246511
O19	O	0.384751	0.026028	1.073784
O20	O	0.884751	0.526028	1.573784
O21	O	0.436644	-0.025865	0.959694
O22	O	0.936644	0.474135	1.459694
O23	O	0.436662	0.077937	0.959699
O24	O	0.936662	0.577937	1.459699
O25	O	0.488555	0.026043	0.845608
O26	O	0.988555	0.526043	1.345608
Zr27	Zr	0.518053	-0.055358	1.138629
Zr28	Zr	1.018053	0.444642	1.638629
Zr29	Zr	0.407151	0.055541	1.138645
Zr30	Zr	0.907151	0.555541	1.638645
Zr31	Zr	0.518050	-0.055360	0.894824
Zr32	Zr	1.018050	0.444640	1.394824
Zr33	Zr	0.518070	0.055557	0.894829
Zr34	Zr	1.018070	0.555557	1.394829
Zr35	Zr	0.407131	-0.055377	1.138639
Zr36	Zr	0.907131	0.444623	1.638639
O37	O	0.585537	-0.034661	1.093155
O38	O	1.085537	0.465339	1.593155
O39	O	0.427849	0.123022	1.093177
O40	O	0.927849	0.623022	1.593177
O41	O	0.585533	-0.034665	0.746495
O42	O	1.085533	0.465335	1.246495
O43	O	0.497356	-0.122838	1.286951
O44	O	0.997356	0.377162	1.786951
O45	O	0.339668	0.034845	1.286974
O46	O	0.839668	0.534845	1.786974
O47	O	0.497352	-0.122842	0.940291
O48	O	0.997352	0.377158	1.440291
O49	O	0.427835	0.034860	1.286966
O50	O	0.927835	0.534860	1.786966
O51	O	0.585521	-0.122825	1.093150
O52	O	1.085521	0.377175	1.593150
O53	O	0.585520	-0.122827	0.940283
O54	O	1.085520	0.377173	1.440283
O55	O	0.497371	-0.034674	1.286956
O56	O	0.997371	0.465326	1.786956
O57	O	0.497396	0.123033	0.940303
O58	O	0.997396	0.623033	1.440303
O59	O	0.427805	-0.122852	1.093165
O60	O	0.927805	0.377148	1.593165
O61	O	0.427807	-0.122850	1.286958
O62	O	0.927807	0.377150	1.786958
O63	O	0.339655	-0.034701	1.286970
O64	O	0.839655	0.465299	1.786970
O65	O	0.585546	0.034881	0.746498
O66	O	1.085546	0.534881	1.246498
O67	O	0.585548	0.034883	0.940291
O68	O	1.085548	0.534883	1.440291
O69	O	0.488539	-0.077757	1.073769
O70	O	0.988539	0.422243	1.573769
O71	O	0.436646	-0.025863	1.187860
O72	O	0.936646	0.474137	1.687860
O73	O	0.488557	0.026046	1.073775
O74	O	0.988557	0.526046	1.573775
O75	O	0.540450	-0.025848	0.959684
O76	O	1.040450	0.474152	1.459684
C77	C	0.323855	0.000066	1.016747
C78	C	0.823855	0.500066	1.516747
C79	C	0.276766	0.000058	1.016751
C80	C	0.776766	0.500058	1.516751
C81	C	0.462576	-0.138651	1.016727
C82	C	0.962576	0.361349	1.516727
C83	C	0.462568	-0.185738	1.016725
C84	C	0.962568	0.314262	1.516725
C85	C	-0.015265	0.038412	0.932523
C86	C	0.484735	0.538412	1.432523
C87	C	-0.192260	0.038426	0.932514
C88	C	0.307740	0.538426	1.432514
O89	O	-0.215154	0.071024	0.860921
O90	O	0.284846	0.571024	1.360921
N91	N	-0.214397	0.000114	1.016727
N92	N	0.285603	0.500114	1.516727
C93	C	-0.192284	-0.038204	1.100952
C94	C	0.307716	0.461796	1.600952
O95	O	-0.215176	-0.070787	1.172586
O96	O	0.284824	0.429213	1.672586
C97	C	-0.015291	-0.038215	1.100964
C98	C	0.484709	0.461785	1.600964
C99	C	0.006846	0.000097	1.016739
C100	C	0.506846	0.500097	1.516739
C101	C	0.006872	0.076721	0.848305
C102	C	0.506872	0.576721	1.348305
C103	C	0.051120	0.076716	0.848305
C104	C	0.551120	0.576716	1.348305
C105	C	0.073231	0.038401	0.932522
C106	C	0.573231	0.538401	1.432522
C107	C	0.051094	0.000091	1.016739
C108	C	0.551094	0.500091	1.516739
C109	C	0.006819	-0.076530	1.185193
C110	C	0.506819	0.423470	1.685193
C111	C	0.051069	-0.076529	1.185190
C112	C	0.551069	0.423471	1.685190
C113	C	0.073206	-0.038216	1.100966
C114	C	0.573206	0.461784	1.600966
C115	C	0.117453	-0.038229	1.100955
C116	C	0.617453	0.461771	1.600955
N117	N	0.139589	0.000083	1.016742
N118	N	0.639589	0.500083	1.516742
C119	C	0.117478	0.038398	0.932526
C120	C	0.617478	0.538398	1.432526
C121	C	-0.285207	-0.038195	1.100938
C122	C	0.214793	0.461805	1.600938
C123	C	-0.329454	-0.038193	1.100934
C124	C	0.170546	0.461807	1.600934
C125	C	-0.329428	0.038438	0.932497
C126	C	0.170572	0.538438	1.432497
C127	C	-0.285178	0.038433	0.932497
C128	C	0.214822	0.538433	1.432497
C129	C	-0.263070	0.000117	1.016725
C130	C	0.236930	0.500117	1.516725
C131	C	0.210402	0.038384	0.932530
C132	C	0.710402	0.538384	1.432530
C133	C	0.254655	0.038373	0.932534
C134	C	0.754655	0.538373	1.432534
C135	C	0.254624	-0.038255	1.100974
C136	C	0.754624	0.461745	1.600974
C137	C	0.210376	-0.038247	1.100967
C138	C	0.710376	0.461753	1.600967
C139	C	0.188265	0.000077	1.016740
C140	C	0.688265	0.500077	1.516740
O141	O	0.140370	-0.070806	1.172518
O142	O	0.640370	0.429194	1.672518
O143	O	0.140372	0.070984	0.860916
O144	O	0.640372	0.570984	1.360916
C145	C	-0.059513	0.038418	0.932523
C146	C	0.440487	0.538418	1.432523
C147	C	-0.081650	0.000108	1.016740
C148	C	0.418350	0.500108	1.516740
C149	C	-0.059539	-0.038207	1.100957
C150	C	0.440461	0.461793	1.600957
C151	C	-0.125897	0.000110	1.016736
C152	C	0.374103	0.500110	1.516736
C153	C	-0.148008	0.038425	0.932520
C154	C	0.351992	0.538425	1.432520
C155	C	-0.125871	0.076738	0.848307
C156	C	0.374129	0.576738	1.348307
C157	C	-0.081624	0.076733	0.848306
C158	C	0.418376	0.576733	1.348306
C159	C	-0.081675	-0.076520	1.185170
C160	C	0.418325	0.423480	1.685170
C161	C	-0.125923	-0.076511	1.185163
C162	C	0.374077	0.423489	1.685163
C163	C	-0.148034	-0.038196	1.100946
C164	C	0.351966	0.461804	1.600946
C165	C	0.435518	-0.494957	0.957165
C166	C	0.935518	0.005043	1.457165
C167	C	0.435498	-0.317958	0.957168
C168	C	0.935498	0.182042	1.457168
O169	O	0.412475	-0.272037	0.906490
O170	O	0.912475	0.227963	1.406490
N171	N	0.462585	-0.322910	1.016716
N172	N	0.962585	0.177090	1.516716
C173	C	0.489681	-0.372118	1.076261
C174	C	0.989681	0.127882	1.576261
O175	O	0.512724	-0.372269	1.126901
O176	O	1.012724	0.127731	1.626901
C177	C	0.489703	-0.549116	1.076251
C178	C	0.989703	-0.049116	1.576251
C179	C	0.462610	-0.544159	1.016708
C180	C	0.962610	-0.044159	1.516708
C181	C	0.408428	-0.490002	0.897626
C182	C	0.908428	0.009998	1.397626
C183	C	0.408431	-0.534250	0.897631
C184	C	0.908431	-0.034250	1.397631
C185	C	0.435523	-0.583452	0.957175
C186	C	0.935523	-0.083452	1.457175
C187	C	0.462613	-0.588406	1.016713
C188	C	0.962613	-0.088406	1.516713
C189	C	0.516802	-0.598322	1.135789
C190	C	1.016802	-0.098322	1.635789
C191	C	0.516806	-0.642572	1.135778
C192	C	1.016806	-0.142572	1.635778
C193	C	0.489713	-0.637615	1.076236
C194	C	0.989713	-0.137615	1.576236
C195	C	0.489709	-0.681856	1.076262
C196	C	0.989709	-0.181856	1.576262
N197	N	0.462622	-0.676903	1.016714
N198	N	0.962622	-0.176903	1.516714
C199	C	0.435530	-0.627701	0.957170
C200	C	0.935530	-0.127701	1.457170
C201	C	0.489667	-0.279189	1.076264
C202	C	0.989667	0.220811	1.576264
C203	C	0.489660	-0.234940	1.076268
C204	C	0.989660	0.265060	1.576268
C205	C	0.435478	-0.180783	0.957173
C206	C	0.935478	0.319217	1.457173
C207	C	0.435482	-0.225033	0.957176
C208	C	0.935482	0.274967	1.457176
C209	C	0.462580	-0.274236	1.016716
C210	C	0.962580	0.225764	1.516716
C211	C	0.435537	-0.720626	0.957186
C212	C	0.935537	-0.220626	1.457186
C213	C	0.435541	-0.764880	0.957200
C214	C	0.935541	-0.264880	1.457200
C215	C	0.489725	-0.819033	1.076290
C216	C	0.989725	-0.319033	1.576290
C217	C	0.489719	-0.774783	1.076281
C218	C	0.989719	-0.274783	1.576281
C219	C	0.462624	-0.725578	1.016721
C220	C	0.962624	-0.225578	1.516721
O221	O	0.512725	-0.727791	1.126902
O222	O	1.012725	-0.227791	1.626902
O223	O	0.412500	-0.627561	0.906517
O224	O	0.912500	-0.127561	1.406517
C225	C	0.435515	-0.450709	0.957160
C226	C	0.935515	0.049291	1.457160
C227	C	0.462605	-0.455664	1.016698
C228	C	0.962605	0.044336	1.516698
C229	C	0.489698	-0.504866	1.076242
C230	C	0.989698	-0.004866	1.576242
C231	C	0.462599	-0.411415	1.016703
C232	C	0.962599	0.088585	1.516703
C233	C	0.435506	-0.362213	0.957159
C234	C	0.935506	0.137787	1.457159
C235	C	0.408419	-0.357260	0.897611
C236	C	0.908419	0.142740	1.397611
C237	C	0.408422	-0.401507	0.897616
C238	C	0.908422	0.098493	1.397616
C239	C	0.516784	-0.509819	1.135790
C240	C	1.016784	-0.009819	1.635790
C241	C	0.516779	-0.465569	1.135781
C242	C	1.016779	0.034431	1.635781
C243	C	0.489686	-0.416367	1.076238
C244	C	0.989686	0.083633	1.576238
C245	C	0.601346	0.000114	1.016721
C246	C	1.101346	0.500114	1.516721
C247	C	0.648435	0.000122	1.016717
C248	C	1.148435	0.500122	1.516717
C249	C	0.462598	0.000087	0.711771
C250	C	0.962598	0.500087	1.211771
C251	C	0.462597	0.000086	0.608269
C252	C	0.962597	0.500086	1.108269
C253	C	0.462625	0.138831	1.016741
C254	C	0.962625	0.638831	1.516741
C255	C	0.462633	0.185918	1.016743
C256	C	0.962633	0.685918	1.516743
C257	C	0.434291	-0.028216	0.609884
C258	C	0.934291	0.471784	1.109884
C259	C	0.483093	-0.048719	0.516863
C260	C	0.983093	0.451281	1.016863
C261	C	0.413812	0.020574	0.516862
C262	C	0.913812	0.520574	1.016862
C263	C	0.511427	-0.020445	0.516611
C264	C	1.011427	0.479555	1.016611
C265	C	0.442110	0.048874	0.516623
C266	C	0.942110	0.548874	1.016623
C267	C	0.490941	0.028384	0.423585
C268	C	0.990941	0.528384	0.923585
C269	C	0.462604	0.000093	1.321698
C270	C	0.962604	0.500093	1.821698
C271	C	0.462605	0.000095	1.425200
C272	C	0.962605	0.500095	1.925200
C273	C	0.323879	0.138807	1.016754
C274	C	0.823879	0.638807	1.516754
C275	C	0.276799	0.185886	1.016760
C276	C	0.776799	0.685886	1.516760
C277	C	0.323858	0.000070	1.321710
C278	C	0.823858	0.500070	1.821710
C279	C	0.276770	0.000063	1.425217
C280	C	0.776770	0.500063	1.925217
C281	C	0.462579	-0.138647	1.321691
C282	C	0.962579	0.361353	1.821691
C283	C	0.462572	-0.185734	1.425190
C284	C	0.962572	0.314266	1.925190
C285	C	0.462622	0.138828	0.711777
C286	C	0.962622	0.638828	1.211777
C287	C	0.462629	0.185914	0.608278
C288	C	0.962629	0.685914	1.108278
C289	C	0.601343	0.000111	0.711758
C290	C	1.101343	0.500111	1.211758
C291	C	0.648431	0.000118	0.608252
C292	C	1.148431	0.500118	1.108252
C293	C	0.601322	-0.138627	1.016715
C294	C	1.101322	0.361373	1.516715
C295	C	0.648402	-0.185706	1.016708
C296	C	1.148402	0.314294	1.516708
C297	C	0.281786	0.235096	0.957212
C298	C	0.781786	0.735096	1.457212
C299	C	0.237553	0.279336	0.957223
C300	C	0.737553	0.779336	1.457223
C301	C	0.188333	0.274366	1.016776
C302	C	0.688333	0.774366	1.516776
C303	C	0.183347	0.225151	1.076332
C304	C	0.683347	0.725151	1.576332
C305	C	0.227579	0.180912	1.076327
C306	C	0.727579	0.680912	1.576327
C307	C	0.227564	0.027151	1.414278
C308	C	0.727564	0.527151	1.914278
C309	C	0.183315	0.027155	1.511524
C310	C	0.683315	0.527155	2.011524
C311	C	0.188274	0.000067	1.619707
C312	C	0.688274	0.500067	2.119707
C313	C	0.237486	-0.027022	1.630643
C314	C	0.737486	0.472978	2.130643
C315	C	0.281733	-0.027022	1.533399
C316	C	0.781733	0.472978	2.033399
C317	C	0.435481	-0.180758	1.533359
C318	C	0.935481	0.319242	2.033359
C319	C	0.435476	-0.224996	1.630617
C320	C	0.935476	0.275004	2.130617
C321	C	0.462559	-0.274210	1.619704
C322	C	0.962559	0.225790	2.119704
C323	C	0.489653	-0.279184	1.511524
C324	C	0.989653	0.220816	2.011524
C325	C	0.489661	-0.234946	1.414268
C326	C	0.989661	0.265054	1.914268
C327	C	0.489726	0.180938	0.500109
C328	C	0.989726	0.680938	1.000109
C329	C	0.489744	0.225176	0.402851
C330	C	0.989744	0.725176	0.902851
C331	C	0.462663	0.274390	0.413764
C332	C	0.962663	0.774390	0.913764
C333	C	0.435566	0.279365	0.521944
C334	C	0.935566	0.779365	1.021944
C335	C	0.435551	0.235127	0.619200
C336	C	0.935551	0.735127	1.119200
C337	C	0.697637	-0.026966	0.619191
C338	C	1.197637	0.473034	1.119191
C339	C	0.741886	-0.026957	0.521945
C340	C	1.241886	0.473043	1.021945
C341	C	0.736927	0.000132	0.413761
C342	C	1.236927	0.500132	0.913761
C343	C	0.687715	0.027218	0.402825
C344	C	1.187715	0.527218	0.902825
C345	C	0.643468	0.027213	0.500069
C346	C	1.143468	0.527213	1.000069
C347	C	0.697614	-0.180719	0.957143
C348	C	1.197614	0.319281	1.457143
C349	C	0.741855	-0.224951	0.957114
C350	C	1.241855	0.275049	1.457114
C351	C	0.736884	-0.274169	1.016657
C352	C	1.236884	0.225831	1.516657
C353	C	0.687668	-0.279155	1.076223
C354	C	1.187668	0.220845	1.576223
C355	C	0.643427	-0.234924	1.076245
C356	C	1.143427	0.265076	1.576245
H357	H	0.272679	0.069571	0.863941
H358	H	0.772679	0.569571	1.363941
Cl359	Cl	0.121466	0.218911	1.151183
Cl360	Cl	0.621466	0.718911	1.651183
H361	H	0.462549	-0.310227	1.698905
H362	H	0.962549	0.189773	2.198905
Cl363	Cl	0.243834	0.341199	0.882342
Cl364	Cl	0.743834	0.841199	1.382342
Cl365	Cl	0.703885	-0.061022	0.755181
Cl366	Cl	1.203885	0.438978	1.255181
H367	H	0.413417	-0.140714	0.908694
H368	H	0.913417	0.359286	1.408694
H369	H	0.424765	0.090122	0.517597
H370	H	0.924765	0.590122	1.017597
H371	H	0.223511	0.140845	1.124814
H372	H	0.723511	0.640845	1.624814
Cl373	Cl	0.182613	0.086562	0.826642
Cl374	Cl	0.682613	0.586562	1.326642
Cl375	Cl	0.523714	-0.241179	1.151141
Cl376	Cl	1.023714	0.258821	1.651141
Cl377	Cl	0.550847	-0.571670	1.210653
Cl378	Cl	1.050847	-0.071670	1.710653
Cl379	Cl	0.401479	0.241391	0.755180
Cl380	Cl	0.901479	0.741391	1.255180
Cl381	Cl	0.581563	-0.241202	1.151142
Cl382	Cl	1.081563	0.258798	1.651142
H383	H	0.223516	0.049215	1.326198
H384	H	0.723516	0.549215	1.826198
H385	H	0.069136	0.107918	0.779729
H386	H	0.569136	0.607918	1.279729
H387	H	0.143250	0.049213	1.502597
H388	H	0.643250	0.549213	2.002597
Cl389	Cl	0.523810	0.218911	0.266868
Cl390	Cl	1.023810	0.718911	0.766868
Cl391	Cl	0.132643	0.000072	1.741948
Cl392	Cl	0.632643	0.500072	2.241948
H393	H	0.241516	-0.049075	1.718739
H394	H	0.741516	0.450925	2.218739
Cl395	Cl	0.343591	-0.061084	1.547171
Cl396	Cl	0.843591	0.438916	2.047171
H397	H	0.500427	-0.089976	0.515933
H398	H	1.000427	0.410024	1.015933
H399	H	0.511704	-0.319260	1.502655
H400	H	1.011704	0.180740	2.002655
H401	H	0.511780	-0.859100	1.124775
H402	H	1.011780	-0.359100	1.624775
Cl403	Cl	-0.053801	0.124899	0.742418
Cl404	Cl	0.446199	0.624899	1.242418
H405	H	0.372552	0.037898	0.515956
H406	H	0.872552	0.537898	1.015956
H407	H	0.781951	-0.049017	0.530872
H408	H	1.281951	0.450983	1.030872
H409	H	-0.011127	0.107925	0.779724
H410	H	0.488873	0.607925	1.279724
Cl411	Cl	0.523735	-0.341042	1.151126
Cl412	Cl	1.023735	0.158958	1.651126
Cl413	Cl	0.792558	0.000132	0.291521
Cl414	Cl	1.292558	0.500132	0.791521
Cl415	Cl	0.182549	-0.086414	1.206844
Cl416	Cl	0.682549	0.413586	1.706844
H417	H	0.462680	0.310407	0.334563
H418	H	0.962680	0.810407	0.834563
H419	H	0.683628	-0.319234	1.124701
H420	H	1.183628	0.180766	1.624701
Cl421	Cl	0.703876	-0.118850	0.882280
Cl422	Cl	1.203876	0.381150	1.382280
H423	H	-0.267154	0.069627	0.863908
H424	H	0.232846	0.569627	1.363908
H425	H	0.781925	-0.220881	0.908608
H426	H	1.281925	0.279119	1.408608
H427	H	0.683685	0.049274	0.314729
H428	H	1.183685	0.549274	0.814729
H429	H	0.514915	0.052316	0.343956
H430	H	1.014915	0.552316	0.843956
Cl431	Cl	0.523718	-0.241211	1.278288
Cl432	Cl	1.023718	0.258789	1.778288
Cl433	Cl	0.401433	-0.118895	1.547108
Cl434	Cl	0.901433	0.381105	2.047108
H435	H	-0.347439	0.069636	0.863925
H436	H	0.152561	0.569636	1.363925
Cl437	Cl	0.374364	-0.395267	0.822753
Cl438	Cl	0.874364	0.104733	1.322753
Cl439	Cl	0.581610	0.061260	0.486298
Cl440	Cl	1.081610	0.561260	0.986298
Cl441	Cl	0.401479	-0.758643	0.882340
Cl442	Cl	0.901479	-0.258643	1.382340
H443	H	0.511777	-0.778820	1.124772
H444	H	1.011777	-0.278820	1.624772
Cl445	Cl	0.343658	0.241358	0.882350
Cl446	Cl	0.843658	0.741358	1.382350
Cl447	Cl	0.401409	-0.218730	1.766601
Cl448	Cl	0.901409	0.281270	2.266601
Cl449	Cl	0.132731	0.329987	1.016768
Cl450	Cl	0.632731	0.829987	1.516768
Cl451	Cl	0.523774	0.119075	0.486360
Cl452	Cl	1.023774	0.619075	0.986360
H453	H	-0.347470	-0.069395	1.169508
H454	H	0.152530	0.430605	1.669508
H455	H	0.413518	0.319440	0.530817
H456	H	0.913518	0.819440	1.030817
H457	H	0.552707	-0.037817	0.517432
H458	H	1.052707	0.462183	1.017432
Cl459	Cl	-0.257418	-0.086371	1.206830
Cl460	Cl	0.242582	0.413629	1.706830
Cl461	Cl	-0.020999	-0.124697	1.291082
Cl462	Cl	0.479001	0.375303	1.791082
H463	H	0.772912	-0.310181	1.016629
H464	H	1.272912	0.189819	1.516629
Cl465	Cl	0.282430	-0.086422	1.206838
Cl466	Cl	0.782430	0.413578	1.706838
Cl467	Cl	0.078858	-0.124698	1.291087
Cl468	Cl	0.578858	0.375302	1.791087
H469	H	-0.143941	-0.107714	1.253749
H470	H	0.356059	0.392286	1.753749
Cl471	Cl	-0.153675	0.124904	0.742433
Cl472	Cl	0.346325	0.624904	1.242433
H473	H	-0.063678	-0.107720	1.253752
H474	H	0.436322	0.392280	1.753752
H475	H	0.413474	-0.680566	0.908686
H476	H	0.913474	-0.180566	1.408686
H477	H	0.386366	-0.449942	0.849133
H478	H	0.886366	0.050058	1.349133
Cl479	Cl	0.374379	-0.528010	0.822753
Cl480	Cl	0.874379	-0.028010	1.322753
Cl481	Cl	0.550870	-0.604567	1.210632
Cl482	Cl	1.050870	-0.104567	1.710632
Cl483	Cl	0.550875	-0.704427	1.210632
Cl484	Cl	1.050875	-0.204427	1.710632
Cl485	Cl	0.374359	-0.295398	0.822760
Cl486	Cl	0.874359	0.204602	1.322760
Cl487	Cl	0.401422	-0.218796	0.882318
Cl488	Cl	0.901422	0.281204	1.382318
H489	H	0.410391	-0.052182	0.689641
H490	H	0.910391	0.447818	1.189641
Cl491	Cl	0.550841	-0.471810	1.210644
Cl492	Cl	1.050841	0.028190	1.710644
