data_functionalizedCrystal
_audit_creation_method	'MofGen! by Chris Wilmer'
_symmetry_space_group_name_H-M	'P1'
_symmetry_Int_Tables_number	1
_symmetry_cell_setting	triclinic
loop_
_symmetry_equiv_pos_as_xyz
  x,y,z
_cell_length_a	17.000383
_cell_length_b	17.038272
_cell_length_c	7.088929
_cell_angle_alpha	96.674532
_cell_angle_beta	84.295322
_cell_angle_gamma	83.355929
loop_
_atom_site_label
_atom_site_type_symbol
_atom_site_fract_x
_atom_site_fract_y
_atom_site_fract_z
O1	O	1.050402	0.036618	0.159120
O2	O	1.550402	0.536618	0.659120
O3	O	0.820584	0.064860	0.159096
O4	O	1.320584	0.564860	0.659096
O5	O	0.934128	-0.062983	0.159092
O6	O	1.434128	0.437017	0.659092
O7	O	0.936858	0.164462	0.159123
O8	O	1.436858	0.664462	0.659123
O9	O	0.949299	-0.080105	-0.158883
O10	O	1.449299	0.419895	0.341117
O11	O	0.835755	0.047739	-0.158880
O12	O	1.335755	0.547739	0.341120
O13	O	1.065574	0.019497	-0.158856
O14	O	1.565574	0.519497	0.341144
Cu15	Cu	0.952050	0.032055	-0.187902
Cu16	Cu	1.452050	0.532055	0.312098
Cu17	Cu	0.934108	0.052302	0.188141
Cu18	Cu	1.434108	0.552302	0.688141
O19	O	0.952030	0.147341	-0.158853
O20	O	1.452030	0.647341	0.341147
C21	C	0.798619	0.057816	0.000104
C22	C	1.298619	0.557816	0.500104
C23	C	0.710566	0.062326	0.000095
C24	C	1.210566	0.562326	0.500095
C25	C	0.212318	0.091454	0.000170
C26	C	0.712318	0.591454	0.500170
C27	C	0.295053	0.087210	0.000168
C28	C	0.795053	0.587210	0.500168
C29	C	0.341061	0.013542	0.000144
C30	C	0.841061	0.513542	0.500144
C31	C	0.304328	-0.055884	0.000141
C32	C	0.804328	0.444116	0.500141
C33	C	0.221593	-0.051639	0.000156
C34	C	0.721593	0.448361	0.500156
C35	C	0.591098	-0.002855	0.000108
C36	C	1.091098	0.497145	0.500108
C37	C	0.673839	-0.007096	0.000086
C38	C	1.173839	0.492904	0.500086
C39	C	0.664558	0.135999	0.000117
C40	C	1.164558	0.635999	0.500117
C41	C	0.581823	0.140237	0.000121
C42	C	1.081823	0.640237	0.500121
C43	C	0.545096	0.070811	0.000128
C44	C	1.045096	0.570811	0.500128
C45	C	0.425630	0.009202	0.000135
C46	C	0.925630	0.509202	0.500135
C47	C	0.460528	0.075153	0.000150
C48	C	0.960528	0.575153	0.500150
C49	C	0.939229	-0.100502	0.000104
C50	C	1.439229	0.399498	0.500104
C51	C	0.931816	-0.186787	0.000104
C52	C	1.431816	0.313213	0.500104
C53	C	0.999874	-0.241562	0.000109
C54	C	1.499874	0.258438	0.500109
C55	C	0.992903	-0.322634	0.000127
C56	C	1.492903	0.177366	0.500127
C57	C	0.917875	-0.348931	0.000125
C58	C	1.417875	0.151069	0.500125
C59	C	0.849811	-0.294149	0.000126
C60	C	1.349811	0.205851	0.500126
C61	C	0.856782	-0.213078	0.000122
C62	C	1.356782	0.286922	0.500122
C63	C	0.893248	-0.593001	0.000149
C64	C	1.393248	-0.093001	0.500149
C65	C	0.886282	-0.674080	0.000147
C66	C	1.386282	-0.174080	0.500147
C67	C	1.029375	-0.702559	0.000151
C68	C	1.529375	-0.202559	0.500151
C69	C	1.036340	-0.621485	0.000136
C70	C	1.536340	-0.121485	0.500136
C71	C	0.968276	-0.566710	0.000147
C72	C	1.468276	-0.066710	0.500147
C73	C	0.910748	-0.431800	0.000137
C74	C	1.410748	0.068200	0.500137
C75	C	0.975403	-0.483842	0.000149
C76	C	1.475403	0.016158	0.500149
C77	C	1.087538	0.026541	0.000139
C78	C	1.587538	0.526541	0.500139
C79	C	1.175590	0.022032	0.000161
C80	C	1.675590	0.522032	0.500161
C81	C	0.946928	0.184860	0.000139
C82	C	1.446928	0.684860	0.500139
C83	C	0.954340	0.271146	0.000152
C84	C	1.454340	0.771146	0.500152
N85	N	0.964675	0.017813	-0.452390
N86	N	1.464675	0.517813	0.047610
N87	N	0.921488	0.066538	0.452630
N88	N	1.421488	0.566538	0.952630
H89	H	0.341794	-0.115865	0.000132
H90	H	0.841794	0.384135	0.500132
H91	H	1.036489	-0.462426	0.000192
H92	H	1.536489	0.037574	0.500192
Br93	Br	0.398087	0.175128	0.000202
Br94	Br	0.898087	0.675128	0.500202
Br95	Br	0.488077	-0.090773	0.000087
Br96	Br	0.988077	0.409227	0.500087
Br97	Br	1.085273	-0.396970	0.000134
Br98	Br	1.585273	0.103030	0.500134
H99	H	0.876730	0.117031	-0.465723
H100	H	1.376730	0.617031	0.034277
Br101	Br	1.138166	-0.585800	0.000199
Br102	Br	1.638166	-0.085800	0.500199
Br103	Br	1.039293	-0.066343	-0.588477
Br104	Br	1.539293	0.433657	-0.088477
Br105	Br	1.101705	-0.205884	0.000084
Br106	Br	1.601705	0.294116	0.500084
Br107	Br	0.171748	-0.145857	0.000152
Br108	Br	0.671748	0.354143	0.500152
H109	H	0.324951	0.143741	0.000193
H110	H	0.824951	0.643741	0.500193
Br111	Br	0.714404	0.230215	0.000119
Br112	Br	1.214404	0.730215	0.500119
Br113	Br	0.736279	-0.107080	0.000050
Br114	Br	1.236279	0.392920	0.500050
Br115	Br	1.121742	-0.776899	0.000137
Br116	Br	1.621742	-0.276899	0.500137
H117	H	0.174864	0.151441	0.000175
H118	H	0.674864	0.651441	0.500175
H119	H	0.849659	-0.453220	0.000132
H120	H	1.349659	0.046780	0.500132
H121	H	0.544368	0.200226	0.000147
H122	H	1.044368	0.700226	0.500147
Br123	Br	0.784452	-0.709768	0.000125
Br124	Br	1.284452	-0.209768	0.500125
Br125	Br	0.800874	-0.518673	0.000176
Br126	Br	1.300874	-0.018673	0.500176
H127	H	0.561206	-0.059387	0.000108
H128	H	1.061206	0.440613	0.500108
Br129	Br	0.747983	-0.329835	0.000156
Br130	Br	1.247983	0.170165	0.500156
H131	H	0.801362	-0.168480	0.000118
H132	H	1.301362	0.331520	0.500118
