data_functionalizedCrystal
_audit_creation_method	'MofGen! by Chris Wilmer'
_symmetry_space_group_name_H-M	'P1'
_symmetry_Int_Tables_number	1
_symmetry_cell_setting	triclinic
loop_
_symmetry_equiv_pos_as_xyz
  x,y,z
_cell_length_a	13.897448
_cell_length_b	13.897449
_cell_length_c	12.759393
_cell_angle_alpha	90.023249
_cell_angle_beta	89.967173
_cell_angle_gamma	89.982475
loop_
_atom_site_label
_atom_site_type_symbol
_atom_site_fract_x
_atom_site_fract_y
_atom_site_fract_z
Zn1	Zn	-0.383967	-1.474706	-0.594085
Zn2	Zn	-0.545295	-1.474599	-0.418400
Zn3	Zn	-0.384015	-1.313394	-0.418412
Zn4	Zn	-0.545221	-1.313377	-0.594028
O5	O	-0.464625	-1.394019	-0.506231
O6	O	-0.405378	-1.609674	-0.570799
O7	O	-0.523952	-1.453177	-0.271380
O8	O	-0.249027	-1.334845	-0.441744
O9	O	-0.523905	-1.609595	-0.441723
O10	O	-0.248992	-1.453360	-0.570810
O11	O	-0.405460	-1.334741	-0.271389
O12	O	-0.405389	-1.178410	-0.441689
O13	O	-0.523780	-1.334815	-0.741057
O14	O	-0.523826	-1.178398	-0.570714
O15	O	-0.405307	-1.453343	-0.741099
O16	O	-0.680267	-1.453161	-0.441668
O17	O	-0.680213	-1.334712	-0.570702
C18	C	-0.464606	-1.143405	-0.506197
C19	C	-0.464621	-1.036191	-0.506207
C20	C	-0.464619	-0.839896	-0.506227
C21	C	-0.464617	-0.949128	-0.506213
C22	C	-0.715239	-1.393949	-0.506201
C23	C	-0.822453	-1.394007	-0.506223
C24	C	-1.018748	-1.394108	-0.506289
C25	C	-0.909516	-1.394049	-0.506255
C26	C	-0.213032	-1.394116	-0.506285
C27	C	-0.105818	-1.394158	-0.506307
C28	C	-0.464530	-1.394089	-0.780265
C29	C	-0.464489	-1.394119	-0.897041
C30	C	-0.464638	-0.645612	-0.506256
C31	C	-0.464628	-0.752826	-0.506240
C32	C	-0.402754	-1.455861	-1.061658
C33	C	-0.402792	-1.455843	-0.951934
C34	C	-0.526161	-1.332417	-0.951879
C35	C	-0.526127	-1.332441	-1.061601
C36	C	-0.464650	-1.394005	-0.233264
C37	C	-0.464419	-1.394162	-0.116488
H38	H	-0.352506	-1.506118	-1.106343
C39	C	-0.539491	-1.202724	-1.184988
C40	C	-0.593917	-1.264624	-1.121886
H41	H	-0.581345	-1.160868	-1.222211
H42	H	-0.497491	-1.165825	-1.142192
H43	H	-0.502739	-1.239501	-1.233368
H44	H	-0.630664	-1.227847	-1.073500
H45	H	-0.635935	-1.301526	-1.164685
H46	H	-0.352579	-1.506086	-0.907296
H47	H	-0.576400	-1.282165	-0.907177
