data_functionalizedCrystal
_audit_creation_method	'MofGen! by Chris Wilmer'
_symmetry_space_group_name_H-M	'P1'
_symmetry_Int_Tables_number	1
_symmetry_cell_setting	triclinic
loop_
_symmetry_equiv_pos_as_xyz
  x,y,z
_cell_length_a	6.817900
_cell_length_b	8.749629
_cell_length_c	12.200875
_cell_angle_alpha	93.118192
_cell_angle_beta	107.143593
_cell_angle_gamma	105.181975
loop_
_atom_site_label
_atom_site_type_symbol
_atom_site_fract_x
_atom_site_fract_y
_atom_site_fract_z
V1	V	-4.075834	-0.219162	-0.356170
V2	V	-3.742500	0.114171	-0.022836
V3	V	-3.409167	0.447504	0.310497
O4	O	-4.054691	0.010162	-0.350922
O5	O	-3.721358	0.343495	-0.017588
O6	O	-3.388024	0.676829	0.315745
O7	O	-4.034442	-0.434207	-0.352261
O8	O	-3.701108	-0.100873	-0.018927
O9	O	-3.367775	0.232460	0.314406
O10	O	-4.045447	-0.215953	-0.512180
O11	O	-3.712113	0.117380	-0.178847
O12	O	-3.378780	0.450713	0.154487
O13	O	-4.043610	-0.209602	-0.189895
O14	O	-3.710276	0.123731	0.143438
O15	O	-3.376943	0.457064	0.476771
V16	V	-4.556219	-0.191713	-0.336461
V17	V	-4.222886	0.141620	-0.003128
V18	V	-3.889553	0.474953	0.330206
O19	O	-4.343974	-0.279374	-0.399403
O20	O	-4.010640	0.053959	-0.066069
O21	O	-3.677307	0.387293	0.267264
O22	O	-4.738276	-0.131502	-0.293228
O23	O	-4.404943	0.201832	0.040105
O24	O	-4.071610	0.535165	0.373439
O25	O	-4.374405	0.023331	-0.340370
O26	O	-4.041071	0.356664	-0.007037
O27	O	-3.707738	0.689998	0.326296
O28	O	-4.694759	-0.421038	-0.341709
O29	O	-4.361426	-0.087705	-0.008376
O30	O	-4.028092	0.245629	0.324958
O31	O	-4.705840	-0.201274	-0.502736
O32	O	-4.372507	0.132060	-0.169402
O33	O	-4.039173	0.465393	0.163931
O34	O	-4.363400	-0.194922	-0.180451
O35	O	-4.030066	0.138411	0.152882
O36	O	-3.696733	0.471744	0.486216
C37	C	-3.880564	-0.486625	-0.346262
C38	C	-3.547231	-0.153292	-0.012928
C39	C	-3.213898	0.180042	0.320405
C40	C	-3.928128	-0.662427	-0.344105
C41	C	-3.594795	-0.329094	-0.010772
C42	C	-3.261462	0.004239	0.322561
C43	C	-3.894601	-0.208219	-0.550253
C44	C	-3.561268	0.125114	-0.216920
C45	C	-3.227935	0.458448	0.116413
C46	C	-3.951086	-0.207018	-0.677783
C47	C	-3.617753	0.126315	-0.344449
C48	C	-3.284420	0.459648	-0.011116
C49	C	-4.054463	-0.204822	-0.911272
C50	C	-3.721129	0.128512	-0.577939
C51	C	-3.387796	0.461845	-0.244605
C52	C	-3.996928	-0.206043	-0.781342
C53	C	-3.663595	0.127290	-0.448008
C54	C	-3.330262	0.460623	-0.114675
C55	C	-4.191624	0.075741	-0.346366
C56	C	-3.858291	0.409074	-0.013033
C57	C	-3.524957	0.742407	0.320301
C58	C	-4.123299	0.251542	-0.348530
C59	C	-3.789966	0.584875	-0.015196
C60	C	-3.456632	0.918208	0.318137
C61	C	-4.177587	-0.202662	-0.142371
C62	C	-3.844253	0.130671	0.190962
C63	C	-3.510920	0.464005	0.524295
C64	C	-4.100340	-0.203855	-0.014841
C65	C	-3.767006	0.129479	0.318492
C66	C	-3.433673	0.462812	0.651826
H67	H	-3.797423	-0.723267	-0.338670
H68	H	-3.464090	-0.389934	-0.005336
H69	H	-3.130757	-0.056601	0.327997
H70	H	-4.254017	-0.687613	-0.353978
H71	H	-3.920684	-0.354280	-0.020644
H72	H	-3.587351	-0.020947	0.312689
