data_functionalizedCrystal
_audit_creation_method	'MofGen! by Chris Wilmer'
_symmetry_space_group_name_H-M	'P1'
_symmetry_Int_Tables_number	1
_symmetry_cell_setting	triclinic
loop_
_symmetry_equiv_pos_as_xyz
  x,y,z
_cell_length_a	25.639240
_cell_length_b	12.594517
_cell_length_c	12.594510
_cell_angle_alpha	89.988729
_cell_angle_beta	89.952568
_cell_angle_gamma	90.028646
loop_
_atom_site_label
_atom_site_type_symbol
_atom_site_fract_x
_atom_site_fract_y
_atom_site_fract_z
Zn1	Zn	-0.208161	1.627141	-0.601484
Zn2	Zn	0.291839	2.127141	-0.101484
Zn3	Zn	-0.295613	1.626981	-0.423464
Zn4	Zn	0.204387	2.126981	0.076536
Zn5	Zn	-0.208187	1.449146	-0.423543
Zn6	Zn	0.291813	1.949146	0.076457
Zn7	Zn	-0.295561	1.449075	-0.601425
Zn8	Zn	0.204439	1.949075	-0.101425
O9	O	-0.251880	1.538086	-0.512479
O10	O	0.248120	2.038086	-0.012479
O11	O	-0.219772	1.776066	-0.577861
O12	O	0.280228	2.276066	-0.077861
O13	O	-0.284048	1.603353	-0.274529
O14	O	0.215952	2.103353	0.225471
O15	O	-0.135018	1.472854	-0.447205
O16	O	0.364982	1.972854	0.052795
O17	O	-0.284023	1.775948	-0.447071
O18	O	0.215977	2.275948	0.052929
O19	O	-0.134999	1.603626	-0.577937
O20	O	0.365001	2.103626	-0.077937
O21	O	-0.219816	1.472698	-0.274587
O22	O	0.280184	1.972698	0.225413
O23	O	-0.219766	1.300191	-0.447148
O24	O	0.280234	1.800191	0.052852
O25	O	-0.283935	1.472734	-0.750379
O26	O	0.216065	1.972734	-0.250379
O27	O	-0.283960	1.300139	-0.577837
O28	O	0.216040	1.800139	-0.077837
O29	O	-0.219722	1.603558	-0.750422
O30	O	0.280278	2.103558	-0.250422
O31	O	-0.368771	1.603285	-0.447014
O32	O	0.131229	2.103285	0.052986
O33	O	-0.368733	1.472578	-0.577761
O34	O	0.131267	1.972578	-0.077761
C35	C	-0.251860	1.261545	-0.512495
C36	C	0.248140	1.761545	-0.012495
C37	C	-0.251865	1.143239	-0.512527
C38	C	0.248135	1.643239	-0.012527
C39	C	-0.286848	1.073989	-0.583472
C40	C	0.213152	1.573989	-0.083472
C41	C	-0.239176	1.003209	-0.609672
C42	C	0.260824	1.503209	-0.109672
C43	C	-0.299576	1.003221	-0.486303
C44	C	0.200424	1.503221	0.013697
C45	C	-0.204167	1.074017	-0.538779
C46	C	0.295833	1.574017	-0.038779
C47	C	-0.264600	1.074035	-0.415365
C48	C	0.235400	1.574035	0.084635
C49	C	-0.216895	1.003287	-0.441528
C50	C	0.283105	1.503287	0.058472
C51	C	-0.387723	1.537935	-0.512396
C52	C	0.112277	2.037935	-0.012396
C53	C	-0.445837	1.537968	-0.512396
C54	C	0.054163	2.037968	-0.012396
C55	C	-0.806152	1.606213	-0.580674
C56	C	-0.306152	2.106213	-0.080674
C57	C	-0.860756	1.606244	-0.580696
C58	C	-0.360756	2.106244	-0.080696
O59	O	-0.888952	1.664089	-0.638663
O60	O	-0.388952	2.164089	-0.138663
N61	N	-0.888119	1.538233	-0.512582
N62	N	-0.388119	2.038233	-0.012582
C63	C	-0.860876	1.470179	-0.444450
C64	C	-0.360876	1.970179	0.055550
O65	O	-0.889164	1.412333	-0.386516
O66	O	-0.389164	1.912333	0.113484
C67	C	-0.806272	1.470143	-0.444434
C68	C	-0.306272	1.970143	0.055566
C69	C	-0.778912	1.538166	-0.512545
C70	C	-0.278912	2.038166	-0.012545
C71	C	-0.778791	1.674229	-0.648780
C72	C	-0.278791	2.174229	-0.148780
C73	C	-0.724190	1.674199	-0.648757
C74	C	-0.224190	2.174199	-0.148757
C75	C	-0.696950	1.606152	-0.580627
C76	C	-0.196950	2.106152	-0.080627
C77	C	-0.724311	1.538136	-0.512521
C78	C	-0.224311	2.038136	-0.012521
C79	C	-0.779030	1.402084	-0.376308
C80	C	-0.279030	1.902084	0.123692
C81	C	-0.724422	1.402054	-0.376299
C82	C	-0.224422	1.902054	0.123701
C83	C	-0.697062	1.470077	-0.444410
C84	C	-0.197062	1.970077	0.055590
C85	C	-0.642471	1.470059	-0.444369
C86	C	-0.142471	1.970059	0.055631
N87	N	-0.615107	1.538070	-0.512483
N88	N	-0.115107	2.038070	-0.012483
C89	C	-0.642347	1.606116	-0.580612
C90	C	-0.142347	2.106116	-0.080612
C91	C	-0.975546	1.470259	-0.444489
C92	C	-0.475546	1.970259	0.055511
C93	C	-1.030148	1.470299	-0.444498
C94	C	-0.530148	1.970299	0.055502
C95	C	-1.030025	1.606363	-0.580746
C96	C	-0.530025	2.106363	-0.080746
C97	C	-0.975422	1.606327	-0.580730
C98	C	-0.475422	2.106327	-0.080730
C99	C	-0.948183	1.538269	-0.512602
C100	C	-0.448183	2.038269	-0.012602
C101	C	-0.527682	1.606048	-0.580557
C102	C	-0.027682	2.106048	-0.080557
C103	C	-0.473077	1.606015	-0.580525
C104	C	0.026923	2.106015	-0.080525
C105	C	-0.473205	1.469948	-0.444281
C106	C	0.026795	1.969948	0.055719
C107	C	-0.527806	1.469984	-0.444309
C108	C	-0.027806	1.969984	0.055691
C109	C	-0.555043	1.538038	-0.512456
C110	C	-0.055043	2.038038	-0.012456
O111	O	-0.614240	1.412240	-0.386434
O112	O	-0.114240	1.912240	0.113566
O113	O	-0.614052	1.663943	-0.638546
O114	O	-0.114052	2.163943	-0.138546
C115	C	-0.115507	1.538266	-0.512586
C116	C	0.384493	2.038266	-0.012586
C117	C	-0.057393	1.538342	-0.512632
C118	C	0.442607	2.038342	-0.012632
C119	C	-0.251820	1.538156	-0.790100
C120	C	0.248180	2.038156	-0.290100
C121	C	-0.251794	1.538186	-0.908406
C122	C	0.248206	2.038186	-0.408406
C123	C	-0.251900	1.815706	-0.512463
C124	C	0.248100	2.315706	-0.012463
C125	C	-0.251909	1.934012	-0.512457
C126	C	0.248091	2.434012	-0.012457
C127	C	-0.216867	1.609363	-0.977682
C128	C	0.283133	2.109363	-0.477682
C129	C	-0.204065	1.512294	-1.048496
C130	C	0.295935	2.012294	-0.548496
C131	C	-0.264559	1.635311	-1.048391
C132	C	0.235441	2.135311	-0.548391
C133	C	-0.238969	1.441066	-0.977661
C134	C	0.261031	1.941066	-0.477661
C135	C	-0.299484	1.564149	-0.977550
C136	C	0.200516	2.064149	-0.477550
C137	C	-0.286701	1.467013	-1.048332
C138	C	0.213299	1.967013	-0.548332
C139	C	-0.251903	1.538077	-0.235938
C140	C	0.248097	2.038077	0.264062
C141	C	-0.251781	1.538253	-0.117633
C142	C	0.248219	2.038253	0.382367
H143	H	-0.228420	0.972098	-0.691810
H144	H	0.271580	1.472098	-0.191810
C145	C	-0.557635	1.680918	-0.655515
C146	C	-0.057635	2.180918	-0.155515
N147	N	-0.580195	1.737316	-0.711967
N148	N	-0.080195	2.237316	-0.211967
C149	C	-1.060239	1.395477	-0.369562
C150	C	-0.560239	1.895477	0.130438
N151	N	-1.082901	1.339113	-0.313123
N152	N	-0.582901	1.839113	0.186877
C153	C	-0.176941	1.690534	-0.935762
C154	C	0.323059	2.190534	-0.435762
N155	N	-0.146868	1.751666	-0.904185
N156	N	0.353132	2.251666	-0.404185
C157	C	-0.442983	1.680852	-0.655452
C158	C	0.057017	2.180852	-0.155452
N159	N	-0.420319	1.737217	-0.711886
N160	N	0.079681	2.237217	-0.211886
C161	C	-0.149667	1.115849	-0.568839
C162	C	0.350333	1.615849	-0.068839
N163	N	-0.108619	1.147360	-0.591485
N164	N	0.391381	1.647360	-0.091485
C165	C	-0.354062	0.961223	-0.456367
C166	C	0.145938	1.461223	0.043633
N167	N	-0.395103	0.929598	-0.433824
N168	N	0.104897	1.429598	0.066176
H169	H	-0.550084	1.414603	-0.388840
H170	H	-0.050084	1.914603	0.111160
H171	H	-0.187295	0.972439	-0.381503
H172	H	0.312705	1.472439	0.118497
H173	H	-0.800964	1.729641	-0.704265
H174	H	-0.300964	2.229641	-0.204265
C175	C	-0.149575	1.482664	-1.090606
C176	C	0.350425	1.982664	-0.590606
N177	N	-0.108532	1.460357	-1.122324
N178	N	0.391468	1.960357	-0.622324
H179	H	-0.275370	1.105170	-0.333250
H180	H	0.224630	1.605170	0.166750
C181	C	-0.694463	1.327184	-0.301349
C182	C	-0.194463	1.827184	0.198651
N183	N	-0.671899	1.270795	-0.244895
N184	N	-0.171899	1.770795	0.255105
C185	C	-0.694101	1.749034	-0.723681
C186	C	-0.194101	2.249034	-0.223681
N187	N	-0.671441	1.805405	-0.780117
N188	N	-0.171441	2.305405	-0.280117
C189	C	-0.945330	1.681152	-0.655661
C190	C	-0.445330	2.181152	-0.155661
N191	N	-0.922668	1.737512	-0.712104
N192	N	-0.422668	2.237512	-0.212104
C193	C	-1.059999	1.681209	-0.655698
C194	C	-0.559999	2.181209	-0.155698
N195	N	-1.082578	1.737577	-0.712149
N196	N	-0.582578	2.237577	-0.212149
C197	C	-0.279154	1.746238	-1.090361
C198	C	0.220846	2.246238	-0.590361
N199	N	-0.290143	1.829791	-1.121968
N200	N	0.209857	2.329791	-0.621968
C201	C	-0.945588	1.395389	-0.369533
C202	C	-0.445588	1.895389	0.130467
N203	N	-0.923027	1.338994	-0.313080
N204	N	-0.423027	1.838994	0.186920
H205	H	-0.801297	1.346693	-0.320844
H206	H	-0.301297	1.846693	0.179156
H207	H	-0.316233	1.406781	-1.079158
H208	H	0.183767	1.906781	-0.579158
C209	C	-0.443231	1.395095	-0.369347
C210	C	0.056769	1.895095	0.130653
N211	N	-0.420652	1.338709	-0.312913
N212	N	0.079348	1.838709	0.187087
H213	H	-0.228120	1.358933	-0.946722
H214	H	0.271880	1.858933	-0.446722
H215	H	-0.316375	1.105036	-0.643544
H216	H	0.183625	1.605036	-0.143544
C217	C	-0.353958	1.593830	-0.935407
C218	C	0.146042	2.093830	-0.435407
N219	N	-0.394987	1.616200	-0.903660
N220	N	0.105013	2.116200	-0.403660
