data_functionalizedCrystal
_audit_creation_method	'MofGen! by Chris Wilmer'
_symmetry_space_group_name_H-M	'P1'
_symmetry_Int_Tables_number	1
_symmetry_cell_setting	triclinic
loop_
_symmetry_equiv_pos_as_xyz
  x,y,z
_cell_length_a	19.188905
_cell_length_b	19.188930
_cell_length_c	18.266242
_cell_angle_alpha	89.988525
_cell_angle_beta	89.983837
_cell_angle_gamma	83.139668
loop_
_atom_site_label
_atom_site_type_symbol
_atom_site_fract_x
_atom_site_fract_y
_atom_site_fract_z
O1	O	0.926160	0.087085	-0.061010
O2	O	1.426160	0.587085	0.438990
O3	O	0.722847	0.098838	-0.060986
O4	O	1.222847	0.598838	0.439014
O5	O	0.830371	-0.008694	-0.060984
O6	O	1.330371	0.491306	0.439016
O7	O	0.818636	0.194618	-0.061011
O8	O	1.318636	0.694618	0.438989
O9	O	0.830353	-0.008700	0.060778
O10	O	1.330353	0.491300	0.560778
O11	O	0.722828	0.098833	0.060776
O12	O	1.222828	0.598833	0.560776
O13	O	0.926142	0.087080	0.060752
O14	O	1.426142	0.587080	0.560752
Zn15	Zn	0.824482	0.092955	0.080097
Zn16	Zn	1.324482	0.592955	0.580097
Zn17	Zn	0.824506	0.092963	-0.080330
Zn18	Zn	1.324506	0.592963	0.419670
O19	O	0.818618	0.194612	0.060751
O20	O	1.318618	0.694612	0.560751
C21	C	0.829982	-0.034708	-0.000101
C22	C	1.329982	0.465292	0.499899
C23	C	0.828841	-0.112213	-0.000095
C24	C	1.328841	0.387787	0.499905
C25	C	0.696826	0.098458	-0.000102
C26	C	1.196826	0.598458	0.499898
C27	C	0.619321	0.097324	-0.000092
C28	C	1.119321	0.597324	0.499908
C29	C	0.891933	-0.157142	-0.000099
C30	C	1.391933	0.342858	0.499901
C31	C	0.890861	-0.229966	-0.000110
C32	C	1.390861	0.270034	0.499890
C33	C	0.826694	-0.257857	-0.000103
C34	C	1.326694	0.242143	0.499897
C35	C	0.763594	-0.212917	-0.000103
C36	C	1.263594	0.287083	0.499897
C37	C	0.764668	-0.140095	-0.000099
C38	C	1.264668	0.359905	0.499901
N39	N	0.777640	-0.365859	0.041341
N40	N	1.277640	0.134141	0.541341
N41	N	0.776624	-0.435038	0.041338
N42	N	1.276624	0.064962	0.541338
C43	C	0.823456	-0.477265	-0.000118
C44	C	1.323456	0.022735	0.499882
N45	N	0.871352	-0.447702	-0.041561
N46	N	1.371352	0.052298	0.458439
N47	N	0.872369	-0.378517	-0.041556
N48	N	1.372369	0.121483	0.458444
C49	C	0.825523	-0.336819	-0.000108
C50	C	1.325523	0.163181	0.499892
C51	C	0.885390	-0.601159	-0.000135
C52	C	1.385390	-0.101159	0.499865
C53	C	0.884315	-0.673984	-0.000151
C54	C	1.384315	-0.173984	0.499849
C55	C	0.757047	-0.656933	-0.000137
C56	C	1.257047	-0.156933	0.499863
C57	C	0.758123	-0.584110	-0.000128
C58	C	1.258123	-0.084110	0.499872
C59	C	0.822296	-0.556228	-0.000124
C60	C	1.322296	-0.056228	0.499876
C61	C	0.582939	0.096782	-0.066466
C62	C	1.082939	0.596782	0.433534
C63	C	0.510115	0.095709	-0.066475
C64	C	1.010115	0.595709	0.433525
C65	C	0.473678	0.095164	-0.000106
C66	C	0.973678	0.595164	0.499894
C67	C	0.510068	0.095709	0.066277
C68	C	1.010068	0.595709	0.566277
C69	C	0.582890	0.096789	0.066284
C70	C	1.082890	0.596789	0.566284
N71	N	0.364651	0.053733	0.049292
N72	N	0.864651	0.553733	0.549292
N73	N	0.295474	0.052705	0.049280
N74	N	0.795474	0.552705	0.549280
C75	C	0.254272	0.091911	-0.000123
C76	C	0.754272	0.591911	0.499877
N77	N	0.284861	0.132174	-0.049526
N78	N	0.784861	0.632174	0.450474
N79	N	0.354045	0.133199	-0.049517
N80	N	0.854045	0.633199	0.450483
C81	C	0.394716	0.093993	-0.000106
C82	C	0.894716	0.593993	0.499894
C83	C	0.138926	0.090207	-0.066512
C84	C	0.638926	0.590207	0.433488
C85	C	0.066100	0.089138	-0.066518
C86	C	0.566100	0.589138	0.433482
C87	C	0.066056	0.089132	0.066236
C88	C	0.566056	0.589132	0.566236
C89	C	0.138879	0.090207	0.066240
C90	C	0.638879	0.590207	0.566240
C91	C	0.175310	0.090742	-0.000136
C92	C	0.675310	0.590742	0.499864
C93	C	0.952163	0.087460	-0.000134
C94	C	1.452163	0.587460	0.499866
C95	C	1.029668	0.088594	-0.000148
C96	C	1.529668	0.588594	0.499852
C97	C	0.819007	0.220626	-0.000134
C98	C	1.319007	0.720626	0.499866
C99	C	0.820148	0.298131	-0.000145
C100	C	1.320148	0.798131	0.499855
N101	N	0.824471	0.092950	0.189583
N102	N	1.324471	0.592950	0.689583
N103	N	0.824523	0.092962	-0.189817
N104	N	1.324523	0.592962	0.310183
C105	C	0.872098	0.045358	0.227893
C106	C	1.372098	0.545358	0.727893
C107	C	0.872103	0.045355	0.304538
C108	C	1.372103	0.545355	0.804538
C109	C	0.824487	0.092956	0.342870
C110	C	1.324487	0.592956	0.842870
C111	C	0.776851	0.140551	0.304552
C112	C	1.276851	0.640551	0.804552
C113	C	0.776843	0.140549	0.227908
C114	C	1.276843	0.640549	0.727908
N115	N	0.815411	0.154764	0.463195
N116	N	1.315411	0.654764	0.963195
N117	N	0.815423	0.154764	0.536003
N118	N	1.315423	0.654764	1.036003
C119	C	0.824506	0.092966	0.573793
C120	C	1.324506	0.592966	1.073793
N121	N	0.833592	0.031165	0.536024
N122	N	1.333592	0.531165	1.036024
N123	N	0.833584	0.031165	0.463209
N124	N	1.333584	0.531165	0.963209
C125	C	0.824490	0.092963	0.425977
C126	C	1.324490	0.592963	0.925977
C127	C	0.872141	0.045366	0.695210
C128	C	1.372141	0.545366	1.195210
C129	C	0.872141	0.045362	0.771856
C130	C	1.372141	0.545362	1.271856
C131	C	0.776892	0.140565	0.771868
C132	C	1.276892	0.640565	1.271868
C133	C	0.776889	0.140563	0.695223
C134	C	1.276889	0.640563	1.195223
C135	C	0.824517	0.092964	0.656898
C136	C	1.324517	0.592964	1.156898
H137	H	0.944187	-0.134445	-0.000097
H138	H	1.444187	0.365555	0.499903
H139	H	0.910888	0.006598	0.335735
H140	H	1.410888	0.506598	0.835735
N141	N	0.728253	0.189199	0.811003
N142	N	1.228253	0.689199	1.311003
N143	N	0.685736	0.231695	0.776783
N144	N	1.185736	0.731695	1.276783
H145	H	0.651382	0.266045	0.804424
H146	H	1.151382	0.766045	1.304424
H147	H	0.168502	0.090644	0.120290
H148	H	0.668502	0.590644	0.620290
N149	N	0.728211	0.189183	0.343692
N150	N	1.228211	0.689183	0.843692
N151	N	0.685689	0.231675	0.309474
N152	N	1.185689	0.731675	0.809474
H153	H	0.651333	0.266022	0.337115
H154	H	1.151333	0.766022	0.837115
H155	H	0.910921	0.006606	0.664004
H156	H	1.410921	0.506606	1.164004
N157	N	0.176138	0.090781	-0.134311
N158	N	0.676138	0.590781	0.365689
N159	N	0.210180	0.140592	-0.149119
N160	N	0.710180	0.640592	0.350881
H161	H	0.236458	0.141001	-0.197003
H162	H	0.736458	0.641001	0.302997
N163	N	0.028944	0.088595	-0.134328
N164	N	0.528944	0.588595	0.365672
N165	N	0.061484	0.089076	-0.193583
N166	N	0.561484	0.589076	0.306417
H167	H	0.035242	0.088693	-0.241476
H168	H	0.535242	0.588693	0.258524
N169	N	0.920811	-0.003207	0.188758
N170	N	1.420811	0.496793	0.688758
N171	N	0.963372	-0.045659	0.222979
N172	N	1.463372	0.454341	0.722979
H173	H	0.997798	-0.079937	0.195339
H174	H	1.497798	0.420063	0.695339
H175	H	0.942239	-0.266555	-0.000116
H176	H	1.442239	0.233445	0.499884
H177	H	0.738109	0.179319	0.664029
H178	H	1.238109	0.679319	1.164029
N179	N	0.698055	-0.241415	-0.000103
N180	N	1.198055	0.258585	0.499897
N181	N	0.697105	-0.306435	-0.000106
N182	N	1.197105	0.193565	0.499894
H183	H	0.650816	-0.326562	-0.000109
H184	H	1.150816	0.173438	0.499891
H185	H	0.713289	-0.103513	-0.000096
H186	H	1.213289	0.396487	0.499904
H187	H	0.937644	-0.578456	-0.000135
H188	H	1.437644	-0.078456	0.499865
H189	H	0.612597	0.097218	-0.120515
H190	H	1.112597	0.597218	0.379485
N191	N	0.691507	-0.685425	-0.000123
N192	N	1.191507	-0.185425	0.499877
N193	N	0.676703	-0.724173	0.051200
N194	N	1.176703	-0.224173	0.551200
H195	H	0.630414	-0.744299	0.051208
H196	H	1.130414	-0.244299	0.551208
H197	H	0.935694	-0.710565	-0.000158
H198	H	1.435694	-0.210565	0.499842
N199	N	0.693669	-0.538221	-0.000122
N200	N	1.193669	-0.038221	0.499878
N201	N	0.636380	-0.563130	-0.000118
N202	N	1.136380	-0.063130	0.499882
H203	H	0.590856	-0.530721	-0.000116
H204	H	1.090856	-0.030721	0.499884
N205	N	0.728184	0.189168	0.188783
N206	N	1.228184	0.689168	0.688783
N207	N	0.685667	0.231662	0.223013
N208	N	1.185667	0.731662	0.723013
H209	H	0.651301	0.266002	0.195380
H210	H	1.151301	0.766002	0.695380
H211	H	0.480487	0.095269	-0.120527
H212	H	0.980487	0.595269	0.379473
H213	H	0.910922	0.006603	0.803048
H214	H	1.410922	0.506603	1.303048
N215	N	0.472841	0.095159	0.134065
N216	N	0.972841	0.595159	0.634065
N217	N	0.407822	0.094195	0.134051
N218	N	0.907822	0.594195	0.634051
H219	H	0.381529	0.093811	0.181928
H220	H	0.881529	0.593811	0.681928
N221	N	0.620045	0.097348	0.134094
N222	N	1.120045	0.597348	0.634094
N223	N	0.587507	0.096869	0.193349
N224	N	1.087507	0.596869	0.693349
H225	H	0.613748	0.097263	0.241241
H226	H	1.113748	0.597263	0.741241
H227	H	0.036389	0.088692	0.120275
H228	H	0.536389	0.588692	0.620275
