data_functionalizedCrystal
_audit_creation_method	'MofGen! by Chris Wilmer'
_symmetry_space_group_name_H-M	'P1'
_symmetry_Int_Tables_number	1
_symmetry_cell_setting	triclinic
loop_
_symmetry_equiv_pos_as_xyz
  x,y,z
_cell_length_a	31.640172
_cell_length_b	31.640172
_cell_length_c	21.606444
_cell_angle_alpha	59.997833
_cell_angle_beta	89.996430
_cell_angle_gamma	60.000198
loop_
_atom_site_label
_atom_site_type_symbol
_atom_site_fract_x
_atom_site_fract_y
_atom_site_fract_z
Zr1	Zr	0.407238	0.462547	-0.081239
O2	O	0.339758	0.550723	-0.180061
O3	O	0.427916	0.374377	-0.050946
O4	O	0.427923	0.462547	-0.180067
O5	O	0.339754	0.462550	0.050915
O6	O	0.497480	0.462540	-0.180071
O7	O	0.339750	0.462553	-0.050939
O8	O	0.497466	0.304819	0.050903
O9	O	0.339767	0.620271	-0.180059
O10	O	0.488654	0.410635	-0.038028
O11	O	0.436747	0.410638	0.037987
O12	O	0.436756	0.514447	-0.114036
O13	O	0.384850	0.514450	-0.038020
Zr14	Zr	0.518178	0.462531	0.081200
Zr15	Zr	0.518172	0.462535	-0.081246
Zr16	Zr	0.407244	0.462542	0.081206
Zr17	Zr	0.407253	0.573467	-0.081237
Zr18	Zr	0.518162	0.351610	0.081198
O19	O	0.497500	0.550700	0.050907
O20	O	0.497492	0.550707	-0.180070
O21	O	0.339766	0.550717	0.050916
O22	O	0.585658	0.374354	0.180021
O23	O	0.585650	0.374361	-0.050955
O24	O	0.427924	0.374370	0.180031
O25	O	0.585662	0.462527	-0.050954
O26	O	0.497492	0.462530	0.180028
O27	O	0.427936	0.462537	0.180032
O28	O	0.585666	0.462525	0.050900
O29	O	0.427945	0.620262	-0.180065
O30	O	0.497471	0.304816	0.180025
O31	O	0.585648	0.304806	0.180020
O32	O	0.585644	0.304810	0.050898
O33	O	0.339772	0.620267	-0.050937
O34	O	0.427950	0.620258	-0.050942
O35	O	0.488659	0.410630	0.113997
O36	O	0.540566	0.410627	0.037981
O37	O	0.488668	0.514440	-0.038027
O38	O	0.436762	0.514443	0.037989
C39	C	0.462689	0.323794	-0.000022
C40	C	0.462682	0.276706	-0.000023
C41	C	0.489813	-0.015338	-0.039692
C42	C	0.489823	-0.192333	-0.039692
O43	O	0.512885	-0.215240	-0.073410
N44	N	0.462728	-0.214461	-0.000014
C45	C	0.435631	-0.192340	0.039671
O46	O	0.412590	-0.215226	0.073426
C47	C	0.435624	-0.015348	0.039674
C48	C	0.462717	0.006782	-0.000012
C49	C	0.516904	0.006791	-0.079375
C50	C	0.516899	0.051040	-0.079378
C51	C	0.489802	0.073159	-0.039698
C52	C	0.462711	0.051030	-0.000015
C53	C	0.408530	0.006770	0.079363
C54	C	0.408532	0.051020	0.079362
C55	C	0.435625	0.073149	0.039675
C56	C	0.435610	0.117399	0.039661
N57	N	0.462705	0.139526	-0.000017
C58	C	0.489801	0.117406	-0.039696
C59	C	0.435636	-0.285262	0.039665
C60	C	0.435637	-0.329509	0.039663
C61	C	0.489830	-0.329501	-0.039698
C62	C	0.489826	-0.285250	-0.039700
C63	C	0.462731	-0.263135	-0.000013
C64	C	0.489788	0.210332	-0.039700
C65	C	0.489779	0.254586	-0.039702
C66	C	0.435588	0.254572	0.039662
C67	C	0.435595	0.210324	0.039661
C68	C	0.462699	0.188203	-0.000021
O69	O	0.412565	0.140327	0.073369
O70	O	0.512849	0.140291	-0.073432
C71	C	0.489818	-0.059586	-0.039689
C72	C	0.462727	-0.081715	-0.000006
C73	C	0.435631	-0.059596	0.039674
C74	C	0.462728	-0.125962	-0.000008
C75	C	0.489824	-0.148082	-0.039688
C76	C	0.516920	-0.125954	-0.079366
C77	C	0.516914	-0.081706	-0.079369
C78	C	0.408536	-0.081723	0.079351
C79	C	0.408543	-0.125971	0.079351
C80	C	0.435639	-0.148091	0.039671
C81	C	0.323946	0.462553	-0.000011
C82	C	0.276852	0.462558	-0.000009
C83	C	-0.015156	0.462530	-0.056130
C84	C	-0.192142	0.462522	-0.056136
O85	O	-0.215017	0.462497	-0.103839
N86	N	-0.214271	0.462522	-0.000024
C87	C	-0.192148	0.462519	0.056095
O88	O	-0.215028	0.462512	0.103826
C89	C	-0.015161	0.462522	0.056103
C90	C	0.006963	0.462529	-0.000016
C91	C	0.006968	0.462535	-0.112245
C92	C	0.051210	0.462540	-0.112245
C93	C	0.073329	0.462540	-0.056131
C94	C	0.051205	0.462534	-0.000017
C95	C	0.006963	0.462516	0.112226
C96	C	0.051214	0.462515	0.112224
C97	C	0.073337	0.462521	0.056104
C98	C	0.117566	0.462538	0.056097
N99	N	0.139695	0.462539	-0.000014
C100	C	0.117576	0.462540	-0.056129
C101	C	-0.285070	0.462519	0.056086
C102	C	-0.329317	0.462519	0.056084
C103	C	-0.329308	0.462521	-0.056147
C104	C	-0.285062	0.462525	-0.056147
C105	C	-0.262941	0.462519	-0.000025
C106	C	0.210488	0.462551	-0.056126
C107	C	0.254733	0.462558	-0.056123
C108	C	0.254721	0.462553	0.056110
C109	C	0.210478	0.462549	0.056105
C110	C	0.188364	0.462546	-0.000016
O111	O	0.140471	0.462557	0.103780
O112	O	0.140470	0.462533	-0.103842
C113	C	-0.059398	0.462524	-0.056130
C114	C	-0.081522	0.462519	-0.000015
C115	C	-0.059403	0.462518	0.056099
C116	C	-0.125769	0.462519	-0.000018
C117	C	-0.147888	0.462520	-0.056132
C118	C	-0.125759	0.462520	-0.112244
C119	C	-0.081517	0.462525	-0.112244
C120	C	-0.081532	0.462517	0.112210
C121	C	-0.125775	0.462513	0.112206
C122	C	-0.147893	0.462514	0.056091
C123	C	0.601470	0.462524	-0.000028
C124	C	0.648564	0.462520	-0.000031
C125	C	0.462701	0.462545	-0.203214
C126	C	0.462698	0.462547	-0.272177
C127	C	0.462727	0.601283	-0.000017
C128	C	0.462733	0.648371	-0.000017
C129	C	0.435608	0.516735	-0.344251
C130	C	0.435613	0.516734	-0.409045
C131	C	0.462705	0.462543	-0.401765
C132	C	0.489798	0.408350	-0.329683
C133	C	0.489796	0.408352	-0.264890
C134	C	0.489806	0.408339	-0.590986
C135	C	0.489805	0.408341	-0.655787
C136	C	0.435623	0.516721	-0.735142
C137	C	0.435621	0.516723	-0.670348
C138	C	0.462716	0.462531	-0.598273
C139	C	0.462712	0.462533	-0.528015
C140	C	0.462706	0.462540	-0.472021
C141	C	0.462715	0.462533	0.203175
C142	C	0.462717	0.462531	0.272137
C143	C	0.601450	0.323780	-0.000030
C144	C	0.648538	0.276687	-0.000034
C145	C	0.462696	0.323788	0.203173
C146	C	0.462692	0.276698	0.272134
C147	C	0.601458	0.323774	0.203165
C148	C	0.648548	0.276679	0.272123
C149	C	0.323958	0.601303	-0.203204
C150	C	0.276868	0.648399	-0.272163
C151	C	0.323965	0.601297	-0.000009
C152	C	0.276877	0.648391	-0.000006
C153	C	0.462720	0.601289	-0.203212
C154	C	0.462724	0.648379	-0.272174
C155	C	0.643554	0.254575	-0.039718
C156	C	0.687794	0.210332	-0.039737
C157	C	0.737018	0.188198	-0.000066
C158	C	0.742001	0.210314	0.039620
C159	C	0.697762	0.254560	0.039634
C160	C	0.489787	0.254580	0.344202
C161	C	0.489781	0.210339	0.409005
C162	C	0.462683	0.188215	0.401739
C163	C	0.435584	0.210337	0.329663
C164	C	0.435587	0.254580	0.264862
C165	C	0.697761	0.254561	0.264828
C166	C	0.742012	0.210316	0.329616
C167	C	0.737048	0.188187	0.401699
C168	C	0.687829	0.210309	0.408993
C169	C	0.643580	0.254556	0.344205
C170	C	0.227654	0.670522	-0.264867
C171	C	0.183404	0.714781	-0.329655
C172	C	0.188368	0.736912	-0.401738
C173	C	0.237586	0.714787	-0.409032
C174	C	0.281836	0.670532	-0.344245
C175	C	0.281862	0.670507	0.039672
C176	C	0.237622	0.714762	0.039673
C177	C	0.188398	0.736897	-0.000000
C178	C	0.183414	0.714779	-0.039683
C179	C	0.227654	0.670528	-0.039688
C180	C	0.489828	0.670490	-0.264882
C181	C	0.489842	0.714731	-0.329673
C182	C	0.462748	0.736863	-0.401754
C183	C	0.435644	0.714748	-0.409044
C184	C	0.435633	0.670505	-0.344254
H185	H	0.386475	-0.143982	0.111666
H186	H	0.511869	0.364213	-0.532308
C187	C	0.405812	0.646191	-0.352281
C188	C	0.405792	0.597527	-0.281025
C189	C	0.375970	0.573215	-0.289060
C190	C	0.346167	0.597568	-0.368350
C191	C	0.346186	0.646234	-0.439612
C192	C	0.376009	0.670546	-0.431578
H193	H	0.427855	0.579498	-0.222325
H194	H	0.375956	0.537189	-0.236307
H195	H	0.324091	0.579570	-0.374298
H196	H	0.324124	0.664264	-0.498313
H197	H	0.376022	0.706573	-0.484331
H198	H	0.413569	-0.347516	0.071970
H199	H	0.223588	0.652522	-0.071996
H200	H	0.511850	0.192332	0.467686
H201	H	0.462685	0.152190	0.454510
H202	H	0.511868	0.364210	-0.649851
C203	C	0.462760	0.785535	-0.473019
C204	C	0.514168	0.773361	-0.486824
C205	C	0.514180	0.822034	-0.558086
C206	C	0.462783	0.882880	-0.615542
C207	C	0.411371	0.895056	-0.601738
C208	C	0.411359	0.846384	-0.530477
H209	H	0.552218	0.728317	-0.444291
H210	H	0.552239	0.813020	-0.568304
H211	H	0.462792	0.918911	-0.668294
H212	H	0.373321	0.940101	-0.644272
H213	H	0.373301	0.855397	-0.520259
C214	C	0.405792	0.185979	0.083312
C215	C	0.419942	0.155562	0.169500
C216	C	0.390144	0.131215	0.213159
C217	C	0.346197	0.137285	0.170631
C218	C	0.332045	0.167702	0.084439
C219	C	0.361842	0.192050	0.040779
H220	H	0.452476	0.151068	0.200986
H221	H	0.400621	0.108698	0.276964
H222	H	0.324139	0.119261	0.202950
H223	H	0.299510	0.172197	0.052952
H224	H	0.351366	0.214567	-0.023026
H225	H	0.143331	0.732809	-0.071984
C226	C	0.405825	-0.260937	0.083321
C227	C	0.419970	-0.303532	0.169507
C228	C	0.390157	-0.279209	0.213161
C229	C	0.346199	-0.212291	0.170630
C230	C	0.332052	-0.169692	0.084440
C231	C	0.361865	-0.194015	0.040785
H232	H	0.452512	-0.353073	0.200995
H233	H	0.400629	-0.310744	0.276965
H234	H	0.324129	-0.194286	0.202945
H235	H	0.299510	-0.120152	0.052951
H236	H	0.351392	-0.162480	-0.023018
C237	C	0.336004	0.646168	0.083312
C238	C	0.341476	0.670509	0.126945
C239	C	0.395617	0.646176	0.170583
C240	C	0.444286	0.597502	0.170587
C241	C	0.438816	0.573159	0.126952
C242	C	0.384675	0.597491	0.083315
H243	H	0.305447	0.706542	0.126944
H244	H	0.399666	0.664197	0.202884
H245	H	0.484364	0.579490	0.202891
H246	H	0.474845	0.537125	0.126954
H247	H	0.380626	0.579470	0.051013
C248	C	0.519594	0.348738	-0.321671
C249	C	0.519590	0.348732	-0.392939
C250	C	0.549382	0.289119	-0.384924
C251	C	0.579177	0.229512	-0.305642
C252	C	0.579182	0.229516	-0.234368
C253	C	0.549390	0.289129	-0.242383
H254	H	0.497533	0.392859	-0.451633
H255	H	0.549378	0.289117	-0.437685
H256	H	0.601231	0.185383	-0.299709
H257	H	0.601240	0.185389	-0.175674
H258	H	0.549394	0.289131	-0.189622
H259	H	0.413543	0.560864	-0.350188
C260	C	0.519654	0.739055	-0.321642
C261	C	0.578505	0.696459	-0.279980
C262	C	0.608317	0.720782	-0.271946
C263	C	0.579276	0.787701	-0.305575
C264	C	0.520422	0.830302	-0.347240
C265	C	0.490610	0.805978	-0.355273
H266	H	0.600006	0.646917	-0.255083
H267	H	0.651885	0.689246	-0.241103
H268	H	0.601345	0.805707	-0.299628
H269	H	0.498921	0.879843	-0.372136
H270	H	0.447042	0.837514	-0.386117
C271	C	0.405841	0.739101	-0.488337
C272	C	0.419977	0.696532	-0.512187
C273	C	0.390173	0.720890	-0.591483
C274	C	0.346232	0.787816	-0.646929
C275	C	0.332094	0.830389	-0.623081
C276	C	0.361898	0.806032	-0.543785
H277	H	0.452507	0.646985	-0.471142
H278	H	0.400639	0.689374	-0.609137
H279	H	0.324169	0.805847	-0.705629
H280	H	0.299564	0.879936	-0.664126
H281	H	0.351432	0.837548	-0.526131
C282	C	0.519599	0.186007	-0.083356
C283	C	0.505444	0.228603	-0.169543
C284	C	0.535251	0.204281	-0.213203
C285	C	0.579212	0.137365	-0.170675
C286	C	0.593368	0.094765	-0.084482
C287	C	0.563562	0.119086	-0.040823
H288	H	0.472900	0.278142	-0.201030
H289	H	0.524771	0.235817	-0.277009
H290	H	0.601277	0.119361	-0.202995
H291	H	0.625913	0.045226	-0.052996
H292	H	0.574041	0.087551	0.022983
C293	C	0.139690	0.785590	-0.473001
C294	C	0.085557	0.809891	-0.464967
C295	C	0.036877	0.858566	-0.536227
C296	C	0.042330	0.882940	-0.615520
C297	C	0.096465	0.858639	-0.623557
C298	C	0.145145	0.809964	-0.552297
H299	H	0.081519	0.791847	-0.406267
H300	H	-0.003197	0.876555	-0.530277
H301	H	0.006294	0.918973	-0.668270
H302	H	0.100503	0.876682	-0.682257
H303	H	0.185219	0.791975	-0.558247
H304	H	0.511890	0.652476	-0.206196
H305	H	0.386469	-0.011241	0.111681
H306	H	0.603478	0.272596	-0.072032
C307	C	0.139737	0.785571	0.000014
C308	C	0.085589	0.809923	-0.043619
C309	C	0.036930	0.858595	-0.043599
C310	C	0.042419	0.882915	0.000055
C311	C	0.096569	0.858563	0.043691
C312	C	0.145228	0.809891	0.043671
H313	H	0.081524	0.791920	-0.075937
H314	H	-0.003155	0.876621	-0.075901
H315	H	0.006399	0.918945	0.000070
H316	H	0.100635	0.876566	0.076009
H317	H	0.185313	0.791865	0.075974
C318	C	-0.057182	0.462527	-0.173973
C319	C	-0.000957	0.410901	-0.151616
C320	C	0.023376	0.410902	-0.213348
C321	C	-0.008517	0.462528	-0.297436
C322	C	-0.064745	0.514158	-0.319797
C323	C	-0.089077	0.514157	-0.258066
H324	H	0.022655	0.372681	-0.089365
H325	H	0.065000	0.372682	-0.196794
H326	H	0.009496	0.462529	-0.343133
H327	H	-0.088356	0.552378	-0.382048
H328	H	-0.130701	0.552377	-0.274619
C329	C	0.222185	0.646187	-0.185581
C330	C	0.168045	0.670536	-0.177572
C331	C	0.162571	0.646208	-0.098289
C332	C	0.211236	0.597530	-0.027014
C333	C	0.265380	0.573178	-0.035021
C334	C	0.270854	0.597507	-0.114304
H335	H	0.132017	0.706572	-0.230336
H336	H	0.122490	0.664235	-0.092362
H337	H	0.207184	0.579521	0.031676
H338	H	0.301408	0.537142	0.017743
H339	H	0.310935	0.579480	-0.120231
C340	C	0.546711	-0.017532	-0.123031
C341	C	0.532556	0.025068	-0.209218
C342	C	0.562361	0.000753	-0.252883
C343	C	0.606321	-0.066164	-0.210362
C344	C	0.620478	-0.108768	-0.124171
C345	C	0.590673	-0.084453	-0.080505
H346	H	0.500012	0.074608	-0.240699
H347	H	0.551881	0.032292	-0.316688
H348	H	0.628384	-0.084163	-0.242686
H349	H	0.653022	-0.158308	-0.092690
H350	H	0.601153	-0.115992	-0.016700
H351	H	0.511887	-0.267235	-0.072016
C352	C	0.796148	0.185982	0.321581
C353	C	0.844827	0.137314	0.392835
C354	C	0.898961	0.112981	0.384798
C355	C	0.904416	0.137317	0.305506
C356	C	0.855735	0.185988	0.234246
C357	C	0.801601	0.210321	0.242283
H358	H	0.840790	0.119296	0.451537
H359	H	0.934997	0.076951	0.437550
H360	H	0.944489	0.119305	0.299557
H361	H	0.859772	0.204006	0.175545
H362	H	0.765565	0.246351	0.189531
H363	H	0.069223	0.462508	0.157927
H364	H	0.603510	0.272559	0.350156
H365	H	0.511856	0.364226	-0.206204
C366	C	0.519639	-0.353840	-0.083344
C367	C	0.519639	-0.402512	-0.083336
C368	C	0.549450	-0.426857	-0.126974
C369	C	0.579260	-0.402529	-0.170619
C370	C	0.579261	-0.353854	-0.170627
C371	C	0.549451	-0.329509	-0.126990
H372	H	0.497571	-0.420524	-0.051027
H373	H	0.549449	-0.462890	-0.126967
H374	H	0.601328	-0.420550	-0.202922
H375	H	0.601330	-0.335842	-0.202937
H376	H	0.549452	-0.293476	-0.126997
C377	C	-0.150094	0.462519	-0.173969
C378	C	-0.118237	0.410830	-0.182356
C379	C	-0.142573	0.410825	-0.244075
C380	C	-0.198765	0.462510	-0.297407
C381	C	-0.230625	0.514202	-0.289023
C382	C	-0.206289	0.514207	-0.227304
H383	H	-0.076638	0.372567	-0.142874
H384	H	-0.118987	0.372559	-0.250281
H385	H	-0.216779	0.462506	-0.343095
H386	H	-0.272224	0.552466	-0.328504
H387	H	-0.229875	0.552474	-0.221097
C388	C	0.405780	0.278912	0.083304
C389	C	0.405778	0.327585	0.083296
C390	C	0.375971	0.351925	0.126940
C391	C	0.346166	0.327592	0.170591
C392	C	0.346166	0.278916	0.170600
C393	C	0.375973	0.254576	0.126956
H394	H	0.427843	0.345601	0.050982
H395	H	0.375971	0.387959	0.126933
H396	H	0.324101	0.345610	0.202899
H397	H	0.324102	0.260900	0.202915
H398	H	0.375973	0.218542	0.126963
H399	H	0.511840	0.272604	-0.072023
H400	H	0.413562	0.560847	-0.793835
C401	C	-0.150108	0.462506	0.173942
C402	C	-0.206337	0.514119	0.151595
C403	C	-0.230665	0.514106	0.213334
C404	C	-0.198765	0.462478	0.297420
C405	C	-0.142533	0.410860	0.319771
C406	C	-0.118204	0.410874	0.258032
H407	H	-0.229954	0.552341	0.089347
H408	H	-0.272292	0.552317	0.196788
H409	H	-0.216774	0.462468	0.343123
H410	H	-0.118915	0.372639	0.382020
H411	H	-0.076578	0.372663	0.274578
H412	H	0.069222	0.462543	-0.157941
H413	H	0.386467	0.069024	0.111680
C414	C	0.546727	-0.150293	-0.123012
C415	C	0.517681	-0.144218	-0.187370
C416	C	0.547490	-0.168562	-0.231009
C417	C	0.606344	-0.198980	-0.210291
C418	C	0.635394	-0.205056	-0.145931
C419	C	0.605585	-0.180713	-0.102291
H420	H	0.474110	-0.121700	-0.202709
H421	H	0.525985	-0.164064	-0.278654
H422	H	0.628410	-0.217001	-0.242596
H423	H	0.678964	-0.227575	-0.130591
H424	H	0.627090	-0.185211	-0.054647
C425	C	0.405780	0.185994	0.321674
C426	C	0.346925	0.228571	0.280041
C427	C	0.317125	0.204223	0.272054
C428	C	0.346180	0.137300	0.305699
C429	C	0.405038	0.094719	0.347335
C430	C	0.434838	0.119066	0.355323
H431	H	0.325415	0.278115	0.255132
H432	H	0.273554	0.235745	0.241232
H433	H	0.324120	0.119276	0.299786
H434	H	0.426549	0.045174	0.372244
H435	H	0.478409	0.087545	0.386144
C436	C	0.378725	-0.057396	0.123000
C437	C	0.392869	-0.099986	0.209187
C438	C	0.363053	-0.075659	0.252836
C439	C	0.319092	-0.008741	0.210299
C440	C	0.304946	0.033853	0.124107
C441	C	0.334762	0.009526	0.080458
H442	H	0.425413	-0.149526	0.240680
H443	H	0.373525	-0.107191	0.316640
H444	H	0.297020	0.009267	0.242610
H445	H	0.272402	0.083394	0.092615
H446	H	0.324290	0.041058	0.016654
H447	H	0.773036	0.152170	-0.000082
C448	C	0.279070	0.462563	-0.117856
C449	C	0.298793	0.410946	-0.126360
C450	C	0.323128	0.410949	-0.188089
C451	C	0.327742	0.462569	-0.241315
C452	C	0.308018	0.514190	-0.232812
C453	C	0.283683	0.514187	-0.171083
H454	H	0.295378	0.372730	-0.086958
H455	H	0.337729	0.372735	-0.194383
H456	H	0.345756	0.462572	-0.287010
H457	H	0.311433	0.552406	-0.272214
H458	H	0.269082	0.552401	-0.164789
C459	C	-0.353641	0.462517	-0.117870
C460	C	-0.358390	0.410982	-0.095476
C461	C	-0.382724	0.410973	-0.157192
C462	C	-0.402309	0.462498	-0.241301
C463	C	-0.397560	0.514037	-0.263699
C464	C	-0.373227	0.514046	-0.201984
H465	H	-0.343892	0.372837	-0.033210
H466	H	-0.386239	0.372821	-0.140611
H467	H	-0.420322	0.462492	-0.286986
H468	H	-0.412059	0.552182	-0.325965
H469	H	-0.369712	0.552198	-0.218565
H470	H	0.321906	0.652519	-0.350194
C471	C	0.405819	0.576347	-0.488323
C472	C	0.434883	0.591246	-0.543764
C473	C	0.405093	0.650865	-0.623041
C474	C	0.346240	0.695584	-0.646876
C475	C	0.317173	0.680686	-0.591433
C476	C	0.346963	0.621068	-0.512157
H477	H	0.478452	0.558141	-0.526121
H478	H	0.426610	0.661893	-0.664083
H479	H	0.324187	0.739717	-0.705561
H480	H	0.273603	0.713791	-0.609076
H481	H	0.325446	0.610040	-0.471114
H482	H	0.413525	0.272583	0.206183
C483	C	-0.353654	0.462519	0.117811
C484	C	-0.321760	0.410894	0.201899
C485	C	-0.346093	0.410889	0.263631
C486	C	-0.402320	0.462510	0.241275
C487	C	-0.434218	0.514139	0.157183
C488	C	-0.409885	0.514143	0.095451
H489	H	-0.280134	0.372678	0.218452
H490	H	-0.322479	0.372670	0.325882
H491	H	-0.420333	0.462507	0.286973
H492	H	-0.475844	0.552355	0.140630
H493	H	-0.433498	0.552362	0.033200
H494	H	0.701813	0.272572	0.206140
C495	C	-0.017363	0.462503	0.173962
C496	C	0.014538	0.410873	0.258047
C497	C	-0.009788	0.410858	0.319789
C498	C	-0.066015	0.462473	0.297446
C499	C	-0.097919	0.514107	0.213357
C500	C	-0.073594	0.514122	0.151615
H501	H	0.056164	0.372661	0.274590
H502	H	0.013831	0.372635	0.382037
H503	H	-0.084022	0.462462	0.343151
H504	H	-0.139545	0.552319	0.196814
H505	H	-0.097212	0.552345	0.089367
H506	H	0.538961	0.069053	-0.111692
C507	C	0.243112	0.739080	0.083335
C508	C	0.271570	0.769475	0.062629
C509	C	0.277061	0.793790	0.106292
C510	C	0.254096	0.787709	0.170661
C511	C	0.225636	0.757312	0.191370
C512	C	0.220144	0.732998	0.147707
H513	H	0.288572	0.773978	0.014976
H514	H	0.298129	0.816292	0.090962
H515	H	0.258161	0.805708	0.202984
H516	H	0.208633	0.752810	0.239023
H517	H	0.199076	0.710496	0.163038
H518	H	0.683726	0.192331	-0.072054
H519	H	0.143332	0.732788	-0.323701
C520	C	0.785726	0.139510	0.472961
C521	C	0.824956	0.078678	0.486757
C522	C	0.873636	0.030001	0.558016
C523	C	0.883086	0.042155	0.615480
C524	C	0.843855	0.102990	0.601687
C525	C	0.795175	0.151667	0.530427
H526	H	0.817961	0.069679	0.444217
H527	H	0.902677	-0.015033	0.568227
H528	H	0.919121	0.006121	0.668231
H529	H	0.850849	0.111989	0.644227
H530	H	0.766134	0.196701	0.520217
C531	C	0.796151	0.185956	0.083265
C532	C	0.834027	0.192025	0.040724
C533	C	0.888178	0.167660	0.084375
C534	C	0.904452	0.137225	0.170566
C535	C	0.866575	0.131154	0.213111
C536	C	0.812424	0.155520	0.169461
H537	H	0.821980	0.214556	-0.023084
H538	H	0.916217	0.172155	0.052879
H539	H	0.944538	0.119189	0.202879
H540	H	0.878622	0.108624	0.276919
H541	H	0.784385	0.151025	0.200956
C542	C	0.519595	0.278913	0.352209
C543	C	0.549392	0.254580	0.431491
C544	C	0.579200	0.278913	0.439505
C545	C	0.579210	0.327579	0.368238
C546	C	0.549412	0.351915	0.288950
C547	C	0.519605	0.327582	0.280936
H548	H	0.549386	0.218552	0.484253
H549	H	0.601258	0.260898	0.498200
H550	H	0.601275	0.345591	0.374170
H551	H	0.549418	0.387942	0.236188
H552	H	0.497546	0.345597	0.222241
H553	H	0.683795	0.192285	0.467691
H554	H	-0.011036	0.462534	-0.157940
C555	C	0.243043	0.739130	-0.488326
C556	C	0.271481	0.769548	-0.512173
C557	C	0.276936	0.793888	-0.591468
C558	C	0.253954	0.787810	-0.646916
C559	C	0.225513	0.757391	-0.623070
C560	C	0.220058	0.733050	-0.543775
H561	H	0.288496	0.774048	-0.471126
H562	H	0.297990	0.816407	-0.609120
H563	H	0.257992	0.805828	-0.705615
H564	H	0.208499	0.752890	-0.664116
H565	H	0.199005	0.710532	-0.526122
C566	C	0.186139	0.462547	0.117833
C567	C	0.218037	0.410924	0.201921
C568	C	0.193706	0.410915	0.263656
C569	C	0.137476	0.462529	0.241303
C570	C	0.105574	0.514156	0.157211
C571	C	0.129906	0.514165	0.095476
H572	H	0.259665	0.372713	0.218472
H573	H	0.217322	0.372698	0.325907
H574	H	0.119464	0.462523	0.287003
H575	H	0.063946	0.552367	0.140660
H576	H	0.106290	0.552383	0.033226
H577	H	0.192488	0.462547	-0.101824
C578	C	0.279057	0.462550	0.117836
C579	C	0.335286	0.410926	0.171058
C580	C	0.359626	0.410917	0.232789
C581	C	0.327736	0.462532	0.241299
C582	C	0.271504	0.514160	0.188075
C583	C	0.247165	0.514169	0.126344
H584	H	0.358895	0.372714	0.164760
H585	H	0.401253	0.372698	0.272189
H586	H	0.345754	0.462525	0.286996
H587	H	0.247895	0.552372	0.194373
H588	H	0.205538	0.552388	0.086944
H589	H	-0.267051	0.462529	-0.101844
H590	H	0.538976	-0.063691	-0.111685
H591	H	-0.267063	0.462514	0.101789
H592	H	-0.063526	0.462516	0.157906
H593	H	0.701827	0.272557	0.071954
H594	H	0.413558	0.560851	-0.676284
