data_functionalizedCrystal
_audit_creation_method	'MofGen! by Chris Wilmer'
_symmetry_space_group_name_H-M	'P1'
_symmetry_Int_Tables_number	1
_symmetry_cell_setting	triclinic
loop_
_symmetry_equiv_pos_as_xyz
  x,y,z
_cell_length_a	6.394989
_cell_length_b	10.723023
_cell_length_c	9.198806
_cell_angle_alpha	89.996191
_cell_angle_beta	90.000201
_cell_angle_gamma	94.517371
loop_
_atom_site_label
_atom_site_type_symbol
_atom_site_fract_x
_atom_site_fract_y
_atom_site_fract_z
O1	O	-0.293014	1.660298	-0.120878
O2	O	-0.321064	1.297443	-0.120881
O3	O	-0.003048	1.484021	-0.120881
O4	O	-0.611029	1.473720	-0.120879
O5	O	-0.003047	1.484006	0.120904
O6	O	-0.321063	1.297428	0.120904
O7	O	-0.293013	1.660283	0.120907
Cu8	Cu	-0.307038	1.478854	0.142982
Cu9	Cu	-0.307039	1.478872	-0.142957
O10	O	-0.611028	1.473705	0.120906
C11	C	-0.319022	1.250914	0.000011
C12	C	-0.312916	1.112295	0.000010
C13	C	-0.310194	1.050503	-0.125243
C14	C	-0.303883	0.907233	-0.125247
C15	C	0.074803	1.481977	0.000006
C16	C	0.311127	1.475752	0.000005
C17	C	-0.295054	1.706812	0.000012
C18	C	-0.301161	1.845431	0.000003
N19	N	-0.307036	1.478851	0.344096
N20	N	-0.307024	1.478885	-0.344070
C21	C	-0.172922	1.557183	0.416293
C22	C	-0.172914	1.557202	0.583706
H23	H	-0.301537	0.854093	-0.232480
Cl24	Cl	-0.484299	1.375320	0.440007
H25	H	-0.303492	0.898564	0.107242
Cl26	Cl	-0.309317	1.030224	0.165573
Cl27	Cl	0.004358	1.660755	0.679556
H28	H	-0.058097	1.624228	0.354167
H29	H	-0.421859	1.411823	0.593852
H30	H	-0.312547	1.103666	-0.232473
