data_functionalizedCrystal
_audit_creation_method	'MofGen! by Chris Wilmer'
_symmetry_space_group_name_H-M	'P1'
_symmetry_Int_Tables_number	1
_symmetry_cell_setting	triclinic
loop_
_symmetry_equiv_pos_as_xyz
  x,y,z
_cell_length_a	10.654553
_cell_length_b	10.654550
_cell_length_c	9.730223
_cell_angle_alpha	89.999807
_cell_angle_beta	89.999314
_cell_angle_gamma	84.485540
loop_
_atom_site_label
_atom_site_type_symbol
_atom_site_fract_x
_atom_site_fract_y
_atom_site_fract_z
O1	O	1.667832	0.176412	-0.114302
O2	O	1.302354	0.193214	-0.114301
O3	O	1.493496	0.002074	-0.114296
O4	O	1.476690	0.367552	-0.114306
O5	O	1.493494	0.002079	0.114284
O6	O	1.302351	0.193219	0.114279
O7	O	1.667829	0.176417	0.114278
Zn8	Zn	1.485090	0.184818	0.150571
Zn9	Zn	1.485093	0.184812	-0.150593
O10	O	1.476687	0.367557	0.114274
C11	C	1.255555	0.191982	-0.000010
C12	C	1.116112	0.188288	-0.000010
C13	C	0.919570	0.183077	0.124579
C14	C	1.050591	0.186555	0.124587
C15	C	1.050603	0.186557	-0.124623
C16	C	0.919584	0.183088	-0.124630
C17	C	0.919565	0.183071	0.268459
C18	C	1.050586	0.186548	0.268467
C19	C	1.492261	-0.044722	-0.000008
C20	C	1.488569	-0.184165	-0.000012
C21	C	1.601110	-0.263650	-0.000009
C22	C	1.597634	-0.394670	-0.000018
C23	C	1.369064	-0.366710	-0.000030
C24	C	1.372542	-0.235691	-0.000030
C25	C	1.717137	-0.212124	0.000009
C26	C	1.829687	-0.291609	0.000014
C27	C	1.826211	-0.422630	0.000005
C28	C	1.710183	-0.474165	-0.000010
C29	C	1.714628	0.177649	-0.000015
C30	C	1.854072	0.181342	-0.000024
C31	C	1.477922	0.414352	-0.000018
C32	C	1.481614	0.553796	-0.000022
N33	N	1.485097	0.184822	0.356107
N34	N	1.485096	0.184799	-0.356129
C35	C	1.569757	0.100214	0.428035
C36	C	1.569754	0.100199	0.571918
C37	C	1.400427	0.269411	0.571932
C38	C	1.400425	0.269419	0.428052
C39	C	1.667520	0.002525	0.428028
C40	C	1.667517	0.002509	0.571911
H41	H	0.866258	0.181691	-0.226094
H42	H	1.331488	0.338286	0.630525
C43	C	1.090534	0.310288	0.328800
N44	N	1.120625	0.403486	0.374242
C45	C	1.720971	-0.067999	0.000019
N46	N	1.723858	0.040555	0.000029
H47	H	1.924152	-0.249640	-0.000008
C48	C	1.307390	0.362590	0.348936
N49	N	1.237351	0.432810	0.289347
C50	C	1.797866	0.031677	0.624672
N51	N	1.896030	0.053682	0.664411
H52	H	1.917855	-0.487345	-0.000005
H53	H	1.758704	0.033114	0.383401
H54	H	1.096869	0.099752	0.323706
H55	H	1.103959	0.187980	-0.226073
C56	C	1.241443	-0.423405	-0.000024
N57	N	1.145317	-0.466107	-0.000011
C58	C	0.857056	0.300119	0.343465
N59	N	0.809983	0.388205	0.400094
C60	C	0.879605	0.059337	0.328787
N61	N	0.849506	-0.033858	0.374229
C62	C	1.706366	-0.618294	-0.000029
N63	N	1.703492	-0.726850	-0.000036
C64	C	1.248741	-0.148254	-0.000024
N65	N	1.155490	-0.082395	-0.000020
C66	C	1.638543	-0.127881	0.375265
N67	N	1.616714	-0.226100	0.335524
H68	H	1.637004	-0.088714	0.616529
