data_functionalizedCrystal
_audit_creation_method	'MofGen! by Chris Wilmer'
_symmetry_space_group_name_H-M	'P1'
_symmetry_Int_Tables_number	1
_symmetry_cell_setting	triclinic
loop_
_symmetry_equiv_pos_as_xyz
  x,y,z
_cell_length_a	11.792241
_cell_length_b	19.288874
_cell_length_c	18.366186
_cell_angle_alpha	89.993232
_cell_angle_beta	89.995167
_cell_angle_gamma	83.666821
loop_
_atom_site_label
_atom_site_type_symbol
_atom_site_fract_x
_atom_site_fract_y
_atom_site_fract_z
O1	O	1.505477	0.095200	-0.060480
O2	O	1.174988	0.105012	-0.060497
O3	O	1.349777	-0.000970	-0.060482
O4	O	1.330689	0.201182	-0.060495
O5	O	1.349747	-0.000975	0.060617
O6	O	1.174959	0.105006	0.060602
O7	O	1.505448	0.095195	0.060619
Zn8	Zn	1.340198	0.100100	0.079838
Zn9	Zn	1.340238	0.100107	-0.079716
O10	O	1.330659	0.201176	0.060605
C11	C	1.349146	-0.026852	0.000067
C12	C	1.347297	-0.103966	0.000067
C13	C	1.132692	0.104393	0.000051
C14	C	1.006706	0.102548	0.000044
C15	C	1.334003	-0.659614	0.066060
C16	C	1.335728	-0.587156	0.066064
C17	C	1.336613	-0.550917	0.000053
C18	C	1.335742	-0.587139	-0.065966
C19	C	1.334005	-0.659595	-0.065968
C20	C	1.405849	-0.441190	-0.050514
C21	C	1.407593	-0.368737	-0.050509
C22	C	1.341964	-0.327440	0.000057
C23	C	1.274605	-0.358608	0.050631
C24	C	1.272869	-0.431063	0.050629
C25	C	1.338495	-0.472351	0.000048
C26	C	1.344696	-0.212660	0.066077
C27	C	1.346414	-0.140200	0.066078
C28	C	1.346440	-0.140186	-0.065954
C29	C	1.344710	-0.212643	-0.065953
C30	C	1.343844	-0.248876	0.000064
C31	C	0.776045	0.099156	0.000065
C32	C	0.904402	0.101041	0.000054
C33	C	1.547744	0.095814	0.000070
C34	C	1.673730	0.097659	0.000072
C35	C	1.331290	0.227059	0.000054
C36	C	1.333139	0.304172	0.000049
N37	N	1.340180	0.100094	0.188729
N38	N	1.340265	0.100107	-0.188607
C39	C	1.417602	0.053189	0.226836
C40	C	1.417609	0.053186	0.303064
C41	C	1.340205	0.100100	0.341182
C42	C	1.262769	0.147009	0.303066
C43	C	1.262757	0.147006	0.226839
C44	C	1.325016	0.163302	0.461938
C45	C	1.325036	0.163305	0.538163
C46	C	1.340238	0.100109	0.576289
C47	C	1.355442	0.036906	0.538182
C48	C	1.355430	0.036903	0.461955
C49	C	1.340210	0.100108	0.423837
C50	C	1.417671	0.053197	0.697051
C51	C	1.417671	0.053193	0.773281
C52	C	1.262836	0.147022	0.773281
C53	C	1.262832	0.147020	0.697053
C54	C	1.340255	0.100108	0.658943
H55	H	1.333297	-0.689110	0.119816
H56	H	1.199792	0.185217	0.666024
C57	C	1.343774	-0.252481	-0.138566
H58	H	1.344556	-0.220524	-0.177880
H59	H	1.276929	-0.275700	-0.141313
H60	H	1.409276	-0.285792	-0.141307
H61	H	1.336458	-0.557628	-0.119712
C62	C	1.177605	0.198602	0.344989
H63	H	1.131479	0.226530	0.311373
H64	H	1.218261	0.227691	0.374722
H65	H	1.130503	0.173403	0.374727
C66	C	1.502790	0.001607	0.184915
H67	H	1.491713	0.008332	0.134059
H68	H	1.490747	-0.044808	0.197407
H69	H	1.578482	0.009493	0.197410
H70	H	1.312618	0.214767	0.430902
C71	C	1.308313	0.232822	0.580078
H72	H	1.310512	0.223775	0.630935
H73	H	1.236604	0.257291	0.567592
H74	H	1.367527	0.260286	0.567571
C75	C	1.336686	-0.547313	0.138678
H76	H	1.335927	-0.579270	0.177994
H77	H	1.271197	-0.513999	0.141425
H78	H	1.403544	-0.524099	0.141417
C79	C	1.198771	-0.465347	0.106246
H80	H	1.207144	-0.514413	0.099003
H81	H	1.121050	-0.447523	0.099877
H82	H	1.222422	-0.455266	0.154175
C83	C	1.481690	-0.334456	-0.106130
H84	H	1.473340	-0.285392	-0.098880
H85	H	1.458042	-0.344538	-0.154055
H86	H	1.559415	-0.352286	-0.099758
C87	C	1.333062	-0.699435	-0.138581
H88	H	1.331897	-0.747776	-0.129128
H89	H	1.399518	-0.692603	-0.165705
H90	H	1.267171	-0.682513	-0.165704
H91	H	1.480657	0.014989	0.334096
H92	H	1.367807	-0.014558	0.430931
C93	C	1.202397	-0.313191	0.106251
H94	H	1.213062	-0.265574	0.099004
H95	H	1.225468	-0.326848	0.154177
H96	H	1.124105	-0.319121	0.099872
C97	C	1.372155	-0.032613	0.580110
H98	H	1.369970	-0.023563	0.630965
H99	H	1.443856	-0.057090	0.567617
H100	H	1.312930	-0.060071	0.567625
H101	H	1.343981	-0.242161	0.119832
C102	C	1.177597	0.198609	0.184920
H103	H	1.131501	0.226553	0.218536
H104	H	1.130482	0.173429	0.155190
H105	H	1.218281	0.227693	0.155179
H106	H	1.347115	-0.110716	0.119834
H107	H	1.480711	0.014996	0.666021
C108	C	1.478026	-0.486608	-0.106151
H109	H	1.518396	-0.457671	-0.136265
H110	H	1.429415	-0.511208	-0.135396
H111	H	1.530807	-0.518958	-0.081114
C112	C	1.347418	-0.100332	-0.138564
H113	H	1.348584	-0.051993	-0.129110
H114	H	1.280973	-0.107156	-0.165694
H115	H	1.413320	-0.117251	-0.165681
H116	H	1.480713	0.014993	0.804308
C117	C	1.177693	0.198626	0.815201
H118	H	1.188792	0.191913	0.866058
H119	H	1.101988	0.190772	0.802719
H120	H	1.189787	0.245035	0.802700
