data_functionalizedCrystal
_audit_creation_method	'MofGen! by Chris Wilmer'
_symmetry_space_group_name_H-M	'P1'
_symmetry_Int_Tables_number	1
_symmetry_cell_setting	triclinic
loop_
_symmetry_equiv_pos_as_xyz
  x,y,z
_cell_length_a	19.288864
_cell_length_b	12.811415
_cell_length_c	18.366186
_cell_angle_alpha	84.562925
_cell_angle_beta	89.977106
_cell_angle_gamma	83.590547
loop_
_atom_site_label
_atom_site_type_symbol
_atom_site_fract_x
_atom_site_fract_y
_atom_site_fract_z
O1	O	0.922003	0.130934	-0.069428
O2	O	1.422003	0.630934	0.430572
O3	O	0.719830	0.148597	-0.070544
O4	O	1.219830	0.648597	0.429456
O5	O	0.826002	-0.013052	-0.059893
O6	O	1.326002	0.486948	0.440107
O7	O	0.815832	0.292582	-0.080078
O8	O	1.315832	0.792582	0.419922
O9	O	0.825984	-0.013060	0.061207
O10	O	1.325984	0.486940	0.561207
O11	O	0.719812	0.148589	0.050556
O12	O	1.219812	0.648589	0.550556
O13	O	0.921985	0.130926	0.051672
O14	O	1.421985	0.630926	0.551672
Zn15	Zn	0.820896	0.139756	0.070341
Zn16	Zn	1.320896	0.639756	0.570341
Zn17	Zn	0.820920	0.139766	-0.089213
Zn18	Zn	1.320920	0.639766	0.410787
O19	O	0.815813	0.292574	0.041022
O20	O	1.315813	0.792574	0.541022
C21	C	0.693942	0.148024	-0.009950
C22	C	1.193942	0.648024	0.490050
C23	C	0.616830	0.146318	-0.009818
C24	C	1.116830	0.646318	0.490182
C25	C	0.572605	0.241166	-0.016094
C26	C	1.072605	0.741166	0.483906
C27	C	0.500150	0.239563	-0.015996
C28	C	1.000150	0.739563	0.484004
C29	C	0.471923	0.143107	-0.009637
C30	C	0.971923	0.643107	0.490363
C31	C	0.516158	0.048247	-0.003356
C32	C	1.016158	0.548247	0.496644
C33	C	0.588611	0.049852	-0.003447
C34	C	1.088611	0.549852	0.496553
C35	C	0.363291	0.067285	-0.047080
C36	C	0.863291	0.567285	0.452920
C37	C	0.290838	0.065683	-0.046994
C38	C	0.790838	0.565683	0.453006
C39	C	0.248453	0.138151	-0.009354
C40	C	0.748453	0.638151	0.490646
C41	C	0.278527	0.212239	0.028191
C42	C	0.778527	0.712239	0.528191
C43	C	0.350981	0.213845	0.028100
C44	C	0.850981	0.713845	0.528100
C45	C	0.393360	0.141356	-0.009537
C46	C	0.893360	0.641356	0.490463
C47	C	0.125663	0.231268	-0.015523
C48	C	0.625663	0.731268	0.484477
C49	C	0.053207	0.229661	-0.015420
C50	C	0.553207	0.729661	0.484580
C51	C	0.069217	0.038342	-0.002788
C52	C	0.569217	0.538342	0.497212
C53	C	0.141671	0.039952	-0.002883
C54	C	0.641671	0.539952	0.497117
C55	C	0.169890	0.136417	-0.009254
C56	C	0.669890	0.636417	0.490746
C57	C	0.825423	-0.052157	0.003238
C58	C	1.325423	0.447843	0.503238
C59	C	0.823715	-0.168668	0.010930
C60	C	1.323715	0.331332	0.510930
C61	C	0.820513	-0.387583	-0.106656
C62	C	1.320513	0.112417	0.393344
C63	C	0.818908	-0.497055	-0.099432
C64	C	1.318908	0.002945	0.400568
C65	C	0.818896	-0.497084	0.032599
C66	C	1.318896	0.002916	0.532599
C67	C	0.820500	-0.387613	0.025375
C68	C	1.320500	0.112387	0.525375
C69	C	0.821310	-0.332866	-0.044254
C70	C	1.321310	0.167134	0.455746
C71	C	0.822920	-0.223393	-0.051477
C72	C	1.322920	0.276607	0.448523
C73	C	0.822902	-0.223423	0.080554
C74	C	1.322902	0.276577	0.580554
C75	C	0.821298	-0.332895	0.087777
C76	C	1.321298	0.167105	0.587777
C77	C	0.947873	0.131498	-0.008923
C78	C	1.447873	0.631498	0.491077
C79	C	1.024985	0.133204	-0.009060
C80	C	1.524985	0.633204	0.490940
C81	C	0.816393	0.331680	-0.022111
C82	C	1.316393	0.831680	0.477889
C83	C	0.818101	0.448190	-0.029807
C84	C	1.318101	0.948190	0.470193
N85	N	0.820884	0.139748	0.179233
N86	N	1.320884	0.639748	0.679233
N87	N	0.820936	0.139766	-0.198104
N88	N	1.320936	0.639766	0.301896
C89	C	0.867913	0.068206	0.222047
C90	C	1.367913	0.568206	0.722047
C91	C	0.867917	0.068201	0.298275
C92	C	1.367917	0.568201	0.798275
C93	C	0.820900	0.139757	0.331685
C94	C	1.320900	0.639757	0.831685
C95	C	0.773863	0.211305	0.288861
C96	C	1.273863	0.711305	0.788861
C97	C	0.773855	0.211301	0.212635
C98	C	1.273855	0.711301	0.712635
C99	C	0.812077	0.235391	0.446131
C100	C	1.312077	0.735391	0.946131
C101	C	0.812089	0.235396	0.522356
C102	C	1.312089	0.735396	1.022356
C103	C	0.820920	0.139770	0.566792
C104	C	1.320920	0.639770	1.066792
C105	C	0.829752	0.044134	0.534995
C106	C	1.329752	0.544134	1.034995
C107	C	0.829744	0.044130	0.458768
C108	C	1.329744	0.544130	0.958768
C109	C	0.820903	0.139769	0.414339
C110	C	1.320903	0.639769	0.914339
C111	C	0.867955	0.068216	0.692262
C112	C	1.367955	0.568216	1.192262
C113	C	0.867955	0.068210	0.768491
C114	C	1.367955	0.568210	1.268491
C115	C	0.773904	0.211324	0.759075
C116	C	1.273904	0.711324	1.259075
C117	C	0.773901	0.211321	0.682848
C118	C	1.273901	0.711321	1.182848
C119	C	0.820930	0.139768	0.649445
C120	C	1.320930	0.639768	1.149445
H121	H	0.595575	0.319716	-0.021283
H122	H	1.095575	0.819716	0.478717
F123	F	0.802728	0.337178	0.398845
F124	F	1.302728	0.837178	0.898845
H125	H	0.906248	0.009950	0.665065
H126	H	1.406248	0.509950	1.165065
F127	F	0.918007	-0.007944	0.814060
F128	F	1.418007	0.492056	1.314060
H129	H	0.735619	0.269582	0.786277
H130	H	1.235619	0.769582	1.286277
H131	H	0.735558	0.269561	0.177775
H132	H	1.235558	0.769561	0.677775
H133	H	0.464135	0.316802	-0.021104
H134	H	0.964135	0.816802	0.478896
H135	H	0.375464	0.274166	0.058672
H136	H	0.875464	0.774166	0.558672
F137	F	0.723850	0.287471	0.637278
F138	F	1.223850	0.787471	1.137278
F139	F	0.818017	-0.555364	0.106697
F140	F	1.318017	-0.055364	0.606697
F141	F	0.820430	-0.391171	0.161878
F142	F	1.320430	0.108829	0.661878
F143	F	0.039181	-0.064315	0.003987
F144	F	0.539181	0.435685	0.503987
F145	F	0.486116	-0.054408	0.003415
F146	F	0.986116	0.445592	0.503415
H147	H	0.818256	-0.541601	-0.150246
H148	H	1.318256	-0.041601	0.349754
H149	H	0.823554	-0.178862	0.131366
H150	H	1.323554	0.321138	0.631366
F151	F	0.917963	-0.007950	0.186500
F152	F	1.417963	0.492050	0.686500
H153	H	0.244018	0.271249	0.058842
H154	H	0.744018	0.771249	0.558842
H155	H	0.906215	0.009940	0.333141
H156	H	1.406215	0.509940	0.833141
H157	H	0.821178	-0.343009	-0.163351
H158	H	1.321178	0.156991	0.336649
H159	H	0.804902	0.313269	0.548239
H160	H	1.304902	0.813269	1.048239
H161	H	0.836934	-0.033740	0.432882
H162	H	1.336934	0.466260	0.932882
H163	H	0.148640	0.309816	-0.020700
H164	H	0.648640	0.809816	0.479300
F165	F	0.006139	0.330617	-0.022096
F166	F	0.506139	0.830617	0.477904
F167	F	0.723821	0.287457	0.324419
F168	F	1.223821	0.787457	0.824419
H169	H	0.836942	-0.033734	0.571173
H170	H	1.336942	0.466266	1.071173
H171	H	0.266357	0.005361	-0.077568
H172	H	0.766357	0.505361	0.422432
F173	F	0.188741	-0.061000	0.003793
F174	F	0.688741	0.439000	0.503793
F175	F	0.823784	-0.165129	-0.125581
F176	F	1.323784	0.334871	0.374419
H177	H	0.397796	0.008270	-0.077736
H178	H	0.897796	0.508270	0.422264
H179	H	0.624620	-0.027387	0.001663
H180	H	1.124620	0.472613	0.501663
