data_functionalizedCrystal
_audit_creation_method	'MofGen! by Chris Wilmer'
_symmetry_space_group_name_H-M	'P1'
_symmetry_Int_Tables_number	1
_symmetry_cell_setting	triclinic
loop_
_symmetry_equiv_pos_as_xyz
  x,y,z
_cell_length_a	18.101395
_cell_length_b	16.120530
_cell_length_c	16.120256
_cell_angle_alpha	90.128265
_cell_angle_beta	92.874436
_cell_angle_gamma	87.126665
loop_
_atom_site_label
_atom_site_type_symbol
_atom_site_fract_x
_atom_site_fract_y
_atom_site_fract_z
Zn1	Zn	-0.375205	1.247384	-0.534567
Zn2	Zn	-0.493093	1.254317	-0.395509
Zn3	Zn	-0.362686	1.115376	-0.388485
Zn4	Zn	-0.492415	1.108274	-0.527479
O5	O	-0.430850	1.181338	-0.461510
O6	O	-0.396365	1.364669	-0.522027
O7	O	-0.470839	1.241760	-0.278212
O8	O	-0.260718	1.132958	-0.407890
O9	O	-0.482978	1.369763	-0.419862
O10	O	-0.269915	1.229944	-0.515216
O11	O	-0.375030	1.139681	-0.273051
O12	O	-0.374372	0.998069	-0.401017
O13	O	-0.481821	1.120853	-0.644785
O14	O	-0.469683	0.992850	-0.503135
O15	O	-0.395708	1.223057	-0.649993
O16	O	-0.596632	1.234873	-0.412989
O17	O	-0.596133	1.127576	-0.509947
C18	C	-0.420596	0.965287	-0.450545
C19	C	-0.416229	0.872859	-0.445874
C20	C	-0.408237	0.703630	-0.437352
C21	C	-0.453519	0.659882	-0.485729
C22	C	-0.449073	0.565718	-0.480988
C23	C	-0.412683	0.797803	-0.442092
C24	C	-0.623254	1.181228	-0.461480
C25	C	-0.705570	1.181255	-0.461499
C26	C	-1.004672	1.181435	-0.461553
C27	C	-0.973078	1.114068	-0.522723
C28	C	-0.887437	1.113773	-0.522506
C29	C	-0.856284	1.181346	-0.461527
C30	C	-0.882558	1.162064	-0.372687
C31	C	-0.968200	1.161631	-0.373052
C32	C	-0.978145	1.268265	-0.488458
C33	C	-0.892552	1.267650	-0.490354
C34	C	-0.772421	1.181297	-0.461507
C35	C	-1.088534	1.181483	-0.461567
C36	C	-0.237696	1.181470	-0.461560
C37	C	-0.155385	1.181526	-0.461581
C38	C	-0.440085	1.170389	-0.678405
C39	C	-0.444021	1.165723	-0.770833
C40	C	-0.441144	1.398232	-0.472519
C41	C	-0.445530	1.490659	-0.477210
C42	C	-0.410307	1.205667	-0.983817
C43	C	-0.451174	1.157177	-0.940053
C44	C	-0.447193	1.161934	-0.845890
C45	C	-0.414287	1.200912	-1.077988
C46	C	-0.421599	1.192292	-0.245461
C47	C	-0.417462	1.197118	-0.153042
H48	H	-0.869858	1.125322	-0.588241
O49	O	-1.001850	1.127743	-0.601334
C50	C	-1.050961	1.198478	-0.602215
H51	H	-1.071830	1.209384	-0.537336
H52	H	-1.020856	1.254970	-0.622281
C53	C	-1.091455	1.171307	-0.743396
C54	C	-1.117091	1.184697	-0.663713
H55	H	-1.132245	1.162809	-0.781333
H56	H	-1.058365	1.123653	-0.742804
H57	H	-1.066367	1.218386	-0.760107
H58	H	-1.142170	1.137614	-0.647000
H59	H	-1.150186	1.232343	-0.664303
H60	H	-0.857330	1.099423	-0.350107
H61	H	-0.495625	0.693148	-0.530708
O62	O	-0.496403	1.103280	-0.979676
C63	C	-0.475433	1.021456	-0.954301
H64	H	-0.415081	1.018470	-0.930143
H65	H	-0.512023	1.002186	-0.902859
C66	C	-0.558750	0.965808	-1.058376
C67	C	-0.484623	0.962139	-1.028712
H68	H	-0.564422	0.929217	-1.104275
H69	H	-0.572880	1.020934	-1.075471
H70	H	-0.589233	0.949752	-1.015501
H71	H	-0.454143	0.978205	-1.071583
H72	H	-0.470488	0.907014	-1.011626
O73	O	-0.358110	0.663919	-0.383603
C74	C	-0.395589	0.616336	-0.327350
H75	H	-0.454897	0.642813	-0.323397
H76	H	-0.396229	0.549256	-0.349814
C77	C	-0.282706	0.586685	-0.245754
C78	C	-0.355547	0.619210	-0.240893
H79	H	-0.258006	0.588454	-0.192423
H80	H	-0.257455	0.618740	-0.283653
H81	H	-0.283250	0.530788	-0.264477
H82	H	-0.355003	0.675109	-0.222180
H83	H	-0.380798	0.587164	-0.202988
O84	O	-0.994446	1.037693	-0.501157
C85	C	-1.037869	1.044879	-0.431049
H86	H	-1.024603	1.104074	-0.395711
H87	H	-1.099049	1.047529	-0.451951
C88	C	-1.036870	0.896485	-0.417368
C89	C	-1.020572	0.969185	-0.373962
H90	H	-1.026204	0.849792	-0.382155
H91	H	-1.007617	0.891643	-0.464604
H92	H	-1.087853	0.898705	-0.434784
H93	H	-0.969588	0.966969	-0.356556
H94	H	-1.049816	0.974026	-0.326722
H95	H	-0.875798	1.282271	-0.555757
O96	O	-0.364961	1.259347	-0.944059
C97	C	-0.312789	1.214530	-0.891417
H98	H	-0.335374	1.152128	-0.875306
H99	H	-0.258856	1.203789	-0.924358
C100	C	-0.270407	1.341022	-0.830965
C101	C	-0.298149	1.264382	-0.811172
H102	H	-0.261372	1.371774	-0.781468
H103	H	-0.305554	1.371217	-0.866433
H104	H	-0.225466	1.332060	-0.858418
H105	H	-0.343093	1.273345	-0.783730
H106	H	-0.263008	1.234190	-0.775698
H107	H	-0.863287	1.049324	-0.504333
H108	H	-0.984382	1.098292	-0.350778
H109	H	-0.988909	1.208811	-0.325682
H110	H	-0.862220	1.209784	-0.325673
H111	H	-0.998649	1.318402	-0.443960
H112	H	-0.871660	1.320141	-0.449403
O113	O	-1.008241	1.290418	-0.564682
C114	C	-0.983347	1.368425	-0.586918
H115	H	-0.965507	1.403579	-0.528438
H116	H	-0.934301	1.359143	-0.628235
C117	C	-1.068416	1.375512	-0.706219
C118	C	-1.046511	1.418691	-0.634392
H119	H	-1.107377	1.406518	-0.735507
H120	H	-1.085186	1.322956	-0.691241
H121	H	-1.027540	1.367780	-0.740640
H122	H	-1.087384	1.426414	-0.599968
H123	H	-1.029749	1.471251	-0.649366
