data_functionalizedCrystal
_audit_creation_method	'MofGen! by Chris Wilmer'
_symmetry_space_group_name_H-M	'P1'
_symmetry_Int_Tables_number	1
_symmetry_cell_setting	triclinic
loop_
_symmetry_equiv_pos_as_xyz
  x,y,z
_cell_length_a	14.853567
_cell_length_b	10.489741
_cell_length_c	13.930277
_cell_angle_alpha	89.994859
_cell_angle_beta	89.999445
_cell_angle_gamma	84.087052
loop_
_atom_site_label
_atom_site_type_symbol
_atom_site_fract_x
_atom_site_fract_y
_atom_site_fract_z
O1	O	0.127194	1.692632	-0.079763
O2	O	0.139133	1.321303	-0.079777
O3	O	0.001990	1.516886	-0.079772
O4	O	0.264338	1.497049	-0.079767
O5	O	0.001987	1.516857	0.079890
O6	O	0.139131	1.321273	0.079885
O7	O	0.127192	1.692603	0.079899
Zn8	Zn	0.133161	1.506933	0.105242
Zn9	Zn	0.133164	1.506972	-0.105119
O10	O	0.264335	1.497019	0.079895
C11	C	-0.031605	1.515973	0.000056
C12	C	-0.131704	1.513279	0.000047
C13	C	0.138230	1.273766	0.000052
C14	C	0.135533	1.132167	0.000047
C15	C	-0.544953	1.385712	0.000061
C16	C	-0.564931	1.618070	0.000070
C17	C	-0.470883	1.620602	0.000064
C18	C	-0.413866	1.505688	0.000058
C19	C	-0.450896	1.388241	0.000058
C20	C	-0.433846	1.738047	0.000074
C21	C	-0.339793	1.740585	0.000070
C22	C	-0.282773	1.625669	0.000057
C23	C	-0.319809	1.508217	0.000056
C24	C	-0.262791	1.393303	0.000050
C25	C	-0.299825	1.275850	0.000042
C26	C	-0.393877	1.273325	0.000046
C27	C	-0.188722	1.628193	0.000053
C28	C	-0.168735	1.395832	0.000047
C29	C	0.048272	1.065006	0.000054
C30	C	0.089494	0.972432	-0.078665
C31	C	0.089513	0.972436	0.078749
C32	C	0.176791	1.041457	-0.078737
C33	C	0.176797	1.041471	0.078747
C34	C	0.218083	0.948923	0.000009
C35	C	0.297930	1.497933	0.000065
C36	C	0.398029	1.500626	0.000067
C37	C	0.128095	1.740139	0.000068
C38	C	0.130793	1.881738	0.000068
N39	N	0.133158	1.506916	0.248808
C40	C	0.193871	1.420352	0.701075
C41	C	0.072458	1.593603	0.701049
C42	C	0.072454	1.593589	0.600553
C43	C	0.133161	1.506957	0.550314
C44	C	0.193871	1.420339	0.600570
C45	C	0.011752	1.680215	0.550289
C46	C	0.011746	1.680206	0.449787
C47	C	0.072449	1.593566	0.399546
C48	C	0.133161	1.506943	0.449809
C49	C	0.193868	1.420311	0.399570
C50	C	0.254576	1.333681	0.449830
C51	C	0.254574	1.333699	0.550329
C52	C	0.072452	1.593548	0.299047
C53	C	0.193868	1.420297	0.299064
N54	N	0.133164	1.506985	0.751315
H55	H	-0.253390	1.182287	0.000044
N56	N	0.223099	1.079596	-0.162310
N57	N	0.292932	1.135702	-0.153705
H58	H	0.325642	1.162634	-0.212726
N59	N	-0.492088	1.855419	0.000100
N60	N	-0.546800	1.879905	0.067404
H61	H	-0.587939	1.962803	0.067422
N62	N	-0.050252	1.768684	0.601623
N63	N	-0.133601	1.766813	0.590424
H64	H	-0.177391	1.829295	0.626689
N65	N	-0.110497	1.278445	0.000061
N66	N	-0.055790	1.253916	0.067365
H67	H	-0.014660	1.171011	0.067377
H68	H	0.304002	1.263169	0.591258
H69	H	0.243296	1.349816	0.742000
N70	N	-0.623156	1.735457	0.000070
N71	N	-0.590079	1.840309	0.000068
H72	H	-0.631203	1.923221	0.000067
H73	H	-0.023462	1.115501	-0.000046
H74	H	0.289892	0.898693	-0.000032
H75	H	-0.424039	1.177701	0.000040
H76	H	-0.309648	1.836222	0.000075
H77	H	-0.575111	1.290084	0.000051
H78	H	0.213688	1.072091	0.145304
N79	N	0.255883	1.331821	0.247735
N80	N	0.255882	1.331827	0.158004
H81	H	0.299680	1.269342	0.121751
H82	H	0.304008	1.263150	0.408914
N83	N	-0.150906	1.748164	0.000076
N84	N	-0.201824	1.850756	0.000094
H85	H	-0.175120	1.935493	0.000112
H86	H	0.052573	0.941844	-0.145219
N87	N	0.010439	1.682091	0.752348
N88	N	-0.043764	1.759415	0.707462
H89	H	-0.087570	1.821912	0.743694
N90	N	0.043165	0.934081	0.162230
N91	N	-0.037594	0.976117	0.176231
H92	H	-0.070334	0.949033	0.235185
H93	H	-0.037686	1.750743	0.408871
N94	N	0.010359	1.681918	0.247723
N95	N	-0.043893	1.759185	0.292590
H96	H	-0.087784	1.821554	0.256344
