data_functionalizedCrystal
_audit_creation_method	'MofGen! by Chris Wilmer'
_symmetry_space_group_name_H-M	'P1'
_symmetry_Int_Tables_number	1
_symmetry_cell_setting	triclinic
loop_
_symmetry_equiv_pos_as_xyz
  x,y,z
_cell_length_a	10.654562
_cell_length_b	9.130313
_cell_length_c	10.654550
_cell_angle_alpha	89.999890
_cell_angle_beta	95.512497
_cell_angle_gamma	90.003070
loop_
_atom_site_label
_atom_site_type_symbol
_atom_site_fract_x
_atom_site_fract_y
_atom_site_fract_z
O1	O	1.667825	0.121892	-0.176469
O2	O	1.302348	0.121873	-0.193259
O3	O	1.493490	0.121877	-0.002125
O4	O	1.476683	0.121887	-0.367603
O5	O	1.493487	-0.121721	-0.002130
O6	O	1.302346	-0.121726	-0.193264
O7	O	1.667822	-0.121707	-0.176474
Cu8	Cu	1.485084	-0.143959	-0.184869
Cu9	Cu	1.485087	0.144125	-0.184863
O10	O	1.476681	-0.121711	-0.367608
C11	C	1.255549	0.000071	-0.192025
C12	C	1.116107	0.000064	-0.188327
N13	N	1.485091	-0.346582	-0.184873
C14	C	1.569750	-0.423232	-0.100268
C15	C	1.569747	-0.576568	-0.100253
C16	C	1.400421	-0.576592	-0.269459
C17	C	1.400419	-0.423258	-0.269467
C18	C	1.654422	-0.346556	-0.015674
C19	C	1.739089	-0.423206	0.068937
C20	C	1.739086	-0.576543	0.068952
C21	C	1.654415	-0.653229	-0.015644
C22	C	1.050575	-0.132710	-0.186605
C23	C	0.919553	-0.132686	-0.183140
C24	C	0.919605	0.132899	-0.183125
C25	C	1.050626	0.132873	-0.186580
C26	C	1.116056	-0.265519	-0.188351
C27	C	1.050523	-0.398304	-0.186630
C28	C	0.919501	-0.398280	-0.183165
C29	C	0.854011	-0.265470	-0.181421
C30	C	1.714621	0.000098	-0.177708
C31	C	1.854064	0.000115	-0.181406
C32	C	1.492254	0.000080	0.044671
C33	C	1.488563	0.000085	0.184114
N34	N	1.485089	0.346748	-0.184850
C35	C	1.477916	0.000090	-0.414403
C36	C	1.481608	0.000094	-0.553847
C37	C	1.601103	0.000086	0.263595
C38	C	1.597627	0.000096	0.394615
C39	C	1.369059	0.000097	0.366662
C40	C	1.372537	0.000098	0.235644
C41	C	1.717129	0.000073	0.212064
C42	C	1.829680	0.000072	0.291546
C43	C	1.826203	0.000083	0.422567
C44	C	1.710176	0.000093	0.474106
H45	H	1.654435	-0.221701	-0.015681
H46	H	0.866273	0.241026	-0.181708
C47	C	0.847419	-0.544344	-0.181276
N48	N	0.793128	-0.654365	-0.179864
C49	C	1.307262	-0.338938	-0.362509
N50	N	1.237080	-0.275428	-0.432578
H51	H	1.719973	0.000060	0.105382
H52	H	1.924144	0.000101	0.249574
C53	C	1.654417	-0.821905	-0.015623
N54	N	1.654425	-0.948950	-0.015611
H55	H	1.808016	-0.638950	0.137853
H56	H	1.331487	-0.639040	-0.338335
C57	C	1.260183	-0.265558	-0.192158
N58	N	1.368740	-0.265586	-0.195026
H59	H	1.280896	0.000095	0.170928
C60	C	1.832205	-0.338848	0.162003
N61	N	1.902338	-0.275311	0.232106
C62	C	1.122714	0.278932	-0.188485
N63	N	1.177011	0.388947	-0.189919
H64	H	1.274595	0.000104	0.408637
H65	H	0.747324	-0.265461	-0.178597
C66	C	1.706359	0.000112	0.618235
N67	N	1.703485	0.000120	0.726791
C68	C	1.950009	0.000082	0.509994
N69	N	2.043264	0.000070	0.575841
H70	H	1.103855	-0.506432	-0.188041
