data_functionalizedCrystal
_audit_creation_method	'MofGen! by Chris Wilmer'
_symmetry_space_group_name_H-M	'P1'
_symmetry_Int_Tables_number	1
_symmetry_cell_setting	triclinic
loop_
_symmetry_equiv_pos_as_xyz
  x,y,z
_cell_length_a	17.699083
_cell_length_b	11.026607
_cell_length_c	16.176319
_cell_angle_alpha	89.996049
_cell_angle_beta	89.998611
_cell_angle_gamma	95.934516
loop_
_atom_site_label
_atom_site_type_symbol
_atom_site_fract_x
_atom_site_fract_y
_atom_site_fract_z
O1	O	1.025155	0.153399	-0.068626
O2	O	0.807518	0.173357	-0.068652
O3	O	0.898299	-0.013222	-0.068638
O4	O	0.934374	0.339978	-0.068640
O5	O	0.898282	-0.013234	0.068855
O6	O	0.807501	0.173345	0.068841
O7	O	1.025137	0.153387	0.068867
Cu8	Cu	0.916317	0.163365	0.081408
Cu9	Cu	0.916338	0.163379	-0.081193
O10	O	0.934357	0.339966	0.068853
C11	C	0.779214	0.172636	0.000091
C12	C	0.694902	0.170490	0.000080
C13	C	0.661328	0.280008	0.000080
C14	C	0.582106	0.277985	0.000091
C15	C	0.536460	0.166443	0.000096
C16	C	0.570039	0.056917	0.000099
C17	C	0.649259	0.058941	0.000094
C18	C	0.250554	0.048751	0.000119
C19	C	0.171329	0.046735	0.000121
C20	C	0.183402	0.267794	0.000116
C21	C	0.262621	0.269819	0.000111
C22	C	0.296194	0.160293	0.000118
C23	C	0.382094	0.162488	0.000108
C24	C	0.450561	0.164247	0.000100
C25	C	0.891635	-0.058419	0.000106
C26	C	0.871796	-0.193075	0.000101
C27	C	0.926576	-0.267042	0.000107
C28	C	0.906072	-0.406216	0.000101
C29	C	1.053441	0.154108	0.000122
C30	C	1.137754	0.156254	0.000127
C31	C	0.941021	0.385163	0.000107
C32	C	0.960860	0.519819	0.000106
N33	N	0.916308	0.163354	0.195773
N34	N	0.916352	0.163380	-0.195559
C35	C	0.956526	0.080771	0.239044
C36	C	0.956530	0.080770	0.325591
C37	C	0.916320	0.163358	0.368866
C38	C	0.876097	0.245946	0.325590
C39	C	0.876089	0.245940	0.239044
C40	C	0.876126	0.245969	0.674618
C41	C	0.876138	0.245970	0.761169
C42	C	0.956566	0.080798	0.761165
C43	C	0.956559	0.080792	0.674619
C44	C	0.916333	0.163375	0.631350
C45	C	0.916328	0.163374	0.537506
C46	C	0.916328	0.163366	0.462709
H47	H	0.299783	0.360648	0.000103
H48	H	0.156058	0.356975	0.000115
H49	H	0.843990	-0.445918	0.000088
O50	O	0.549616	0.384483	0.000053
C51	C	0.569951	0.603965	0.000093
C52	C	0.606844	0.483442	0.000115
H53	H	0.616202	0.684005	0.000161
H54	H	0.533184	0.608632	-0.057456
H55	H	0.533144	0.608477	0.057625
H56	H	0.643687	0.478850	-0.057378
H57	H	0.643565	0.478826	0.057702
O58	O	0.995470	0.000504	0.632455
C59	C	1.030742	-0.073178	0.499126
C60	C	0.986751	0.017956	0.546772
H61	H	1.023695	-0.059117	0.429843
H62	H	1.093546	-0.057763	0.515971
H63	H	1.007507	-0.170193	0.516301
H64	H	1.009921	0.115007	0.529623
H65	H	0.923952	0.002434	0.529923
H66	H	0.134166	-0.044102	0.000127
O67	O	0.525734	-0.051468	0.000248
C68	C	0.491216	-0.241074	0.071452
C69	C	0.541420	-0.118357	0.071400
H70	H	0.503891	-0.295200	0.128964
H71	H	0.428814	-0.223786	0.071505
H72	H	0.503813	-0.295124	0.013885
H73	H	0.528889	-0.064244	0.128958
H74	H	0.603806	-0.135731	0.071304
H75	H	0.809717	-0.232783	0.000088
O76	O	0.681841	-0.047476	-0.000057
C77	C	0.695732	-0.235829	-0.071261
C78	C	0.658799	-0.115342	-0.071207
H79	H	0.677104	-0.290744	-0.128771
H80	H	0.760197	-0.215294	-0.071317
H81	H	0.677193	-0.290688	-0.013693
H82	H	0.677277	-0.060424	-0.128766
H83	H	0.594339	-0.135963	-0.071109
O84	O	0.995600	0.000426	0.197138
C85	C	1.075410	-0.163364	0.206278
C86	C	1.031179	-0.072453	0.253836
H87	H	1.104200	-0.222292	0.252097
H88	H	1.034514	-0.223985	0.165792
H89	H	1.120308	-0.111048	0.165728
H90	H	0.986280	-0.124669	0.294430
H91	H	1.072122	-0.011833	0.294270
O92	O	1.000647	-0.219738	-0.000033
C93	C	1.120823	-0.205884	-0.071229
C94	C	1.036947	-0.259510	-0.071182
H95	H	1.150200	-0.238039	-0.128739
H96	H	1.124207	-0.102073	-0.071282
H97	H	1.150171	-0.237907	-0.013660
H98	H	1.007548	-0.227580	-0.128742
H99	H	1.033618	-0.363315	-0.071086
O100	O	1.034937	-0.432890	-0.000029
C101	C	1.155117	-0.419052	-0.071216
C102	C	1.071239	-0.472665	-0.071176
H103	H	1.184495	-0.451209	-0.128724
H104	H	1.158507	-0.315241	-0.071267
H105	H	1.184459	-0.451083	-0.013645
H106	H	1.041845	-0.440728	-0.128737
H107	H	1.067903	-0.576470	-0.071082
H108	H	0.989277	0.013523	0.360821
H109	H	0.277879	-0.040432	0.000126
H110	H	0.989318	0.013551	0.796403
O111	O	0.837003	0.326240	0.803080
C112	C	0.757249	0.490106	0.793957
C113	C	0.801520	0.399255	0.746390
H114	H	0.728562	0.549180	0.748144
H115	H	0.712284	0.437862	0.834464
H116	H	0.798178	0.550593	0.834488
H117	H	0.760649	0.338745	0.705815
H118	H	0.846495	0.451574	0.705936
H119	H	0.843374	0.313212	0.639395
O120	O	0.837103	0.326127	0.367752
C121	C	0.801435	0.399299	0.501079
C122	C	0.845640	0.308442	0.453436
H123	H	0.808308	0.385015	0.570363
H124	H	0.824530	0.496464	0.484113
H125	H	0.738688	0.383624	0.484024
H126	H	0.908393	0.324005	0.470466
H127	H	0.822483	0.211309	0.470407
O128	O	0.837122	0.326332	0.197045
C129	C	0.821480	0.537342	0.170587
C130	C	0.865688	0.446436	0.218186
H131	H	0.844548	0.634465	0.187675
H132	H	0.828393	0.523256	0.101288
H133	H	0.758727	0.521592	0.187604
H134	H	0.928456	0.462130	0.201239
H135	H	0.858711	0.460543	0.287474
H136	H	0.698488	0.370838	0.000075
