data_functionalizedCrystal
_audit_creation_method	'MofGen! by Chris Wilmer'
_symmetry_space_group_name_H-M	'P1'
_symmetry_Int_Tables_number	1
_symmetry_cell_setting	triclinic
loop_
_symmetry_equiv_pos_as_xyz
  x,y,z
_cell_length_a	12.759401
_cell_length_b	16.625545
_cell_length_c	12.759393
_cell_angle_alpha	89.966614
_cell_angle_beta	89.979527
_cell_angle_gamma	90.027083
loop_
_atom_site_label
_atom_site_type_symbol
_atom_site_fract_x
_atom_site_fract_y
_atom_site_fract_z
Zn1	Zn	1.606182	-0.320925	-0.594003
Zn2	Zn	2.106182	0.179075	-0.094003
Zn3	Zn	1.606042	-0.455781	-0.418316
Zn4	Zn	2.106042	0.044219	0.081684
Zn5	Zn	1.430482	-0.320970	-0.418338
Zn6	Zn	1.930482	0.179030	0.081662
Zn7	Zn	1.430440	-0.455723	-0.593953
Zn8	Zn	1.930440	0.044277	-0.093953
O9	O	1.518286	-0.388350	-0.506153
O10	O	2.018286	0.111650	-0.006153
O11	O	1.753185	-0.338820	-0.570709
O12	O	2.253185	0.161180	-0.070709
O13	O	1.582712	-0.437941	-0.271298
O14	O	2.082712	0.062059	0.228702
O15	O	1.453866	-0.208131	-0.441671
O16	O	1.953866	0.291869	0.058329
O17	O	1.753081	-0.437898	-0.441633
O18	O	2.253081	0.062102	0.058367
O19	O	1.582952	-0.208099	-0.570731
O20	O	2.082952	0.291901	-0.070731
O21	O	1.453730	-0.338895	-0.271314
O22	O	1.953730	0.161105	0.228686
O23	O	1.283456	-0.338839	-0.441622
O24	O	1.783456	0.161161	0.058378
O25	O	1.453793	-0.437799	-0.740981
O26	O	1.953793	0.062201	-0.240981
O27	O	1.283424	-0.437842	-0.570646
O28	O	1.783424	0.062158	-0.070646
O29	O	1.582911	-0.338764	-0.741018
O30	O	2.082911	0.161236	-0.241018
O31	O	1.582671	-0.568606	-0.441585
O32	O	2.082671	-0.068606	0.058415
O33	O	1.453657	-0.568563	-0.570624
O34	O	1.953657	-0.068563	-0.070624
C35	C	1.245319	-0.388340	-0.506132
C36	C	1.745319	0.111660	-0.006132
C37	C	1.128542	-0.388355	-0.506148
C38	C	1.628542	0.111645	-0.006148
C39	C	1.073692	-0.439984	-0.573225
C40	C	1.573692	0.060016	-0.073225
C41	C	0.963968	-0.439988	-0.573245
C42	C	1.463968	0.060012	-0.073245
C43	C	0.963955	-0.336730	-0.439104
C44	C	1.463955	0.163270	0.060896
C45	C	1.073677	-0.336723	-0.439089
C46	C	1.573677	0.163277	0.060911
C47	C	1.518172	-0.597841	-0.506120
C48	C	2.018172	-0.097841	-0.006120
C49	C	1.518220	-0.687462	-0.506141
C50	C	2.018220	-0.187462	-0.006141
C51	C	1.518260	-0.760244	-0.506161
C52	C	2.018260	-0.260244	-0.006161
C53	C	1.518322	-0.851553	-0.506185
C54	C	2.018322	-0.351553	-0.006185
C55	C	1.518376	-0.924329	-0.506198
C56	C	2.018376	-0.424329	-0.006198
C57	C	1.518436	-1.015643	-0.506219
C58	C	2.018436	-0.515643	-0.006219
C59	C	1.792320	-0.388360	-0.506174
C60	C	2.292320	0.111640	-0.006174
C61	C	1.909096	-0.388365	-0.506183
C62	C	2.409096	0.111635	-0.006183
C63	C	1.518363	-0.388270	-0.780186
C64	C	2.018363	0.111730	-0.280186
C65	C	1.518395	-0.388237	-0.896963
C66	C	2.018395	0.111763	-0.396963
C67	C	1.518430	-0.178041	-0.506209
C68	C	2.018430	0.321959	-0.006209
C69	C	1.518491	-0.088420	-0.506233
C70	C	2.018491	0.411580	-0.006233
C71	C	1.585654	-0.336630	-1.061577
C72	C	2.085654	0.163370	-0.561577
C73	C	1.585633	-0.336661	-0.951853
C74	C	2.085633	0.163339	-0.451853
C75	C	1.451181	-0.439790	-0.951803
C76	C	1.951181	0.060210	-0.451803
C77	C	1.451207	-0.439762	-1.061525
C78	C	1.951207	0.060238	-0.561525
C79	C	1.518271	-0.388371	-0.233185
C80	C	2.018271	0.111629	0.266815
C81	C	1.518442	-0.388177	-0.116409
C82	C	2.018442	0.111823	0.383591
H83	H	0.919313	-0.482028	-0.627868
H84	H	1.419313	0.017972	-0.127868
O85	O	0.904780	-0.281069	-0.366742
O86	O	1.404780	0.218931	0.133258
H87	H	0.819268	-0.289759	-0.378002
H88	H	1.319268	0.210241	0.121998
O89	O	1.378706	-0.495363	-1.120669
O90	O	1.878706	0.004637	-0.620669
H91	H	1.390030	-0.486682	-1.206186
H92	H	1.890030	0.013318	-0.706186
H93	H	1.396439	-0.481787	-0.907103
H94	H	1.896439	0.018213	-0.407103
O95	O	1.132873	-0.495660	-0.645561
O96	O	1.632873	0.004340	-0.145561
H97	H	1.076294	-0.531555	-0.692215
H98	H	1.576294	-0.031555	-0.192215
H99	H	1.118338	-0.294675	-0.384467
H100	H	1.618338	0.205325	0.115533
O101	O	1.658165	-0.281001	-1.120789
O102	O	2.158165	0.218999	-0.620789
H103	H	1.740610	-0.294841	-1.099752
H104	H	2.240610	0.205159	-0.599752
O105	O	1.658125	-0.281064	-0.892708
O106	O	2.158125	0.218936	-0.392708
H107	H	1.704874	-0.245189	-0.949310
H108	H	2.204874	0.254811	-0.449310
