data_functionalizedCrystal
_audit_creation_method	'MofGen! by Chris Wilmer'
_symmetry_space_group_name_H-M	'P1'
_symmetry_Int_Tables_number	1
_symmetry_cell_setting	triclinic
loop_
_symmetry_equiv_pos_as_xyz
  x,y,z
_cell_length_a	10.489741
_cell_length_b	14.519709
_cell_length_c	12.996460
_cell_angle_alpha	90.007090
_cell_angle_beta	90.002874
_cell_angle_gamma	84.109659
loop_
_atom_site_label
_atom_site_type_symbol
_atom_site_fract_x
_atom_site_fract_y
_atom_site_fract_z
O1	O	-1.692699	-0.130116	-0.085506
O2	O	-1.442699	0.119884	0.164494
O3	O	-1.192699	0.369884	0.414494
O4	O	-0.942699	0.619884	0.664494
O5	O	-1.321376	-0.142329	-0.085522
O6	O	-1.071376	0.107671	0.164478
O7	O	-0.821376	0.357671	0.414478
O8	O	-0.571376	0.607671	0.664478
O9	O	-1.516883	-0.002038	-0.085504
O10	O	-1.266883	0.247962	0.164496
O11	O	-1.016883	0.497962	0.414496
O12	O	-0.766883	0.747962	0.664496
O13	O	-1.497193	-0.270408	-0.085524
O14	O	-1.247193	-0.020408	0.164476
O15	O	-0.997193	0.229592	0.414476
O16	O	-0.747193	0.479592	0.664476
O17	O	-1.516862	-0.002030	0.085630
O18	O	-1.266862	0.247970	0.335630
O19	O	-1.016862	0.497970	0.585630
O20	O	-0.766862	0.747970	0.835630
O21	O	-1.321356	-0.142322	0.085612
O22	O	-1.071356	0.107678	0.335612
O23	O	-0.821356	0.357678	0.585612
O24	O	-0.571356	0.607678	0.835612
O25	O	-1.692679	-0.130108	0.085628
O26	O	-1.442679	0.119892	0.335628
O27	O	-1.192679	0.369892	0.585628
O28	O	-0.942679	0.619892	0.835628
Cu29	Cu	-1.507015	-0.136214	0.101246
Cu30	Cu	-1.257015	0.113786	0.351246
Cu31	Cu	-1.007015	0.363786	0.601246
Cu32	Cu	-0.757015	0.613786	0.851246
Cu33	Cu	-1.507040	-0.136224	-0.101140
Cu34	Cu	-1.257040	0.113776	0.148860
Cu35	Cu	-1.007040	0.363776	0.398860
Cu36	Cu	-0.757040	0.613776	0.648860
O37	O	-1.497172	-0.270400	0.085610
O38	O	-1.247172	-0.020400	0.335610
O39	O	-0.997172	0.229600	0.585610
O40	O	-0.747172	0.479600	0.835610
C41	C	-1.273844	-0.141403	0.000043
C42	C	-1.023844	0.108597	0.250043
C43	C	-0.773844	0.358597	0.500043
C44	C	-0.523844	0.608597	0.750043
C45	C	-1.132243	-0.138643	0.000037
C46	C	-0.882243	0.111357	0.250037
C47	C	-0.632243	0.361357	0.500037
C48	C	-0.382243	0.611357	0.750037
C49	C	-1.515955	0.032331	0.000063
C50	C	-1.265955	0.282331	0.250063
C51	C	-1.015955	0.532331	0.500063
C52	C	-0.765955	0.782331	0.750063
C53	C	-1.513205	0.134727	0.000063
C54	C	-1.263205	0.384727	0.250063
C55	C	-1.013205	0.634727	0.500063
C56	C	-0.763205	0.884727	0.750063
C57	C	-1.740211	-0.131035	0.000061
C58	C	-1.490211	0.118965	0.250061
C59	C	-1.240211	0.368965	0.500061
C60	C	-0.990211	0.618965	0.750061
C61	C	-1.881812	-0.133794	0.000060
C62	C	-1.631812	0.116206	0.250060
C63	C	-1.381812	0.366206	0.500060
C64	C	-1.131812	0.616206	0.750060
C65	C	-1.065034	-0.049380	0.000053
C66	C	-0.815034	0.200620	0.250053
C67	C	-0.565034	0.450620	0.500053
C68	C	-0.315034	0.700620	0.750053
C69	C	-0.972477	-0.091551	-0.084326
C70	C	-0.722477	0.158449	0.165674
C71	C	-0.472477	0.408449	0.415674
C72	C	-0.222477	0.658449	0.665674
C73	C	-0.972491	-0.091564	0.084399
C74	C	-0.722491	0.158436	0.334399
C75	C	-0.472491	0.408436	0.584399
C76	C	-0.222491	0.658436	0.834399
C77	C	-1.041552	-0.180851	-0.084411
C78	C	-0.791552	0.069149	0.165589
C79	C	-0.541552	0.319149	0.415589
C80	C	-0.291552	0.569149	0.665589
C81	C	-1.041575	-0.180852	0.084389
C82	C	-0.791575	0.069148	0.334389
C83	C	-0.541575	0.319148	0.584389
C84	C	-0.291575	0.569148	0.834389
C85	C	-0.949046	-0.223088	-0.000010
C86	C	-0.699046	0.026912	0.249990
C87	C	-0.449046	0.276912	0.499990
C88	C	-0.199046	0.526912	0.749990
C89	C	-1.498100	-0.304768	0.000041
C90	C	-1.248100	-0.054768	0.250041
C91	C	-0.998100	0.195232	0.500041
C92	C	-0.748100	0.445232	0.750041
C93	C	-1.500850	-0.407165	0.000034
C94	C	-1.250850	-0.157165	0.250034
C95	C	-1.000850	0.092835	0.500034
C96	C	-0.750850	0.342835	0.750034
N97	N	-1.507008	-0.136207	0.243593
N98	N	-1.257008	0.113793	0.493593
N99	N	-1.007008	0.363793	0.743593
N100	N	-0.757008	0.613793	0.993593
C101	C	-1.503082	0.509678	0.000036
C102	C	-1.253082	0.759678	0.250036
C103	C	-1.003082	1.009678	0.500036
C104	C	-0.753082	1.259678	0.750036
C105	C	-1.505893	0.405355	0.000044
C106	C	-1.255893	0.655355	0.250044
C107	C	-1.005893	0.905355	0.500044
C108	C	-0.755893	1.155355	0.750044
C109	C	-1.508143	0.322206	0.000051
C110	C	-1.258143	0.572206	0.250051
C111	C	-1.008143	0.822206	0.500051
C112	C	-0.758143	1.072206	0.750051
C113	C	-1.510955	0.217876	0.000057
C114	C	-1.260955	0.467876	0.250057
C115	C	-1.010955	0.717876	0.500057
C116	C	-0.760955	0.967876	0.750057
N117	N	-1.507057	-0.136223	-0.243487
N118	N	-1.257057	0.113777	0.006513
N119	N	-1.007057	0.363777	0.256513
N120	N	-0.757057	0.613777	0.506513
C121	C	-1.507038	-0.136224	0.663407
C122	C	-1.257038	0.113776	0.913407
C123	C	-1.007038	0.363776	1.163407
C124	C	-0.757038	0.613776	1.413407
C125	C	-1.507026	-0.136223	0.546602
C126	C	-1.257026	0.113777	0.796602
C127	C	-1.007026	0.363777	1.046602
C128	C	-0.757026	0.613777	1.296602
C129	C	-1.507023	-0.136216	0.453504
C130	C	-1.257023	0.113784	0.703504
C131	C	-1.007023	0.363784	0.953504
C132	C	-0.757023	0.613784	1.203504
C133	C	-1.507010	-0.136213	0.336691
C134	C	-1.257010	0.113787	0.586691
C135	C	-1.007010	0.363787	0.836691
C136	C	-0.757010	0.613787	1.086691
H137	H	-1.115488	0.024000	-0.000047
H138	H	-0.865488	0.274000	0.249953
H139	H	-0.615488	0.524000	0.499953
H140	H	-0.365488	0.774000	0.749953
H141	H	-0.941865	-0.053785	-0.155658
H142	H	-0.691865	0.196215	0.094342
H143	H	-0.441865	0.446215	0.344342
H144	H	-0.191865	0.696215	0.594342
H145	H	-0.941898	-0.053776	0.155735
H146	H	-0.691898	0.196224	0.405735
H147	H	-0.441898	0.446224	0.655735
H148	H	-0.191898	0.696224	0.905735
Cl149	Cl	-1.088545	-0.239123	-0.194675
Cl150	Cl	-0.838545	0.010877	0.055325
Cl151	Cl	-0.588545	0.260877	0.305325
Cl152	Cl	-0.338545	0.510877	0.555325
H153	H	-0.898856	-0.296546	-0.000062
H154	H	-0.648856	-0.046546	0.249938
H155	H	-0.398856	0.203454	0.499938
H156	H	-0.148856	0.453454	0.749938
H157	H	-1.072219	-0.218587	0.155724
H158	H	-0.822219	0.031413	0.405724
H159	H	-0.572219	0.281413	0.655724
H160	H	-0.322219	0.531413	0.905724
