data_functionalizedCrystal
_audit_creation_method	'MofGen! by Chris Wilmer'
_symmetry_space_group_name_H-M	'P1'
_symmetry_Int_Tables_number	1
_symmetry_cell_setting	triclinic
loop_
_symmetry_equiv_pos_as_xyz
  x,y,z
_cell_length_a	12.837943
_cell_length_b	17.699105
_cell_length_c	11.892295
_cell_angle_alpha	86.106057
_cell_angle_beta	85.697121
_cell_angle_gamma	90.939596
loop_
_atom_site_label
_atom_site_type_symbol
_atom_site_fract_x
_atom_site_fract_y
_atom_site_fract_z
O1	O	1.368342	-0.201078	0.094013
O2	O	1.868342	0.298922	0.594013
O3	O	1.066559	-0.191361	0.094018
O4	O	1.566559	0.308639	0.594018
O5	O	1.225967	-0.086656	0.093991
O6	O	1.725967	0.413344	0.593991
O7	O	1.208934	-0.305783	0.094040
O8	O	1.708934	0.194217	0.594040
O9	O	1.239226	-0.077938	-0.094013
O10	O	1.739226	0.422062	0.405987
O11	O	1.079819	-0.182643	-0.093986
O12	O	1.579819	0.317357	0.406014
O13	O	1.381602	-0.192361	-0.093991
O14	O	1.881602	0.307639	0.406009
Zn15	Zn	1.232816	-0.186118	-0.123838
Zn16	Zn	1.732816	0.313882	0.376162
Zn17	Zn	1.215345	-0.197604	0.123865
Zn18	Zn	1.715345	0.302396	0.623865
O19	O	1.222194	-0.297066	-0.093964
O20	O	1.722194	0.202934	0.406036
C21	C	1.034576	-0.183719	0.000016
C22	C	1.534576	0.316281	0.500016
C23	C	0.919523	-0.173928	0.000017
C24	C	1.419523	0.326072	0.500017
C25	C	1.231983	-0.054055	-0.000015
C26	C	1.731983	0.445945	0.499985
C27	C	1.230142	0.030098	-0.000027
C28	C	1.730142	0.530098	0.499973
N29	N	1.244746	-0.178279	-0.292890
N30	N	1.744746	0.321721	0.207110
C31	C	0.678280	-0.291633	0.000028
C32	C	1.178280	0.208367	0.500028
C33	C	0.570176	-0.282437	0.000027
C34	C	1.070176	0.217563	0.500027
C35	C	0.595210	-0.146341	0.000009
C36	C	1.095210	0.353659	0.500009
C37	C	0.703314	-0.155537	0.000009
C38	C	1.203314	0.344463	0.500009
C39	C	0.744844	-0.228185	0.000020
C40	C	1.244844	0.271815	0.500020
C41	C	0.852950	-0.237381	0.000028
C42	C	1.352950	0.262619	0.500028
C43	C	0.877982	-0.101285	0.000001
C44	C	1.377982	0.398715	0.500001
C45	C	0.769879	-0.092089	0.000001
C46	C	1.269879	0.407911	0.500001
C47	C	1.413584	-0.200002	0.000013
C48	C	1.913584	0.299998	0.500013
C49	C	1.528637	-0.209793	0.000020
C50	C	2.028637	0.290207	0.500020
C51	C	1.211642	0.541882	0.102514
C52	C	1.711642	1.041882	0.602514
C53	C	1.213372	0.462812	0.102507
C54	C	1.713372	0.962812	0.602507
C55	C	1.221463	0.428043	0.000020
C56	C	1.721463	0.928043	0.500020
C57	C	1.227835	0.472348	-0.102466
C58	C	1.727835	0.972348	0.397534
C59	C	1.226113	0.551416	-0.102457
C60	C	1.726113	1.051416	0.397543
C61	C	1.234784	0.153473	-0.102505
C62	C	1.734784	0.653473	0.397495
C63	C	1.236503	0.074398	-0.102506
C64	C	1.736503	0.574398	0.397494
C65	C	1.222043	0.064869	0.102459
C66	C	1.722043	0.564869	0.602459
C67	C	1.220321	0.143938	0.102468
C68	C	1.720321	0.643938	0.602468
C69	C	1.226698	0.188236	-0.000017
C70	C	1.726698	0.688236	0.499983
C71	C	1.224824	0.273972	-0.000007
C72	C	1.724824	0.773972	0.499993
C73	C	1.223330	0.342307	0.000009
C74	C	1.723330	0.842307	0.500009
C75	C	1.216176	0.670334	0.000038
C76	C	1.716176	1.170334	0.500038
C77	C	1.218011	0.586181	0.000037
C78	C	1.718011	1.086181	0.500037
C79	C	1.120281	-0.260011	-0.529567
C80	C	1.620281	0.239989	-0.029567
C81	C	1.128645	-0.254526	-0.647907
C82	C	1.628645	0.245474	-0.147907
C83	C	1.269843	-0.161830	-0.647911
C84	C	1.769843	0.338170	-0.147911
C85	C	1.261479	-0.167315	-0.529572
C86	C	1.761479	0.332685	-0.029572
C87	C	1.186694	-0.216406	-0.470404
C88	C	1.686694	0.283594	0.029596
C89	C	1.178326	-0.221886	-0.352062
C90	C	1.678326	0.278114	0.147938
C91	C	1.319528	-0.129194	-0.352068
C92	C	1.819528	0.370806	0.147932
C93	C	1.327892	-0.123709	-0.470408
C94	C	1.827892	0.376291	0.029592
N95	N	1.203423	-0.205437	0.292917
N96	N	1.703423	0.294563	0.792917
H97	H	0.886761	-0.296534	0.000035
H98	H	1.386761	0.203466	0.500035
H99	H	1.234430	0.444032	-0.185913
H100	H	1.734430	0.944032	0.314087
H101	H	0.712094	-0.350786	0.000038
H102	H	1.212094	0.149214	0.500038
C103	C	1.241783	0.202191	-0.215241
C104	C	1.741783	0.702191	0.284759
N105	N	1.247050	0.238887	-0.300160
N106	N	1.747050	0.738887	0.199840
C107	C	1.352103	-0.107836	-0.713016
C108	C	1.852103	0.392164	-0.213016
N109	N	1.414061	-0.067167	-0.762055
N110	N	1.914061	0.432833	-0.262055
H111	H	0.515982	-0.334103	0.000031
H112	H	1.015982	0.165897	0.500031
H113	H	1.388783	-0.083742	-0.518596
H114	H	1.888783	0.416258	-0.018596
H115	H	0.932191	-0.049622	0.000003
H116	H	1.432191	0.450378	0.500003
H117	H	0.561384	-0.087190	-0.000093
H118	H	1.061384	0.412810	0.499907
H119	H	1.373604	-0.093685	-0.303883
H120	H	1.873604	0.406315	0.196117
C121	C	1.233115	0.600145	-0.215191
C122	C	1.733115	1.100145	0.284809
N123	N	1.238392	0.636847	-0.300105
N124	N	1.738392	1.136847	0.199895
H125	H	0.736050	-0.032940	-0.000021
H126	H	1.236050	0.467060	0.499979
C127	C	1.202752	0.580121	0.215260
C128	C	1.702752	1.080121	0.715260
N129	N	1.196064	0.608921	0.300184
N130	N	1.696064	1.108921	0.800184
H131	H	1.117430	-0.261856	-0.303888
H132	H	1.617430	0.238144	0.196112
C133	C	1.206366	0.414086	0.215241
C134	C	1.706366	0.914086	0.715241
N135	N	1.201089	0.377386	0.300157
N136	N	1.701089	0.877386	0.800157
C137	C	1.038005	-0.314000	-0.464480
C138	C	1.538005	0.186000	0.035520
N139	N	0.976031	-0.354664	-0.415458
N140	N	1.476031	0.145336	0.084542
C141	C	1.211462	0.182180	0.215211
C142	C	1.711462	0.682180	0.715211
N143	N	1.204809	0.210984	0.300132
N144	N	1.704809	0.710984	0.800132
C145	C	1.055581	-0.302493	-0.712983
C146	C	1.555581	0.197507	-0.212983
N147	N	1.000545	-0.338623	-0.761998
N148	N	1.500545	0.161377	-0.261998
C149	C	1.215044	0.016134	0.215196
C150	C	1.715044	0.516134	0.715196
N151	N	1.209773	-0.020572	0.300107
N152	N	1.709773	0.479428	0.800107
H153	H	1.243086	0.046092	-0.185968
H154	H	1.743086	0.546092	0.314032
