data_functionalizedCrystal
_audit_creation_method	'MofGen! by Chris Wilmer'
_symmetry_space_group_name_H-M	'P1'
_symmetry_Int_Tables_number	1
_symmetry_cell_setting	triclinic
loop_
_symmetry_equiv_pos_as_xyz
  x,y,z
_cell_length_a	6.817900
_cell_length_b	12.200722
_cell_length_c	16.305550
_cell_angle_alpha	94.304570
_cell_angle_beta	103.455250
_cell_angle_gamma	107.140920
loop_
_atom_site_label
_atom_site_type_symbol
_atom_site_fract_x
_atom_site_fract_y
_atom_site_fract_z
V1	V	-4.044939	-0.159681	-0.263122
O2	O	-4.013059	0.006677	-0.258021
O3	O	-4.014650	-0.315663	-0.261411
O4	O	-3.996109	-0.157662	-0.377837
O5	O	-4.031729	-0.152418	-0.140788
V6	V	-4.526276	-0.139731	-0.248479
O7	O	-4.310993	-0.203443	-0.295242
O8	O	-4.710419	-0.095969	-0.216358
O9	O	-4.333358	0.016251	-0.250190
O10	O	-4.675552	-0.306090	-0.253580
O11	O	-4.656882	-0.146995	-0.370812
O12	O	-4.351900	-0.141750	-0.133763
C13	C	-3.864071	-0.353675	-0.257283
C14	C	-3.920590	-0.481194	-0.256648
C15	C	-3.966483	-0.584753	-0.256125
C16	C	-4.024079	-0.714673	-0.255474
C17	C	-3.840418	-0.152127	-0.405796
C18	C	-3.881897	-0.151508	-0.499577
C19	C	-4.032703	-0.149111	-0.840321
C20	C	-3.795822	-0.141993	-0.799389
C21	C	-3.752760	-0.143111	-0.701894
C22	C	-3.957885	-0.150300	-0.671274
C23	C	-4.138181	-0.263591	-0.721964
C24	C	-4.179969	-0.262950	-0.819514
C25	C	-4.075136	-0.043843	-0.794418
C26	C	-4.027101	-0.042946	-0.696575
C27	C	-3.915615	-0.150976	-0.575736
C28	C	-4.074984	-0.148443	-0.935860
C29	C	-4.147280	0.054256	-0.254315
C30	C	-4.069999	0.181775	-0.254955
C31	C	-4.170933	-0.147289	-0.105800
C32	C	-4.108691	-0.147902	-0.012018
H33	H	-3.616727	-0.061656	-0.666825
C34	C	-4.346569	-0.276239	-0.696420
N35	N	-4.503524	-0.285765	-0.677177
C36	C	-4.075896	-0.371280	-0.699319
N37	N	-4.028969	-0.452389	-0.682265
H38	H	-3.896245	0.040850	-0.662150
H39	H	-4.174224	-0.041537	-0.675227
H40	H	-4.247693	-0.048050	-0.821237
H41	H	-3.680103	-0.060152	-0.811706
H42	H	-3.759586	-0.217623	-0.830943
C43	C	-4.143720	-0.370601	-0.860619
N44	N	-4.116403	-0.451684	-0.891575
C45	C	-3.938072	0.072124	-0.812408
N46	N	-3.834816	0.159465	-0.825958
H47	H	-3.695289	-0.219614	-0.685644
C48	C	-4.416386	-0.276381	-0.857340
N49	N	-4.594457	-0.286510	-0.885828
