data_functionalizedCrystal
_audit_creation_method	'MofGen! by Chris Wilmer'
_symmetry_space_group_name_H-M	'P1'
_symmetry_Int_Tables_number	1
_symmetry_cell_setting	triclinic
loop_
_symmetry_equiv_pos_as_xyz
  x,y,z
_cell_length_a	14.908783
_cell_length_b	16.959454
_cell_length_c	14.908308
_cell_angle_alpha	86.730321
_cell_angle_beta	90.211273
_cell_angle_gamma	93.311155
loop_
_atom_site_label
_atom_site_type_symbol
_atom_site_fract_x
_atom_site_fract_y
_atom_site_fract_z
Zn1	Zn	1.345315	-0.276463	0.587848
Zn2	Zn	1.353896	-0.400620	0.437496
Zn3	Zn	1.203629	-0.275608	0.428819
Zn4	Zn	1.194922	-0.415756	0.579118
O5	O	1.274441	-0.342112	0.508320
O6	O	1.472282	-0.286957	0.575188
O7	O	1.341198	-0.377345	0.310521
O8	O	1.222476	-0.165109	0.449936
O9	O	1.478586	-0.378174	0.464725
O10	O	1.326573	-0.165738	0.566774
O11	O	1.230797	-0.285499	0.304146
O12	O	1.076646	-0.300175	0.441472
O13	O	1.207637	-0.403971	0.706100
O14	O	1.070249	-0.403141	0.551896
O15	O	1.318131	-0.301633	0.712513
O16	O	1.332756	-0.513240	0.456260
O17	O	1.215958	-0.524361	0.560310
C18	C	1.040822	-0.353209	0.494796
C19	C	0.940878	-0.357976	0.489031
C20	C	0.746495	-0.272097	0.593400
C21	C	0.652588	-0.276574	0.587987
C22	C	0.659156	-0.371402	0.472788
C23	C	0.753062	-0.366925	0.478201
C24	C	0.796728	-0.317272	0.538510
C25	C	0.890637	-0.312800	0.543927
C26	C	0.897203	-0.407623	0.428724
C27	C	0.803296	-0.412099	0.423311
C28	C	1.274366	-0.547481	0.508301
C29	C	1.274415	-0.635336	0.508327
C30	C	1.213708	-1.012626	0.562497
C31	C	1.335419	-1.000987	0.454249
C32	C	1.335388	-0.918443	0.454239
C33	C	1.274515	-0.882986	0.508358
C34	C	1.213673	-0.930074	0.562487
C35	C	1.396222	-0.871348	0.400104
C36	C	1.396193	-0.788798	0.400091
C37	C	1.335324	-0.753340	0.454215
C38	C	1.274480	-0.800434	0.508347
C39	C	1.213608	-0.764977	0.562466
C40	C	1.152768	-0.812069	0.616604
C41	C	1.152804	-0.894616	0.616611
C42	C	1.335288	-0.670793	0.454208
C43	C	1.213573	-0.682425	0.562456
C44	C	1.508972	-0.330973	0.521898
C45	C	1.608915	-0.326226	0.527684
C46	C	1.260955	-0.354586	0.742844
C47	C	1.255209	-0.359902	0.842783
C48	C	1.274539	-0.135941	0.508361
C49	C	1.274581	-0.048083	0.508378
C50	C	1.287925	-0.329627	0.274712
C51	C	1.293846	-0.324080	0.174783
C52	C	1.359464	-0.263308	1.037261
C53	C	1.354068	-0.268299	1.131163
C54	C	1.239015	-0.374872	1.124493
C55	C	1.244412	-0.369880	1.030590
C56	C	1.304639	-0.314097	0.986978
C57	C	1.310040	-0.309110	0.893074
C58	C	1.194983	-0.415678	0.886404
C59	C	1.189586	-0.420670	0.980307
H60	H	0.782048	-0.231672	0.642510
O61	O	1.141808	-0.465127	0.837607
C62	C	1.160088	-0.544194	0.861698
H63	H	1.230437	-0.546144	0.891664
H64	H	1.155869	-0.580335	0.799493
H65	H	1.108740	-0.570040	0.913416
H66	H	0.611691	-0.239786	0.632682
O67	O	1.455383	-0.905661	0.347453
C68	C	1.509086	-0.846399	0.299685
H69	H	1.472416	-0.789164	0.294397
H70	H	1.522817	-0.866038	0.229414
H71	H	1.575451	-0.836074	0.336616
O72	O	1.407363	-0.219076	1.180112
C73	C	1.462316	-0.264202	1.237767
H74	H	1.429773	-0.326361	1.249990
H75	H	1.470581	-0.234942	1.304502
H76	H	1.531028	-0.267791	1.205434
H77	H	0.623587	-0.411817	0.423677
O78	O	0.946091	-0.451551	0.375530
C79	C	0.997448	-0.502815	0.429761
H80	H	1.007621	-0.477979	0.498764
H81	H	1.065578	-0.508270	0.396925
H82	H	0.960675	-0.563647	0.437447
O83	O	0.760827	-0.460424	0.364858
C84	C	0.703549	-0.516834	0.412824
H85	H	0.727793	-0.524223	0.485264
H86	H	0.704333	-0.575940	0.380132
H87	H	0.632206	-0.495956	0.411863
H88	H	1.103271	-0.932965	0.660686
H89	H	1.164006	-0.653561	0.606530
H90	H	1.359082	-0.263689	0.857566
H91	H	1.384819	-0.632455	0.410126
O92	O	1.093761	-0.777584	0.669277
C93	C	1.141552	-0.730426	0.730321
H94	H	1.212052	-0.752191	0.740037
H95	H	1.105000	-0.734712	0.797606
H96	H	1.146249	-0.666246	0.702683
O97	O	1.417990	-0.209058	0.995031
C98	C	1.465246	-0.165316	1.059551
H99	H	1.424572	-0.167884	1.124358
H100	H	1.476428	-0.101141	1.032983
H101	H	1.532948	-0.191551	1.073484
H102	H	1.164176	-1.050972	0.606577
H103	H	1.445733	-0.750461	0.356011
O104	O	1.180578	-0.429022	1.167009
C105	C	1.187549	-0.422511	1.260670
H106	H	1.256221	-0.394018	1.277515
H107	H	1.179354	-0.483899	1.296009
H108	H	1.132710	-0.384352	1.284224
O109	O	1.130960	-0.474776	1.022627
C110	C	1.042669	-0.460561	0.994479
H111	H	1.039634	-0.396258	0.968413
H112	H	0.994693	-0.472768	1.053660
H113	H	1.022286	-0.501161	0.938605
O114	O	0.932951	-0.264620	0.602627
C115	C	0.904886	-0.287880	0.690890
H116	H	0.836591	-0.321614	0.688766
H117	H	0.899374	-0.233187	0.731128
H118	H	0.955996	-0.327645	0.724147
H119	H	1.384973	-1.029861	0.410182
