data_functionalizedCrystal
_audit_creation_method	'MofGen! by Chris Wilmer'
_symmetry_space_group_name_H-M	'P1'
_symmetry_Int_Tables_number	1
_symmetry_cell_setting	triclinic
loop_
_symmetry_equiv_pos_as_xyz
  x,y,z
_cell_length_a	16.974800
_cell_length_b	22.610064
_cell_length_c	16.992695
_cell_angle_alpha	90.004106
_cell_angle_beta	92.978326
_cell_angle_gamma	86.351406
loop_
_atom_site_label
_atom_site_type_symbol
_atom_site_fract_x
_atom_site_fract_y
_atom_site_fract_z
O1	O	1.055459	-0.001354	-0.099874
O2	O	0.826059	0.009632	-0.112612
O3	O	0.939839	0.004178	0.007899
O4	O	0.941679	0.004099	-0.220384
O5	O	0.939819	-0.094190	0.007881
O6	O	0.826038	-0.088737	-0.112629
O7	O	1.055439	-0.099723	-0.099891
Zn8	Zn	0.940735	-0.109848	-0.106263
Zn9	Zn	0.940762	0.019757	-0.106240
O10	O	0.941658	-0.094269	-0.220402
C11	C	0.796560	-0.038140	-0.112138
C12	C	0.708692	-0.033933	-0.110689
N13	N	0.940723	-0.198299	-0.106278
C14	C	0.667405	-0.085578	-0.110017
C15	C	0.584844	-0.081626	-0.108643
C16	C	0.543572	-0.026028	-0.107948
C17	C	0.584865	0.025621	-0.108619
C18	C	0.667424	0.021668	-0.109986
C19	C	0.296658	-0.008457	-0.103852
C20	C	0.214093	-0.004508	-0.102486
C21	C	0.214078	-0.111755	-0.102509
C22	C	0.296638	-0.115703	-0.103882
C23	C	0.337924	-0.064054	-0.104548
N24	N	0.459182	-0.021987	-0.106547
N25	N	0.422313	-0.068095	-0.105944
C26	C	0.991147	-0.609358	-0.052886
C27	C	0.991151	-0.671278	-0.052880
O28	O	1.033991	-0.705350	-0.007496
N29	N	0.940760	-0.699838	-0.106224
C30	C	0.890357	-0.666475	-0.159571
O31	O	0.847496	-0.696454	-0.204942
C32	C	0.890350	-0.604556	-0.159572
C33	C	0.940750	-0.575999	-0.106231
C34	C	1.041542	-0.580801	0.000452
C35	C	1.041539	-0.518885	0.000445
C36	C	0.991141	-0.485526	-0.052900
C37	C	0.940747	-0.514083	-0.106237
C38	C	0.839944	-0.571194	-0.212915
C39	C	0.839941	-0.509271	-0.212911
C40	C	0.890340	-0.480714	-0.159570
C41	C	0.890347	-0.418809	-0.159589
N42	N	0.940737	-0.390249	-0.106246
C43	C	0.991134	-0.423607	-0.052901
C44	C	0.890375	-0.796510	-0.159563
C45	C	0.890386	-0.858428	-0.159566
C46	C	0.991178	-0.863226	-0.052874
C47	C	0.991171	-0.801307	-0.052876
C48	C	0.940766	-0.767949	-0.106220
C49	C	0.991125	-0.293579	-0.052920
C50	C	0.991120	-0.231658	-0.052934
C51	C	0.890325	-0.226865	-0.159622
C52	C	0.890333	-0.288781	-0.159612
C53	C	0.940735	-0.322137	-0.106254
O54	O	0.847526	-0.384699	-0.204948
O55	O	1.033981	-0.393620	-0.007530
C56	C	1.084938	-0.051949	-0.100365
C57	C	1.172806	-0.056153	-0.101813
C58	C	0.937463	-0.044893	0.037100
C59	C	0.930403	-0.044554	0.124136
N60	N	0.940781	0.108208	-0.106218
C61	C	0.944034	-0.045197	-0.249603
C62	C	0.951094	-0.045531	-0.336639
C63	C	0.998519	-0.047817	0.174453
C64	C	0.991881	-0.047494	0.256232
C65	C	0.917127	-0.043912	0.287693
C66	C	0.849007	-0.040647	0.237370
C67	C	0.855645	-0.040966	0.155592
C68	C	0.889612	-0.042586	0.531260
C69	C	0.882979	-0.042269	0.613044
C70	C	1.025853	-0.049114	0.631901
C71	C	1.032486	-0.049437	0.550121
C72	C	0.964365	-0.046169	0.499805
N73	N	0.910340	-0.043583	0.371284
N74	N	0.971153	-0.046494	0.416215
H75	H	0.551233	-0.123681	-0.108082
H76	H	0.822102	-0.039361	0.638655
H77	H	0.834144	-0.039925	0.490302
O78	O	1.071075	-0.051319	0.143766
C79	C	1.062332	-0.050887	0.060797
H80	H	1.001843	-0.066615	0.041519
H81	H	1.110473	-0.081751	0.035739
H82	H	1.067611	-0.003948	0.038041
H83	H	1.081313	-0.051773	0.672877
H84	H	1.032214	-0.890398	-0.009437
H85	H	0.849294	-0.199695	-0.203057
O86	O	0.776347	-0.037242	0.267834
C87	C	0.734505	-0.086191	0.242123
H88	H	0.759634	-0.104381	0.185428
H89	H	0.669384	-0.071612	0.230696
H90	H	0.740660	-0.122160	0.289452
H91	H	0.849355	-0.881675	-0.203010
O92	O	1.105163	-0.052895	0.519693
C93	C	1.163861	-0.055723	0.581641
H94	H	1.138196	-0.035864	0.637172
H95	H	1.215752	-0.029655	0.564608
H96	H	1.185102	-0.103934	0.593238
H97	H	0.800179	-0.038309	0.114624
H98	H	0.330237	-0.160976	-0.104444
H99	H	0.701002	-0.130851	-0.110589
O100	O	0.841391	-0.764199	-0.211469
C101	C	0.796909	-0.802690	-0.258533
H102	H	0.829390	-0.848376	-0.259390
H103	H	0.788801	-0.784424	-0.321159
H104	H	0.736569	-0.806396	-0.233109
O105	O	0.707489	0.071853	-0.110784
C106	C	0.682637	0.105674	-0.178305
H107	H	0.656669	0.075544	-0.225372
H108	H	0.735369	0.127472	-0.201982
H109	H	0.635779	0.141353	-0.162161
H110	H	0.180454	-0.153805	-0.101966
H111	H	1.047347	-0.050152	0.297198
H112	H	0.180491	0.040768	-0.101923
H113	H	1.032164	-0.208409	-0.009497
O114	O	0.790909	-0.598829	-0.264760
C115	C	0.746444	-0.556097	-0.311846
H116	H	0.743530	-0.511820	-0.279694
H117	H	0.684056	-0.571002	-0.323837
H118	H	0.775787	-0.550915	-0.370079
H119	H	0.551255	0.070890	-0.108047
H120	H	0.330263	0.033599	-0.104392
H121	H	1.032167	-0.320731	-0.009470
H122	H	1.082576	-0.495637	0.043882
H123	H	1.082581	-0.607956	0.043895
H124	H	1.032210	-0.778060	-0.009440
O125	O	0.841265	-0.316496	-0.211348
C126	C	0.762199	-0.297571	-0.198653
H127	H	0.757857	-0.280329	-0.135883
H128	H	0.723086	-0.336423	-0.207678
H129	H	0.741718	-0.260659	-0.242132
O130	O	0.791087	-0.476808	-0.264766
C131	C	0.836477	-0.443176	-0.313136
H132	H	0.896373	-0.436753	-0.281879
H133	H	0.804255	-0.398099	-0.325563
H134	H	0.845508	-0.467479	-0.371076
