data_functionalizedCrystal
_audit_creation_method	'MofGen! by Chris Wilmer'
_symmetry_space_group_name_H-M	'P1'
_symmetry_Int_Tables_number	1
_symmetry_cell_setting	triclinic
loop_
_symmetry_equiv_pos_as_xyz
  x,y,z
_cell_length_a	11.792241
_cell_length_b	9.065215
_cell_length_c	10.868271
_cell_angle_alpha	89.996624
_cell_angle_beta	89.991394
_cell_angle_gamma	95.395943
loop_
_atom_site_label
_atom_site_type_symbol
_atom_site_fract_x
_atom_site_fract_y
_atom_site_fract_z
O1	O	1.508014	-0.202225	0.102200
O2	O	1.841347	0.131108	0.435533
O3	O	2.174681	0.464442	0.768867
O4	O	1.177788	-0.223066	0.102228
O5	O	1.511122	0.110267	0.435562
O6	O	1.844455	0.443600	0.768895
O7	O	1.349729	0.002061	0.102208
O8	O	1.683062	0.335394	0.435542
O9	O	2.016395	0.668728	0.768875
O10	O	1.336074	-0.427352	0.102220
O11	O	1.669407	-0.094019	0.435553
O12	O	2.002740	0.239314	0.768887
O13	O	1.349743	0.002070	-0.102436
O14	O	1.683076	0.335403	0.230897
O15	O	2.016410	0.668737	0.564230
O16	O	1.177803	-0.223057	-0.102416
O17	O	1.511136	0.110276	0.230917
O18	O	1.844469	0.443609	0.564250
O19	O	1.508028	-0.202216	-0.102445
O20	O	1.841362	0.131117	0.230889
O21	O	2.174695	0.464451	0.564222
Zn22	Zn	1.342918	-0.212635	-0.134922
Zn23	Zn	1.676251	0.120698	0.198411
Zn24	Zn	2.009584	0.454031	0.531744
Zn25	Zn	1.342899	-0.212647	0.134706
Zn26	Zn	1.676232	0.120686	0.468039
Zn27	Zn	2.009566	0.454020	0.801373
O28	O	1.336088	-0.427343	-0.102425
O29	O	1.669421	-0.094010	0.230909
O30	O	2.002755	0.239323	0.564242
C31	C	1.135497	-0.221753	-0.000090
C32	C	1.468831	0.111581	0.333243
C33	C	1.802164	0.444914	0.666576
C34	C	1.009462	-0.217834	-0.000080
C35	C	1.342795	0.115499	0.333254
C36	C	1.676129	0.448833	0.666587
N37	N	1.342939	-0.212626	-0.318936
N38	N	1.676272	0.120707	0.014397
N39	N	2.009606	0.454040	0.347730
C40	C	1.348424	0.057040	-0.000113
C41	C	1.681758	0.390373	0.333221
C42	C	2.015091	0.723707	0.666554
C43	C	1.344503	0.220846	-0.000108
C44	C	1.677836	0.554180	0.333225
C45	C	2.011169	0.887513	0.666558
C46	C	0.778710	-0.210629	-0.000115
C47	C	1.112043	0.122704	0.333218
C48	C	1.445376	0.456038	0.666552
C49	C	0.907117	-0.214632	-0.000096
C50	C	1.240450	0.118701	0.333238
C51	C	1.573784	0.452034	0.666571
C52	C	1.550319	-0.203530	-0.000123
C53	C	1.883653	0.129804	0.333210
C54	C	2.216986	0.463137	0.666543
C55	C	1.676355	-0.207448	-0.000126
C56	C	2.009688	0.125885	0.333207
C57	C	2.343021	0.459219	0.666541
C58	C	1.337392	-0.482322	-0.000101
C59	C	1.670726	-0.148989	0.333232
C60	C	2.004059	0.184344	0.666566
C61	C	1.341314	-0.646129	-0.000097
C62	C	1.674647	-0.312795	0.333236
C63	C	2.007981	0.020538	0.666570
N64	N	1.342887	-0.212644	0.318720
N65	N	1.676220	0.120689	0.652053
N66	N	2.009553	0.454022	0.985387
C67	C	1.342895	-0.212644	0.430058
C68	C	1.676228	0.120689	0.763391
C69	C	2.009561	0.454023	1.096724
C70	C	1.342916	-0.212638	0.569735
C71	C	1.676249	0.120695	0.903069
C72	C	2.009582	0.454028	1.236402
