data_functionalizedCrystal
_audit_creation_method	'MofGen! by Chris Wilmer'
_symmetry_space_group_name_H-M	'P1'
_symmetry_Int_Tables_number	1
_symmetry_cell_setting	triclinic
loop_
_symmetry_equiv_pos_as_xyz
  x,y,z
_cell_length_a	14.809374
_cell_length_b	23.196402
_cell_length_c	23.196401
_cell_angle_alpha	59.998963
_cell_angle_beta	81.053453
_cell_angle_gamma	55.128929
loop_
_atom_site_label
_atom_site_type_symbol
_atom_site_fract_x
_atom_site_fract_y
_atom_site_fract_z
Zr1	Zr	0.880547	0.631048	-0.163135
O2	O	0.734560	0.751331	-0.240686
O3	O	0.925302	0.510774	-0.139363
O4	O	0.925263	0.631065	-0.259636
O5	O	0.734627	0.631024	-0.025537
O6	O	1.075690	0.631067	-0.274582
O7	O	0.734599	0.631041	-0.120413
O8	O	1.075760	0.415890	-0.059435
O9	O	0.734557	0.846201	-0.240684
O10	O	1.056649	0.560243	-0.140376
O11	O	0.944408	0.560229	-0.058417
O12	O	0.944361	0.701855	-0.200024
O13	O	0.832120	0.701841	-0.118065
Zr14	Zr	1.120505	0.631026	-0.035655
Zr15	Zr	1.120461	0.631052	-0.186971
Zr16	Zr	0.880591	0.631022	-0.011818
Zr17	Zr	0.880542	0.782356	-0.163131
Zr18	Zr	1.120510	0.479718	-0.035659
O19	O	1.075749	0.751300	-0.059427
O20	O	1.075686	0.751337	-0.274579
O21	O	0.734623	0.751294	-0.025534
O22	O	1.266492	0.510743	0.041897
O23	O	1.266429	0.510780	-0.173256
O24	O	0.925365	0.510737	0.075790
O25	O	1.266425	0.631050	-0.173253
O26	O	1.075789	0.631009	0.060847
O27	O	0.925362	0.631007	0.075792
O28	O	1.266453	0.631033	-0.078377
O29	O	0.925256	0.846205	-0.259631
O30	O	1.075796	0.415869	0.060841
O31	O	1.266495	0.415873	0.041894
O32	O	1.266460	0.415893	-0.078382
O33	O	0.734592	0.846181	-0.120408
O34	O	0.925292	0.846184	-0.139355
O35	O	1.056690	0.560219	0.001234
O36	O	1.168932	0.560233	-0.080725
O37	O	1.056644	0.701845	-0.140373
O38	O	0.944403	0.701831	-0.058414
C39	C	1.000532	0.441774	-0.099399
C40	C	1.000534	0.377540	-0.099401
C41	C	1.059117	-0.085296	-0.142164
C42	C	1.059114	-0.024937	-0.142170
C43	C	1.000527	0.005238	-0.099389
C44	C	0.941915	-0.024937	-0.056610
C45	C	0.941910	-0.085288	-0.056610
C46	C	1.008918	0.067254	-0.038312
C47	C	1.008931	0.127602	-0.038311
C48	C	1.000535	0.191386	-0.099389
C49	C	0.992150	0.194808	-0.160470
C50	C	0.992145	0.134456	-0.160470
C51	C	1.000525	0.070680	-0.099384
C52	C	1.059134	0.287005	-0.142175
C53	C	1.059123	0.347369	-0.142182
C54	C	0.941932	0.347362	-0.056616
C55	C	0.941935	0.287005	-0.056615
C56	C	1.000542	0.256828	-0.099393
C57	C	0.700430	0.631032	-0.069579
C58	C	0.598581	0.631030	-0.059459
C59	C	0.553158	0.631038	-0.104621
C60	C	0.447891	0.631036	-0.094163
C61	C	1.300622	0.631042	-0.129211
C62	C	1.402471	0.631044	-0.139330
C63	C	1.000470	0.631070	-0.288669
C64	C	1.000452	0.631081	-0.352906
C65	C	1.000520	0.820300	-0.099390
C66	C	1.000518	0.884534	-0.099389
C67	C	1.083326	0.631083	-0.391303
C68	C	1.083351	0.631067	-0.451653
C69	C	1.000484	0.631064	-0.473609
C70	C	0.917603	0.631057	-0.435201
C71	C	0.917586	0.631065	-0.374850
C72	C	0.899348	0.678559	-0.582941
C73	C	0.899364	0.678556	-0.643293
C74	C	1.000533	0.631035	-0.659750
C75	C	1.101694	0.583528	-0.615852
C76	C	1.101678	0.583537	-0.555501
C77	C	1.000493	0.631055	-0.539048
C78	C	1.083441	0.631019	-0.763584
C79	C	1.083467	0.630998	-0.823932
C80	C	0.917710	0.630995	-0.807483
C81	C	0.917693	0.631009	-0.747133
C82	C	1.000558	0.631024	-0.725189
C83	C	1.000581	0.631004	0.089879
C84	C	1.000600	0.630993	0.154117
C85	C	1.300628	0.441779	-0.129216
C86	C	1.402480	0.377547	-0.139337
C87	C	1.000588	0.441742	0.089874
C88	C	1.000609	0.377496	0.154110
C89	C	1.300683	0.441747	0.060058
C90	C	1.402554	0.377503	0.114175
C91	C	0.700369	0.820327	-0.258848
C92	C	0.598498	0.884571	-0.312965
C93	C	0.700424	0.820295	-0.069574
C94	C	0.598572	0.884527	-0.059453
C95	C	1.000464	0.820332	-0.288664
C96	C	1.000443	0.884578	-0.352900
C97	C	1.391700	0.347388	-0.175233
C98	C	1.487391	0.287043	-0.184756
C99	C	1.593861	0.256854	-0.158378
C100	C	1.604639	0.287019	-0.122480
C101	C	1.508949	0.347367	-0.112962
C102	C	1.059229	0.347321	0.215420
C103	C	1.059244	0.286964	0.275783
C104	C	1.000645	0.256780	0.274834
C105	C	0.942018	0.286962	0.213518
C106	C	0.941996	0.347321	0.153157
C107	C	1.508992	0.347341	0.096806
C108	C	1.604720	0.286986	0.147648
C109	C	1.594006	0.256790	0.215858
C110	C	1.487557	0.286958	0.233227
C111	C	1.391832	0.347316	0.182385
C112	C	0.492060	0.914740	-0.295596
C113	C	0.396332	0.975114	-0.346438
C114	C	0.407046	1.005313	-0.414648
C115	C	0.513495	0.975141	-0.432016
C116	C	0.609220	0.914773	-0.381175
C117	C	0.609352	0.914692	-0.023563
C118	C	0.513661	0.975054	-0.014057
C119	C	0.407191	1.005245	-0.040437
C120	C	0.396413	0.975077	-0.076332
C121	C	0.492103	0.914721	-0.085842
C122	C	1.059054	0.914743	-0.351930
C123	C	1.059056	0.975100	-0.412283
C124	C	1.000441	1.005295	-0.473605
C125	C	0.941828	0.975124	-0.474574
C126	C	0.941833	0.914764	-0.414222
H127	H	1.106834	-0.000368	-0.177005
H128	H	1.015749	0.015323	0.011428
O129	O	0.604873	0.631046	-0.166092
H130	H	0.555592	0.631045	-0.197581
H131	H	0.408855	0.631024	-0.047751
O132	O	1.475755	0.254508	-0.223468
H133	H	1.385642	0.285631	-0.240197
O134	O	0.525040	1.007718	-0.505588
H135	H	0.571501	0.957061	-0.516351
O136	O	1.719534	0.254463	0.128920
H137	H	1.765982	0.187878	0.150046
O138	O	1.000437	1.070403	-0.538694
H139	H	0.949837	1.086334	-0.581502
H140	H	0.483311	0.890162	-0.115065
H141	H	1.015769	0.124805	0.011425
O142	O	1.520561	0.379913	0.023239
H143	H	1.610664	0.348801	0.019713
O144	O	0.454168	0.631062	-0.200811
H145	H	0.541601	0.575796	-0.184332
H146	H	0.894264	0.371882	0.103239
H147	H	1.671961	0.207643	0.257250
O148	O	1.122322	0.379917	-0.188328
H149	H	1.187092	0.368339	-0.157450
H150	H	1.150958	0.630995	-0.855195
H151	H	1.305015	0.371967	-0.196724
O152	O	1.277034	0.379836	0.201129
H153	H	1.212259	0.426883	0.154322
H154	H	0.329091	1.054469	-0.456040
H155	H	0.696037	0.890115	-0.002075
H156	H	1.106990	0.262398	0.325702
H157	H	1.478850	0.262364	0.288770
O158	O	0.878599	0.882240	-0.415270
H159	H	0.837832	0.913389	-0.468051
O160	O	1.520584	0.379878	-0.074229
H161	H	1.567058	0.407370	-0.100195
H162	H	0.483315	0.890155	-0.240059
H163	H	1.671769	0.207715	-0.166132
H164	H	0.559541	0.631018	-0.013051
H165	H	0.309666	0.999670	-0.332283
H166	H	1.106785	0.890167	-0.302004
H167	H	0.894105	0.999718	-0.524510
O168	O	0.724023	0.882223	-0.399912
H169	H	0.715378	0.913362	-0.455884
H170	H	1.150802	0.631093	-0.373438
H171	H	1.106783	0.999658	-0.411481
H172	H	0.329282	1.054391	-0.032689
H173	H	1.691340	0.262430	-0.101005
H174	H	1.106835	-0.109863	-0.176999
O175	O	0.878772	0.007572	-0.010439
H176	H	0.888646	0.054591	-0.017611
O177	O	0.525297	1.007575	0.024669
H178	H	0.615410	0.976425	0.041425
H179	H	0.309712	0.999668	-0.097809
H180	H	0.850099	0.631062	-0.343585
H181	H	0.985315	0.137247	-0.210204
H182	H	1.106852	0.262436	-0.177010
O183	O	0.983072	0.263603	-0.226359
H184	H	1.058296	0.262785	-0.224629
O185	O	0.878757	0.379885	-0.010460
H186	H	0.888616	0.426914	-0.017639
O187	O	1.122440	0.379866	0.216458
H188	H	1.112596	0.426903	0.164188
H189	H	0.894223	0.262437	-0.021779
O190	O	1.000693	0.191663	0.339938
H191	H	1.051319	0.175747	0.382726
H192	H	0.894190	-0.109853	-0.021776
H193	H	1.150839	0.631069	-0.482921
H194	H	1.184076	0.544832	-0.629248
O195	O	1.210774	0.532292	-0.508147
H196	H	1.281131	0.499238	-0.529721
O197	O	1.172823	0.631021	-0.739902
H198	H	1.230469	0.631005	-0.776738
H199	H	0.850242	0.630988	-0.825357
O200	O	0.828296	0.631020	-0.705718
H201	H	0.770670	0.631022	-0.731125
H202	H	0.816994	0.717242	-0.679033
H203	H	0.816956	0.717248	-0.569544
O204	O	0.828216	0.631060	-0.458879
H205	H	0.842141	0.631065	-0.507301
H206	H	0.894308	0.262377	0.212756
