data_functionalizedCrystal
_audit_creation_method	'MofGen! by Chris Wilmer'
_symmetry_space_group_name_H-M	'P1'
_symmetry_Int_Tables_number	1
_symmetry_cell_setting	triclinic
loop_
_symmetry_equiv_pos_as_xyz
  x,y,z
_cell_length_a	15.995292
_cell_length_b	15.944493
_cell_length_c	14.472310
_cell_angle_alpha	90.004804
_cell_angle_beta	89.985801
_cell_angle_gamma	83.471830
loop_
_atom_site_label
_atom_site_type_symbol
_atom_site_fract_x
_atom_site_fract_y
_atom_site_fract_z
O1	O	1.111010	0.108034	-0.076854
O2	O	1.611010	0.608034	0.423146
O3	O	0.867227	0.121456	-0.076849
O4	O	1.367227	0.621456	0.423151
O5	O	0.995801	-0.007535	-0.076859
O6	O	1.495801	0.492465	0.423141
O7	O	0.982436	0.237025	-0.076843
O8	O	1.482436	0.737025	0.423157
O9	O	0.995768	-0.007527	0.076823
O10	O	1.495768	0.492473	0.576823
O11	O	0.867193	0.121463	0.076833
O12	O	1.367193	0.621463	0.576833
O13	O	1.110977	0.108042	0.076828
O14	O	1.610977	0.608042	0.576828
Cu15	Cu	0.989082	0.114753	0.090863
Cu16	Cu	1.489082	0.614753	0.590863
Cu17	Cu	0.989122	0.114744	-0.090884
Cu18	Cu	1.489122	0.614744	0.409116
O19	O	0.982403	0.237032	0.076839
O20	O	1.482403	0.737032	0.576839
C21	C	0.836014	0.120913	-0.000007
C22	C	1.336014	0.620913	0.499993
C23	C	0.743062	0.119276	-0.000006
C24	C	1.243062	0.619276	0.499994
C25	C	0.405324	0.113255	-0.000017
C26	C	0.905324	0.613255	0.499983
C27	C	0.428623	0.206357	-0.000354
C28	C	0.928623	0.706357	0.499646
C29	C	0.525298	0.208127	-0.000003
C30	C	1.025298	0.708127	0.499997
C31	C	0.572880	0.116242	-0.000012
C32	C	1.072880	0.616242	0.499988
C33	C	0.543766	0.069700	0.087742
C34	C	1.043766	0.569700	0.587742
C35	C	0.446976	0.068579	0.087812
C36	C	0.946976	0.568579	0.587812
C37	C	0.447158	0.066670	-0.086954
C38	C	0.947158	0.566670	0.413046
C39	C	0.543650	0.070120	-0.088109
C40	C	1.043650	0.570120	0.411891
C41	C	0.667576	0.117926	-0.000006
C42	C	1.167576	0.617926	0.499994
C43	C	0.310629	0.111569	-0.000016
C44	C	0.810629	0.611569	0.499984
C45	C	0.995238	-0.038826	-0.000022
C46	C	1.495238	0.461174	0.499978
C47	C	0.993600	-0.132074	-0.000034
C48	C	1.493600	0.367926	0.499966
C49	C	1.069282	-0.367854	-0.000018
C50	C	1.569282	0.132146	0.499982
C51	C	1.028486	-0.418415	-0.075790
C52	C	1.528486	0.081585	0.424210
C53	C	0.990566	-0.302794	-0.000022
C54	C	1.490566	0.197206	0.499978
C55	C	1.028435	-0.418384	0.075729
C56	C	1.528435	0.081616	0.575729
C57	C	0.987641	-0.467703	-0.000007
C58	C	1.487641	0.032297	0.499993
C59	C	0.949791	-0.352127	-0.075857
C60	C	1.449791	0.147873	0.424143
C61	C	0.949752	-0.352092	0.075730
C62	C	1.449752	0.147908	0.575730
C63	C	0.908898	-0.402620	-0.000061
C64	C	1.408898	0.097380	0.499939
C65	C	0.992253	-0.207795	-0.000032
C66	C	1.492253	0.292205	0.499968
C67	C	0.985947	-0.562700	-0.000004
C68	C	1.485947	-0.062700	0.499996
C69	C	1.142189	0.108584	-0.000015
C70	C	1.642189	0.608584	0.499985
C71	C	1.235142	0.110222	-0.000023
C72	C	1.735142	0.610222	0.499977
C73	C	0.982966	0.268323	-0.000000
C74	C	1.482966	0.768323	0.500000
C75	C	0.984603	0.361572	0.000005
C76	C	1.484603	0.861572	0.500005
N77	N	0.989061	0.114759	0.218694
N78	N	1.489061	0.614759	0.718694
N79	N	0.989150	0.114732	-0.218714
N80	N	1.489150	0.614732	0.281286
C81	C	0.989120	0.114741	0.592785
C82	C	1.489120	0.614741	1.092785
C83	C	0.920092	0.183530	0.553625
C84	C	1.420092	0.683530	1.053625
C85	C	0.920251	0.183781	0.446537
C86	C	1.420251	0.683781	0.946537
C87	C	0.989090	0.114750	0.407194
C88	C	1.489090	0.614750	0.907194
C89	C	1.076454	0.133875	0.446031
C90	C	1.576454	0.633875	0.946031
C91	C	1.076066	0.134364	0.553153
C92	C	1.576066	0.634364	1.053153
C93	C	0.971564	0.026623	0.553309
C94	C	1.471564	0.526623	1.053309
C95	C	0.969560	0.027211	0.446182
C96	C	1.469560	0.527211	0.946182
C97	C	0.989079	0.114753	0.302306
C98	C	1.489079	0.614753	0.802306
C99	C	0.989138	0.114739	0.697673
C100	C	1.489138	0.614739	1.197673
H101	H	0.575644	0.002086	0.090999
H102	H	1.075644	0.502086	0.590999
Cl103	Cl	0.937525	0.284749	0.406959
Cl104	Cl	1.437525	0.784749	0.906959
Cl105	Cl	0.804134	-0.426476	-0.000119
Cl106	Cl	1.304134	0.073524	0.499881
Cl107	Cl	0.898521	-0.307628	-0.174869
Cl108	Cl	1.398521	0.192372	0.325131
H109	H	0.576632	0.003054	-0.093416
H110	H	1.076632	0.503054	0.406584
H111	H	0.916524	-0.323120	0.139794
H112	H	1.416524	0.176880	0.639794
H113	H	0.418841	0.095767	-0.153467
H114	H	0.918841	0.595767	0.346533
H115	H	0.420140	0.100819	0.153415
H116	H	0.920140	0.600819	0.653415
Cl117	Cl	1.173964	-0.343748	-0.000134
Cl118	Cl	1.673964	0.156252	0.499866
H119	H	0.544332	0.244572	-0.062911
H120	H	1.044332	0.744572	0.437089
H121	H	1.061743	-0.447373	-0.139851
H122	H	1.561743	0.052627	0.360149
H123	H	1.129047	0.085104	0.420544
H124	H	1.629047	0.585104	0.920544
H125	H	1.061681	-0.447320	0.139784
H126	H	1.561681	0.052680	0.639784
Cl127	Cl	0.819974	0.166248	0.405996
Cl128	Cl	1.319974	0.666248	0.905996
Cl129	Cl	0.819498	0.166221	0.593418
Cl130	Cl	1.319498	0.666221	1.093418
H131	H	0.931147	0.248553	0.580538
H132	H	1.431147	0.748553	1.080538
Cl133	Cl	1.099953	0.233581	0.591723
Cl134	Cl	1.599953	0.733581	1.091723
H135	H	1.129036	0.086236	0.579055
H136	H	1.629036	0.586236	1.079055
Cl137	Cl	1.100918	0.231961	0.404606
Cl138	Cl	1.600918	0.731961	0.904606
H139	H	0.909242	0.008229	0.580377
H140	H	1.409242	0.508229	1.080377
Cl141	Cl	0.424521	-0.036807	0.094012
Cl142	Cl	0.924521	0.463193	0.594012
H143	H	0.433176	-0.001860	-0.087553
H144	H	0.933176	0.498140	0.412447
H145	H	1.021903	-0.024567	0.578632
H146	H	1.521903	0.475433	1.078632
H147	H	0.905294	0.012697	0.420800
H148	H	1.405294	0.512697	0.920800
Cl149	Cl	0.574702	0.119609	0.188582
Cl150	Cl	1.074702	0.619609	0.688582
Cl151	Cl	1.042152	-0.055524	0.404853
Cl152	Cl	1.542152	0.444476	0.904853
H153	H	0.400635	0.242240	-0.063286
H154	H	0.900635	0.742240	0.436714
H155	H	0.399585	0.242047	0.062229
H156	H	0.899585	0.742047	0.562229
Cl157	Cl	0.572372	0.122411	-0.188345
Cl158	Cl	1.072372	0.622411	0.311655
Cl159	Cl	0.553689	0.264745	0.097296
Cl160	Cl	1.053689	0.764745	0.597296
