data_functionalizedCrystal
_audit_creation_method	'MofGen! by Chris Wilmer'
_symmetry_space_group_name_H-M	'P1'
_symmetry_Int_Tables_number	1
_symmetry_cell_setting	triclinic
loop_
_symmetry_equiv_pos_as_xyz
  x,y,z
_cell_length_a	15.995343
_cell_length_b	10.654534
_cell_length_c	9.730223
_cell_angle_alpha	90.004077
_cell_angle_beta	89.990879
_cell_angle_gamma	96.016206
loop_
_atom_site_label
_atom_site_type_symbol
_atom_site_fract_x
_atom_site_fract_y
_atom_site_fract_z
O1	O	0.117539	-1.666310	-0.114332
O2	O	0.128758	-1.300682	-0.114330
O3	O	0.001318	-1.493496	-0.114306
O4	O	0.244979	-1.473496	-0.114357
O5	O	0.001315	-1.493484	0.114274
O6	O	0.128754	-1.300670	0.114250
O7	O	0.117536	-1.666298	0.114248
Zn8	Zn	0.123144	-1.483482	0.150541
Zn9	Zn	0.123149	-1.483498	-0.150623
O10	O	0.244975	-1.473484	0.114223
C11	C	0.127935	-1.253888	-0.000040
C12	C	0.125479	-1.114476	-0.000038
C13	C	0.124321	-1.048980	0.124563
C14	C	0.121999	-0.917990	0.124567
C15	C	0.121997	-0.918004	-0.124643
C16	C	0.124313	-1.048993	-0.124646
C17	C	-0.029883	-1.492665	-0.000012
C18	C	-0.122848	-1.490191	-0.000001
C19	C	-0.293061	-1.485701	-0.000033
C20	C	-0.317209	-1.346519	-0.000035
C21	C	-0.413902	-1.343901	-0.000569
C22	C	-0.460646	-1.481279	-0.000062
C23	C	-0.431141	-1.551269	-0.130330
C24	C	-0.334339	-1.552920	-0.130424
C25	C	-0.334436	-1.554943	0.129523
C26	C	-0.430961	-1.549805	0.131220
C27	C	-0.555359	-1.478787	-0.000083
C28	C	-0.198348	-1.488197	-0.000021
C29	C	0.276177	-1.474315	-0.000073
C30	C	0.369142	-1.476789	-0.000093
C31	C	0.118365	-0.713090	-0.000039
C32	C	0.120842	-0.852498	-0.000032
N33	N	0.123141	-1.483480	0.356077
N34	N	0.123146	-1.483510	-0.356159
C35	C	0.066734	-1.568887	0.428014
C36	C	0.066735	-1.568899	0.571897
C37	C	0.179555	-1.398094	0.571894
C38	C	0.179550	-1.398077	0.428013
H39	H	0.125254	-1.102322	-0.226117
O40	O	0.005870	-1.660964	0.350430
H41	H	0.015339	-1.646606	0.238294
H42	H	-0.432647	-1.289385	-0.094504
O43	O	0.125579	-1.119604	0.258960
H44	H	0.069672	-1.190495	0.264940
O45	O	0.005908	-1.661031	0.649492
H46	H	-0.033308	-1.720420	0.575293
H47	H	0.121057	-0.864669	0.226030
H48	H	-0.289519	-1.292566	0.093370
H49	H	0.225483	-1.328562	0.630478
O50	O	0.240393	-1.305960	0.350408
H51	H	0.279628	-1.246590	0.424599
O52	O	0.120745	-0.847382	-0.259042
H53	H	0.176663	-0.776512	-0.265029
H54	H	-0.433243	-1.289101	0.092786
O55	O	-0.458102	-1.487704	-0.259265
H56	H	-0.429556	-1.388166	-0.260944
O57	O	-0.279183	-1.276196	-0.123549
H58	H	-0.243167	-1.339946	-0.184944
O59	O	-0.455997	-1.482363	0.258893
H60	H	-0.489442	-1.400374	0.228989
O61	O	-0.299203	-1.489463	-0.259886
H62	H	-0.351375	-1.457884	-0.321834
H63	H	-0.319177	-1.654987	-0.135976
H64	H	-0.462404	-1.652376	-0.134810
H65	H	-0.306426	-1.511026	0.228297
O66	O	-0.315084	-1.690640	0.131205
H67	H	-0.280129	-1.708690	0.226494
O68	O	-0.473728	-1.682666	0.142052
H69	H	-0.517013	-1.702012	0.053650
