data_functionalizedCrystal
_audit_creation_method	'MofGen! by Chris Wilmer'
_symmetry_space_group_name_H-M	'P1'
_symmetry_Int_Tables_number	1
_symmetry_cell_setting	triclinic
loop_
_symmetry_equiv_pos_as_xyz
  x,y,z
_cell_length_a	11.169417
_cell_length_b	16.120297
_cell_length_c	11.169416
_cell_angle_alpha	92.878536
_cell_angle_beta	90.011589
_cell_angle_gamma	92.881853
loop_
_atom_site_label
_atom_site_type_symbol
_atom_site_fract_x
_atom_site_fract_y
_atom_site_fract_z
Zn1	Zn	1.800523	-0.471341	-0.512205
Zn2	Zn	2.300523	0.028659	-0.012205
Zn3	Zn	1.810598	-0.331943	-0.702732
Zn4	Zn	2.310598	0.168057	-0.202732
Zn5	Zn	1.609993	-0.331952	-0.502066
Zn6	Zn	2.109993	0.168048	-0.002066
Zn7	Zn	1.599818	-0.471319	-0.712847
Zn8	Zn	2.099818	0.028681	-0.212847
O9	O	1.705233	-0.401639	-0.607462
O10	O	2.205233	0.098361	-0.107462
O11	O	1.969809	-0.452855	-0.537488
O12	O	2.469809	0.047145	-0.037488
O13	O	1.792462	-0.215281	-0.667637
O14	O	2.292462	0.284719	-0.167637
O15	O	1.635310	-0.350456	-0.335462
O16	O	2.135310	0.149544	0.164538
O17	O	1.977210	-0.350440	-0.677467
O18	O	2.477210	0.149560	-0.177467
O19	O	1.775291	-0.452864	-0.342911
O20	O	2.275291	0.047136	0.157089
O21	O	1.645079	-0.215287	-0.520209
O22	O	2.145079	0.284713	-0.020209
O23	O	1.440694	-0.350434	-0.530017
O24	O	1.940694	0.149566	-0.030017
O25	O	1.617967	-0.587986	-0.694708
O26	O	2.117967	-0.087986	-0.194708
O27	O	1.433218	-0.452826	-0.684877
O28	O	1.933218	0.047174	-0.184877
O29	O	1.765424	-0.588002	-0.547297
O30	O	2.265424	-0.088002	-0.047297
O31	O	1.782595	-0.350418	-0.872022
O32	O	2.282595	0.149582	-0.372022
O33	O	1.627736	-0.452817	-0.879454
O34	O	2.127736	0.047183	-0.379454
C35	C	1.393409	-0.401629	-0.607446
C36	C	1.893409	0.098371	-0.107446
C37	C	1.260008	-0.401645	-0.607469
C38	C	1.760008	0.098355	-0.107469
C39	C	1.689437	-0.619089	-0.623261
C40	C	2.189437	-0.119089	-0.123261
C41	C	1.682705	-0.711753	-0.629994
C42	C	2.182705	-0.211753	-0.129994
C43	C	1.670371	-0.881412	-0.642259
C44	C	2.170371	-0.381412	-0.142259
C45	C	1.740331	-0.922717	-0.572306
C46	C	2.240331	-0.422717	-0.072306
C47	C	1.733468	-1.017121	-0.579130
C48	C	2.233468	-0.517121	-0.079130
C49	C	1.677232	-0.787000	-0.635437
C50	C	2.177232	-0.287000	-0.135437
C51	C	2.018274	-0.401649	-0.607480
C52	C	2.518274	0.098351	-0.107480
C53	C	2.151674	-0.401653	-0.607488
C54	C	2.651674	0.098347	-0.107488
C55	C	1.705186	-0.401632	-0.919287
C56	C	2.205186	0.098368	-0.419287
C57	C	1.705273	-0.401658	-1.052688
C58	C	2.205273	0.098342	-0.552688
C59	C	1.721037	-0.185034	-0.591638
C60	C	2.221037	0.314966	-0.091638
C61	C	1.728001	-0.092371	-0.584567
C62	C	2.228001	0.407629	-0.084567
C63	C	1.705312	-0.401663	-0.294422
C64	C	2.205312	0.098337	0.205578
C65	C	1.705345	-0.401674	-0.161023
C66	C	2.205345	0.098326	0.338977
H67	H	1.805378	-0.887180	-0.507290
H68	H	2.305378	-0.387180	-0.007290
H69	H	1.605329	-0.916948	-0.707270
H70	H	2.105329	-0.416948	-0.207270
