data_functionalizedCrystal
_audit_creation_method	'MofGen! by Chris Wilmer'
_symmetry_space_group_name_H-M	'P1'
_symmetry_Int_Tables_number	1
_symmetry_cell_setting	triclinic
loop_
_symmetry_equiv_pos_as_xyz
  x,y,z
_cell_length_a	12.837943
_cell_length_b	16.109301
_cell_length_c	15.186229
_cell_angle_alpha	90.005167
_cell_angle_beta	90.002255
_cell_angle_gamma	89.145210
loop_
_atom_site_label
_atom_site_type_symbol
_atom_site_fract_x
_atom_site_fract_y
_atom_site_fract_z
O1	O	-1.375379	-0.216129	-0.073219
O2	O	-1.073577	-0.205453	-0.073224
O3	O	-1.232769	-0.090419	-0.073212
O4	O	-1.216187	-0.331163	-0.073230
O5	O	-1.232758	-0.090416	0.073245
O6	O	-1.073567	-0.205450	0.073234
O7	O	-1.375369	-0.216127	0.073238
Zn8	Zn	-1.224466	-0.210788	0.096489
Zn9	Zn	-1.224480	-0.210791	-0.096475
O10	O	-1.216177	-0.331161	0.073227
C11	C	-1.034953	-0.201845	0.000004
C12	C	-0.919879	-0.191088	0.000003
C13	C	-1.232092	-0.059389	0.000017
C14	C	-1.230078	0.033066	0.000018
C15	C	-1.413993	-0.219735	0.000008
C16	C	-1.529067	-0.230491	0.000004
C17	C	-0.678877	-0.320405	0.000006
C18	C	-0.570755	-0.310302	0.000005
C19	C	-0.595510	-0.160779	0.000007
C20	C	-0.703632	-0.170882	0.000008
C21	C	-0.745312	-0.250698	0.000006
C22	C	-0.853436	-0.260800	0.000000
C23	C	-0.878189	-0.111278	0.000008
C24	C	-0.770067	-0.101175	0.000008
C25	C	-1.216854	-0.362190	-0.000004
C26	C	-1.218868	-0.454645	-0.000011
N27	N	-1.224464	-0.210786	0.228182
C28	C	-1.319857	0.248206	0.000006
C29	C	-1.317957	0.335078	-0.000002
C30	C	-1.129081	0.330208	-0.000001
C31	C	-1.130983	0.243338	-0.000000
C32	C	-1.226374	0.202340	0.000008
C33	C	-1.222572	0.376081	-0.000001
C34	C	-1.220511	0.470271	-0.000009
C35	C	-1.228435	0.108144	0.000014
N36	N	-1.224490	-0.210788	-0.228167
C37	C	-1.294978	-0.159869	0.453910
C38	C	-1.294981	-0.159868	0.546099
C39	C	-1.153968	-0.261706	0.546098
C40	C	-1.153961	-0.261703	0.453910
C41	C	-1.224472	-0.210786	0.407818
C42	C	-1.224482	-0.210787	0.592196
C43	C	-1.224485	-0.210786	0.692152
C44	C	-1.224468	-0.210786	0.307856
H45	H	-0.887369	-0.325790	0.000000
H46	H	-1.394081	0.372419	-0.000005
H47	H	-0.736116	-0.036192	0.000019
H48	H	-1.352393	-0.118406	0.583625
H49	H	-0.932293	-0.054518	0.000002
O50	O	-1.412606	0.208511	-0.000037
C51	C	-1.494708	0.267627	-0.000021
H52	H	-1.465664	0.328834	-0.027746
H53	H	-1.523548	0.277620	0.070240
C54	C	-1.620342	0.160845	-0.023412
C55	C	-1.584671	0.236019	-0.057471
H56	H	-1.675838	0.141348	-0.058846
H57	H	-1.565029	0.121017	-0.023420
H58	H	-1.644367	0.169183	0.035138
H59	H	-1.560635	0.227678	-0.116015
H60	H	-1.639982	0.275846	-0.057475
O61	O	-1.040236	0.198688	0.000119
C62	C	-1.035671	0.148312	0.075979
H63	H	-1.117947	0.137419	0.101270
H64	H	-0.988327	0.180590	0.129093
C65	C	-0.882442	0.077778	0.021872
C66	C	-0.983496	0.064393	0.052930
H67	H	-0.850254	0.026014	0.007657
H68	H	-0.885514	0.111719	-0.029235
H69	H	-0.843002	0.104678	0.066139
H70	H	-1.022937	0.037502	0.008660
H71	H	-0.980429	0.030445	0.104030
O72	O	-0.719199	-0.397991	0.000037
C73	C	-0.637375	-0.457352	0.000007
H74	H	-0.563927	-0.428236	0.027737
H75	H	-0.622076	-0.479263	-0.070259
C76	C	-0.758088	-0.567689	0.023374
C77	C	-0.667881	-0.531930	0.057440
H78	H	-0.776906	-0.613694	0.058798
H79	H	-0.813216	-0.527697	0.023391
H80	H	-0.745327	-0.585941	-0.035180
H81	H	-0.680647	-0.513669	0.115989
H82	H	-0.612756	-0.571920	0.057434
H83	H	-1.051417	0.363600	-0.000006
O84	O	-1.363502	-0.110328	0.409272
C85	C	-1.425748	-0.065403	0.469727
H86	H	-1.383255	-0.061082	0.535446
H87	H	-1.502742	-0.098531	0.479521
C88	C	-1.499330	0.017280	0.353043
C89	C	-1.447135	0.022592	0.433758
H90	H	-1.512528	0.071559	0.330855
H91	H	-1.457397	-0.012989	0.312312
H92	H	-1.563486	-0.010330	0.361215
H93	H	-1.382976	0.050193	0.425582
H94	H	-1.489058	0.052868	0.474486
O95	O	-1.085585	-0.311146	0.591010
C96	C	-1.100693	-0.300219	0.682262
H97	H	-1.183114	-0.275710	0.694848
H98	H	-1.042040	-0.253849	0.708437
C99	C	-0.983860	-0.414132	0.714121
C100	C	-1.085094	-0.384036	0.729581
H101	H	-0.974233	-0.465832	0.743311
H102	H	-0.973678	-0.421492	0.652644
H103	H	-0.934994	-0.375483	0.735934
H104	H	-1.133958	-0.422680	0.707758
H105	H	-1.095284	-0.376684	0.791056
O106	O	-1.085429	-0.311244	0.409268
C107	C	-1.023184	-0.356175	0.469716
H108	H	-1.065684	-0.360507	0.535427
H109	H	-0.946195	-0.323045	0.479532
C110	C	-0.949585	-0.438838	0.353013
C111	C	-1.001787	-0.444164	0.433718
H112	H	-0.936381	-0.493113	0.330807
H113	H	-0.991517	-0.408565	0.312287
H114	H	-0.885432	-0.411226	0.361204
H115	H	-1.065944	-0.471766	0.425525
H116	H	-0.959866	-0.474444	0.474442
H117	H	-0.561555	-0.095797	0.000081
O118	O	-0.506072	-0.377926	0.000038
C119	C	-0.401701	-0.351898	0.000013
H120	H	-0.397567	-0.286267	0.027743
H121	H	-0.370438	-0.352578	-0.070251
C122	C	-0.340584	-0.491813	0.023385
C123	C	-0.335506	-0.411206	0.057451
H124	H	-0.299750	-0.528398	0.058812
H125	H	-0.410900	-0.509350	0.023399
H126	H	-0.314534	-0.492368	-0.035168
H127	H	-0.361568	-0.410650	0.115998
H128	H	-0.265193	-0.393670	0.057449
