data_functionalizedCrystal
_audit_creation_method	'MofGen! by Chris Wilmer'
_symmetry_space_group_name_H-M	'P1'
_symmetry_Int_Tables_number	1
_symmetry_cell_setting	triclinic
loop_
_symmetry_equiv_pos_as_xyz
  x,y,z
_cell_length_a	25.639242
_cell_length_b	25.639240
_cell_length_c	25.639233
_cell_angle_alpha	89.974071
_cell_angle_beta	89.985652
_cell_angle_gamma	90.025061
loop_
_atom_site_label
_atom_site_type_symbol
_atom_site_fract_x
_atom_site_fract_y
_atom_site_fract_z
Zn1	Zn	0.799247	-0.208322	-0.295607
Zn2	Zn	1.049247	0.041678	-0.045607
Zn3	Zn	1.299247	0.291678	0.204393
Zn4	Zn	1.549247	0.541678	0.454393
Zn5	Zn	0.799179	-0.295741	-0.208160
Zn6	Zn	1.049179	-0.045741	0.041840
Zn7	Zn	1.299179	0.204259	0.291840
Zn8	Zn	1.549179	0.454259	0.541840
Zn9	Zn	0.711823	-0.208309	-0.208183
Zn10	Zn	0.961823	0.041691	0.041817
Zn11	Zn	1.211823	0.291691	0.291817
Zn12	Zn	1.461823	0.541691	0.541817
Zn13	Zn	0.711777	-0.295716	-0.295562
Zn14	Zn	0.961777	-0.045716	-0.045562
Zn15	Zn	1.211777	0.204284	0.204438
Zn16	Zn	1.461777	0.454284	0.454438
O17	O	0.755506	-0.252022	-0.251878
O18	O	1.005506	-0.002022	-0.001878
O19	O	1.255506	0.247978	0.248122
O20	O	1.505506	0.497978	0.498122
O21	O	0.872403	-0.219933	-0.284016
O22	O	1.122403	0.030067	-0.034016
O23	O	1.372403	0.280067	0.215984
O24	O	1.622403	0.530067	0.465984
O25	O	0.787582	-0.284148	-0.134998
O26	O	1.037582	-0.034148	0.115002
O27	O	1.287582	0.215852	0.365002
O28	O	1.537582	0.465852	0.615002
O29	O	0.723467	-0.135146	-0.219808
O30	O	0.973467	0.114854	0.030192
O31	O	1.223467	0.364854	0.280192
O32	O	1.473467	0.614854	0.530192
O33	O	0.872353	-0.284160	-0.219770
O34	O	1.122353	-0.034160	0.030230
O35	O	1.372353	0.215840	0.280230
O36	O	1.622353	0.465840	0.530230
O37	O	0.787697	-0.135155	-0.284038
O38	O	1.037697	0.114845	-0.034038
O39	O	1.287697	0.364845	0.215962
O40	O	1.537697	0.614845	0.465962
O41	O	0.723402	-0.219912	-0.135015
O42	O	0.973402	0.030088	0.114985
O43	O	1.223402	0.280088	0.364985
O44	O	1.473402	0.530088	0.614985
O45	O	0.638652	-0.219889	-0.219765
O46	O	0.888652	0.030111	0.030235
O47	O	1.138652	0.280111	0.280235
O48	O	1.388652	0.530111	0.530235
O49	O	0.723389	-0.284118	-0.368733
O50	O	0.973389	-0.034118	-0.118733
O51	O	1.223389	0.215882	0.131267
O52	O	1.473389	0.465882	0.381267
O53	O	0.638618	-0.284106	-0.283962
O54	O	0.888618	-0.034106	-0.033962
O55	O	1.138618	0.215894	0.216038
O56	O	1.388618	0.465894	0.466038
O57	O	0.787653	-0.219910	-0.368766
O58	O	1.037653	0.030090	-0.118766
O59	O	1.287653	0.280090	0.131234
O60	O	1.537653	0.530090	0.381234
O61	O	0.787538	-0.368903	-0.219726
O62	O	1.037538	-0.118903	0.030274
O63	O	1.287538	0.131097	0.280274
O64	O	1.537538	0.381097	0.530274
O65	O	0.723324	-0.368885	-0.283940
O66	O	0.973324	-0.118885	-0.033940
O67	O	1.223324	0.131115	0.216060
O68	O	1.473324	0.381115	0.466060
C69	C	0.619664	-0.251994	-0.251861
C70	C	0.869664	-0.001994	-0.001861
C71	C	1.119664	0.248006	0.248139
C72	C	1.369664	0.498006	0.498139
C73	C	0.561550	-0.251994	-0.251866
C74	C	0.811550	-0.001994	-0.001866
C75	C	1.061550	0.248006	0.248134
C76	C	1.311550	0.498006	0.498134
C77	C	0.755432	-0.387865	-0.251837
C78	C	1.005432	-0.137865	-0.001837
C79	C	1.255432	0.112135	0.248163
C80	C	1.505432	0.362135	0.498163
C81	C	0.755449	-0.445979	-0.251837
C82	C	1.005449	-0.195979	-0.001837
C83	C	1.255449	0.054021	0.248163
C84	C	1.505449	0.304021	0.498163
C85	C	0.310390	-0.218639	-0.285392
C86	C	0.560390	0.031361	-0.035392
C87	C	0.810390	0.281361	0.214608
C88	C	1.060390	0.531361	0.464608
C89	C	0.364994	-0.218634	-0.285389
C90	C	0.614994	0.031366	-0.035389
C91	C	0.864994	0.281366	0.214611
C92	C	1.114994	0.531366	0.464611
O93	O	0.393260	-0.190251	-0.313891
O94	O	0.643260	0.059749	-0.063891
O95	O	0.893260	0.309749	0.186109
O96	O	1.143260	0.559749	0.436109
N97	N	0.392276	-0.252016	-0.251884
N98	N	0.642276	-0.002016	-0.001884
N99	N	0.892276	0.247984	0.248116
N100	N	1.142276	0.497984	0.498116
C101	C	0.364950	-0.285409	-0.218383
C102	C	0.614950	-0.035409	0.031617
C103	C	0.864950	0.214591	0.281617
C104	C	1.114950	0.464591	0.531617
O105	O	0.393169	-0.313803	-0.189885
O106	O	0.643169	-0.063803	0.060115
O107	O	0.893169	0.186197	0.310115
O108	O	1.143169	0.436197	0.560115
C109	C	0.310347	-0.285417	-0.218389
C110	C	0.560347	-0.035417	0.031611
C111	C	0.810347	0.214583	0.281611
C112	C	1.060347	0.464583	0.531611
C113	C	0.283068	-0.252028	-0.251893
C114	C	0.533068	-0.002028	-0.001893
C115	C	0.783068	0.247972	0.248107
C116	C	1.033068	0.497972	0.498107
C117	C	0.283112	-0.185254	-0.318894
C118	C	0.533112	0.064746	-0.068894
C119	C	0.783112	0.314746	0.181106
C120	C	1.033112	0.564746	0.431106
C121	C	0.228511	-0.185258	-0.318896
C122	C	0.478511	0.064742	-0.068896
C123	C	0.728511	0.314742	0.181104
C124	C	0.978511	0.564742	0.431104
C125	C	0.201189	-0.218648	-0.285397
C126	C	0.451189	0.031352	-0.035397
C127	C	0.701189	0.281352	0.214603
C128	C	0.951189	0.531352	0.464603
C129	C	0.228468	-0.252033	-0.251895
C130	C	0.478468	-0.002033	-0.001895
C131	C	0.728468	0.247967	0.248105
C132	C	0.978468	0.497967	0.498105
C133	C	0.283022	-0.318812	-0.184892
C134	C	0.533022	-0.068812	0.065108
C135	C	0.783022	0.181188	0.315108
C136	C	1.033022	0.431188	0.565108
C137	C	0.228415	-0.318817	-0.184901
C138	C	0.478415	-0.068817	0.065099
C139	C	0.728415	0.181183	0.315099
C140	C	0.978415	0.431183	0.565099
C141	C	0.201136	-0.285429	-0.218405
C142	C	0.451136	-0.035429	0.031595
C143	C	0.701136	0.214571	0.281595
C144	C	0.951136	0.464571	0.531595
C145	C	0.146545	-0.285427	-0.218398
C146	C	0.396545	-0.035427	0.031602
C147	C	0.646545	0.214573	0.281602
C148	C	0.896545	0.464573	0.531602
N149	N	0.119264	-0.252045	-0.251904
N150	N	0.369264	-0.002045	-0.001904
N151	N	0.619264	0.247955	0.248096
N152	N	0.869264	0.497955	0.498096
C153	C	0.146586	-0.218655	-0.285403
C154	C	0.396586	0.031345	-0.035403
C155	C	0.646586	0.281345	0.214597
C156	C	0.896586	0.531345	0.464597
C157	C	0.479621	-0.285392	-0.218374
C158	C	0.729621	-0.035392	0.031626
C159	C	0.979621	0.214608	0.281626
C160	C	1.229621	0.464608	0.531626
C161	C	0.534223	-0.285382	-0.218365
C162	C	0.784223	-0.035382	0.031635
C163	C	1.034223	0.214618	0.281635
C164	C	1.284223	0.464618	0.531635
C165	C	0.534264	-0.218607	-0.285372
C166	C	0.784264	0.031393	-0.035372
C167	C	1.034264	0.281393	0.214628
C168	C	1.284264	0.531393	0.464628
C169	C	0.479660	-0.218614	-0.285378
C170	C	0.729660	0.031386	-0.035378
C171	C	0.979660	0.281386	0.214622
C172	C	1.229660	0.531386	0.464622
C173	C	0.452339	-0.252010	-0.251879
C174	C	0.702339	-0.002010	-0.001879
C175	C	0.952339	0.247990	0.248121
C176	C	1.202339	0.497990	0.498121
C177	C	0.031921	-0.218667	-0.285404
C178	C	0.281921	0.031333	-0.035404
C179	C	0.531921	0.281333	0.214596
C180	C	0.781921	0.531333	0.464596
C181	C	-0.022685	-0.218673	-0.285402
C182	C	0.227315	0.031327	-0.035402
C183	C	0.477315	0.281327	0.214598
C184	C	0.727315	0.531327	0.464598
C185	C	-0.022721	-0.285450	-0.218397
C186	C	0.227279	-0.035450	0.031603
C187	C	0.477279	0.214550	0.281603
C188	C	0.727279	0.464550	0.531603
C189	C	0.031880	-0.285442	-0.218398
C190	C	0.281880	-0.035442	0.031602
C191	C	0.531880	0.214558	0.281602
C192	C	0.781880	0.464558	0.531602
C193	C	0.059199	-0.252049	-0.251905
C194	C	0.309199	-0.002049	-0.001905
C195	C	0.559199	0.247951	0.248095
C196	C	0.809199	0.497951	0.498095
O197	O	0.118245	-0.313797	-0.189913
O198	O	0.368245	-0.063797	0.060087
O199	O	0.618245	0.186203	0.310087
O200	O	0.868245	0.436203	0.560087
O201	O	0.118360	-0.190271	-0.313902
O202	O	0.368360	0.059729	-0.063902
O203	O	0.618360	0.309729	0.186098
O204	O	0.868360	0.559729	0.436098
C205	C	0.788967	-0.806308	-0.285383
C206	C	1.038967	-0.556308	-0.035383
C207	C	1.288967	-0.306308	0.214617
C208	C	1.538967	-0.056308	0.464617
C209	C	0.788983	-0.860912	-0.285394
C210	C	1.038983	-0.610912	-0.035394
C211	C	1.288983	-0.360912	0.214606
C212	C	1.538983	-0.110912	0.464606
O213	O	0.817394	-0.889120	-0.313874
O214	O	1.067394	-0.639120	-0.063874
O215	O	1.317394	-0.389120	0.186126
O216	O	1.567394	-0.139120	0.436126
N217	N	0.755579	-0.888261	-0.251929
N218	N	1.005579	-0.638261	-0.001929
N219	N	1.255579	-0.388261	0.248071
N220	N	1.505579	-0.138261	0.498071
C221	C	0.722154	-0.861003	-0.218455
C222	C	0.972154	-0.611003	0.031545
C223	C	1.222154	-0.361003	0.281545
C224	C	1.472154	-0.111003	0.531545
O225	O	0.693742	-0.889279	-0.189991
O226	O	0.943742	-0.639279	0.060009
O227	O	1.193742	-0.389279	0.310009
O228	O	1.443742	-0.139279	0.560009
C229	C	0.722136	-0.806399	-0.218447
C230	C	0.972136	-0.556399	0.031553
C231	C	1.222136	-0.306399	0.281553
C232	C	1.472136	-0.056399	0.531553
C233	C	0.755546	-0.779053	-0.251911
C234	C	1.005546	-0.529053	-0.001911
C235	C	1.255546	-0.279053	0.248089
C236	C	1.505546	-0.029053	0.498089
C237	C	0.822374	-0.778962	-0.318844
C238	C	1.072374	-0.528962	-0.068844
C239	C	1.322374	-0.278962	0.181156
C240	C	1.572374	-0.028962	0.431156
C241	C	0.822359	-0.724361	-0.318833
C242	C	1.072359	-0.474361	-0.068833
C243	C	1.322359	-0.224361	0.181167
C244	C	1.572359	0.025639	0.431167
C245	C	0.788938	-0.697107	-0.285360
C246	C	1.038938	-0.447107	-0.035360
C247	C	1.288938	-0.197107	0.214640
C248	C	1.538938	0.052893	0.464640
C249	C	0.755531	-0.724453	-0.251899
C250	C	1.005531	-0.474453	-0.001899
C251	C	1.255531	-0.224453	0.248101
C252	C	1.505531	0.025547	0.498101
C253	C	0.688708	-0.779142	-0.184976
C254	C	0.938708	-0.529142	0.065024
C255	C	1.188708	-0.279142	0.315024
C256	C	1.438708	-0.029142	0.565024
C257	C	0.688693	-0.724535	-0.184972
C258	C	0.938693	-0.474535	0.065028
C259	C	1.188693	-0.224535	0.315028
C260	C	1.438693	0.025465	0.565028
C261	C	0.722103	-0.697189	-0.218435
C262	C	0.972103	-0.447189	0.031565
C263	C	1.222103	-0.197189	0.281565
C264	C	1.472103	0.052811	0.531565
C265	C	0.722094	-0.642598	-0.218415
C266	C	0.972094	-0.392598	0.031585
C267	C	1.222094	-0.142598	0.281585
C268	C	1.472094	0.107402	0.531585
N269	N	0.755498	-0.615249	-0.251880
N270	N	1.005498	-0.365249	-0.001880
N271	N	1.255498	-0.115249	0.248120
N272	N	1.505498	0.134751	0.498120
C273	C	0.788920	-0.642504	-0.285353
C274	C	1.038920	-0.392504	-0.035353
C275	C	1.288920	-0.142504	0.214647
C276	C	1.538920	0.107496	0.464647
C277	C	0.722193	-0.975673	-0.218474
C278	C	0.972193	-0.725673	0.031526
C279	C	1.222193	-0.475673	0.281526
C280	C	1.472193	-0.225673	0.531526
C281	C	0.722213	-1.030276	-0.218478
C282	C	0.972213	-0.780276	0.031522
C283	C	1.222213	-0.530276	0.281522
C284	C	1.472213	-0.280276	0.531522
C285	C	0.789041	-1.030181	-0.285418
C286	C	1.039041	-0.780181	-0.035418
C287	C	1.289041	-0.530181	0.214582
C288	C	1.539041	-0.280181	0.464582
C289	C	0.789024	-0.975578	-0.285411
C290	C	1.039024	-0.725578	-0.035411
C291	C	1.289024	-0.475578	0.214589
C292	C	1.539024	-0.225578	0.464589
C293	C	0.755597	-0.948324	-0.251939
C294	C	1.005597	-0.698324	-0.001939
C295	C	1.255597	-0.448324	0.248061
C296	C	1.505597	-0.198324	0.498061
C297	C	0.788887	-0.527838	-0.285326
C298	C	1.038887	-0.277838	-0.035326
C299	C	1.288887	-0.027838	0.214674
C300	C	1.538887	0.222162	0.464674
C301	C	0.788870	-0.473233	-0.285310
C302	C	1.038870	-0.223233	-0.035310
C303	C	1.288870	0.026767	0.214690
C304	C	1.538870	0.276767	0.464690
C305	C	0.722040	-0.473332	-0.218372
C306	C	0.972040	-0.223332	0.031628
C307	C	1.222040	0.026668	0.281628
C308	C	1.472040	0.276668	0.531628
C309	C	0.722058	-0.527933	-0.218386
C310	C	0.972058	-0.277933	0.031614
C311	C	1.222058	-0.027933	0.281614
C312	C	1.472058	0.222067	0.531614
C313	C	0.755483	-0.555185	-0.251867
C314	C	1.005483	-0.305185	-0.001867
C315	C	1.255483	-0.055185	0.248133
C316	C	1.505483	0.194815	0.498133
O317	O	0.693697	-0.614355	-0.189951
O318	O	0.943697	-0.364355	0.060049
O319	O	1.193697	-0.114355	0.310049
O320	O	1.443697	0.135645	0.560049
O321	O	0.817322	-0.614221	-0.313816
O322	O	1.067322	-0.364221	-0.063816
O323	O	1.317322	-0.114221	0.186184
O324	O	1.567322	0.135779	0.436184
C325	C	0.891879	-0.252051	-0.251895
C326	C	1.141879	-0.002051	-0.001895
C327	C	1.391879	0.247949	0.248105
C328	C	1.641879	0.497949	0.498105
C329	C	0.949993	-0.252063	-0.251903
C330	C	1.199993	-0.002063	-0.001903
C331	C	1.449993	0.247937	0.248097
C332	C	1.699993	0.497937	0.498097
C333	C	0.755523	-0.252013	-0.388251
C334	C	1.005523	-0.002013	-0.138251
C335	C	1.255523	0.247987	0.111749
C336	C	1.505523	0.497987	0.361749
C337	C	0.755530	-0.252009	-0.446365
C338	C	1.005530	-0.002009	-0.196365
C339	C	1.255530	0.247991	0.053635
C340	C	1.505530	0.497991	0.303635
C341	C	0.755595	-0.115649	-0.251931
C342	C	1.005595	0.134351	-0.001931
C343	C	1.255595	0.384351	0.248069
C344	C	1.505595	0.634351	0.498069
C345	C	0.755632	-0.057535	-0.251953
C346	C	1.005632	0.192465	-0.001953
C347	C	1.255632	0.442465	0.248047
C348	C	1.505632	0.692465	0.498047
C349	C	0.789035	-0.218476	-0.806751
C350	C	1.039035	0.031524	-0.556751
C351	C	1.289035	0.281524	-0.306751
C352	C	1.539035	0.531524	-0.056751
C353	C	0.789041	-0.218462	-0.861356
C354	C	1.039041	0.031538	-0.611356
C355	C	1.289041	0.281538	-0.361356
C356	C	1.539041	0.531538	-0.111356
O357	O	0.817486	-0.190013	-0.889612
O358	O	1.067486	0.059987	-0.639612
O359	O	1.317486	0.309987	-0.389612
O360	O	1.567486	0.559987	-0.139612
N361	N	0.755588	-0.251886	-0.888648
N362	N	1.005588	-0.001886	-0.638648
N363	N	1.255588	0.248114	-0.388648
N364	N	1.505588	0.498114	-0.138648
C365	C	0.722122	-0.285324	-0.861333
C366	C	0.972122	-0.035324	-0.611333
C367	C	1.222122	0.214676	-0.361333
C368	C	1.472122	0.464676	-0.111333
O369	O	0.693668	-0.313752	-0.889561
O370	O	0.943668	-0.063752	-0.639561
O371	O	1.193668	0.186248	-0.389561
O372	O	1.443668	0.436248	-0.139561
C373	C	0.722114	-0.285335	-0.806730
C374	C	0.972114	-0.035335	-0.556730
C375	C	1.222114	0.214665	-0.306730
C376	C	1.472114	0.464665	-0.056730
C377	C	0.755573	-0.251912	-0.779440
C378	C	1.005573	-0.001912	-0.529440
C379	C	1.255573	0.248088	-0.279440
C380	C	1.505573	0.498088	-0.029440
C381	C	0.822491	-0.185056	-0.779462
C382	C	1.072491	0.064944	-0.529462
C383	C	1.322491	0.314944	-0.279462
C384	C	1.572491	0.564944	-0.029462
C385	C	0.822485	-0.185071	-0.724861
C386	C	1.072485	0.064929	-0.474861
C387	C	1.322485	0.314929	-0.224861
C388	C	1.572485	0.564929	0.025139
C389	C	0.789023	-0.218507	-0.697550
C390	C	1.039023	0.031493	-0.447550
C391	C	1.289023	0.281493	-0.197550
C392	C	1.539023	0.531493	0.052450
C393	C	0.755567	-0.251927	-0.724840
C394	C	1.005567	-0.001927	-0.474840
C395	C	1.255567	0.248073	-0.224840
C396	C	1.505567	0.498073	0.025160
C397	C	0.688646	-0.318770	-0.779416
C398	C	0.938646	-0.068770	-0.529416
C399	C	1.188646	0.181230	-0.279416
C400	C	1.438646	0.431230	-0.029416
C401	C	0.688640	-0.318778	-0.724809
C402	C	0.938640	-0.068778	-0.474809
C403	C	1.188640	0.181222	-0.224809
C404	C	1.438640	0.431222	0.025191
C405	C	0.722099	-0.285355	-0.697519
C406	C	0.972099	-0.035355	-0.447519
C407	C	1.222099	0.214645	-0.197519
C408	C	1.472099	0.464645	0.052481
C409	C	0.722099	-0.285379	-0.642928
C410	C	0.972099	-0.035379	-0.392928
C411	C	1.222099	0.214621	-0.142928
C412	C	1.472099	0.464621	0.107072
N413	N	0.755552	-0.251954	-0.615636
N414	N	1.005552	-0.001954	-0.365636
N415	N	1.255552	0.248046	-0.115636
N416	N	1.505552	0.498046	0.134364
C417	C	0.789014	-0.218518	-0.642947
C418	C	1.039014	0.031482	-0.392947
C419	C	1.289014	0.281482	-0.142947
C420	C	1.539014	0.531482	0.107053
C421	C	0.722143	-0.285296	-0.976004
C422	C	0.972143	-0.035296	-0.726004
C423	C	1.222143	0.214704	-0.476004
C424	C	1.472143	0.464704	-0.226004
C425	C	0.722154	-0.285288	-1.030606
C426	C	0.972154	-0.035288	-0.780606
C427	C	1.222154	0.214712	-0.530606
C428	C	1.472154	0.464712	-0.280606
C429	C	0.789072	-0.218425	-1.030625
C430	C	1.039072	0.031575	-0.780625
C431	C	1.289072	0.281575	-0.530625
C432	C	1.539072	0.531575	-0.280625
C433	C	0.789063	-0.218437	-0.976022
C434	C	1.039063	0.031563	-0.726022
C435	C	1.289063	0.281563	-0.476022
C436	C	1.539063	0.531563	-0.226022
C437	C	0.755596	-0.251872	-0.948712
C438	C	1.005596	-0.001872	-0.698712
C439	C	1.255596	0.248128	-0.448712
C440	C	1.505596	0.498128	-0.198712
C441	C	0.789000	-0.218553	-0.528282
C442	C	1.039000	0.031447	-0.278282
C443	C	1.289000	0.281447	-0.028282
C444	C	1.539000	0.531447	0.221718
C445	C	0.788992	-0.218573	-0.473676
C446	C	1.038992	0.031427	-0.223676
C447	C	1.288992	0.281427	0.026324
C448	C	1.538992	0.531427	0.276324
C449	C	0.722072	-0.285434	-0.473662
C450	C	0.972072	-0.035434	-0.223662
C451	C	1.222072	0.214566	0.026338
C452	C	1.472072	0.464566	0.276338
C453	C	0.722081	-0.285416	-0.528263
C454	C	0.972081	-0.035416	-0.278263
C455	C	1.222081	0.214584	-0.028263
C456	C	1.472081	0.464584	0.221737
C457	C	0.755547	-0.251971	-0.555571
C458	C	1.005547	-0.001971	-0.305571
C459	C	1.255547	0.248029	-0.055571
C460	C	1.505547	0.498029	0.194429
O461	O	0.693668	-0.313812	-0.614637
O462	O	0.943668	-0.063812	-0.364637
O463	O	1.193668	0.186188	-0.114637
O464	O	1.443668	0.436188	0.135363
O465	O	0.817459	-0.190090	-0.614712
O466	O	1.067459	0.059910	-0.364712
O467	O	1.317459	0.309910	-0.114712
O468	O	1.567459	0.559910	0.135288
C469	C	0.755520	-0.251993	-0.116036
C470	C	1.005520	-0.001993	0.133964
C471	C	1.255520	0.248007	0.383964
C472	C	1.505520	0.498007	0.633964
C473	C	0.755614	-0.251850	-0.057922
C474	C	1.005614	-0.001850	0.192078
C475	C	1.255614	0.248150	0.442078
C476	C	1.505614	0.498150	0.692078
H477	H	-0.044892	-0.191482	-0.312685
H478	H	0.205108	0.058518	-0.062685
H479	H	0.455108	0.308518	0.187315
H480	H	0.705108	0.558518	0.437315
Cl481	Cl	0.831057	-1.064455	-0.327499
Cl482	Cl	1.081057	-0.814455	-0.077499
Cl483	Cl	1.331057	-0.564455	0.172501
Cl484	Cl	1.581057	-0.314455	0.422501
Cl485	Cl	0.831025	-0.941206	-0.327482
Cl486	Cl	1.081025	-0.691206	-0.077482
Cl487	Cl	1.331025	-0.441206	0.172518
Cl488	Cl	1.581025	-0.191206	0.422518
H489	H	0.694974	-0.953486	-0.191213
H490	H	0.944974	-0.703486	0.058787
H491	H	1.194974	-0.453486	0.308787
H492	H	1.444974	-0.203486	0.558787
H493	H	0.694830	-0.312658	-0.451416
H494	H	0.944830	-0.062658	-0.201416
H495	H	1.194830	0.187342	0.048584
H496	H	1.444830	0.437342	0.298584
Cl497	Cl	0.864358	-0.689992	-0.360908
Cl498	Cl	1.114358	-0.439992	-0.110908
Cl499	Cl	1.364358	-0.189992	0.139092
Cl500	Cl	1.614358	0.060008	0.389092
Cl501	Cl	0.864547	-0.143047	-0.690562
Cl502	Cl	1.114547	0.106953	-0.440562
Cl503	Cl	1.364547	0.356953	-0.190562
Cl504	Cl	1.614547	0.606953	0.059438
H505	H	0.661400	-0.345986	-0.801626
H506	H	0.911400	-0.095986	-0.551626
H507	H	1.161400	0.154014	-0.301626
H508	H	1.411400	0.404014	-0.051626
Cl509	Cl	0.646668	-0.690277	-0.142890
Cl510	Cl	0.896668	-0.440277	0.107110
Cl511	Cl	1.146668	-0.190277	0.357110
Cl512	Cl	1.396668	0.059723	0.607110
Cl513	Cl	0.864570	-0.143023	-0.813786
Cl514	Cl	1.114570	0.106977	-0.563786
Cl515	Cl	1.364570	0.356977	-0.313786
Cl516	Cl	1.614570	0.606977	-0.063786
H517	H	0.457379	-0.312585	-0.191091
H518	H	0.707379	-0.062585	0.058909
H519	H	0.957379	0.187415	0.308909
H520	H	1.207379	0.437415	0.558909
H521	H	0.694913	-0.312510	-1.052821
H522	H	0.944913	-0.062510	-0.802821
H523	H	1.194913	0.187490	-0.552821
H524	H	1.444913	0.437490	-0.302821
Cl525	Cl	0.445373	-0.176640	-0.327499
Cl526	Cl	0.695373	0.073360	-0.077499
Cl527	Cl	0.945373	0.323360	0.172501
Cl528	Cl	1.195373	0.573360	0.422501
H529	H	0.816308	-0.191220	-0.953806
H530	H	1.066308	0.058780	-0.703806
H531	H	1.316308	0.308780	-0.453806
H532	H	1.566308	0.558780	-0.203806
H533	H	0.849590	-0.801147	-0.346105
H534	H	1.099590	-0.551147	-0.096105
H535	H	1.349590	-0.301147	0.153895
H536	H	1.599590	-0.051147	0.403895
Cl537	Cl	0.831059	-0.176553	-0.439373
Cl538	Cl	1.081059	0.073447	-0.189373
Cl539	Cl	1.331059	0.323447	0.060627
Cl540	Cl	1.581059	0.573447	0.310627
H541	H	0.695012	-1.052536	-0.191223
H542	H	0.945012	-0.802536	0.058777
H543	H	1.195012	-0.552536	0.308777
H544	H	1.445012	-0.302536	0.558777
Cl545	Cl	0.680021	-0.327436	-0.562571
Cl546	Cl	0.930021	-0.077436	-0.312571
Cl547	Cl	1.180021	0.172564	-0.062571
Cl548	Cl	1.430021	0.422564	0.187429
Cl549	Cl	0.646702	-0.813506	-0.142907
Cl550	Cl	0.896702	-0.563506	0.107093
Cl551	Cl	1.146702	-0.313506	0.357093
Cl552	Cl	1.396702	-0.063506	0.607093
Cl553	Cl	0.680069	-0.327338	-0.941677
Cl554	Cl	0.930069	-0.077338	-0.691677
Cl555	Cl	1.180069	0.172662	-0.441677
Cl556	Cl	1.430069	0.422662	-0.191677
H557	H	0.206173	-0.346013	-0.157623
H558	H	0.456173	-0.096013	0.092377
H559	H	0.706173	0.153987	0.342377
H560	H	0.956173	0.403987	0.592377
Cl561	Cl	0.830909	-0.562090	-0.327415
Cl562	Cl	1.080909	-0.312090	-0.077415
Cl563	Cl	1.330909	-0.062090	0.172585
Cl564	Cl	1.580909	0.187910	0.422585
H565	H	0.661380	-0.346000	-0.702576
H566	H	0.911380	-0.096000	-0.452576
H567	H	1.161380	0.154000	-0.202576
H568	H	1.411380	0.404000	0.047424
H569	H	0.556429	-0.312565	-0.191077
H570	H	0.806429	-0.062565	0.058923
H571	H	1.056429	0.187435	0.308923
H572	H	1.306429	0.437435	0.558923
H573	H	0.816249	-0.191318	-0.550510
H574	H	1.066249	0.058682	-0.300510
H575	H	1.316249	0.308682	-0.050510
H576	H	1.566249	0.558682	0.199490
H577	H	0.694857	-0.550199	-0.191133
H578	H	0.944857	-0.300199	0.058867
H579	H	1.194857	-0.050199	0.308867
H580	H	1.444857	0.199801	0.558867
H581	H	0.206306	-0.158072	-0.346181
H582	H	0.456306	0.091928	-0.096181
H583	H	0.706306	0.341928	0.153819
H584	H	0.956306	0.591928	0.403819
Cl585	Cl	0.568622	-0.176631	-0.327486
Cl586	Cl	0.818622	0.073369	-0.077486
Cl587	Cl	1.068622	0.323369	0.172514
Cl588	Cl	1.318622	0.573369	0.422514
H589	H	0.816317	-0.191199	-1.052871
H590	H	1.066317	0.058801	-0.802871
H591	H	1.316317	0.308801	-0.552871
H592	H	1.566317	0.558801	-0.302871
Cl593	Cl	-0.057078	-0.327423	-0.176286
Cl594	Cl	0.192922	-0.077423	0.073714
Cl595	Cl	0.442922	0.172577	0.323714
Cl596	Cl	0.692922	0.422577	0.573714
Cl597	Cl	0.066256	-0.176686	-0.327528
Cl598	Cl	0.316256	0.073314	-0.077528
Cl599	Cl	0.566256	0.323314	0.172472
Cl600	Cl	0.816256	0.573314	0.422472
Cl601	Cl	0.317449	-0.143273	-0.361014
Cl602	Cl	0.567449	0.106727	-0.111014
Cl603	Cl	0.817449	0.356727	0.138986
Cl604	Cl	1.067449	0.606727	0.388986
Cl605	Cl	0.680026	-0.439059	-0.176295
Cl606	Cl	0.930026	-0.189059	0.073705
Cl607	Cl	1.180026	0.060941	0.323705
Cl608	Cl	1.430026	0.310941	0.573705
H609	H	0.305223	-0.346001	-0.157609
H610	H	0.555223	-0.096001	0.092391
H611	H	0.805223	0.153999	0.342391
H612	H	1.055223	0.403999	0.592391
Cl613	Cl	0.066174	-0.327420	-0.176282
Cl614	Cl	0.316174	-0.077420	0.073718
Cl615	Cl	0.566174	0.172580	0.323718
Cl616	Cl	0.816174	0.422580	0.573718
H617	H	0.816078	-0.450970	-0.312560
H618	H	1.066078	-0.200970	-0.062560
H619	H	1.316078	0.049030	0.187440
H620	H	1.566078	0.299030	0.437440
