data_functionalizedCrystal
_audit_creation_method	'MofGen! by Chris Wilmer'
_symmetry_space_group_name_H-M	'P1'
_symmetry_Int_Tables_number	1
_symmetry_cell_setting	triclinic
loop_
_symmetry_equiv_pos_as_xyz
  x,y,z
_cell_length_a	14.971491
_cell_length_b	16.992695
_cell_length_c	14.048226
_cell_angle_alpha	89.993436
_cell_angle_beta	89.991693
_cell_angle_gamma	87.142229
loop_
_atom_site_label
_atom_site_type_symbol
_atom_site_fract_x
_atom_site_fract_y
_atom_site_fract_z
O1	O	1.194125	0.102209	-0.079203
O2	O	0.934585	0.114442	-0.079196
O3	O	1.063315	-0.005818	-0.079192
O4	O	1.065396	0.222469	-0.079207
O5	O	1.063298	-0.005825	0.079130
O6	O	0.934568	0.114435	0.079125
O7	O	1.194108	0.102202	0.079119
Zn8	Zn	1.064336	0.108317	0.104259
Zn9	Zn	1.064358	0.108327	-0.104336
O10	O	1.065379	0.222462	0.079114
C11	C	0.901214	0.113891	-0.000034
C12	C	0.801802	0.112249	-0.000031
C13	C	0.373608	0.105169	-0.086354
C14	C	0.467016	0.106709	-0.086350
C15	C	0.513707	0.107481	-0.000046
C16	C	0.466985	0.106704	0.086260
C17	C	0.373579	0.105158	0.086256
C18	C	0.661674	0.109928	0.086263
C19	C	0.755086	0.111475	0.086268
C20	C	0.755111	0.111479	-0.086343
C21	C	0.661704	0.109933	-0.086347
C22	C	0.614989	0.109158	-0.000040
C23	C	1.060630	-0.035037	-0.000031
C24	C	1.052643	-0.122088	-0.000031
C25	C	1.129707	-0.172255	-0.000032
C26	C	1.122197	-0.254049	-0.000041
C27	C	1.037622	-0.285674	-0.000042
C28	C	0.960552	-0.235501	-0.000044
C29	C	0.968063	-0.153709	-0.000042
C30	C	1.006492	-0.529302	-0.000054
C31	C	0.998987	-0.611100	-0.000053
C32	C	1.160633	-0.629643	-0.000052
C33	C	1.168136	-0.547848	-0.000045
C34	C	1.091066	-0.497682	-0.000052
N35	N	1.029943	-0.369281	-0.000048
N36	N	1.098746	-0.414078	-0.000052
C37	C	1.227480	0.102753	-0.000045
C38	C	1.326892	0.104395	-0.000054
C39	C	1.068064	0.251681	-0.000048
C40	C	1.076051	0.338733	-0.000054
N41	N	1.064327	0.108311	0.246620
N42	N	1.064374	0.108327	-0.246697
C43	C	1.121349	0.055081	0.296440
C44	C	1.121355	0.055081	0.396097
C45	C	1.064343	0.108314	0.445933
C46	C	1.007314	0.161546	0.396106
C47	C	1.007305	0.161542	0.296450
C48	C	1.007341	0.161552	0.603821
C49	C	1.007352	0.161557	0.703483
C50	C	1.121391	0.055091	0.703467
C51	C	1.121381	0.055087	0.603811
C52	C	1.064354	0.108320	0.553991
H53	H	0.335544	0.104536	0.156530
H54	H	0.891689	-0.261257	-0.000051
H55	H	0.943736	-0.488466	-0.000060
H56	H	0.960870	0.204885	0.255888
H57	H	0.905308	-0.112863	-0.000041
H58	H	0.335598	0.104547	-0.156633
H59	H	1.167779	0.011736	0.255870
Cl60	Cl	0.935636	0.228465	0.458755
H61	H	1.167786	0.011737	0.436660
Cl62	Cl	1.193059	-0.011830	0.541159
H63	H	1.198577	-0.146513	-0.000026
H64	H	1.167824	0.011747	0.744036
Cl65	Cl	0.525741	0.107679	-0.194847
Cl66	Cl	0.935673	0.228480	0.766127
H67	H	0.960900	0.204897	0.563260
H68	H	1.184951	-0.294892	-0.000040
Cl69	Cl	0.603008	0.108970	-0.194846
H70	H	0.793151	0.112111	-0.156617
H71	H	1.237006	-0.522106	-0.000044
H72	H	0.793099	0.112107	0.156545
Cl73	Cl	0.602948	0.108944	0.194765
Cl74	Cl	0.892656	-0.650856	-0.000049
Cl75	Cl	0.525683	0.107672	0.194758
Cl76	Cl	1.257514	-0.692713	-0.000047
