data_functionalizedCrystal
_audit_creation_method	'MofGen! by Chris Wilmer'
_symmetry_space_group_name_H-M	'P1'
_symmetry_Int_Tables_number	1
_symmetry_cell_setting	triclinic
loop_
_symmetry_equiv_pos_as_xyz
  x,y,z
_cell_length_a	17.699077
_cell_length_b	12.811415
_cell_length_c	16.776229
_cell_angle_alpha	84.562504
_cell_angle_beta	89.993415
_cell_angle_gamma	83.663755
loop_
_atom_site_label
_atom_site_type_symbol
_atom_site_fract_x
_atom_site_fract_y
_atom_site_fract_z
O1	O	1.004676	0.132702	-0.075869
O2	O	1.338009	0.466036	0.257464
O3	O	1.671343	0.799369	0.590798
O4	O	0.784374	0.149977	-0.077121
O5	O	1.117708	0.483311	0.256212
O6	O	1.451041	0.816644	0.589545
O7	O	0.900067	-0.011468	-0.065445
O8	O	1.233400	0.321866	0.267888
O9	O	1.566733	0.655199	0.601221
O10	O	0.888984	0.294147	-0.087545
O11	O	1.222317	0.627481	0.245788
O12	O	1.555650	0.960814	0.579122
O13	O	0.900051	-0.011477	0.067132
O14	O	1.233385	0.321856	0.400465
O15	O	1.566718	0.655189	0.733798
O16	O	0.784359	0.149968	0.055456
O17	O	1.117692	0.483301	0.388789
O18	O	1.451026	0.816634	0.722122
O19	O	1.004661	0.132692	0.056708
O20	O	1.337994	0.466026	0.390042
O21	O	1.671327	0.799359	0.723375
Zn22	Zn	0.894507	0.141328	0.077132
Zn23	Zn	1.227841	0.474662	0.410465
Zn24	Zn	1.561174	0.807995	0.743798
Zn25	Zn	0.894528	0.141341	-0.097545
Zn26	Zn	1.227861	0.474675	0.235789
Zn27	Zn	1.561194	0.808008	0.569122
O28	O	0.888968	0.294137	0.045032
O29	O	1.222301	0.627471	0.378366
O30	O	1.555635	0.960804	0.711699
C31	C	0.756167	0.149355	-0.010789
C32	C	1.089500	0.482688	0.322545
C33	C	1.422833	0.816021	0.655878
C34	C	0.672140	0.147501	-0.010656
C35	C	1.005473	0.480834	0.322677
C36	C	1.338807	0.814167	0.656011
C37	C	0.632660	0.146622	0.061676
C38	C	0.965994	0.479955	0.395009
C39	C	1.299327	0.813288	0.728342
C40	C	0.553710	0.144863	0.061804
C41	C	0.887043	0.478196	0.395137
C42	C	1.220377	0.811530	0.728471
C43	C	0.514240	0.143991	-0.010401
C44	C	0.847573	0.477324	0.322932
C45	C	1.180907	0.810658	0.656265
C46	C	0.553726	0.144867	-0.082739
C47	C	0.887059	0.478200	0.250595
C48	C	1.220392	0.811534	0.583928
C49	C	0.632675	0.146618	-0.082865
C50	C	0.966009	0.479951	0.250468
C51	C	1.299342	0.813285	0.583801
C52	C	0.235331	0.137804	-0.082229
C53	C	0.568664	0.471137	0.251104
C54	C	0.901997	0.804470	0.584437
C55	C	0.156375	0.136055	-0.082097
C56	C	0.489709	0.469389	0.251236
C57	C	0.823042	0.802722	0.584569
C58	C	0.156365	0.136049	0.062440
C59	C	0.489699	0.469382	0.395773
C60	C	0.823032	0.802715	0.729106
C61	C	0.235315	0.137800	0.062313
C62	C	0.568648	0.471133	0.395646
C63	C	0.901982	0.804466	0.728980
C64	C	0.274794	0.138670	-0.010023
C65	C	0.608128	0.472003	0.323310
C66	C	0.941461	0.805337	0.656643
C67	C	0.360401	0.140575	-0.010161
C68	C	0.693735	0.473908	0.323172
C69	C	1.027068	0.807242	0.656506
C70	C	0.428634	0.142094	-0.010265
C71	C	0.761967	0.475427	0.323068
C72	C	1.095300	0.808760	0.656402
C73	C	0.899438	-0.050575	0.003669
C74	C	1.232771	0.282758	0.337002
C75	C	1.566104	0.616091	0.670336
C76	C	0.897577	-0.167089	0.012089
C77	C	1.230910	0.166244	0.345423
C78	C	1.564244	0.499578	0.678756
C79	C	0.894084	-0.386009	-0.116641
C80	C	1.227417	-0.052675	0.216693
C81	C	1.560750	0.280658	0.550026
C82	C	0.892335	-0.495484	-0.108733
C83	C	1.225669	-0.162150	0.224600
C84	C	1.559002	0.171183	0.557934
C85	C	0.892327	-0.495515	0.035812
C86	C	1.225660	-0.162182	0.369145
C87	C	1.558993	0.171151	0.702478
C88	C	0.894075	-0.386040	0.027904
C89	C	1.227408	-0.052707	0.361237
C90	C	1.560742	0.280626	0.694571
C91	C	0.894955	-0.331291	-0.048325
C92	C	1.228288	0.002042	0.285009
C93	C	1.561621	0.335376	0.618342
C94	C	0.896708	-0.221815	-0.056232
C95	C	1.230042	0.111518	0.277102
C96	C	1.563375	0.444852	0.610435
C97	C	0.896694	-0.221848	0.088312
C98	C	1.230027	0.111486	0.421645
C99	C	1.563361	0.444819	0.754979
C100	C	0.894946	-0.331323	0.096220
C101	C	1.228279	0.002011	0.429553
C102	C	1.561612	0.335344	0.762886
C103	C	1.032868	0.133315	-0.009626
C104	C	1.366201	0.466648	0.323707
C105	C	1.699535	0.799982	0.657040
C106	C	1.116895	0.135169	-0.009764
C107	C	1.450228	0.468502	0.323569
C108	C	1.783561	0.801836	0.656903
C109	C	0.889597	0.333245	-0.024084
C110	C	1.222931	0.666578	0.309249
C111	C	1.556264	0.999912	0.642583
C112	C	0.891458	0.449759	-0.032509
C113	C	1.224791	0.783092	0.300824
C114	C	1.558125	1.116426	0.634157
N115	N	0.894499	0.141319	0.196343
N116	N	1.227832	0.474652	0.529677
N117	N	1.561166	0.807985	0.863010
N118	N	0.894542	0.141343	-0.216756
N119	N	1.227875	0.474676	0.116577
N120	N	1.561209	0.808009	0.449911
C121	C	0.945743	0.069860	0.243229
C122	C	1.279077	0.403194	0.576562
C123	C	1.612410	0.736527	0.909895
C124	C	0.945747	0.069859	0.326681
C125	C	1.279081	0.403193	0.660014
C126	C	1.612414	0.736526	0.993348
C127	C	0.894510	0.141323	0.363246
C128	C	1.227844	0.474656	0.696579
C129	C	1.561177	0.807990	1.029913
C130	C	0.843260	0.212785	0.316355
C131	C	1.176594	0.546118	0.649688
C132	C	1.509927	0.879452	0.983021
C133	C	0.843253	0.212780	0.232905
C134	C	1.176587	0.546113	0.566238
C135	C	1.509920	0.879447	0.899571
C136	C	0.843288	0.212805	0.652901
C137	C	1.176621	0.546139	0.986234
C138	C	1.509955	0.879472	1.319567
C139	C	0.843301	0.212807	0.736357
C140	C	1.176634	0.546140	1.069690
C141	C	1.509967	0.879474	1.403024
C142	C	0.945782	0.069885	0.746677
C143	C	1.279115	0.403218	1.080010
C144	C	1.612449	0.736552	1.413344
C145	C	0.945775	0.069880	0.663227
C146	C	1.279108	0.403213	0.996560
C147	C	1.612442	0.736547	1.329893
C148	C	0.894523	0.141338	0.616343
C149	C	1.227856	0.474671	0.949676
C150	C	1.561189	0.808004	1.283010
C151	C	0.894518	0.141336	0.525855
C152	C	1.227851	0.474670	0.859188
C153	C	1.561184	0.808003	1.192521
C154	C	0.894518	0.141330	0.453732
C155	C	1.227852	0.474663	0.787066
C156	C	1.561185	0.807997	1.120399
H157	H	0.521584	0.144149	-0.141529
H158	H	0.854917	0.477483	0.191805
H159	H	1.188250	0.810816	0.525138
F160	F	0.897627	-0.163607	0.161024
F161	F	1.230961	0.169727	0.494357
F162	F	1.564294	0.503060	0.827690
H163	H	0.267447	0.138515	0.121110
H164	H	0.600780	0.471849	0.454443
H165	H	0.934114	0.805182	0.787776
F166	F	0.891372	-0.553798	0.116932
F167	F	1.224705	-0.220464	0.450266
F168	F	1.558038	0.112869	0.783599
H169	H	0.801524	0.270967	0.194731
H170	H	1.134857	0.604301	0.528064
H171	H	1.468191	0.937634	0.861398
F172	F	0.894003	-0.389601	0.177343
F173	F	1.227337	-0.056268	0.510676
F174	F	1.560670	0.277066	0.844010
H175	H	0.891623	-0.540030	-0.164363
H176	H	1.224957	-0.206697	0.168970
H177	H	1.558290	0.126637	0.502304
H178	H	0.897427	-0.177240	-0.118301
H179	H	1.230760	0.156093	0.215033
H180	H	1.564093	0.489427	0.548366
H181	H	0.987469	0.011671	0.213463
H182	H	1.320803	0.345004	0.546796
H183	H	1.654136	0.678337	0.880130
F184	F	1.000310	-0.006177	0.624314
F185	F	1.333644	0.327156	0.957648
F186	F	1.666977	0.660490	1.290981
F187	F	0.788764	0.288871	0.775270
F188	F	1.122097	0.622205	1.108604
F189	F	1.455430	0.955538	1.441937
H190	H	0.894807	-0.341432	-0.178709
H191	H	1.228140	-0.008099	0.154624
H192	H	1.561473	0.325235	0.487958
F193	F	1.000286	-0.006196	0.376580
F194	F	1.333620	0.327138	0.709913
F195	F	1.666953	0.660471	1.043247
H196	H	0.664818	0.147336	-0.141765
H197	H	0.998152	0.480669	0.191568
H198	H	1.331485	0.814002	0.524901
H199	H	0.987512	0.011697	0.784859
H200	H	1.320846	0.345030	1.118192
H201	H	1.654179	0.678363	1.451526
F202	F	0.788744	0.288858	0.603010
F203	F	1.122078	0.622191	0.936343
F204	F	1.455411	0.955524	1.269676
F205	F	0.788726	0.288838	0.355271
F206	F	1.122059	0.622171	0.688604
F207	F	1.455392	0.955505	1.021938
H208	H	0.664790	0.147341	0.120473
H209	H	0.998124	0.480674	0.453807
H210	H	1.331457	0.814007	0.787140
F211	F	0.277337	0.138731	-0.159216
F212	F	0.610671	0.472064	0.174117
F213	F	0.944004	0.805397	0.507450
F214	F	0.114343	0.135118	0.139428
F215	F	0.447676	0.468451	0.472761
F216	F	0.781010	0.801785	0.806094
F217	F	0.511695	0.143942	0.138788
F218	F	0.845028	0.477276	0.472122
F219	F	1.178362	0.810609	0.805455
H220	H	0.124241	0.135344	-0.140899
H221	H	0.457574	0.468678	0.192434
H222	H	0.790908	0.802011	0.525768
