data_functionalizedCrystal
_audit_creation_method	'MofGen! by Chris Wilmer'
_symmetry_space_group_name_H-M	'P1'
_symmetry_Int_Tables_number	1
_symmetry_cell_setting	triclinic
loop_
_symmetry_equiv_pos_as_xyz
  x,y,z
_cell_length_a	15.625110
_cell_length_b	15.538191
_cell_length_c	9.130307
_cell_angle_alpha	89.999734
_cell_angle_beta	71.919892
_cell_angle_gamma	66.740235
loop_
_atom_site_label
_atom_site_type_symbol
_atom_site_fract_x
_atom_site_fract_y
_atom_site_fract_z
O1	O	1.155974	0.122960	-0.492279
O2	O	0.888708	0.137598	-0.350303
O3	O	1.074367	-0.006781	-0.448921
O4	O	0.970316	0.267339	-0.393661
O5	O	1.074357	-0.006781	-0.692515
O6	O	0.888698	0.137599	-0.593897
O7	O	1.155964	0.122961	-0.735872
Cu8	Cu	1.022330	0.130280	-0.687127
Cu9	Cu	1.022342	0.130279	-0.399049
O10	O	0.970306	0.267340	-0.637255
C11	C	0.855333	0.136934	-0.454373
C12	C	0.755904	0.134943	-0.401554
C13	C	1.085248	-0.041862	-0.576496
C14	C	1.117676	-0.146392	-0.593707
C15	C	0.615766	0.132138	-0.194335
C16	C	0.709195	0.134008	-0.243982
C17	C	0.709191	0.134013	-0.509541
C18	C	0.615758	0.132147	-0.459916
C19	C	0.569053	0.131209	-0.302311
C20	C	0.569045	0.131218	-0.567892
C21	C	0.475622	0.129348	-0.518270
C22	C	0.428912	0.128406	-0.360673
C23	C	0.475630	0.129338	-0.252690
C24	C	0.615755	0.132150	-0.725497
C25	C	0.569042	0.131220	-0.833473
C26	C	0.475615	0.129357	-0.783851
C27	C	0.428904	0.128415	-0.626254
C28	C	0.428897	0.128424	-0.891835
C29	C	0.335474	0.126554	-0.842213
C30	C	0.335482	0.126545	-0.576632
C31	C	0.795519	-0.434612	-0.422605
C32	C	0.826012	-0.532837	-0.438806
C33	C	0.997529	-0.555052	-0.529917
C34	C	0.967050	-0.456826	-0.513716
C35	C	0.866044	-0.396614	-0.460061
C36	C	1.037575	-0.418828	-0.551173
C37	C	1.007098	-0.320611	-0.534980
C38	C	0.906097	-0.260393	-0.481332
C39	C	0.835568	-0.298397	-0.443869
C40	C	1.138580	-0.479042	-0.604838
C41	C	1.209105	-0.441044	-0.642294
C42	C	1.178629	-0.342826	-0.626092
C43	C	1.077627	-0.282607	-0.572443
C44	C	1.249158	-0.304821	-0.663555
C45	C	1.218681	-0.206605	-0.647362
C46	C	1.047151	-0.184390	-0.556251
C47	C	1.189340	0.123625	-0.631799
C48	C	1.288769	0.125616	-0.684608
C49	C	0.959424	0.302421	-0.509677
C50	C	0.926997	0.406951	-0.492456
N51	N	1.022329	0.130279	-0.889749
C52	C	1.186791	0.002461	-1.283737
C53	C	1.269003	-0.061447	-1.250718
C54	C	1.268992	-0.061449	-1.097379
C55	C	1.186762	0.002466	-0.977051
C56	C	1.104551	0.066374	-1.010069
C57	C	1.104569	0.066367	-1.163416
C58	C	0.940118	0.194187	-0.922767
C59	C	0.940123	0.194187	-1.076104
C60	C	0.857888	0.258102	-0.802439
C61	C	0.775672	0.322007	-0.835455
C62	C	0.775685	0.322006	-0.988805
C63	C	0.857912	0.258095	-1.109122
N64	N	1.022353	0.130272	-0.196432
H65	H	0.297447	0.125792	-0.448292
H66	H	1.276110	-0.175667	-0.677865
O67	O	0.857705	0.258115	-0.653395
C68	C	0.778460	0.238790	-0.560097
H69	H	0.719077	0.257977	-0.616937
H70	H	0.806513	0.160328	-0.547777
C71	C	0.807155	0.274188	-0.328233
C72	C	0.734216	0.297762	-0.398038
H73	H	0.779865	0.310561	-0.228264
H74	H	0.860547	0.287204	-0.391089
H75	H	0.830526	0.208802	-0.317980
H76	H	0.710855	0.363144	-0.408307
H77	H	0.680819	0.284758	-0.335180
H78	H	0.577731	0.131386	-0.065995
H79	H	0.747223	0.134771	-0.156041
H80	H	0.753318	-0.249368	-0.400166
O81	O	0.695850	0.384217	-0.718666
C82	C	0.679969	0.477458	-0.747731
H83	H	0.751946	0.478063	-0.828109
H84	H	0.620983	0.505013	-0.805410
C85	C	0.556666	0.540528	-0.494267
C86	C	0.645073	0.541271	-0.592978
H87	H	0.535136	0.579893	-0.398809
H88	H	0.567363	0.477710	-0.474687
H89	H	0.507523	0.563488	-0.542352
H90	H	0.694218	0.518300	-0.544902
H91	H	0.634384	0.604087	-0.612547
H92	H	1.186804	0.002449	-1.408595
H93	H	0.713270	-0.385583	-0.378903
O94	O	1.348779	-0.123625	-1.367624
C95	C	1.319540	-0.181792	-1.440825
H96	H	1.249009	-0.183519	-1.357165
H97	H	1.305179	-0.152330	-1.549406
C98	C	1.488905	-0.280675	-1.589875
C99	C	1.402282	-0.282802	-1.487117
H100	H	1.539945	-0.342982	-1.618437
H101	H	1.508605	-0.241485	-1.540563
H102	H	1.476923	-0.256119	-1.680346
H103	H	1.414261	-0.307347	-1.396640
H104	H	1.382586	-0.321998	-1.536414
O105	O	1.095630	-0.613585	-0.581767
C106	C	1.118385	-0.671084	-0.467714
H107	H	1.060532	-0.635185	-0.348807
H108	H	1.118440	-0.742534	-0.496275
C109	C	1.292373	-0.729957	-0.611218
C110	C	1.221322	-0.685862	-0.465171
H111	H	1.355871	-0.739078	-0.609652
H112	H	1.277043	-0.691222	-0.688061
H113	H	1.292407	-0.789495	-0.635002
H114	H	1.221281	-0.626321	-0.441398
H115	H	1.236655	-0.724588	-0.388323
H116	H	0.352841	0.126885	-0.320274
O117	O	0.289935	0.125781	-0.946921
C118	C	0.199033	0.206195	-0.906590
H119	H	0.172750	0.233074	-0.777333
H120	H	0.209213	0.263977	-0.977523
C121	C	0.153768	0.146657	-1.100074
C122	C	0.121483	0.179666	-0.941316
H123	H	0.105932	0.130295	-1.121501
H124	H	0.215012	0.092482	-1.127251
H125	H	0.162251	0.194814	-1.159166
H126	H	0.113012	0.131505	-0.882228
H127	H	0.060235	0.233832	-0.914130
O128	O	1.307178	-0.499672	-0.694325
C129	C	1.318958	-0.594510	-0.700629
H130	H	1.249414	-0.598381	-0.617578
H131	H	1.331671	-0.622903	-0.824251
C132	C	1.494009	-0.649766	-0.754713
C133	C	1.408597	-0.654522	-0.652698
H134	H	1.549304	-0.686787	-0.725155
H135	H	1.486074	-0.585873	-0.750473
H136	H	1.504589	-0.673426	-0.857723
H137	H	1.398010	-0.630852	-0.549695
H138	H	1.416532	-0.718414	-0.656921
O139	O	0.706584	0.133795	-0.773835
C140	C	0.774652	0.052945	-0.882863
H141	H	0.746583	-0.005082	-0.865592
H142	H	0.782880	0.071695	-1.005718
C143	C	0.910284	0.088954	-0.880545
C144	C	0.875813	0.017682	-0.859324
H145	H	0.972687	0.067204	-0.866032
H146	H	0.864425	0.143427	-0.807096
H147	H	0.917133	0.104573	-0.982925
H148	H	0.868953	0.002073	-0.756941
H149	H	0.921673	-0.036795	-0.932756
O150	O	1.347282	-0.363277	-0.715944
C151	C	1.392008	-0.346007	-0.865841
H152	H	1.333444	-0.312501	-0.922909
H153	H	1.427796	-0.295925	-0.856318
C154	C	1.543560	-0.481211	-0.895263
C155	C	1.471632	-0.440065	-0.965360
H156	H	1.592678	-0.539229	-0.956651
H157	H	1.513429	-0.492844	-0.794272
H158	H	1.573372	-0.439467	-0.887331
H159	H	1.441812	-0.481804	-0.973273
H160	H	1.501760	-0.428441	-1.066355
O161	O	0.695828	0.383958	-1.021039
C162	C	0.656743	0.333421	-1.088954
H163	H	0.716741	0.259809	-1.143786
H164	H	0.592250	0.326894	-0.995616
C165	C	0.546429	0.476882	-1.147814
C166	C	0.620122	0.386474	-1.215170
H167	H	0.523835	0.509609	-1.225665
H168	H	0.572758	0.510931	-1.102053
H169	H	0.492694	0.471431	-1.070033
H170	H	0.673860	0.391927	-1.292934
H171	H	0.593801	0.352427	-1.260947
H172	H	1.186764	0.002467	-0.852200
O173	O	1.348914	-0.123618	-1.065557
C174	C	1.421507	-0.180012	-1.204639
H175	H	1.384936	-0.181153	-1.294531
H176	H	1.478425	-0.149304	-1.251155
C177	C	1.518234	-0.280150	-1.061893
C178	C	1.473315	-0.281558	-1.172296
H179	H	1.550195	-0.342787	-1.041944
H180	H	1.469329	-0.242155	-0.968191
H181	H	1.565659	-0.254556	-1.100671
H182	H	1.425882	-0.307141	-1.133510
H183	H	1.522213	-0.319560	-1.265992
H184	H	0.437595	0.128586	-0.124349
H185	H	0.747233	0.134773	-0.637865
H186	H	0.607084	0.131981	-0.961797
H187	H	0.466942	0.129179	-1.020159
H188	H	0.964902	-0.135361	-0.512548
H189	H	0.881285	-0.180419	-0.468157
H190	H	0.857928	0.258085	-1.233983
H191	H	0.768575	-0.563770	-0.408322
H192	H	1.163391	-0.559016	-0.618007
