data_functionalizedCrystal
_audit_creation_method	'MofGen! by Chris Wilmer'
_symmetry_space_group_name_H-M	'P1'
_symmetry_Int_Tables_number	1
_symmetry_cell_setting	triclinic
loop_
_symmetry_equiv_pos_as_xyz
  x,y,z
_cell_length_a	11.026607
_cell_length_b	9.565339
_cell_length_c	11.026623
_cell_angle_alpha	90.001653
_cell_angle_beta	71.413640
_cell_angle_gamma	90.003896
loop_
_atom_site_label
_atom_site_type_symbol
_atom_site_fract_x
_atom_site_fract_y
_atom_site_fract_z
O1	O	1.726734	0.116263	-0.533615
O2	O	1.360154	0.116264	-0.472851
O3	O	1.513061	0.116257	-0.319943
O4	O	1.573827	0.116271	-0.686523
O5	O	1.513048	-0.116264	-0.319952
O6	O	1.360141	-0.116256	-0.472860
O7	O	1.726721	-0.116257	-0.533623
Zn8	Zn	1.543429	-0.153174	-0.503243
Zn9	Zn	1.543446	0.153181	-0.503231
O10	O	1.573814	-0.116249	-0.686532
C11	C	1.312488	0.000005	-0.461646
C12	C	1.170473	0.000005	-0.428229
N13	N	1.543427	-0.362253	-0.503252
C14	C	1.116825	0.000009	-0.520498
C15	C	0.970046	0.000010	-0.485963
C16	C	1.472678	-0.453453	-0.573931
C17	C	1.593235	-0.546631	-0.623814
C18	C	1.422922	-0.546630	-0.453390
C19	C	1.664053	-0.453380	-0.553205
C20	C	1.493654	-0.453371	-0.382715
C21	C	1.614283	-0.546507	-0.432566
C22	C	1.774387	0.000006	-0.544829
C23	C	1.916401	0.000014	-0.578246
C24	C	1.501844	-0.000002	-0.272287
C25	C	1.468427	0.000001	-0.130273
N26	N	1.543456	0.362261	-0.503214
C27	C	1.560696	0.000002	-0.076624
C28	C	1.526159	0.000006	0.070155
C29	C	1.585029	0.000010	0.265813
C30	C	1.618442	0.000006	0.123800
H31	H	1.179559	0.000006	-0.625061
H32	H	1.421589	0.000015	0.132884
H33	H	1.363863	0.000010	-0.067540
H34	H	1.665259	-0.000007	-0.139357
Cl35	Cl	1.013240	0.000001	-0.739696
H36	H	1.451508	-0.412375	-0.280816
H37	H	0.907316	0.000042	-0.381393
Cl38	Cl	1.265565	-0.609874	-0.388305
H39	H	1.674208	-0.587109	-0.372793
H40	H	1.107740	0.000037	-0.323666
H41	H	1.635352	-0.587595	-0.725736
Cl42	Cl	1.380437	-0.390360	-0.666339
Cl43	Cl	1.821487	-0.390415	-0.618472
Cl44	Cl	1.779893	0.000013	0.026962
