data_functionalizedCrystal
_audit_creation_method	'MofGen! by Chris Wilmer'
_symmetry_space_group_name_H-M	'P1'
_symmetry_Int_Tables_number	1
_symmetry_cell_setting	triclinic
loop_
_symmetry_equiv_pos_as_xyz
  x,y,z
_cell_length_a	17.019383
_cell_length_b	17.019294
_cell_length_c	13.596369
_cell_angle_alpha	86.115041
_cell_angle_beta	86.118699
_cell_angle_gamma	83.133350
loop_
_atom_site_label
_atom_site_type_symbol
_atom_site_fract_x
_atom_site_fract_y
_atom_site_fract_z
O1	O	1.046555	0.100560	-0.178861
O2	O	1.546555	0.600560	0.321139
O3	O	0.816878	0.113362	-0.160513
O4	O	1.316878	0.613362	0.339487
O5	O	0.938124	-0.007879	-0.160498
O6	O	1.438124	0.492121	0.339502
O7	O	0.925309	0.221801	-0.178876
O8	O	1.425309	0.721801	0.321124
O9	O	0.938112	-0.007885	0.003087
O10	O	1.438112	0.492115	0.503087
O11	O	0.816866	0.113356	0.003072
O12	O	1.316866	0.613356	0.503072
O13	O	1.046543	0.100553	-0.015276
O14	O	1.546543	0.600553	0.484724
Zn15	Zn	0.931703	0.106953	0.019870
Zn16	Zn	1.431703	0.606953	0.519870
Zn17	Zn	0.931718	0.106962	-0.195659
Zn18	Zn	1.431718	0.606962	0.304341
O19	O	0.925297	0.221794	-0.015291
O20	O	1.425297	0.721794	0.484709
C21	C	0.787484	0.112871	-0.076193
C22	C	1.287484	0.612871	0.423807
C23	C	0.699916	0.111409	-0.068660
C24	C	1.199916	0.611409	0.431340
C25	C	0.937632	-0.037271	-0.076176
C26	C	1.437632	0.462729	0.423824
C27	C	0.936174	-0.124840	-0.068639
C28	C	1.436174	0.375160	0.431361
C29	C	0.658776	0.110727	-0.154284
C30	C	1.158776	0.610727	0.345716
C31	C	0.576495	0.109366	-0.147193
C32	C	1.076495	0.609366	0.352807
C33	C	0.535357	0.108680	-0.054476
C34	C	1.035357	0.608680	0.445524
C35	C	0.576503	0.109364	0.031154
C36	C	1.076503	0.609364	0.531154
C37	C	0.658781	0.110732	0.024061
C38	C	1.158781	0.610732	0.524061
C39	C	0.286929	0.104558	-0.028600
C40	C	0.786929	0.604558	0.471400
C41	C	0.204645	0.103188	-0.021514
C42	C	0.704645	0.603188	0.478486
C43	C	0.204643	0.103191	-0.199861
C44	C	0.704643	0.603191	0.300139
C45	C	0.286924	0.104553	-0.206946
C46	C	0.786924	0.604553	0.293054
C47	C	0.328062	0.105242	-0.121316
C48	C	0.828062	0.605242	0.378684
C49	C	0.451253	0.107286	-0.047225
C50	C	0.951253	0.607286	0.452775
C51	C	0.412163	0.106641	-0.128568
C52	C	0.912163	0.606641	0.371432
C53	C	0.935497	-0.165972	-0.154267
C54	C	1.435497	0.334028	0.345733
C55	C	0.934123	-0.248252	-0.147182
C56	C	1.434123	0.251748	0.352818
C57	C	0.933430	-0.289399	-0.054467
C58	C	1.433430	0.210601	0.445533
C59	C	0.934104	-0.248260	0.031168
C60	C	1.434104	0.251740	0.531168
C61	C	0.935473	-0.165981	0.024082
C62	C	1.435473	0.334019	0.524082
C63	C	0.929291	-0.537828	-0.028610
C64	C	1.429291	-0.037828	0.471390
C65	C	0.927924	-0.620113	-0.021531
C66	C	1.427924	-0.120113	0.478469
C67	C	0.927941	-0.620098	-0.199881
C68	C	1.427941	-0.120098	0.300119
C69	C	0.929315	-0.537818	-0.206959
C70	C	1.429315	-0.037818	0.293041
C71	C	0.929985	-0.496687	-0.121324
C72	C	1.429985	0.003313	0.378676
C73	C	0.932027	-0.373502	-0.047223
C74	C	1.432027	0.126498	0.452777
C75	C	0.931382	-0.412584	-0.128569
C76	C	1.431382	0.087416	0.371431
C77	C	1.075937	0.101044	-0.099599
C78	C	1.575937	0.601044	0.400401
C79	C	1.163505	0.102507	-0.107138
C80	C	1.663505	0.602507	0.392862
C81	C	0.925789	0.251186	-0.099615
C82	C	1.425789	0.751186	0.400385
C83	C	0.927247	0.338755	-0.107159
C84	C	1.427247	0.838755	0.392841
N85	N	0.931697	0.106947	0.166963
N86	N	1.431697	0.606947	0.666963
N87	N	0.931730	0.106962	-0.342752
N88	N	1.431730	0.606962	0.157248
C89	C	0.931717	0.106963	0.568251
C90	C	1.431717	0.606963	1.068251
C91	C	0.931710	0.106961	0.456600
C92	C	1.431710	0.606961	0.956600
C93	C	0.931708	0.106956	0.367610
C94	C	1.431708	0.606956	0.867610
C95	C	0.931699	0.106953	0.255953
C96	C	1.431699	0.606953	0.755953
H97	H	0.692265	0.111283	-0.229784
H98	H	1.192265	0.611283	0.270216
Cl99	Cl	0.524785	0.108509	0.147712
Cl100	Cl	1.024785	0.608509	0.647712
Cl101	Cl	0.524780	0.108510	-0.254840
Cl102	Cl	1.024780	0.608510	0.245160
Cl103	Cl	0.399530	0.106423	0.069329
Cl104	Cl	0.899530	0.606423	0.569329
H105	H	0.320414	0.105106	-0.282445
H106	H	0.820414	0.605106	0.217555
Cl107	Cl	0.936373	-0.114253	-0.270829
Cl108	Cl	1.436373	0.385747	0.229171
Cl109	Cl	0.927058	-0.671840	0.095033
Cl110	Cl	1.427058	-0.171840	0.595033
H111	H	0.927394	-0.653596	-0.269600
H112	H	1.427394	-0.153596	0.230400
H113	H	0.936013	-0.132491	0.093810
H114	H	1.436013	0.367509	0.593810
H115	H	0.931466	-0.407013	0.028266
H116	H	1.431466	0.092987	0.528266
H117	H	0.171139	0.102633	-0.269576
H118	H	0.671139	0.602633	0.230424
Cl119	Cl	0.933274	-0.299958	-0.254834
Cl120	Cl	1.433274	0.200042	0.245166
H121	H	0.320414	0.105113	0.041126
H122	H	0.820414	0.605113	0.541126
Cl123	Cl	0.152931	0.102310	0.095054
Cl124	Cl	0.652931	0.602310	0.595054
Cl125	Cl	0.930187	-0.486097	-0.323519
Cl126	Cl	1.430187	0.013903	0.176481
H127	H	0.929852	-0.504350	0.041119
H128	H	1.429852	-0.004350	0.541119
Cl129	Cl	0.932257	-0.360856	-0.245121
Cl130	Cl	1.432257	0.139144	0.254879
H131	H	0.692276	0.111290	0.093785
H132	H	1.192276	0.611290	0.593785
Cl133	Cl	0.463881	0.107505	-0.245122
Cl134	Cl	0.963881	0.607505	0.254878
Cl135	Cl	0.933224	-0.299987	0.147725
Cl136	Cl	1.433224	0.200013	0.647725
