data_functionalizedCrystal
_audit_creation_method	'MofGen! by Chris Wilmer'
_symmetry_space_group_name_H-M	'P1'
_symmetry_Int_Tables_number	1
_symmetry_cell_setting	triclinic
loop_
_symmetry_equiv_pos_as_xyz
  x,y,z
_cell_length_a	25.639242
_cell_length_b	19.077068
_cell_length_c	19.076919
_cell_angle_alpha	94.470751
_cell_angle_beta	92.272383
_cell_angle_gamma	92.322930
loop_
_atom_site_label
_atom_site_type_symbol
_atom_site_fract_x
_atom_site_fract_y
_atom_site_fract_z
Zn1	Zn	0.778189	-0.296771	-0.410014
Zn2	Zn	0.778124	-0.409925	-0.296859
Zn3	Zn	0.694419	-0.292046	-0.292126
Zn4	Zn	0.687071	-0.414611	-0.414683
O5	O	0.734451	-0.353338	-0.353421
O6	O	0.851344	-0.311797	-0.395031
O7	O	0.770069	-0.390349	-0.197585
O8	O	0.708634	-0.194024	-0.303830
O9	O	0.851297	-0.394931	-0.311896
O10	O	0.770179	-0.197495	-0.390442
O11	O	0.708571	-0.303744	-0.194108
O12	O	0.620281	-0.308288	-0.308357
O13	O	0.696110	-0.402918	-0.512710
O14	O	0.614882	-0.398336	-0.398399
O15	O	0.763054	-0.316342	-0.509280
O16	O	0.762943	-0.509195	-0.316423
O17	O	0.696047	-0.512638	-0.402988
C18	C	0.728704	-0.536496	-0.360741
C19	C	0.726293	-0.614852	-0.363896
C20	C	0.598611	-0.353308	-0.353372
C21	C	0.540497	-0.353313	-0.353368
C22	C	0.760015	-0.649850	-0.320346
C23	C	0.757750	-0.723475	-0.323318
C24	C	0.721760	-0.762100	-0.369837
C25	C	0.688038	-0.727098	-0.413392
C26	C	0.690305	-0.653474	-0.410423
C27	C	0.711243	-0.982485	-0.383548
C28	C	0.708976	-1.056113	-0.386512
C29	C	0.778689	-1.052485	-0.296439
C30	C	0.780952	-0.978860	-0.293472
C31	C	0.747231	-0.943864	-0.337029
N32	N	0.719443	-0.837356	-0.372874
N33	N	0.749551	-0.868610	-0.333995
C34	C	0.177328	-0.400300	-0.400266
C35	C	0.122723	-0.400304	-0.400277
O36	O	0.092103	-0.440218	-0.440109
N37	N	0.098210	-0.353359	-0.353467
C38	C	0.128304	-0.306402	-0.306648
O39	O	0.102440	-0.266471	-0.266835
C40	C	0.182908	-0.306394	-0.306641
C41	C	0.207418	-0.353347	-0.353449
C42	C	0.201838	-0.447248	-0.447070
C43	C	0.256439	-0.447244	-0.447058
C44	C	0.286530	-0.400292	-0.400241
C45	C	0.262019	-0.353343	-0.353437
C46	C	0.213001	-0.259433	-0.259826
C47	C	0.267609	-0.259429	-0.259823
C48	C	0.292119	-0.306382	-0.306631
C49	C	0.346711	-0.306386	-0.306607
N50	N	0.371224	-0.353331	-0.353417
C51	C	0.341134	-0.400284	-0.400234
C52	C	0.013632	-0.306420	-0.306668
C53	C	-0.040970	-0.306431	-0.306672
C54	C	-0.046548	-0.400333	-0.400301
C55	C	0.008056	-0.400325	-0.400294
C56	C	0.038146	-0.353365	-0.353478
C57	C	0.455800	-0.400272	-0.400204
C58	C	0.510406	-0.400266	-0.400185
C59	C	0.515979	-0.306362	-0.306558
C60	C	0.461377	-0.306370	-0.306574
C61	C	0.431289	-0.353328	-0.353403
O62	O	0.377364	-0.266491	-0.266797
O63	O	0.367005	-0.440202	-0.440047
C64	C	0.870821	-0.353368	-0.353470
C65	C	0.928934	-0.353381	-0.353491
C66	C	0.728769	-0.360680	-0.537288
C67	C	0.726348	-0.363808	-0.615642
C68	C	0.740233	-0.169466	-0.346087
C69	C	0.742698	-0.091110	-0.342962
C70	C	0.760063	-0.320204	-0.650667
C71	C	0.757782	-0.323141	-0.724289
C72	C	0.721788	-0.369686	-0.762883
C73	C	0.688069	-0.413292	-0.727852
C74	C	0.690348	-0.410351	-0.654232
C75	C	0.711231	-0.383312	-0.983255
C76	C	0.708956	-0.386251	-1.056880
C77	C	0.778668	-0.296099	-1.053311
C78	C	0.780946	-0.293166	-0.979690
C79	C	0.747226	-0.336768	-0.944666
N80	N	0.719456	-0.372691	-0.838136
N81	N	0.749555	-0.333760	-0.869414
C82	C	0.740142	-0.345974	-0.170266
C83	C	0.742671	-0.342647	-0.091906
H84	H	0.785209	-0.751966	-0.287855
C85	C	0.828736	-0.231384	-0.654543
C86	C	0.799628	-0.269039	-0.608248
H87	H	0.853159	-0.199792	-0.628354
H88	H	0.846880	-0.263249	-0.684488
H89	H	0.805909	-0.205564	-0.682173
H90	H	0.822455	-0.294862	-0.580621
H91	H	0.781483	-0.237169	-0.578290
H92	H	0.658760	-0.451187	-0.759281
C93	C	0.810854	-0.172888	-0.952307
C94	C	0.820508	-0.241985	-0.937284
H95	H	0.835277	-0.141289	-0.926128
H96	H	0.814317	-0.168417	-1.001163
H97	H	0.776422	-0.162095	-0.939807
H98	H	0.854939	-0.252780	-0.949790
H99	H	0.817050	-0.246458	-0.888418
C100	C	0.267633	-0.166612	-0.167272
C101	C	0.300682	-0.207815	-0.208353
H102	H	0.288051	-0.134753	-0.135493
H103	H	0.246240	-0.140924	-0.196959
H104	H	0.246198	-0.196217	-0.141494
H105	H	0.322114	-0.178210	-0.234135
H106	H	0.322084	-0.233504	-0.178662
C107	C	0.621227	-0.499776	-0.665150
C108	C	0.653296	-0.458294	-0.615729
H109	H	0.598355	-0.529378	-0.641379
H110	H	0.601299	-0.470207	-0.692624
H111	H	0.642277	-0.527884	-0.694955
H112	H	0.632246	-0.430182	-0.585927
H113	H	0.673225	-0.487866	-0.588243
H114	H	-0.071057	-0.438562	-0.438425
C115	C	0.806126	-0.260571	-1.164581
C116	C	0.815726	-0.248166	-1.091812
H117	H	0.829002	-0.230972	-1.188347
H118	H	0.811918	-0.308413	-1.178535
H119	H	0.770946	-0.250729	-1.176211
H120	H	0.850905	-0.258013	-1.080181
H121	H	0.809938	-0.200313	-1.077852
H122	H	-0.060922	-0.268204	-0.268549
C123	C	0.765461	-0.231610	-0.803282
C124	C	0.794840	-0.275201	-0.762782
H125	H	0.788341	-0.202006	-0.827039
H126	H	0.743707	-0.259747	-0.836805
H127	H	0.744419	-0.203503	-0.773464
H128	H	0.815880	-0.303311	-0.792601
H129	H	0.816604	-0.247060	-0.729255
C130	C	0.472378	-0.213552	-0.214024
C131	C	0.434432	-0.254763	-0.255120
H132	H	0.455745	-0.181686	-0.182265
H133	H	0.493537	-0.243146	-0.188229
H134	H	0.493581	-0.187866	-0.243708
H135	H	0.413232	-0.280452	-0.225436
H136	H	0.413264	-0.225165	-0.280916
H137	H	0.789319	-0.618406	-0.282463
H138	H	0.540488	-0.268136	-0.268439
H139	H	0.177344	-0.485483	-0.485198
H140	H	0.806144	-1.080987	-0.260978
C141	C	0.849643	-0.982673	-0.204750
C142	C	0.820519	-0.936406	-0.242345
H143	H	0.874072	-0.956462	-0.173190
H144	H	0.826830	-1.010340	-0.178907
H145	H	0.867785	-1.012587	-0.236658
H146	H	0.802373	-0.906494	-0.210437
H147	H	0.843335	-0.908726	-0.268189
C148	C	-0.002954	-0.493140	-0.492844
C149	C	0.034995	-0.451931	-0.451753
H150	H	0.013676	-0.524996	-0.524617
H151	H	-0.024147	-0.518832	-0.463162
H152	H	-0.024123	-0.463539	-0.518628
H153	H	0.056161	-0.481531	-0.425964
H154	H	0.056197	-0.426237	-0.481438
C155	C	0.640302	-1.052309	-0.475266
C156	C	0.669419	-1.098572	-0.437657
H157	H	0.615886	-1.078523	-0.506841
H158	H	0.622151	-1.022400	-0.443374
H159	H	0.663125	-1.024635	-0.501100
H160	H	0.646596	-1.126243	-0.411819
H161	H	0.687572	-1.128493	-0.469554
H162	H	0.193055	-0.221201	-0.221708
C163	C	0.640268	-0.475063	-1.053016
C164	C	0.669386	-0.437414	-1.099304
H165	H	0.615840	-0.506644	-1.079209
H166	H	0.663085	-0.500888	-1.025386
H167	H	0.622125	-0.443188	-1.023068
H168	H	0.687533	-0.469289	-1.129249
H169	H	0.646566	-0.411588	-1.126946
C170	C	0.683766	-0.418836	-0.871992
C171	C	0.674170	-0.431244	-0.944761
H172	H	0.660882	-0.448427	-0.848227
H173	H	0.718939	-0.428679	-0.860355
H174	H	0.677974	-0.370986	-0.858041
H175	H	0.679966	-0.479093	-0.958713
H176	H	0.638989	-0.421406	-0.956402
C177	C	0.683765	-0.871244	-0.419002
C178	C	0.674175	-0.944022	-0.431422
H179	H	0.660881	-0.847498	-0.448563
H180	H	0.677974	-0.857315	-0.371149
H181	H	0.718942	-0.859560	-0.428884
H182	H	0.638999	-0.955707	-0.421536
H183	H	0.679962	-0.957956	-0.479287
C184	C	0.675238	-0.813652	-0.511537
C185	C	0.648478	-0.769556	-0.464526
H186	H	0.650812	-0.839865	-0.543101
H187	H	0.698047	-0.785975	-0.537375
H188	H	0.694995	-0.845029	-0.486016
H189	H	0.628723	-0.738175	-0.490047
H190	H	0.625659	-0.797235	-0.438685
C191	C	0.078250	-0.292685	-0.211445
C192	C	0.046707	-0.254807	-0.255195
H193	H	0.098668	-0.260820	-0.179672
H194	H	0.056815	-0.322279	-0.185666
H195	H	0.100664	-0.320636	-0.239327
H196	H	0.024289	-0.226859	-0.227313
H197	H	0.068143	-0.225201	-0.280976
C198	C	0.621170	-0.664451	-0.499754
C199	C	0.653239	-0.615002	-0.458296
H200	H	0.598286	-0.640699	-0.529308
H201	H	0.642217	-0.694211	-0.527902
H202	H	0.601252	-0.691971	-0.470164
H203	H	0.673160	-0.587486	-0.487885
H204	H	0.632189	-0.585230	-0.430145
H205	H	0.530360	-0.438504	-0.438303
H206	H	0.431308	-0.438508	-0.438338
H207	H	0.276391	-0.485477	-0.485175
