data_functionalizedCrystal
_audit_creation_method	'MofGen! by Chris Wilmer'
_symmetry_space_group_name_H-M	'P1'
_symmetry_Int_Tables_number	1
_symmetry_cell_setting	triclinic
loop_
_symmetry_equiv_pos_as_xyz
  x,y,z
_cell_length_a	20.875641
_cell_length_b	23.196402
_cell_length_c	23.196401
_cell_angle_alpha	59.999265
_cell_angle_beta	90.004301
_cell_angle_gamma	57.589996
loop_
_atom_site_label
_atom_site_type_symbol
_atom_site_fract_x
_atom_site_fract_y
_atom_site_fract_z
Zr1	Zr	0.641483	0.588697	-0.054488
O2	O	0.535143	0.715992	-0.150047
O3	O	0.674079	0.466277	-0.025197
O4	O	0.674057	0.586564	-0.145473
O5	O	0.535185	0.595687	0.065108
O6	O	0.783638	0.579336	-0.141860
O7	O	0.535165	0.595705	-0.029771
O8	O	0.783678	0.364164	0.073290
O9	O	0.535146	0.810860	-0.150042
O10	O	0.769764	0.509430	-0.010005
O11	O	0.688000	0.514811	0.058107
O12	O	0.687974	0.656434	-0.083502
O13	O	0.606210	0.661815	-0.015390
Zr14	Zr	0.816284	0.577141	0.102595
Zr15	Zr	0.816252	0.577169	-0.048726
Zr16	Zr	0.641515	0.588669	0.096834
Zr17	Zr	0.641488	0.739999	-0.054481
Zr18	Zr	0.816280	0.425839	0.102589
O19	O	0.783688	0.699561	0.073305
O20	O	0.783642	0.699601	-0.141855
O21	O	0.535189	0.715952	0.065114
O22	O	0.922624	0.449845	0.198154
O23	O	0.922578	0.449885	-0.017006
O24	O	0.674125	0.466237	0.189963
O25	O	0.922582	0.570150	-0.017000
O26	O	0.783710	0.579273	0.193580
O27	O	0.674129	0.586502	0.189968
O28	O	0.922602	0.570132	0.077879
O29	O	0.674064	0.801696	-0.145463
O30	O	0.783703	0.364141	0.193571
O31	O	0.922621	0.354978	0.198150
O32	O	0.922596	0.355000	0.077870
O33	O	0.535172	0.810837	-0.029762
O34	O	0.674090	0.801674	-0.025182
O35	O	0.769794	0.509404	0.131610
O36	O	0.851558	0.504022	0.063498
O37	O	0.769768	0.651026	-0.009999
O38	O	0.688004	0.656408	0.058113
C39	C	0.728878	0.393663	0.024046
C40	C	0.728876	0.329431	0.024043
C41	C	0.771550	0.296452	-0.011514
C42	C	0.771558	0.236091	-0.011508
C43	C	0.728876	0.208723	0.024045
C44	C	0.686199	0.241706	0.059609
C45	C	0.686199	0.302060	0.059608
C46	C	0.657371	0.151411	0.016413
C47	C	0.657369	0.091062	0.016408
C48	C	0.728877	0.022568	0.024052
C49	C	0.800386	0.014439	0.031685
C50	C	0.800386	0.074793	0.031684
C51	C	0.728871	0.143279	0.024050
C52	C	0.771563	-0.075863	-0.011500
C53	C	0.771573	-0.136229	-0.011489
C54	C	0.686207	-0.130606	0.059623
C55	C	0.686205	-0.070247	0.059617
C56	C	0.728881	-0.042876	0.024052
C57	C	0.510274	0.597339	0.016848
C58	C	0.436080	0.602233	0.014402
C59	C	0.443915	0.527799	0.051614
C60	C	0.374199	0.532403	0.049314
C61	C	0.296649	0.611441	0.009798
C62	C	0.288816	0.685880	-0.027415
C63	C	0.358531	0.681275	-0.025111
C64	C	0.083569	0.633439	-0.001203
C65	C	0.013852	0.638038	-0.003506
C66	C	0.099240	0.484561	0.073224
C67	C	0.168953	0.479964	0.075522
C68	C	0.161114	0.554402	0.038312
N69	N	0.225387	0.616148	0.007445
N70	N	0.232375	0.549694	0.040670
C71	C	0.947493	0.568499	0.031260
C72	C	1.021687	0.563605	0.033706
C73	C	0.728843	0.582954	-0.165227
C74	C	0.728830	0.582966	-0.229467
C75	C	0.728890	0.772175	0.024062
C76	C	0.728892	0.836406	0.024065
C77	C	0.789201	0.578985	-0.257640
C78	C	0.789219	0.578968	-0.317986
C79	C	0.728853	0.582948	-0.350165
C80	C	0.668477	0.586924	-0.321983
C81	C	0.668465	0.586933	-0.261633
C82	C	0.655182	0.635302	-0.471973
C83	C	0.655193	0.635298	-0.532324
C84	C	0.728889	0.582917	-0.536300
C85	C	0.802579	0.530549	-0.479924
C86	C	0.802567	0.530558	-0.419574
C87	C	0.728860	0.582938	-0.415604
C88	C	0.789285	0.578915	-0.629907
C89	C	0.789303	0.578893	-0.690251
C90	C	0.668555	0.586858	-0.694251
C91	C	0.668543	0.586872	-0.633903
C92	C	0.728907	0.582905	-0.601737
C93	C	0.728924	0.582884	0.213334
C94	C	0.728938	0.582872	0.277574
C95	C	0.947487	0.379243	0.031252
C96	C	1.021679	0.310117	0.033695
C97	C	0.728918	0.393628	0.213326
C98	C	0.728930	0.329384	0.277563
C99	C	0.947528	0.379208	0.220532
C100	C	1.021733	0.310070	0.287215
C101	C	0.510240	0.786630	-0.172425
C102	C	0.436034	0.855768	-0.239107
C103	C	0.510280	0.786595	0.016856
C104	C	0.436088	0.855720	0.014413
C105	C	0.728849	0.772210	-0.165218
C106	C	0.728838	0.836454	-0.229456
C107	C	1.013825	0.280478	-0.003532
C108	C	1.083529	0.215536	-0.001251
C109	C	1.161087	0.180230	0.038261
C110	C	1.168940	0.209875	0.075489
C111	C	1.099236	0.274821	0.073204
C112	C	0.771631	0.296392	0.346104
C113	C	0.771639	0.236037	0.406468
C114	C	0.728950	0.208671	0.398289
C115	C	0.686244	0.241669	0.329741
C116	C	0.686231	0.302027	0.269379
C117	C	1.099268	0.274793	0.282977
C118	C	1.168999	0.209839	0.345627
C119	C	1.161193	0.180159	0.412515
C120	C	1.083650	0.215442	0.416752
C121	C	1.013921	0.280399	0.354102
C122	C	0.358499	0.891052	-0.234869
C123	C	0.288768	0.956025	-0.297519
C124	C	0.296574	0.985708	-0.364407
C125	C	0.374118	0.950421	-0.368644
C126	C	0.443847	0.885453	-0.305994
C127	C	0.443943	0.885366	0.051634
C128	C	0.374238	0.950325	0.049336
C129	C	0.296680	0.985633	0.009822
C130	C	0.288827	0.955984	-0.027404
C131	C	0.358531	0.891031	-0.025110
C132	C	0.771535	0.863800	-0.221254
C133	C	0.771540	0.924155	-0.281605
C134	C	0.728842	0.957166	-0.350158
C135	C	0.686144	0.929814	-0.358358
C136	C	0.686144	0.869456	-0.298007
H137	H	0.599141	0.097690	0.010190
O138	O	0.382718	0.982282	0.089501
H139	H	0.416585	1.007528	0.069273
O140	O	0.930179	0.318553	-0.046159
H141	H	0.896374	0.387366	-0.088115
H142	H	0.239929	1.038522	0.007960
H143	H	1.105643	0.298945	0.103523
O144	O	1.252629	0.171780	0.341050
H145	H	1.246336	0.203323	0.284012
O146	O	0.205138	0.994064	-0.292942
H147	H	0.211432	0.962490	-0.235904
O148	O	1.075235	0.183416	0.488897
H149	H	1.136752	0.132312	0.531742
O150	O	0.205172	0.994068	-0.070017
H151	H	0.198055	1.022052	-0.127061
O152	O	1.075051	0.183561	-0.041400
H153	H	1.009409	0.219015	-0.069246
O154	O	0.817578	0.200517	-0.049867
H155	H	0.847247	0.229695	-0.074602
O156	O	0.640228	0.212125	0.320924
H157	H	0.647432	0.164597	0.374417
H158	H	1.105640	0.298948	0.228519
H159	H	0.950791	0.309114	0.357563
O160	O	1.236267	0.110175	0.040730
H161	H	1.217767	0.095495	0.008210
O162	O	0.350056	0.859050	-0.065250
H163	H	0.284413	0.894512	-0.093103
H164	H	0.105613	0.423957	0.103519
O165	O	0.640085	0.839965	-0.306853
H166	H	0.574473	0.894969	-0.338322
H167	H	0.352128	0.866888	-0.180412
H168	H	-0.049294	0.702403	-0.035688
H169	H	0.806304	0.836931	-0.165440
O170	O	0.221364	1.055790	-0.431978
H171	H	0.166140	1.075332	-0.417786
H172	H	1.232097	0.181120	0.107659
O173	O	0.382533	0.982433	-0.440789
H174	H	0.321015	1.033529	-0.483635
O175	O	0.817710	0.200451	0.480394
H176	H	0.810544	0.153889	0.520999
O177	O	0.075114	0.713723	-0.041344
H178	H	0.009476	0.769453	-0.069217
H179	H	0.619380	0.590119	-0.610966
H180	H	0.506977	0.856725	-0.309454
O181	O	0.640256	0.337474	0.195480
H182	H	0.574640	0.369270	0.187138
O183	O	0.817592	0.953653	-0.272754
H184	H	0.847268	0.920564	-0.214945
O185	O	0.603441	0.591154	-0.728950
H186	H	0.613588	0.590484	-0.775651
H187	H	0.595192	0.677943	-0.578224
H188	H	0.838469	0.575646	-0.713187
O189	O	0.881982	0.473980	-0.358666
H190	H	0.890128	0.513424	-0.350838
O191	O	0.817603	-0.171796	-0.049845
H192	H	0.864803	-0.241488	-0.010978
H193	H	0.507088	0.856623	0.083816
O194	O	0.205176	0.771131	-0.070045
H195	H	0.158013	0.761830	-0.065405
O196	O	0.728833	1.022278	-0.415250
H197	H	0.765690	1.035751	-0.398023
H198	H	0.352147	0.741887	-0.055404
H199	H	0.806394	0.318666	0.352777
O200	O	0.728981	0.143554	0.463397
H201	H	0.765859	0.125205	0.512430
H202	H	0.651454	-0.152888	0.088571
O203	O	0.640083	0.965430	-0.432299
H204	H	0.647252	1.012003	-0.472881
O205	O	0.877520	-0.059427	0.039924
H206	H	0.925886	-0.097077	0.091748
H207	H	0.806302	0.318734	-0.040471
O208	O	0.854314	0.574690	-0.222936
H209	H	0.896302	0.571909	-0.252664
H210	H	0.858612	0.068169	0.037901
H211	H	0.806316	-0.053579	-0.040457
H212	H	0.651451	-0.043392	0.088568
O213	O	0.575692	0.691807	-0.467689
H214	H	0.524457	0.728230	-0.517033
H215	H	1.217978	0.127266	0.463523
O216	O	0.640156	0.212199	0.097952
H217	H	0.647317	0.164697	0.091972
H218	H	0.599133	0.207190	0.010174
H219	H	0.651447	0.328913	0.088562
H220	H	0.507056	0.463438	0.083795
H221	H	0.380586	0.471791	0.079617
H222	H	0.232094	0.415603	0.107686
H223	H	0.838382	0.575726	-0.340928
H224	H	0.862589	0.487894	-0.483157
H225	H	0.838439	0.575681	-0.603713
O226	O	0.603362	0.591225	-0.356688
H227	H	0.613506	0.590560	-0.403392
H228	H	0.619303	0.590175	-0.238694
