data_functionalizedCrystal
_audit_creation_method	'MofGen! by Chris Wilmer'
_symmetry_space_group_name_H-M	'P1'
_symmetry_Int_Tables_number	1
_symmetry_cell_setting	triclinic
loop_
_symmetry_equiv_pos_as_xyz
  x,y,z
_cell_length_a	21.295420
_cell_length_b	21.295416
_cell_length_c	21.295411
_cell_angle_alpha	89.980829
_cell_angle_beta	90.024693
_cell_angle_gamma	89.971418
loop_
_atom_site_label
_atom_site_type_symbol
_atom_site_fract_x
_atom_site_fract_y
_atom_site_fract_z
Zn1	Zn	0.962356	0.250710	0.355924
Zn2	Zn	0.962259	0.355962	0.250654
Zn3	Zn	0.857079	0.250708	0.250669
Zn4	Zn	0.857049	0.355942	0.355886
O5	O	0.909686	0.303331	0.303283
O6	O	1.050433	0.264682	0.341970
O7	O	0.948279	0.342007	0.162567
O8	O	0.871098	0.162619	0.264654
O9	O	1.050361	0.342010	0.264629
O10	O	0.948444	0.162621	0.341984
O11	O	0.871004	0.264677	0.162578
O12	O	0.768986	0.264658	0.264617
O13	O	0.871046	0.341976	0.443980
O14	O	0.768964	0.341973	0.341919
O15	O	0.948415	0.264662	0.444009
O16	O	0.948249	0.444049	0.264591
O17	O	0.870952	0.444034	0.341904
C18	C	0.746134	0.303314	0.303265
C19	C	0.676166	0.303321	0.303273
C20	C	0.176713	0.343663	0.343496
C21	C	0.242456	0.343663	0.343489
C22	C	0.275327	0.303345	0.303303
C23	C	0.242450	0.263035	0.263110
C24	C	0.176709	0.263040	0.263113
N25	N	0.378567	0.248227	0.298568
N26	N	0.441019	0.248224	0.298569
C27	C	0.473401	0.303327	0.303290
N28	N	0.440973	0.358435	0.308023
N29	N	0.378516	0.358438	0.308025
C30	C	0.346612	0.303335	0.303295
C31	C	0.577556	0.343638	0.343471
C32	C	0.643300	0.343639	0.343460
C33	C	0.643293	0.263005	0.263083
C34	C	0.577550	0.263010	0.263091
C35	C	0.544686	0.303325	0.303288
C36	C	0.909604	0.466882	0.303256
C37	C	0.909626	0.536850	0.303265
C38	C	0.949911	0.569704	0.263051
C39	C	0.949941	0.635446	0.263068
C40	C	0.909674	0.668333	0.303292
C41	C	0.869387	0.635472	0.343514
C42	C	0.869363	0.569730	0.343501
N43	N	0.854608	0.771598	0.308090
N44	N	0.854632	0.834049	0.308099
C45	C	0.909746	0.866408	0.303337
N46	N	0.964834	0.833955	0.298553
N47	N	0.964809	0.771498	0.298540
C48	C	0.909696	0.739618	0.303312
C49	C	0.950066	0.970546	0.263139
C50	C	0.950096	1.036290	0.263160
C51	C	0.869537	1.036314	0.343604
C52	C	0.869512	0.970572	0.343586
C53	C	0.909776	0.937692	0.303350
C54	C	1.073876	0.303348	0.303302
C55	C	1.143844	0.303356	0.303310
C56	C	0.909738	0.303317	0.467474
C57	C	0.909760	0.303312	0.537442
C58	C	0.909786	1.139140	0.303336
C59	C	0.909831	1.069172	0.303386
C60	C	0.909670	0.303298	0.139732
C61	C	0.909770	0.303127	0.069764
C62	C	0.950044	0.263053	0.570324
C63	C	0.950044	0.263025	0.636067
C64	C	0.909765	0.303268	0.668925
C65	C	0.869473	0.343530	0.636034
C66	C	0.869471	0.343552	0.570293
N67	N	0.904909	0.358336	0.772142
N68	N	0.904915	0.358314	0.834594
C69	C	0.909769	0.303204	0.866999
N70	N	0.914630	0.248117	0.834594
N71	N	0.914627	0.248141	0.772137
C72	C	0.909763	0.303249	0.740210
C73	C	0.950055	0.262913	0.971167
C74	C	0.950049	0.262884	1.036911
C75	C	0.869482	0.343395	1.036877
C76	C	0.869484	0.343417	0.971135
C77	C	0.909774	0.303177	0.938284
H78	H	0.670056	0.230180	0.230361
H79	H	0.149959	0.376493	0.376225
H80	H	0.836603	0.662252	0.376267
H81	H	0.982697	0.542935	0.230290
H82	H	0.269223	0.376486	0.376215
H83	H	0.982905	1.063038	0.230414
C84	C	0.278605	0.218684	0.218909
H85	H	0.322466	0.224448	0.224667
H86	H	0.267809	0.227836	0.176597
H87	H	0.267851	0.176401	0.228201
C88	C	0.679458	0.387993	0.387651
H89	H	0.723319	0.382226	0.381883
H90	H	0.668718	0.378851	0.429967
H91	H	0.668653	0.430274	0.378351
C92	C	0.994359	0.934373	0.218892
H93	H	0.988570	0.890514	0.224637
H94	H	1.036653	0.945104	0.228149
H95	H	0.985171	0.945179	0.176587
H96	H	0.836755	1.063090	0.376358
H97	H	0.550788	0.230185	0.230370
C98	C	0.825191	0.934431	0.387814
H99	H	0.801209	0.963431	0.411769
H100	H	0.849245	0.908748	0.415259
H101	H	0.797764	0.908825	0.363696
H102	H	0.836676	0.376294	0.662791
H103	H	0.982857	0.230143	0.944419
C104	C	0.994250	0.671593	0.218825
H105	H	1.018222	0.642595	0.194858
H106	H	1.021677	0.697205	0.242930
H107	H	0.970181	0.697270	0.191382
H108	H	0.149947	0.230215	0.230389
H109	H	0.550796	0.376466	0.376201
H110	H	0.836558	0.542981	0.376249
H111	H	0.982851	0.230285	0.543581
H112	H	0.982852	0.230097	1.063683
C113	C	0.994363	0.218744	0.672245
H114	H	1.018360	0.194785	0.643265
H115	H	0.970306	0.191304	0.697885
H116	H	1.021775	0.242830	0.697898
C117	C	0.825165	0.387847	0.534121
H118	H	0.801179	0.411815	0.563103
H119	H	0.797752	0.363779	0.508458
H120	H	0.849239	0.415288	0.508491
C121	C	0.825181	0.387665	1.073012
H122	H	0.830955	0.381891	1.116876
H123	H	0.782890	0.378457	1.062223
H124	H	0.834377	0.429966	1.062240
H125	H	0.836684	0.376204	0.944361
