data_functionalizedCrystal
_audit_creation_method	'MofGen! by Chris Wilmer'
_symmetry_space_group_name_H-M	'P1'
_symmetry_Int_Tables_number	1
_symmetry_cell_setting	triclinic
loop_
_symmetry_equiv_pos_as_xyz
  x,y,z
_cell_length_a	12.759401
_cell_length_b	13.897441
_cell_length_c	12.759400
_cell_angle_alpha	89.973273
_cell_angle_beta	90.012209
_cell_angle_gamma	89.983367
loop_
_atom_site_label
_atom_site_type_symbol
_atom_site_fract_x
_atom_site_fract_y
_atom_site_fract_z
Zn1	Zn	1.606247	-0.545350	-0.418270
Zn2	Zn	1.606152	-0.384060	-0.593977
Zn3	Zn	1.430554	-0.384074	-0.418310
Zn4	Zn	1.430542	-0.545318	-0.593904
O5	O	1.518374	-0.464700	-0.506115
O6	O	1.753255	-0.523962	-0.441591
O7	O	1.582824	-0.249080	-0.570722
O8	O	1.453905	-0.405487	-0.271284
O9	O	1.753185	-0.405463	-0.570683
O10	O	1.582986	-0.523976	-0.271254
O11	O	1.453813	-0.249090	-0.441660
O12	O	1.283532	-0.405456	-0.441589
O13	O	1.453884	-0.680304	-0.570559
O14	O	1.283523	-0.523921	-0.570598
O15	O	1.582973	-0.680327	-0.441521
O16	O	1.582811	-0.405431	-0.740989
O17	O	1.453792	-0.523907	-0.740935
C18	C	1.245406	-0.464687	-0.506091
C19	C	1.128630	-0.464704	-0.506105
C20	C	1.073797	-0.526502	-0.439014
C21	C	0.964073	-0.526508	-0.439034
C22	C	0.964024	-0.402915	-0.573246
C23	C	1.073746	-0.402905	-0.573219
C24	C	1.128681	-0.588301	-0.371900
C25	C	1.073848	-0.650105	-0.304804
C26	C	0.964124	-0.650111	-0.304824
C27	C	0.909233	-0.588313	-0.371940
C28	C	1.518438	-0.716293	-0.506027
C29	C	1.518465	-0.823507	-0.505989
C30	C	1.518487	-0.910577	-0.505960
C31	C	1.518517	-1.019810	-0.505912
C32	C	1.792407	-0.464714	-0.506141
C33	C	1.909183	-0.464720	-0.506152
C34	C	1.518318	-0.464685	-0.779083
C35	C	1.518391	-0.464711	-0.895859
C36	C	1.518370	-0.214086	-0.506127
C37	C	1.518546	-0.106873	-0.505869
C38	C	1.585569	-0.526459	-0.950626
C39	C	1.585618	-0.526482	-1.060350
C40	C	1.451307	-0.403002	-1.060531
C41	C	1.451254	-0.402984	-0.950809
C42	C	1.652706	-0.588185	-0.895677
C43	C	1.719891	-0.649937	-0.950444
C44	C	1.719940	-0.649961	-1.060168
C45	C	1.652804	-0.588232	-1.115125
C46	C	1.518458	-0.464737	-0.232082
C47	C	1.518493	-0.464752	-0.115305
H48	H	0.919482	-0.700428	-0.250184
H49	H	1.652837	-0.588268	-1.204470
C50	C	1.793837	-0.717888	-1.120412
C51	C	1.913270	-0.710098	-1.105249
C52	C	1.987175	-0.778023	-1.165490
C53	C	1.941647	-0.853739	-1.240894
C54	C	1.822207	-0.861531	-1.256060
C55	C	1.748303	-0.793606	-1.195819
H56	H	1.946979	-0.654046	-1.049428
H57	H	2.075592	-0.772254	-1.154263
H58	H	1.996355	-0.904021	-1.285488
H59	H	1.788499	-0.917583	-1.311881
H60	H	1.659886	-0.799375	-1.207046
C61	C	1.793734	-0.717839	-0.889997
C62	C	1.793687	-0.717817	-0.769307
C63	C	1.867530	-0.785721	-0.708863
C64	C	1.941421	-0.853648	-0.769108
C65	C	1.941471	-0.853672	-0.889805
C66	C	1.867628	-0.785768	-0.950249
H67	H	1.738986	-0.667531	-0.724703
H68	H	1.867493	-0.785702	-0.619515
H69	H	1.996085	-0.903915	-0.724364
H70	H	1.996172	-0.903958	-0.934408
H71	H	1.867665	-0.785787	-1.039597
H72	H	0.819888	-0.588303	-0.371929
H73	H	1.218023	-0.588303	-0.371876
C74	C	1.134073	-0.334929	-0.647019
C75	C	1.118943	-0.225288	-0.638298
C76	C	1.179272	-0.157307	-0.712094
C77	C	1.254730	-0.198967	-0.794611
C78	C	1.269863	-0.308614	-0.803335
C79	C	1.209534	-0.376595	-0.729539
H80	H	1.063082	-0.194444	-0.577212
H81	H	1.168069	-0.076140	-0.705636
H82	H	1.299389	-0.148644	-0.849239
H83	H	1.325725	-0.339458	-0.864422
H84	H	1.220737	-0.457763	-0.735998
H85	H	1.396649	-0.352745	-1.105285
H86	H	1.118548	-0.700413	-0.250155
H87	H	0.919323	-0.352604	-0.627890
H88	H	1.652676	-0.588171	-0.806334
H89	H	1.396550	-0.352704	-0.906217
