data_functionalizedCrystal
_audit_creation_method	'MofGen! by Chris Wilmer'
_symmetry_space_group_name_H-M	'P1'
_symmetry_Int_Tables_number	1
_symmetry_cell_setting	triclinic
loop_
_symmetry_equiv_pos_as_xyz
  x,y,z
_cell_length_a	6.817900
_cell_length_b	9.109307
_cell_length_c	16.305550
_cell_angle_alpha	99.850267
_cell_angle_beta	103.455250
_cell_angle_gamma	111.764999
loop_
_atom_site_label
_atom_site_type_symbol
_atom_site_fract_x
_atom_site_fract_y
_atom_site_fract_z
V1	V	-4.082181	-0.226818	-0.279454
O2	O	-4.011502	0.009485	-0.257338
O3	O	-4.088271	-0.448381	-0.293698
O4	O	-4.032880	-0.223950	-0.393964
O5	O	-4.067277	-0.216500	-0.156378
V6	V	-4.558865	-0.198480	-0.262771
O7	O	-4.358441	-0.288979	-0.316051
O8	O	-4.732802	-0.136319	-0.226174
O9	O	-4.329568	0.023083	-0.248527
O10	O	-4.746940	-0.434782	-0.284888
O11	O	-4.691165	-0.208798	-0.385848
O12	O	-4.384959	-0.201348	-0.148262
C13	C	-3.946557	-0.502374	-0.293458
C14	C	-4.032817	-0.683508	-0.305867
C15	C	-3.875898	-0.216088	-0.421356
C16	C	-3.917233	-0.215209	-0.515074
C17	C	-4.067480	-0.211803	-0.855573
C18	C	-3.828939	-0.201692	-0.813912
C19	C	-3.786137	-0.203281	-0.716532
C20	C	-3.992939	-0.213492	-0.686647
C21	C	-4.199657	-0.374415	-0.748926
C22	C	-4.241296	-0.373505	-0.846409
C23	C	-4.085361	-0.062277	-0.798903
C24	C	-4.037117	-0.061003	-0.700968
C25	C	-3.950826	-0.214452	-0.591179
C26	C	-4.109605	-0.210854	-0.951043
C27	C	-4.134626	0.077067	-0.248766
C28	C	-4.027605	0.258200	-0.236362
C29	C	-4.205284	-0.209216	-0.120866
C30	C	-4.143186	-0.210086	-0.027146
H31	H	-4.103250	-0.772189	-0.374890
Br32	Br	-3.604210	-0.007752	-0.820315
H33	H	-3.631106	-0.087578	-0.673131
H34	H	-3.810341	-0.309121	-0.853203
H35	H	-3.746509	-0.311949	-0.708107
H36	H	-4.258900	-0.068252	-0.826151
H37	H	-4.233066	-0.486701	-0.884987
H38	H	-3.963890	0.059654	-0.803442
H39	H	-4.183911	-0.059001	-0.679475
H40	H	-3.957194	-0.653129	-0.167345
Br41	Br	-4.153821	-0.563141	-0.734570
H42	H	-3.886717	0.058025	-0.657971
Br43	Br	-4.536811	-0.396987	-0.894766
H44	H	-4.356091	-0.387706	-0.730975
