data_functionalizedCrystal
_audit_creation_method	'MofGen! by Chris Wilmer'
_symmetry_space_group_name_H-M	'P1'
_symmetry_Int_Tables_number	1
_symmetry_cell_setting	triclinic
loop_
_symmetry_equiv_pos_as_xyz
  x,y,z
_cell_length_a	29.839134
_cell_length_b	18.050589
_cell_length_c	18.050582
_cell_angle_alpha	90.018205
_cell_angle_beta	90.026973
_cell_angle_gamma	90.020967
loop_
_atom_site_label
_atom_site_type_symbol
_atom_site_fract_x
_atom_site_fract_y
_atom_site_fract_z
Zn1	Zn	0.686773	-0.295850	0.420174
Zn2	Zn	1.186773	0.204150	0.920174
Zn3	Zn	0.686719	-0.420034	0.295993
Zn4	Zn	1.186719	0.079966	0.795993
Zn5	Zn	0.611652	-0.295846	0.295972
Zn6	Zn	1.111652	0.204154	0.795972
Zn7	Zn	0.611620	-0.419987	0.420116
Zn8	Zn	1.111620	0.080013	0.920116
O9	O	0.649191	-0.357929	0.358064
O10	O	1.149191	0.142071	0.858064
O11	O	0.749633	-0.312345	0.403734
O12	O	1.249633	0.187655	0.903734
O13	O	0.676751	-0.403578	0.192066
O14	O	1.176751	0.096422	0.692066
O15	O	0.621653	-0.191922	0.312463
O16	O	1.121653	0.308078	0.812463
O17	O	0.749593	-0.403581	0.312499
O18	O	1.249593	0.096419	0.812499
O19	O	0.676843	-0.191925	0.403714
O20	O	1.176843	0.308075	0.903714
O21	O	0.621600	-0.312338	0.192050
O22	O	1.121600	0.187662	0.692050
O23	O	0.548781	-0.312293	0.312406
O24	O	1.048781	0.187707	0.812406
O25	O	0.621599	-0.403503	0.524048
O26	O	1.121599	0.096497	1.024048
O27	O	0.548758	-0.403499	0.403614
O28	O	1.048758	0.096501	0.903614
O29	O	0.676813	-0.312300	0.524091
O30	O	1.176813	0.187700	1.024091
O31	O	0.676721	-0.523952	0.312443
O32	O	1.176721	-0.023952	0.812443
O33	O	0.621547	-0.523918	0.403635
O34	O	1.121547	-0.023918	0.903635
C35	C	0.532468	-0.357891	0.358002
C36	C	1.032468	0.142109	0.858002
C37	C	0.482534	-0.357892	0.357994
C38	C	0.982534	0.142108	0.857994
C39	C	0.649137	-0.550881	0.358051
C40	C	1.149137	-0.050881	0.858051
C41	C	0.649155	-0.633427	0.358071
C42	C	1.149155	-0.133427	0.858071
C43	C	0.619180	-0.832886	0.407644
C44	C	1.119180	-0.332886	0.907644
C45	C	0.608232	-0.882318	0.339873
C46	C	1.108232	-0.382318	0.839873
C47	C	0.649199	-0.784558	0.358081
C48	C	1.149199	-0.284558	0.858081
C49	C	0.660169	-0.882208	0.425859
C50	C	1.160169	-0.382208	0.925859
C51	C	0.649241	-0.930543	0.358096
C52	C	1.149241	-0.430543	0.858096
C53	C	0.638229	-0.832902	0.290274
C54	C	1.138229	-0.332902	0.790274
C55	C	0.690185	-0.832787	0.376306
C56	C	1.190185	-0.332787	0.876306
C57	C	0.679252	-0.882197	0.308488
C58	C	1.179252	-0.382197	0.808488
C59	C	0.649174	-0.700459	0.358073
C60	C	1.149174	-0.200459	0.858073
C61	C	0.649266	-1.014639	0.358096
C62	C	1.149266	-0.514639	0.858096
C63	C	0.125946	-0.310368	0.310669
C64	C	0.625946	0.189632	0.810669
C65	C	0.313619	-0.310347	0.310624
C66	C	0.813619	0.189653	0.810624
O67	O	0.337884	-0.269878	0.270317
O68	O	0.837884	0.230122	0.770317
N69	N	0.337089	-0.357904	0.358031
N70	N	0.837089	0.142096	0.858031
C71	C	0.313637	-0.405466	0.405456
C72	C	0.813637	0.094534	0.905456
O73	O	0.337906	-0.445910	0.445784
O74	O	0.837906	0.054090	0.945784
C75	C	0.125965	-0.405483	0.405505
C76	C	0.625965	0.094517	0.905505
C77	C	0.102498	-0.357928	0.358089
C78	C	0.602498	0.142072	0.858089
C79	C	0.102479	-0.262817	0.263257
C80	C	0.602479	0.237183	0.763257
C81	C	0.055564	-0.262825	0.263266
C82	C	0.555564	0.237175	0.763266
C83	C	0.032115	-0.310385	0.310686
C84	C	0.532115	0.189615	0.810686
C85	C	0.055582	-0.357937	0.358098
C86	C	0.555582	0.142063	0.858098
C87	C	0.102514	-0.453041	0.452933
C88	C	0.602514	0.046959	0.952933
C89	C	0.055593	-0.453039	0.452943
C90	C	0.555593	0.046961	0.952943
C91	C	0.032126	-0.405485	0.405527
C92	C	0.532126	0.094515	0.905527
C93	C	-0.014781	-0.405505	0.405527
C94	C	0.485219	0.094495	0.905527
N95	N	-0.038251	-0.357948	0.358119
N96	N	0.461749	0.142052	0.858119
C97	C	-0.014802	-0.310388	0.310699
C98	C	0.485198	0.189612	0.810699
C99	C	0.412168	-0.405455	0.405427
C100	C	0.912168	0.094545	0.905427
C101	C	0.459086	-0.405452	0.405414
C102	C	0.959086	0.094548	0.905414
C103	C	0.459065	-0.310332	0.310582
C104	C	0.959065	0.189668	0.810582
C105	C	0.412146	-0.310339	0.310591
C106	C	0.912146	0.189661	0.810591
C107	C	0.388698	-0.357898	0.358019
C108	C	0.888698	0.142102	0.858019
C109	C	-0.113328	-0.310411	0.310721
C110	C	0.386672	0.189589	0.810721
C111	C	-0.160248	-0.310425	0.310732
C112	C	0.339752	0.189575	0.810732
C113	C	-0.160223	-0.405542	0.405566
C114	C	0.339777	0.094458	0.905566
C115	C	-0.113307	-0.405531	0.405553
C116	C	0.386693	0.094469	0.905553
C117	C	-0.089861	-0.357959	0.358128
C118	C	0.410139	0.142041	0.858128
O119	O	-0.039075	-0.445948	0.445818
O120	O	0.460925	0.054052	0.945818
O121	O	-0.039079	-0.269939	0.270390
O122	O	0.460921	0.230061	0.770390
C123	C	0.172862	-0.310360	0.310660
C124	C	0.672862	0.189640	0.810660
C125	C	0.196329	-0.357911	0.358071
C126	C	0.696329	0.142089	0.858071
C127	C	0.172880	-0.405471	0.405491
C128	C	0.672880	0.094529	0.905491
C129	C	0.243247	-0.357908	0.358058
C130	C	0.743247	0.142092	0.858058
C131	C	0.266695	-0.310348	0.310638
C132	C	0.766695	0.189652	0.810638
C133	C	0.243226	-0.262791	0.263231
C134	C	0.743226	0.237209	0.763231
C135	C	0.196310	-0.262800	0.263240
C136	C	0.696310	0.237200	0.763240
C137	C	0.196350	-0.453028	0.452899
C138	C	0.696350	0.046972	0.952899
C139	C	0.243265	-0.453016	0.452885
C140	C	0.743265	0.046984	0.952885
C141	C	0.266714	-0.405456	0.405465
C142	C	0.766714	0.094544	0.905465
C143	C	0.766369	-0.357969	0.358126
C144	C	1.266369	0.142031	0.858126
C145	C	0.816304	-0.357985	0.358152
C146	C	1.316304	0.142015	0.858152
C147	C	0.649209	-0.357896	0.551769
C148	C	1.149209	0.142104	1.051769
C149	C	0.649216	-0.357882	0.634315
C150	C	1.149216	0.142118	1.134315
C151	C	0.649258	-0.164224	0.358092
C152	C	1.149258	0.335776	0.858092
C153	C	0.649286	-0.081678	0.358104
C154	C	1.149286	0.418322	0.858104
C155	C	0.649199	-0.357909	0.165112
C156	C	1.149199	0.142091	0.665112
C157	C	0.649279	-0.357713	0.082566
C158	C	1.149279	0.142287	0.582566
C159	C	0.619214	-0.407411	0.833743
C160	C	1.119214	0.092589	1.333743
C161	C	0.660201	-0.425573	0.883150
C162	C	1.160201	0.074427	1.383150
C163	C	0.649238	-0.357826	0.785446
C164	C	1.149238	0.142174	1.285446
C165	C	0.608274	-0.339643	0.883120
C166	C	1.108274	0.160357	1.383120
C167	C	0.649256	-0.357772	0.931431
C168	C	1.149256	0.142228	1.431431
C169	C	0.690247	-0.376023	0.833765
C170	C	1.190247	0.123977	1.333765
C171	C	0.638292	-0.290062	0.833732
C172	C	1.138292	0.209938	1.333732
C173	C	0.679307	-0.308198	0.883116
C174	C	1.179307	0.191802	1.383116
C175	C	0.649227	-0.357858	0.701347
C176	C	1.149227	0.142142	1.201347
C177	C	0.649271	-0.357740	1.015527
C178	C	1.149271	0.142260	1.515527
H179	H	0.573591	-0.904091	0.324471
H180	H	1.073591	-0.404091	0.824471
H181	H	0.573623	-0.324286	0.904801
H182	H	1.073623	0.175714	1.404801
O183	O	0.268518	-0.211492	0.212079
O184	O	0.768518	0.288508	0.712079
H185	H	0.289909	-0.173748	0.245380
H186	H	0.789909	0.326252	0.745380
H187	H	0.629011	-0.232795	0.812009
H188	H	1.129011	0.267205	1.312009
O189	O	0.585506	-0.804195	0.463080
O190	O	1.085506	-0.304195	0.963080
H191	H	0.594282	-0.824797	0.519169
H192	H	1.094282	-0.324797	1.019169
H193	H	0.704656	-0.903712	0.266532
H194	H	1.204656	-0.403712	0.766532
O195	O	-0.185561	-0.259141	0.259582
O196	O	0.314439	0.240859	0.759582
H197	H	-0.206925	-0.221408	0.292882
H198	H	0.293075	0.278592	0.792882
O199	O	0.672441	-0.910894	0.501776
O200	O	1.172441	-0.410894	1.001776
H201	H	0.647452	-0.891144	0.542799
H202	H	1.147452	-0.391144	1.042799
H203	H	0.628927	-0.811334	0.232944
H204	H	1.128927	-0.311334	0.732944
O205	O	0.736060	-0.803946	0.396749
O206	O	1.236060	-0.303946	0.896749
H207	H	0.749477	-0.770132	0.350441
H208	H	1.249477	-0.270132	0.850441
O209	O	0.585613	-0.463025	0.805022
O210	O	1.085613	0.036975	1.305022
H211	H	0.559982	-0.434031	0.771184
H212	H	1.059982	0.065969	1.271184
H213	H	0.669470	-0.482856	0.904856
H214	H	1.169470	0.017144	1.404856
H215	H	0.121613	-0.491765	0.491544
H216	H	0.621613	0.008235	0.991544
O217	O	-0.088043	-0.259114	0.259560
O218	O	0.411957	0.240886	0.759560
H219	H	-0.112249	-0.226062	0.226590
H220	H	0.387751	0.273938	0.726590
H221	H	0.262368	-0.491748	0.491496
H222	H	0.762368	0.008252	0.991496
H223	H	0.036461	-0.224101	0.224655
H224	H	0.536461	0.275899	0.724655
O225	O	0.127767	-0.211530	0.212093
O226	O	0.627767	0.288470	0.712093
H227	H	0.103559	-0.178478	0.179125
H228	H	0.603559	0.321522	0.679125
H229	H	0.393042	-0.271613	0.271984
H230	H	0.893042	0.228387	0.771984
H231	H	0.478164	-0.271607	0.271970
H232	H	0.978164	0.228393	0.771970
O233	O	0.484395	-0.456745	0.456552
O234	O	0.984395	0.043255	0.956552
H235	H	0.460203	-0.489808	0.489531
H236	H	0.960203	0.010192	0.989531
H237	H	0.177263	-0.491757	0.491515
H238	H	0.677263	0.008243	0.991515
H239	H	0.393081	-0.444186	0.444050
H240	H	0.893081	0.055814	0.944050
H241	H	0.724908	-0.391445	0.812176
H242	H	1.224908	0.108555	1.312176
O243	O	0.030302	-0.504385	0.504048
O244	O	0.530302	-0.004385	1.004048
H245	H	0.054506	-0.537469	0.536992
H246	H	0.554506	-0.037469	1.036992
H247	H	-0.179323	-0.444267	0.444172
H248	H	0.320677	0.055733	0.944172
O249	O	-0.087992	-0.456821	0.456690
O250	O	0.412008	0.043179	0.956690
H251	H	-0.112181	-0.489891	0.489668
H252	H	0.387819	0.010109	0.989668
O253	O	0.712985	-0.252622	0.911662
O254	O	1.212985	0.247378	1.411662
H255	H	0.746948	-0.267868	0.891788
H256	H	1.246948	0.232132	1.391788
O257	O	0.171001	-0.211502	0.212105
O258	O	0.671001	0.288498	0.712105
H259	H	0.195195	-0.178429	0.179139
H260	H	0.695195	0.321571	0.679139
