data_functionalizedCrystal
_audit_creation_method	'MofGen! by Chris Wilmer'
_symmetry_space_group_name_H-M	'P1'
_symmetry_Int_Tables_number	1
_symmetry_cell_setting	triclinic
loop_
_symmetry_equiv_pos_as_xyz
  x,y,z
_cell_length_a	29.839131
_cell_length_b	19.805407
_cell_length_c	19.805399
_cell_angle_alpha	90.019197
_cell_angle_beta	89.970435
_cell_angle_gamma	89.962430
loop_
_atom_site_label
_atom_site_type_symbol
_atom_site_fract_x
_atom_site_fract_y
_atom_site_fract_z
Zn1	Zn	-0.178910	-1.034665	-0.382703
Zn2	Zn	0.154423	-0.701332	-0.049370
Zn3	Zn	0.487757	-0.367998	0.283963
Zn4	Zn	-0.254037	-1.034550	-0.269511
Zn5	Zn	0.079296	-0.701217	0.063822
Zn6	Zn	0.412629	-0.367884	0.397155
Zn7	Zn	-0.178917	-0.921480	-0.269529
Zn8	Zn	0.154416	-0.588146	0.063805
Zn9	Zn	0.487749	-0.254813	0.397138
Zn10	Zn	-0.254009	-0.921414	-0.382659
Zn11	Zn	0.079325	-0.588080	-0.049325
Zn12	Zn	0.412658	-0.254747	0.284008
O13	O	-0.216468	-0.978027	-0.326101
O14	O	0.116865	-0.644694	0.007233
O15	O	0.450198	-0.311360	0.340566
O16	O	-0.188885	-1.129366	-0.367700
O17	O	0.144449	-0.796033	-0.034366
O18	O	0.477782	-0.462700	0.298967
O19	O	-0.244088	-1.019531	-0.174797
O20	O	0.089246	-0.686197	0.158536
O21	O	0.422579	-0.352864	0.491870
O22	O	-0.116049	-0.936570	-0.284568
O23	O	0.217284	-0.603236	0.048766
O24	O	0.550618	-0.269903	0.382099
O25	O	-0.244081	-1.129282	-0.284538
O26	O	0.089253	-0.795949	0.048795
O27	O	0.422586	-0.462615	0.382129
O28	O	-0.116044	-1.019726	-0.367717
O29	O	0.217290	-0.686393	-0.034383
O30	O	0.550623	-0.353060	0.298950
O31	O	-0.188897	-0.936458	-0.174810
O32	O	0.144436	-0.603125	0.158523
O33	O	0.477769	-0.269792	0.491857
O34	O	-0.188869	-0.826754	-0.284524
O35	O	0.144464	-0.493421	0.048809
O36	O	0.477797	-0.160088	0.382142
O37	O	-0.244031	-0.936457	-0.477381
O38	O	0.089302	-0.603124	-0.144048
O39	O	0.422635	-0.269790	0.189285
O40	O	-0.244038	-0.826706	-0.367640
O41	O	0.089295	-0.493372	-0.034307
O42	O	0.422628	-0.160039	0.299026
O43	O	-0.188857	-1.019662	-0.477414
O44	O	0.144477	-0.686329	-0.144081
O45	O	0.477810	-0.352996	0.189253
O46	O	-0.316901	-1.019467	-0.284495
O47	O	0.016433	-0.686133	0.048839
O48	O	0.349766	-0.352800	0.382172
O49	O	-0.316880	-0.936346	-0.367623
O50	O	0.016454	-0.603012	-0.034290
O51	O	0.349787	-0.269679	0.299043
C52	C	-0.216452	-0.802171	-0.326080
C53	C	0.116881	-0.468838	0.007253
C54	C	0.450215	-0.135504	0.340587
C55	C	-0.216456	-0.726939	-0.326087
C56	C	0.116878	-0.393606	0.007246
C57	C	0.450211	-0.060272	0.340580
C58	C	-0.187765	-0.691640	-0.369454
C59	C	0.145568	-0.358306	-0.036121
C60	C	0.478901	-0.024973	0.297212
C61	C	-0.187767	-0.620951	-0.369455
C62	C	0.145566	-0.287618	-0.036122
C63	C	0.478900	0.045716	0.297211
C64	C	-0.216461	-0.585564	-0.326092
C65	C	0.116872	-0.252230	0.007242
C66	C	0.450206	0.081103	0.340575
C67	C	-0.245152	-0.620868	-0.282720
C68	C	0.088181	-0.287535	0.050614
C69	C	0.421514	0.045799	0.383947
C70	C	-0.245148	-0.691555	-0.282716
C71	C	0.088185	-0.358222	0.050617
C72	C	0.421518	-0.024889	0.383951
C73	C	-0.245169	-0.335795	-0.282733
C74	C	0.088165	-0.002461	0.050600
C75	C	0.421498	0.330872	0.383933
C76	C	-0.245172	-0.265103	-0.282742
C77	C	0.088162	0.068231	0.050591
C78	C	0.421495	0.401564	0.383925
C79	C	-0.187787	-0.265191	-0.369473
C80	C	0.145546	0.068143	-0.036140
C81	C	0.478879	0.401476	0.297194
C82	C	-0.187783	-0.335878	-0.369469
C83	C	0.145550	-0.002544	-0.036136
C84	C	0.478883	0.330789	0.297198
C85	C	-0.216473	-0.371176	-0.326095
C86	C	0.116861	-0.037843	0.007239
C87	C	0.450194	0.295491	0.340572
C88	C	-0.216470	-0.447825	-0.326093
C89	C	0.116863	-0.114491	0.007240
C90	C	0.450196	0.218842	0.340573
C91	C	-0.216466	-0.508916	-0.326096
C92	C	0.116867	-0.175583	0.007237
C93	C	0.450201	0.157750	0.340571
C94	C	-0.333191	-0.977905	-0.326067
C95	C	0.000142	-0.644572	0.007266
C96	C	0.333476	-0.311238	0.340600
C97	C	-0.383125	-0.977915	-0.326075
C98	C	-0.049792	-0.644581	0.007258
C99	C	0.283541	-0.311248	0.340591
C100	C	-0.692767	-1.021387	-0.282879
C101	C	-0.359434	-0.688054	0.050455
C102	C	-0.026100	-0.354720	0.383788
C103	C	-0.880440	-1.021470	-0.282905
C104	C	-0.547107	-0.688137	0.050428
C105	C	-0.213773	-0.354804	0.383762
O106	O	-0.904704	-1.058335	-0.246152
O107	O	-0.571370	-0.725002	0.087182
O108	O	-0.238037	-0.391669	0.420515
N109	N	-0.903910	-0.978167	-0.326152
N110	N	-0.570577	-0.644834	0.007182
N111	N	-0.237244	-0.311501	0.340515
C112	C	-0.880459	-0.934844	-0.369398
C113	C	-0.547126	-0.601510	-0.036065
C114	C	-0.213793	-0.268177	0.297269
O115	O	-0.904729	-0.898019	-0.406188
O116	O	-0.571395	-0.564685	-0.072854
O117	O	-0.238062	-0.231352	0.260479
C118	C	-0.692787	-0.934764	-0.369375
C119	C	-0.359454	-0.601431	-0.036041
C120	C	-0.026121	-0.268097	0.297292
C121	C	-0.669319	-0.978065	-0.326120
C122	C	-0.335986	-0.644732	0.007213
C123	C	-0.002653	-0.311398	0.340546
C124	C	-0.669299	-1.064685	-0.239628
C125	C	-0.335966	-0.731352	0.093705
C126	C	-0.002633	-0.398018	0.427038
C127	C	-0.622384	-1.064661	-0.239619
C128	C	-0.289050	-0.731328	0.093714
C129	C	0.044283	-0.397994	0.427047
C130	C	-0.598936	-1.021339	-0.282861
C131	C	-0.265603	-0.688006	0.050472
C132	C	0.067730	-0.354672	0.383806
C133	C	-0.622404	-0.978041	-0.326112
C134	C	-0.289071	-0.644708	0.007222
C135	C	0.044263	-0.311374	0.340555
C136	C	-0.669337	-0.891444	-0.412624
C137	C	-0.336004	-0.558111	-0.079291
C138	C	-0.002670	-0.224777	0.254043
C139	C	-0.622416	-0.891429	-0.412616
C140	C	-0.289083	-0.558096	-0.079282
C141	C	0.044251	-0.224763	0.254051
C142	C	-0.598948	-0.934730	-0.369361
C143	C	-0.265615	-0.601397	-0.036028
C144	C	0.067718	-0.268064	0.297306
C145	C	-0.552041	-0.934695	-0.369344
C146	C	-0.218708	-0.601362	-0.036011
C147	C	0.114626	-0.268029	0.297322
N148	N	-0.528571	-0.977998	-0.326098
N149	N	-0.195237	-0.644665	0.007236
N150	N	0.138096	-0.311332	0.340569
C151	C	-0.552018	-1.021320	-0.282856
C152	C	-0.218685	-0.687987	0.050477
C153	C	0.114648	-0.354653	0.383811
C154	C	-0.978990	-0.934888	-0.369406
C155	C	-0.645657	-0.601554	-0.036073
C156	C	-0.312323	-0.268221	0.297260
C157	C	-1.025908	-0.934906	-0.369411
C158	C	-0.692574	-0.601573	-0.036078
C159	C	-0.359241	-0.268240	0.297255
C160	C	-1.025885	-1.021534	-0.282919
C161	C	-0.692552	-0.688201	0.050414
C162	C	-0.359219	-0.354868	0.383748
C163	C	-0.978967	-1.021512	-0.282911
C164	C	-0.645633	-0.688178	0.050422
C165	C	-0.312300	-0.354845	0.383756
C166	C	-0.955520	-0.978191	-0.326160
C167	C	-0.622186	-0.644857	0.007174
C168	C	-0.288853	-0.311524	0.340507
C169	C	-0.453493	-1.021266	-0.282840
C170	C	-0.120159	-0.687933	0.050493
C171	C	0.213174	-0.354600	0.383826
C172	C	-0.406573	-1.021236	-0.282834
C173	C	-0.073240	-0.687903	0.050500
C174	C	0.260094	-0.354570	0.383833
C175	C	-0.406600	-0.934611	-0.369328
C176	C	-0.073266	-0.601278	-0.035995
C177	C	0.260067	-0.267945	0.297338
C178	C	-0.453515	-0.934638	-0.369333
C179	C	-0.120182	-0.601305	-0.036000
C180	C	0.213152	-0.267972	0.297334
C181	C	-0.476960	-0.977971	-0.326087
C182	C	-0.143627	-0.644638	0.007247
C183	C	0.189706	-0.311305	0.340580
O184	O	-0.527749	-0.897855	-0.406084
O185	O	-0.194415	-0.564522	-0.072750
O186	O	0.138918	-0.231188	0.260583
O187	O	-0.527741	-1.058150	-0.246083
O188	O	-0.194408	-0.724817	0.087251
O189	O	0.138926	-0.391484	0.420584
C190	C	-0.739683	-1.021411	-0.282887
C191	C	-0.406349	-0.688078	0.050446
C192	C	-0.073016	-0.354744	0.383779
C193	C	-0.763150	-0.978113	-0.326138
C194	C	-0.429817	-0.644780	0.007196
C195	C	-0.096484	-0.311446	0.340529
C196	C	-0.739703	-0.934791	-0.369379
C197	C	-0.406369	-0.601458	-0.036046
C198	C	-0.073036	-0.268124	0.297287
C199	C	-0.810068	-0.978132	-0.326143
C200	C	-0.476735	-0.644798	0.007191
C201	C	-0.143402	-0.311465	0.340524
C202	C	-0.833516	-1.021454	-0.282901
C203	C	-0.500182	-0.688120	0.050432
C204	C	-0.166849	-0.354787	0.383766
C205	C	-0.810046	-1.064757	-0.239654
C206	C	-0.476712	-0.731423	0.093679
C207	C	-0.143379	-0.398090	0.427012
C208	C	-0.763130	-1.064733	-0.239646
C209	C	-0.429797	-0.731399	0.093688
C210	C	-0.096463	-0.398066	0.427021
C211	C	-0.763173	-0.891488	-0.412626
C212	C	-0.429840	-0.558155	-0.079293
C213	C	-0.096506	-0.224821	0.254041
C214	C	-0.810088	-0.891515	-0.412631
C215	C	-0.476755	-0.558181	-0.079297
C216	C	-0.143422	-0.224848	0.254036
C217	C	-0.833536	-0.934837	-0.369389
C218	C	-0.500203	-0.601503	-0.036056
C219	C	-0.166869	-0.268170	0.297278
C220	C	-0.099290	-0.978168	-0.326149
C221	C	0.234043	-0.644835	0.007184
C222	C	0.567377	-0.311502	0.340518
C223	C	-0.049355	-0.978228	-0.326170
C224	C	0.283978	-0.644895	0.007164
C225	C	0.617311	-0.311562	0.340497
C226	C	-0.216440	-0.978065	-0.502643
C227	C	0.116893	-0.644732	-0.169310
C228	C	0.450227	-0.311398	0.164023
C229	C	-0.216428	-0.978081	-0.577875
C230	C	0.116905	-0.644748	-0.244542
C231	C	0.450239	-0.311415	0.088791
C232	C	-0.216482	-0.154570	-0.326116
C233	C	0.116852	0.178764	0.007218
C234	C	0.450185	0.512097	0.340551
C235	C	-0.216479	-0.229802	-0.326106
C236	C	0.116855	0.103532	0.007227
C237	C	0.450188	0.436865	0.340560
C238	C	-0.187697	-1.021407	-0.613238
C239	C	0.145636	-0.688074	-0.279904
C240	C	0.478970	-0.354741	0.053429
C241	C	-0.187684	-1.021414	-0.683926
C242	C	0.145649	-0.688081	-0.350593
C243	C	0.478983	-0.354748	-0.017260
C244	C	-0.216404	-0.978098	-0.719251
C245	C	0.116929	-0.644765	-0.385918
C246	C	0.450262	-0.311431	-0.052584
C247	C	-0.245137	-0.934767	-0.683884
C248	C	0.088197	-0.601434	-0.350550
C249	C	0.421530	-0.268101	-0.017217
C250	C	-0.245147	-0.934757	-0.613197
C251	C	0.088186	-0.601424	-0.279863
C252	C	0.421520	-0.268091	0.053470
C253	C	-0.245095	-0.934806	-0.968957
C254	C	0.088239	-0.601472	-0.635624
C255	C	0.421572	-0.268139	-0.302291
C256	C	-0.245083	-0.934820	-1.039649
C257	C	0.088250	-0.601487	-0.706316
C258	C	0.421584	-0.268154	-0.372983
C259	C	-0.187632	-1.021462	-1.039687
C260	C	0.145702	-0.688129	-0.706354
C261	C	0.479035	-0.354796	-0.373020
C262	C	-0.187642	-1.021452	-0.969000
C263	C	0.145691	-0.688119	-0.635666
C264	C	0.479025	-0.354786	-0.302333
C265	C	-0.216372	-0.978119	-0.933639
C266	C	0.116961	-0.644786	-0.600305
C267	C	0.450294	-0.311453	-0.266972
C268	C	-0.216386	-0.978112	-0.856990
C269	C	0.116948	-0.644778	-0.523657
C270	C	0.450281	-0.311445	-0.190323
C271	C	-0.216394	-0.978109	-0.795898
C272	C	0.116939	-0.644776	-0.462565
C273	C	0.450273	-0.311442	-0.129232
C274	C	-0.216464	-0.978028	-0.150245
C275	C	0.116869	-0.644695	0.183089
C276	C	0.450203	-0.311362	0.516422
C277	C	-0.216350	-0.978143	-0.075013
C278	C	0.116984	-0.644810	0.258320
C279	C	0.450317	-0.311477	0.591654
H280	H	-0.164400	-0.720447	-0.404768
H281	H	0.168933	-0.387114	-0.071435
H282	H	0.502266	-0.053780	0.261899
Br283	Br	-0.148666	-1.080244	-0.921062
Br284	Br	0.184668	-0.746911	-0.587729
Br285	Br	0.518001	-0.413578	-0.254396
Br286	Br	-0.284138	-0.875951	-0.565204
Br287	Br	0.049196	-0.542618	-0.231870
Br288	Br	0.382529	-0.209285	0.101463
Br289	Br	-0.841932	-0.832741	-0.471337
Br290	Br	-0.508598	-0.499408	-0.138004
Br291	Br	-0.175265	-0.166075	0.195329
H292	H	-0.164311	-1.056682	-0.584481
H293	H	0.169022	-0.723349	-0.251148
H294	H	0.502356	-0.390016	0.082185
Br295	Br	-0.701112	-1.123489	-0.180936
Br296	Br	-0.367779	-0.790155	0.152397
Br297	Br	-0.034446	-0.456822	0.485730
Br298	Br	-0.374727	-1.080005	-0.224126
Br299	Br	-0.041393	-0.746671	0.109207
Br300	Br	0.291940	-0.413338	0.442541
Br301	Br	-0.284112	-0.875976	-0.731824
Br302	Br	0.049221	-0.542643	-0.398490
Br303	Br	0.382554	-0.209309	-0.065157
Br304	Br	-0.731358	-0.832689	-0.471319
Br305	Br	-0.398025	-0.499356	-0.137985
Br306	Br	-0.064692	-0.166022	0.195348
Br307	Br	-0.148829	-0.573047	-0.428314
Br308	Br	0.184505	-0.239713	-0.094981
Br309	Br	0.517838	0.093620	0.238353
H310	H	-0.164419	-0.364687	-0.404782
H311	H	0.168914	-0.031353	-0.071449
H312	H	0.502248	0.301980	0.261884
H313	H	-0.268511	-0.720295	-0.247401
H314	H	0.064823	-0.386962	0.085932
H315	H	0.398156	-0.053629	0.419265
H316	H	-0.164425	-0.236442	-0.404788
H317	H	0.168908	0.096891	-0.071455
H318	H	0.502241	0.430225	0.261879
H319	H	-0.268539	-0.236292	-0.247428
H320	H	0.064794	0.097041	0.085906
H321	H	0.398128	0.430375	0.419239
Br322	Br	-0.284085	-0.875995	-0.920976
Br323	Br	0.049248	-0.542662	-0.587643
Br324	Br	0.382582	-0.209329	-0.254309
H325	H	-0.164290	-1.056696	-0.712715
H326	H	0.169044	-0.723363	-0.379382
H327	H	0.502377	-0.390030	-0.046048
Br328	Br	-0.284093	-0.383691	-0.223851
Br329	Br	0.049240	-0.050358	0.109483
Br330	Br	0.382574	0.282976	0.442816
Br331	Br	-0.590598	-0.832636	-0.471316
Br332	Br	-0.257265	-0.499302	-0.137983
Br333	Br	0.076069	-0.165969	0.195350
Br334	Br	-0.284092	-0.572843	-0.223863
Br335	Br	0.049242	-0.239510	0.109471
Br336	Br	0.382575	0.093824	0.442804
Br337	Br	-0.148639	-1.080272	-1.087681
Br338	Br	0.184694	-0.746938	-0.754347
Br339	Br	0.518028	-0.413605	-0.421014
Br340	Br	-0.485304	-1.080076	-0.224149
Br341	Br	-0.151971	-0.746742	0.109184
Br342	Br	0.181363	-0.413409	0.442518
Br343	Br	-0.841877	-1.123547	-0.180967
Br344	Br	-0.508543	-0.790214	0.152366
Br345	Br	-0.175210	-0.456881	0.485700
Br346	Br	-0.590542	-1.123440	-0.180924
Br347	Br	-0.257209	-0.790106	0.152410
Br348	Br	0.076125	-0.456773	0.485743
H349	H	-0.959862	-1.056771	-0.247690
H350	H	-0.626529	-0.723438	0.085643
H351	H	-0.293195	-0.390105	0.418977
H352	H	-1.044984	-1.056809	-0.247710
H353	H	-0.711651	-0.723476	0.085623
H354	H	-0.378318	-0.390142	0.418957
Br355	Br	-0.284064	-0.876031	-1.087590
Br356	Br	0.049269	-0.542698	-0.754257
Br357	Br	0.382603	-0.209364	-0.420924
H358	H	-1.045011	-0.899640	-0.404627
H359	H	-0.711678	-0.566307	-0.071294
H360	H	-0.378345	-0.232973	0.262039
Br361	Br	-0.947176	-0.876088	-0.428107
Br362	Br	-0.613843	-0.542755	-0.094773
Br363	Br	-0.280509	-0.209422	0.238560
Br364	Br	-0.485365	-0.875856	-0.428019
Br365	Br	-0.152032	-0.542523	-0.094686
Br366	Br	0.181301	-0.209189	0.238647
Br367	Br	-0.374769	-0.875823	-0.428013
Br368	Br	-0.041435	-0.542489	-0.094680
Br369	Br	0.291898	-0.209156	0.238653
H370	H	-0.688437	-0.856180	-0.447843
H371	H	-0.355103	-0.522847	-0.114510
H372	H	-0.021770	-0.189514	0.218823
H373	H	-0.744026	-1.099993	-0.204424
H374	H	-0.410693	-0.766659	0.128909
H375	H	-0.077359	-0.433326	0.462243
