data_functionalizedCrystal
_audit_creation_method	'MofGen! by Chris Wilmer'
_symmetry_space_group_name_H-M	'P1'
_symmetry_Int_Tables_number	1
_symmetry_cell_setting	triclinic
loop_
_symmetry_equiv_pos_as_xyz
  x,y,z
_cell_length_a	14.908571
_cell_length_b	18.050589
_cell_length_c	14.908308
_cell_angle_alpha	86.730698
_cell_angle_beta	89.824947
_cell_angle_gamma	86.724558
loop_
_atom_site_label
_atom_site_type_symbol
_atom_site_fract_x
_atom_site_fract_y
_atom_site_fract_z
Zn1	Zn	1.345230	-0.387558	0.587600
Zn2	Zn	1.353791	-0.505024	0.437245
Zn3	Zn	1.203548	-0.373294	0.428597
Zn4	Zn	1.194819	-0.504142	0.578897
O5	O	1.274347	-0.442504	0.508085
O6	O	1.472191	-0.409479	0.574916
O7	O	1.341097	-0.481949	0.310273
O8	O	1.222413	-0.271266	0.449712
O9	O	1.478480	-0.495781	0.464452
O10	O	1.326506	-0.281746	0.566530
O11	O	1.230714	-0.385168	0.303919
O12	O	1.076565	-0.384312	0.441273
O13	O	1.207536	-0.494277	0.705876
O14	O	1.070152	-0.480446	0.551698
O15	O	1.318042	-0.408624	0.712270
O16	O	1.332633	-0.608827	0.456013
O17	O	1.215836	-0.608179	0.560084
C18	C	1.040734	-0.430736	0.494603
C19	C	0.940791	-0.425720	0.488857
C20	C	0.746369	-0.516539	0.592890
C21	C	0.652464	-0.511829	0.587494
C22	C	0.659075	-0.411586	0.472674
C23	C	0.752980	-0.416296	0.478070
C24	C	0.796623	-0.468775	0.538179
C25	C	0.890530	-0.473489	0.543570
C26	C	0.897139	-0.373243	0.428755
C27	C	0.803235	-0.368533	0.423359
C28	C	1.274239	-0.635451	0.508063
C29	C	1.274274	-0.717999	0.508089
C30	C	1.210820	-0.917126	0.564665
C31	C	1.193639	-0.961795	0.481356
C32	C	1.274362	-0.869134	0.508106
C33	C	1.291586	-0.971550	0.591427
C34	C	1.274444	-1.015125	0.508129
C35	C	1.257140	-0.912712	0.424750
C36	C	1.355122	-0.922467	0.534880
C37	C	1.337975	-0.967112	0.451515
C38	C	1.274312	-0.785033	0.508094
C39	C	1.274495	-1.099224	0.508132
C40	C	1.508873	-0.454320	0.521619
C41	C	1.608814	-0.459355	0.527387
C42	C	1.260860	-0.452943	0.742610
C43	C	1.255113	-0.457391	0.842551
C44	C	1.274479	-0.248807	0.508127
C45	C	1.274535	-0.166265	0.508145
C46	C	1.287833	-0.432055	0.274474
C47	C	1.293755	-0.427407	0.174544
C48	C	1.359381	-0.376542	1.037010
C49	C	1.353984	-0.380719	1.130914
C50	C	1.238917	-0.469919	1.124263
C51	C	1.244314	-0.465741	1.030360
C52	C	1.304549	-0.419052	0.986737
C53	C	1.309951	-0.414880	0.892832
C54	C	1.194880	-0.504075	0.886183
C55	C	1.189483	-0.508252	0.980086
H56	H	0.926063	-0.516221	0.592512
H57	H	1.306123	-0.997236	0.661882
C58	C	1.155369	-0.918398	0.716093
C59	C	1.138190	-0.887498	0.629133
H60	H	1.110526	-0.900109	0.755887
H61	H	1.212674	-0.905060	0.735241
H62	H	1.154543	-0.970983	0.716129
H63	H	1.139023	-0.834913	0.629096
H64	H	1.080871	-0.900831	0.609981
C65	C	0.655366	-0.611387	0.701528
C66	C	0.597223	-0.564333	0.647633
H67	H	0.621260	-0.643803	0.738653
H68	H	0.690030	-0.582443	0.738088
H69	H	0.694229	-0.639835	0.664391
H70	H	0.558364	-0.535880	0.684770
H71	H	0.562544	-0.593280	0.611069
C72	C	1.423137	-0.327123	0.908840
C73	C	1.376155	-0.363557	0.844878
H74	H	1.464004	-0.295433	0.879235
H75	H	1.455407	-0.362837	0.947441
H76	H	1.381860	-0.298378	0.943213
H77	H	1.417431	-0.392305	0.810510
H78	H	1.343883	-0.327838	0.806262
H79	H	0.938067	-0.334352	0.384203
H80	H	1.391749	-0.988912	0.403636
C81	C	1.035007	-0.960116	0.510097
C82	C	1.101493	-0.985347	0.450790
H83	H	0.978121	-0.974659	0.491232
H84	H	1.034145	-0.907474	0.510391
H85	H	1.047660	-0.981115	0.568888
H86	H	1.088844	-0.964344	0.392000
H87	H	1.102353	-1.037999	0.450487
H88	H	1.242524	-0.887110	0.354272
H89	H	1.398631	-0.346101	1.171843
H90	H	0.781904	-0.559273	0.641828
H91	H	0.623524	-0.368856	0.423742
H92	H	0.767687	-0.325804	0.374423
C93	C	1.465099	-0.928717	0.652779
C94	C	1.447241	-0.898890	0.565474
H95	H	1.521967	-0.914156	0.671674
H96	H	1.465637	-0.981393	0.653539
H97	H	1.419811	-0.910820	0.692336
H98	H	1.492526	-0.916792	0.525916
H99	H	1.446710	-0.846204	0.564708
H100	H	1.408431	-0.338530	1.001492
C101	C	1.179536	-0.515902	1.265262
C102	C	1.172697	-0.521223	1.172224
H103	H	1.138653	-0.547576	1.294869
H104	H	1.165534	-0.466029	1.279883
H105	H	1.239057	-0.530506	1.284132
H106	H	1.113177	-0.506614	1.153353
H107	H	1.186693	-0.571107	1.157597
C108	C	1.143948	-0.633083	1.006450
C109	C	1.123276	-0.559572	1.028041
H110	H	1.103071	-0.664766	1.036050
H111	H	1.203463	-0.647668	1.025328
H112	H	1.139315	-0.636670	0.943327
H113	H	1.127917	-0.555984	1.091163
H114	H	1.063747	-0.544984	1.009168
C115	C	1.152058	-0.537283	0.739284
C116	C	1.134602	-0.550805	0.830919
H117	H	1.114844	-0.566131	0.705169
H118	H	1.213343	-0.550508	0.727385
H119	H	1.139810	-0.486038	0.723150
H120	H	1.146856	-0.602049	0.847055
H121	H	1.073303	-0.537585	0.842823
