data_functionalizedCrystal
_audit_creation_method	'MofGen! by Chris Wilmer'
_symmetry_space_group_name_H-M	'P1'
_symmetry_Int_Tables_number	1
_symmetry_cell_setting	triclinic
loop_
_symmetry_equiv_pos_as_xyz
  x,y,z
_cell_length_a	19.188930
_cell_length_b	10.723024
_cell_length_c	18.266242
_cell_angle_alpha	89.999521
_cell_angle_beta	90.020224
_cell_angle_gamma	96.193675
loop_
_atom_site_label
_atom_site_type_symbol
_atom_site_fract_x
_atom_site_fract_y
_atom_site_fract_z
O1	O	0.927159	-0.155775	0.061115
O2	O	0.723984	-0.176746	0.061064
O3	O	0.830258	0.015413	0.061088
O4	O	0.820885	-0.347934	0.061091
O5	O	0.830245	0.015407	-0.060674
O6	O	0.723971	-0.176752	-0.060698
O7	O	0.927146	-0.155781	-0.060647
Zn8	Zn	0.825556	-0.166268	-0.080005
Zn9	Zn	0.825574	-0.166260	0.080422
O10	O	0.820872	-0.347940	-0.060671
C11	C	0.829569	0.061895	0.000208
C12	C	0.827529	0.200407	0.000210
C13	C	0.697962	-0.176070	0.000177
C14	C	0.620444	-0.174031	0.000158
C15	C	0.821561	-0.394423	0.000211
C16	C	0.823601	-0.532935	0.000214
C17	C	0.576253	-0.286784	0.000170
C18	C	0.503417	-0.284869	0.000178
C19	C	0.474775	-0.170195	0.000188
C20	C	0.518976	-0.057427	0.000172
C21	C	0.591811	-0.059346	0.000156
N22	N	0.366230	-0.082538	0.041658
N23	N	0.297040	-0.080724	0.041674
C24	C	0.255329	-0.164408	0.000233
N25	N	0.285421	-0.249994	-0.041216
N26	N	0.354618	-0.251812	-0.041228
C27	C	0.395799	-0.168102	0.000205
C28	C	0.132160	-0.275091	0.000253
C29	C	0.059322	-0.273171	0.000257
C30	C	0.074883	-0.045726	0.000258
C31	C	0.147719	-0.047650	0.000247
C32	C	0.176353	-0.162335	0.000248
C33	C	0.953168	-0.156457	0.000242
C34	C	1.030686	-0.158496	0.000266
N35	N	0.825549	-0.166273	-0.189492
C36	C	0.886994	0.276624	0.000226
C37	C	0.884886	0.419784	0.000228
C38	C	0.868291	-0.241726	-0.771756
C39	C	0.868284	-0.241739	-0.695112
C40	C	0.825580	-0.166247	-0.656804
C41	C	0.782867	-0.090761	-0.695148
C42	C	0.782870	-0.090760	-0.771792
N43	N	0.823179	-0.056944	-0.536468
N44	N	0.823180	-0.056948	-0.463660
C45	C	0.825567	-0.166247	-0.425882
N46	N	0.827967	-0.275543	-0.463662
N47	N	0.827969	-0.275537	-0.536477
C48	C	0.825572	-0.166240	-0.573697
C49	C	0.868266	-0.241748	-0.304440
C50	C	0.868254	-0.241764	-0.227794
C51	C	0.782841	-0.090774	-0.227832
C52	C	0.782849	-0.090771	-0.304477
C53	C	0.825565	-0.166256	-0.342776
N54	N	0.825587	-0.166245	0.189909
H55	H	0.599562	-0.380170	0.000172
N56	N	0.045633	0.071410	0.000282
N57	N	0.059000	0.147339	0.051608
H58	H	0.038339	0.230070	0.051624
H59	H	0.772692	0.401584	0.000195
N60	N	0.911923	-0.318806	-0.655935
N61	N	0.957839	-0.269834	-0.613152
H62	H	0.988662	-0.324255	-0.585483
N63	N	0.458276	-0.400059	0.000187
N64	N	0.483851	-0.502444	0.000184
H65	H	0.451972	-0.583799	0.000190
H66	H	0.495651	0.035941	0.000190
N67	N	0.761707	0.251515	0.000187
N68	N	0.746513	0.320793	-0.051142
H69	H	0.700025	0.356888	-0.051159
N70	N	0.739230	-0.013675	-0.343649
N71	N	0.693308	-0.062612	-0.386436
H72	H	0.662497	-0.008164	-0.414102
H73	H	0.748066	-0.029315	-0.196643
N74	N	0.911897	-0.318863	-0.810888
N75	N	0.911886	-0.318874	-0.879319
H76	H	0.942676	-0.373362	-0.906959
N77	N	0.636945	0.055845	0.000140
N78	N	0.611368	0.158228	0.000142
H79	H	0.643244	0.239585	0.000131
N80	N	0.161415	-0.392232	0.000229
N81	N	0.200296	-0.418670	-0.051106
H82	H	0.220956	-0.501402	-0.051125
H83	H	0.748096	-0.029298	-0.663954
H84	H	0.748094	-0.029293	-0.803004
N85	N	0.952815	0.225515	0.000233
N86	N	0.967998	0.156241	-0.051090
H87	H	1.014486	0.120145	-0.051085
N88	N	0.911900	-0.318859	-0.343556
N89	N	0.950023	-0.386260	-0.309315
H90	H	0.980841	-0.440721	-0.336938
H91	H	0.935793	0.485273	0.000238
H92	H	0.023342	-0.364992	0.000263
N93	N	0.911884	-0.318879	-0.188648
N94	N	0.976876	-0.303645	-0.197181
H95	H	1.007691	-0.358111	-0.169535
N96	N	0.192853	0.067538	0.000236
N97	N	0.167275	0.169919	0.000242
H98	H	0.199151	0.251277	0.000233
