data_functionalizedCrystal
_audit_creation_method	'MofGen! by Chris Wilmer'
_symmetry_space_group_name_H-M	'P1'
_symmetry_Int_Tables_number	1
_symmetry_cell_setting	triclinic
loop_
_symmetry_equiv_pos_as_xyz
  x,y,z
_cell_length_a	13.033293
_cell_length_b	16.120531
_cell_length_c	13.032268
_cell_angle_alpha	80.361611
_cell_angle_beta	89.079182
_cell_angle_gamma	79.562967
loop_
_atom_site_label
_atom_site_type_symbol
_atom_site_fract_x
_atom_site_fract_y
_atom_site_fract_z
Zn1	Zn	1.479864	0.262706	-0.795768
Zn2	Zn	1.979864	0.762706	-0.295768
Zn3	Zn	1.493017	0.384052	-0.630393
Zn4	Zn	1.993017	0.884052	-0.130393
Zn5	Zn	1.330040	0.258247	-0.601701
Zn6	Zn	1.830040	0.758247	-0.101701
Zn7	Zn	1.296775	0.419252	-0.782348
Zn8	Zn	1.796775	0.919252	-0.282348
O9	O	1.399924	0.331064	-0.702553
O10	O	1.899924	0.831064	-0.202553
O11	O	1.626438	0.265938	-0.791455
O12	O	2.126438	0.765938	-0.291455
O13	O	1.490823	0.350766	-0.481776
O14	O	1.990823	0.850766	0.018224
O15	O	1.358332	0.140674	-0.621053
O16	O	1.858332	0.640674	-0.121053
O17	O	1.636101	0.355090	-0.669955
O18	O	2.136101	0.855090	-0.169955
O19	O	1.468407	0.143950	-0.763633
O20	O	1.968407	0.643950	-0.263633
O21	O	1.371085	0.258338	-0.460696
O22	O	1.871085	0.758338	0.039304
O23	O	1.180798	0.292470	-0.608040
O24	O	1.680798	0.792470	-0.108040
O25	O	1.301637	0.415084	-0.928939
O26	O	1.801637	0.915084	-0.428939
O27	O	1.156359	0.410760	-0.740760
O28	O	1.656359	0.910760	-0.240760
O29	O	1.436151	0.300070	-0.938799
O30	O	1.936151	0.800070	-0.438799
O31	O	1.458568	0.506886	-0.656942
O32	O	1.958568	1.006886	-0.156942
O33	O	1.314390	0.532748	-0.768582
O34	O	1.814390	1.032748	-0.268582
C35	C	1.131025	0.354952	-0.669831
C36	C	1.631025	0.854952	-0.169831
C37	C	1.015985	0.365194	-0.655858
C38	C	1.515985	0.865194	-0.155858
C39	C	0.959896	0.325740	-0.709846
C40	C	1.459896	0.825740	-0.209846
C41	C	0.840995	0.336325	-0.695406
C42	C	1.340995	0.836325	-0.195406
C43	C	1.384321	0.550456	-0.714445
C44	C	1.884321	1.050456	-0.214445
C45	C	1.377737	0.644308	-0.719579
C46	C	1.877737	1.144308	-0.219579
C47	C	1.365717	0.816138	-0.728974
C48	C	1.865717	1.316138	-0.228974
C49	C	1.434178	0.845140	-0.676077
C50	C	1.934178	1.345140	-0.176077
C51	C	1.427490	0.940752	-0.681305
C52	C	1.927490	1.440752	-0.181305
C53	C	1.372403	0.720518	-0.723748
C54	C	1.872403	1.220518	-0.223748
C55	C	1.669873	0.307085	-0.735403
C56	C	2.169873	0.807085	-0.235403
C57	C	1.784909	0.296866	-0.749401
C58	C	2.284909	0.796866	-0.249401
C59	C	1.363716	0.362001	-0.972467
C60	C	1.863716	0.862001	-0.472467
C61	C	1.348287	0.375184	-1.087488
C62	C	1.848287	0.875184	-0.587488
C63	C	1.415579	1.110817	-0.690616
C64	C	1.915579	1.610817	-0.190616
C65	C	1.422162	1.016964	-0.685469
C66	C	1.922162	1.516964	-0.185469
C67	C	1.407963	0.324155	-1.143646
C68	C	1.907963	0.824155	-0.643646
C69	C	1.392017	0.337779	-1.262527
C70	C	1.892017	0.837779	-0.762527
C71	C	1.436055	0.300182	-0.433693
C72	C	1.936055	0.800182	0.066307
C73	C	1.451702	0.286743	-0.318683
C74	C	1.951702	0.786743	0.181317
H75	H	0.800994	0.377940	-0.638488
H76	H	1.300994	0.877940	-0.138488
F77	F	0.837189	0.242462	-0.823788
F78	F	1.337189	0.742462	-0.323788
H79	H	0.975979	0.406806	-0.598944
H80	H	1.475979	0.906806	-0.098944
H81	H	1.497810	0.798163	-0.626864
H82	H	1.997810	1.298163	-0.126864
F83	F	1.282548	0.877537	-0.793292
F84	F	1.782548	1.377537	-0.293292
F85	F	1.012182	0.271343	-0.784232
F86	F	1.512182	0.771343	-0.284232
F87	F	1.266070	0.445469	-1.139674
F88	F	1.766070	0.945469	-0.639674
F89	F	1.533928	0.216458	-1.266504
F90	F	2.033928	0.716458	-0.766504
F91	F	1.490155	0.253851	-1.091455
F92	F	1.990155	0.753851	-0.591455
H93	H	1.329111	0.391553	-1.302453
H94	H	1.829111	0.891553	-0.802453
