data_functionalizedCrystal
_audit_creation_method	'MofGen! by Chris Wilmer'
_symmetry_space_group_name_H-M	'P1'
_symmetry_Int_Tables_number	1
_symmetry_cell_setting	triclinic
loop_
_symmetry_equiv_pos_as_xyz
  x,y,z
_cell_length_a	13.897449
_cell_length_b	13.897448
_cell_length_c	16.625539
_cell_angle_alpha	90.024962
_cell_angle_beta	90.019431
_cell_angle_gamma	90.020848
loop_
_atom_site_label
_atom_site_type_symbol
_atom_site_fract_x
_atom_site_fract_y
_atom_site_fract_z
Zn1	Zn	-1.474678	0.383980	-0.455904
Zn2	Zn	-1.474570	0.545293	-0.321079
Zn3	Zn	-1.313370	0.384018	-0.321087
Zn4	Zn	-1.313343	0.545239	-0.455871
O5	O	-1.393990	0.464632	-0.388485
O6	O	-1.609645	0.405386	-0.438029
O7	O	-1.453153	0.523938	-0.208247
O8	O	-1.334825	0.249031	-0.338988
O9	O	-1.609566	0.523902	-0.338974
O10	O	-1.453336	0.249004	-0.438037
O11	O	-1.334720	0.405450	-0.208253
O12	O	-1.178385	0.405397	-0.338956
O13	O	-1.334778	0.523809	-0.568708
O14	O	-1.178365	0.523845	-0.437982
O15	O	-1.453310	0.405333	-0.568732
O16	O	-1.453127	0.680268	-0.338942
O17	O	-1.334674	0.680227	-0.437974
C18	C	-1.393912	0.715247	-0.388471
C19	C	-1.393966	0.822461	-0.388492
C20	C	-1.143376	0.464620	-0.388467
C21	C	-1.036162	0.464637	-0.388478
C22	C	-1.394053	0.464561	-0.598794
C23	C	-1.394080	0.464530	-0.688415
C24	C	-1.645583	0.464646	-0.388504
C25	C	-1.752797	0.464652	-0.388512
C26	C	-0.839867	0.464641	-0.388499
C27	C	-0.949099	0.464636	-0.388485
C28	C	-1.394061	1.018756	-0.388550
C29	C	-1.394006	0.909523	-0.388520
C30	C	-1.394087	1.213039	-0.388526
C31	C	-1.394108	1.105825	-0.388568
C32	C	-1.394124	0.464422	-1.016591
C33	C	-1.394109	0.464455	-0.925283
C34	C	-1.394102	0.464477	-0.852506
C35	C	-1.394086	0.464508	-0.761192
C36	C	-1.393983	0.464634	-0.178994
C37	C	-1.394144	0.464393	-0.089374
