data_functionalizedCrystal
_audit_creation_method	'MofGen! by Chris Wilmer'
_symmetry_space_group_name_H-M	'P1'
_symmetry_Int_Tables_number	1
_symmetry_cell_setting	triclinic
loop_
_symmetry_equiv_pos_as_xyz
  x,y,z
_cell_length_a	16.959455
_cell_length_b	16.959453
_cell_length_c	16.959447
_cell_angle_alpha	90.029791
_cell_angle_beta	90.018348
_cell_angle_gamma	90.019416
loop_
_atom_site_label
_atom_site_type_symbol
_atom_site_fract_x
_atom_site_fract_y
_atom_site_fract_z
Zn1	Zn	1.208413	-0.314688	0.446913
Zn2	Zn	1.708413	0.185312	0.946913
Zn3	Zn	1.208327	-0.446877	0.314732
Zn4	Zn	1.708327	0.053123	0.814732
Zn5	Zn	1.076233	-0.314716	0.314749
Zn6	Zn	1.576233	0.185284	0.814749
Zn7	Zn	1.076206	-0.446827	0.446870
Zn8	Zn	1.576206	0.053173	0.946870
O9	O	1.142295	-0.380777	0.380816
O10	O	1.642295	0.119223	0.880816
O11	O	1.319012	-0.332233	0.429389
O12	O	1.819012	0.167767	0.929389
O13	O	1.190780	-0.429379	0.204124
O14	O	1.690780	0.070621	0.704124
O15	O	1.093814	-0.204101	0.332306
O16	O	1.593814	0.295899	0.832306
O17	O	1.318949	-0.429352	0.332277
O18	O	1.818949	0.070648	0.832277
O19	O	1.190926	-0.204081	0.429406
O20	O	1.690926	0.295919	0.929406
O21	O	1.093731	-0.332280	0.204136
O22	O	1.593731	0.167720	0.704136
O23	O	0.965618	-0.332231	0.332265
O24	O	1.465618	0.167769	0.832265
O25	O	1.093768	-0.429266	0.557487
O26	O	1.593768	0.070734	1.057487
O27	O	0.965599	-0.429293	0.429333
O28	O	1.465599	0.070707	0.929333
O29	O	1.190900	-0.332184	0.557518
O30	O	1.690900	0.167816	1.057518
O31	O	1.190754	-0.557482	0.332236
O32	O	1.690754	-0.057482	0.832236
O33	O	1.093685	-0.557445	0.429317
O34	O	1.593685	-0.057445	0.929317
C35	C	0.936928	-0.380760	0.380797
C36	C	1.436928	0.119240	0.880797
C37	C	0.849072	-0.380771	0.380807
C38	C	1.349072	0.119229	0.880807
C39	C	0.807763	-0.431265	0.330173
C40	C	1.307763	0.068735	0.830173
C41	C	0.807827	-0.330284	0.431447
C42	C	1.307827	0.169716	0.931447
C43	C	0.725281	-0.330290	0.431456
C44	C	1.225281	0.169710	0.931456
C45	C	0.683972	-0.380784	0.380823
C46	C	1.183972	0.119216	0.880823
C47	C	0.725210	-0.431271	0.330179
C48	C	1.225210	0.068729	0.830179
C49	C	0.684038	-0.279799	0.482093
C50	C	1.184038	0.220201	0.982093
C51	C	0.601487	-0.279802	0.482104
C52	C	1.101487	0.220198	0.982104
C53	C	0.560176	-0.330300	0.431474
C54	C	1.060176	0.169700	0.931474
C55	C	0.601419	-0.380790	0.380829
C56	C	1.101419	0.119210	0.880829
C57	C	0.560110	-0.431283	0.330195
C58	C	1.060110	0.068717	0.830195
C59	C	0.601351	-0.481778	0.279554
C60	C	1.101351	0.018222	0.779554
C61	C	0.683899	-0.481769	0.279549
C62	C	1.183899	0.018231	0.779549
C63	C	0.477628	-0.330309	0.431478
C64	C	0.977628	0.169691	0.931478
C65	C	0.477557	-0.431290	0.330201
C66	C	0.977557	0.068710	0.830201
C67	C	1.142229	-0.586143	0.380787
C68	C	1.642229	-0.086143	0.880787
C69	C	1.142273	-0.674000	0.380801
C70	C	1.642273	-0.174000	0.880801
C71	C	1.192926	-1.045406	0.431471
C72	C	1.692926	-0.545406	0.931471
C73	C	1.091884	-1.045544	0.330278
C74	C	1.591884	-0.545544	0.830278
C75	C	1.091855	-0.962999	0.330260
C76	C	1.591855	-0.462999	0.830260
C77	C	1.142361	-0.921653	0.380849
C78	C	1.642361	-0.421653	0.880849
C79	C	1.192896	-0.962853	0.431456
C80	C	1.692896	-0.462853	0.931456
C81	C	1.041315	-0.921792	0.279659
C82	C	1.541315	-0.421792	0.779659
C83	C	1.041283	-0.839241	0.279640
C84	C	1.541283	-0.339241	0.779640
C85	C	1.091794	-0.797894	0.330225
C86	C	1.591794	-0.297894	0.830225
C87	C	1.142332	-0.839099	0.380834
C88	C	1.642332	-0.339099	0.880834
C89	C	1.192837	-0.797753	0.431423
C90	C	1.692837	-0.297753	0.931423
C91	C	1.243380	-0.838957	0.482029
C92	C	1.743380	-0.338957	0.982029
C93	C	1.243407	-0.921506	0.482042
C94	C	1.743407	-0.421506	0.982042
C95	C	1.091767	-0.715346	0.330212
C96	C	1.591767	-0.215346	0.830212
C97	C	1.192808	-0.715200	0.431408
C98	C	1.692808	-0.215200	0.931408
C99	C	1.348463	-0.380795	0.380836
C100	C	1.848463	0.119205	0.880836
C101	C	1.436319	-0.380802	0.380845
C102	C	1.936319	0.119198	0.880845
C103	C	1.142341	-0.380716	0.586984
C104	C	1.642341	0.119284	1.086984
C105	C	1.142360	-0.380690	0.674841
C106	C	1.642360	0.119310	1.174841
C107	C	1.142382	-0.174609	0.380862
C108	C	1.642382	0.325391	0.880862
C109	C	1.142420	-0.086752	0.380882
C110	C	1.642420	0.413248	0.880882
C111	C	1.142294	-0.380781	0.175450
C112	C	1.642294	0.119219	0.675450
C113	C	1.142428	-0.380584	0.087594
C114	C	1.642428	0.119416	0.587594
C115	C	1.192899	-0.431232	0.716110
C116	C	1.692899	0.068768	1.216110
C117	C	1.091835	-0.330129	0.716125
C118	C	1.591835	0.169871	1.216125
C119	C	1.091848	-0.330105	0.798671
C120	C	1.591848	0.169895	1.298671
C121	C	1.142387	-0.380647	0.839941
C122	C	1.642387	0.119353	1.339941
C123	C	1.192913	-0.431212	0.798664
C124	C	1.692913	0.068788	1.298664
C125	C	1.041318	-0.279547	0.839954
C126	C	1.541318	0.220453	1.339954
C127	C	1.041329	-0.279523	0.922505
C128	C	1.541329	0.220477	1.422505
C129	C	1.091873	-0.330061	0.963776
C130	C	1.591873	0.169939	1.463776
C131	C	1.142401	-0.380627	0.922494
C132	C	1.642401	0.119373	1.422494
C133	C	1.192940	-0.431169	0.963763
C134	C	1.692940	0.068831	1.463763
C135	C	1.243472	-0.481732	0.922483
C136	C	1.743472	0.018268	1.422483
C137	C	1.243456	-0.481750	0.839934
C138	C	1.743456	0.018250	1.339934
C139	C	1.091889	-0.330042	1.046324
C140	C	1.591889	0.169958	1.546324
C141	C	1.192953	-0.431149	1.046317
C142	C	1.692953	0.068851	1.546317
H143	H	0.444053	-0.289191	0.472704
H144	H	0.944053	0.210809	0.972704
O145	O	1.037329	-0.275614	0.671620
O146	O	1.537329	0.224386	1.171620
H147	H	1.045812	-0.284119	0.607284
H148	H	1.545812	0.215881	1.107284
H149	H	0.841345	-0.472378	0.288944
H150	H	1.341345	0.027622	0.788944
H151	H	0.717677	-0.238687	0.523313
H152	H	1.217677	0.261313	1.023313
H153	H	1.284596	-0.522916	0.806317
H154	H	1.784596	-0.022916	1.306317
O155	O	1.247400	-0.485769	0.671595
O156	O	1.747400	0.014231	1.171595
H157	H	1.238901	-0.477298	0.607260
H158	H	1.738901	0.022702	1.107260
O159	O	0.986814	-0.225033	0.795447
O160	O	1.486814	0.274967	1.295447
H161	H	0.995304	-0.233534	0.731111
H162	H	1.495304	0.266466	1.231111
H163	H	1.050612	-0.681801	0.289014
H164	H	1.550612	-0.181801	0.789014
O165	O	0.852375	-0.275822	0.486055
O166	O	1.352375	0.224178	0.986055
H167	H	0.916705	-0.284301	0.477544
H168	H	1.416705	0.215699	0.977544
H169	H	1.000194	-0.955462	0.238475
H170	H	1.500194	-0.455462	0.738475
H171	H	1.284619	-0.522885	0.956095
H172	H	1.784619	-0.022885	1.456095
O173	O	0.557006	-0.225349	0.536724
O174	O	1.057006	0.274651	1.036724
H175	H	0.599600	-0.190240	0.571934
H176	H	1.099600	0.309760	1.071934
H177	H	1.233939	-0.681541	0.472602
H178	H	1.733939	-0.181541	0.972602
H179	H	1.234112	-0.472303	1.079912
H180	H	1.734112	0.027697	1.579912
H181	H	1.000130	-0.805698	0.238434
H182	H	1.500130	-0.305698	0.738434
H183	H	0.443929	-0.472411	0.288972
H184	H	0.943929	0.027589	0.788972
O185	O	0.986839	-0.224982	0.967029
O186	O	1.486839	0.275018	1.467029
H187	H	0.951700	-0.189836	0.924462
H188	H	1.451700	0.310164	1.424462
H189	H	0.567707	-0.522886	0.238325
H190	H	1.067707	-0.022886	0.738325
O191	O	0.728383	-0.536214	0.224922
O192	O	1.228383	-0.036214	0.724922
H193	H	0.766007	-0.576463	0.260223
H194	H	1.266007	-0.076463	0.760223
H195	H	1.284499	-0.805284	0.523222
H196	H	1.784499	-0.305284	1.023222
H197	H	1.284555	-0.955061	0.523243
H198	H	1.784555	-0.455061	1.023243
O199	O	1.247431	-1.089838	0.486060
O200	O	1.747431	-0.589838	0.986060
H201	H	1.238965	-1.154187	0.477580
H202	H	1.738965	-0.654187	0.977580
O203	O	1.037422	-1.090132	0.275705
O204	O	1.537422	-0.590132	0.775705
H205	H	1.045939	-1.154456	0.284211
H206	H	1.545939	-0.654456	0.784211
O207	O	1.037396	-0.275512	1.090851
O208	O	1.537396	0.224488	1.590851
H209	H	1.002253	-0.240370	1.048286
H210	H	1.502253	0.259630	1.548286
