data_functionalizedCrystal
_audit_creation_method	'MofGen! by Chris Wilmer'
_symmetry_space_group_name_H-M	'P1'
_symmetry_Int_Tables_number	1
_symmetry_cell_setting	triclinic
loop_
_symmetry_equiv_pos_as_xyz
  x,y,z
_cell_length_a	10.489711
_cell_length_b	10.489741
_cell_length_c	8.965430
_cell_angle_alpha	90.000707
_cell_angle_beta	89.994616
_cell_angle_gamma	84.533091
loop_
_atom_site_label
_atom_site_type_symbol
_atom_site_fract_x
_atom_site_fract_y
_atom_site_fract_z
O1	O	1.694075	0.179778	-0.124092
O2	O	1.322875	0.196710	-0.124084
O3	O	1.516922	0.002645	-0.124079
O4	O	1.500029	0.373843	-0.124097
O5	O	1.516905	0.002658	0.124000
O6	O	1.322859	0.196723	0.123995
O7	O	1.694059	0.179791	0.123986
Cu8	Cu	1.508457	0.188258	0.146642
Cu9	Cu	1.508477	0.188243	-0.146740
O10	O	1.500012	0.373856	0.123982
C11	C	1.275334	0.195446	-0.000043
C12	C	1.133703	0.191644	-0.000039
C13	C	0.951317	0.308348	-0.000062
C14	C	1.043470	0.250046	-0.122373
C15	C	1.043427	0.250028	0.122214
C16	C	0.973519	0.126504	-0.122483
C17	C	0.973466	0.126502	0.122213
C18	C	1.065593	0.068111	-0.000127
C19	C	1.515638	-0.044880	-0.000041
C20	C	1.511820	-0.186509	-0.000043
C21	C	1.388354	-0.254636	-0.000051
C22	C	1.446670	-0.346758	0.122263
C23	C	1.446716	-0.346746	-0.122323
C24	C	1.570187	-0.276766	0.122372
C25	C	1.570216	-0.276744	-0.122324
C26	C	1.628622	-0.368839	0.000020
C27	C	1.741600	0.181055	-0.000058
C28	C	1.883231	0.184857	-0.000071
C29	C	1.501296	0.421381	-0.000060
C30	C	1.505114	0.563010	-0.000067
N31	N	1.508453	0.188268	0.352992
N32	N	1.508491	0.188223	-0.353089
C33	C	1.418685	0.277987	0.450295
C34	C	1.534183	0.303785	0.549705
C35	C	1.393004	0.162481	0.549709
C36	C	1.624010	0.214124	0.450212
C37	C	1.482754	0.072769	0.450208
C38	C	1.598335	0.098519	0.549573
H39	H	1.286841	-0.204974	0.000074
H40	H	0.901626	0.409850	-0.000188
H41	H	1.721681	0.236033	0.406691
C42	C	1.639678	-0.235406	0.260361
C43	C	1.642371	-0.102220	0.258813
C44	C	1.706354	-0.064069	0.385912
H45	H	1.724820	-0.275402	0.260843
H46	H	1.596092	-0.259859	0.347153
H47	H	1.685959	-0.077780	0.172043
H48	H	1.557247	-0.062193	0.258352
H49	H	1.662768	-0.088522	0.472705
H50	H	1.791491	-0.104073	0.386384
H51	H	1.708179	0.026301	0.384886
C52	C	1.376848	-0.387852	-0.260158
C53	C	1.251127	-0.329472	-0.259576
C54	C	1.186724	-0.367289	-0.386528
H55	H	1.375458	-0.478263	-0.259780
H56	H	1.419826	-0.362671	-0.347056
H57	H	1.208160	-0.354661	-0.172701
H58	H	1.252478	-0.239063	-0.259977
H59	H	1.229702	-0.342107	-0.473426
H60	H	1.185344	-0.457699	-0.386139
H61	H	1.101419	-0.327675	-0.386157
C62	C	0.932723	0.056794	-0.260582
C63	C	1.040878	0.017103	-0.346261
C64	C	1.003345	-0.047126	-0.473476
H65	H	0.875499	0.112764	-0.317931
H66	H	0.891137	-0.015844	-0.231402
H67	H	1.082444	0.089730	-0.375442
H68	H	1.098113	-0.038883	-0.288956
H69	H	0.961759	-0.119764	-0.444297
H70	H	0.946120	0.008852	-0.530813
H71	H	1.076722	-0.074075	-0.531618
C72	C	1.131394	-0.067414	0.000029
C73	C	1.094267	-0.132258	0.126988
C74	C	1.154847	-0.257107	0.127166
H75	H	1.221608	-0.064398	0.000935
H76	H	1.107437	-0.111144	-0.086874
H77	H	1.118232	-0.088539	0.213869
H78	H	1.004062	-0.135310	0.126109
H79	H	1.130890	-0.300838	0.040263
H80	H	1.245058	-0.254078	0.128067
H81	H	1.129655	-0.301123	0.213298
H82	H	1.074376	0.302307	0.225619
H83	H	1.074472	0.302297	-0.225778
H84	H	1.674349	0.022624	0.592889
C85	C	1.453429	-0.057344	0.391954
C86	C	1.332361	-0.083820	0.442248
C87	C	1.305281	-0.203659	0.388595
H88	H	1.516253	-0.121393	0.427389
H89	H	1.454337	-0.056618	0.285994
H90	H	1.331464	-0.084556	0.548185
H91	H	1.269511	-0.019803	0.406817
H92	H	1.306189	-0.202933	0.282635
H93	H	1.368113	-0.267698	0.424033
H94	H	1.223131	-0.221634	0.422700
H95	H	0.942437	0.074299	0.225629
H96	H	1.394422	-0.377759	0.225673
C97	C	1.317378	0.379155	0.392359
C98	C	1.196889	0.353089	0.444961
C99	C	1.103545	0.446267	0.391634
H100	H	1.317381	0.378034	0.286417
H101	H	1.335781	0.461170	0.426474
H102	H	1.178491	0.271095	0.410839
H103	H	1.196844	0.354221	0.550897
H104	H	1.121948	0.528283	0.425749
H105	H	1.103560	0.445139	0.285693
H106	H	1.021784	0.428601	0.427327
H107	H	1.295354	0.140690	0.593418
C108	C	1.563450	0.433884	0.608089
C109	C	1.675430	0.419655	0.693874
C110	C	1.702427	0.539477	0.747664
H111	H	1.494239	0.469325	0.668001
H112	H	1.575036	0.489372	0.526462
H113	H	1.663836	0.364187	0.775490
H114	H	1.744664	0.384235	0.633995
H115	H	1.714013	0.594966	0.666037
H116	H	1.633209	0.574908	0.807570
H117	H	1.778413	0.529841	0.805864
H118	H	1.730226	-0.418274	0.000085
H119	H	1.622420	-0.245710	-0.225740
