data_functionalizedCrystal
_audit_creation_method	'MofGen! by Chris Wilmer'
_symmetry_space_group_name_H-M	'P1'
_symmetry_Int_Tables_number	1
_symmetry_cell_setting	triclinic
loop_
_symmetry_equiv_pos_as_xyz
  x,y,z
_cell_length_a	14.519709
_cell_length_b	14.421503
_cell_length_c	14.519709
_cell_angle_alpha	90.003352
_cell_angle_beta	96.319855
_cell_angle_gamma	90.002031
loop_
_atom_site_label
_atom_site_type_symbol
_atom_site_fract_x
_atom_site_fract_y
_atom_site_fract_z
O1	O	1.223873	0.076993	-0.120878
O2	O	1.723873	0.576993	0.379122
O3	O	0.955396	0.077022	-0.135115
O4	O	1.455396	0.577022	0.364885
O5	O	1.096753	0.076998	0.006242
O6	O	1.596753	0.576998	0.506242
O7	O	1.082516	0.077016	-0.262235
O8	O	1.582516	0.577016	0.237765
O9	O	1.096729	-0.077225	0.006221
O10	O	1.596729	0.422775	0.506221
O11	O	0.955373	-0.077202	-0.135136
O12	O	1.455373	0.422798	0.364864
O13	O	1.223850	-0.077230	-0.120900
O14	O	1.723850	0.422770	0.379100
Cu15	Cu	1.089609	-0.091298	-0.128020
Cu16	Cu	1.589609	0.408702	0.371980
Cu17	Cu	1.089637	0.091089	-0.127995
Cu18	Cu	1.589637	0.591089	0.372005
O19	O	1.082493	-0.077207	-0.262256
O20	O	1.582493	0.422793	0.237744
C21	C	0.921025	-0.000087	-0.134462
C22	C	1.421025	0.499913	0.365538
C23	C	0.818643	-0.000076	-0.132474
C24	C	1.318643	0.499924	0.367526
N25	N	1.089596	-0.219579	-0.128037
N26	N	1.589596	0.280421	0.371963
C27	C	0.443748	-0.000119	-0.125154
C28	C	0.943748	0.499881	0.374846
C29	C	0.548056	-0.000106	-0.127187
C30	C	1.048056	0.499894	0.372813
C31	C	0.631192	-0.000096	-0.128814
C32	C	1.131192	0.499904	0.371186
C33	C	0.735507	-0.000086	-0.130847
C34	C	1.235507	0.499914	0.369153
C35	C	1.024221	-0.469222	-0.193371
C36	C	1.524221	0.030778	0.306629
C37	C	1.107583	-0.531032	-0.211408
C38	C	1.607583	-0.031032	0.288592
C39	C	1.089619	-0.408741	-0.128015
C40	C	1.589619	0.091259	0.371985
C41	C	1.006278	-0.531024	-0.109999
C42	C	1.506278	-0.031024	0.390001
C43	C	1.089633	-0.591462	-0.127996
C44	C	1.589633	-0.091462	0.372004
C45	C	1.173023	-0.469190	-0.146093
C46	C	1.673023	0.030810	0.353907
C47	C	1.071663	-0.469177	-0.044648
C48	C	1.571663	0.030823	0.455352
C49	C	1.155085	-0.530959	-0.062650
C50	C	1.655085	-0.030959	0.437350
C51	C	1.089609	-0.303480	-0.128028
C52	C	1.589609	0.196520	0.371972
C53	C	1.089652	-0.696721	-0.127981
C54	C	1.589652	-0.196721	0.372019
C55	C	1.258221	-0.000120	-0.121553
C56	C	1.758221	0.499880	0.378447
C57	C	1.360602	-0.000125	-0.123541
C58	C	1.860602	0.499875	0.376459
C59	C	1.096078	-0.000114	0.040591
C60	C	1.596078	0.499886	0.540591
C61	C	1.094090	-0.000114	0.142972
C62	C	1.594090	0.499886	0.642972
N63	N	1.089657	0.219370	-0.127971
N64	N	1.589657	0.719370	0.372029
C65	C	1.083168	-0.000093	-0.296606
C66	C	1.583168	0.499907	0.203394
C67	C	1.085156	-0.000087	-0.398987
C68	C	1.585156	0.499913	0.101013
C69	C	1.086770	-0.000089	0.517868
C70	C	1.586770	0.499911	1.017868
C71	C	1.088803	-0.000096	0.413560
C72	C	1.588803	0.499904	0.913560
C73	C	1.090430	-0.000102	0.330423
C74	C	1.590430	0.499898	0.830423
C75	C	1.092463	-0.000108	0.226109
C76	C	1.592463	0.499892	0.726109
H77	H	0.968973	-0.442115	-0.248684
H78	H	1.468973	0.057885	0.251316
C79	C	1.127671	-0.567218	-0.305474
C80	C	1.627671	-0.067218	0.194526
C81	C	1.058981	-0.535964	-0.373645
C82	C	1.558981	-0.035964	0.126355
C83	C	1.077442	-0.569286	-0.460309
C84	C	1.577442	-0.069286	0.039691
H85	H	1.186393	-0.545158	-0.318843
H86	H	1.686393	-0.045158	0.181157
H87	H	1.128049	-0.633090	-0.304654
H88	H	1.628049	-0.133090	0.195346
H89	H	1.058613	-0.470106	-0.374467
H90	H	1.558613	0.029894	0.125533
H91	H	1.000252	-0.558022	-0.360307
H92	H	1.500252	-0.058022	0.139693
H93	H	1.077820	-0.635158	-0.459489
H94	H	1.577820	-0.135158	0.040511
H95	H	1.136165	-0.547224	-0.473669
H96	H	1.636165	-0.047224	0.026331
H97	H	1.030835	-0.548092	-0.506572
H98	H	1.530835	-0.048092	-0.006572
C99	C	1.051422	-0.432728	0.049265
C100	C	1.551422	0.067272	0.549265
C101	C	1.052549	-0.335655	0.048238
C102	C	1.552549	0.164345	0.548238
C103	C	1.033907	-0.302043	0.134737
C104	C	1.533907	0.197957	0.634737
H105	H	0.992153	-0.453761	0.062060
H106	H	1.492153	0.046239	0.562060
H107	H	1.097295	-0.454731	0.095844
H108	H	1.597295	0.045269	0.595844
H109	H	1.006678	-0.313660	0.001674
H110	H	1.506678	0.186340	0.501674
H111	H	1.111811	-0.314597	0.035459
H112	H	1.611811	0.185403	0.535459
H113	H	1.079781	-0.324047	0.181316
H114	H	1.579781	0.175953	0.681316
H115	H	0.974639	-0.323083	0.147525
H116	H	1.474639	0.176917	0.647525
H117	H	1.034678	-0.236177	0.134055
H118	H	1.534678	0.263823	0.634055
C119	C	1.266929	-0.432953	-0.166621
C120	C	1.766929	0.067047	0.333379
C121	C	1.265795	-0.335875	-0.166486
C122	C	1.765795	0.164125	0.333514
C123	C	1.352266	-0.302460	-0.185440
C124	C	1.852266	0.197540	0.314560
H125	H	1.313528	-0.454467	-0.120528
H126	H	1.813528	0.045533	0.379472
H127	H	1.279750	-0.454615	-0.225677
H128	H	1.779750	0.045385	0.274323
H129	H	1.252985	-0.314222	-0.107439
H130	H	1.752985	0.185778	0.392561
H131	H	1.219215	-0.314336	-0.212579
H132	H	1.719215	0.185664	0.287421
H133	H	1.365087	-0.324121	-0.244496
H134	H	1.865087	0.175879	0.255504
H135	H	1.398858	-0.323980	-0.139345
H136	H	1.898858	0.176020	0.360655
H137	H	1.351506	-0.236589	-0.185360
H138	H	1.851506	0.263411	0.314640
H139	H	1.210456	-0.557896	-0.007370
H140	H	1.710456	-0.057896	0.492630
C141	C	0.912386	-0.567367	-0.089549
C142	C	1.412386	-0.067367	0.410451
C143	C	0.923303	-0.620740	-0.008535
C144	C	1.423303	-0.120740	0.491465
C145	C	0.836831	-0.654240	0.010317
C146	C	1.336831	-0.154240	0.510317
H147	H	0.872292	-0.516676	-0.081442
H148	H	1.372292	-0.016676	0.418558
H149	H	0.886422	-0.604597	-0.139824
H150	H	1.386422	-0.104597	0.360176
H151	H	0.949254	-0.583512	0.041728
H152	H	1.449254	-0.083512	0.541728
H153	H	0.963381	-0.671444	-0.016621
H154	H	1.463381	-0.171444	0.483379
H155	H	0.810867	-0.691470	-0.039958
H156	H	1.310867	-0.191470	0.460042
H157	H	0.796744	-0.603544	0.018421
H158	H	1.296744	-0.103544	0.518421
H159	H	0.844227	-0.690464	0.065282
H160	H	1.344227	-0.190464	0.565282
