data_functionalizedCrystal
_audit_creation_method	'MofGen! by Chris Wilmer'
_symmetry_space_group_name_H-M	'P1'
_symmetry_Int_Tables_number	1
_symmetry_cell_setting	triclinic
loop_
_symmetry_equiv_pos_as_xyz
  x,y,z
_cell_length_a	16.992694
_cell_length_b	14.586319
_cell_length_c	16.109301
_cell_angle_alpha	90.001610
_cell_angle_beta	87.064852
_cell_angle_gamma	90.000460
loop_
_atom_site_label
_atom_site_type_symbol
_atom_site_fract_x
_atom_site_fract_y
_atom_site_fract_z
O1	O	1.040348	0.076131	0.176284
O2	O	1.540348	0.576131	0.676284
O3	O	0.812064	0.076158	0.174350
O4	O	1.312064	0.576158	0.674350
O5	O	0.932477	0.076134	0.054704
O6	O	1.432477	0.576134	0.554704
O7	O	0.919935	0.076154	0.295929
O8	O	1.419935	0.576154	0.795929
O9	O	0.932462	-0.076347	0.054711
O10	O	1.432462	0.423653	0.554711
O11	O	0.812049	-0.076323	0.174356
O12	O	1.312049	0.423677	0.674356
O13	O	1.040334	-0.076350	0.176290
O14	O	1.540334	0.423650	0.676290
Cu15	Cu	0.926190	-0.090259	0.175324
Cu16	Cu	1.426190	0.409741	0.675324
Cu17	Cu	0.926207	0.090067	0.175316
Cu18	Cu	1.426207	0.590067	0.675316
O19	O	0.919920	-0.076327	0.295936
O20	O	1.419920	0.423673	0.795936
C21	C	0.782844	-0.000080	0.171865
C22	C	1.282844	0.499920	0.671865
C23	C	0.695802	-0.000070	0.164441
C24	C	1.195802	0.499930	0.664441
N25	N	0.926183	-0.217091	0.175329
N26	N	1.426183	0.282909	0.675329
C27	C	0.973736	-0.452099	0.228931
C28	C	1.473736	0.047901	0.728931
C29	C	0.973745	-0.548080	0.228926
C30	C	1.473745	-0.048080	0.728926
C31	C	0.878665	-0.548087	0.121697
C32	C	1.378665	-0.048087	0.621697
C33	C	0.878662	-0.452107	0.121698
C34	C	1.378662	0.047893	0.621698
C35	C	0.926196	-0.404116	0.175320
C36	C	1.426196	0.095884	0.675320
C37	C	0.926208	-0.596077	0.175313
C38	C	1.426208	-0.096077	0.675313
C39	C	0.926216	-0.700144	0.175307
C40	C	1.426216	-0.200144	0.675307
C41	C	0.926189	-0.300042	0.175325
C42	C	1.426189	0.199958	0.675325
C43	C	0.645543	-0.000064	0.236067
C44	C	1.145543	0.499936	0.736067
C45	C	0.563758	-0.000078	0.229087
C46	C	1.063758	0.499922	0.729087
C47	C	0.532234	-0.000090	0.150481
C48	C	1.032234	0.499910	0.650481
C49	C	0.582499	-0.000098	0.078849
C50	C	1.082499	0.499902	0.578849
C51	C	0.664282	-0.000091	0.085830
C52	C	1.164282	0.499909	0.585830
C53	C	0.288644	-0.000116	0.121548
C54	C	0.788644	0.499884	0.621548
C55	C	0.206854	-0.000120	0.114572
C56	C	0.706854	0.499880	0.614572
C57	C	0.188119	-0.000102	0.264811
C58	C	0.688119	0.499898	0.764811
C59	C	0.269904	-0.000090	0.271785
C60	C	0.769904	0.499910	0.771785
C61	C	0.320163	-0.000103	0.200154
C62	C	0.820163	0.499897	0.700154
N63	N	0.448637	-0.000100	0.143344
N64	N	0.948637	0.499900	0.643344
N65	N	0.403758	-0.000099	0.207291
N66	N	0.903758	0.499901	0.707291
C67	C	1.069553	-0.000111	0.178775
C68	C	1.569553	0.499889	0.678775
C69	C	1.156595	-0.000115	0.186198
C70	C	1.656595	0.499885	0.686198
C71	C	0.931962	-0.000107	0.023699
C72	C	1.431962	0.499893	0.523699
C73	C	0.930439	-0.000108	-0.068698
C74	C	1.430439	0.499892	0.431302
N75	N	0.926220	0.216898	0.175304
N76	N	1.426220	0.716898	0.675304
C77	C	0.998348	-0.000101	-0.286439
C78	C	1.498348	0.499899	0.213561
C79	C	0.996911	-0.000094	-0.373256
C80	C	1.496911	0.499906	0.126744
C81	C	0.854044	-0.000080	-0.362915
C82	C	1.354044	0.499920	0.137085
C83	C	0.855482	-0.000082	-0.276100
C84	C	1.355482	0.499918	0.223900
C85	C	0.927636	-0.000097	-0.237865
C86	C	1.427636	0.499903	0.262135
C87	C	0.924761	-0.000088	-0.411496
C88	C	1.424761	0.499912	0.088504
C89	C	0.923202	-0.000080	-0.505626
C90	C	1.423202	0.499920	-0.005626
C91	C	0.929196	-0.000103	-0.143729
C92	C	1.429196	0.499897	0.356271
C93	C	0.920435	-0.000084	0.326941
C94	C	1.420435	0.499916	0.826941
C95	C	0.921959	-0.000077	0.419338
C96	C	1.421959	0.499923	0.919338
H97	H	1.012458	-0.587144	0.272580
H98	H	1.512458	-0.087144	0.772580
C99	C	0.826374	-0.600880	0.062726
C100	C	1.326374	-0.100880	0.562726
H101	H	0.833178	-0.664915	0.070408
H102	H	1.333178	-0.164915	0.570408
H103	H	0.840953	-0.585153	0.006816
H104	H	1.340953	-0.085153	0.506816
H105	H	0.772722	-0.585151	0.074586
H106	H	1.272722	-0.085151	0.574586
C107	C	0.343917	-0.000124	0.042756
C108	C	0.843917	0.499876	0.542756
H109	H	0.313426	-0.000123	-0.005057
H110	H	0.813426	0.499877	0.494943
H111	H	0.376211	-0.053296	0.042356
H112	H	0.876211	0.446704	0.542356
H113	H	0.376208	0.053057	0.042351
H114	H	0.876208	0.553057	0.542351
H115	H	0.839948	-0.413039	0.078038
H116	H	1.339948	0.086961	0.578038
C117	C	0.680213	-0.000051	0.322536
C118	C	1.180213	0.499949	0.822536
H119	H	0.638564	-0.000058	0.364193
H120	H	1.138564	0.499942	0.864193
H121	H	0.711725	0.053125	0.328381
H122	H	1.211725	0.553125	0.828381
H123	H	0.711728	-0.053228	0.328384
H124	H	1.211728	0.446772	0.828384
H125	H	0.522840	-0.000072	0.287413
H126	H	1.022840	0.499928	0.787413
H127	H	0.797897	-0.000075	-0.236549
H128	H	1.297897	0.499925	0.263451
C129	C	0.304576	-0.000090	0.358253
C130	C	0.804576	0.499910	0.858253
H131	H	0.262929	-0.000099	0.399912
H132	H	0.762929	0.499901	0.899912
H133	H	0.336090	0.053083	0.364100
H134	H	0.836090	0.553083	0.864100
H135	H	0.336089	-0.053270	0.364095
H136	H	0.836089	0.446730	0.864095
H137	H	1.012442	-0.413027	0.272593
H138	H	1.512442	0.086973	0.772593
C139	C	0.132838	-0.000093	0.343601
C140	C	0.632838	0.499907	0.843601
H141	H	0.163327	-0.000078	0.391415
H142	H	0.663327	0.499922	0.891415
H143	H	0.100545	-0.053266	0.344007
H144	H	0.600545	0.446734	0.844007
H145	H	0.100546	0.053087	0.343997
H146	H	0.600546	0.553087	0.843997
H147	H	0.181191	-0.000129	0.050558
H148	H	0.681191	0.499871	0.550558
C149	C	0.547828	-0.000110	-0.007618
C150	C	1.047828	0.499890	0.492382
H151	H	0.589476	-0.000120	-0.049277
H152	H	1.089476	0.499880	0.450723
H153	H	0.516313	0.053062	-0.013468
H154	H	1.016313	0.553062	0.486532
H155	H	0.516316	-0.053292	-0.013461
H156	H	1.016316	0.446708	0.486539
C157	C	0.719567	-0.000087	0.007042
C158	C	1.219567	0.499913	0.507042
H159	H	0.689081	-0.000086	-0.040774
H160	H	1.189081	0.499914	0.459226
H161	H	0.751865	-0.053257	0.006642
H162	H	1.251865	0.446743	0.506642
H163	H	0.751855	0.053097	0.006642
H164	H	1.251855	0.553097	0.506642
C165	C	1.077714	-0.000108	-0.244383
C166	C	1.577714	0.499892	0.255617
H167	H	1.119620	-0.000101	-0.285749
H168	H	1.619620	0.499899	0.214251
H169	H	1.081245	-0.053281	-0.210732
H170	H	1.581245	0.446719	0.289268
H171	H	1.081245	0.053073	-0.210731
H172	H	1.581245	0.553073	0.289269
C173	C	1.074693	-0.000105	-0.426684
C174	C	1.574693	0.499895	0.073316
H175	H	1.117868	-0.000121	-0.391476
H176	H	1.617868	0.499879	0.108524
H177	H	1.077110	0.053069	-0.460764
H178	H	1.577110	0.553069	0.039236
H179	H	1.077095	-0.053285	-0.460767
H180	H	1.577095	0.446715	0.039233
C181	C	0.774681	-0.000077	-0.404976
C182	C	1.274681	0.499923	0.095024
H183	H	0.783950	-0.000087	-0.463637
H184	H	1.283950	0.499913	0.036363
H185	H	0.745566	0.053097	-0.388625
H186	H	1.245566	0.553097	0.111375
H187	H	0.745568	-0.053257	-0.388624
H188	H	1.245568	0.446743	0.111376
