data_functionalizedCrystal
_audit_creation_method	'MofGen! by Chris Wilmer'
_symmetry_space_group_name_H-M	'P1'
_symmetry_Int_Tables_number	1
_symmetry_cell_setting	triclinic
loop_
_symmetry_equiv_pos_as_xyz
  x,y,z
_cell_length_a	13.185408
_cell_length_b	15.944551
_cell_length_c	12.376457
_cell_angle_alpha	101.276265
_cell_angle_beta	82.594262
_cell_angle_gamma	67.736119
loop_
_atom_site_label
_atom_site_type_symbol
_atom_site_fract_x
_atom_site_fract_y
_atom_site_fract_z
O1	O	1.467842	-0.239627	-0.093908
O2	O	1.150356	-0.154492	-0.093932
O3	O	1.317767	-0.321292	-0.093910
O4	O	1.300432	-0.072826	-0.093931
O5	O	1.275929	-0.279639	0.094097
O6	O	1.108519	-0.112839	0.094074
O7	O	1.426005	-0.197974	0.094098
Zn8	Zn	1.260619	-0.148793	0.123936
Zn9	Zn	1.315742	-0.203672	-0.123770
O10	O	1.258594	-0.031174	0.094075
C11	C	1.088810	-0.125034	0.000068
C12	C	0.967754	-0.099328	0.000059
C13	C	0.897893	-0.007793	0.000049
C14	C	0.784150	0.016366	0.000057
C15	C	0.740259	-0.051008	0.000066
C16	C	0.810122	-0.142546	0.000069
C17	C	0.923874	-0.166706	0.000069
C18	C	0.766241	-0.209921	0.000087
C19	C	0.836104	-0.301459	0.000089
C20	C	0.949844	-0.325615	0.000089
C21	C	0.993735	-0.258240	0.000080
C22	C	0.652489	-0.185761	0.000086
C23	C	0.678470	-0.344674	0.000107
C24	C	0.792213	-0.368833	0.000099
C25	C	1.296128	-0.331596	0.000094
C26	C	1.293970	-0.424355	0.000094
C27	C	1.185045	-0.614588	0.000070
C28	C	1.214999	-0.666503	0.092773
C29	C	1.290068	-0.594200	0.000085
C30	C	1.256273	-0.707559	-0.092587
C31	C	1.286292	-0.758261	0.000072
C32	C	1.320034	-0.644877	0.092864
C33	C	1.361311	-0.685941	-0.092579
C34	C	1.391337	-0.737852	0.000146
C35	C	1.292240	-0.499687	0.000094
C36	C	1.284126	-0.852772	0.000071
C37	C	1.487551	-0.227431	0.000095
C38	C	1.608609	-0.253140	0.000097
C39	C	1.280233	-0.020869	0.000069
C40	C	1.282393	0.071887	0.000061
N41	N	1.223007	-0.111342	0.292989
N42	N	1.353363	-0.241132	-0.292824
C43	C	1.440672	-0.328085	0.648004
C44	C	1.466991	-0.354296	0.529668
C45	C	1.405997	-0.293560	0.470492
C46	C	1.318680	-0.206608	0.529665
C47	C	1.292365	-0.180391	0.648013
C48	C	1.257689	-0.145866	0.470501
C49	C	1.170373	-0.058914	0.529673
C50	C	1.144061	-0.032702	0.648010
C51	C	1.205055	-0.093438	0.707185
C52	C	1.284005	-0.172083	0.352153
C53	C	1.135697	-0.024389	0.352162
C54	C	1.109379	0.001823	0.470498
H55	H	0.595617	-0.111230	0.000086
H56	H	1.423135	-0.693209	-0.170949
O57	O	1.220523	-0.743862	-0.196403
H58	H	1.134875	-0.693461	-0.196206
H59	H	0.933639	0.047055	0.000049
H60	H	1.097849	-0.561550	0.000156
O61	O	0.708798	0.115087	0.000053
H62	H	0.758426	0.157877	0.000038
H63	H	1.355098	-0.242879	0.303985
H64	H	0.647644	-0.031332	0.000074
O65	O	1.116418	-0.284301	0.000082
H66	H	1.135194	-0.222070	0.000078
O67	O	1.506905	-0.807913	0.000154
H68	H	1.502641	-0.834392	0.076399
H69	H	1.038284	0.072621	0.518691
O70	O	1.133070	-0.656841	0.196585
H71	H	1.047502	-0.606539	0.196392
O72	O	1.561159	-0.448077	0.465858
H73	H	1.626152	-0.436618	0.411942
H74	H	1.006722	-0.400148	0.000105
O75	O	1.434374	-0.321828	0.342858
H76	H	1.359846	-0.323793	0.311674
H77	H	1.086032	0.025070	0.303982
H78	H	1.490331	-0.377526	0.696192
O79	O	0.867563	-0.467558	0.000120
H80	H	0.954025	-0.473031	0.000130
H81	H	1.346959	-0.617539	0.171323
O82	O	1.176672	-0.065158	0.834824
H83	H	1.233759	-0.122000	0.866025
O84	O	1.049934	0.061106	0.711838
H85	H	1.011949	0.098942	0.650813
O86	O	0.631150	-0.417354	0.000114
H87	H	0.540322	-0.385180	0.000100
