data_functionalizedCrystal
_audit_creation_method	'MofGen! by Chris Wilmer'
_symmetry_space_group_name_H-M	'P1'
_symmetry_Int_Tables_number	1
_symmetry_cell_setting	triclinic
loop_
_symmetry_equiv_pos_as_xyz
  x,y,z
_cell_length_a	10.654549
_cell_length_b	9.065218
_cell_length_c	7.540329
_cell_angle_alpha	90.003038
_cell_angle_beta	89.997387
_cell_angle_gamma	95.249669
loop_
_atom_site_label
_atom_site_type_symbol
_atom_site_fract_x
_atom_site_fract_y
_atom_site_fract_z
O1	O	0.184158	-1.959391	-0.147483
O2	O	0.199263	-1.530024	-0.147485
O3	O	0.009010	-1.754580	-0.147477
O4	O	0.374411	-1.734836	-0.147491
O5	O	0.009008	-1.754567	0.147489
O6	O	0.199261	-1.530011	0.147480
O7	O	0.184155	-1.959378	0.147482
Cu8	Cu	0.191708	-1.744693	0.174414
Cu9	Cu	0.191711	-1.744709	-0.174417
O10	O	0.374408	-1.734822	0.147474
C11	C	0.197810	-1.475039	-0.000003
C12	C	0.193469	-1.311219	-0.000004
N13	N	0.191705	-1.744693	0.419762
C14	C	-0.037795	-1.753124	0.000004
C15	C	-0.177255	-1.748787	-0.000002
C16	C	-0.387262	-1.876915	-0.000013
C17	C	-0.256226	-1.881002	0.000001
C18	C	-0.229327	-1.612476	-0.000000
C19	C	-0.360362	-1.608391	-0.000001
C20	C	-0.093310	-2.047877	0.103348
C21	C	-0.041242	-2.184184	0.103322
C22	C	-0.095641	-2.301403	-0.000037
C23	C	-0.202106	-2.282321	-0.103412
C24	C	-0.254167	-2.146012	-0.103402
C25	C	-0.199770	-2.028798	-0.000001
C26	C	-0.523281	-1.441525	-0.103364
C27	C	-0.575344	-1.305214	-0.103365
C28	C	-0.520947	-1.187983	-0.000017
C29	C	-0.414476	-1.207051	0.103331
C30	C	-0.362413	-1.343361	0.103333
C31	C	-0.416820	-1.460593	-0.000012
C32	C	0.421213	-1.736278	-0.000011
C33	C	0.560673	-1.740616	-0.000017
C34	C	0.185608	-2.014363	-0.000004
C35	C	0.189949	-2.178183	-0.000015
N36	N	0.191703	-1.744721	-0.419765
H37	H	-0.451552	-1.984581	-0.000026
Br38	Br	-0.597138	-1.600644	-0.243590
H39	H	-0.053237	-2.412387	-0.000059
H40	H	0.045442	-2.199712	0.187503
Br41	Br	-0.719838	-1.279333	-0.243635
H42	H	-0.165019	-1.504825	0.000008
Br43	Br	-0.591595	-1.002980	-0.000041
Br44	Br	-0.398643	-2.120104	-0.243682
H45	H	-0.246381	-2.377772	-0.187590
H46	H	-0.049016	-1.952442	0.187535
H47	H	-0.370181	-1.111590	0.187482
Br48	Br	-0.217914	-1.369242	0.243594
