data_functionalizedCrystal
_audit_creation_method	'MofGen! by Chris Wilmer'
_symmetry_space_group_name_H-M	'P1'
_symmetry_Int_Tables_number	1
_symmetry_cell_setting	triclinic
loop_
_symmetry_equiv_pos_as_xyz
  x,y,z
_cell_length_a	6.817900
_cell_length_b	16.418042
_cell_length_c	19.551136
_cell_angle_alpha	95.911563
_cell_angle_beta	101.650842
_cell_angle_gamma	103.389568
loop_
_atom_site_label
_atom_site_type_symbol
_atom_site_fract_x
_atom_site_fract_y
_atom_site_fract_z
V1	V	-4.016474	-0.261569	-0.097245
O2	O	-4.013476	-0.256165	0.004089
O3	O	-3.959124	-0.260188	-0.192259
O4	O	-3.967665	-0.375461	-0.096006
O5	O	-4.004877	-0.140093	-0.092831
V6	V	-4.501315	-0.246990	-0.085094
O7	O	-4.274842	-0.293549	-0.123900
O8	O	-4.693145	-0.215009	-0.058440
O9	O	-4.335459	-0.248370	0.009919
O10	O	-4.621710	-0.252393	-0.186428
O11	O	-4.630310	-0.368465	-0.089509
O12	O	-4.326918	-0.133097	-0.086334
C13	C	-3.801961	-0.256167	-0.215414
C14	C	-3.836355	-0.255797	-0.293090
C15	C	-3.813571	-0.178866	-0.319413
C16	C	-3.845959	-0.178492	-0.392397
C17	C	-3.901091	-0.255054	-0.439054
C18	C	-3.923888	-0.331996	-0.412724
C19	C	-3.891519	-0.332368	-0.339742
C20	C	-3.865403	-0.310568	-0.560186
C21	C	-3.897756	-0.310193	-0.633166
C22	C	-4.000937	-0.253912	-0.664156
C23	C	-4.071726	-0.197992	-0.622155
C24	C	-4.039358	-0.198363	-0.549173
C25	C	-3.936195	-0.254660	-0.518192
C26	C	-4.013272	-0.176571	-0.769616
C27	C	-4.045674	-0.176201	-0.842601
C28	C	-4.123583	-0.329707	-0.862927
C29	C	-4.091200	-0.330075	-0.789943
C30	C	-4.036036	-0.253504	-0.743291
C31	C	-3.812854	-0.403209	-0.092632
C32	C	-3.854171	-0.496319	-0.092247
C33	C	-4.130949	-0.714816	-0.094847
C34	C	-4.169752	-0.802302	-0.094479
C35	C	-3.806197	-0.793730	-0.087489
C36	C	-3.767394	-0.706245	-0.087852
C37	C	-3.929779	-0.666791	-0.091534
C38	C	-4.007385	-0.841762	-0.090804
C39	C	-4.049456	-0.936618	-0.090406
C40	C	-3.887706	-0.571929	-0.091931
C41	C	-4.155964	-0.252389	0.033070
C42	C	-4.100808	-0.252764	0.110746
C43	C	-4.145071	-0.105345	-0.089710
C44	C	-4.082993	-0.012234	-0.090091
H45	H	-4.097002	-0.152832	-0.514978
H46	H	-4.263175	-0.682696	-0.097844
H47	H	-4.109740	-0.392721	-0.768511
C48	C	-3.627597	-0.837133	-0.083449
H49	H	-3.679519	-0.896117	-0.083715
H50	H	-3.524680	-0.813209	-0.041120
H51	H	-3.568426	-0.828862	-0.123033
H52	H	-3.603567	-0.667139	-0.085149
C53	C	-4.184233	-0.413927	-0.914239
H54	H	-4.193173	-0.459799	-0.888106
H55	H	-4.082216	-0.414292	-0.940865
H56	H	-4.314771	-0.419654	-0.945397
C57	C	-3.751912	-0.372482	-0.526102
H58	H	-3.742792	-0.364702	-0.476623
H59	H	-3.616384	-0.361859	-0.534405
H60	H	-3.826586	-0.429088	-0.546244
H61	H	-3.968781	-0.394334	-0.450718
C62	C	-3.916562	-0.416996	-0.310785
H63	H	-3.954025	-0.462542	-0.349023
H64	H	-4.021818	-0.423016	-0.285003
H65	H	-3.789258	-0.417644	-0.280472
C66	C	-3.752906	-0.094642	-0.268101
H67	H	-3.743990	-0.048770	-0.294235
H68	H	-3.622388	-0.088914	-0.236938
H69	H	-3.854947	-0.094276	-0.241479
C70	C	-3.819896	-0.371703	-0.679361
H71	H	-3.753847	-0.405287	-0.650456
H72	H	-3.723809	-0.340282	-0.702144
H73	H	-3.934021	-0.407504	-0.713977
H74	H	-4.155726	-0.152157	-0.647383
C75	C	-3.820887	-0.093866	-0.421364
H76	H	-3.848075	-0.104614	-0.471511
H77	H	-3.683298	-0.059713	-0.402958
H78	H	-3.915857	-0.065070	-0.407500
C79	C	-3.952660	-0.092350	-0.718298
H80	H	-3.943774	-0.046478	-0.744431
H81	H	-3.822142	-0.086607	-0.687130
H82	H	-4.054722	-0.092003	-0.691681
C83	C	-4.020607	-0.091572	-0.871556
H84	H	-3.983098	-0.046026	-0.833317
H85	H	-4.147884	-0.090913	-0.901872
H86	H	-3.915330	-0.085560	-0.897335
H87	H	-4.333561	-0.841401	-0.097176
