data_functionalizedCrystal
_audit_creation_method	'MofGen! by Chris Wilmer'
_symmetry_space_group_name_H-M	'P1'
_symmetry_Int_Tables_number	1
_symmetry_cell_setting	triclinic
loop_
_symmetry_equiv_pos_as_xyz
  x,y,z
_cell_length_a	15.944499
_cell_length_b	15.995350
_cell_length_c	15.072220
_cell_angle_alpha	89.998899
_cell_angle_beta	89.984913
_cell_angle_gamma	96.515008
loop_
_atom_site_label
_atom_site_type_symbol
_atom_site_fract_x
_atom_site_fract_y
_atom_site_fract_z
O1	O	1.114556	-0.107777	-0.073831
O2	O	0.869999	-0.121136	-0.073821
O3	O	0.998962	0.007432	-0.073825
O4	O	0.985592	-0.236345	-0.073827
O5	O	0.998931	0.007425	0.073740
O6	O	0.869967	-0.121143	0.073744
O7	O	1.114524	-0.107784	0.073734
Zn8	Zn	0.992240	-0.114465	0.097168
Zn9	Zn	0.992282	-0.114455	-0.097255
O10	O	0.985560	-0.236352	0.073739
C11	C	0.998394	0.038623	-0.000045
C12	C	0.996737	0.131573	-0.000050
C13	C	0.838689	-0.120593	-0.000037
C14	C	0.745440	-0.118953	-0.000033
C15	C	0.453900	-0.193648	-0.000047
C16	C	0.514947	-0.154816	-0.072805
C17	C	0.409804	-0.112996	-0.000054
C18	C	0.514902	-0.154801	0.072682
C19	C	0.574713	-0.115927	-0.000042
C20	C	0.469623	-0.074142	-0.072872
C21	C	0.469571	-0.074138	0.072681
C22	C	0.530601	-0.035248	-0.000096
C23	C	0.314804	-0.111309	-0.000061
C24	C	0.669712	-0.117607	-0.000041
C25	C	1.145834	-0.108327	-0.000052
C26	C	1.239083	-0.109967	-0.000062
C27	C	0.986129	-0.267543	-0.000044
C28	C	0.987786	-0.360493	-0.000045
N29	N	0.992218	-0.114471	0.229857
C30	C	0.990785	0.469320	-0.000046
C31	C	0.898940	0.421874	-0.000373
C32	C	0.900598	0.325184	-0.000041
C33	C	0.993737	0.301760	-0.000048
C34	C	1.039021	0.342839	0.084215
C35	C	1.036713	0.439475	0.084286
C36	C	1.038647	0.439841	-0.083524
C37	C	1.038625	0.342896	-0.084637
C38	C	0.995411	0.207063	-0.000047
C39	C	0.989115	0.564018	-0.000042
N40	N	0.992312	-0.114443	-0.229944
C41	C	0.992281	-0.114452	0.589059
C42	C	0.923043	-0.183016	0.551454
C43	C	0.923202	-0.183266	0.448628
C44	C	0.992249	-0.114461	0.410854
C45	C	1.079894	-0.133532	0.448142
C46	C	1.079506	-0.134019	0.551000
C47	C	0.974655	-0.026615	0.551160
C48	C	0.972644	-0.027201	0.448297
C49	C	0.992236	-0.114465	0.310141
C50	C	0.992299	-0.114450	0.689772
H51	H	0.420566	-0.260581	-0.000117
H52	H	0.864735	0.297312	0.060468
C53	C	0.442379	-0.028089	0.155779
C54	C	0.459929	-0.061944	0.248790
C55	C	0.432739	-0.015900	0.331897
C56	C	0.387998	0.063998	0.321993
C57	C	0.370446	0.097857	0.228978
C58	C	0.397636	0.051813	0.145871
H59	H	0.493051	-0.121093	0.256126
H60	H	0.445732	-0.040965	0.400753
H61	H	0.367870	0.098082	0.383514
H62	H	0.337324	0.157006	0.221643
H63	H	0.384643	0.076878	0.077015
H64	H	0.534962	-0.188930	0.134192
H65	H	0.865001	0.296760	-0.060444
C66	C	0.542124	-0.200896	-0.155897
C67	C	0.603525	-0.154271	-0.223002
C68	C	0.630700	-0.200357	-0.306087
C69	C	0.596475	-0.293068	-0.322067
C70	C	0.535071	-0.339699	-0.254960
C71	C	0.507895	-0.293612	-0.171875
H72	H	0.628864	-0.085635	-0.211174
H73	H	0.676156	-0.165838	-0.355764
H74	H	0.616592	-0.327184	-0.383572
H75	H	0.509732	-0.408334	-0.266787
H76	H	0.462439	-0.328132	-0.122198
C77	C	0.442662	-0.028095	-0.156066
C78	C	0.348861	-0.018040	-0.171465
C79	C	0.321897	0.028003	-0.254659
C80	C	0.388736	0.063990	-0.322453
C81	C	0.482544	0.053936	-0.307057
C82	C	0.509507	0.007893	-0.223863
H83	H	0.299377	-0.044680	-0.121277
H84	H	0.252454	0.035446	-0.266056
H85	H	0.368776	0.098074	-0.384038
H86	H	0.532027	0.080576	-0.357244
H87	H	0.578950	0.000450	-0.212466
C88	C	1.042859	0.042317	0.584015
C89	C	1.099072	0.095044	0.516719
C90	C	1.167278	0.163967	0.549580
C91	C	1.179270	0.180163	0.649736
C92	C	1.123055	0.127434	0.717037
C93	C	1.054849	0.058511	0.684177
H94	H	1.090196	0.083057	0.442573
H95	H	1.208892	0.203001	0.499758
H96	H	1.229761	0.231183	0.674061
H97	H	1.131931	0.139421	0.791184
H98	H	1.013235	0.019478	0.733998
H99	H	0.563782	0.031745	-0.000134
H100	H	0.857685	-0.171842	0.576218
C101	C	0.849362	0.446893	-0.082011
C102	C	0.891662	0.510714	-0.149380
C103	C	0.842086	0.535732	-0.231026
C104	C	0.750209	0.496930	-0.245303
C105	C	0.707903	0.433105	-0.177932
C106	C	0.757480	0.408086	-0.096286
H107	H	0.959679	0.539441	-0.138813
H108	H	0.873403	0.582980	-0.280898
H109	H	0.713509	0.515450	-0.305742
H110	H	0.639886	0.404378	-0.188499
H111	H	0.726162	0.360839	-0.046414
C112	C	1.130388	0.322166	-0.091527
C113	C	1.158775	0.274458	-0.172951
C114	C	1.250542	0.253732	-0.179834
C115	C	1.313924	0.280712	-0.105294
C116	C	1.285538	0.328422	-0.023865
C117	C	1.193771	0.349149	-0.016981
H118	H	1.111855	0.254483	-0.228135
H119	H	1.271554	0.218414	-0.240114
H120	H	1.381855	0.265369	-0.110390
H121	H	1.332458	0.348398	0.031320
H122	H	1.172759	0.384467	0.043299
H123	H	1.003666	0.457769	0.147279
C124	C	0.938070	-0.270590	0.586299
C125	C	1.012871	-0.280060	0.648694
C126	C	1.027918	-0.367637	0.683515
C127	C	0.968165	-0.445742	0.655942
C128	C	0.893358	-0.436274	0.593544
C129	C	0.878311	-0.348698	0.558722
H130	H	1.057109	-0.222239	0.669109
H131	H	1.083295	-0.374645	0.729707
H132	H	0.979303	-0.510572	0.681719
H133	H	0.849121	-0.494095	0.573129
H134	H	0.822934	-0.341690	0.512531
H135	H	0.862381	0.441461	0.059720
C136	C	1.127801	0.483062	0.089464
C137	C	1.183967	0.466795	0.169308
C138	C	1.275052	0.510379	0.174495
C139	C	1.309970	0.570231	0.099837
C140	C	1.253803	0.586501	0.019986
C141	C	1.162719	0.542917	0.014800
H142	H	1.158119	0.422486	0.224580
H143	H	1.316630	0.498334	0.233605
H144	H	1.377396	0.602495	0.103676
H145	H	1.279651	0.630810	-0.035285
H146	H	1.121140	0.554961	-0.044311
C147	C	0.890174	-0.001850	0.586240
C148	C	0.836110	-0.061077	0.649760
C149	C	0.751625	-0.036324	0.684842
C150	C	0.721205	0.047657	0.656403
C151	C	0.775270	0.106890	0.592879
C152	C	0.859755	0.082136	0.557798
H153	H	0.858628	-0.123250	0.670815
H154	H	0.711602	-0.080172	0.731866
H155	H	0.658664	0.065981	0.682372
H156	H	0.752752	0.169062	0.571824
H157	H	0.899777	0.125984	0.510774
C158	C	0.996496	0.304500	0.168939
C159	C	0.920744	0.235973	0.161839
C160	C	0.878214	0.197635	0.246560
C161	C	0.911435	0.227824	0.338380
C162	C	0.987191	0.296355	0.345483
C163	C	1.029721	0.334693	0.260762
H164	H	0.896148	0.213621	0.093866
H165	H	0.822135	0.146904	0.241302
H166	H	0.879952	0.199445	0.401096
H167	H	1.011787	0.318706	0.413457
H168	H	1.085801	0.385424	0.266021
H169	H	1.106364	0.471611	-0.084095
C170	C	0.993966	0.306014	-0.168856
C171	C	0.917101	0.238860	-0.160897
C172	C	0.872441	0.201971	-0.245114
C173	C	0.904647	0.232236	-0.337291
C174	C	0.981516	0.299393	-0.345254
C175	C	1.026176	0.336282	-0.261037
H176	H	0.893257	0.216453	-0.092659
H177	H	0.815538	0.152257	-0.239218
H178	H	0.871587	0.204928	-0.399633
H179	H	1.005360	0.321799	-0.413492
H180	H	1.083080	0.385996	-0.266932
H181	H	1.107447	0.328722	0.087343
C182	C	1.036349	0.044959	0.413579
C183	C	1.028808	0.136249	0.442105
C184	C	1.092525	0.208406	0.407392
C185	C	1.163783	0.189274	0.344154
C186	C	1.171328	0.097979	0.315625
C187	C	1.107611	0.025822	0.350337
H188	H	0.976055	0.150416	0.488921
H189	H	1.086939	0.275988	0.428512
H190	H	1.210950	0.242689	0.318458
H191	H	1.224080	0.083813	0.268809
H192	H	1.113196	-0.041760	0.329217
C193	C	0.938414	-0.271320	0.415366
C194	C	0.941585	-0.289069	0.315074
C195	C	0.956802	-0.377126	0.281812
C196	C	0.968848	-0.447434	0.348842
C197	C	0.965677	-0.429687	0.449140
C198	C	0.950460	-0.341630	0.482402
H199	H	0.932668	-0.237021	0.265449
H200	H	0.959150	-0.390263	0.207564
H201	H	0.980113	-0.512619	0.324220
H202	H	0.974595	-0.481736	0.498766
H203	H	0.948113	-0.328493	0.556650
C204	C	0.835188	-0.167939	0.414566
C205	C	0.764265	-0.155384	0.480958
C206	C	0.676245	-0.140064	0.446901
C207	C	0.659147	-0.137300	0.346452
C208	C	0.730071	-0.149856	0.280054
C209	C	0.818092	-0.165175	0.314111
H210	H	0.776920	-0.157429	0.555322
H211	H	0.623742	-0.130770	0.496054
H212	H	0.593989	-0.125960	0.321241
H213	H	0.717416	-0.147810	0.205690
H214	H	0.870594	-0.174470	0.264958
H215	H	1.008632	0.460380	-0.147390
C216	C	1.101381	-0.219086	0.413337
C217	C	1.109106	-0.233745	0.312831
C218	C	1.130588	-0.319301	0.278029
C219	C	1.144345	-0.390200	0.343732
C220	C	1.136621	-0.375544	0.444245
C221	C	1.115139	-0.289987	0.479047
H222	H	1.098922	-0.181259	0.264188
H223	H	1.136306	-0.330151	0.203622
H224	H	1.160248	-0.453534	0.317969
H225	H	1.146805	-0.428029	0.492888
H226	H	1.109421	-0.279138	0.553454
H227	H	1.095038	-0.198078	0.574980
H228	H	1.132636	-0.086049	0.575873
H229	H	1.132646	-0.084922	0.423671
C230	C	0.885549	-0.007647	0.415368
C231	C	0.868549	-0.001065	0.315183
C232	C	0.781454	0.018484	0.282243
C233	C	0.711359	0.031452	0.349488
C234	C	0.728357	0.024870	0.449680
C235	C	0.815452	0.005321	0.482620
H236	H	0.920439	-0.010664	0.265398
H237	H	0.768872	0.023356	0.208074
H238	H	0.646887	0.045923	0.325104
H239	H	0.676467	0.034469	0.499464
H240	H	0.828034	0.000449	0.556789
