data_functionalizedCrystal
_audit_creation_method	'MofGen! by Chris Wilmer'
_symmetry_space_group_name_H-M	'P1'
_symmetry_Int_Tables_number	1
_symmetry_cell_setting	triclinic
loop_
_symmetry_equiv_pos_as_xyz
  x,y,z
_cell_length_a	14.908571
_cell_length_b	12.759400
_cell_length_c	14.908854
_cell_angle_alpha	93.325643
_cell_angle_beta	90.204386
_cell_angle_gamma	86.710990
loop_
_atom_site_label
_atom_site_type_symbol
_atom_site_fract_x
_atom_site_fract_y
_atom_site_fract_z
Zn1	Zn	1.345355	-0.469301	0.587610
Zn2	Zn	1.353946	-0.655690	0.437252
Zn3	Zn	1.203665	-0.470493	0.428604
Zn4	Zn	1.194977	-0.635402	0.578907
O5	O	1.274486	-0.557722	0.508093
O6	O	1.472322	-0.502017	0.574926
O7	O	1.341242	-0.640113	0.310278
O8	O	1.222501	-0.323315	0.449720
O9	O	1.478633	-0.638957	0.464459
O10	O	1.326600	-0.322439	0.566541
O11	O	1.230831	-0.504049	0.303924
O12	O	1.076686	-0.484377	0.441280
O13	O	1.207693	-0.604379	0.705889
O14	O	1.070302	-0.605535	0.551707
O15	O	1.318176	-0.482345	0.712283
O16	O	1.332818	-0.800019	0.456020
O17	O	1.216024	-0.785113	0.560093
C18	C	1.040868	-0.542884	0.494611
C19	C	0.940925	-0.536561	0.488865
C20	C	0.746530	-0.651060	0.592900
C21	C	0.652624	-0.645121	0.587504
C22	C	0.659204	-0.518740	0.472682
C23	C	0.753110	-0.524679	0.478078
C24	C	0.796770	-0.590842	0.538188
C25	C	0.890678	-0.596785	0.543579
C26	C	0.897256	-0.470400	0.428762
C27	C	0.803350	-0.464461	0.423366
C28	C	1.274433	-0.830687	0.508071
C29	C	1.274492	-0.947466	0.508097
C30	C	1.335366	-1.010054	0.453973
C31	C	1.335420	-1.119779	0.454004
C32	C	1.213716	-1.104318	0.562284
C33	C	1.213668	-0.994595	0.562258
C34	C	1.396190	-0.962924	0.399813
C35	C	1.457069	-1.025513	0.345684
C36	C	1.457123	-1.135239	0.345715
C37	C	1.396298	-1.182375	0.399875
C38	C	1.509015	-0.572617	0.521628
C39	C	1.608958	-0.578965	0.527396
C40	C	1.261007	-0.540966	0.742624
C41	C	1.255263	-0.533825	0.842567
C42	C	1.274562	-0.283690	0.508136
C43	C	1.274594	-0.166915	0.508155
C44	C	1.287964	-0.574340	0.274478
C45	C	1.293882	-0.581195	0.174546
C46	C	1.359462	-0.662089	1.036989
C47	C	1.354068	-0.655384	1.130895
C48	C	1.239087	-0.513705	1.124285
C49	C	1.244481	-0.520410	1.030380
C50	C	1.304669	-0.594606	0.986735
C51	C	1.310058	-0.601316	0.892828
C52	C	1.195082	-0.459632	0.886220
C53	C	1.189688	-0.452927	0.980125
H54	H	0.938172	-0.421368	0.384210
H55	H	0.611722	-0.694155	0.632058
H56	H	1.396353	-1.271722	0.399903
H57	H	1.190090	-0.453292	1.159837
Cl58	Cl	0.801421	-0.734245	0.668455
Cl59	Cl	1.533662	-1.213919	0.277677
Cl60	Cl	1.114029	-0.359655	1.035002
Cl61	Cl	1.137140	-0.915907	0.630302
H62	H	1.150465	-0.404683	0.845293
Cl63	Cl	1.385720	-0.694592	0.837961
H64	H	0.623639	-0.464867	0.423749
H65	H	1.398687	-0.710334	1.171809
Cl66	Cl	0.945564	-0.679963	0.619143
Cl67	Cl	0.748454	-0.381285	0.347808
Cl68	Cl	1.396364	-0.824983	0.400036
H69	H	1.408473	-0.722498	1.001454
Cl70	Cl	1.533539	-0.966257	0.277611
H71	H	1.164194	-1.142706	0.606378
