data_functionalizedCrystal
_audit_creation_method	'MofGen! by Chris Wilmer'
_symmetry_space_group_name_H-M	'P1'
_symmetry_Int_Tables_number	1
_symmetry_cell_setting	triclinic
loop_
_symmetry_equiv_pos_as_xyz
  x,y,z
_cell_length_a	18.050588
_cell_length_b	12.759401
_cell_length_c	12.759393
_cell_angle_alpha	90.020011
_cell_angle_beta	89.966433
_cell_angle_gamma	89.974360
loop_
_atom_site_label
_atom_site_type_symbol
_atom_site_fract_x
_atom_site_fract_y
_atom_site_fract_z
Zn1	Zn	-0.295693	-1.606147	-0.594009
Zn2	Zn	-0.419904	-1.605996	-0.418323
Zn3	Zn	-0.295723	-1.430449	-0.418344
Zn4	Zn	-0.419838	-1.430392	-0.593960
O5	O	-0.357789	-1.518246	-0.506159
O6	O	-0.312185	-1.753148	-0.570716
O7	O	-0.403471	-1.582669	-0.271305
O8	O	-0.191795	-1.453843	-0.441676
O9	O	-0.403442	-1.753037	-0.441640
O10	O	-0.191773	-1.582927	-0.570736
O11	O	-0.312236	-1.453696	-0.271320
O12	O	-0.312172	-1.283420	-0.441628
O13	O	-0.403329	-1.453746	-0.740988
O14	O	-0.403358	-1.283378	-0.570652
O15	O	-0.312121	-1.582872	-0.741024
O16	O	-0.523819	-1.582614	-0.441592
O17	O	-0.523771	-1.453599	-0.570632
C18	C	-0.357762	-1.245278	-0.506138
C19	C	-0.357768	-1.128502	-0.506153
C20	C	-0.310338	-1.073691	-0.573466
C21	C	-0.310349	-0.963967	-0.573470
C22	C	-0.405225	-0.963875	-0.438845
C23	C	-0.405210	-1.073597	-0.438837
C24	C	-0.262896	-1.128596	-0.640782
C25	C	-0.215464	-1.073785	-0.708101
C26	C	-0.215474	-0.964061	-0.708104
C27	C	-0.262917	-0.909148	-0.640789
C28	C	-0.550742	-1.518113	-0.506128
C29	C	-0.633287	-1.518152	-0.506149
C30	C	-0.882114	-1.448104	-0.576321
C31	C	-0.832646	-1.543904	-0.602100
C32	C	-0.930408	-1.518370	-0.506208
C33	C	-0.832794	-1.422467	-0.480449
C34	C	-0.784423	-1.518258	-0.506182
C35	C	-0.882027	-1.614222	-0.532036
C36	C	-0.882180	-1.492720	-0.410341
C37	C	-0.832734	-1.588587	-0.436083
C38	C	-1.014506	-1.518433	-0.506225
C39	C	-0.700326	-1.518205	-0.506164
C40	C	-0.164084	-1.518408	-0.506214
C41	C	-0.081538	-1.518477	-0.506237
C42	C	-0.357715	-1.518319	-0.780192
C43	C	-0.357683	-1.518351	-0.896969
C44	C	-0.357808	-0.792279	-0.506175
C45	C	-0.357793	-0.909056	-0.506165
C46	C	-0.310186	-1.585596	-0.951852
C47	C	-0.310159	-1.585621	-1.061576
C48	C	-0.405132	-1.451152	-1.061525
C49	C	-0.405155	-1.451123	-0.951803
C50	C	-0.262714	-1.652824	-0.897018
C51	C	-0.215214	-1.720076	-0.951900
C52	C	-0.215187	-1.720101	-1.061625
C53	C	-0.262660	-1.652874	-1.116466
C54	C	-0.357811	-1.518233	-0.233192
C55	C	-0.357633	-1.518405	-0.116415
H56	H	-0.262883	-1.217939	-0.640786
H57	H	-0.176846	-0.919436	-0.762911
H58	H	-0.443782	-1.396419	-1.106186
H59	H	-0.443852	-0.919156	-0.384043
H60	H	-0.903952	-1.471037	-0.329303
H61	H	-0.443832	-1.118225	-0.384025
H62	H	-0.903793	-1.388803	-0.635671
H63	H	-0.811164	-1.341410	-0.458675
H64	H	-0.176833	-1.118502	-0.762899
H65	H	-0.811190	-1.648029	-0.376779
H66	H	-0.262732	-1.652813	-0.807675
H67	H	-0.262906	-0.819803	-0.640776
H68	H	-0.810890	-1.565559	-0.683162
H69	H	-0.443819	-1.396350	-0.907117
H70	H	-0.176559	-1.774802	-0.907241
H71	H	-0.903565	-1.695302	-0.553905
H72	H	-0.262626	-1.652888	-1.205811
H73	H	-0.176505	-1.774852	-1.106307
