data_functionalizedCrystal
_audit_creation_method	'MofGen! by Chris Wilmer'
_symmetry_space_group_name_H-M	'P1'
_symmetry_Int_Tables_number	1
_symmetry_cell_setting	triclinic
loop_
_symmetry_equiv_pos_as_xyz
  x,y,z
_cell_length_a	10.654550
_cell_length_b	8.559649
_cell_length_c	9.130313
_cell_angle_alpha	90.000859
_cell_angle_beta	89.996220
_cell_angle_gamma	77.131784
loop_
_atom_site_label
_atom_site_type_symbol
_atom_site_fract_x
_atom_site_fract_y
_atom_site_fract_z
O1	O	1.644677	0.224178	-0.121910
O2	O	1.276992	0.245536	-0.121886
O3	O	1.493228	0.002614	-0.121899
O4	O	1.428441	0.467100	-0.121898
O5	O	1.493225	0.002621	0.121700
O6	O	1.276989	0.245543	0.121713
O7	O	1.644674	0.224184	0.121688
Cu8	Cu	1.460831	0.234864	0.143943
Cu9	Cu	1.460835	0.234856	-0.144141
O10	O	1.428438	0.467107	0.121701
C11	C	1.230355	0.243972	-0.000084
C12	C	1.091396	0.239279	-0.000075
C13	C	0.997136	0.382308	-0.000096
C14	C	0.866571	0.377890	-0.000121
C15	C	0.924542	0.087401	-0.000111
C16	C	1.055103	0.091821	-0.000075
C17	C	0.963666	0.550020	-0.000108
C18	C	0.833101	0.545601	-0.000133
C19	C	1.498136	-0.056858	-0.000103
C20	C	1.512750	-0.234076	-0.000112
C21	C	1.691311	0.225749	-0.000117
C22	C	1.830270	0.230441	-0.000136
C23	C	1.423530	0.526579	-0.000098
C24	C	1.408916	0.703797	-0.000099
N25	N	1.460838	0.234869	0.346566
N26	N	1.460839	0.234839	-0.346763
C27	C	1.556605	0.127340	0.423212
C28	C	1.556604	0.127320	0.576549
C29	C	1.365062	0.342374	0.576580
C30	C	1.365060	0.342384	0.423245
C31	C	1.667194	0.003185	0.423195
C32	C	1.667192	0.003166	0.576532
H33	H	1.131848	-0.024647	-0.000037
C34	C	0.859015	0.687039	-0.221214
C35	C	0.767942	0.630898	-0.137760
H36	H	0.818787	0.739688	-0.306176
H37	H	0.893943	0.760213	-0.164565
H38	H	0.926069	0.599279	-0.249516
H39	H	0.700892	0.718659	-0.109449
H40	H	0.732993	0.557719	-0.194419
C41	C	0.852385	0.663477	0.235094
C42	C	0.764363	0.614029	0.141831
H43	H	0.809943	0.705725	0.322730
H44	H	0.920326	0.574484	0.257930
H45	H	0.886563	0.743779	0.187877
H46	H	0.730192	0.533719	0.189044
H47	H	0.696399	0.703033	0.118997
C48	C	1.870364	0.062494	0.513430
C49	C	1.793662	0.040076	0.632719
H50	H	1.948434	0.085286	0.548122
H51	H	1.889052	-0.032116	0.455626
H52	H	1.825629	0.149536	0.455657
H53	H	1.838393	-0.046975	0.690488
H54	H	1.774976	0.134696	0.690548
H55	H	0.986220	0.615614	0.101844
C56	C	1.175724	0.554939	0.438684
C57	C	1.259783	0.460573	0.338994
H58	H	1.110734	0.627912	0.386668
H59	H	1.137029	0.487951	0.498486
H60	H	1.222405	0.612974	0.498492
H61	H	1.213104	0.402529	0.279193
H62	H	1.298481	0.527570	0.279168
C63	C	1.258920	-0.088192	-0.125335
C64	C	1.273806	-0.184996	-0.000102
H65	H	1.175504	-0.019538	-0.125340
H66	H	1.322094	-0.025478	-0.125331
H67	H	1.269045	-0.153913	-0.210269
H68	H	1.263690	-0.119275	0.084832
H69	H	1.210613	-0.247715	-0.000094
H70	H	1.612835	-0.316473	-0.000107
C71	C	1.648149	-0.262874	0.486278
C72	C	1.655342	-0.162421	0.366997
H73	H	1.640824	-0.365104	0.451579
H74	H	1.723766	-0.274147	0.544059
H75	H	1.574963	-0.217505	0.544078
H76	H	1.728534	-0.207784	0.309203
H77	H	1.579717	-0.151153	0.309191
H78	H	0.993806	0.603419	-0.105280
H79	H	0.894975	-0.032654	-0.000133
H80	H	1.287081	0.429908	0.639029
H81	H	1.754362	0.042059	0.375631
H82	H	1.648655	-0.112769	0.624081
