data_functionalizedCrystal
_audit_creation_method	'MofGen! by Chris Wilmer'
_symmetry_space_group_name_H-M	'P1'
_symmetry_Int_Tables_number	1
_symmetry_cell_setting	triclinic
loop_
_symmetry_equiv_pos_as_xyz
  x,y,z
_cell_length_a	12.759401
_cell_length_b	29.839131
_cell_length_c	12.759393
_cell_angle_alpha	90.033721
_cell_angle_beta	90.018567
_cell_angle_gamma	90.040747
loop_
_atom_site_label
_atom_site_type_symbol
_atom_site_fract_x
_atom_site_fract_y
_atom_site_fract_z
Zn1	Zn	1.606058	-0.178838	0.593968
Zn2	Zn	1.605870	-0.253977	0.418281
Zn3	Zn	1.430360	-0.178860	0.418307
Zn4	Zn	1.430266	-0.253941	0.593922
O5	O	1.518139	-0.216404	0.506119
O6	O	1.753054	-0.188811	0.570671
O7	O	1.582549	-0.244037	0.271263
O8	O	1.453785	-0.115990	0.441638
O9	O	1.752916	-0.244015	0.441594
O10	O	1.582870	-0.115974	0.570695
O11	O	1.453602	-0.188849	0.271282
O12	O	1.283327	-0.188814	0.441594
O13	O	1.453625	-0.243954	0.740949
O14	O	1.283258	-0.243975	0.570618
O15	O	1.582779	-0.188776	0.740983
O16	O	1.582457	-0.316839	0.441551
O17	O	1.453442	-0.316813	0.570593
C18	C	1.245171	-0.216394	0.506105
C19	C	1.128395	-0.216400	0.506123
C20	C	1.073598	-0.187709	0.573438
C21	C	0.963874	-0.187718	0.573444
C22	C	0.963753	-0.245111	0.438820
C23	C	1.073475	-0.245100	0.438809
C24	C	1.128517	-0.159009	0.640752
C25	C	1.073720	-0.130317	0.708073
C26	C	0.963996	-0.130325	0.708079
C27	C	0.909069	-0.159026	0.640766
C28	C	1.517948	-0.333127	0.506087
C29	C	1.517962	-0.383061	0.506108
C30	C	1.451004	-0.739650	0.573307
C31	C	1.450865	-0.551977	0.573275
O32	O	1.393705	-0.527714	0.630390
N33	N	1.518073	-0.528506	0.506140
C34	C	1.585326	-0.551956	0.439013
O35	O	1.642495	-0.527687	0.381918
C36	C	1.585469	-0.739629	0.439052
C37	C	1.518249	-0.763097	0.506184
C38	C	1.383790	-0.763119	0.640434
C39	C	1.383821	-0.810034	0.640438
C40	C	1.451066	-0.833481	0.573314
C41	C	1.518280	-0.810013	0.506187
C42	C	1.652726	-0.763078	0.371932
C43	C	1.652758	-0.809999	0.371950
C44	C	1.585538	-0.833468	0.439081
C45	C	1.585557	-0.880375	0.439067
N46	N	1.518348	-0.903846	0.506202
C47	C	1.451103	-0.880399	0.573326
C48	C	1.585244	-0.453426	0.438996
C49	C	1.585207	-0.406508	0.438985
C50	C	1.450747	-0.406532	0.573248
C51	C	1.450780	-0.453451	0.573253
C52	C	1.518036	-0.476897	0.506131
C53	C	1.451173	-0.978925	0.573327
C54	C	1.451208	-1.025844	0.573322
C55	C	1.585671	-1.025816	0.439063
C56	C	1.585633	-0.978901	0.439064
C57	C	1.518381	-0.955456	0.506205
O58	O	1.642694	-0.904667	0.381991
O59	O	1.393959	-0.904677	0.630429
C60	C	1.450972	-0.692735	0.573304
C61	C	1.518186	-0.669266	0.506177
C62	C	1.585431	-0.692713	0.439054
C63	C	1.518149	-0.622348	0.506166
C64	C	1.450904	-0.598901	0.573289
C65	C	1.383696	-0.622372	0.640424
C66	C	1.383727	-0.669288	0.640427
C67	C	1.652640	-0.669242	0.371919
C68	C	1.652602	-0.622327	0.371920
C69	C	1.585357	-0.598880	0.439043
C70	C	1.792172	-0.216415	0.506135
C71	C	1.908948	-0.216420	0.506141
C72	C	1.518212	-0.216359	0.780153
C73	C	1.518244	-0.216339	0.896930
C74	C	1.518359	-0.099226	0.506175
C75	C	1.518453	-0.049291	0.506198
C76	C	1.518126	-0.216417	0.233152
C77	C	1.518298	-0.216310	0.116376
C78	C	1.585503	-0.187606	0.951811
C79	C	1.585528	-0.187590	1.061535
C80	C	1.451031	-0.245044	1.061487
C81	C	1.451002	-0.245058	0.951765
C82	C	1.652745	-0.158887	0.896975
C83	C	1.720011	-0.130151	0.951856
C84	C	1.720036	-0.130135	1.061581
C85	C	1.652795	-0.158855	1.116424
H86	H	1.118449	-0.106947	0.762871
H87	H	0.819724	-0.159021	0.640754
O88	O	1.385776	-0.273006	1.114642
C89	C	1.408664	-0.317786	1.087819
H90	H	1.449025	-0.318728	1.008153
H91	H	1.332802	-0.337929	1.084049
H92	H	1.462670	-0.332912	1.149562
O93	O	0.910353	-0.273041	0.373593
C94	C	0.846862	-0.302085	0.433299
H95	H	0.879963	-0.304897	0.516030
H96	H	0.845560	-0.336640	0.395161
H97	H	0.763722	-0.288205	0.436987
O98	O	1.785211	-0.102189	0.898636
C99	C	1.762358	-0.057409	0.925494
H100	H	1.678437	-0.055133	0.955648
H101	H	1.771436	-0.035224	0.853352
H102	H	1.818721	-0.045660	0.989197
H103	H	1.652735	-0.158898	0.807632
H104	H	1.396217	-0.268449	0.907080
O105	O	0.910927	-0.102440	0.773566
C106	C	0.982934	-0.077099	0.832952
H107	H	1.061126	-0.095496	0.836505
H108	H	0.951271	-0.072353	0.915753
H109	H	0.994629	-0.042958	0.794624
O110	O	1.651126	-1.048554	0.373916
C111	C	1.755825	-1.037056	0.396982
H112	H	1.757977	-1.002974	0.437347
H113	H	1.802980	-1.035465	0.321199
H114	H	1.791181	-1.063430	0.451048
H115	H	1.118092	-0.268462	0.383996
O116	O	1.650975	-0.956053	0.373992
C117	C	1.718805	-0.928881	0.433867
H118	H	1.681701	-0.921844	0.513452
H119	H	1.732898	-0.895895	0.391082
H120	H	1.796663	-0.946931	0.445483
H121	H	1.217860	-0.158999	0.640754
O122	O	1.318324	-0.692102	0.705496
C123	C	1.250530	-0.719297	0.645638
H124	H	1.244075	-0.705189	0.562879
H125	H	1.169656	-0.719849	0.683569
H126	H	1.283034	-0.754844	0.642064
H127	H	1.774800	-0.106734	1.106262
O128	O	1.385480	-0.383801	0.638604
C129	C	1.408420	-0.395214	0.743339
H130	H	1.448822	-0.429263	0.745560
H131	H	1.332576	-0.396833	0.790393
H132	H	1.462408	-0.368775	0.778755
O133	O	1.385876	-1.048571	0.638639
C134	C	1.326504	-1.017812	0.697864
H135	H	1.369516	-0.984348	0.701533
H136	H	1.315257	-1.031348	0.780635
H137	H	1.246730	-1.012865	0.659318
H138	H	1.707401	-0.688328	0.317259
O139	O	1.385790	-0.956106	0.638398
C140	C	1.317925	-0.929022	0.578522
H141	H	1.355023	-0.921992	0.498940
H142	H	1.303782	-0.896027	0.621310
H143	H	1.240094	-0.947145	0.566899
O144	O	1.318526	-0.599570	0.705742
C145	C	1.378297	-0.572379	0.773621
H146	H	1.461045	-0.586486	0.780185
H147	H	1.340257	-0.571834	0.854443
H148	H	1.381921	-0.536830	0.741126
O149	O	1.717853	-0.599582	0.306556
C150	C	1.694951	-0.611077	0.201821
H151	H	1.654577	-0.645158	0.199609
H152	H	1.770809	-0.612668	0.154789
H153	H	1.640952	-0.584701	0.166374
O154	O	1.318497	-0.832758	0.705757
C155	C	1.259129	-0.801995	0.764975
H156	H	1.302143	-0.768532	0.768632
H157	H	1.247886	-0.815526	0.847751
H158	H	1.179354	-0.797050	0.726432
O159	O	1.652985	-0.158797	1.223010
C160	C	1.726748	-0.127268	1.259694
H161	H	1.788125	-0.120986	1.196470
H162	H	1.766610	-0.140817	1.333090
H163	H	1.685156	-0.094506	1.279185
O164	O	1.318609	-0.740326	0.705754
C165	C	1.378343	-0.713131	0.773656
H166	H	1.461103	-0.727224	0.780228
H167	H	1.340288	-0.712599	0.854471
H168	H	1.381939	-0.677578	0.741178
O169	O	1.650595	-0.383783	0.373731
C170	C	1.709932	-0.414545	0.314476
H171	H	1.713563	-0.447974	0.357526
H172	H	1.792709	-0.400959	0.303340
H173	H	1.671509	-0.419576	0.234650
H174	H	1.640014	-0.472512	0.384333
O175	O	1.718132	-0.740358	0.306694
C176	C	1.777471	-0.771123	0.247450
H177	H	1.781083	-0.804552	0.290500
H178	H	1.860254	-0.757542	0.236330
H179	H	1.739062	-0.776152	0.167617
H180	H	1.396049	-0.472555	0.627923
O181	O	1.717951	-0.832826	0.306702
C182	C	1.658209	-0.860004	0.238768
H183	H	1.578565	-0.867057	0.275736
H184	H	1.701040	-0.892982	0.224745
H185	H	1.646712	-0.841951	0.160892
