data_functionalizedCrystal
_audit_creation_method	'MofGen! by Chris Wilmer'
_symmetry_space_group_name_H-M	'P1'
_symmetry_Int_Tables_number	1
_symmetry_cell_setting	triclinic
loop_
_symmetry_equiv_pos_as_xyz
  x,y,z
_cell_length_a	6.817900
_cell_length_b	9.582860
_cell_length_c	11.102302
_cell_angle_alpha	90.974519
_cell_angle_beta	108.605901
_cell_angle_gamma	111.206767
loop_
_atom_site_label
_atom_site_type_symbol
_atom_site_fract_x
_atom_site_fract_y
_atom_site_fract_z
V1	V	-4.125329	-0.207059	-0.396024
V2	V	-3.625329	0.292941	0.103976
O3	O	-4.069902	0.009947	-0.388725
O4	O	-3.569902	0.509947	0.111275
O5	O	-4.115666	-0.410560	-0.393085
O6	O	-3.615666	0.089440	0.106915
O7	O	-4.101899	-0.203875	-0.568849
O8	O	-3.601899	0.296125	-0.068849
O9	O	-4.083764	-0.198168	-0.211744
O10	O	-3.583764	0.301832	0.288256
V11	V	-4.600702	-0.181102	-0.374011
V12	V	-4.100702	0.318898	0.125989
O13	O	-4.404465	-0.263996	-0.444312
O14	O	-3.904465	0.236004	0.055688
O15	O	-4.771763	-0.124164	-0.325723
O16	O	-4.271763	0.375836	0.174277
O17	O	-4.387159	0.022399	-0.376950
O18	O	-3.887159	0.522399	0.123050
O19	O	-4.773526	-0.398108	-0.381310
O20	O	-4.273526	0.101892	0.118690
O21	O	-4.759664	-0.189992	-0.558290
O22	O	-4.259664	0.310008	-0.058290
O23	O	-4.400926	-0.184286	-0.201186
O24	O	-3.900926	0.315714	0.298814
C25	C	-3.969282	-0.460169	-0.386778
C26	C	-3.469282	0.039831	0.113222
C27	C	-4.042834	-0.626533	-0.385527
C28	C	-3.542834	-0.126533	0.114473
C29	C	-3.951720	-0.196520	-0.610981
C30	C	-3.451720	0.303480	-0.110981
C31	C	-4.014103	-0.195264	-0.752264
C32	C	-3.514103	0.304736	-0.252264
C33	C	-4.286518	-0.200954	-0.957863
C34	C	-3.786518	0.299046	-0.457863
C35	C	-4.227922	-0.202145	-0.825114
C36	C	-3.727922	0.297855	-0.325114
C37	C	-3.858878	-0.187208	-0.812173
C38	C	-3.358878	0.312792	-0.312173
C39	C	-3.917480	-0.186028	-0.944921
C40	C	-3.417480	0.313972	-0.444921
C41	C	-4.196886	0.072000	-0.383253
C42	C	-3.696886	0.572000	0.116747
C43	C	-4.102573	0.238363	-0.384512
C44	C	-3.602573	0.738363	0.115488
C45	C	-4.214447	-0.191646	-0.159047
C46	C	-3.714447	0.308354	0.340953
C47	C	-4.131301	-0.192894	-0.017762
C48	C	-3.631301	0.307106	0.482238
H49	H	-4.460625	-0.206553	-1.017168
H50	H	-3.960625	0.293447	-0.517168
C51	C	-3.623673	-0.179642	-0.732034
C52	C	-3.123673	0.320358	-0.232034
N53	N	-3.446511	-0.173939	-0.671674
N54	N	-2.946511	0.326061	-0.171674
H55	H	-3.791074	-0.179469	-0.993692
H56	H	-3.291074	0.320531	-0.493692
H57	H	-4.354323	-0.208711	-0.776351
H58	H	-3.854323	0.291289	-0.276351
