data_functionalizedCrystal
_audit_creation_method	'MofGen! by Chris Wilmer'
_symmetry_space_group_name_H-M	'P1'
_symmetry_Int_Tables_number	1
_symmetry_cell_setting	triclinic
loop_
_symmetry_equiv_pos_as_xyz
  x,y,z
_cell_length_a	11.792241
_cell_length_b	15.711784
_cell_length_c	14.750779
_cell_angle_alpha	106.501906
_cell_angle_beta	102.734008
_cell_angle_gamma	78.108891
loop_
_atom_site_label
_atom_site_type_symbol
_atom_site_fract_x
_atom_site_fract_y
_atom_site_fract_z
O1	O	1.538375	-0.137359	-0.079725
O2	O	1.213010	-0.149598	-0.079747
O3	O	1.332397	-0.017444	-0.079738
O4	O	1.418989	-0.269513	-0.079735
O5	O	1.366148	0.019910	0.079915
O6	O	1.246761	-0.112244	0.079906
O7	O	1.572126	-0.100004	0.079928
Zn8	Zn	1.414802	-0.100193	0.105265
Zn9	Zn	1.370334	-0.149409	-0.105085
O10	O	1.452739	-0.232158	0.079918
C11	C	1.187281	-0.130153	0.000077
C12	C	1.060329	-0.127855	0.000068
N13	N	1.445159	-0.066604	0.248823
C14	C	1.335126	0.033503	0.000086
C15	C	1.292963	0.129657	0.000079
C16	C	0.827901	-0.123619	0.000096
C17	C	0.957240	-0.125972	0.000080
C18	C	1.597855	-0.119450	0.000102
C19	C	1.724805	-0.121750	0.000104
C20	C	1.450009	-0.283106	0.000092
C21	C	1.492172	-0.379261	0.000094
C22	C	1.134234	0.255345	0.000062
C23	C	1.173864	0.164995	0.000069
C24	C	1.372479	0.184665	0.000086
C25	C	1.332866	0.275020	0.000084
C26	C	1.213742	0.310352	0.000071
C27	C	1.412374	0.330027	0.000093
C28	C	1.372763	0.420372	0.000086
C29	C	1.253643	0.455711	0.000070
C30	C	1.174130	0.400698	0.000064
C31	C	1.531496	0.294691	0.000099
C32	C	1.611004	0.349698	0.000108
C33	C	1.571395	0.440047	0.000108
C34	C	1.452275	0.475386	0.000092
C35	C	1.650907	0.495060	0.000114
C36	C	1.611296	0.585406	0.000107
C37	C	1.412664	0.565732	0.000085
N38	N	1.339984	-0.182991	-0.248643
C39	C	1.255187	-0.276762	0.600626
C40	C	1.276469	-0.253231	0.701127
C41	C	1.382236	-0.136252	0.701098
C42	C	1.360957	-0.159771	0.600595
C43	C	1.297433	-0.230027	0.550367
C44	C	1.403204	-0.113035	0.550336
C45	C	1.381932	-0.136556	0.449842
C46	C	1.318413	-0.206811	0.399607
C47	C	1.276161	-0.253547	0.449873
C48	C	1.466735	-0.042784	0.600566
C49	C	1.508981	0.003952	0.550307
C50	C	1.487702	-0.019564	0.449811
C51	C	1.424184	-0.089819	0.399576
C52	C	1.529954	0.027172	0.399545
C53	C	1.508683	0.003652	0.299051
C54	C	1.402912	-0.113339	0.299082
H55	H	1.315666	0.594506	0.000096
H56	H	1.707997	0.320918	0.000123
H57	H	1.563744	0.221126	0.000108
H58	H	1.301099	-0.225962	0.317779
H59	H	1.543086	0.041708	0.258130
H60	H	1.109110	0.120210	0.000063
H61	H	1.221392	0.529276	0.000059
H62	H	1.077133	0.429472	0.000075
H63	H	1.037236	0.284119	0.000073
Br64	Br	1.719197	0.660062	0.000108
H65	H	1.469471	0.155885	0.000101
H66	H	1.224423	-0.310751	0.408976
Br67	Br	1.812565	0.447093	0.000112
H68	H	1.242063	-0.291295	0.742043
Br69	Br	1.316679	-0.208678	0.230910
H70	H	1.203449	-0.333966	0.559729
Br71	Br	1.468452	-0.040911	0.769270
H72	H	1.484057	-0.023639	0.682395
H73	H	1.560707	0.061153	0.591214
H74	H	1.581686	0.084370	0.440454
