data_functionalizedCrystal
_audit_creation_method	'MofGen! by Chris Wilmer'
_symmetry_space_group_name_H-M	'P1'
_symmetry_Int_Tables_number	1
_symmetry_cell_setting	triclinic
loop_
_symmetry_equiv_pos_as_xyz
  x,y,z
_cell_length_a	21.395364
_cell_length_b	12.759394
_cell_length_c	21.395356
_cell_angle_alpha	89.977947
_cell_angle_beta	89.976411
_cell_angle_gamma	90.028807
loop_
_atom_site_label
_atom_site_type_symbol
_atom_site_fract_x
_atom_site_fract_y
_atom_site_fract_z
Zn1	Zn	0.957927	-0.417874	-0.354286
Zn2	Zn	1.457927	0.082126	0.145714
Zn3	Zn	0.957862	-0.593567	-0.249519
Zn4	Zn	1.457862	-0.093567	0.250481
Zn5	Zn	0.853143	-0.417948	-0.249523
Zn6	Zn	1.353143	0.082052	0.250477
Zn7	Zn	0.853142	-0.593557	-0.354259
Zn8	Zn	1.353142	-0.093557	0.145741
O9	O	0.905518	-0.505737	-0.301897
O10	O	1.405518	-0.005737	0.198103
O11	O	1.045596	-0.441153	-0.340398
O12	O	1.545596	0.058847	0.159602
O13	O	0.943944	-0.570305	-0.161841
O14	O	1.443944	-0.070305	0.338159
O15	O	0.867071	-0.270917	-0.263433
O16	O	1.367071	0.229083	0.236567
O17	O	1.045548	-0.570234	-0.263426
O18	O	1.545548	-0.070234	0.236574
O19	O	0.944055	-0.270863	-0.340402
O20	O	1.444055	0.229137	0.159598
O21	O	0.867008	-0.441279	-0.161844
O22	O	1.367008	0.058721	0.338156
O23	O	0.765465	-0.441270	-0.263407
O24	O	1.265465	0.058730	0.236593
O25	O	0.867068	-0.570218	-0.441941
O26	O	1.367068	-0.070218	0.058059
O27	O	0.765464	-0.570290	-0.340356
O28	O	1.265464	-0.070290	0.159644
O29	O	0.944053	-0.441144	-0.441960
O30	O	1.444053	0.058856	0.058040
O31	O	0.943942	-0.740587	-0.263400
O32	O	1.443942	-0.240587	0.236600
O33	O	0.867005	-0.740580	-0.340352
O34	O	1.367005	-0.240580	0.159648
C35	C	0.742731	-0.505788	-0.301879
C36	C	1.242731	-0.005788	0.198121
C37	C	0.673089	-0.505835	-0.301886
C38	C	1.173089	-0.005835	0.198114
C39	C	0.640424	-0.438732	-0.342028
C40	C	1.140424	0.061268	0.157972
C41	C	0.574988	-0.438705	-0.342030
C42	C	1.074988	0.061295	0.157970
C43	C	0.542221	-0.505798	-0.301898
C44	C	1.042221	-0.005798	0.198102
C45	C	0.574895	-0.572905	-0.261749
C46	C	1.074895	-0.072905	0.238251
C47	C	0.640329	-0.572923	-0.261743
C48	C	1.140329	-0.072923	0.238257
C49	C	0.438513	-0.600414	-0.296866
C50	C	0.938513	-0.100414	0.203134
C51	C	0.373080	-0.600397	-0.296876
C52	C	0.873080	-0.100397	0.203124
C53	C	0.340400	-0.505740	-0.301912
C54	C	0.840400	-0.005740	0.198088
C55	C	0.373161	-0.411097	-0.306951
C56	C	0.873161	0.088903	0.193049
C57	C	0.438595	-0.411115	-0.306945
C58	C	0.938595	0.088885	0.193055
C59	C	0.471269	-0.505785	-0.301899
C60	C	0.971269	-0.005785	0.198101
C61	C	0.236782	-0.438602	-0.342058
C62	C	0.736782	0.061398	0.157942
C63	C	0.171345	-0.438572	-0.342056
C64	C	0.671345	0.061428	0.157944
C65	C	0.171253	-0.572781	-0.261778
C66	C	0.671253	-0.072781	0.238222
C67	C	0.236689	-0.572802	-0.261776
C68	C	0.736689	-0.072802	0.238224
C69	C	0.269449	-0.505713	-0.301920
C70	C	0.769449	-0.005713	0.198080
C71	C	0.905483	-0.778704	-0.301886
C72	C	1.405483	-0.278704	0.198114
C73	C	0.905526	-0.895481	-0.301903
C74	C	1.405526	-0.395481	0.198097
C75	C	0.985629	-0.895266	-0.382111
C76	C	1.485629	-0.395266	0.117889
C77	C	1.025701	-0.950019	-0.422220
C78	C	1.525701	-0.450019	0.077780
C79	C	1.025738	-1.059741	-0.422233
C80	C	1.525738	-0.559741	0.077767
C81	C	0.985698	-1.114711	-0.382135
C82	C	1.485698	-0.614711	0.117865
C83	C	0.945627	-1.059958	-0.342026
C84	C	1.445627	-0.559958	0.157974
C85	C	0.945595	-0.950234	-0.342016
C86	C	1.445595	-0.450234	0.157984
C87	C	0.865521	-1.060173	-0.261822
C88	C	1.365521	-0.560173	0.238178
C89	C	0.865486	-0.950451	-0.261805
C90	C	1.365486	-0.450451	0.238195
C91	C	0.825481	-1.115144	-0.221724
C92	C	1.325481	-0.615144	0.278276
C93	C	0.785412	-1.060390	-0.181611
C94	C	1.285412	-0.560390	0.318389
C95	C	0.785377	-0.950662	-0.181599
C96	C	1.285377	-0.450662	0.318401
C97	C	0.825415	-0.895698	-0.221696
C98	C	1.325415	-0.395698	0.278304
C99	C	1.068942	-0.505686	-0.301915
C100	C	1.568942	-0.005686	0.198085
C101	C	1.138583	-0.505664	-0.301922
C102	C	1.638583	-0.005664	0.198078
C103	C	0.905568	-0.505671	-0.465320
C104	C	1.405568	-0.005671	0.034680
C105	C	0.905589	-0.505644	-0.534961
C106	C	1.405589	-0.005644	-0.034961
C107	C	0.905570	-0.231703	-0.301921
C108	C	1.405570	0.268297	0.198079
C109	C	0.905593	-0.114926	-0.301931
C110	C	1.405593	0.385074	0.198069
C111	C	0.865539	-0.438452	-0.567666
C112	C	1.365539	0.061548	-0.067666
C113	C	0.865537	-0.438433	-0.633101
C114	C	1.365537	0.061567	-0.133101
C115	C	0.905596	-0.505594	-0.665830
C116	C	1.405596	-0.005594	-0.165830
C117	C	0.945648	-0.572798	-0.633117
C118	C	1.445648	-0.072798	-0.133117
C119	C	0.945645	-0.572823	-0.567683
C120	C	1.445645	-0.072823	-0.067683
C121	C	0.962049	-0.513829	-0.769516
C122	C	1.462049	-0.013829	-0.269516
C123	C	0.962053	-0.513797	-0.834949
C124	C	1.462053	-0.013797	-0.334949
C125	C	0.905606	-0.505523	-0.867651
C126	C	1.405606	-0.005523	-0.367651
C127	C	0.849152	-0.497259	-0.834911
C128	C	1.349152	0.002741	-0.334911
C129	C	0.849148	-0.497284	-0.769476
C130	C	1.349148	0.002716	-0.269476
C131	C	0.905603	-0.505575	-0.736782
C132	C	1.405603	-0.005575	-0.236782
C133	C	0.865550	-0.438306	-0.971308
C134	C	1.365550	0.061694	-0.471308
C135	C	0.865547	-0.438294	-1.036744
C136	C	1.365547	0.061706	-0.536744
C137	C	0.945664	-0.572654	-1.036759
C138	C	1.445664	-0.072654	-0.536759
C139	C	0.945662	-0.572672	-0.971323
C140	C	1.445662	-0.072672	-0.471323
C141	C	0.905606	-0.505492	-0.938602
C142	C	1.405606	-0.005492	-0.438602
C143	C	0.905505	-0.505726	-0.139109
C144	C	1.405505	-0.005726	0.360891
C145	C	0.905606	-0.505457	-0.069468
C146	C	1.405606	-0.005457	0.430532
H147	H	0.667093	-0.384103	-0.374715
H148	H	1.167093	0.115897	0.125285
H149	H	0.548386	-0.384057	-0.374717
H150	H	1.048386	0.115943	0.125283
H151	H	0.346555	-0.334018	-0.311051
H152	H	0.846555	0.165982	0.188949
H153	H	0.985727	-1.204053	-0.382155
H154	H	1.485727	-0.704053	0.117845
N155	N	0.742156	-0.891619	-0.138334
N156	N	1.242156	-0.391619	0.361666
H157	H	0.767616	-0.846082	-0.109312
H158	H	1.267616	-0.346082	0.390688
H159	H	0.713103	-0.846179	-0.163808
H160	H	1.213103	-0.346179	0.336192
H161	H	0.825393	-0.806357	-0.221687
H162	H	1.325393	-0.306357	0.278313
H163	H	0.832919	-0.383753	-0.541028
H164	H	1.332919	0.116247	-0.041028
H165	H	0.465267	-0.334053	-0.311046
H166	H	0.965267	0.165947	0.188954
H167	H	0.832924	-0.383712	-0.659735
H168	H	1.332924	0.116288	-0.159735
H169	H	0.263457	-0.383967	-0.374741
H170	H	0.763457	0.116033	0.125259
H171	H	0.803182	-0.490558	-0.742822
H172	H	1.303182	0.009442	-0.242822
H173	H	0.144750	-0.383923	-0.374743
H174	H	0.644750	0.116077	0.125257
N175	N	0.742232	-1.119674	-0.138364
N176	N	1.242232	-0.619674	0.361636
H177	H	0.713199	-1.165222	-0.163808
H178	H	1.213199	-0.665222	0.336192
H179	H	0.767768	-1.165124	-0.109368
H180	H	1.267768	-0.665124	0.390632
N181	N	0.788260	-0.488391	-0.870170
N182	N	1.288260	0.011609	-0.370170
H183	H	0.796824	-0.489654	-0.916590
H184	H	1.296824	0.010346	-0.416590
H185	H	0.760262	-0.549183	-0.858698
H186	H	1.260262	-0.049183	-0.358698
N187	N	0.135922	-0.645140	-0.218486
N188	N	0.635922	-0.145140	0.281514
H189	H	0.089512	-0.634945	-0.224578
H190	H	0.589512	-0.134945	0.275422
H191	H	0.147332	-0.720200	-0.228159
H192	H	0.647332	-0.220200	0.271841
N193	N	0.337750	-0.702471	-0.291437
N194	N	0.837750	-0.202471	0.208563
H195	H	0.291340	-0.688099	-0.292208
H196	H	0.791340	-0.188099	0.207792
H197	H	0.349189	-0.749532	-0.327617
H198	H	0.849189	-0.249532	0.172383
N199	N	0.271926	-0.645178	-0.218482
N200	N	0.771926	-0.145178	0.281518
H201	H	0.241241	-0.687678	-0.193057
H202	H	0.741241	-0.187678	0.306943
H203	H	0.299070	-0.693863	-0.243933
H204	H	0.799070	-0.193863	0.256067
N205	N	0.473759	-0.702514	-0.291430
N206	N	0.973759	-0.202514	0.208570
H207	H	0.443078	-0.762465	-0.288245
H208	H	0.943078	-0.262465	0.211755
H209	H	0.500923	-0.712360	-0.329593
H210	H	1.000923	-0.212360	0.170407
H211	H	0.832934	-0.383606	-0.944665
H212	H	1.332934	0.116394	-0.444665
N213	N	1.068880	-0.890732	-0.465472
N214	N	1.568880	-0.390732	0.034528
H215	H	1.062778	-0.812915	-0.459380
H216	H	1.562778	-0.312915	0.040620
H217	H	1.113638	-0.909840	-0.455762
H218	H	1.613638	-0.409840	0.044238
H219	H	0.832929	-0.383582	-1.063372
H220	H	1.332929	0.116418	-0.563372
H221	H	0.548212	-0.627532	-0.229072
H222	H	1.048212	-0.127532	0.270928
N223	N	1.022938	-0.522712	-0.870261
N224	N	1.522938	-0.022712	-0.370261
H225	H	1.050994	-0.461966	-0.858887
H226	H	1.550994	0.038034	-0.358887
H227	H	1.044185	-0.590745	-0.858860
H228	H	1.544185	-0.090745	-0.358860
N229	N	0.675566	-0.645298	-0.218445
N230	N	1.175566	-0.145298	0.281555
H231	H	0.644882	-0.687796	-0.193018
H232	H	1.144882	-0.187796	0.306982
H233	H	0.702707	-0.693985	-0.243897
H234	H	1.202707	-0.193985	0.256103
N235	N	0.985597	-0.776924	-0.382087
N236	N	1.485597	-0.276924	0.117913
H237	H	1.017043	-0.750409	-0.413572
H238	H	1.517043	-0.250409	0.086428
H239	H	0.942584	-0.750633	-0.393547
H240	H	1.442584	-0.250633	0.106453
N241	N	0.825523	-1.233485	-0.221731
N242	N	1.325523	-0.733485	0.278269
H243	H	0.837064	-1.259920	-0.178758
H244	H	1.337064	-0.759920	0.321242
H245	H	0.782537	-1.259900	-0.233240
H246	H	1.282537	-0.759900	0.266760
H247	H	0.978282	-0.627336	-1.063405
H248	H	1.478282	-0.127336	-0.563405
H249	H	1.058361	-1.104321	-0.454900
H250	H	1.558361	-0.604321	0.045100
N251	N	1.022933	-0.522746	-0.734243
N252	N	1.522933	-0.022746	-0.234243
H253	H	1.022075	-0.587497	-0.707088
H254	H	1.522075	-0.087497	-0.207088
H255	H	1.058665	-0.527922	-0.764946
H256	H	1.558665	-0.027922	-0.264946
H257	H	0.978276	-0.627384	-0.944695
H258	H	1.478276	-0.127384	-0.444695
N259	N	0.988850	-0.645246	-0.668412
N260	N	1.488850	-0.145246	-0.168412
H261	H	0.982776	-0.635035	-0.714828
H262	H	1.482776	-0.135035	-0.214828
H263	H	1.033601	-0.628893	-0.656992
H264	H	1.533601	-0.128893	-0.156992
H265	H	0.978261	-0.627538	-0.541055
H266	H	1.478261	-0.127538	-0.041055
