data_functionalizedCrystal
_audit_creation_method	'MofGen! by Chris Wilmer'
_symmetry_space_group_name_H-M	'P1'
_symmetry_Int_Tables_number	1
_symmetry_cell_setting	triclinic
loop_
_symmetry_equiv_pos_as_xyz
  x,y,z
_cell_length_a	27.732048
_cell_length_b	19.188930
_cell_length_c	17.666332
_cell_angle_alpha	90.011603
_cell_angle_beta	90.003861
_cell_angle_gamma	82.893719
loop_
_atom_site_label
_atom_site_type_symbol
_atom_site_fract_x
_atom_site_fract_y
_atom_site_fract_z
O1	O	-0.641184	-0.083079	-0.062859
O2	O	-0.141184	0.416921	0.437141
O3	O	-0.500430	-0.095711	-0.062883
O4	O	-0.000430	0.404289	0.437117
O5	O	-0.574869	0.012286	-0.062856
O6	O	-0.074869	0.512286	0.437144
O7	O	-0.566745	-0.191077	-0.062887
O8	O	-0.066745	0.308923	0.437113
O9	O	-0.574856	0.012292	0.063041
O10	O	-0.074856	0.512292	0.563041
O11	O	-0.500417	-0.095706	0.063014
O12	O	-0.000417	0.404294	0.563014
O13	O	-0.641171	-0.083074	0.063038
O14	O	-0.141171	0.416926	0.563038
Cu15	Cu	-0.570793	-0.089389	0.074521
Cu16	Cu	-0.070793	0.410611	0.574521
Cu17	Cu	-0.570808	-0.089396	-0.074367
Cu18	Cu	-0.070808	0.410604	0.425633
O19	O	-0.566732	-0.191071	0.063010
O20	O	-0.066732	0.308929	0.563010
C21	C	-0.574599	0.038299	0.000095
C22	C	-0.074599	0.538299	0.500095
C23	C	-0.573810	0.115798	0.000101
C24	C	-0.073810	0.615798	0.500101
C25	C	-0.482415	-0.095443	0.000062
C26	C	0.017585	0.404557	0.500062
C27	C	-0.428758	-0.094645	0.000054
C28	C	0.071242	0.405355	0.500054
C29	C	-0.659186	-0.083341	0.000090
C30	C	-0.159186	0.416659	0.500090
C31	C	-0.712843	-0.084140	0.000094
C32	C	-0.212843	0.415860	0.500094
C33	C	-0.090123	-0.153438	0.000078
C34	C	0.409877	0.346562	0.500078
C35	C	0.111546	-0.150475	0.000085
C36	C	0.611546	0.349525	0.500085
O37	O	0.142637	-0.204237	0.000109
O38	O	0.642637	0.295763	0.500109
N39	N	0.130866	-0.086437	0.000093
N40	N	0.630866	0.413563	0.500093
C41	C	0.099764	-0.023135	0.000105
C42	C	0.599764	0.476865	0.500105
O43	O	0.120824	0.031401	0.000120
O44	O	0.620824	0.531401	0.500120
C45	C	-0.101903	-0.026098	0.000103
C46	C	0.398097	0.473902	0.500103
C47	C	-0.121220	-0.090140	0.000087
C48	C	0.378780	0.409860	0.500087
C49	C	-0.109440	-0.217475	0.000062
C50	C	0.390560	0.282525	0.500062
C51	C	-0.159854	-0.218215	0.000056
C52	C	0.340146	0.281785	0.500056
C53	C	-0.190951	-0.154917	0.000066
C54	C	0.309049	0.345083	0.500066
C55	C	-0.171634	-0.090880	0.000081
C56	C	0.328366	0.409120	0.500081
C57	C	-0.133003	0.037203	0.000120
C58	C	0.366997	0.537203	0.500120
C59	C	-0.183423	0.036457	0.000121
C60	C	0.316577	0.536457	0.500121
C61	C	-0.202740	-0.027586	0.000105
C62	C	0.297260	0.472414	0.500105
C63	C	-0.253145	-0.028323	0.000084
C64	C	0.246855	0.471677	0.500084
N65	N	-0.272465	-0.092361	0.000076
N66	N	0.227535	0.407639	0.500076
C67	C	-0.241368	-0.155658	0.000067
C68	C	0.258632	0.344342	0.500067
C69	C	0.205643	-0.021584	0.000104
C70	C	0.705643	0.478416	0.500104
C71	C	0.256060	-0.020843	0.000103
C72	C	0.756060	0.479157	0.500103
C73	C	0.267838	-0.148183	0.000085
C74	C	0.767838	0.351817	0.500085
C75	C	0.217420	-0.148923	0.000080
C76	C	0.717420	0.351077	0.500080
C77	C	0.186324	-0.085622	0.000096
C78	C	0.686324	0.414378	0.500096
C79	C	-0.347242	-0.157208	0.000054
C80	C	0.152758	0.342792	0.500054
C81	C	-0.397661	-0.157942	0.000044
C82	C	0.102339	0.342058	0.500044
C83	C	-0.409435	-0.030602	0.000067
C84	C	0.090565	0.469398	0.500067
C85	C	-0.359020	-0.029867	0.000072
C86	C	0.140980	0.470133	0.500072
C87	C	-0.327924	-0.093176	0.000068
C88	C	0.172076	0.406824	0.500068
O89	O	-0.284265	0.025410	0.000068
O90	O	0.215735	0.525410	0.500068
O91	O	-0.262437	-0.210187	0.000068
O92	O	0.237563	0.289813	0.500068
C93	C	-0.039708	-0.152698	0.000084
C94	C	0.460292	0.347302	0.500084
C95	C	-0.020391	-0.088661	0.000099
C96	C	0.479609	0.411339	0.500099
C97	C	-0.051489	-0.025363	0.000108
C98	C	0.448511	0.474637	0.500108
C99	C	0.030025	-0.087920	0.000098
C100	C	0.530025	0.412080	0.500098
C101	C	0.061122	-0.151217	0.000089
C102	C	0.561122	0.348783	0.500089
C103	C	0.041803	-0.215255	0.000080
C104	C	0.541803	0.284745	0.500080
C105	C	-0.008611	-0.215995	0.000074
C106	C	0.491389	0.284005	0.500074
C107	C	-0.032169	0.038675	0.000116
C108	C	0.467831	0.538675	0.500116
C109	C	0.018246	0.039409	0.000122
C110	C	0.518246	0.539409	0.500122
C111	C	0.049343	-0.023888	0.000112
C112	C	0.549343	0.476112	0.500112
C113	C	-0.567002	-0.217083	0.000058
C114	C	-0.067002	0.282917	0.500058
C115	C	-0.567791	-0.294583	0.000047
C116	C	-0.067791	0.205417	0.500047
N117	N	-0.570786	-0.089384	0.179240
N118	N	-0.070786	0.410616	0.679240
C119	C	-0.617488	0.161001	0.000112
C120	C	-0.117488	0.661001	0.500112
C121	C	-0.616746	0.233820	0.000100
C122	C	-0.116746	0.733820	0.500100
C123	C	-0.572323	0.261433	0.000092
C124	C	-0.072323	0.761433	0.500092
C125	C	-0.528639	0.216220	0.000077
C126	C	-0.028639	0.716220	0.500077
C127	C	-0.529382	0.143403	0.000081
C128	C	-0.029382	0.643403	0.500081
N129	N	-0.538363	0.369223	0.042931
N130	N	-0.038363	0.869223	0.542931
N131	N	-0.537660	0.438397	0.042928
N132	N	-0.037660	0.938397	0.542928
C133	C	-0.570081	0.480827	0.000076
C134	C	-0.070081	0.980827	0.500076
N135	N	-0.603240	0.451471	-0.042764
N136	N	-0.103240	0.951471	0.457236
N137	N	-0.603944	0.382291	-0.042757
N138	N	-0.103944	0.882291	0.457243
C139	C	-0.571512	0.340390	0.000086
C140	C	-0.071512	0.840390	0.500086
C141	C	-0.612959	0.604989	0.000073
C142	C	-0.112959	1.104989	0.500073
C143	C	-0.612215	0.677809	0.000056
C144	C	-0.112215	1.177809	0.500056
C145	C	-0.524106	0.660208	0.000040
C146	C	-0.024106	1.160208	0.500040
C147	C	-0.524851	0.587390	0.000049
C148	C	-0.024851	1.087390	0.500049
C149	C	-0.569279	0.559785	0.000069
C150	C	-0.069279	1.059785	0.500069
N151	N	-0.570819	-0.089395	-0.179086
N152	N	-0.070819	0.410605	0.320914
C153	C	-0.603758	-0.041586	0.218862
C154	C	-0.103758	0.458414	0.718862
C155	C	-0.603761	-0.041582	0.298110
C156	C	-0.103761	0.458418	0.798110
C157	C	-0.570796	-0.089389	0.337733
C158	C	-0.070796	0.410611	0.837733
C159	C	-0.537817	-0.137191	0.298101
C160	C	-0.037817	0.362809	0.798101
C161	C	-0.537812	-0.137188	0.218855
C162	C	-0.037812	0.362812	0.718855
N163	N	-0.564512	-0.151237	0.462141
N164	N	-0.064512	0.348763	0.962141
N165	N	-0.564520	-0.151237	0.537422
N166	N	-0.064520	0.348763	1.037422
C167	C	-0.570808	-0.089399	0.576497
C168	C	-0.070808	0.410601	1.076497
N169	N	-0.577098	-0.027558	0.537447
N170	N	-0.077098	0.472442	1.037447
N171	N	-0.577093	-0.027559	0.462160
N172	N	-0.077093	0.472441	0.962160
C173	C	-0.570797	-0.089397	0.423662
C174	C	-0.070797	0.410603	0.923662
C175	C	-0.603786	-0.041593	0.702048
C176	C	-0.103786	0.458407	1.202048
C177	C	-0.603785	-0.041589	0.781297
C178	C	-0.103785	0.458411	1.281297
C179	C	-0.537844	-0.137203	0.781286
C180	C	-0.037844	0.362797	1.281286
C181	C	-0.537842	-0.137202	0.702039
C182	C	-0.037842	0.362798	1.202039
C183	C	-0.570816	-0.089397	0.662424
C184	C	-0.070816	0.410603	1.162424
H185	H	-0.413385	-0.210095	0.000031
H186	H	0.086615	0.289905	0.500031
O187	O	-0.505754	-0.183575	0.819732
O188	O	-0.005754	0.316425	1.319732
C189	C	-0.457931	-0.172711	0.800365
C190	C	0.042069	0.327289	1.300365
H191	H	-0.457814	-0.116811	0.778596
H192	H	0.042186	0.383189	1.278596
H193	H	-0.433658	-0.180985	0.852484
H194	H	0.066342	0.319015	1.352484
H195	H	-0.443649	-0.211551	0.754359
H196	H	0.056351	0.288449	1.254359
H197	H	-0.321929	-0.208759	0.000053
H198	H	0.178071	0.291241	0.500053
H199	H	-0.510961	-0.176112	0.186594
H200	H	-0.010961	0.323888	0.686594
H201	H	-0.653664	0.138530	0.000126
H202	H	-0.153664	0.638530	0.500126
H203	H	-0.343292	0.022281	0.000074
H204	H	0.156708	0.522281	0.500074
O205	O	-0.505729	-0.183562	0.336554
O206	O	-0.005729	0.316438	0.836554
C207	C	-0.457905	-0.172694	0.317194
C208	C	0.042095	0.327306	0.817194
H209	H	-0.457790	-0.116793	0.295424
H210	H	0.042210	0.383207	0.795424
H211	H	-0.433635	-0.180965	0.369315
H212	H	0.066365	0.319035	0.869315
H213	H	-0.443620	-0.211534	0.271189
H214	H	0.056380	0.288466	0.771189
H215	H	-0.630633	-0.002665	0.669792
H216	H	-0.130633	0.497335	1.169792
O217	O	-0.505884	-0.183671	0.663464
O218	O	-0.005884	0.316329	1.163464
C219	C	-0.531676	-0.226499	0.617625
C220	C	-0.031676	0.273501	1.117625
H221	H	-0.569556	-0.198310	0.605749
H222	H	-0.069556	0.301690	1.105749
H223	H	-0.511475	-0.237749	0.561901
H224	H	-0.011475	0.262251	1.061901
H225	H	-0.534854	-0.278068	0.648154
H226	H	-0.034854	0.221932	1.148154
H227	H	-0.487936	0.682690	0.000030
H228	H	0.012064	1.182690	0.500030
H229	H	-0.630634	-0.002662	0.813558
H230	H	-0.130634	0.497338	1.313558
O231	O	-0.659222	0.277641	0.000147
O232	O	-0.159222	0.777641	0.500147
C233	C	-0.698593	0.237661	0.000143
C234	C	-0.198593	0.737661	0.500143
H235	H	-0.686207	0.183178	0.023975
H236	H	-0.186207	0.683178	0.523975
H237	H	-0.729181	0.264864	0.036704
H238	H	-0.229181	0.764864	0.536704
H239	H	-0.712228	0.232612	-0.060251
H240	H	-0.212228	0.732612	0.439749
H241	H	-0.493813	0.106598	0.000072
H242	H	0.006187	0.606598	0.500072
H243	H	-0.084125	-0.269022	0.000058
H244	H	0.415875	0.230978	0.500058
O245	O	-0.178534	-0.280487	0.000084
O246	O	0.321466	0.219513	0.500084
C247	C	-0.140268	-0.336188	0.000060
C248	C	0.359732	0.163812	0.500060
H249	H	-0.106058	-0.316982	0.023895
H250	H	0.393942	0.183018	0.523895
H251	H	-0.150707	-0.380931	0.036610
H252	H	0.349293	0.119069	0.536610
H253	H	-0.133095	-0.355693	-0.060340
H254	H	0.366905	0.144307	0.439660
H255	H	-0.492469	0.238708	0.000068
H256	H	0.007531	0.738708	0.500068
O257	O	-0.656155	0.578285	0.000045
O258	O	-0.156155	1.078285	0.500045
C259	C	-0.694550	0.633801	0.000061
C260	C	-0.194550	1.133801	0.500061
H261	H	-0.681106	0.683123	-0.023778
H262	H	-0.181106	1.183123	0.476222
H263	H	-0.725575	0.618907	-0.036489
H264	H	-0.225575	1.118907	0.463511
H265	H	-0.708014	0.644265	0.060459
H266	H	-0.208014	1.144265	0.560459
O267	O	-0.654634	0.721749	-0.000071
O268	O	-0.154634	1.221749	0.499929
C269	C	-0.656846	0.764389	-0.065270
C270	C	-0.156846	1.264389	0.434730
H271	H	-0.632077	0.737440	-0.110847
H272	H	-0.132077	1.237440	0.389153
H273	H	-0.695803	0.772989	-0.087145
H274	H	-0.195803	1.272989	0.412855
H275	H	-0.644447	0.817217	-0.050540
H276	H	-0.144447	1.317217	0.449460
H277	H	0.201697	-0.201072	0.000071
H278	H	0.701697	0.298928	0.500071
O279	O	-0.482377	0.543575	0.000082
O280	O	0.017623	1.043575	0.500082
C281	C	-0.443008	0.583559	0.000053
C282	C	0.056992	1.083559	0.500053
H283	H	-0.455390	0.638051	0.023886
H284	H	0.044610	1.138051	0.523886
H285	H	-0.412409	0.556374	0.036602
H286	H	0.087591	1.056374	0.536602
H287	H	-0.429389	0.588583	-0.060349
H288	H	0.070611	1.088583	0.439651
H289	H	-0.630606	-0.002659	0.186610
H290	H	-0.130606	0.497341	0.686610
H291	H	0.293166	-0.199722	0.000077
H292	H	0.793166	0.300278	0.500077
H293	H	0.180328	0.029967	0.000117
H294	H	0.680328	0.529967	0.500117
O295	O	0.274741	0.041429	0.000143
O296	O	0.774741	0.541429	0.500143
C297	C	0.236476	0.097133	0.000134
C298	C	0.736476	0.597133	0.500134
H299	H	0.202267	0.077934	0.023965
H300	H	0.702267	0.577934	0.523965
H301	H	0.246921	0.141880	0.036693
H302	H	0.746921	0.641880	0.536693
H303	H	0.229300	0.116628	-0.060262
H304	H	0.729300	0.616628	0.439738
O305	O	-0.114306	0.099460	0.000041
O306	O	0.385694	0.599460	0.500041
C307	C	-0.130206	0.138007	-0.065160
C308	C	0.369794	0.638007	0.434840
H309	H	-0.165132	0.119354	-0.086910
H310	H	0.334868	0.619354	0.413090
H311	H	-0.137331	0.196225	-0.050476
H312	H	0.362669	0.696225	0.449524
H313	H	-0.101014	0.129614	-0.110817
H314	H	0.398986	0.629614	0.389183
O315	O	-0.213679	0.097904	0.000032
O316	O	0.286321	0.597904	0.500032
C317	C	-0.243186	0.101296	-0.065183
C318	C	0.256814	0.601296	0.434817
H319	H	-0.245627	0.045906	-0.086933
H320	H	0.254373	0.545906	0.413067
H321	H	-0.281132	0.127725	-0.050517
H322	H	0.218868	0.627725	0.449483
H323	H	-0.226661	0.132999	-0.110832
H324	H	0.273339	0.632999	0.389168
O325	O	-0.635813	0.004755	0.336689
O326	O	-0.135813	0.504755	0.836689
C327	C	-0.665561	-0.032348	0.382494
C328	C	-0.165561	0.467652	0.882494
H329	H	-0.646190	-0.087174	0.394357
H330	H	-0.146190	0.412826	0.894357
H331	H	-0.673277	-0.003131	0.438226
H332	H	-0.173277	0.496869	0.938226
H333	H	-0.701270	-0.036740	0.351941
H334	H	-0.201270	0.463260	0.851941
H335	H	0.033968	0.091564	0.000129
H336	H	0.533968	0.591564	0.500129
O337	O	-0.439697	0.030836	-0.000023
O338	O	0.060303	0.530836	0.499977
C339	C	-0.469207	0.034222	-0.065234
C340	C	0.030793	0.534222	0.434766
H341	H	-0.471640	-0.021168	-0.086989
H342	H	0.028360	0.478832	0.413011
H343	H	-0.507155	0.060638	-0.050562
H344	H	-0.007155	0.560638	0.449438
H345	H	-0.452690	0.065936	-0.110883
H346	H	0.047310	0.565936	0.389117
O347	O	-0.027291	-0.278268	0.000097
O348	O	0.472709	0.221732	0.500097
C349	C	0.010975	-0.333968	0.000071
C350	C	0.510975	0.166032	0.500071
H351	H	0.045184	-0.314764	0.023910
H352	H	0.545184	0.185236	0.523910
H353	H	0.000534	-0.378713	0.036616
H354	H	0.500534	0.121287	0.536616
H355	H	0.018148	-0.353469	-0.060330
H356	H	0.518148	0.146531	0.439670
H357	H	-0.057484	0.090220	0.000126
H358	H	0.442516	0.590220	0.500126
O359	O	0.072065	-0.276697	-0.000029
O360	O	0.572065	0.223303	0.499971
C361	C	0.101572	-0.280086	-0.065239
C362	C	0.601572	0.219914	0.434761
H363	H	0.104004	-0.224695	-0.086971
H364	H	0.604004	0.275305	0.413029
H365	H	0.139520	-0.306501	-0.050574
H366	H	0.639520	0.193499	0.449426
H367	H	0.085053	-0.311800	-0.110902
H368	H	0.585053	0.188200	0.389098
