data_functionalizedCrystal
_audit_creation_method	'MofGen! by Chris Wilmer'
_symmetry_space_group_name_H-M	'P1'
_symmetry_Int_Tables_number	1
_symmetry_cell_setting	triclinic
loop_
_symmetry_equiv_pos_as_xyz
  x,y,z
_cell_length_a	12.837943
_cell_length_b	12.811415
_cell_length_c	16.776229
_cell_angle_alpha	84.562504
_cell_angle_beta	89.994226
_cell_angle_gamma	89.411917
loop_
_atom_site_label
_atom_site_type_symbol
_atom_site_fract_x
_atom_site_fract_y
_atom_site_fract_z
O1	O	1.376637	0.272982	-0.086005
O2	O	1.074773	0.259497	-0.085035
O3	O	1.233298	0.114206	-0.074526
O4	O	1.218112	0.418273	-0.096513
O5	O	1.233277	0.114193	0.058052
O6	O	1.074752	0.259485	0.047543
O7	O	1.376616	0.272969	0.046573
Zn8	Zn	1.225681	0.266225	0.068107
Zn9	Zn	1.225708	0.266241	-0.106569
O10	O	1.218091	0.418261	0.036064
C11	C	1.036122	0.254935	-0.018417
C12	C	0.920986	0.241349	-0.017437
C13	C	1.232436	0.075010	-0.005405
C14	C	1.229887	-0.041764	0.003034
C15	C	0.680734	0.404680	-0.029236
C16	C	0.572553	0.391920	-0.028315
C17	C	0.596442	0.203069	-0.014667
C18	C	0.704622	0.215829	-0.015589
C19	C	0.746764	0.316638	-0.022875
C20	C	0.854947	0.329398	-0.023802
C21	C	0.878834	0.140548	-0.010148
C22	C	0.770653	0.127787	-0.009227
C23	C	1.225100	-0.261171	-0.125661
C24	C	1.222705	-0.370890	-0.117735
C25	C	1.222693	-0.370923	0.026809
C26	C	1.225088	-0.261204	0.018884
C27	C	1.226293	-0.206332	-0.057353
C28	C	1.228696	-0.096611	-0.065278
C29	C	1.228677	-0.096645	0.079266
C30	C	1.226281	-0.206365	0.087191
C31	C	1.415267	0.277531	-0.020046
C32	C	1.530402	0.291117	-0.021032
C33	C	1.218953	0.457456	-0.033059
C34	C	1.221502	0.574230	-0.041503
N35	N	1.225669	0.266214	0.187319
N36	N	1.225728	0.266244	-0.225781
C37	C	1.295886	0.201911	0.233687
C38	C	1.295891	0.201911	0.317140
C39	C	1.225685	0.266220	0.354222
C40	C	1.155461	0.330526	0.307848
C41	C	1.155451	0.330520	0.224397
C42	C	1.155498	0.330551	0.644393
C43	C	1.155516	0.330554	0.727849
C44	C	1.295939	0.201941	0.737135
C45	C	1.295929	0.201935	0.653685
C46	C	1.225702	0.266237	0.607319
C47	C	1.225695	0.266235	0.516830
C48	C	1.225696	0.266228	0.444708
H49	H	0.715046	0.486763	-0.035170
H50	H	1.353119	0.149579	0.774896
H51	H	1.353060	0.149548	0.203501
H52	H	1.226091	-0.216493	-0.187736
C53	C	0.441208	0.099666	-0.007181
C54	C	0.550106	0.092266	-0.006651
H55	H	0.412604	0.031259	-0.002236
H56	H	0.418581	0.136365	0.036395
H57	H	0.418585	0.136377	-0.056071
H58	H	0.572729	0.055561	0.042241
H59	H	0.572741	0.055552	-0.050231
C60	C	0.757717	-0.037091	-0.065469
C61	C	0.724326	0.016981	-0.001222
H62	H	0.729122	-0.105501	-0.060525
H63	H	0.735080	-0.000374	-0.114344
H64	H	0.831597	-0.042084	-0.065100
H65	H	0.650446	0.021980	-0.001595
H66	H	0.746956	-0.019745	0.047665
C67	C	0.437031	0.487121	0.032955
C68	C	0.499971	0.488698	-0.035311
H69	H	0.392227	0.546875	0.028636
H70	H	0.396450	0.425269	0.037418
H71	H	0.479734	0.488167	0.079107
H72	H	0.457269	0.487645	-0.081463
H73	H	0.540556	0.550567	-0.039783
H74	H	1.229652	-0.051984	0.134887
H75	H	1.098341	0.382924	0.758040
H76	H	0.932608	0.068857	-0.004973
H77	H	1.098292	0.382884	0.338045
H78	H	1.225296	-0.251056	0.149261
C79	C	1.132921	-0.401748	-0.238695
C80	C	1.221385	-0.431175	-0.192818
H81	H	1.132108	-0.438963	-0.285051
H82	H	1.072138	-0.417773	-0.207835
H83	H	1.134535	-0.328549	-0.254322
H84	H	1.219768	-0.504373	-0.177185
H85	H	1.282184	-0.415157	-0.223684
C86	C	1.228453	-0.107602	-0.207357
C87	C	1.230015	-0.036292	-0.149076
H88	H	1.229258	-0.070363	-0.259091
H89	H	1.287920	-0.152356	-0.201123
H90	H	1.167112	-0.148438	-0.201389
H91	H	1.291361	0.004539	-0.155040
H92	H	1.170543	0.008480	-0.155313
H93	H	1.098319	0.382909	0.606648
C94	C	1.016654	0.457663	0.223594
C95	C	1.078271	0.401210	0.173426
H96	H	0.969009	0.501307	0.192125
H97	H	0.979171	0.410203	0.259583
H98	H	1.059997	0.499780	0.253088
H99	H	1.034929	0.359088	0.143936
H100	H	1.115757	0.448676	0.137423
C101	C	1.219059	-0.539137	0.103130
C102	C	1.221401	-0.431252	0.110604
H103	H	1.218278	-0.576380	0.154863
H104	H	1.158257	-0.555148	0.074616
H105	H	1.279065	-0.559049	0.074853
H106	H	1.161390	-0.411338	0.138876
H107	H	1.282209	-0.415234	0.139130
H108	H	1.353101	0.149572	0.623496
C109	C	0.820465	0.514785	-0.037189
C110	C	0.901273	0.440204	-0.031805
H111	H	0.849064	0.583193	-0.042123
H112	H	0.778776	0.505892	-0.082776
H113	H	0.778760	0.505859	0.009691
H114	H	0.942974	0.449126	-0.078688
H115	H	0.942979	0.449101	0.013787
C116	C	1.434724	0.074811	0.317934
C117	C	1.373092	0.131244	0.368106
H118	H	1.482393	0.031191	0.349400
H119	H	1.391402	0.032682	0.288448
H120	H	1.472191	0.122292	0.281937
H121	H	1.335620	0.083763	0.404100
H122	H	1.416420	0.173376	0.397606
