data_functionalizedCrystal
_audit_creation_method	'MofGen! by Chris Wilmer'
_symmetry_space_group_name_H-M	'P1'
_symmetry_Int_Tables_number	1
_symmetry_cell_setting	triclinic
loop_
_symmetry_equiv_pos_as_xyz
  x,y,z
_cell_length_a	12.759401
_cell_length_b	25.639240
_cell_length_c	12.759393
_cell_angle_alpha	89.955715
_cell_angle_beta	89.981425
_cell_angle_gamma	90.033185
loop_
_atom_site_label
_atom_site_type_symbol
_atom_site_fract_x
_atom_site_fract_y
_atom_site_fract_z
Zn1	Zn	1.606123	-0.208114	-0.593892
Zn2	Zn	1.605962	-0.295561	-0.418174
Zn3	Zn	1.430425	-0.208142	-0.418231
Zn4	Zn	1.430358	-0.295521	-0.593815
O5	O	1.518217	-0.251834	-0.506028
O6	O	1.753123	-0.219719	-0.570591
O7	O	1.582637	-0.283993	-0.271160
O8	O	1.453827	-0.134973	-0.441590
O9	O	1.753005	-0.283966	-0.441491
O10	O	1.582912	-0.134952	-0.570647
O11	O	1.453671	-0.219766	-0.271202
O12	O	1.283395	-0.219728	-0.441514
O13	O	1.453713	-0.283898	-0.740846
O14	O	1.283346	-0.283925	-0.570515
O15	O	1.582847	-0.219680	-0.740903
O16	O	1.582573	-0.368721	-0.441416
O17	O	1.453557	-0.368691	-0.570459
C18	C	1.245250	-0.251825	-0.506013
C19	C	1.128473	-0.251834	-0.506032
C20	C	1.073673	-0.218441	-0.573358
C21	C	0.963949	-0.218446	-0.573364
C22	C	0.963835	-0.285242	-0.438717
C23	C	1.073557	-0.285234	-0.438705
C24	C	0.814068	-0.156818	-0.611160
C25	C	0.759265	-0.123430	-0.678503
C26	C	0.794926	-0.115460	-0.781045
C27	C	0.885390	-0.140886	-0.816265
C28	C	0.940187	-0.174278	-0.748929
C29	C	0.904527	-0.182238	-0.646372
C30	C	1.223440	-0.346862	-0.400920
C31	C	1.278240	-0.380258	-0.333588
C32	C	1.242580	-0.388233	-0.231044
C33	C	1.152113	-0.362816	-0.195827
C34	C	1.097313	-0.329421	-0.263160
C35	C	1.132981	-0.321445	-0.365702
C36	C	1.518069	-0.387677	-0.505946
C37	C	1.518101	-0.445791	-0.505946
C38	C	1.585465	-0.806105	-0.573349
C39	C	1.585496	-0.860709	-0.573371
O40	O	1.642594	-0.888904	-0.630595
N41	N	1.518363	-0.888073	-0.506129
C42	C	1.451187	-0.860830	-0.438870
O43	O	1.394088	-0.889120	-0.381679
C44	C	1.451152	-0.806227	-0.438855
C45	C	1.518297	-0.778866	-0.506093
C46	C	1.652603	-0.778743	-0.640583
C47	C	1.652574	-0.724143	-0.640560
C48	C	1.585405	-0.696904	-0.573303
C49	C	1.518267	-0.724265	-0.506070
C50	C	1.383971	-0.778985	-0.371601
C51	C	1.383941	-0.724378	-0.371593
C52	C	1.451086	-0.697017	-0.438831
C53	C	1.451068	-0.642425	-0.438790
N54	N	1.518201	-0.615061	-0.506032
C55	C	1.585370	-0.642300	-0.573288
C56	C	1.451266	-0.975501	-0.438909
C57	C	1.451306	-1.030103	-0.438918
C58	C	1.585613	-1.029978	-0.573420
C59	C	1.585578	-0.975375	-0.573405
C60	C	1.518398	-0.948137	-0.506150
C61	C	1.585302	-0.527635	-0.573234
C62	C	1.585270	-0.473030	-0.573202
C63	C	1.450959	-0.473160	-0.438704
C64	C	1.450995	-0.527760	-0.438732
C65	C	1.518170	-0.554997	-0.506005
O66	O	1.393996	-0.614196	-0.381598
O67	O	1.642450	-0.614004	-0.630479
C68	C	1.792250	-0.251844	-0.506043
C69	C	1.909027	-0.251848	-0.506050
C70	C	1.518291	-0.251781	-0.780061
C71	C	1.518322	-0.251759	-0.896838
C72	C	1.518395	-0.115461	-0.506134
C73	C	1.518471	-0.057347	-0.506179
C74	C	1.451193	-0.218310	-0.951722
C75	C	1.451218	-0.218294	-1.061446
C76	C	1.585508	-0.285177	-1.061393
C77	C	1.585478	-0.285195	-0.951671
C78	C	1.327379	-0.199583	-1.211407
C79	C	1.260260	-0.166126	-1.266294
C80	C	1.244188	-0.115114	-1.230728
C81	C	1.295251	-0.097550	-1.140275
C82	C	1.362378	-0.131004	-1.085393
C83	C	1.378430	-0.182022	-1.120959
C84	C	1.709318	-0.303901	-0.801708
C85	C	1.776451	-0.337353	-0.746824
C86	C	1.792534	-0.388365	-0.782389
C87	C	1.741489	-0.405928	-0.872845
C88	C	1.674356	-0.372476	-0.927728
C89	C	1.658272	-0.321464	-0.892156
C90	C	1.518205	-0.251849	-0.233061
C91	C	1.518377	-0.251724	-0.116284
H92	H	1.013844	-0.194977	-0.777602
H93	H	1.218685	-0.180432	-1.339941
N94	N	1.382631	-0.947682	-0.370208
N95	N	1.285688	-0.953827	-0.377097
H96	H	1.237211	-0.934182	-0.328580
H97	H	1.287188	-0.415441	-0.176235
H98	H	1.632795	-0.386779	-1.001384
N99	N	1.004918	-0.303446	-0.227181
N100	N	1.001192	-0.254731	-0.226385
H101	H	0.935939	-0.236386	-0.200976
N102	N	1.382575	-0.184167	-0.895714
N103	N	1.315581	-0.202571	-0.834472
H104	H	1.267113	-0.178458	-0.794919
H105	H	1.123074	-0.369312	-0.112330
N106	N	1.259894	-0.338713	-0.505661
N107	N	1.340667	-0.361410	-0.537090
H108	H	1.366417	-0.355655	-0.611062
N109	N	1.653872	-0.445090	-0.641888
N110	N	1.713837	-0.469421	-0.701933
H111	H	1.762286	-0.449691	-0.750442
H112	H	1.351913	-0.400946	-0.362265
H113	H	1.639996	-0.549805	-0.628022
H114	H	0.914412	-0.134399	-0.899770
N115	N	1.692875	-0.251790	-0.765390
N116	N	1.632927	-0.221930	-0.814396
H117	H	1.621313	-0.185127	-0.788746
N118	N	1.278843	-0.045443	-1.103931
N119	N	1.324435	-0.029769	-1.023172
H120	H	1.312845	0.007032	-0.997498
N121	N	1.721166	-0.696206	-0.709251
N122	N	1.781126	-0.720542	-0.769293
H123	H	1.829572	-0.700815	-0.817812
N124	N	1.757908	-0.458034	-0.909196
N125	N	1.795232	-0.465755	-0.998429
H126	H	1.806832	-0.502555	-1.024102
H127	H	1.396329	-0.550039	-0.383973
H128	H	1.189537	-0.087874	-1.275425
H129	H	1.640252	-0.953100	-0.628156
N130	N	1.129754	-0.184321	-0.642131
N131	N	1.080807	-0.154508	-0.702236
H132	H	1.120410	-0.130408	-0.750809
H133	H	1.329295	-0.801253	-0.316848
H134	H	1.707300	-0.800915	-0.695357
H135	H	1.396641	-1.052376	-0.384154
H136	H	1.403957	-0.116702	-1.011752
N137	N	0.738942	-0.081347	-0.849811
N138	N	0.727248	-0.034414	-0.826112
H139	H	0.687706	-0.010318	-0.874670
N140	N	0.666862	-0.097464	-0.642513
N141	N	0.635036	-0.104577	-0.550947
H142	H	0.569774	-0.086240	-0.525534
N143	N	1.343766	-0.251693	-1.247742
N144	N	1.298174	-0.267364	-1.328502
H145	H	1.309746	-0.304167	-1.354169
N146	N	0.777655	-0.164946	-0.506403
N147	N	0.770229	-0.127237	-0.444818
H148	H	0.744508	-0.132978	-0.370831
N149	N	0.907720	-0.319354	-0.369955
N150	N	0.809755	-0.319358	-0.369973
H151	H	0.770124	-0.343450	-0.321410
N152	N	1.382333	-0.445338	-0.370011
N153	N	1.322381	-0.469769	-0.309986
H154	H	1.273906	-0.450120	-0.261476
N155	N	1.861099	-0.422532	-0.726304
N156	N	1.906666	-0.406850	-0.645538
H157	H	1.955079	-0.430983	-0.605923
H158	H	1.640304	-1.052166	-0.628186
H159	H	1.329232	-0.702203	-0.316826
H160	H	1.640185	-0.312399	-1.106051
H161	H	1.818025	-0.323047	-0.673178
