data_functionalizedCrystal
_audit_creation_method	'MofGen! by Chris Wilmer'
_symmetry_space_group_name_H-M	'P1'
_symmetry_Int_Tables_number	1
_symmetry_cell_setting	triclinic
loop_
_symmetry_equiv_pos_as_xyz
  x,y,z
_cell_length_a	16.109301
_cell_length_b	12.837942
_cell_length_c	14.586319
_cell_angle_alpha	89.996741
_cell_angle_beta	89.999213
_cell_angle_gamma	89.145211
loop_
_atom_site_label
_atom_site_type_symbol
_atom_site_fract_x
_atom_site_fract_y
_atom_site_fract_z
O1	O	1.113716	0.133240	-0.076181
O2	O	0.872971	0.149822	-0.076196
O3	O	0.988005	-0.009370	-0.076183
O4	O	0.998682	0.292432	-0.076194
O5	O	0.987996	-0.009372	0.076298
O6	O	0.872962	0.149819	0.076285
O7	O	1.113707	0.133238	0.076299
Cu8	Cu	0.993333	0.141528	0.090215
Cu9	Cu	0.993344	0.141531	-0.090111
O10	O	0.998673	0.292430	0.076287
C11	C	0.841938	0.149149	0.000043
C12	C	0.749483	0.147135	0.000037
C13	C	0.534343	0.236914	0.000045
C14	C	0.447471	0.235014	0.000051
C15	C	0.452341	0.046138	0.000054
C16	C	0.539211	0.048040	0.000054
C17	C	0.580209	0.143431	0.000045
C18	C	0.406468	0.139629	0.000050
C19	C	0.312278	0.137568	0.000057
C20	C	0.674405	0.145492	0.000040
C21	C	0.984394	-0.047991	0.000056
C22	C	0.973637	-0.163064	0.000054
C23	C	1.102954	-0.404066	0.000043
C24	C	1.092851	-0.512188	0.000041
C25	C	0.943328	-0.487433	0.000041
C26	C	0.953431	-0.379311	0.000043
C27	C	1.033247	-0.337632	0.000046
C28	C	1.043349	-0.229507	0.000054
C29	C	0.893827	-0.204754	0.000048
C30	C	0.883724	-0.312876	0.000046
C31	C	1.144739	0.133911	0.000059
C32	C	1.237195	0.135924	0.000058
C33	C	1.002284	0.331050	0.000045
C34	C	1.013041	0.446124	0.000041
N35	N	0.993332	0.141526	0.217047
N36	N	0.993352	0.141526	-0.216943
C37	C	1.044290	0.071059	0.452059
C38	C	1.044292	0.071057	0.548040
C39	C	0.942388	0.211995	0.548038
C40	C	0.942382	0.211992	0.452059
C41	C	0.993338	0.141525	0.404071
C42	C	0.993346	0.141526	0.596032
C43	C	0.993348	0.141524	0.700099
C44	C	0.993335	0.141526	0.299998
H45	H	1.108339	-0.195574	0.000059
H46	H	0.567721	0.314588	0.000044
C47	C	0.897157	0.274589	0.695168
C48	C	0.886389	0.289460	0.600789
H49	H	0.862589	0.322421	0.727731
H50	H	0.882645	0.205414	0.710902
H51	H	0.953540	0.285866	0.710880
H52	H	0.830007	0.278176	0.585077
H53	H	0.900895	0.358652	0.585050
H54	H	1.085779	0.013680	0.412990
C55	C	1.233511	-0.391856	-0.078339
C56	C	1.190682	-0.358239	0.000045
H57	H	1.287669	-0.363558	-0.078340
H58	H	1.237474	-0.465749	-0.078331
H59	H	1.204441	-0.369044	-0.131507
H60	H	1.219748	-0.381058	0.053213
H61	H	1.186722	-0.284331	0.000045
C62	C	0.841658	0.351318	0.461690
C63	C	0.886374	0.289458	0.399304
H64	H	0.807085	0.399141	0.429119
H65	H	0.808337	0.308162	0.499130
H66	H	0.879228	0.388619	0.499121
H67	H	0.848803	0.252151	0.361877
H68	H	0.919697	0.332619	0.361848
C69	C	0.451390	0.421897	0.000034
C70	C	0.397055	0.337774	0.000044
H71	H	0.420263	0.485339	0.000024
H72	H	0.485371	0.418711	0.053203
H73	H	0.485375	0.418700	-0.053144
H74	H	0.363074	0.340967	0.053225
H75	H	0.363059	0.340963	-0.053131
H76	H	0.418949	-0.031526	0.000066
C77	C	0.570120	-0.112361	-0.078335
C78	C	0.589636	-0.054725	0.000051
H79	H	0.601255	-0.175797	-0.078336
H80	H	0.512524	-0.127147	-0.078329
H81	H	0.583361	-0.073232	-0.131502
H82	H	0.576390	-0.093851	0.053218
H83	H	0.647245	-0.039942	0.000053
H84	H	1.149614	-0.566277	0.000036
C85	C	0.861459	-0.642193	0.000035
C86	C	0.855601	-0.533261	0.000039
H87	H	0.807299	-0.670482	0.000040
H88	H	0.890517	-0.664980	-0.053137
H89	H	0.890525	-0.664992	0.053210
H90	H	0.826541	-0.510461	-0.053139
H91	H	0.826531	-0.510465	0.053217
C92	C	0.736943	-0.277546	0.000042
C93	C	0.795994	-0.358695	0.000040
H94	H	0.682782	-0.305834	0.000034
H95	H	0.743992	-0.235900	0.053216
H96	H	0.744001	-0.235880	-0.053132
H97	H	0.788940	-0.400358	0.053218
H98	H	0.788942	-0.400359	-0.053138
C99	C	0.842917	-0.028019	0.000046
C100	C	0.817198	-0.131725	0.000045
H101	H	0.795610	0.017063	0.000040
H102	H	0.875281	-0.015396	0.053218
H103	H	0.875293	-0.015390	-0.053129
H104	H	0.784828	-0.144357	0.053224
H105	H	0.784820	-0.144354	-0.053133
C106	C	1.145025	-0.068243	0.538394
C107	C	1.100304	-0.006398	0.600787
H108	H	1.179609	-0.116058	0.570960
H109	H	1.107465	-0.105543	0.500966
H110	H	1.178344	-0.025069	0.500953
H111	H	1.066981	-0.049572	0.638225
H112	H	1.137869	0.030905	0.638232
