data_functionalizedCrystal
_audit_creation_method	'MofGen! by Chris Wilmer'
_symmetry_space_group_name_H-M	'P1'
_symmetry_Int_Tables_number	1
_symmetry_cell_setting	triclinic
loop_
_symmetry_equiv_pos_as_xyz
  x,y,z
_cell_length_a	17.640280
_cell_length_b	12.759401
_cell_length_c	12.759393
_cell_angle_alpha	90.020566
_cell_angle_beta	78.768965
_cell_angle_gamma	101.201026
loop_
_atom_site_label
_atom_site_type_symbol
_atom_site_fract_x
_atom_site_fract_y
_atom_site_fract_z
Zn1	Zn	-0.314671	-1.690838	-0.509531
Zn2	Zn	0.185329	-1.190838	-0.009531
Zn3	Zn	-0.446866	-1.726258	-0.298362
Zn4	Zn	0.053134	-1.226258	0.201638
Zn5	Zn	-0.314705	-1.515146	-0.333858
Zn6	Zn	0.185295	-1.015146	0.166142
Zn7	Zn	-0.446803	-1.550641	-0.474017
Zn8	Zn	0.053197	-1.050641	0.025983
O9	O	-0.380761	-1.620721	-0.403942
O10	O	0.119239	-1.120721	0.096058
O11	O	-0.332219	-1.842561	-0.481527
O12	O	0.167781	-1.342561	0.018473
O13	O	-0.429375	-1.698222	-0.156038
O14	O	0.070625	-1.198222	0.343962
O15	O	-0.204093	-1.508774	-0.386880
O16	O	0.295907	-1.008774	0.113120
O17	O	-0.429342	-1.868584	-0.326381
O18	O	0.070658	-1.368584	0.173619
O19	O	-0.204068	-1.637854	-0.515946
O20	O	0.295932	-1.137854	-0.015946
O21	O	-0.332277	-1.543119	-0.182118
O22	O	0.167723	-1.043119	0.317882
O23	O	-0.332216	-1.372830	-0.352443
O24	O	0.167784	-0.872830	0.147557
O25	O	-0.429234	-1.569270	-0.625760
O26	O	0.070766	-1.069270	-0.125760
O27	O	-0.429268	-1.398908	-0.455417
O28	O	0.070732	-0.898908	0.044583
O29	O	-0.332158	-1.672272	-0.651852
O30	O	0.167842	-1.172272	-0.151852
O31	O	-0.557465	-1.732640	-0.291944
O32	O	-0.057465	-1.232640	0.208056
O33	O	-0.557418	-1.603615	-0.420997
O34	O	-0.057418	-1.103615	0.079003
C35	C	-0.380740	-1.347748	-0.403929
C36	C	0.119260	-0.847748	0.096071
C37	C	-0.380749	-1.230974	-0.403943
C38	C	0.119251	-0.730974	0.096057
C39	C	-0.330267	-1.162586	-0.484806
C40	C	0.169733	-0.662586	0.015194
C41	C	-0.330272	-1.052864	-0.484810
C42	C	0.169728	-0.552864	0.015190
C43	C	-0.431248	-1.079927	-0.323083
C44	C	0.068752	-0.579927	0.176917
C45	C	-0.431239	-1.189647	-0.323076
C46	C	0.068761	-0.689647	0.176924
C47	C	-0.586121	-1.675851	-0.348788
C48	C	-0.086121	-1.175851	0.151212
C49	C	-0.673974	-1.699533	-0.325228
C50	C	-0.173974	-1.199533	0.174772
C51	C	-0.962931	-1.441248	-0.583307
C52	C	-0.462931	-0.941248	-0.083307
C53	C	-1.045483	-1.463502	-0.561135
C54	C	-0.545483	-0.963502	-0.061135
C55	C	-1.045466	-1.597940	-0.426888
C56	C	-0.545466	-1.097940	0.073112
C57	C	-0.962912	-1.575701	-0.449052
C58	C	-0.462912	-1.075701	0.050948
C59	C	-0.921652	-1.497353	-0.527262
C60	C	-0.421652	-0.997353	-0.027262
C61	C	-0.921633	-1.631805	-0.393007
C62	C	-0.421633	-1.131805	0.106993
C63	C	-0.839086	-1.609564	-0.415165
C64	C	-0.339086	-1.109564	0.084835
C65	C	-0.797820	-1.531217	-0.493369
C66	C	-0.297820	-1.031217	0.006631
C67	C	-0.839105	-1.475111	-0.549420
C68	C	-0.339105	-0.975111	-0.049420
C69	C	-0.962895	-1.710147	-0.314792
C70	C	-0.462895	-1.210147	0.185208
C71	C	-0.921615	-1.766252	-0.258747
C72	C	-0.421615	-1.266252	0.241253
C73	C	-0.839067	-1.744016	-0.280911
C74	C	-0.339067	-1.244016	0.219089
C75	C	-0.797801	-1.665670	-0.359114
C76	C	-0.297801	-1.165670	0.140886
C77	C	-0.797782	-1.800122	-0.224860
C78	C	-0.297782	-1.300122	0.275140
C79	C	-0.715235	-1.777880	-0.247018
C80	C	-0.215235	-1.277880	0.252982
C81	C	-0.715254	-1.643428	-0.381273
C82	C	-0.215254	-1.143428	0.118727
C83	C	-0.174600	-1.565404	-0.459334
C84	C	0.325400	-1.065404	0.040666
C85	C	-0.086746	-1.541831	-0.482939
C86	C	0.413254	-1.041831	0.017061
C87	C	-0.380685	-1.620779	-0.677996
C88	C	0.119315	-1.120779	-0.177996
C89	C	-0.380653	-1.620804	-0.794781
C90	C	0.119347	-1.120804	-0.294781
C91	C	-0.380776	-0.894758	-0.403954
C92	C	0.119224	-0.394758	0.096046
C93	C	-0.380764	-1.011531	-0.403954
C94	C	0.119236	-0.511531	0.096046
C95	C	-0.330097	-1.674440	-0.863233
C96	C	0.169903	-1.174440	-0.363233
C97	C	-0.330063	-1.674449	-0.972967
C98	C	0.169937	-1.174449	-0.472967
C99	C	-0.431148	-1.567184	-0.945784
C100	C	0.068852	-1.067184	-0.445784
C101	C	-0.431177	-1.567169	-0.836054
C102	C	0.068823	-1.067169	-0.336054
C103	C	-0.380780	-1.620708	-0.130970
C104	C	0.119220	-1.120708	0.369030
C105	C	-0.380589	-1.620827	-0.014245
C106	C	0.119411	-1.120827	0.485755
H107	H	-0.289163	-0.997186	-0.550655
H108	H	0.210837	-0.497186	-0.050655
H109	H	-0.929335	-1.377457	-0.647001
H110	H	-0.429335	-0.877457	-0.147001
Br111	Br	-0.499767	-1.023833	-0.213342
Br112	Br	0.000233	-0.523833	0.286658
H113	H	-0.805509	-1.411320	-0.613114
H114	H	-0.305509	-0.911320	-0.113114
Br115	Br	-0.261527	-1.747226	-0.807223
Br116	Br	0.238473	-1.247226	-0.307223
H117	H	-1.079090	-1.417822	-0.606792
H118	H	-0.579090	-0.917822	-0.106792
H119	H	-0.288894	-1.718122	-1.028697
H120	H	0.211106	-1.218122	-0.528697
Br121	Br	-1.074924	-1.740373	-0.284759
Br122	Br	-0.574924	-1.240373	0.215241
Br123	Br	-0.499787	-1.494361	-0.743148
Br124	Br	0.000213	-0.994361	-0.243148
Br125	Br	-0.977619	-1.872578	-0.152610
Br126	Br	-0.477619	-1.372578	0.347390
H127	H	-0.831389	-1.863905	-0.161174
H128	H	-0.331389	-1.363905	0.338826
H129	H	-0.289153	-1.196230	-0.550650
H130	H	0.210847	-0.696230	-0.050650
H131	H	-0.472284	-1.523519	-0.979402
H132	H	0.027716	-1.023519	-0.479402
H133	H	-0.472348	-1.245331	-0.257222
H134	H	0.027652	-0.745331	0.242778
H135	H	-0.730605	-1.513102	-0.511402
H136	H	-0.230605	-1.013102	-0.011402
Br137	Br	-0.659249	-1.537111	-0.487430
Br138	Br	-0.159249	-1.037111	0.012570
H139	H	-0.681625	-1.823566	-0.201379
H140	H	-0.181625	-1.323566	0.298621
H141	H	-1.079072	-1.661728	-0.363207
H142	H	-0.579072	-1.161728	0.136793
