data_functionalizedCrystal
_audit_creation_method	'MofGen! by Chris Wilmer'
_symmetry_space_group_name_H-M	'P1'
_symmetry_Int_Tables_number	1
_symmetry_cell_setting	triclinic
loop_
_symmetry_equiv_pos_as_xyz
  x,y,z
_cell_length_a	14.853558
_cell_length_b	19.288865
_cell_length_c	18.366186
_cell_angle_alpha	89.990289
_cell_angle_beta	90.005001
_cell_angle_gamma	96.616309
loop_
_atom_site_label
_atom_site_type_symbol
_atom_site_fract_x
_atom_site_fract_y
_atom_site_fract_z
O1	O	1.195856	-0.090653	0.060549
O2	O	1.695856	0.409347	0.560549
O3	O	0.933334	-0.101462	0.060554
O4	O	1.433334	0.398538	0.560554
O5	O	1.072180	0.005047	0.060537
O6	O	1.572180	0.505047	0.560537
O7	O	1.057009	-0.197163	0.060566
O8	O	1.557009	0.302837	0.560566
O9	O	1.072166	0.005050	-0.060562
O10	O	1.572166	0.505050	0.439438
O11	O	0.933319	-0.101460	-0.060546
O12	O	1.433319	0.398540	0.439454
O13	O	1.195841	-0.090650	-0.060550
O14	O	1.695841	0.409350	0.439450
Zn15	Zn	1.064578	-0.096055	-0.079775
Zn16	Zn	1.564578	0.403945	0.420225
Zn17	Zn	1.064597	-0.096058	0.079779
Zn18	Zn	1.564597	0.403942	0.579779
O19	O	1.056994	-0.197160	-0.060533
O20	O	1.556994	0.302840	0.439467
C21	C	0.899740	-0.100972	0.000005
C22	C	1.399740	0.399028	0.500005
C23	C	0.799664	-0.099508	0.000006
C24	C	1.299664	0.400492	0.500006
C25	C	0.752656	-0.098823	0.066020
C26	C	1.252656	0.401177	0.566020
C27	C	0.752639	-0.098812	-0.066008
C28	C	1.252639	0.401188	0.433992
C29	C	0.658613	-0.097433	-0.066009
C30	C	1.158613	0.402567	0.433991
C31	C	0.611605	-0.096747	0.000005
C32	C	1.111605	0.403253	0.500005
C33	C	0.658622	-0.097441	0.066020
C34	C	1.158622	0.402559	0.566020
C35	C	0.611589	-0.096731	-0.132023
C36	C	1.111589	0.403269	0.367977
C37	C	0.517558	-0.095351	-0.132027
C38	C	1.017558	0.404649	0.367973
C39	C	0.470547	-0.094671	-0.066013
C40	C	0.970547	0.405329	0.433987
C41	C	0.517570	-0.095366	0.000005
C42	C	1.017570	0.404634	0.500005
C43	C	0.470562	-0.094680	0.066019
C44	C	0.970562	0.405320	0.566019
C45	C	0.517583	-0.095380	0.132038
C46	C	1.017583	0.404620	0.632038
C47	C	0.611611	-0.096761	0.132035
C48	C	1.111611	0.403239	0.632035
C49	C	0.376519	-0.093290	-0.066009
C50	C	0.876519	0.406710	0.433991
C51	C	0.376528	-0.093299	0.066020
C52	C	0.876528	0.406701	0.566020
C53	C	1.071685	0.030927	-0.000015
C54	C	1.571685	0.530927	0.499985
C55	C	1.070220	0.108035	-0.000021
C56	C	1.570220	0.608035	0.499979
C57	C	1.229435	-0.091140	0.000001
C58	C	1.729435	0.408860	0.500001
C59	C	1.329510	-0.092605	0.000005
C60	C	1.829510	0.407395	0.500005
C61	C	1.057490	-0.223039	0.000020
C62	C	1.557490	0.276961	0.500020
C63	C	1.058955	-0.300148	0.000031
C64	C	1.558955	0.199852	0.500031
N65	N	1.064571	-0.096052	-0.188666
N66	N	1.564571	0.403948	0.311334
C67	C	1.151688	0.152458	-0.000026
C68	C	1.651688	0.652458	0.499974
C69	C	1.150312	0.224910	-0.000015
C70	C	1.650312	0.724910	0.499985
C71	C	1.067461	0.252935	-0.000013
C72	C	1.567461	0.752935	0.499987
C73	C	0.985982	0.208502	-0.000004
C74	C	1.485982	0.708502	0.499996
C75	C	0.987361	0.136052	-0.000008
C76	C	1.487361	0.636052	0.499992
C77	C	1.002326	0.361442	-0.042430
C78	C	1.502326	0.861442	0.457570
C79	C	1.000951	0.433891	-0.042430
C80	C	1.500951	0.933891	0.457570
C81	C	1.063205	0.476395	0.000004
C82	C	1.563205	0.976395	0.500004
C83	C	1.126850	0.446443	0.042429
C84	C	1.626850	0.946443	0.542429
C85	C	1.128229	0.373993	0.042424
C86	C	1.628229	0.873993	0.542424
C87	C	1.065957	0.331494	-0.000008
C88	C	1.565957	0.831494	0.499992
C89	C	1.143186	0.599379	0.000012
C90	C	1.643186	1.099379	0.500012
C91	C	1.141806	0.671832	0.000028
C92	C	1.641806	1.171832	0.500028
C93	C	0.977474	0.655422	0.000032
C94	C	1.477474	1.155422	0.500032
C95	C	0.978857	0.582971	0.000023
C96	C	1.478857	1.082971	0.500023
C97	C	1.061715	0.554954	0.000010
C98	C	1.561715	1.054954	0.500010
C99	C	1.126094	-0.048906	-0.773224
C100	C	1.626094	0.451094	-0.273224
C101	C	1.126095	-0.048907	-0.696996
C102	C	1.626095	0.451093	-0.196996
C103	C	1.064597	-0.096052	-0.658877
C104	C	1.564597	0.403948	-0.158877
C105	C	1.003110	-0.143210	-0.696993
C106	C	1.503110	0.356790	-0.196993
C107	C	1.003117	-0.143212	-0.773219
C108	C	1.503117	0.356788	-0.273219
C109	C	0.982447	-0.105046	-0.538121
C110	C	1.482447	0.394954	-0.038121
C111	C	0.982440	-0.105040	-0.461896
C112	C	1.482440	0.394960	0.038104
C113	C	1.064577	-0.096050	-0.423770
C114	C	1.564577	0.403950	0.076230
C115	C	1.146726	-0.087053	-0.461878
C116	C	1.646726	0.412947	0.038122
C117	C	1.146732	-0.087055	-0.538104
C118	C	1.646732	0.412945	-0.038104
C119	C	1.064584	-0.096055	-0.576223
C120	C	1.564584	0.403945	-0.076223
C121	C	1.126066	-0.048900	-0.303009
C122	C	1.626066	0.451100	0.196991
C123	C	1.126068	-0.048906	-0.226779
C124	C	1.626068	0.451094	0.273221
C125	C	1.003076	-0.143206	-0.226778
C126	C	1.503076	0.356794	0.273222
C127	C	1.003081	-0.143203	-0.303005
C128	C	1.503081	0.356797	0.196995
C129	C	1.064575	-0.096046	-0.341116
C130	C	1.564575	0.403954	0.158884
N131	N	1.064611	-0.096055	0.188670
N132	N	1.564611	0.403945	0.688670
H133	H	0.649904	-0.097330	0.185784
H134	H	1.149904	0.402670	0.685784
H135	H	0.910016	0.678239	0.000037
H136	H	1.410016	1.178239	0.500037
H137	H	1.176141	-0.010504	-0.334040
H138	H	1.676141	0.489496	0.165960
H139	H	0.479282	-0.094780	-0.185784
H140	H	0.979282	0.405220	0.314216
Br141	Br	0.870965	-0.117253	-0.589856
Br142	Br	1.370965	0.382747	-0.089856
Br143	Br	0.675389	-0.097662	-0.221608
Br144	Br	1.175389	0.402338	0.278392
H145	H	0.953013	-0.181594	-0.334034
H146	H	1.453013	0.318406	0.165966
Br147	Br	0.868285	0.522678	0.000029
Br148	Br	1.368285	1.022678	0.500029
Br149	Br	0.816436	-0.099738	-0.155594
Br150	Br	1.316436	0.400262	0.344406
Br151	Br	0.914583	0.474534	-0.100011
Br152	Br	1.414583	0.974534	0.399989
H153	H	0.918524	0.231325	-0.000000
H154	H	1.418524	0.731325	0.500000
Br155	Br	0.312737	-0.092377	0.155615
Br156	Br	0.812737	0.407623	0.655615
Br157	Br	1.255634	0.561352	-0.000013
Br158	Br	1.755634	1.061352	0.499987
Br159	Br	1.258213	-0.074850	-0.589821
Br160	Br	1.758213	0.425150	-0.089821
Br161	Br	1.264139	0.114439	-0.000024
Br162	Br	1.764139	0.614439	0.499976
Br163	Br	0.816465	-0.099776	0.155612
Br164	Br	1.316465	0.400224	0.655612
Br165	Br	0.312711	-0.092325	-0.155598
Br166	Br	0.812711	0.407675	0.344402
H167	H	1.216656	0.261087	-0.000016
H168	H	1.716656	0.761087	0.499984
H169	H	1.180049	0.349609	0.076969
H170	H	1.680049	0.849609	0.576969
H171	H	1.177543	0.481049	0.076983
H172	H	1.677543	0.981049	0.576983
H173	H	0.915549	-0.112358	-0.430874
H174	H	1.415549	0.387642	0.069126
H175	H	0.479297	-0.094818	0.185787
H176	H	0.979297	0.405182	0.685787
Br177	Br	0.917831	0.303764	-0.100025
Br178	Br	1.417831	0.803764	0.399975
H179	H	1.176163	-0.010511	-0.665964
H180	H	1.676163	0.489489	-0.165964
Br181	Br	1.252382	0.732124	0.000029
Br182	Br	1.752382	1.232124	0.500029
H183	H	0.921017	0.099882	-0.000004
H184	H	1.421017	0.599882	0.499996
Br185	Br	1.258206	-0.074844	-0.410146
Br186	Br	1.758206	0.425156	0.089854
H187	H	1.176168	-0.010510	-0.804252
H188	H	1.676168	0.489490	-0.304252
Br189	Br	1.209523	0.015081	-0.175059
Br190	Br	1.709523	0.515081	0.324941
Br191	Br	0.919655	-0.207198	-0.645263
Br192	Br	1.419655	0.292802	-0.145263
Br193	Br	0.919624	-0.207196	-0.175052
Br194	Br	1.419624	0.292804	0.324948
Br195	Br	0.919671	-0.207206	-0.824939
Br196	Br	1.419671	0.292794	-0.324939
