data_functionalizedCrystal
_audit_creation_method	'MofGen! by Chris Wilmer'
_symmetry_space_group_name_H-M	'P1'
_symmetry_Int_Tables_number	1
_symmetry_cell_setting	triclinic
loop_
_symmetry_equiv_pos_as_xyz
  x,y,z
_cell_length_a	18.101395
_cell_length_b	13.897449
_cell_length_c	13.897441
_cell_angle_alpha	90.026069
_cell_angle_beta	89.969302
_cell_angle_gamma	89.968968
loop_
_atom_site_label
_atom_site_type_symbol
_atom_site_fract_x
_atom_site_fract_y
_atom_site_fract_z
Zn1	Zn	-0.294807	-1.474613	-0.545518
Zn2	Zn	0.205193	-0.974613	-0.045518
Zn3	Zn	-0.418663	-1.474469	-0.384219
Zn4	Zn	0.081337	-0.974469	0.115781
Zn5	Zn	-0.294840	-1.313302	-0.384221
Zn6	Zn	0.205160	-0.813302	0.115779
Zn7	Zn	-0.418611	-1.313246	-0.545456
Zn8	Zn	0.081389	-0.813246	-0.045456
O9	O	-0.356730	-1.393907	-0.464854
O10	O	0.143270	-0.893907	0.035146
O11	O	-0.311245	-1.609575	-0.524146
O12	O	0.188755	-1.109575	-0.024146
O13	O	-0.402273	-1.453053	-0.249237
O14	O	0.097727	-0.953053	0.250763
O15	O	-0.191203	-1.334784	-0.405644
O16	O	0.308797	-0.834784	0.094356
O17	O	-0.402241	-1.609470	-0.405640
O18	O	0.097759	-1.109470	0.094360
O19	O	-0.191179	-1.453298	-0.524148
O20	O	0.308821	-0.953298	-0.024148
O21	O	-0.311300	-1.334644	-0.249239
O22	O	0.188700	-0.834644	0.250761
O23	O	-0.311250	-1.178313	-0.405585
O24	O	0.188750	-0.678313	0.094415
O25	O	-0.402153	-1.334688	-0.680446
O26	O	0.097847	-0.834688	-0.180446
O27	O	-0.402185	-1.178272	-0.524044
O28	O	0.097815	-0.678272	-0.024044
O29	O	-0.311195	-1.453244	-0.680491
O30	O	0.188805	-0.953244	-0.180491
O31	O	-0.522289	-1.452999	-0.405581
O32	O	-0.022289	-0.952999	0.094419
O33	O	-0.522251	-1.334549	-0.524041
O34	O	-0.022251	-0.834549	-0.024041
C35	C	-0.356716	-1.143293	-0.464808
C36	C	0.143284	-0.643293	0.035192
C37	C	-0.356728	-1.036079	-0.464812
C38	C	0.143272	-0.536079	0.035188
C39	C	-0.356729	-0.949009	-0.464824
C40	C	0.143271	-0.449009	0.035176
C41	C	-0.356733	-0.839777	-0.464848
C42	C	0.143267	-0.339777	0.035152
C43	C	-0.549141	-1.393778	-0.464825
C44	C	-0.049141	-0.893778	0.035175
C45	C	-0.631455	-1.393811	-0.464845
C46	C	-0.131455	-0.893811	0.035155
C47	C	-0.930546	-1.394023	-0.464897
C48	C	-0.430546	-0.894023	0.035103
C49	C	-0.899228	-1.319670	-0.539615
C50	C	-0.399228	-0.819670	-0.039615
C51	C	-0.813610	-1.319317	-0.539381
C52	C	-0.313610	-0.819317	-0.039381
C53	C	-0.782163	-1.393918	-0.464872
C54	C	-0.282163	-0.893918	0.035128
C55	C	-0.813319	-1.366392	-0.363211
C56	C	-0.313319	-0.866392	0.136789
C57	C	-0.898965	-1.365913	-0.363658
C58	C	-0.398965	-0.865913	0.136342
C59	C	-0.898889	-1.496064	-0.490947
C60	C	-0.398889	-0.996064	0.009053
C61	C	-0.813237	-1.495464	-0.493176
C62	C	-0.313237	-0.995464	0.006824
C63	C	-0.698304	-1.393860	-0.464852
C64	C	-0.198304	-0.893860	0.035148
C65	C	-1.014405	-1.394078	-0.464911
C66	C	-0.514405	-0.894078	0.035089
C67	C	-0.163568	-1.394063	-0.464903
C68	C	0.336432	-0.894063	0.035097
C69	C	-0.081254	-1.394130	-0.464924
C70	C	0.418746	-0.894130	0.035076
C71	C	-0.356665	-1.393976	-0.716447
C72	C	0.143335	-0.893976	-0.216447
C73	C	-0.356637	-1.394005	-0.823661
C74	C	0.143363	-0.894005	-0.323661
C75	C	-0.356742	-0.645500	-0.464888
C76	C	0.143258	-0.145500	0.035112
C77	C	-0.356740	-0.752714	-0.464873
C78	C	0.143260	-0.252714	0.035127
C79	C	-0.356587	-1.394031	-1.019956
C80	C	0.143413	-0.894031	-0.519956
C81	C	-0.356617	-1.394014	-0.910723
C82	C	0.143383	-0.894014	-0.410723
C83	C	-0.356742	-1.393895	-0.214239
C84	C	0.143258	-0.893895	0.285761
C85	C	-0.356561	-1.394053	-0.107026
C86	C	0.143439	-0.894053	0.392974
H87	H	-0.919772	-1.336722	-0.615239
H88	H	-0.419772	-0.836722	-0.115239
H89	H	-0.919685	-1.417719	-0.306089
H90	H	-0.419685	-0.917719	0.193911
C91	C	-0.927463	-1.529587	-0.588164
C92	C	-0.427463	-1.029587	-0.088164
C93	C	-0.867762	-1.544733	-0.650463
C94	C	-0.367762	-1.044733	-0.150463
C95	C	-0.894056	-1.575616	-0.740026
C96	C	-0.394056	-1.075616	-0.240026
H97	H	-0.959179	-1.481888	-0.614427
H98	H	-0.459179	-0.981888	-0.114427
H99	H	-0.954072	-1.587978	-0.580396
H100	H	-0.454072	-1.087978	-0.080396
H101	H	-0.841164	-1.486350	-0.658233
H102	H	-0.341164	-0.986350	-0.158233
H103	H	-0.836039	-1.592438	-0.624231
H104	H	-0.336039	-1.092438	-0.124231
H105	H	-0.920665	-1.634007	-0.732258
H106	H	-0.420665	-1.134007	-0.232258
H107	H	-0.925772	-1.527913	-0.766279
H108	H	-0.425772	-1.027913	-0.266279
H109	H	-0.853553	-1.585905	-0.782303
H110	H	-0.353553	-1.085905	-0.282303
C111	C	-0.925931	-1.570065	-0.418550
C112	C	-0.425931	-1.070065	0.081450
C113	C	-0.966424	-1.641284	-0.466427
C114	C	-0.466424	-1.141284	0.033573
C115	C	-0.991343	-1.709468	-0.399767
C116	C	-0.491343	-1.209468	0.100233
H117	H	-0.956535	-1.539462	-0.372174
H118	H	-0.456535	-1.039462	0.127826
H119	H	-0.884754	-1.598625	-0.387240
H120	H	-0.384754	-1.098625	0.112760
H121	H	-1.007595	-1.612727	-0.497721
H122	H	-0.507595	-1.112727	0.002279
H123	H	-0.935835	-1.671912	-0.512798
H124	H	-0.435835	-1.171912	-0.012798
H125	H	-0.950166	-1.738028	-0.368457
H126	H	-0.450166	-1.238028	0.131543
H127	H	-1.021944	-1.678856	-0.353395
H128	H	-0.521944	-1.178856	0.146605
H129	H	-1.018814	-1.757803	-0.432243
H130	H	-0.518814	-1.257803	0.067757
H131	H	-0.792542	-1.336539	-0.614761
H132	H	-0.292542	-0.836539	-0.114761
H133	H	-0.792952	-1.418843	-0.306023
H134	H	-0.292952	-0.918843	0.193977
H135	H	-0.791936	-1.292590	-0.340750
H136	H	-0.291936	-0.792590	0.159250
H137	H	-0.791827	-1.553792	-0.442723
H138	H	-0.291827	-1.053792	0.057277
C139	C	-0.928152	-1.219506	-0.516874
C140	C	-0.428152	-0.719506	-0.016874
C141	C	-1.005414	-1.219637	-0.521598
C142	C	-0.505414	-0.719637	-0.021598
C143	C	-1.032087	-1.127388	-0.500638
C144	C	-0.532087	-0.627388	-0.000638
H145	H	-0.909050	-1.174937	-0.562310
H146	H	-0.409050	-0.674937	-0.062310
H147	H	-0.912946	-1.201416	-0.453999
H148	H	-0.412946	-0.701416	0.046001
H149	H	-1.020613	-1.237714	-0.584463
H150	H	-0.520613	-0.737714	-0.084463
H151	H	-1.024535	-1.264186	-0.476162
H152	H	-0.524535	-0.764186	0.023838
H153	H	-1.016881	-1.109298	-0.437764
H154	H	-0.516881	-0.609298	0.062236
H155	H	-1.012980	-1.082826	-0.546077
H156	H	-0.512980	-0.582826	-0.046077
H157	H	-1.084511	-1.127466	-0.503832
H158	H	-0.584511	-0.627466	-0.003832
C159	C	-0.786331	-1.218443	-0.516563
C160	C	-0.286331	-0.718443	-0.016563
C161	C	-0.743414	-1.184524	-0.593211
C162	C	-0.243414	-0.684524	-0.093211
C163	C	-0.718282	-1.091593	-0.572226
C164	C	-0.218282	-0.591593	-0.072226
H165	H	-0.757285	-1.219899	-0.459677
H166	H	-0.257285	-0.719899	0.040323
H167	H	-0.827447	-1.176949	-0.507237
H168	H	-0.327447	-0.676949	-0.007237
H169	H	-0.702304	-1.226006	-0.602525
H170	H	-0.202304	-0.726006	-0.102525
H171	H	-0.772444	-1.183044	-0.650105
H172	H	-0.272444	-0.683044	-0.150105
H173	H	-0.759398	-1.050100	-0.562901
H174	H	-0.259398	-0.550100	-0.062901
H175	H	-0.689239	-1.093059	-0.515339
H176	H	-0.189239	-0.593059	-0.015339
H177	H	-0.689166	-1.068564	-0.624231
H178	H	-0.189166	-0.568564	-0.124231
C179	C	-0.925551	-1.266379	-0.334271
C180	C	-0.425551	-0.766379	0.165729
C181	C	-0.864500	-1.207242	-0.316274
C182	C	-0.364500	-0.707242	0.183726
C183	C	-0.888959	-1.115539	-0.289215
C184	C	-0.388959	-0.615539	0.210785
H185	H	-0.954787	-1.271183	-0.277699
H186	H	-0.454787	-0.771183	0.222301
H187	H	-0.954311	-1.239475	-0.384710
H188	H	-0.454311	-0.739475	0.115290
H189	H	-0.835752	-1.234139	-0.265839
H190	H	-0.335752	-0.734139	0.234161
H191	H	-0.835258	-1.202409	-0.372833
H192	H	-0.335258	-0.702409	0.127167
H193	H	-0.917719	-1.088635	-0.339654
H194	H	-0.417719	-0.588635	0.160346
H195	H	-0.918195	-1.120353	-0.232645
H196	H	-0.418195	-0.620353	0.267355
H197	H	-0.847540	-1.075400	-0.277009
H198	H	-0.347540	-0.575400	0.222991
H199	H	-0.792871	-1.516222	-0.567993
H200	H	-0.292871	-1.016222	-0.067993
