data_functionalizedCrystal
_audit_creation_method	'MofGen! by Chris Wilmer'
_symmetry_space_group_name_H-M	'P1'
_symmetry_Int_Tables_number	1
_symmetry_cell_setting	triclinic
loop_
_symmetry_equiv_pos_as_xyz
  x,y,z
_cell_length_a	10.489746
_cell_length_b	14.853567
_cell_length_c	13.330367
_cell_angle_alpha	90.000844
_cell_angle_beta	89.995373
_cell_angle_gamma	95.911884
loop_
_atom_site_label
_atom_site_type_symbol
_atom_site_fract_x
_atom_site_fract_y
_atom_site_fract_z
O1	O	1.692628	-0.127217	-0.083347
O2	O	1.321299	-0.139151	-0.083363
O3	O	1.516882	-0.002010	-0.083357
O4	O	1.497044	-0.264358	-0.083352
O5	O	1.516854	-0.002007	0.083490
O6	O	1.321270	-0.139148	0.083484
O7	O	1.692599	-0.127214	0.083500
Cu8	Cu	1.506932	-0.133180	0.098727
Cu9	Cu	1.506966	-0.133184	-0.098589
O10	O	1.497016	-0.264355	0.083495
C11	C	1.273763	-0.138247	0.000059
C12	C	1.132164	-0.135548	0.000052
C13	C	0.980304	-0.046691	0.000065
C14	C	1.057185	-0.091114	0.082327
C15	C	1.057168	-0.091138	-0.082171
C16	C	0.956750	-0.175206	0.082407
C17	C	0.956728	-0.175217	-0.082165
C18	C	1.033559	-0.219703	0.000117
C19	C	1.515969	0.031585	0.000063
C20	C	1.513275	0.131684	0.000054
C21	C	1.740135	-0.128118	0.000077
C22	C	1.881734	-0.130817	0.000077
C23	C	1.497929	-0.297950	0.000072
C24	C	1.500623	-0.398049	0.000074
N25	N	1.506918	-0.133177	0.237508
C26	C	1.385709	0.544935	0.000068
C27	C	1.618066	0.564910	0.000078
C28	C	1.620599	0.470862	0.000072
C29	C	1.505684	0.413846	0.000066
C30	C	1.388238	0.450878	0.000065
C31	C	1.738043	0.433823	0.000083
C32	C	1.740581	0.339770	0.000078
C33	C	1.625665	0.282752	0.000065
C34	C	1.508214	0.319789	0.000063
C35	C	1.393300	0.262773	0.000057
C36	C	1.275847	0.299809	0.000048
C37	C	1.273322	0.393860	0.000052
C38	C	1.628189	0.188700	0.000061
C39	C	1.395829	0.168716	0.000054
N40	N	1.506990	-0.133180	-0.237371
C41	C	1.420358	-0.193886	0.710129
C42	C	1.593608	-0.072475	0.710102
C43	C	1.593594	-0.072473	0.605083
C44	C	1.506961	-0.133178	0.552583
C45	C	1.420343	-0.193887	0.605101
C46	C	1.680219	-0.011771	0.552557
C47	C	1.680209	-0.011767	0.447533
C48	C	1.593569	-0.072469	0.395030
C49	C	1.506947	-0.133179	0.447555
C50	C	1.420314	-0.193885	0.395054
C51	C	1.333685	-0.254592	0.447577
C52	C	1.333704	-0.254589	0.552599
C53	C	1.593550	-0.072471	0.290009
C54	C	1.420300	-0.193886	0.290026
H55	H	1.057214	-0.292909	0.000164
F56	F	0.899649	-0.221592	0.173416
F57	F	1.241494	-0.319203	0.391691
F58	F	1.241516	-0.319195	0.608500
F59	F	0.899361	-0.221598	-0.173072
H60	H	1.664089	-0.023049	0.247250
F61	F	1.772423	0.052828	0.608432
H62	H	1.664148	-0.023055	0.752851
F63	F	1.772403	0.052843	0.391642
H64	H	1.349822	-0.243311	0.752895
H65	H	0.956404	0.026461	0.000146
F66	F	1.114490	-0.044701	-0.173075
H67	H	1.302250	0.122299	0.000044
F68	F	1.114516	-0.044695	0.173232
H69	H	1.349748	-0.243317	0.247287
H70	H	1.182284	0.253374	0.000050
H71	H	1.177698	0.424023	0.000046
F72	F	1.740358	0.625592	0.000099
F73	F	1.260713	0.584351	0.000050
H74	H	1.831600	0.480252	0.000097
H75	H	1.836217	0.309624	0.000084
H76	H	1.723818	0.158550	0.000075
