data_functionalizedCrystal
_audit_creation_method	'MofGen! by Chris Wilmer'
_symmetry_space_group_name_H-M	'P1'
_symmetry_Int_Tables_number	1
_symmetry_cell_setting	triclinic
loop_
_symmetry_equiv_pos_as_xyz
  x,y,z
_cell_length_a	14.446369
_cell_length_b	21.606444
_cell_length_c	21.606444
_cell_angle_alpha	90.000308
_cell_angle_beta	60.002139
_cell_angle_gamma	59.999661
loop_
_atom_site_label
_atom_site_type_symbol
_atom_site_fract_x
_atom_site_fract_y
_atom_site_fract_z
Zr1	Zr	1.013275	-0.081272	0.596227
O2	O	1.206381	-0.180097	0.497406
O3	O	0.820160	-0.050973	0.626521
O4	O	1.013270	-0.180096	0.626522
O5	O	1.013277	0.050876	0.497405
O6	O	1.013277	-0.180099	0.728372
O7	O	1.013270	-0.050974	0.497405
O8	O	0.667837	0.050878	0.728369
O9	O	1.358717	-0.180102	0.497407
O10	O	0.899599	-0.038058	0.715451
O11	O	0.899599	0.037954	0.639441
O12	O	1.126962	-0.114072	0.639443
O13	O	1.126962	-0.038060	0.563433
Zr14	Zr	1.013296	0.081161	0.758666
Zr15	Zr	1.013285	-0.081278	0.758666
Zr16	Zr	1.013285	0.081167	0.596227
Zr17	Zr	1.256233	-0.081279	0.596229
Zr18	Zr	0.770338	0.081168	0.758664
O19	O	1.206411	0.050861	0.728372
O20	O	1.206396	-0.180105	0.728373
O21	O	1.206396	0.050870	0.497406
O22	O	0.820189	0.179986	0.857487
O23	O	0.820174	-0.050981	0.857487
O24	O	0.820174	0.179994	0.626520
O25	O	1.013294	-0.050987	0.857488
O26	O	1.013300	0.179984	0.728371
O27	O	1.013294	0.179988	0.626521
O28	O	1.013300	0.050863	0.857488
O29	O	1.358725	-0.180106	0.626524
O30	O	0.667845	0.179995	0.728369
O31	O	0.667854	0.179990	0.857486
O32	O	0.667845	0.050873	0.857486
O33	O	1.358725	-0.050985	0.497407
O34	O	1.358734	-0.050989	0.626524
O35	O	0.899609	0.113960	0.715450
O36	O	0.899609	0.037948	0.791460
O37	O	1.126972	-0.038065	0.715452
O38	O	1.126972	0.037947	0.639442
C39	C	0.709382	-0.000046	0.677445
C40	C	0.606240	-0.000043	0.677444
C41	C	1.013272	-0.000048	0.474261
C42	C	1.013268	-0.000046	0.405301
C43	C	1.013298	0.203130	0.677446
C44	C	1.013303	0.272090	0.677446
C45	C	0.459230	0.048117	0.629735
C46	C	0.566850	0.047923	0.629475
C47	C	0.655228	-0.082640	0.642473
C48	C	0.547996	-0.082389	0.642115
C49	C	0.372789	0.033682	0.760158
C50	C	0.478940	0.035367	0.760037
C51	C	1.317189	-0.000065	0.677448
C52	C	1.420331	-0.000068	0.677449
C53	C	1.013272	-0.203242	0.677447
C54	C	1.013268	-0.272201	0.677447
C55	C	1.131983	0.264811	0.637772
C56	C	1.131979	0.329608	0.637769
C57	C	1.013294	0.401684	0.677444
C58	C	0.894605	0.408961	0.717119
C59	C	0.894610	0.344165	0.717118
C60	C	0.894582	0.670279	0.717125
C61	C	0.894586	0.735077	0.717126
C62	C	1.131952	0.655723	0.637776
C63	C	1.131957	0.590926	0.637775
C64	C	1.013268	0.598209	0.677446
C65	C	1.013273	0.527948	0.677448
C66	C	1.013287	0.471944	0.677447
C67	C	0.894587	0.039630	0.412577
C68	C	0.894591	0.039631	0.347780
C69	C	1.013276	-0.000049	0.275707
C70	C	1.131966	-0.039726	0.268433
C71	C	1.131961	-0.039722	0.333229
C72	C	1.131989	-0.039743	0.007115
C73	C	1.131984	-0.039746	-0.057684
C74	C	0.894619	0.039609	0.021665
C75	C	0.894614	0.039614	0.086462
C76	C	1.013302	-0.000060	0.079182
C77	C	1.013297	-0.000059	0.149443
C78	C	1.013283	-0.000055	0.205447
C79	C	1.013298	-0.000063	0.880632
C80	C	1.013303	-0.000065	0.949592
C81	C	0.709395	-0.000054	0.880631
C82	C	0.606257	-0.000053	0.949589
C83	C	0.709395	0.203140	0.677444
C84	C	0.606257	0.272102	0.677444
C85	C	0.709408	0.203132	0.880630
C86	C	0.606275	0.272092	0.949589
C87	C	1.317162	-0.203243	0.474263
C88	C	1.420296	-0.272204	0.405304
C89	C	1.317176	-0.000058	0.474262
C90	C	1.420313	-0.000058	0.405304
C91	C	1.317176	-0.203251	0.677449
C92	C	1.420313	-0.272213	0.677449
C93	C	0.557818	-0.039734	0.942297
C94	C	0.460922	-0.039749	1.007085
C95	C	0.412462	-0.000077	1.079164
C96	C	0.460911	0.039605	1.086455
C97	C	0.557811	0.039615	1.021668
C98	C	0.557828	0.344169	0.717119
C99	C	0.460933	0.408973	0.717116
C100	C	0.412462	0.401708	0.677441
C101	C	0.460901	0.329634	0.637760
C102	C	0.557801	0.264831	0.637760
C103	C	0.557843	0.264799	1.021656
C104	C	0.460951	0.329588	1.086456
C105	C	0.412488	0.401670	1.079188
C106	C	0.460930	0.408961	1.007114
C107	C	0.557826	0.344173	0.942315
C108	C	1.468740	-0.264910	0.333237
C109	C	1.565661	-0.329700	0.268437
C110	C	1.614130	-0.401781	0.275705
C111	C	1.565681	-0.409073	0.347779
C112	C	1.468769	-0.344284	0.412578
C113	C	1.468763	0.039616	0.412596
C114	C	1.565685	0.039613	0.347808
C115	C	1.614149	-0.000061	0.275729
C116	C	1.565695	-0.039740	0.268438
C117	C	1.468781	-0.039741	0.333225
C118	C	1.468753	-0.264924	0.717132
C119	C	1.565649	-0.329716	0.717148
C120	C	1.614110	-0.401796	0.677475
C121	C	1.565660	-0.409083	0.637791
C122	C	1.468759	-0.344292	0.637781
H123	H	0.530145	0.108744	0.652933
Cl124	Cl	1.626572	0.089503	0.356991
H125	H	1.228631	0.206127	0.605467
H126	H	1.429311	-0.206239	0.749438
Cl127	Cl	0.400067	0.320404	1.177054
Cl128	Cl	0.290672	0.483112	1.160657
Cl129	Cl	0.290640	-0.000095	1.160605
H130	H	0.494987	0.024915	0.569086
H131	H	1.429326	-0.350232	0.471256
Cl132	Cl	0.618725	-0.089617	0.851691
Cl133	Cl	0.699746	-0.140481	0.693522
H134	H	1.429282	-0.206224	0.327305
Cl135	Cl	0.322042	0.142263	0.665771
Cl136	Cl	1.626542	-0.320515	0.177839
H137	H	0.421422	0.323730	0.605457
Cl138	Cl	0.400054	0.499572	0.767007
H139	H	1.605157	-0.467769	0.353688
H140	H	1.693042	-0.454530	0.222936
H141	H	0.797977	0.071915	0.027587
Cl142	Cl	1.281185	0.320452	0.587862
Cl143	Cl	1.281167	0.500318	0.587897
H144	H	0.421440	0.071904	1.145151
H145	H	1.693013	-0.454546	0.677490
Cl146	Cl	0.618686	0.089511	1.030849
Cl147	Cl	0.618664	0.174235	0.587881
Cl148	Cl	1.626544	-0.320537	0.767035
Cl149	Cl	0.797733	-0.124642	0.549403
Cl150	Cl	0.290641	0.483183	0.677450
H151	H	1.429336	-0.072046	0.327277
Cl152	Cl	1.735982	-0.000051	0.194288
Cl153	Cl	0.399988	0.499584	0.997989
H154	H	0.346815	-0.001247	0.795876
H155	H	0.597287	0.206113	1.027588
H156	H	0.588688	-0.109408	0.581252
Cl157	Cl	0.618693	0.353355	0.851719
H158	H	0.797940	0.071945	0.471259
Cl159	Cl	1.407863	0.089494	0.503202
Cl160	Cl	1.626630	-0.089609	0.177818
H161	H	1.605132	-0.467779	0.605491
H162	H	0.797950	0.071940	0.353711
H163	H	1.429330	-0.350238	0.605463
Cl164	Cl	0.618739	0.353322	0.767005
H165	H	0.655646	0.024525	0.568467
H166	H	0.526027	-0.120241	0.674623
H167	H	0.279049	0.093567	0.789376
Cl168	Cl	0.745370	0.825690	0.767005
Cl169	Cl	0.512132	-0.013183	0.819552
Cl170	Cl	0.417803	0.129315	0.800377
H171	H	0.421487	-0.072063	1.001134
Cl172	Cl	1.281163	0.646570	0.587899
H173	H	0.797938	0.676219	0.749431
H174	H	0.797968	0.350096	0.749423
Cl175	Cl	0.745399	0.499571	0.766993
H176	H	0.797968	0.071922	0.145144
H177	H	1.228638	-0.072059	-0.116370
H178	H	1.228632	-0.072061	0.001177
H179	H	1.228602	-0.072030	0.209745
H180	H	1.228603	-0.072020	0.327300
