data_functionalizedCrystal
_audit_creation_method	'MofGen! by Chris Wilmer'
_symmetry_space_group_name_H-M	'P1'
_symmetry_Int_Tables_number	1
_symmetry_cell_setting	triclinic
loop_
_symmetry_equiv_pos_as_xyz
  x,y,z
_cell_length_a	10.908937
_cell_length_b	19.188924
_cell_length_c	9.482900
_cell_angle_alpha	99.300357
_cell_angle_beta	83.036371
_cell_angle_gamma	71.613960
loop_
_atom_site_label
_atom_site_type_symbol
_atom_site_fract_x
_atom_site_fract_y
_atom_site_fract_z
O1	O	1.724545	-0.121167	-0.120927
O2	O	1.350375	-0.066610	-0.120925
O3	O	1.548259	-0.196779	-0.120909
O4	O	1.526660	0.009002	-0.120943
O5	O	1.508064	-0.170251	0.120880
O6	O	1.310179	-0.040083	0.120864
O7	O	1.684349	-0.094639	0.120862
Cu8	Cu	1.493594	-0.064939	0.142940
Cu9	Cu	1.541130	-0.096311	-0.143004
O10	O	1.486465	0.035529	0.120846
C11	C	1.282407	-0.048248	-0.000030
C12	C	1.139769	-0.033064	-0.000029
C13	C	0.943656	-0.072783	-0.000048
C14	C	1.091076	-0.088475	-0.000028
C15	C	1.527463	-0.209446	-0.000013
C16	C	1.525367	-0.286711	-0.000009
C17	C	1.546299	-0.337458	-0.131809
C18	C	1.544314	-0.410054	-0.131820
C19	C	1.521420	-0.431905	-0.000024
C20	C	1.500478	-0.381146	0.131793
C21	C	1.502451	-0.308549	0.131800
N22	N	1.575135	-0.548820	0.098068
N23	N	1.573265	-0.617785	0.098053
C24	C	1.515471	-0.650634	-0.000038
N25	N	1.459637	-0.611918	-0.098134
N26	N	1.461514	-0.542947	-0.098122
C27	C	1.519277	-0.510622	-0.000017
C28	C	1.534250	-0.780100	-0.131859
C29	C	1.532255	-0.852695	-0.131864
C30	C	1.488432	-0.823787	0.131753
C31	C	1.490414	-0.751191	0.131755
C32	C	1.513330	-0.729353	-0.000055
C33	C	1.752318	-0.113002	-0.000036
C34	C	1.894957	-0.128187	-0.000047
C35	C	1.507262	0.048196	-0.000053
C36	C	1.509360	0.125460	-0.000067
N37	N	1.460170	-0.042875	0.344058
N38	N	1.574565	-0.118381	-0.344121
C39	C	1.531262	-0.089806	0.416263
C40	C	1.503462	-0.071444	0.583678
H41	H	0.962405	-0.187238	-0.000040
H42	H	1.612705	-0.143581	0.354141
H43	H	1.469782	-0.841575	0.239064
H44	H	1.422005	-0.017669	0.645796
H45	H	1.158520	-0.147531	-0.000021
H46	H	1.072329	0.025990	-0.000048
O47	O	1.570982	-0.313895	-0.273968
H48	H	1.585186	-0.361381	-0.365619
O49	O	1.682454	-0.189620	0.573618
H50	H	1.687364	-0.192864	0.455033
H51	H	1.552902	-0.762317	-0.239186
H52	H	1.561352	-0.451379	-0.239150
H53	H	1.481834	-0.398940	0.239102
O54	O	1.554826	-0.907430	-0.274033
H55	H	1.549586	-0.961578	-0.251898
O56	O	1.479889	-0.253816	0.273969
H57	H	1.392178	-0.203658	0.280288
O58	O	1.352291	0.028364	0.426318
H59	H	1.278371	0.013890	0.495699
O60	O	0.854330	0.005442	-0.000054
H61	H	0.752555	0.005493	-0.000051
O62	O	1.467869	-0.696455	0.273910
H63	H	1.451632	-0.723845	0.365558
