data_functionalizedCrystal
_audit_creation_method	'MofGen! by Chris Wilmer'
_symmetry_space_group_name_H-M	'P1'
_symmetry_Int_Tables_number	1
_symmetry_cell_setting	triclinic
loop_
_symmetry_equiv_pos_as_xyz
  x,y,z
_cell_length_a	27.731993
_cell_length_b	27.732064
_cell_length_c	17.666332
_cell_angle_alpha	89.997589
_cell_angle_beta	90.002180
_cell_angle_gamma	82.634907
loop_
_atom_site_label
_atom_site_type_symbol
_atom_site_fract_x
_atom_site_fract_y
_atom_site_fract_z
O1	O	0.640951	0.057392	-0.062739
O2	O	0.500154	0.066165	-0.062784
O3	O	0.574921	-0.008619	-0.062763
O4	O	0.566184	0.132175	-0.062760
O5	O	0.574908	-0.008623	0.063134
O6	O	0.500141	0.066161	0.063113
O7	O	0.640938	0.057388	0.063158
Cu8	Cu	0.570539	0.061774	0.074631
Cu9	Cu	0.570554	0.061779	-0.074256
O10	O	0.566171	0.132171	0.063137
C11	C	0.482141	0.065983	0.000159
C12	C	0.428484	0.065441	0.000141
C13	C	0.045331	0.061512	-0.068448
C14	C	0.246988	0.063579	-0.068469
O15	O	0.273068	0.063829	-0.126834
N16	N	0.272202	0.063836	0.000156
C17	C	0.246998	0.063572	0.068791
O18	O	0.273071	0.063833	0.127160
C19	C	0.045342	0.061502	0.068810
C20	C	0.020130	0.061250	0.000181
C21	C	0.020120	0.061260	-0.137072
C22	C	-0.030292	0.060746	-0.137066
C23	C	-0.055493	0.060484	-0.068437
C24	C	-0.030281	0.060736	0.000187
C25	C	0.020139	0.061235	0.137444
C26	C	-0.030278	0.060716	0.137443
C27	C	-0.055489	0.060464	0.068814
C28	C	-0.105894	0.059960	0.068822
N29	N	-0.131107	0.059703	0.000197
C30	C	-0.105906	0.059965	-0.068432
C31	C	0.352870	0.064660	0.068775
C32	C	0.403284	0.065179	0.068771
C33	C	0.403271	0.065185	-0.068489
C34	C	0.352856	0.064670	-0.068484
C35	C	0.327657	0.064404	0.000151
C36	C	-0.211775	0.058886	-0.068415
C37	C	-0.262191	0.058374	-0.068403
C38	C	-0.262174	0.058366	0.068857
C39	C	-0.211762	0.058880	0.068845
C40	C	-0.186563	0.059139	0.000203
O41	O	-0.132003	0.059705	0.127157
O42	O	-0.131987	0.059694	-0.126793
C43	C	0.095743	0.062026	-0.068454
C44	C	0.120954	0.062278	0.000169
C45	C	0.095753	0.062016	0.068799
C46	C	0.171368	0.062797	0.000165
C47	C	0.196568	0.063059	-0.068465
C48	C	0.171355	0.062802	-0.137090
C49	C	0.120943	0.062288	-0.137084
C50	C	0.120967	0.062273	0.137424
C51	C	0.171378	0.062787	0.137412
C52	C	0.196579	0.063049	0.068783
C53	C	0.574730	-0.026627	0.000183
C54	C	0.574174	-0.080282	0.000176
C55	C	0.526206	-0.457345	0.000158
C56	C	0.528252	-0.255685	0.000157
O57	O	0.491030	-0.224425	0.000115
N58	N	0.572588	-0.236566	0.000172
C59	C	0.616415	-0.267866	0.000181
O60	O	0.654172	-0.246977	0.000185
C61	C	0.614368	-0.469525	0.000176
C62	C	0.570030	-0.488641	0.000169
C63	C	0.481871	-0.476461	0.000150
C64	C	0.481360	-0.526873	0.000155
C65	C	0.525184	-0.558169	0.000166
C66	C	0.569518	-0.539053	0.000173
C67	C	0.658194	-0.500824	0.000180
C68	C	0.657679	-0.551241	0.000176
C69	C	0.613340	-0.570357	0.000170
C70	C	0.612831	-0.620761	0.000189
N71	N	0.568496	-0.639879	0.000175
C72	C	0.524672	-0.608584	0.000163
C73	C	0.617486	-0.161992	0.000185
C74	C	0.617998	-0.111577	0.000188
C75	C	0.529835	-0.099400	0.000163
C76	C	0.529324	-0.149815	0.000166
C77	C	0.573151	-0.181111	0.000171
C78	C	0.523602	-0.714453	0.000173
C79	C	0.523095	-0.764870	0.000180
C80	C	0.611257	-0.777043	0.000201
C81	C	0.611765	-0.726630	0.000198
C82	C	0.567933	-0.695336	0.000181
O83	O	0.650033	-0.652049	0.000223
O84	O	0.486920	-0.629482	0.000142
C85	C	0.526717	-0.406933	0.000153
C86	C	0.571052	-0.387817	0.000161
C87	C	0.614875	-0.419112	0.000172
C88	C	0.571564	-0.337402	0.000163
C89	C	0.527740	-0.306107	0.000152
C90	C	0.483404	-0.325225	0.000138
C91	C	0.482893	-0.375637	0.000142
C92	C	0.659211	-0.399994	0.000186
C93	C	0.659718	-0.349581	0.000183
C94	C	0.615895	-0.318285	0.000172
C95	C	0.658952	0.057570	0.000214
C96	C	0.712608	0.058112	0.000227
C97	C	0.566362	0.150180	0.000190
C98	C	0.566918	0.203834	0.000192
N99	N	0.570531	0.061770	0.179350
N100	N	0.570565	0.061778	-0.178976
C101	C	0.603649	0.028672	0.218969
C102	C	0.603652	0.028670	0.298217
C103	C	0.570542	0.061774	0.337843
C104	C	0.537418	0.094875	0.298214
C105	C	0.537413	0.094873	0.218968
N106	N	0.564071	0.104594	0.462261
N107	N	0.564079	0.104594	0.537541
C108	C	0.570554	0.061781	0.576607
N109	N	0.577031	0.018966	0.537547
N110	N	0.577026	0.018966	0.462260
C111	C	0.570543	0.061780	0.423772
C112	C	0.603677	0.028677	0.702155
C113	C	0.603676	0.028674	0.781404
C114	C	0.537445	0.094883	0.781399
C115	C	0.537443	0.094882	0.702152
C116	C	0.570561	0.061780	0.662534
H117	H	-0.050814	0.060539	-0.192951
H118	H	0.446789	-0.391196	0.000137
H119	H	0.694299	-0.485269	0.000184
H120	H	0.693369	-0.576720	0.000177
H121	H	0.630615	0.001717	0.186715
H122	H	0.486988	-0.780431	0.000179
H123	H	0.630621	0.001717	0.330481
H124	H	0.510459	0.121828	0.330481
H125	H	-0.191264	0.059097	-0.124309
H126	H	0.487910	-0.688978	0.000159
H127	H	0.446183	-0.450985	0.000138
H128	H	0.445255	-0.542432	0.000143
H129	H	-0.282701	0.058154	0.124733
H130	H	0.100454	0.062057	0.193311
H131	H	0.423805	0.065391	0.124656
H132	H	0.510484	0.121835	0.813662
H133	H	0.040633	0.061472	-0.192962
H134	H	0.493220	-0.165376	0.000163
H135	H	0.332332	0.064465	-0.124368
H136	H	0.494152	-0.073910	0.000157
H137	H	0.694898	-0.425470	0.000195
H138	H	0.510444	0.121826	0.186709
H139	H	0.654103	-0.096018	0.000205
H140	H	-0.050793	0.060503	0.193335
H141	H	0.630642	0.001722	0.669897
H142	H	0.630643	0.001719	0.813662
H143	H	0.647868	-0.711066	0.000214
H144	H	0.510478	0.121836	0.669892
H145	H	0.653177	-0.187469	0.000190
H146	H	0.447722	-0.299735	0.000133
H147	H	-0.282716	0.058171	-0.124291
H148	H	0.332358	0.064442	0.124669
H149	H	0.423798	0.065399	-0.124370
H150	H	0.040658	0.061438	0.193330
H151	H	-0.191235	0.059095	0.124729
H152	H	0.646937	-0.802533	0.000214
H153	H	0.100421	0.062083	-0.192969
H154	H	0.191900	0.062996	0.193303
H155	H	0.191881	0.063018	-0.192970
H156	H	0.695827	-0.334022	0.000194
