data_functionalizedCrystal
_audit_creation_method	'MofGen! by Chris Wilmer'
_symmetry_space_group_name_H-M	'P1'
_symmetry_Int_Tables_number	1
_symmetry_cell_setting	triclinic
loop_
_symmetry_equiv_pos_as_xyz
  x,y,z
_cell_length_a	16.120490
_cell_length_b	12.594516
_cell_length_c	16.120297
_cell_angle_alpha	92.876309
_cell_angle_beta	90.129683
_cell_angle_gamma	87.104371
loop_
_atom_site_label
_atom_site_type_symbol
_atom_site_fract_x
_atom_site_fract_y
_atom_site_fract_z
Zn1	Zn	1.247532	-0.539337	-0.534562
Zn2	Zn	1.254509	-0.708781	-0.395513
Zn3	Zn	1.115519	-0.521341	-0.388482
Zn4	Zn	1.108465	-0.707790	-0.527485
O5	O	1.181506	-0.619312	-0.461510
O6	O	1.364825	-0.569759	-0.522020
O7	O	1.241944	-0.676800	-0.278214
O8	O	1.133062	-0.374786	-0.407879
O9	O	1.369952	-0.694249	-0.419862
O10	O	1.230052	-0.388007	-0.515203
O11	O	1.139828	-0.539089	-0.273049
O12	O	0.998215	-0.538129	-0.401017
O13	O	1.121040	-0.692561	-0.644790
O14	O	0.993032	-0.675112	-0.503142
O15	O	1.223212	-0.568799	-0.649989
O16	O	1.235104	-0.857592	-0.413000
O17	O	1.127806	-0.856864	-0.509960
C18	C	0.965450	-0.604561	-0.450550
C19	C	0.873020	-0.598277	-0.445880
C20	C	0.660066	-0.651900	-0.485733
C21	C	0.703793	-0.586814	-0.437354
C22	C	0.797960	-0.593194	-0.442099
C23	C	0.565891	-0.645521	-0.480988
C24	C	1.181468	-0.895850	-0.461494
C25	C	1.181527	-1.014161	-0.461519
C26	C	1.239948	-1.083779	-0.408845
C27	C	1.256420	-1.160534	-0.485772
C28	C	1.165156	-1.148214	-0.384645
C29	C	1.198036	-1.089362	-0.538487
C30	C	1.106739	-1.077031	-0.437308
C31	C	1.123180	-1.153756	-0.514286
C32	C	1.398405	-0.634122	-0.472515
C33	C	1.490835	-0.640433	-0.477204
C34	C	1.170561	-0.632577	-0.678406
C35	C	1.165897	-0.638230	-0.770833
C36	C	1.181566	-0.341698	-0.461546
C37	C	1.181591	-0.223395	-0.461562
C38	C	1.157351	-0.648524	-0.940059
C39	C	1.205825	-0.589793	-0.983822
C40	C	1.201070	-0.595520	-1.077985
C41	C	1.162105	-0.642798	-0.845887
C42	C	1.192456	-0.606026	-0.245462
C43	C	1.197282	-0.600084	-0.153042
H44	H	0.693350	-0.712409	-0.530711
C45	C	1.097397	-0.721454	-0.984440
C46	C	1.142011	-0.795871	-1.036683
C47	C	1.086815	-0.863081	-1.077583
H48	H	1.059476	-0.680416	-1.016551
H49	H	1.067620	-0.757622	-0.944629
H50	H	1.171774	-0.759705	-1.076489
H51	H	1.179929	-0.836934	-1.004592
H52	H	1.057038	-0.899249	-1.037772
H53	H	1.048897	-0.822033	-1.109690
H54	H	1.117078	-0.913586	-1.113028
H55	H	1.151283	-1.174266	-0.319617
H56	H	1.289358	-1.053048	-0.364343
H57	H	1.319693	-1.197004	-0.506272
C58	C	0.659268	-0.506271	-0.377365
C59	C	0.573369	-0.515924	-0.384483
C60	C	0.532324	-0.441776	-0.329215
H61	H	0.672725	-0.436402	-0.390240
H62	H	0.676230	-0.519310	-0.322164
H63	H	0.556414	-0.502877	-0.439672
H64	H	0.559888	-0.585777	-0.371602
H65	H	0.549286	-0.454815	-0.274014
H66	H	0.545787	-0.371912	-0.342095
H67	H	0.474038	-0.448323	-0.334032
C68	C	1.216668	-1.054610	-0.625160
C69	C	1.216471	-0.943369	-0.624113
C70	C	1.233646	-0.911315	-0.703935
H71	H	1.175467	-1.079035	-0.662709
H72	H	1.269666	-1.083888	-0.642462
H73	H	1.163481	-0.914101	-0.606822
H74	H	1.257672	-0.918915	-0.586581
H75	H	1.286644	-0.940594	-0.721237
H76	H	1.192443	-0.935748	-0.741477
H77	H	1.233523	-0.835836	-0.703234
C78	C	1.057439	-1.194449	-0.573911
C79	C	1.075006	-1.164668	-0.654275
C80	C	1.014474	-1.202150	-0.709226
H81	H	1.004390	-1.164690	-0.557274
H82	H	1.057522	-1.269847	-0.573319
H83	H	1.074914	-1.089285	-0.654864
H84	H	1.128044	-1.194425	-0.670937
H85	H	1.014557	-1.277548	-0.708634
H86	H	0.961429	-1.172388	-0.692581
H87	H	1.026389	-1.181957	-0.763760
C88	C	1.022436	-1.028410	-0.409778
C89	C	1.005586	-1.057963	-0.329190
C90	C	0.927939	-1.013179	-0.303787
H91	H	0.980767	-1.053333	-0.446568
H92	H	1.022870	-0.953051	-0.410409
H93	H	1.005145	-1.133307	-0.328564
H94	H	1.047234	-1.033040	-0.292381
H95	H	0.928373	-0.937820	-0.304418
H96	H	0.886277	-1.038106	-0.340583
H97	H	0.916500	-1.033216	-0.249103
C98	C	1.265792	-0.516919	-0.939388
C99	C	1.221189	-0.442523	-0.887118
C100	C	1.276399	-0.375382	-0.846165
H101	H	1.295599	-0.480719	-0.979143
H102	H	1.303688	-0.558042	-0.907294
H103	H	1.183308	-0.401404	-0.919210
H104	H	1.191385	-0.478692	-0.847348
H105	H	1.314295	-0.416505	-0.814071
H106	H	1.306203	-0.339190	-0.885926
H107	H	1.246145	-0.324903	-0.810690
