data_functionalizedCrystal
_audit_creation_method	'MofGen! by Chris Wilmer'
_symmetry_space_group_name_H-M	'P1'
_symmetry_Int_Tables_number	1
_symmetry_cell_setting	triclinic
loop_
_symmetry_equiv_pos_as_xyz
  x,y,z
_cell_length_a	19.805407
_cell_length_b	15.297327
_cell_length_c	19.805399
_cell_angle_alpha	99.649417
_cell_angle_beta	89.980427
_cell_angle_gamma	99.707092
loop_
_atom_site_label
_atom_site_type_symbol
_atom_site_fract_x
_atom_site_fract_y
_atom_site_fract_z
Zn1	Zn	0.988098	-0.359189	-0.429336
Zn2	Zn	0.968423	-0.510058	-0.335728
Zn3	Zn	0.874909	-0.359214	-0.316164
Zn4	Zn	0.855293	-0.510010	-0.448869
O5	O	0.921681	-0.434618	-0.382524
O6	O	1.080203	-0.379212	-0.416932
O7	O	0.955994	-0.490079	-0.238420
O8	O	0.906367	-0.232963	-0.314814
O9	O	1.065749	-0.490055	-0.348159
O10	O	0.989526	-0.232945	-0.397962
O11	O	0.887290	-0.379254	-0.224047
O12	O	0.777592	-0.379208	-0.333754
O13	O	0.872934	-0.489973	-0.540990
O14	O	0.763180	-0.489997	-0.431252
O15	O	0.970505	-0.379166	-0.526640
O16	O	0.936973	-0.636300	-0.367099
O17	O	0.853857	-0.636265	-0.450222
C18	C	0.745827	-0.434601	-0.382500
C19	C	0.670593	-0.434615	-0.382509
C20	C	0.627751	-0.492390	-0.433217
C21	C	0.557063	-0.492392	-0.433227
C22	C	0.529217	-0.434622	-0.382525
C23	C	0.572065	-0.376841	-0.331814
C24	C	0.642752	-0.376835	-0.331808
C25	C	0.286989	-0.376861	-0.331839
C26	C	0.216295	-0.376873	-0.331848
C27	C	0.201299	-0.492417	-0.433258
C28	C	0.271987	-0.492412	-0.433252
C29	C	0.314829	-0.434627	-0.382543
C30	C	0.391477	-0.434625	-0.382534
C31	C	0.452569	-0.434628	-0.382531
C32	C	0.891170	-0.669017	-0.412918
C33	C	0.878179	-0.769294	-0.425943
C34	C	1.014807	-1.051906	-0.289663
C35	C	1.027012	-0.957691	-0.277422
C36	C	0.989805	-0.910587	-0.314551
C37	C	0.940391	-0.957708	-0.363923
C38	C	0.928180	-1.051932	-0.376162
C39	C	0.903178	-0.910613	-0.401050
C40	C	0.853764	-0.957734	-0.450423
C41	C	0.841556	-1.051949	-0.462659
C42	C	0.878763	-1.099053	-0.425530
C43	C	0.915389	-0.816389	-0.388812
C44	C	0.828762	-0.816415	-0.475311
C45	C	0.816557	-0.910630	-0.487552
C46	C	1.098221	-0.434636	-0.382549
C47	C	1.173452	-0.434644	-0.382559
C48	C	0.921726	-0.434561	-0.559060
C49	C	0.921746	-0.434537	-0.634289
C50	C	0.952329	-0.199304	-0.352027
C51	C	0.965390	-0.099027	-0.339031
C52	C	0.972552	-0.376837	-0.662161
C53	C	0.972562	-0.376810	-0.732846
C54	C	0.921768	-0.434490	-0.775658
C55	C	0.870957	-0.492193	-0.747781
C56	C	0.870944	-0.492214	-0.677096
C57	C	0.871006	-0.492109	-1.032843
C58	C	0.871024	-0.492085	-1.103533
C59	C	0.972624	-0.376705	-1.088593
C60	C	0.972612	-0.376726	-1.017909
C61	C	0.921798	-0.434426	-0.990037
C62	C	0.921787	-0.434452	-0.913392
C63	C	0.921782	-0.434469	-0.852303
C64	C	0.921683	-0.434610	-0.206667
C65	C	0.921828	-0.434380	-0.131406
H66	H	0.321862	-0.329816	-0.290545
H67	H	0.798463	-0.778063	-0.505543
H68	H	0.829658	-0.539057	-1.138389
H69	H	0.549387	-0.329800	-0.290534
C70	C	1.003245	-0.806947	-0.301096
N71	N	1.013377	-0.728882	-0.290965
H72	H	0.829566	-0.539190	-0.654403
C73	C	1.081355	-0.905865	-0.223102
N74	N	1.122286	-0.866830	-0.182182
C75	C	0.787192	-1.103779	-0.516964
N76	N	0.746245	-1.142816	-0.557868
H77	H	0.776322	-0.949009	-0.527751
C78	C	0.815077	-0.555632	-0.794875
N79	N	0.772987	-0.603416	-0.830347
H80	H	0.677635	-0.329784	-0.290519
C81	C	1.055722	-1.103726	-0.248819
N82	N	1.086539	-1.142759	-0.218052
H83	H	0.193626	-0.329824	-0.290560
H84	H	1.013916	-0.329870	-0.627308
C85	C	0.865337	-1.202696	-0.438990
N86	N	0.855225	-1.280761	-0.449125
C87	C	1.028455	-0.313337	-0.763503
N88	N	1.070555	-0.265526	-0.786592
C89	C	1.028514	-0.313223	-1.119257
N90	N	1.070608	-0.265409	-1.142351
H91	H	1.013975	-0.329761	-0.983054
C92	C	0.815108	-0.555577	-1.002194
N93	N	0.773002	-0.603383	-0.979106
H94	H	0.650417	-0.539436	-0.474502
H95	H	0.522183	-0.539439	-0.474518
H96	H	0.294654	-0.539456	-0.474536
H97	H	0.166408	-0.539464	-0.474549
H98	H	0.955622	-0.778031	-0.348612
