data_functionalizedCrystal
_audit_creation_method	'MofGen! by Chris Wilmer'
_symmetry_space_group_name_H-M	'P1'
_symmetry_Int_Tables_number	1
_symmetry_cell_setting	triclinic
loop_
_symmetry_equiv_pos_as_xyz
  x,y,z
_cell_length_a	12.645331
_cell_length_b	12.645330
_cell_length_c	15.296720
_cell_angle_alpha	80.351902
_cell_angle_beta	80.339092
_cell_angle_gamma	90.012860
loop_
_atom_site_label
_atom_site_type_symbol
_atom_site_fract_x
_atom_site_fract_y
_atom_site_fract_z
Zn1	Zn	1.516956	-0.525745	0.510091
Zn2	Zn	1.547553	-0.672361	0.359246
Zn3	Zn	1.370368	-0.495114	0.359255
Zn4	Zn	1.339677	-0.702959	0.510048
O5	O	1.443639	-0.599045	0.434660
O6	O	1.669359	-0.545208	0.490096
O7	O	1.549699	-0.623224	0.233010
O8	O	1.389853	-0.350835	0.379286
O9	O	1.691838	-0.652926	0.379270
O10	O	1.497550	-0.373339	0.490105
O11	O	1.419522	-0.493002	0.233017
O12	O	1.217953	-0.522671	0.379243
O13	O	1.337544	-0.705075	0.636290
O14	O	1.195404	-0.675374	0.490030
O15	O	1.467790	-0.574877	0.636322
O16	O	1.519938	-0.824762	0.379228
O17	O	1.367212	-0.847243	0.490021
C18	C	1.168214	-0.599020	0.434633
C19	C	1.050382	-0.599039	0.434643
C20	C	1.019627	-0.502870	0.365061
C21	C	0.897019	-0.502615	0.365299
C22	C	0.863169	-0.588611	0.529872
C23	C	0.985856	-0.587909	0.529438
C24	C	1.010214	-0.706065	0.409895
C25	C	0.888026	-0.705060	0.407831
C26	C	1.443590	-0.874470	0.434639
C27	C	1.443660	-0.992304	0.434660
C28	C	1.539637	-1.145653	0.364818
C29	C	1.539868	-1.023128	0.364989
C30	C	1.454607	-1.056022	0.529749
C31	C	1.455332	-1.178544	0.529379
C32	C	1.336512	-1.154689	0.410349
C33	C	1.337483	-1.031651	0.408216
C34	C	1.720138	-0.599070	0.434687
C35	C	1.837966	-0.599081	0.434699
C36	C	1.395830	-0.646806	0.669953
C37	C	1.375457	-0.667160	0.770221
C38	C	1.443712	-0.322548	0.434701
C39	C	1.443744	-0.204721	0.434719
C40	C	1.491322	-0.551392	0.200282
C41	C	1.511900	-0.530740	0.100014
C42	C	1.589287	-0.453391	1.052928
C43	C	1.608435	-0.434270	0.958721
C44	C	1.550192	-0.492491	0.911591
C45	C	1.472798	-0.569836	0.958678
C46	C	1.453654	-0.588965	1.052894
C47	C	1.414559	-0.628064	0.911558
C48	C	1.337165	-0.705410	0.958644
C49	C	1.318024	-0.724534	1.052851
C50	C	1.376267	-0.666314	1.099981
C51	C	1.433703	-0.608935	0.817342
C52	C	1.298070	-0.744509	0.817308
C53	C	1.278922	-0.763630	0.911515
H54	H	0.823230	-0.657368	0.583157
H55	H	0.864357	-0.422932	0.381735
N56	N	1.238970	-0.803532	1.100964
N57	N	1.221886	-0.820598	1.185080
H58	H	1.166052	-0.876389	1.219060
N59	N	1.199869	-0.842627	0.959631
N60	N	1.182788	-0.859687	1.043747
H61	H	1.126956	-0.915477	1.077731
H62	H	1.028944	-0.777474	0.460576
H63	H	1.531417	-1.029501	0.550736
N64	N	1.356731	-0.685837	1.196213
N65	N	1.430876	-0.716529	1.238268
H66	H	1.417084	-0.730313	1.306234
N67	N	1.648776	-0.393950	1.101082
N68	N	1.631676	-0.411048	1.185198
H69	H	1.673696	-0.369066	1.219210
N70	N	1.326668	-0.977401	0.320441
N71	N	1.247057	-0.921097	0.309942
H72	H	1.239421	-0.882773	0.247951
N73	N	1.238551	-0.803968	0.769178
N74	N	1.138597	-0.799056	0.779693
H75	H	1.096564	-0.841046	0.745697
N76	N	1.016416	-0.490518	0.555695
N77	N	0.976600	-0.469437	0.631077
H78	H	0.998179	-0.400653	0.649622
N79	N	0.877229	-0.507967	0.276783
N80	N	0.954087	-0.511915	0.214398
H81	H	0.940118	-0.515693	0.151879
N82	N	1.244992	-1.005274	0.467404
N83	N	1.255871	-0.956836	0.530324
H84	H	1.190550	-0.938211	0.572135
H85	H	1.047145	-0.423605	0.381280
N86	N	1.074613	-0.507877	0.276251
N87	N	1.137115	-0.582376	0.263199
H88	H	1.175956	-0.585915	0.200475
N89	N	1.534210	-1.164686	0.276106
N90	N	1.454072	-1.136664	0.240870
H91	H	1.450235	-1.150111	0.178214
H92	H	1.496718	-0.545959	0.779013
H93	H	1.671452	-0.371298	0.920390
H94	H	1.533137	-1.211254	0.550022
N95	N	1.639990	-0.990317	0.385203
N96	N	1.657567	-0.894005	0.388832
H97	H	1.728285	-0.870830	0.403104
N98	N	1.370196	-1.229512	0.596930
N99	N	1.275189	-1.204740	0.593120
H100	H	1.215065	-1.240735	0.640829
H101	H	1.322825	-1.171844	0.342217
H102	H	1.265302	-1.194049	0.461260
H103	H	1.386052	-1.037750	0.583226
N104	N	1.066330	-0.722828	0.324274
N105	N	1.045069	-0.804209	0.293271
H106	H	1.084700	-0.816039	0.232798
H107	H	1.004659	-0.655984	0.583078
H108	H	1.619043	-1.179624	0.380757
N109	N	0.819229	-0.492445	0.556580
N110	N	0.769331	-0.431480	0.505686
H111	H	0.738298	-0.363559	0.524543
N112	N	0.869335	-0.715416	0.319968
N113	N	0.819340	-0.645054	0.277245
H114	H	0.806127	-0.652368	0.215193
N115	N	0.837663	-0.797763	0.466748
N116	N	0.763729	-0.787184	0.529783
H117	H	0.728158	-0.852654	0.571401
H118	H	1.535260	-0.978788	0.294481
H119	H	1.565788	-0.476918	0.834884
