data_functionalizedCrystal
_audit_creation_method	'MofGen! by Chris Wilmer'
_symmetry_space_group_name_H-M	'P1'
_symmetry_Int_Tables_number	1
_symmetry_cell_setting	triclinic
loop_
_symmetry_equiv_pos_as_xyz
  x,y,z
_cell_length_a	21.295417
_cell_length_b	18.215407
_cell_length_c	18.215399
_cell_angle_alpha	90.017777
_cell_angle_beta	89.967848
_cell_angle_gamma	89.973873
loop_
_atom_site_label
_atom_site_type_symbol
_atom_site_fract_x
_atom_site_fract_y
_atom_site_fract_z
Zn1	Zn	-0.250689	-1.125043	-0.416054
Zn2	Zn	0.082644	-0.791710	-0.082721
Zn3	Zn	0.415977	-0.458376	0.250613
Zn4	Zn	-0.355960	-1.124939	-0.292979
Zn5	Zn	-0.022627	-0.791606	0.040355
Zn6	Zn	0.310706	-0.458273	0.373688
Zn7	Zn	-0.250701	-1.001976	-0.293006
Zn8	Zn	0.082632	-0.668642	0.040328
Zn9	Zn	0.415966	-0.335309	0.373661
Zn10	Zn	-0.355916	-1.001930	-0.416008
Zn11	Zn	-0.022583	-0.668596	-0.082675
Zn12	Zn	0.310750	-0.335263	0.250659
O13	O	-0.303317	-1.063472	-0.354512
O14	O	0.030017	-0.730139	-0.021178
O15	O	0.363350	-0.396805	0.312155
O16	O	-0.264667	-1.228014	-0.399736
O17	O	0.068666	-0.894680	-0.066402
O18	O	0.402000	-0.561347	0.266931
O19	O	-0.342021	-1.108604	-0.189998
O20	O	-0.008687	-0.775271	0.143335
O21	O	0.324646	-0.441937	0.476669
O22	O	-0.162610	-1.018364	-0.309359
O23	O	0.170723	-0.685030	0.023974
O24	O	0.504057	-0.351697	0.357308
O25	O	-0.342009	-1.227937	-0.309313
O26	O	-0.008676	-0.894604	0.024021
O27	O	0.324657	-0.561271	0.357354
O28	O	-0.162601	-1.108781	-0.399762
O29	O	0.170732	-0.775447	-0.066429
O30	O	0.504065	-0.442114	0.266905
O31	O	-0.264687	-1.018263	-0.190018
O32	O	0.068646	-0.684930	0.143316
O33	O	0.401980	-0.351596	0.476649
O34	O	-0.264645	-0.898985	-0.309314
O35	O	0.068689	-0.565652	0.024019
O36	O	0.402022	-0.232319	0.357352
O37	O	-0.341935	-1.018285	-0.518998
O38	O	-0.008601	-0.684952	-0.185665
O39	O	0.324732	-0.351618	0.147668
O40	O	-0.341946	-0.898951	-0.399684
O41	O	-0.008613	-0.565618	-0.066350
O42	O	0.324721	-0.232285	0.266983
O43	O	-0.264625	-1.108736	-0.519032
O44	O	0.068709	-0.775403	-0.185699
O45	O	0.402042	-0.442069	0.147635
O46	O	-0.444044	-1.108559	-0.309268
O47	O	-0.110711	-0.775226	0.024065
O48	O	0.222623	-0.441893	0.357399
O49	O	-0.444012	-1.018184	-0.399657
O50	O	-0.110678	-0.684851	-0.066324
O51	O	0.222655	-0.351518	0.267009
C52	C	-0.303292	-0.872266	-0.354497
C53	C	0.030041	-0.538932	-0.021164
C54	C	0.363374	-0.205599	0.312169
C55	C	-0.303297	-0.790467	-0.354509
C56	C	0.030036	-0.457133	-0.021175
C57	C	0.363370	-0.123800	0.312158
C58	C	-0.263103	-0.602312	-0.401665
C59	C	0.070231	-0.268978	-0.068332
C60	C	0.403564	0.064355	0.265002
C61	C	-0.263106	-0.525453	-0.401667
C62	C	0.070228	-0.192119	-0.068333
C63	C	0.403561	0.141214	0.265000
C64	C	-0.343521	-0.525384	-0.307364
C65	C	-0.010188	-0.192051	0.025969
C66	C	0.323145	0.141282	0.359303
C67	C	-0.343515	-0.602242	-0.307359
C68	C	-0.010181	-0.268908	0.025974
C69	C	0.323152	0.064425	0.359308
C70	C	-0.303306	-0.640703	-0.354514
C71	C	0.030027	-0.307370	-0.021180
C72	C	0.363361	0.025963	0.312153
C73	C	-0.303316	-0.486987	-0.354521
C74	C	0.030017	-0.153654	-0.021187
C75	C	0.363350	0.179679	0.312146
C76	C	-0.303320	-0.403654	-0.354522
C77	C	0.030013	-0.070320	-0.021189
C78	C	0.363347	0.263013	0.312144
C79	C	-0.303301	-0.724042	-0.354511
C80	C	0.030032	-0.390709	-0.021178
C81	C	0.363366	-0.057376	0.312156
C82	C	-0.466868	-1.063375	-0.354471
C83	C	-0.133535	-0.730042	-0.021137
C84	C	0.199798	-0.396709	0.312196
C85	C	-0.536836	-1.063402	-0.354478
C86	C	-0.203503	-0.730068	-0.021145
C87	C	0.129830	-0.396735	0.312189
C88	C	-0.569699	-1.110502	-0.307461
C89	C	-0.236366	-0.777168	0.025873
C90	C	0.096968	-0.443835	0.359206
C91	C	-0.635442	-1.110536	-0.307477
C92	C	-0.302108	-0.777203	0.025856
C93	C	0.031225	-0.443869	0.359190
C94	C	-0.668319	-1.063457	-0.354503
C95	C	-0.334986	-0.730124	-0.021170
C96	C	-0.001652	-0.396791	0.312163
C97	C	-0.635449	-1.016354	-0.401530
C98	C	-0.302115	-0.683021	-0.068197
C99	C	0.031218	-0.349687	0.265137
C100	C	-0.569707	-1.016326	-0.401517
C101	C	-0.236374	-0.682993	-0.068184
C102	C	0.096959	-0.349659	0.265149
N103	N	-0.771581	-0.999079	-0.360109
N104	N	-0.438247	-0.665745	-0.026776
N105	N	-0.104914	-0.332412	0.306558
N106	N	-0.834032	-0.999107	-0.360117
N107	N	-0.500699	-0.665774	-0.026783
N108	N	-0.167365	-0.332441	0.306550
C109	C	-0.866394	-1.063540	-0.354546
C110	C	-0.533060	-0.730206	-0.021212
C111	C	-0.199727	-0.396873	0.312121
N112	N	-0.833945	-1.127944	-0.348952
N113	N	-0.500611	-0.794611	-0.015619
N114	N	-0.167278	-0.461277	0.317715
N115	N	-0.771488	-1.127915	-0.348940
N116	N	-0.438154	-0.794581	-0.015607
N117	N	-0.104821	-0.461248	0.317726
C118	C	-0.739604	-1.063483	-0.354523
C119	C	-0.406271	-0.730149	-0.021189
C120	C	-0.072938	-0.396816	0.312144
C121	C	-0.970542	-1.110681	-0.307544
C122	C	-0.637208	-0.777348	0.025790
C123	C	-0.303875	-0.444015	0.359123
C124	C	-1.036285	-1.110717	-0.307565
C125	C	-0.702952	-0.777384	0.025768
C126	C	-0.369619	-0.444050	0.359101
C127	C	-1.036291	-1.016528	-0.401614
C128	C	-0.702958	-0.683195	-0.068281
C129	C	-0.369624	-0.349862	0.265052
C130	C	-0.970549	-1.016499	-0.401596
C131	C	-0.637215	-0.683166	-0.068263
C132	C	-0.303882	-0.349833	0.265070
C133	C	-0.937678	-1.063575	-0.354557
C134	C	-0.604345	-0.730241	-0.021224
C135	C	-0.271011	-0.396908	0.312110
C136	C	-0.139126	-1.063589	-0.354569
C137	C	0.194207	-0.730256	-0.021235
C138	C	0.527540	-0.396922	0.312098
C139	C	-0.069158	-1.063639	-0.354593
C140	C	0.264175	-0.730305	-0.021260
C141	C	0.597508	-0.396972	0.312074
C142	C	-0.303273	-1.063517	-0.546465
C143	C	0.030060	-0.730183	-0.213131
C144	C	0.363393	-0.396850	0.120202
C145	C	-0.303255	-1.063536	-0.628264
C146	C	0.030078	-0.730203	-0.294930
C147	C	0.363412	-0.396869	0.038403
C148	C	-0.303335	-0.255425	-0.354525
C149	C	0.029998	0.077908	-0.021191
C150	C	0.363332	0.411242	0.312142
C151	C	-0.303325	-0.337224	-0.354525
C152	C	0.030008	-0.003890	-0.021192
C153	C	0.363341	0.329443	0.312141
C154	C	-0.262962	-1.110651	-0.816476
C155	C	0.070371	-0.777317	-0.483143
C156	C	0.403705	-0.443984	-0.149810
C157	C	-0.262944	-1.110659	-0.893335
C158	C	0.070390	-0.777326	-0.560002
C159	C	0.403723	-0.443993	-0.226668
C160	C	-0.343450	-1.016473	-0.893289
C161	C	-0.010117	-0.683140	-0.559955
C162	C	0.323216	-0.349807	-0.226622
C163	C	-0.343465	-1.016461	-0.816431
C164	C	-0.010132	-0.683128	-0.483098
C165	C	0.323201	-0.349795	-0.149765
C166	C	-0.303222	-1.063554	-0.778027
C167	C	0.030111	-0.730221	-0.444694
C168	C	0.363445	-0.396888	-0.111360
C169	C	-0.303189	-1.063575	-0.931743
C170	C	0.030145	-0.730242	-0.598410
C171	C	0.363478	-0.396908	-0.265077
C172	C	-0.303169	-1.063584	-1.015077
C173	C	0.030164	-0.730251	-0.681744
C174	C	0.363497	-0.396917	-0.348410
C175	C	-0.303240	-1.063544	-0.694688
C176	C	0.030093	-0.730211	-0.361355
C177	C	0.363426	-0.396878	-0.028021
C178	C	-0.303315	-1.063470	-0.163305
C179	C	0.030019	-0.730136	0.170028
C180	C	0.363352	-0.396803	0.503361
C181	C	-0.303156	-1.063593	-0.081507
C182	C	0.030178	-0.730260	0.251826
C183	C	0.363511	-0.396926	0.585160
H184	H	-0.376258	-0.494060	-0.268973
H185	H	-0.042925	-0.160726	0.064360
H186	H	0.290408	0.172607	0.397693
C187	C	-0.218688	-1.162448	-0.774234
C188	C	0.114646	-0.829114	-0.440901
C189	C	0.447979	-0.495781	-0.107568
N190	N	-0.185337	-1.201460	-0.742420
N191	N	0.147997	-0.868127	-0.409087
N192	N	0.481330	-0.534794	-0.075753
C193	C	-0.387715	-0.964672	-0.935540
C194	C	-0.054381	-0.631339	-0.602207
C195	C	0.278952	-0.298006	-0.268874
N196	N	-0.421055	-0.925655	-0.967364
N197	N	-0.087722	-0.592321	-0.634030
N198	N	0.245612	-0.258988	-0.300697
C199	C	-0.218867	-0.644617	-0.453530
C200	C	0.114467	-0.311283	-0.120196
C201	C	0.447800	0.022050	0.213137
N202	N	-0.185544	-0.676479	-0.492594
N203	N	0.147789	-0.343145	-0.159260
N204	N	0.481122	-0.009812	0.174073
H205	H	-0.376254	-0.633501	-0.268959
H206	H	-0.042920	-0.300168	0.064375
H207	H	0.290413	0.033165	0.397708
C208	C	-0.533545	-1.162278	-0.255708
C209	C	-0.200212	-0.828945	0.077625
C210	C	0.133122	-0.495612	0.410959
N211	N	-0.506313	-1.201274	-0.216724
N212	N	-0.172979	-0.867940	0.116609
N213	N	0.160354	-0.534607	0.449942
H214	H	-0.662203	-1.148893	-0.269190
H215	H	-0.328870	-0.815560	0.064143
H216	H	0.004463	-0.482226	0.397477
H217	H	-0.662222	-0.978024	-0.439820
H218	H	-0.328888	-0.644690	-0.106487
H219	H	0.004445	-0.311357	0.226846
C220	C	-0.218656	-1.162471	-0.935626
C221	C	0.114677	-0.829138	-0.602292
C222	C	0.448011	-0.495805	-0.268959
N223	N	-0.185296	-1.201498	-0.967479
N224	N	0.148037	-0.868165	-0.634145
N225	N	0.481370	-0.534832	-0.300812
H226	H	-0.230367	-0.494198	-0.440061
H227	H	0.102966	-0.160864	-0.106728
H228	H	0.436300	0.172469	0.226606
C229	C	-1.072453	-0.964742	-0.453345
C230	C	-0.739119	-0.631409	-0.120012
C231	C	-0.405786	-0.298076	0.213321
N232	N	-1.099693	-0.925737	-0.492312
N233	N	-0.766359	-0.592404	-0.158978
N234	N	-0.433026	-0.259070	0.174355
C235	C	-0.533557	-0.964519	-0.453252
C236	C	-0.200224	-0.631186	-0.119918
C237	C	0.133109	-0.297853	0.213415
N238	N	-0.506328	-0.925500	-0.492222
N239	N	-0.172995	-0.592167	-0.158888
N240	N	0.160338	-0.258834	0.174445
C241	C	-0.387755	-0.964646	-0.774135
C242	C	-0.054421	-0.631313	-0.440801
C243	C	0.278912	-0.297980	-0.107468
N244	N	-0.421110	-0.925619	-0.742277
N245	N	-0.087777	-0.592286	-0.408943
N246	N	0.245556	-0.258952	-0.075610
H247	H	-0.943777	-1.149015	-0.269244
H248	H	-0.610444	-0.815682	0.064090
H249	H	-0.277111	-0.482349	0.397423
H250	H	-1.063041	-1.149076	-0.269280
H251	H	-0.729708	-0.815743	0.064054
H252	H	-0.396374	-0.482409	0.397387
H253	H	-0.943790	-0.978143	-0.439879
H254	H	-0.610457	-0.644809	-0.106546
H255	H	-0.277124	-0.311476	0.226787
