data_functionalizedCrystal
_audit_creation_method	'MofGen! by Chris Wilmer'
_symmetry_space_group_name_H-M	'P1'
_symmetry_Int_Tables_number	1
_symmetry_cell_setting	triclinic
loop_
_symmetry_equiv_pos_as_xyz
  x,y,z
_cell_length_a	18.050591
_cell_length_b	21.295417
_cell_length_c	18.050582
_cell_angle_alpha	90.025708
_cell_angle_beta	90.020922
_cell_angle_gamma	90.025707
loop_
_atom_site_label
_atom_site_type_symbol
_atom_site_fract_x
_atom_site_fract_y
_atom_site_fract_z
Zn1	Zn	1.135285	-0.250716	0.420015
Zn2	Zn	1.635285	0.249284	0.920015
Zn3	Zn	1.135192	-0.355977	0.295818
Zn4	Zn	1.635192	0.144023	0.795818
Zn5	Zn	1.011104	-0.250719	0.295826
Zn6	Zn	1.511104	0.249281	0.795826
Zn7	Zn	1.011049	-0.355944	0.419954
Zn8	Zn	1.511049	0.144056	0.919954
O9	O	1.073158	-0.303339	0.357903
O10	O	1.573158	0.196661	0.857903
O11	O	1.239197	-0.264692	0.403563
O12	O	1.739197	0.235308	0.903563
O13	O	1.118716	-0.342030	0.191895
O14	O	1.618716	0.157970	0.691895
O15	O	1.027639	-0.162629	0.312329
O16	O	1.527639	0.337371	0.812329
O17	O	1.239129	-0.342027	0.312316
O18	O	1.739129	0.157973	0.812316
O19	O	1.118874	-0.162627	0.403570
O20	O	1.618874	0.337373	0.903570
O21	O	1.027549	-0.264697	0.191901
O22	O	1.527549	0.235303	0.691901
O23	O	0.907172	-0.264664	0.312270
O24	O	1.407172	0.235336	0.812270
O25	O	1.027545	-0.341970	0.523887
O26	O	1.527545	0.158030	1.023887
O27	O	0.907132	-0.341973	0.403466
O28	O	1.407132	0.158027	0.903466
O29	O	1.118820	-0.264660	0.523932
O30	O	1.618820	0.235340	1.023932
O31	O	1.118663	-0.444062	0.312256
O32	O	1.618663	0.055938	0.812256
O33	O	1.027455	-0.444038	0.403458
O34	O	1.527455	0.055962	0.903458
C35	C	0.880205	-0.303316	0.357862
C36	C	1.380205	0.196684	0.857862
C37	C	0.797660	-0.303321	0.357862
C38	C	1.297660	0.196679	0.857862
C39	C	0.598210	-0.261232	0.308384
C40	C	1.098210	0.238768	0.808384
C41	C	0.548788	-0.318646	0.290105
C42	C	1.048788	0.181354	0.790105
C43	C	0.646529	-0.303340	0.357896
C44	C	1.146529	0.196660	0.857896
C45	C	0.548869	-0.245945	0.376174
C46	C	1.048869	0.254055	0.876174
C47	C	0.500544	-0.303353	0.357927
C48	C	1.000544	0.196647	0.857927
C49	C	0.598195	-0.360785	0.339581
C50	C	1.098195	0.139215	0.839581
C51	C	0.598280	-0.288045	0.425682
C52	C	1.098280	0.211955	0.925682
C53	C	0.548881	-0.345499	0.407428
C54	C	1.048881	0.154501	0.907428
C55	C	0.730628	-0.303331	0.357876
C56	C	1.230628	0.196669	0.857876
C57	C	0.416448	-0.303368	0.357947
C58	C	0.916448	0.196632	0.857947
C59	C	1.073063	-0.466891	0.357866
C60	C	1.573063	0.033109	0.857866
C61	C	1.073090	-0.536859	0.357875
C62	C	1.573090	-0.036859	0.857875
C63	C	1.120569	-0.569667	0.405418
C64	C	1.620569	-0.069667	0.905418
C65	C	1.120595	-0.635410	0.405436
C66	C	1.620595	-0.135410	0.905436
C67	C	1.073151	-0.668341	0.357898
C68	C	1.573151	-0.168341	0.857898
C69	C	1.025662	-0.635525	0.310352
C70	C	1.525662	-0.135525	0.810352
C71	C	1.025632	-0.569784	0.310340
C72	C	1.525632	-0.069784	0.810340
N73	N	1.067546	-0.771598	0.292903
N74	N	1.567546	-0.271598	0.792903
N75	N	1.067579	-0.834050	0.292916
N76	N	1.567579	-0.334050	0.792916
C77	C	1.073237	-0.866416	0.357932
C78	C	1.573237	-0.366416	0.857932
N79	N	1.078876	-0.833972	0.422935
N80	N	1.578876	-0.333972	0.922935
N81	N	1.078846	-0.771515	0.422920
N82	N	1.578846	-0.271515	0.922920
C83	C	1.073178	-0.739627	0.357906
C84	C	1.573178	-0.239627	0.857906
C85	C	1.120747	-0.970510	0.405499
C86	C	1.620747	-0.470510	0.905499
C87	C	1.120768	-1.036254	0.405518
C88	C	1.620768	-0.536254	0.905518
C89	C	1.025839	-1.036368	0.310427
C90	C	1.525839	-0.536368	0.810427
C91	C	1.025814	-0.970625	0.310414
C92	C	1.525814	-0.470625	0.810414
C93	C	1.073272	-0.937700	0.357949
C94	C	1.573272	-0.437700	0.857949
C95	C	1.266863	-0.303363	0.357945
C96	C	1.766863	0.196637	0.857945
C97	C	1.349409	-0.303373	0.357963
C98	C	1.849409	0.196627	0.857963
C99	C	1.073187	-0.303311	0.551609
C100	C	1.573187	0.196689	1.051609
C101	C	1.073199	-0.303299	0.634155
C102	C	1.573199	0.196701	1.134155
C103	C	1.073273	-0.139149	0.357957
C104	C	1.573273	0.360851	0.857957
C105	C	1.073322	-0.069181	0.357980
C106	C	1.573322	0.430819	0.857980
C107	C	1.073171	-0.303322	0.164951
C108	C	1.573171	0.196678	0.664951
C109	C	1.073303	-0.303156	0.082406
C110	C	1.573303	0.196844	0.582406
C111	C	1.023601	-0.345283	0.833581
C112	C	1.523601	0.154717	1.333581
C113	C	1.091356	-0.360675	0.882979
C114	C	1.591356	0.139325	1.382979
C115	C	1.073236	-0.303251	0.785285
C116	C	1.573236	0.196749	1.285285
C117	C	1.005518	-0.287842	0.882970
C118	C	1.505518	0.212158	1.382970
C119	C	1.073265	-0.303206	0.931271
C120	C	1.573265	0.196794	1.431271
C121	C	1.141026	-0.318673	0.833596
C122	C	1.641026	0.181327	1.333596
C123	C	1.055142	-0.245814	0.833582
C124	C	1.555142	0.254186	1.333582
C125	C	1.122944	-0.261183	0.882958
C126	C	1.622944	0.238817	1.382958
C127	C	1.073218	-0.303279	0.701187
C128	C	1.573218	0.196721	1.201187
C129	C	1.073291	-0.303178	1.015367
C130	C	1.573291	0.196822	1.515367
H131	H	0.619772	-0.409343	0.324071
H132	H	1.119772	0.090657	0.824071
H133	H	0.527359	-0.381156	0.449311
H134	H	1.027359	0.118844	0.949311
H135	H	0.527163	-0.197408	0.391595
H136	H	1.027163	0.302592	0.891595
N137	N	0.977327	-0.937104	0.261842
N138	N	1.477327	-0.437104	0.761842
N139	N	1.003466	-0.900421	0.214539
N140	N	1.503466	-0.400421	0.714539
H141	H	0.969217	-0.876744	0.180237
H142	H	1.469217	-0.376744	0.680237
H143	H	0.620036	-0.275080	0.482976
H144	H	1.120036	0.224920	0.982976
N145	N	1.035893	-0.184927	0.806323
N146	N	1.535893	0.315073	1.306323
N147	N	1.033345	-0.175105	0.738102
N148	N	1.533345	0.324895	1.238102
H149	H	1.019742	-0.132104	0.718847
H150	H	1.519742	0.367896	1.218847
N151	N	1.169111	-0.668923	0.453997
N152	N	1.669111	-0.168923	0.953997
N153	N	1.237637	-0.661533	0.449129
N154	N	1.737637	-0.161533	0.949129
H155	H	1.271903	-0.685200	0.483424
H156	H	1.771903	-0.185200	0.983424
N157	N	1.169199	-0.936879	0.454079
N158	N	1.669199	-0.436879	0.954079
N159	N	1.143011	-0.900194	0.501370
N160	N	1.643011	-0.400194	1.001370
H161	H	1.177228	-0.876445	0.535685
H162	H	1.677228	-0.376445	1.035685
H163	H	1.159210	-0.542862	0.444125
H164	H	1.659210	-0.042862	0.944125
H165	H	0.987031	-0.662342	0.271647
H166	H	1.487031	-0.162342	0.771647
H167	H	0.948238	-0.274828	0.904659
H168	H	1.448238	0.225172	1.404659
N169	N	0.625376	-0.216601	0.255809
N170	N	1.125376	0.283399	0.755809
N171	N	0.580918	-0.185088	0.217926
N172	N	1.080918	0.314912	0.717926
H173	H	0.600103	-0.153569	0.180794
H174	H	1.100103	0.346431	0.680794
N175	N	0.977124	-0.536277	0.261771
N176	N	1.477124	-0.036277	0.761771
N177	N	0.934760	-0.565684	0.219333
N178	N	1.434760	-0.065684	0.719333
H179	H	0.900500	-0.542019	0.185030
H180	H	1.400500	-0.042019	0.685030
N181	N	1.169267	-1.069759	0.454097
N182	N	1.669267	-0.569759	0.954097
N183	N	1.211631	-1.040351	0.496534
N184	N	1.711631	-0.540351	0.996534
H185	H	1.245884	-1.064015	0.530845
H186	H	1.745884	-0.564015	1.030845
N187	N	0.977372	-1.070008	0.261878
N188	N	1.477372	-0.570008	0.761878
N189	N	0.977401	-1.128705	0.261898
N190	N	1.477401	-0.628705	0.761898
H191	H	0.943168	-1.152467	0.227611
H192	H	1.443168	-0.652467	0.727611
N193	N	0.521526	-0.334886	0.218204
N194	N	1.021526	0.165114	0.718204
N195	N	0.537325	-0.301426	0.163565
N196	N	1.037325	0.198574	0.663565
H197	H	0.518076	-0.312893	0.112783
H198	H	1.018076	0.187107	0.612783
H199	H	0.981667	-0.380875	0.811902
H200	H	1.481667	0.119125	1.311902
N201	N	1.110572	-0.421588	0.910193
N202	N	1.610572	0.078412	1.410193
N203	N	1.071137	-0.467960	0.894367
N204	N	1.571137	0.032040	1.394367
H205	H	1.084703	-0.510981	0.913585
H206	H	1.584703	-0.010981	1.413585
H207	H	1.198323	-0.331742	0.811998
H208	H	1.698323	0.168258	1.311998
N209	N	1.175680	-0.216570	0.909978
N210	N	1.675680	0.283430	1.409978
N211	N	1.242707	-0.222346	0.894004
N212	N	1.742707	0.277654	1.394004
H213	H	1.279955	-0.190840	0.913087
H214	H	1.779955	0.309160	1.413087
