data_functionalizedCrystal
_audit_creation_method	'MofGen! by Chris Wilmer'
_symmetry_space_group_name_H-M	'P1'
_symmetry_Int_Tables_number	1
_symmetry_cell_setting	triclinic
loop_
_symmetry_equiv_pos_as_xyz
  x,y,z
_cell_length_a	21.295418
_cell_length_b	13.897448
_cell_length_c	13.897441
_cell_angle_alpha	90.029627
_cell_angle_beta	89.961054
_cell_angle_gamma	89.966493
loop_
_atom_site_label
_atom_site_type_symbol
_atom_site_fract_x
_atom_site_fract_y
_atom_site_fract_z
Zn1	Zn	0.962382	0.383586	-0.545905
Zn2	Zn	1.462382	0.883586	-0.045905
Zn3	Zn	0.962317	0.544905	-0.384606
Zn4	Zn	1.462317	1.044905	0.115394
Zn5	Zn	0.857114	0.383670	-0.384566
Zn6	Zn	1.357114	0.883670	0.115434
Zn7	Zn	0.857098	0.544885	-0.545802
Zn8	Zn	1.357098	1.044885	-0.045802
O9	O	0.909728	0.464262	-0.465220
O10	O	1.409728	0.964262	0.034780
O11	O	1.050463	0.404958	-0.524569
O12	O	1.550463	0.904958	-0.024569
O13	O	0.948341	0.523560	-0.249619
O14	O	1.448341	1.023560	0.250381
O15	O	0.871112	0.248677	-0.405995
O16	O	1.371112	0.748677	0.094005
O17	O	1.050415	0.523479	-0.406063
O18	O	1.550415	1.023479	0.093937
O19	O	0.948452	0.248616	-0.524530
O20	O	1.448452	0.748616	-0.024530
O21	O	0.871049	0.405102	-0.249590
O22	O	1.371049	0.905102	0.250410
O23	O	0.769023	0.405083	-0.405894
O24	O	1.269023	0.905083	0.094106
O25	O	0.871085	0.523445	-0.680797
O26	O	1.371085	1.023445	-0.180797
O27	O	0.769011	0.523527	-0.524353
O28	O	1.269011	1.023527	-0.024353
O29	O	0.948437	0.404939	-0.680873
O30	O	1.448437	0.904939	-0.180873
O31	O	0.948325	0.679884	-0.405963
O32	O	1.448325	1.179884	0.094037
O33	O	0.871022	0.679870	-0.524393
O34	O	1.371022	1.179870	-0.024393
C35	C	0.746176	0.464312	-0.465109
C36	C	1.246176	0.964312	0.034891
C37	C	0.676208	0.464357	-0.465084
C38	C	1.176208	0.964357	0.034916
C39	C	0.909682	0.714876	-0.465192
C40	C	1.409682	1.214876	0.034808
C41	C	0.909720	0.822090	-0.465212
C42	C	1.409720	1.322090	0.034788
C43	C	0.909766	0.464181	-0.716813
C44	C	1.409766	0.964181	-0.216813
C45	C	0.909783	0.464146	-0.824027
C46	C	1.409783	0.964146	-0.324027
C47	C	0.643352	0.526113	-0.526674
C48	C	1.143352	1.026113	-0.026674
C49	C	0.577609	0.526089	-0.526717
C50	C	1.077609	1.026089	-0.026717
C51	C	0.544726	0.464320	-0.465154
C52	C	1.044726	0.964320	0.034846
C53	C	0.577590	0.402552	-0.403560
C54	C	1.077590	0.902552	0.096440
C55	C	0.643331	0.402571	-0.403525
C56	C	1.143331	0.902571	0.096475
N57	N	0.441453	0.456790	-0.380787
N58	N	0.941453	0.956790	0.119213
N59	N	0.379002	0.456778	-0.380822
N60	N	0.879002	0.956778	0.119178
C61	C	0.346651	0.464258	-0.465256
C62	C	0.846651	0.964258	0.034744
N63	N	0.379111	0.471770	-0.549654
N64	N	0.879111	0.971770	-0.049654
N65	N	0.441568	0.471787	-0.549618
N66	N	0.941568	0.971787	-0.049618
C67	C	0.473440	0.464292	-0.465185
C68	C	0.973440	0.964292	0.034815
C69	C	0.242509	0.525991	-0.526898
C70	C	0.742509	1.025991	-0.026898
C71	C	0.176765	0.525961	-0.526943
C72	C	0.676765	1.025961	-0.026943
C73	C	0.176747	0.402429	-0.403777
C74	C	0.676747	0.902429	0.096223
C75	C	0.242490	0.402455	-0.403740
C76	C	0.742490	0.902455	0.096260
C77	C	0.275367	0.464241	-0.465300
C78	C	0.775367	0.964241	0.034700
C79	C	1.073918	0.464211	-0.465332
C80	C	1.573918	0.964211	0.034668
C81	C	1.143886	0.464190	-0.465380
C82	C	1.643886	0.964190	0.034620
C83	C	0.909791	0.212669	-0.465269
C84	C	1.409791	0.712669	0.034731
C85	C	0.909818	0.105455	-0.465290
C86	C	1.409818	0.605455	0.034710
C87	C	0.909786	1.018385	-0.465273
C88	C	1.409786	1.518385	0.034727
C89	C	0.909747	0.909153	-0.465242
C90	C	1.409747	1.409153	0.034758
C91	C	0.909796	0.464119	-0.911097
C92	C	1.409796	0.964119	-0.411097
C93	C	0.909814	0.464075	-1.020330
C94	C	1.409814	0.964075	-0.520330
C95	C	0.909726	0.464273	-0.214606
C96	C	1.409726	0.964273	0.285394
C97	C	0.909831	0.464036	-0.107392
C98	C	1.409831	0.964036	0.392608
H99	H	0.550852	0.576377	-0.576874
H100	H	1.050852	1.076377	-0.076874
H101	H	0.269279	0.576297	-0.577028
H102	H	0.769279	1.076297	-0.077028
N103	N	0.676931	0.589234	-0.589546
N104	N	1.176931	1.089234	-0.089546
N105	N	0.669536	0.678229	-0.582989
N106	N	1.169536	1.178229	-0.082989
H107	H	0.693252	0.722810	-0.627393
H108	H	1.193252	1.222810	-0.127393
N109	N	0.676906	0.339504	-0.340604
N110	N	1.176906	0.839504	0.159396
N111	N	0.735603	0.339536	-0.340576
N112	N	1.235603	0.839536	0.159424
H113	H	0.759317	0.294997	-0.296136
H114	H	1.259317	0.794997	0.203864
N115	N	0.276065	0.339394	-0.340817
N116	N	0.776065	0.839394	0.159183
N117	N	0.334762	0.339421	-0.340792
N118	N	0.834762	0.839421	0.159208
H119	H	0.358476	0.294881	-0.296351
H120	H	0.858476	0.794881	0.203649
H121	H	0.150015	0.576248	-0.577102
H122	H	0.650015	1.076248	-0.077102
N123	N	0.143156	0.339327	-0.340907
N124	N	0.643156	0.839327	0.159093
N125	N	0.084459	0.339312	-0.340951
N126	N	0.584459	0.839312	0.159049
H127	H	0.060731	0.294740	-0.296553
H128	H	0.560731	0.794740	0.203447
H129	H	0.550812	0.352258	-0.353436
H130	H	1.050812	0.852258	0.146564
