data_functionalizedCrystal
_audit_creation_method	'MofGen! by Chris Wilmer'
_symmetry_space_group_name_H-M	'P1'
_symmetry_Int_Tables_number	1
_symmetry_cell_setting	triclinic
loop_
_symmetry_equiv_pos_as_xyz
  x,y,z
_cell_length_a	11.792254
_cell_length_b	18.366186
_cell_length_c	11.792241
_cell_angle_alpha	90.005243
_cell_angle_beta	84.196007
_cell_angle_gamma	90.009029
loop_
_atom_site_label
_atom_site_type_symbol
_atom_site_fract_x
_atom_site_fract_y
_atom_site_fract_z
O1	O	1.506908	0.060549	0.155636
O2	O	1.176569	0.060551	0.171654
O3	O	1.349755	0.060545	-0.001525
O4	O	1.333722	0.060555	0.328815
O5	O	1.349724	-0.060554	-0.001530
O6	O	1.176538	-0.060548	0.171649
O7	O	1.506878	-0.060550	0.155631
Zn8	Zn	1.341703	-0.079776	0.163639
Zn9	Zn	1.341743	0.079777	0.163646
O10	O	1.333692	-0.060544	0.328810
C11	C	1.134263	0.000001	0.170642
C12	C	1.008250	0.000002	0.167622
C13	C	0.905913	0.000005	0.165168
C14	C	0.777527	0.000005	0.162100
C15	C	1.348732	-0.000004	-0.043819
C16	C	1.345718	-0.000004	-0.169832
C17	C	1.549183	0.000001	0.156643
C18	C	1.675196	0.000005	0.159663
N19	N	1.341684	-0.188667	0.163634
C20	C	1.410934	-0.226760	0.232946
C21	C	1.410953	-0.302988	0.232943
C22	C	1.341700	-0.341120	0.163641
C23	C	1.272446	-0.303019	0.094315
C24	C	1.272438	-0.226792	0.094311
C25	C	1.239359	-0.461901	0.159816
C26	C	1.239365	-0.538126	0.159827
C27	C	1.341726	-0.576228	0.163645
C28	C	1.444083	-0.538095	0.167475
C29	C	1.444075	-0.461869	0.167471
C30	C	1.341702	-0.423775	0.163636
C31	C	1.411002	-0.696975	0.232957
C32	C	1.411022	-0.773204	0.232946
C33	C	1.272505	-0.773234	0.094325
C34	C	1.272495	-0.697006	0.094329
C35	C	1.341741	-0.658881	0.163652
N36	N	1.341771	0.188668	0.163642
C37	C	1.340175	0.000008	-0.400545
C38	C	1.343255	0.000002	-0.272160
C39	C	1.334714	0.000007	0.371104
C40	C	1.337728	0.000011	0.497118
H41	H	1.467324	-0.195723	0.289389
N42	N	1.481703	-0.341898	0.303751
N43	N	1.543525	-0.307849	0.365634
H44	H	1.593493	-0.335327	0.415644
N45	N	1.134826	-0.577085	0.155908
N46	N	1.134845	-0.645143	0.155915
H47	H	1.061012	-0.672658	0.153147
N48	N	1.201713	-0.187876	0.023494
N49	N	1.214667	-0.196391	-0.082191
H50	H	1.164718	-0.168904	-0.132209
H51	H	1.527435	-0.569116	0.170589
N52	N	1.548631	-0.422929	0.171384
N53	N	1.640022	-0.456949	0.174798
H54	H	1.713868	-0.429448	0.177559
N55	N	1.481765	-0.658037	0.303744
N56	N	1.543618	-0.692062	0.365603
H57	H	1.593605	-0.664565	0.415588
N58	N	1.201720	-0.341977	0.023524
N59	N	1.201735	-0.410036	0.023537
H60	H	1.151786	-0.437552	-0.026465
N61	N	1.134802	-0.422979	0.155880
N62	N	1.077294	-0.431506	0.073453
H63	H	1.003456	-0.404016	0.070665
N64	N	1.481763	-0.812101	0.303771
N65	N	1.468802	-0.803576	0.409454
H66	H	1.518764	-0.831046	0.459480
N67	N	1.201777	-0.812187	0.023534
N68	N	1.201795	-0.880245	0.023542
H69	H	1.151844	-0.907760	-0.026458
H70	H	1.216100	-0.665991	0.037893
