data_functionalizedCrystal
_audit_creation_method	'MofGen! by Chris Wilmer'
_symmetry_space_group_name_H-M	'P1'
_symmetry_Int_Tables_number	1
_symmetry_cell_setting	triclinic
loop_
_symmetry_equiv_pos_as_xyz
  x,y,z
_cell_length_a	11.792241
_cell_length_b	13.339070
_cell_length_c	11.804365
_cell_angle_alpha	74.887832
_cell_angle_beta	78.070443
_cell_angle_gamma	80.088645
loop_
_atom_site_label
_atom_site_type_symbol
_atom_site_fract_x
_atom_site_fract_y
_atom_site_fract_z
O1	O	1.566212	-0.118566	-0.098999
O2	O	1.240281	-0.132879	-0.099006
O3	O	1.365839	0.021746	-0.098999
O4	O	1.440653	-0.273191	-0.099005
O5	O	1.332772	-0.018920	0.099055
O6	O	1.207213	-0.173545	0.099049
O7	O	1.533144	-0.159231	0.099056
Cu8	Cu	1.367159	-0.170101	0.117136
Cu9	Cu	1.406266	-0.122009	-0.117086
O10	O	1.407586	-0.313856	0.099049
C11	C	1.181179	-0.152312	0.000021
C12	C	1.054337	-0.149620	0.000018
C13	C	1.336668	0.039172	0.000026
C14	C	1.299000	0.151681	0.000020
C15	C	1.592246	-0.139797	0.000027
C16	C	1.719090	-0.142488	0.000022
C17	C	1.951326	-0.147437	0.000022
C18	C	1.822094	-0.144687	0.000022
C19	C	1.436757	-0.331282	0.000022
C20	C	1.474426	-0.443790	0.000019
N21	N	1.339662	-0.203926	0.281875
C22	C	1.591893	0.514866	0.000027
C23	C	1.627287	0.409157	0.000039
C24	C	1.545218	0.344783	0.000034
C25	C	1.427750	0.386129	0.000018
C26	C	1.392352	0.491846	0.000015
C27	C	1.345676	0.321763	0.000022
C28	C	1.228208	0.363109	0.000006
C29	C	1.192816	0.468816	0.000002
C30	C	1.274884	0.533190	0.000007
C31	C	1.381075	0.216045	0.000025
C32	C	1.181533	0.193025	0.000012
C33	C	1.146140	0.298735	0.000000
N34	N	1.433769	-0.088177	-0.281825
C35	C	1.499794	-0.006932	0.655832
C36	C	1.520593	0.018660	0.531171
C37	C	1.475362	-0.036984	0.468841
C38	C	1.409329	-0.118225	0.531184
C39	C	1.388535	-0.143826	0.655857
C40	C	1.364103	-0.173877	0.468866
C41	C	1.298070	-0.255119	0.531209
C42	C	1.277279	-0.280714	0.655869
C43	C	1.322510	-0.225070	0.718200
C44	C	1.384896	-0.148277	0.344193
C45	C	1.273637	-0.285170	0.344218
C46	C	1.252838	-0.310763	0.468879
H47	H	1.476718	0.182393	0.000038
Cl48	Cl	1.589717	0.211891	0.000042
H49	H	1.097165	0.502474	-0.000002
Cl50	Cl	1.774958	0.357193	0.000033
H51	H	1.050495	0.332413	-0.000012
H52	H	1.246073	0.619269	-0.000007
H53	H	1.658699	0.567286	0.000041
Cl54	Cl	1.078353	0.112104	0.000014
H55	H	1.236808	-0.330483	0.293470
Cl56	Cl	1.467905	-0.046148	0.265835
Cl57	Cl	1.501506	-0.004807	0.312123
Cl58	Cl	1.603602	0.120786	0.452801
H59	H	1.536623	0.038361	0.706589
H60	H	1.305572	-0.245904	0.819709
H61	H	1.223522	-0.346873	0.706629
H62	H	1.199073	-0.376912	0.519654
