data_functionalizedCrystal
_audit_creation_method	'MofGen! by Chris Wilmer'
_symmetry_space_group_name_H-M	'P1'
_symmetry_Int_Tables_number	1
_symmetry_cell_setting	triclinic
loop_
_symmetry_equiv_pos_as_xyz
  x,y,z
_cell_length_a	15.995343
_cell_length_b	10.654550
_cell_length_c	9.730223
_cell_angle_alpha	90.000193
_cell_angle_beta	89.997808
_cell_angle_gamma	96.012957
loop_
_atom_site_label
_atom_site_type_symbol
_atom_site_fract_x
_atom_site_fract_y
_atom_site_fract_z
O1	O	1.111924	-0.161821	-0.114350
O2	O	0.868264	-0.181820	-0.114338
O3	O	0.995697	0.010992	-0.114339
O4	O	0.984492	-0.354633	-0.114349
O5	O	0.995695	0.010987	0.114241
O6	O	0.868263	-0.181825	0.114242
O7	O	1.111923	-0.161826	0.114230
Zn8	Zn	0.990093	-0.171826	0.150528
Zn9	Zn	0.990095	-0.171820	-0.150636
O10	O	0.984491	-0.354638	0.114231
C11	C	0.837064	-0.180998	-0.000047
C12	C	0.744099	-0.178524	-0.000042
C13	C	0.994873	0.057777	-0.000051
C14	C	0.992412	0.197188	-0.000055
C15	C	1.143123	-0.162648	-0.000064
C16	C	1.236088	-0.165122	-0.000078
C17	C	1.406301	-0.169612	-0.000065
C18	C	1.430455	-0.308793	-0.000071
C19	C	1.527148	-0.311412	0.000452
C20	C	1.573886	-0.174034	-0.000055
C21	C	1.544393	-0.104055	0.130219
C22	C	1.447591	-0.102404	0.130324
C23	C	1.447659	-0.100360	-0.129623
C24	C	1.544184	-0.105498	-0.131331
C25	C	1.668599	-0.176526	-0.000044
C26	C	1.311589	-0.167116	-0.000067
C27	C	0.985314	-0.401423	-0.000060
C28	C	0.987776	-0.540834	-0.000064
N29	N	0.990098	-0.171830	0.356064
C30	C	1.067442	0.277657	-0.000055
C31	C	1.065124	0.408647	-0.000064
C32	C	0.912740	0.378687	-0.000069
C33	C	0.915058	0.247699	-0.000070
C34	C	1.155420	0.294955	-0.000046
C35	C	1.153102	0.425946	-0.000055
N36	N	0.990096	-0.171806	-0.356172
C37	C	1.046539	-0.086481	0.427990
C38	C	1.046537	-0.086466	0.571873
C39	C	0.933649	-0.257159	0.571892
C40	C	0.933648	-0.257167	0.428012
C41	C	1.111717	0.012064	0.427980
C42	C	1.111715	0.012079	0.571863
H43	H	1.546483	-0.366184	-0.092920
H44	H	1.419571	-0.144175	-0.228393
C45	C	1.393416	-0.380541	-0.124661
C46	C	1.348224	-0.301015	-0.203703
C47	C	1.314077	-0.367071	-0.318478
H48	H	1.437458	-0.408410	-0.178463
H49	H	1.356851	-0.451420	-0.095094
H50	H	1.384786	-0.230158	-0.233271
H51	H	1.304170	-0.273142	-0.149942
H52	H	1.277511	-0.437950	-0.288911
H53	H	1.358123	-0.394938	-0.372268
H54	H	1.283403	-0.313126	-0.372115
H55	H	1.091372	0.103035	0.616482
C56	C	0.833622	0.160273	-0.000372
C57	C	0.830502	0.084226	-0.117993
C58	C	0.755486	0.003688	-0.118331
H59	H	0.831268	0.108429	0.079242
H60	H	0.787201	0.209078	-0.000454
H61	H	0.876909	0.035426	-0.117899
H62	H	0.832842	0.136037	-0.197627
H63	H	0.709066	0.052493	-0.118413
H64	H	0.753139	-0.048148	-0.038712
H65	H	0.753356	-0.047911	-0.198141
C66	C	0.872324	-0.349610	0.650188
C67	C	0.820701	-0.282657	0.732809
C68	C	0.764206	-0.367782	0.804966
H69	H	0.838628	-0.400480	0.586901
H70	H	0.902720	-0.401891	0.706401
H71	H	0.790308	-0.230397	0.676601
H72	H	0.854375	-0.231792	0.796122
H73	H	0.794602	-0.420064	0.861179
H74	H	0.730516	-0.418648	0.741669
H75	H	0.729179	-0.322367	0.861042
H76	H	0.887681	-0.326654	0.369451
H77	H	1.189832	0.266050	-0.095701
H78	H	1.176058	-0.008596	0.610910
C79	C	1.092597	0.140584	0.376166
C80	C	1.080902	0.219209	0.488315
C81	C	1.063276	0.337601	0.440636
H82	H	1.138225	0.177030	0.321955
H83	H	1.042929	0.131113	0.321974
H84	H	1.130564	0.228684	0.542484
H85	H	1.035272	0.182804	0.542536
H86	H	1.013609	0.328130	0.386444
H87	H	1.108907	0.374034	0.386425
H88	H	1.055332	0.390959	0.516721
H89	H	1.183435	0.259694	0.098649
H90	H	1.172508	-0.017728	0.383350
H91	H	0.849761	0.419829	-0.000082
C92	C	1.585918	0.030849	0.136133
C93	C	1.523964	0.114429	0.133990
C94	C	1.562186	0.238711	0.139415
H95	H	1.617811	0.042798	0.218314
H96	H	1.621971	0.046517	0.059062
H97	H	1.487925	0.098767	0.211054
H98	H	1.492068	0.102520	0.051816
H99	H	1.598240	0.254378	0.062344
H100	H	1.594078	0.250647	0.221597
H101	H	1.520157	0.295435	0.137948
C102	C	1.197146	0.482354	0.127553
C103	C	1.140384	0.544199	0.205589
C104	C	1.180924	0.596186	0.323141
H105	H	1.217128	0.417027	0.180862
H106	H	1.243164	0.541018	0.101045
H107	H	1.094381	0.485540	0.232099
H108	H	1.120400	0.609544	0.152321
H109	H	1.226942	0.654850	0.296633
H110	H	1.200903	0.530851	0.376438
H111	H	1.142419	0.638163	0.376096
C112	C	1.188463	0.487092	-0.131805
C113	C	1.141303	0.437012	-0.243957
C114	C	1.173858	0.493296	-0.365345
H115	H	1.185647	0.575615	-0.127476
H116	H	1.245357	0.470697	-0.142411
H117	H	1.084424	0.453416	-0.233354
H118	H	1.144115	0.348494	-0.248332
H119	H	1.230751	0.476901	-0.375952
H120	H	1.171040	0.581818	-0.361002
H121	H	1.141870	0.459317	-0.441456
H122	H	1.401779	-0.361865	0.093205
H123	H	1.545904	-0.365945	0.094375
H124	H	1.432425	-0.000338	0.135881
C125	C	1.412401	-0.166380	0.260702
C126	C	1.478329	-0.206144	0.338642
C127	C	1.445947	-0.265103	0.458746
H128	H	1.384046	-0.108474	0.312836
H129	H	1.374076	-0.237329	0.237163
H130	H	1.516640	-0.135205	0.362184
H131	H	1.506690	-0.264065	0.286549
H132	H	1.407621	-0.336051	0.435207
H133	H	1.417592	-0.207189	0.510868
H134	H	1.490672	-0.292100	0.511637
H135	H	1.564767	-0.152074	0.227533
H136	H	1.563038	-0.156456	-0.227709
H137	H	1.433047	0.002083	-0.130880
C138	C	1.587460	0.028080	-0.142561
C139	C	1.633087	0.040636	-0.265474
C140	C	1.672986	0.163663	-0.275847
H141	H	1.546443	0.086418	-0.141765
H142	H	1.624608	0.044672	-0.067020
H143	H	1.595943	0.024059	-0.340996
H144	H	1.674119	-0.017673	-0.266298
H145	H	1.710133	0.180254	-0.200305
H146	H	1.631962	0.221990	-0.275046
H147	H	1.703954	0.172195	-0.359236
