data_functionalizedCrystal
_audit_creation_method	'MofGen! by Chris Wilmer'
_symmetry_space_group_name_H-M	'P1'
_symmetry_Int_Tables_number	1
_symmetry_cell_setting	triclinic
loop_
_symmetry_equiv_pos_as_xyz
  x,y,z
_cell_length_a	14.519709
_cell_length_b	13.101039
_cell_length_c	14.519709
_cell_angle_alpha	86.632446
_cell_angle_beta	83.680145
_cell_angle_gamma	93.358259
loop_
_atom_site_label
_atom_site_type_symbol
_atom_site_fract_x
_atom_site_fract_y
_atom_site_fract_z
O1	O	1.228925	0.085083	0.115817
O2	O	1.478925	0.335083	0.365817
O3	O	1.728925	0.585083	0.615817
O4	O	1.978925	0.835083	0.865817
O5	O	0.960450	0.085114	0.130052
O6	O	1.210450	0.335114	0.380052
O7	O	1.460450	0.585114	0.630052
O8	O	1.710450	0.835114	0.880052
O9	O	1.101805	0.085088	-0.011303
O10	O	1.351805	0.335088	0.238697
O11	O	1.601805	0.585088	0.488697
O12	O	1.851805	0.835088	0.738697
O13	O	1.087569	0.085109	0.257173
O14	O	1.337569	0.335109	0.507173
O15	O	1.587569	0.585109	0.757173
O16	O	1.837569	0.835109	1.007173
O17	O	1.091663	-0.085340	-0.001144
O18	O	1.341663	0.164660	0.248856
O19	O	1.591663	0.414660	0.498856
O20	O	1.841663	0.664660	0.748856
O21	O	0.950308	-0.085314	0.140211
O22	O	1.200308	0.164686	0.390211
O23	O	1.450308	0.414686	0.640211
O24	O	1.700308	0.664686	0.890211
O25	O	1.218783	-0.085345	0.125976
O26	O	1.468783	0.164655	0.375976
O27	O	1.718783	0.414655	0.625976
O28	O	1.968783	0.664655	0.875976
Zn29	Zn	1.082935	-0.112389	0.134707
Zn30	Zn	1.332935	0.137611	0.384707
Zn31	Zn	1.582935	0.387611	0.634707
Zn32	Zn	1.832935	0.637611	0.884707
Zn33	Zn	1.096297	0.112158	0.121322
Zn34	Zn	1.346297	0.362158	0.371322
Zn35	Zn	1.596297	0.612158	0.621322
Zn36	Zn	1.846297	0.862158	0.871322
O37	O	1.077427	-0.085319	0.267331
O38	O	1.327427	0.164681	0.517331
O39	O	1.577427	0.414681	0.767331
O40	O	1.827427	0.664681	1.017331
C41	C	0.921019	-0.000096	0.134468
C42	C	1.171019	0.249904	0.384468
C43	C	1.421019	0.499904	0.634468
C44	C	1.671019	0.749904	0.884468
C45	C	0.818638	-0.000084	0.132479
C46	C	1.068638	0.249916	0.382479
C47	C	1.318638	0.499916	0.632479
C48	C	1.568638	0.749916	0.882479
N49	N	1.073822	-0.265635	0.143841
N50	N	1.323822	-0.015635	0.393841
N51	N	1.573822	0.234365	0.643841
N52	N	1.823822	0.484365	0.893841
C53	C	0.443740	-0.000131	0.125162
C54	C	0.693740	0.249869	0.375162
C55	C	0.943740	0.499869	0.625162
C56	C	1.193740	0.749869	0.875162
C57	C	0.548049	-0.000118	0.127194
C58	C	0.798049	0.249882	0.377194
C59	C	1.048049	0.499882	0.627194
C60	C	1.298049	0.749882	0.877194
C61	C	0.631186	-0.000107	0.128820
C62	C	0.881186	0.249893	0.378820
C63	C	1.131186	0.499893	0.628820
C64	C	1.381186	0.749893	0.878820
C65	C	0.735501	-0.000095	0.130853
C66	C	0.985501	0.249905	0.380853
C67	C	1.235501	0.499905	0.630853
C68	C	1.485501	0.749905	0.880853
C69	C	1.061423	-0.474676	0.156277
C70	C	1.311423	-0.224676	0.406277
C71	C	1.561423	0.025324	0.656277
C72	C	1.811423	0.275324	0.906277
C73	C	1.117813	-0.525562	0.099747
C74	C	1.367813	-0.275562	0.349747
C75	C	1.617813	-0.025562	0.599747
C76	C	1.867813	0.224438	0.849747
C77	C	1.110914	-0.641879	0.106667
C78	C	1.360914	-0.391879	0.356667
C79	C	1.610914	-0.141879	0.606667
C80	C	1.860914	0.108121	0.856667
C81	C	1.068321	-0.358348	0.149358
C82	C	1.318321	-0.108348	0.399358
C83	C	1.568321	0.141652	0.649358
C84	C	1.818321	0.391652	0.899358
C85	C	1.258213	-0.000133	0.121560
C86	C	1.508213	0.249867	0.371560
C87	C	1.758213	0.499867	0.621560
C88	C	2.008213	0.749867	0.871560
C89	C	1.360594	-0.000138	0.123549
C90	C	1.610594	0.249862	0.373549
C91	C	1.860594	0.499862	0.623549
C92	C	2.110594	0.749862	0.873549
C93	C	1.096070	-0.000126	-0.040583
C94	C	1.346070	0.249874	0.209417
C95	C	1.596070	0.499874	0.459417
C96	C	1.846070	0.749874	0.709417
C97	C	1.094082	-0.000126	-0.142965
C98	C	1.344082	0.249874	0.107035
C99	C	1.594082	0.499874	0.357035
C100	C	1.844082	0.749874	0.607035
N101	N	1.105418	0.265405	0.112180
N102	N	1.355418	0.515405	0.362180
N103	N	1.605418	0.765405	0.612180
N104	N	1.855418	1.015405	0.862180
C105	C	1.086764	-0.000098	-0.517862
C106	C	1.336764	0.249902	-0.267862
C107	C	1.586764	0.499902	-0.017862
C108	C	1.836764	0.749902	0.232138
C109	C	1.088796	-0.000106	-0.413554
C110	C	1.338796	0.249894	-0.163554
C111	C	1.588796	0.499894	0.086446
C112	C	1.838796	0.749894	0.336446
C113	C	1.090423	-0.000113	-0.330417
C114	C	1.340423	0.249887	-0.080417
C115	C	1.590423	0.499887	0.169583
C116	C	1.840423	0.749887	0.419583
C117	C	1.092456	-0.000119	-0.226102
C118	C	1.342456	0.249881	0.023898
C119	C	1.592456	0.499881	0.273898
C120	C	1.842456	0.749881	0.523898
C121	C	1.083162	-0.000103	0.296612
C122	C	1.333162	0.249897	0.546612
C123	C	1.583162	0.499897	0.796612
C124	C	1.833162	0.749897	1.046612
C125	C	1.085151	-0.000096	0.398992
C126	C	1.335151	0.249904	0.648992
C127	C	1.585151	0.499904	0.898992
C128	C	1.835151	0.749904	1.148992
H129	H	1.171271	-0.481769	0.046155
H130	H	1.421271	-0.231769	0.296155
H131	H	1.671271	0.018231	0.546155
H132	H	1.921271	0.268231	0.796155
H133	H	1.007970	-0.518463	0.209866
H134	H	1.257970	-0.268463	0.459866
H135	H	1.507970	-0.018463	0.709866
H136	H	1.757970	0.231537	0.959866
