data_functionalizedCrystal
_audit_creation_method	'MofGen! by Chris Wilmer'
_symmetry_space_group_name_H-M	'P1'
_symmetry_Int_Tables_number	1
_symmetry_cell_setting	triclinic
loop_
_symmetry_equiv_pos_as_xyz
  x,y,z
_cell_length_a	8.559649
_cell_length_b	14.472310
_cell_length_c	8.559649
_cell_angle_alpha	90.000154
_cell_angle_beta	110.221336
_cell_angle_gamma	89.986702
loop_
_atom_site_label
_atom_site_type_symbol
_atom_site_fract_x
_atom_site_fract_y
_atom_site_fract_z
O1	O	2.126907	-0.076826	0.055051
O2	O	1.651422	-0.076830	-0.028731
O3	O	1.931055	-0.076827	0.250902
O4	O	1.847274	-0.076829	-0.224582
O5	O	1.930983	0.076855	0.250876
O6	O	1.651350	0.076852	-0.028757
O7	O	2.126835	0.076856	0.055024
Cu8	Cu	1.889086	0.090886	0.013132
Cu9	Cu	1.889171	-0.090861	0.013162
O10	O	1.847202	0.076853	-0.224609
C11	C	1.591077	0.000010	-0.035093
C12	C	1.411378	0.000009	-0.053992
N13	N	1.889038	0.218717	0.013112
C14	C	1.889142	0.592808	0.013152
C15	C	1.739125	0.553641	-0.136081
C16	C	1.739379	0.446553	-0.136525
C17	C	1.889089	0.407217	0.013132
C18	C	2.053820	0.446055	-0.003069
C19	C	2.052948	0.553177	-0.004108
C20	C	1.875987	0.553338	0.179165
C21	C	1.871970	0.446211	0.177557
C22	C	1.889070	0.302329	0.013125
C23	C	1.889171	0.697696	0.013156
C24	C	2.187180	0.000013	0.061387
C25	C	2.366879	0.000008	0.080286
C26	C	1.937369	0.000012	0.311198
C27	C	1.956268	0.000007	0.490898
N28	N	1.889192	0.781308	0.013171
C29	C	1.840889	0.000011	-0.284904
C30	C	1.821990	0.000010	-0.464604
H31	H	1.311990	0.000003	-0.183420
H32	H	2.085696	0.000016	0.590286
H33	H	1.975737	0.419438	0.292206
N34	N	1.491539	0.000032	0.242648
N35	N	1.497871	0.064818	0.341226
H36	H	1.585922	0.064837	0.455897
H37	H	1.616262	0.420296	-0.129937
N38	N	2.195857	0.585723	0.128352
N39	N	2.178012	0.635352	0.240524
H40	H	2.278953	0.658344	0.334047
N41	N	1.659615	-0.000008	0.410759
N42	N	1.533369	-0.000012	0.452511
H43	H	1.418687	-0.000027	0.364478
N44	N	1.584112	0.585993	-0.128322
N45	N	1.582381	0.638298	-0.012723
H46	H	1.472900	0.661153	-0.007239
H47	H	1.745151	0.580550	-0.259035
H48	H	1.750898	0.420828	0.190335
N49	N	1.747114	0.414401	-0.291655
N50	N	1.752359	0.471076	-0.399925
H51	H	1.757795	0.448370	-0.509504
N52	N	2.071478	0.584500	-0.155196
N53	N	2.084959	0.527248	-0.259143
H54	H	2.098045	0.549365	-0.365855
H55	H	2.167259	0.420573	0.103604
N56	N	2.073433	0.412396	-0.152287
N57	N	1.965643	0.430065	-0.290557
H58	H	1.979482	0.406294	-0.395950
N59	N	1.729925	0.587236	0.205137
N60	N	1.621708	0.531928	0.215315
H61	H	1.518540	0.555865	0.233642
N62	N	2.013517	0.585131	0.318167
N63	N	2.035416	0.669802	0.345916
H64	H	2.132548	0.692263	0.444076
