data_functionalizedCrystal
_audit_creation_method	'MofGen! by Chris Wilmer'
_symmetry_space_group_name_H-M	'P1'
_symmetry_Int_Tables_number	1
_symmetry_cell_setting	triclinic
loop_
_symmetry_equiv_pos_as_xyz
  x,y,z
_cell_length_a	8.634740
_cell_length_b	11.792241
_cell_length_c	7.681481
_cell_angle_alpha	84.218353
_cell_angle_beta	96.618947
_cell_angle_gamma	92.381861
loop_
_atom_site_label
_atom_site_type_symbol
_atom_site_fract_x
_atom_site_fract_y
_atom_site_fract_z
O1	O	2.034654	0.379541	-0.146430
O2	O	1.585442	0.348483	-0.146434
O3	O	1.820950	0.199983	-0.146419
O4	O	1.799145	0.528040	-0.146444
O5	O	1.849937	0.181657	0.146440
O6	O	1.614429	0.330157	0.146426
O7	O	2.063641	0.361214	0.146430
Zn8	Zn	1.843637	0.342776	0.192925
Zn9	Zn	1.805446	0.366922	-0.192930
O10	O	1.828132	0.509714	0.146415
C11	C	1.542426	0.332284	-0.000004
C12	C	1.371067	0.311306	-0.000005
C13	C	1.834074	0.148386	0.000010
C14	C	1.829975	0.021942	0.000008
C15	C	1.822434	-0.209558	-0.000021
C16	C	1.826624	-0.080735	-0.000005
C17	C	2.106656	0.377414	-0.000004
C18	C	2.278013	0.398392	-0.000014
C19	C	1.815008	0.561312	-0.000018
C20	C	1.819106	0.687756	-0.000028
N21	N	1.869713	0.326297	0.456261
N22	N	1.779382	0.383392	-0.456265
H23	H	1.319636	0.220702	-0.000044
C24	C	1.654800	0.462116	0.442152
C25	C	1.481430	0.439294	0.466896
C26	C	1.356846	0.518019	0.365301
C27	C	1.405632	0.619566	0.238961
C28	C	1.579011	0.642392	0.214211
C29	C	1.703595	0.563667	0.315806
H30	H	1.445308	0.364119	0.560426
H31	H	1.228499	0.501121	0.383623
H32	H	1.313408	0.677843	0.163754
H33	H	1.615133	0.717568	0.120681
H34	H	1.831941	0.580566	0.297484
H35	H	1.961940	0.268027	0.531473
H36	H	1.329449	0.489005	-0.000009
