data_functionalizedCrystal
_audit_creation_method	'MofGen! by Chris Wilmer'
_symmetry_space_group_name_H-M	'P1'
_symmetry_Int_Tables_number	1
_symmetry_cell_setting	triclinic
loop_
_symmetry_equiv_pos_as_xyz
  x,y,z
_cell_length_a	13.897448
_cell_length_b	13.897449
_cell_length_c	13.897441
_cell_angle_alpha	89.976068
_cell_angle_beta	90.029627
_cell_angle_gamma	89.982380
loop_
_atom_site_label
_atom_site_type_symbol
_atom_site_fract_x
_atom_site_fract_y
_atom_site_fract_z
Zn1	Zn	-0.383995	-1.474682	0.545519
Zn2	Zn	0.116005	-0.974682	1.045519
Zn3	Zn	-0.545314	-1.474582	0.384220
Zn4	Zn	-0.045314	-0.974582	0.884220
Zn5	Zn	-0.384035	-1.313377	0.384222
Zn6	Zn	0.115965	-0.813377	0.884222
Zn7	Zn	-0.545250	-1.313353	0.545457
Zn8	Zn	-0.045250	-0.813353	1.045457
O9	O	-0.464648	-1.393999	0.464854
O10	O	0.035352	-0.893999	0.964854
O11	O	-0.405405	-1.609651	0.524147
O12	O	0.094595	-1.109651	1.024147
O13	O	-0.523964	-1.453166	0.249238
O14	O	-0.023964	-0.953166	0.749238
O15	O	-0.249048	-1.334827	0.405645
O16	O	0.250952	-0.834827	0.905645
O17	O	-0.523925	-1.609577	0.405641
O18	O	-0.023925	-1.109577	0.905641
O19	O	-0.249019	-1.453337	0.524149
O20	O	0.250981	-0.953337	1.024149
O21	O	-0.405472	-1.334730	0.249240
O22	O	0.094528	-0.834730	0.749240
O23	O	-0.405410	-1.178393	0.405585
O24	O	0.094590	-0.678393	0.905585
O25	O	-0.523815	-1.334786	0.680447
O26	O	-0.023815	-0.834786	1.180447
O27	O	-0.523854	-1.178375	0.524045
O28	O	-0.023854	-0.678375	1.024045
O29	O	-0.405342	-1.453313	0.680492
O30	O	0.094658	-0.953313	1.180492
O31	O	-0.680287	-1.453143	0.405582
O32	O	-0.180287	-0.953143	0.905582
O33	O	-0.680240	-1.334689	0.524043
O34	O	-0.180240	-0.834689	1.024043
C35	C	-0.464630	-1.143384	0.464809
C36	C	0.035370	-0.643384	0.964809
C37	C	-0.464645	-1.036171	0.464813
C38	C	0.035355	-0.536171	0.964813
C39	C	-0.715263	-1.393928	0.464827
C40	C	-0.215263	-0.893928	0.964827
C41	C	-0.822477	-1.393987	0.464847
C42	C	-0.322477	-0.893987	0.964847
C43	C	-0.464647	-0.949101	0.464825
C44	C	0.035353	-0.449101	0.964825
C45	C	-0.464652	-0.839868	0.464849
C46	C	0.035348	-0.339868	0.964849
C47	C	-1.018772	-1.394088	0.464907
C48	C	-0.518772	-0.894088	0.964907
C49	C	-0.909539	-1.394029	0.464877
C50	C	-0.409539	-0.894029	0.964877
C51	C	-0.213055	-1.394096	0.464904
C52	C	0.286945	-0.894096	0.964904
C53	C	-0.105841	-1.394137	0.464925
C54	C	0.394159	-0.894137	0.964925
C55	C	-0.464567	-1.394058	0.716448
C56	C	0.035433	-0.894058	1.216448
C57	C	-0.464533	-1.394083	0.823662
C58	C	0.035467	-0.894083	1.323662
C59	C	-0.464664	-0.645592	0.464889
C60	C	0.035336	-0.145592	0.964889
C61	C	-0.464661	-0.752806	0.464873
C62	C	0.035339	-0.252806	0.964873
C63	C	-0.464659	-1.393996	0.214240
C64	C	0.035341	-0.893996	0.714240
C65	C	-0.464422	-1.394157	0.107027
C66	C	0.035578	-0.894157	0.607027
C67	C	-0.464506	-1.394103	0.910731
C68	C	0.035494	-0.894103	1.410731
C69	C	-0.464462	-1.394130	1.019964
C70	C	0.035538	-0.894130	1.519964
