data_functionalizedCrystal
_audit_creation_method	'MofGen! by Chris Wilmer'
_symmetry_space_group_name_H-M	'P1'
_symmetry_Int_Tables_number	1
_symmetry_cell_setting	triclinic
loop_
_symmetry_equiv_pos_as_xyz
  x,y,z
_cell_length_a	8.634740
_cell_length_b	10.967829
_cell_length_c	9.483290
_cell_angle_alpha	88.375869
_cell_angle_beta	98.956098
_cell_angle_gamma	92.462803
loop_
_atom_site_label
_atom_site_type_symbol
_atom_site_fract_x
_atom_site_fract_y
_atom_site_fract_z
O1	O	2.011831	0.372006	-0.214068
O2	O	1.563996	0.339203	-0.205855
O3	O	1.806090	0.182368	-0.166559
O4	O	1.769738	0.528841	-0.253365
O5	O	1.847875	0.220706	0.065613
O6	O	1.605782	0.377541	0.026316
O7	O	2.053617	0.410343	0.018103
Cu8	Cu	1.833514	0.397442	0.043409
Cu9	Cu	1.784099	0.352104	-0.231161
O10	O	1.811523	0.567178	-0.021194
C11	C	1.527692	0.350941	-0.087908
C12	C	1.357263	0.328785	-0.082360
C13	C	1.827495	0.156720	-0.039248
C14	C	1.829002	0.023176	-0.005799
C15	C	1.808028	-0.056216	-0.111159
C16	C	1.809585	-0.194240	-0.076590
C17	C	2.089920	0.398605	-0.099847
C18	C	2.260347	0.420759	-0.105405
C19	C	1.790118	0.592826	-0.148508
C20	C	1.788609	0.726368	-0.181966
N21	N	1.868282	0.429332	0.236526
N22	N	1.749343	0.320207	-0.424276
C23	C	1.794336	0.361502	0.325748
C24	C	1.823301	0.388047	0.486503
H25	H	1.309848	0.233086	-0.058421
H26	H	1.709578	0.283782	0.283121
H27	H	1.788911	-0.022003	-0.226954
H28	H	1.908049	0.465780	0.529121
H29	H	1.769479	-0.239426	-0.297769
H30	H	1.307765	0.516461	-0.129372
H31	H	1.828687	-0.228448	0.039212
H32	H	1.848102	-0.011037	0.109996
H33	H	1.664577	0.242484	0.533106
H34	H	1.953025	0.507060	0.279150
