data_functionalizedCrystal
_audit_creation_method	'MofGen! by Chris Wilmer'
_symmetry_space_group_name_H-M	'P1'
_symmetry_Int_Tables_number	1
_symmetry_cell_setting	triclinic
loop_
_symmetry_equiv_pos_as_xyz
  x,y,z
_cell_length_a	10.654541
_cell_length_b	12.503572
_cell_length_c	10.654545
_cell_angle_alpha	86.440282
_cell_angle_beta	84.484678
_cell_angle_gamma	93.551091
loop_
_atom_site_label
_atom_site_type_symbol
_atom_site_fract_x
_atom_site_fract_y
_atom_site_fract_z
O1	O	1.675021	0.089282	0.169185
O2	O	1.309542	0.089291	0.185993
O3	O	1.500684	0.089285	-0.005150
O4	O	1.483879	0.089287	0.360328
O5	O	1.486309	-0.089356	0.009249
O6	O	1.295168	-0.089351	0.200393
O7	O	1.660646	-0.089360	0.183584
Cu8	Cu	1.476594	-0.105667	0.193303
Cu9	Cu	1.493594	0.105598	0.176274
O10	O	1.469504	-0.089354	0.374728
C11	C	1.255557	-0.000029	0.191959
C12	C	1.116114	-0.000026	0.188268
N13	N	1.464647	-0.254259	0.205279
C14	C	1.088145	-0.000011	0.416832
C15	C	1.008652	0.000001	0.529374
C16	C	0.877634	0.000002	0.525898
C17	C	0.826107	-0.000012	0.409868
C18	C	0.905600	-0.000024	0.297326
C19	C	1.036620	-0.000022	0.300814
C20	C	0.933568	-0.000046	0.068766
C21	C	1.064587	-0.000039	0.072238
C22	C	0.882041	-0.000060	-0.047264
C23	C	0.961535	-0.000064	-0.159809
C24	C	1.092560	-0.000064	-0.156329
C25	C	1.144080	-0.000051	-0.040304
C26	C	1.447071	-0.473373	0.222908
C27	C	1.523123	-0.526703	0.146664
C28	C	1.513344	-0.648626	0.156473
C29	C	1.456849	-0.351440	0.213101
C30	C	1.714631	-0.000038	0.177618
C31	C	1.854075	-0.000034	0.181308
C32	C	1.492262	-0.000034	-0.044749
C33	C	1.488570	-0.000027	-0.184192
N34	N	1.505551	0.254189	0.164288
C35	C	1.504257	0.194733	-0.199899
C36	C	1.510370	0.292113	-0.273263
C37	C	1.506901	0.292115	-0.404281
C38	C	1.497314	0.194725	-0.461939
C39	C	1.491201	0.097346	-0.388575
C40	C	1.494675	0.097355	-0.257555
C41	C	1.475505	-0.097412	-0.372868
C42	C	1.478983	-0.097416	-0.241850
C43	C	1.465918	-0.194801	-0.430525
C44	C	1.459814	-0.292184	-0.357162
C45	C	1.463285	-0.292181	-0.226136
C46	C	1.472870	-0.194796	-0.168486
C47	C	1.477926	-0.000033	0.414326
C48	C	1.481619	-0.000033	0.553769
H49	H	1.194827	0.000012	0.419671
F50	F	1.352376	-0.533376	0.317852
H51	H	1.463087	-0.194793	-0.537207
H52	H	1.507097	0.194742	-0.093219
H53	H	1.050620	0.000009	0.623844
F54	F	1.493600	0.194732	-0.601379
H55	H	1.452000	-0.371470	-0.404117
F56	F	1.520600	0.395756	-0.211894
F57	F	1.513398	0.395756	-0.482361
F58	F	1.456770	-0.395828	-0.148066
F59	F	1.283520	-0.000045	-0.036591
F60	F	0.686664	-0.000027	0.406177
F61	F	0.793029	0.000005	0.645678
F62	F	1.618205	-0.466698	0.052097
F63	F	1.177153	-0.000084	-0.276114
F64	F	0.742599	-0.000065	-0.050960
F65	F	0.906688	-0.000087	-0.283282
H66	H	1.475702	-0.194784	-0.061806
