data_functionalizedCrystal
_audit_creation_method	'MofGen! by Chris Wilmer'
_symmetry_space_group_name_H-M	'P1'
_symmetry_Int_Tables_number	1
_symmetry_cell_setting	triclinic
loop_
_symmetry_equiv_pos_as_xyz
  x,y,z
_cell_length_a	14.971482
_cell_length_b	16.109304
_cell_length_c	14.048226
_cell_angle_alpha	89.996377
_cell_angle_beta	89.994098
_cell_angle_gamma	83.537623
loop_
_atom_site_label
_atom_site_type_symbol
_atom_site_fract_x
_atom_site_fract_y
_atom_site_fract_z
O1	O	1.186794	0.108333	-0.079142
O2	O	1.686794	0.608333	0.420858
O3	O	0.926375	0.121311	-0.079146
O4	O	1.426375	0.621311	0.420854
O5	O	1.063737	-0.006200	-0.079145
O6	O	1.563737	0.493800	0.420855
O7	O	1.049432	0.235844	-0.079144
O8	O	1.549432	0.735844	0.420856
O9	O	1.063721	-0.006208	0.079177
O10	O	1.563721	0.493792	0.579177
O11	O	0.926358	0.121303	0.079175
O12	O	1.426358	0.621303	0.579175
O13	O	1.186777	0.108325	0.079179
O14	O	1.686777	0.608325	0.579179
Zn15	Zn	1.056565	0.114813	0.104314
Zn16	Zn	1.556565	0.614813	0.604314
Zn17	Zn	1.056587	0.114823	-0.104281
Zn18	Zn	1.556587	0.614823	0.395719
O19	O	1.049415	0.235836	0.079178
O20	O	1.549415	0.735836	0.579178
C21	C	0.893043	0.120727	0.000014
C22	C	1.393043	0.620727	0.500014
C23	C	0.793748	0.118990	0.000012
C24	C	1.293748	0.618990	0.500012
C25	C	0.747095	0.118167	0.086314
C26	C	1.247095	0.618167	0.586314
C27	C	0.653799	0.116521	0.086315
C28	C	1.153799	0.616521	0.586315
C29	C	0.607157	0.115704	0.000013
C30	C	1.107157	0.615704	0.500013
C31	C	0.653816	0.116524	-0.086295
C32	C	1.153816	0.616524	0.413705
C33	C	0.747111	0.118164	-0.086295
C34	C	1.247111	0.618164	0.413705
C35	C	0.459359	0.113108	-0.086289
C36	C	0.959359	0.613108	0.413711
C37	C	0.366057	0.111469	-0.086290
C38	C	0.866057	0.611469	0.413710
C39	C	0.366047	0.111465	0.086321
C40	C	0.866047	0.611465	0.586321
C41	C	0.459342	0.113105	0.086321
C42	C	0.959342	0.613105	0.586321
C43	C	0.505995	0.113927	0.000012
C44	C	1.005995	0.613927	0.500012
C45	C	1.063149	-0.037179	0.000014
C46	C	1.563149	0.462821	0.500014
C47	C	1.061410	-0.129477	0.000007
C48	C	1.561410	0.370523	0.500007
C49	C	1.057403	-0.341815	-0.086290
C50	C	1.557403	0.158185	0.413710
C51	C	1.055761	-0.428537	-0.086289
C52	C	1.555761	0.071463	0.413711
C53	C	1.055747	-0.428542	0.086321
C54	C	1.555747	0.071458	0.586321
C55	C	1.057383	-0.341821	0.086320
C56	C	1.557383	0.158179	0.586320
C57	C	1.058215	-0.298460	0.000011
C58	C	1.558215	0.201540	0.500011
C59	C	1.054938	-0.471904	0.000014
C60	C	1.554938	0.028096	0.500014
C61	C	1.053157	-0.565932	0.000015
C62	C	1.553157	-0.065932	0.500015
C63	C	1.059993	-0.204426	0.000009
C64	C	1.559993	0.295574	0.500009
C65	C	1.220110	0.108909	0.000017
C66	C	1.720110	0.608909	0.500017
C67	C	1.319404	0.110647	0.000012
C68	C	1.819404	0.610647	0.500012
C69	C	1.050003	0.266816	0.000017
C70	C	1.550003	0.766816	0.500017
C71	C	1.051742	0.359113	0.000017
C72	C	1.551742	0.859113	0.500017
N73	N	1.056557	0.114806	0.246675
N74	N	1.556557	0.614806	0.746675
N75	N	1.056602	0.114824	-0.246642
N76	N	1.556602	0.614824	0.253358
C77	C	1.117400	0.058367	0.296494
C78	C	1.617400	0.558367	0.796494
C79	C	1.117406	0.058367	0.396151
C80	C	1.617406	0.558367	0.896151
C81	C	1.056573	0.114810	0.445988
C82	C	1.556573	0.614810	0.945988
C83	C	0.995723	0.171251	0.396163
C84	C	1.495723	0.671251	0.896163
C85	C	0.995713	0.171247	0.296507
C86	C	1.495713	0.671247	0.796507
C87	C	0.995749	0.171257	0.603877
C88	C	1.495749	0.671257	1.103877
C89	C	0.995759	0.171262	0.703540
C90	C	1.495759	0.671262	1.203540
C91	C	1.117442	0.058377	0.703521
C92	C	1.617442	0.558377	1.203521
C93	C	1.117432	0.058373	0.603865
C94	C	1.617432	0.558373	1.103865
C95	C	1.056583	0.114815	0.554047
C96	C	1.556583	0.614815	1.054047
H97	H	0.615821	0.115838	0.156591
H98	H	1.115821	0.615838	0.656591
H99	H	0.946196	0.217216	0.563318
H100	H	1.446196	0.717216	1.063318
O101	O	1.183010	-0.002514	0.242741
O102	O	1.683010	0.497486	0.742741
H103	H	1.225312	-0.041765	0.294130
H104	H	1.725312	0.458235	0.794130
O105	O	0.315744	0.110583	0.179421
O106	O	0.815744	0.610583	0.679421
H107	H	0.325658	0.167530	0.220783
H108	H	0.825658	0.667530	0.720783
O109	O	0.797436	0.119056	-0.179377
O110	O	1.297436	0.619056	0.320623
H111	H	0.749329	0.118221	-0.239389
H112	H	1.249329	0.618221	0.260611
O113	O	0.930130	0.232120	0.757299
O114	O	1.430130	0.732120	1.257299
H115	H	0.887802	0.271355	0.705917
H116	H	1.387802	0.771355	1.205917
H117	H	1.058039	-0.306520	0.156600
H118	H	1.558039	0.193480	0.656600
O119	O	1.183045	-0.002490	0.449888
O120	O	1.683045	0.497510	0.949888
H121	H	1.225357	-0.041727	0.398491
H122	H	1.725357	0.458273	0.898491
O123	O	0.315744	0.110582	-0.179369
O124	O	0.815744	0.610582	0.320631
H125	H	0.363858	0.111417	-0.239385
H126	H	0.863858	0.611417	0.260615
O127	O	0.930116	0.232134	0.449916
O128	O	1.430116	0.732134	0.949916
H129	H	0.887803	0.271376	0.398528
H130	H	1.387803	0.771376	0.898528
O131	O	0.797393	0.119059	0.179402
O132	O	1.297393	0.619059	0.679402
H133	H	0.847898	0.063189	0.183536
H134	H	1.347898	0.563189	0.683536
O135	O	1.054864	-0.475290	-0.179376
O136	O	1.554864	0.024710	0.320624
H137	H	1.116107	-0.466006	-0.220770
H138	H	1.616107	0.033994	0.279230
O139	O	0.509682	0.113999	-0.179377
O140	O	1.009682	0.613999	0.320623
H141	H	0.461575	0.113166	-0.239389
H142	H	0.961575	0.613166	0.260611
H143	H	1.058078	-0.306513	-0.156568
H144	H	1.558078	0.193487	0.343432
H145	H	1.166971	0.012417	0.563288
H146	H	1.666971	0.512417	1.063288
H147	H	0.615833	0.115852	-0.156564
H148	H	1.115833	0.615852	0.343436
O149	O	1.054876	-0.475312	0.179410
O150	O	1.554876	0.024688	0.679410
H151	H	1.053619	-0.542901	0.164914
H152	H	1.553619	-0.042901	0.664914
O153	O	1.183077	-0.002506	0.757239
O154	O	1.683077	0.497494	1.257239
H155	H	1.145453	-0.042984	0.802647
H156	H	1.645453	0.457016	1.302647
O157	O	0.509652	0.114014	0.179401
O158	O	1.009652	0.614014	0.679401
H159	H	0.461540	0.113169	0.239417
H160	H	0.961540	0.613169	0.739417
O161	O	0.930095	0.232123	0.242766
O162	O	1.430095	0.732123	0.742766
H163	H	0.887801	0.271378	0.294161
H164	H	1.387801	0.771378	0.794161
