data_functionalizedCrystal
_audit_creation_method	'MofGen! by Chris Wilmer'
_symmetry_space_group_name_H-M	'P1'
_symmetry_Int_Tables_number	1
_symmetry_cell_setting	triclinic
loop_
_symmetry_equiv_pos_as_xyz
  x,y,z
_cell_length_a	13.032831
_cell_length_b	16.625546
_cell_length_c	13.034296
_cell_angle_alpha	82.786634
_cell_angle_beta	74.814550
_cell_angle_gamma	82.826778
loop_
_atom_site_label
_atom_site_type_symbol
_atom_site_fract_x
_atom_site_fract_y
_atom_site_fract_z
Zn1	Zn	1.700150	-0.408761	-0.806419
Zn2	Zn	1.950150	-0.158761	-0.556419
Zn3	Zn	2.200150	0.091239	-0.306419
Zn4	Zn	2.450150	0.341239	-0.056419
Zn5	Zn	1.677445	-0.558797	-0.628778
Zn6	Zn	1.927445	-0.308797	-0.378778
Zn7	Zn	2.177445	-0.058797	-0.128778
Zn8	Zn	2.427445	0.191203	0.121222
Zn9	Zn	1.499953	-0.408768	-0.606300
Zn10	Zn	1.749953	-0.158768	-0.356300
Zn11	Zn	1.999953	0.091232	-0.106300
Zn12	Zn	2.249953	0.341232	0.143700
Zn13	Zn	1.522480	-0.528334	-0.783834
Zn14	Zn	1.772480	-0.278334	-0.533834
Zn15	Zn	2.022480	-0.028334	-0.283834
Zn16	Zn	2.272480	0.221666	-0.033834
O17	O	1.600007	-0.476165	-0.706333
O18	O	1.850007	-0.226165	-0.456333
O19	O	2.100007	0.023835	-0.206333
O20	O	2.350007	0.273835	0.043667
O21	O	1.845775	-0.441409	-0.801714
O22	O	2.095775	-0.191409	-0.551714
O23	O	2.345775	0.058591	-0.301714
O24	O	2.595775	0.308591	-0.051714
O25	O	1.634971	-0.551647	-0.477154
O26	O	1.884971	-0.301647	-0.227154
O27	O	2.134971	-0.051647	0.022846
O28	O	2.384971	0.198353	0.272846
O29	O	1.526584	-0.295937	-0.632892
O30	O	1.776584	-0.045937	-0.382892
O31	O	2.026584	0.204063	-0.132892
O32	O	2.276584	0.454063	0.117108
O33	O	1.829094	-0.551640	-0.671201
O34	O	2.079094	-0.301640	-0.421201
O35	O	2.329094	-0.051640	-0.171201
O36	O	2.579094	0.198360	0.078799
O37	O	1.673668	-0.295932	-0.779918
O38	O	1.923668	-0.045932	-0.529918
O39	O	2.173668	0.204068	-0.279918
O40	O	2.423668	0.454068	-0.029918
O41	O	1.504568	-0.441422	-0.460640
O42	O	1.754568	-0.191422	-0.210640
O43	O	2.004568	0.058578	0.039360
O44	O	2.254568	0.308578	0.289360
O45	O	1.354305	-0.411883	-0.610992
O46	O	1.604305	-0.161883	-0.360992
O47	O	1.854305	0.088117	-0.110992
O48	O	2.104305	0.338117	0.139008
O49	O	1.564978	-0.499720	-0.935472
O50	O	1.814978	-0.249720	-0.685472
O51	O	2.064978	0.000280	-0.435472
O52	O	2.314978	0.250280	-0.185472
O53	O	1.370855	-0.499728	-0.741425
O54	O	1.620855	-0.249728	-0.491425
O55	O	1.870855	0.000272	-0.241425
O56	O	2.120855	0.250272	0.008575
O57	O	1.695512	-0.411870	-0.952065
O58	O	1.945512	-0.161870	-0.702065
O59	O	2.195512	0.088130	-0.452065
O60	O	2.445512	0.338130	-0.202065
O61	O	1.656815	-0.667586	-0.649301
O62	O	1.906815	-0.417586	-0.399301
O63	O	2.156815	-0.167586	-0.149301
O64	O	2.406815	0.082414	0.100699
O65	O	1.542963	-0.645205	-0.763220
O66	O	1.792963	-0.395205	-0.513220
O67	O	2.042963	-0.145205	-0.263220
O68	O	2.292963	0.104795	-0.013220
C69	C	1.324040	-0.452501	-0.671319
C70	C	1.574040	-0.202501	-0.421319
C71	C	1.824040	0.047499	-0.171319
C72	C	2.074040	0.297499	0.078681
C73	C	1.205984	-0.442395	-0.656365
C74	C	1.455984	-0.192395	-0.406365
C75	C	1.705984	0.057605	-0.156365
C76	C	1.955984	0.307605	0.093635
C77	C	1.599901	-0.685651	-0.706276
C78	C	1.849901	-0.435651	-0.456276
C79	C	2.099901	-0.185651	-0.206276
C80	C	2.349901	0.064349	0.043724
C81	C	1.599957	-0.775275	-0.706299
C82	C	1.849957	-0.525275	-0.456299
C83	C	2.099957	-0.275275	-0.206299
C84	C	2.349957	-0.025275	0.043701
C85	C	1.161555	-0.481440	-0.714137
C86	C	1.411555	-0.231440	-0.464137
C87	C	1.661555	0.018560	-0.214137
C88	C	1.911555	0.268560	0.035863
C89	C	1.039537	-0.470995	-0.698683
C90	C	1.289537	-0.220995	-0.448683
C91	C	1.539537	0.029005	-0.198683
C92	C	1.789537	0.279005	0.051317
C93	C	1.600157	-1.103457	-0.706433
C94	C	1.850157	-0.853457	-0.456433
C95	C	2.100157	-0.603457	-0.206433
C96	C	2.350157	-0.353457	0.043567
C97	C	1.600098	-1.012146	-0.706398
C98	C	1.850098	-0.762146	-0.456398
C99	C	2.100098	-0.512146	-0.206398
C100	C	2.350098	-0.262146	0.043602
C101	C	1.600056	-0.939369	-0.706365
C102	C	1.850056	-0.689369	-0.456365
C103	C	2.100056	-0.439369	-0.206365
C104	C	2.350056	-0.189369	0.043635
C105	C	1.599999	-0.848053	-0.706332
C106	C	1.849999	-0.598053	-0.456332
C107	C	2.099999	-0.348053	-0.206332
C108	C	2.349999	-0.098053	0.043668
C109	C	1.877052	-0.499922	-0.741484
C110	C	2.127052	-0.249922	-0.491484
C111	C	2.377052	0.000078	-0.241484
C112	C	2.627052	0.250078	0.008516
C113	C	1.995112	-0.510046	-0.756463
C114	C	2.245112	-0.260046	-0.506463
C115	C	2.495112	-0.010046	-0.256463
C116	C	2.745112	0.239954	-0.006463
C117	C	1.635290	-0.452396	-0.983387
C118	C	1.885290	-0.202396	-0.733387
C119	C	2.135290	0.047604	-0.483387
C120	C	2.385290	0.297604	-0.233387
C121	C	1.650326	-0.442268	-1.101452
C122	C	1.900326	-0.192268	-0.851452
C123	C	2.150326	0.057732	-0.601452
C124	C	2.400326	0.307732	-0.351452
C125	C	1.600146	-0.265861	-0.706417
C126	C	1.850146	-0.015861	-0.456417
C127	C	2.100146	0.234139	-0.206417
C128	C	2.350146	0.484139	0.043583
C129	C	1.600205	-0.176242	-0.706453
C130	C	1.850205	0.073758	-0.456453
C131	C	2.100205	0.323758	-0.206453
C132	C	2.350205	0.573758	0.043547
C133	C	1.592444	-0.481218	-1.145878
C134	C	1.842444	-0.231218	-0.895878
C135	C	2.092444	0.018782	-0.645878
C136	C	2.342444	0.268782	-0.395878
C137	C	1.607983	-0.470751	-1.267903
C138	C	1.857983	-0.220751	-1.017903
C139	C	2.107983	0.029249	-0.767903
C140	C	2.357983	0.279249	-0.517903
C141	C	1.564922	-0.499788	-0.430364
C142	C	1.814922	-0.249788	-0.180364
C143	C	2.064922	0.000212	0.069636
C144	C	2.314922	0.250212	0.319636
C145	C	1.550093	-0.509707	-0.312326
C146	C	1.800093	-0.259707	-0.062326
C147	C	2.050093	-0.009707	0.187674
C148	C	2.300093	0.240293	0.437674
H149	H	1.213851	-0.522596	-0.775043
H150	H	1.463851	-0.272596	-0.525043
H151	H	1.713851	-0.022596	-0.275043
H152	H	1.963851	0.227404	-0.025043
H153	H	0.987245	-0.429829	-0.637781
H154	H	1.237245	-0.179829	-0.387781
H155	H	1.487245	0.070171	-0.137781
H156	H	1.737245	0.320171	0.112219
F157	F	1.470286	-0.563435	-1.243974
F158	F	1.720286	-0.313435	-0.993974
F159	F	1.970286	-0.063435	-0.743974
F160	F	2.220286	0.186565	-0.493974
F161	F	1.063457	-0.563838	-0.836087
F162	F	1.313457	-0.313838	-0.586087
F163	F	1.563457	-0.063838	-0.336087
F164	F	1.813457	0.186162	-0.086087
F165	F	1.730141	-0.388555	-1.169812
F166	F	1.980141	-0.138555	-0.919812
F167	F	2.230141	0.111445	-0.669812
F168	F	2.480141	0.361445	-0.419812
H169	H	1.531390	-0.522318	-1.093575
H170	H	1.781390	-0.272318	-0.843575
H171	H	2.031390	-0.022318	-0.593575
H172	H	2.281390	0.227682	-0.343575
F173	F	1.137635	-0.388589	-0.576765
F174	F	1.387635	-0.138589	-0.326765
F175	F	1.637635	0.111411	-0.076765
F176	F	1.887635	0.361411	0.173235
F177	F	1.687802	-0.417035	-1.336260
F178	F	1.937802	-0.167035	-1.086260
F179	F	2.187802	0.082965	-0.836260
F180	F	2.437802	0.332965	-0.586260
