data_functionalizedCrystal
_audit_creation_method	'MofGen! by Chris Wilmer'
_symmetry_space_group_name_H-M	'P1'
_symmetry_Int_Tables_number	1
_symmetry_cell_setting	triclinic
loop_
_symmetry_equiv_pos_as_xyz
  x,y,z
_cell_length_a	15.995343
_cell_length_b	16.109301
_cell_length_c	15.186229
_cell_angle_alpha	89.998944
_cell_angle_beta	90.001292
_cell_angle_gamma	83.475384
loop_
_atom_site_label
_atom_site_type_symbol
_atom_site_fract_x
_atom_site_fract_y
_atom_site_fract_z
O1	O	1.110962	0.107130	0.073138
O2	O	0.867183	0.120370	0.073158
O3	O	0.995769	-0.007279	0.073145
O4	O	0.982376	0.234779	0.073151
O5	O	0.995754	-0.007272	-0.073313
O6	O	0.867168	0.120378	-0.073299
O7	O	1.110947	0.107137	-0.073320
Zn8	Zn	0.989055	0.113759	-0.096563
Zn9	Zn	0.989075	0.113749	0.096401
O10	O	0.982361	0.234787	-0.073306
C11	C	0.835980	0.119828	-0.000068
C12	C	0.743030	0.118190	-0.000060
C13	C	0.572844	0.115218	-0.000071
C14	C	0.549524	0.023074	-0.000074
C15	C	0.452847	0.021341	-0.000411
C16	C	0.405286	0.112290	-0.000082
C17	C	0.434356	0.158625	-0.083549
C18	C	0.531148	0.159718	-0.083614
C19	C	0.531075	0.161059	0.082942
C20	C	0.434581	0.157657	0.084033
C21	C	0.310588	0.110640	-0.000091
C22	C	0.667542	0.116870	-0.000068
C23	C	0.995219	-0.038251	-0.000083
C24	C	0.993593	-0.130546	-0.000079
C25	C	1.142150	0.107680	-0.000092
C26	C	1.235100	0.109317	-0.000094
C27	C	0.982911	0.265758	-0.000077
C28	C	0.984537	0.358054	-0.000074
N29	N	0.989048	0.113765	-0.228255
C30	C	0.913554	0.667035	-0.000065
C31	C	0.912018	0.580314	-0.000066
C32	C	1.064582	0.560478	-0.000092
C33	C	1.066117	0.647197	-0.000096
C34	C	0.990601	0.700474	-0.000078
C35	C	0.987529	0.527034	-0.000075
C36	C	0.985864	0.433008	-0.000077
C37	C	0.992266	0.794506	-0.000079
C38	C	1.039829	0.164205	-0.453981
C39	C	1.039838	0.164199	-0.546171
C40	C	0.938305	0.063290	-0.546174
C41	C	0.938301	0.063292	-0.453986
C42	C	0.989062	0.113754	-0.407892
C43	C	0.989075	0.113746	-0.592269
C44	C	0.989084	0.113740	-0.692226
C45	C	0.989054	0.113760	-0.307929
N46	N	0.989089	0.113736	0.228094
H47	H	0.434413	-0.014754	-0.060596
H48	H	0.557936	0.128010	-0.146245
Cl49	Cl	0.818620	0.734008	-0.000048
Cl50	Cl	0.815155	0.538281	-0.000050
Cl51	Cl	0.553624	0.264040	-0.089113
H52	H	1.081179	0.205280	-0.583693
Cl53	Cl	0.592790	-0.032078	0.092323
Cl54	Cl	0.423503	-0.034658	0.091946
Cl55	Cl	0.594274	-0.031168	-0.092351
Cl56	Cl	0.385162	0.261970	-0.087982
H57	H	1.126064	0.517090	-0.000105
H58	H	0.896977	0.022207	-0.583715
Cl59	Cl	1.162984	0.689237	-0.000115
Cl60	Cl	1.103649	0.227636	-0.396037
Cl61	Cl	0.874472	-0.000135	-0.396040
H62	H	0.414266	0.126839	-0.145902
H63	H	0.559360	0.131985	0.146227
H64	H	0.416039	0.123914	0.145783
H65	H	0.401607	0.224019	0.089334
H66	H	0.545070	0.228882	0.083748
