data_functionalizedCrystal
_audit_creation_method	'MofGen! by Chris Wilmer'
_symmetry_space_group_name_H-M	'P1'
_symmetry_Int_Tables_number	1
_symmetry_cell_setting	triclinic
loop_
_symmetry_equiv_pos_as_xyz
  x,y,z
_cell_length_a	13.339070
_cell_length_b	16.109301
_cell_length_c	14.586319
_cell_angle_alpha	89.998390
_cell_angle_beta	90.007320
_cell_angle_gamma	80.454613
loop_
_atom_site_label
_atom_site_type_symbol
_atom_site_fract_x
_atom_site_fract_y
_atom_site_fract_z
O1	O	1.342148	-0.416770	0.076285
O2	O	1.842148	0.083230	0.576285
O3	O	1.047639	-0.362066	0.076278
O4	O	1.547639	0.137934	0.576278
O5	O	1.202984	-0.270255	0.076272
O6	O	1.702984	0.229745	0.576272
O7	O	1.186803	-0.508581	0.076291
O8	O	1.686803	-0.008581	0.576291
O9	O	1.202965	-0.270258	-0.076208
O10	O	1.702965	0.229742	0.423792
O11	O	1.047620	-0.362069	-0.076203
O12	O	1.547620	0.137931	0.423797
O13	O	1.342129	-0.416773	-0.076196
O14	O	1.842129	0.083227	0.423804
Cu15	Cu	1.194873	-0.389421	-0.090122
Cu16	Cu	1.694873	0.110579	0.409878
Cu17	Cu	1.194895	-0.389417	0.090204
Cu18	Cu	1.694895	0.110583	0.590204
O19	O	1.186784	-0.508584	-0.076190
O20	O	1.686784	-0.008584	0.423810
C21	C	1.009943	-0.352827	0.000037
C22	C	1.509943	0.147173	0.500037
C23	C	0.897651	-0.325282	0.000034
C24	C	1.397651	0.174718	0.500034
C25	C	1.202319	-0.239130	0.000032
C26	C	1.702319	0.260870	0.500032
C27	C	1.200354	-0.146381	0.000030
C28	C	1.700354	0.353619	0.500030
N29	N	1.194864	-0.389425	-0.216954
N30	N	1.694864	0.110575	0.283046
C31	C	0.532787	-0.539450	0.000065
C32	C	1.032787	-0.039450	0.500065
C33	C	0.638291	-0.565332	0.000070
C34	C	1.138291	-0.065332	0.500070
C35	C	0.703136	-0.505322	0.000061
C36	C	1.203136	-0.005322	0.500061
C37	C	0.662467	-0.419426	0.000046
C38	C	1.162467	0.080574	0.500046
C39	C	0.556952	-0.393541	0.000048
C40	C	1.056952	0.106459	0.500048
C41	C	0.727301	-0.359413	0.000044
C42	C	1.227301	0.140587	0.500044
C43	C	0.686632	-0.273517	0.000030
C44	C	1.186632	0.226483	0.500030
C45	C	0.581127	-0.247637	0.000030
C46	C	1.081127	0.252363	0.500030
C47	C	0.516283	-0.307647	0.000040
C48	C	1.016283	0.192353	0.500040
C49	C	0.832816	-0.385297	0.000043
C50	C	1.332816	0.114703	0.500043
C51	C	0.856981	-0.239388	0.000026
C52	C	1.356981	0.260612	0.500026
C53	C	0.751477	-0.213506	0.000020
C54	C	1.251477	0.286494	0.500020
C55	C	1.379825	-0.426012	0.000048
C56	C	1.879825	0.073988	0.500048
C57	C	1.492117	-0.453556	0.000057
C58	C	1.992117	0.046444	0.500057
C59	C	1.187449	-0.539708	0.000053
C60	C	1.687449	-0.039708	0.500053
C61	C	1.189414	-0.632457	0.000060
C62	C	1.689414	-0.132457	0.500060
C63	C	1.287963	0.055662	0.000047
C64	C	1.787963	0.555662	0.500047
C65	C	1.286109	0.142810	0.000054
C66	C	1.786109	0.642810	0.500054
C67	C	1.101798	0.165494	0.000046
C68	C	1.601798	0.665494	0.500046
C69	C	1.103653	0.078347	0.000045
C70	C	1.603653	0.578347	0.500045
C71	C	1.196739	0.023433	0.000041
C72	C	1.696739	0.523433	0.500041
C73	C	1.193029	0.197729	0.000049
C74	C	1.693029	0.697729	0.500049
C75	C	1.191018	0.292219	0.000058
C76	C	1.691018	0.792219	0.500058
C77	C	1.198750	-0.071064	0.000035
C78	C	1.698750	0.428936	0.500035
C79	C	1.256212	-0.454019	-0.451954
C80	C	1.756212	0.045981	0.048046
C81	C	1.256223	-0.454016	-0.547936
C82	C	1.756223	0.045984	-0.047936
C83	C	1.133561	-0.324808	-0.547956
C84	C	1.633561	0.175192	-0.047956
C85	C	1.133557	-0.324809	-0.451977
C86	C	1.633557	0.175191	0.048023
C87	C	1.194880	-0.389419	-0.403978
C88	C	1.694880	0.110581	0.096022
C89	C	1.194895	-0.389415	-0.595939
C90	C	1.694895	0.110585	-0.095939
C91	C	1.194906	-0.389411	-0.700006
C92	C	1.694906	0.110589	-0.200006
C93	C	1.194871	-0.389422	-0.299905
C94	C	1.694871	0.110578	0.200095
N95	N	1.194912	-0.389409	0.217036
N96	N	1.694912	0.110591	0.717036
H97	H	0.789042	-0.526400	0.000068
H98	H	1.289042	-0.026400	0.500068
H99	H	0.909778	-0.190522	0.000022
H100	H	1.409778	0.309478	0.500022
H101	H	0.718348	-0.143568	0.000016
H102	H	1.218348	0.356432	0.500016
N103	N	1.322381	-0.523699	-0.599664
N104	N	1.822381	-0.023699	-0.099664
H105	H	1.278341	-0.554217	-0.639497
H106	H	1.778341	-0.054217	-0.139497
H107	H	1.371905	-0.498891	-0.639419
H108	H	1.871905	0.001109	-0.139419
H109	H	1.083633	-0.272206	-0.587048
H110	H	1.583633	0.227794	-0.087048
H111	H	1.026010	0.210216	0.000048
H112	H	1.526010	0.710216	0.500048
H113	H	0.671396	-0.635268	0.000089
H114	H	1.171396	-0.135268	0.500089
N115	N	1.067410	-0.255126	-0.400223
N116	N	1.567410	0.244874	0.099777
H117	H	1.028558	-0.214199	-0.445192
H118	H	1.528558	0.285801	0.054808
H119	H	1.017949	-0.279944	-0.360405
H120	H	1.517949	0.220056	0.139595
N121	N	1.005250	0.043589	0.000032
N122	N	1.505250	0.543589	0.500032
H123	H	1.001910	0.007939	-0.056493
H124	H	1.501910	0.507939	0.443507
H125	H	1.001972	0.007976	0.056594
H126	H	1.501972	0.507976	0.556594
N127	N	0.462854	-0.604170	0.000083
N128	N	0.962854	-0.104170	0.500083
H129	H	0.418554	-0.596675	0.056611
H130	H	0.918554	-0.096675	0.556611
H131	H	0.418591	-0.596653	-0.056476
H132	H	0.918591	-0.096653	0.443524
N133	N	0.876666	-0.477937	0.000060
N134	N	1.376666	0.022063	0.500060
H135	H	0.853009	-0.505328	-0.056460
H136	H	1.353009	-0.005328	0.443540
H137	H	0.953337	-0.485165	0.000095
H138	H	1.453337	0.014835	0.500095
H139	H	0.430371	-0.286578	0.000035
H140	H	0.930371	0.213422	0.500035
N141	N	1.388358	-0.003569	0.000043
N142	N	1.888358	0.496431	0.500043
H143	H	1.445866	0.030076	0.000050
H144	H	1.945866	0.530076	0.500050
H145	H	1.393147	-0.040224	0.056569
H146	H	1.893147	0.459776	0.556569
H147	H	1.360393	0.169046	0.000061
H148	H	1.860393	0.669046	0.500061
H149	H	0.548018	-0.177695	0.000029
H150	H	1.048018	0.322305	0.500029
N151	N	1.322354	-0.523699	-0.400182
N152	N	1.822354	-0.023699	0.099818
H153	H	1.361211	-0.564621	-0.445143
H154	H	1.861211	-0.064621	0.054857
H155	H	1.371811	-0.498879	-0.360352
H156	H	1.871811	0.001121	0.139648
