data_functionalizedCrystal
_audit_creation_method	'MofGen! by Chris Wilmer'
_symmetry_space_group_name_H-M	'P1'
_symmetry_Int_Tables_number	1
_symmetry_cell_setting	triclinic
loop_
_symmetry_equiv_pos_as_xyz
  x,y,z
_cell_length_a	18.215407
_cell_length_b	14.909042
_cell_length_c	18.215399
_cell_angle_alpha	93.320692
_cell_angle_beta	90.017813
_cell_angle_gamma	86.713748
loop_
_atom_site_label
_atom_site_type_symbol
_atom_site_fract_x
_atom_site_fract_y
_atom_site_fract_z
Zn1	Zn	1.142024	-0.359295	0.399190
Zn2	Zn	1.475357	-0.025961	0.732523
Zn3	Zn	1.808690	0.307372	1.065857
Zn4	Zn	1.149050	-0.510161	0.269033
Zn5	Zn	1.482383	-0.176828	0.602367
Zn6	Zn	1.815717	0.156506	0.935700
Zn7	Zn	1.018957	-0.359309	0.276141
Zn8	Zn	1.352290	-0.025975	0.609474
Zn9	Zn	1.685624	0.307358	0.942808
Zn10	Zn	1.026037	-0.510095	0.392066
Zn11	Zn	1.359370	-0.176762	0.725399
Zn12	Zn	1.692704	0.156572	1.058732
O13	O	1.084017	-0.434715	0.334108
O14	O	1.417350	-0.101381	0.667441
O15	O	1.750684	0.231952	1.000774
O16	O	1.245941	-0.379329	0.381931
O17	O	1.579274	-0.045996	0.715265
O18	O	1.912608	0.287338	1.048598
O19	O	1.131770	-0.490183	0.166990
O20	O	1.465104	-0.156850	0.500324
O21	O	1.798437	0.176483	0.833657
O22	O	1.029378	-0.233064	0.298420
O23	O	1.362712	0.100269	0.631753
O24	O	1.696045	0.433603	0.965087
O25	O	1.251103	-0.490170	0.286306
O26	O	1.584437	-0.156837	0.619639
O27	O	1.917770	0.176497	0.952973
O28	O	1.119795	-0.233054	0.388824
O29	O	1.453128	0.100280	0.722157
O30	O	1.786462	0.433613	1.055490
O31	O	1.036192	-0.379353	0.172212
O32	O	1.369525	-0.046019	0.505546
O33	O	1.702858	0.287314	0.838879
O34	O	0.916911	-0.379289	0.291512
O35	O	1.250244	-0.045956	0.624845
O36	O	1.583578	0.287378	0.958179
O37	O	1.041445	-0.490058	0.495997
O38	O	1.374779	-0.156724	0.829330
O39	O	1.708112	0.176609	1.162663
O40	O	0.922113	-0.490071	0.376681
O41	O	1.255446	-0.156738	0.710015
O42	O	1.588779	0.176596	1.043348
O43	O	1.126660	-0.379265	0.501231
O44	O	1.459994	-0.045932	0.834564
O45	O	1.793327	0.287401	1.167898
O46	O	1.138636	-0.636395	0.279398
O47	O	1.471969	-0.303062	0.612731
O48	O	1.805302	0.030272	0.946064
O49	O	1.048259	-0.636347	0.369789
O50	O	1.381592	-0.303013	0.703122
O51	O	1.714925	0.030320	1.036456
C52	C	0.892809	-0.434675	0.334095
C53	C	1.226142	-0.101342	0.667428
C54	C	1.559475	0.231992	1.000762
C55	C	0.811010	-0.434680	0.334106
C56	C	1.144343	-0.101346	0.667440
C57	C	1.477677	0.231987	1.000773
C58	C	1.094998	-0.669104	0.323065
C59	C	1.428331	-0.335771	0.656398
C60	C	1.761665	-0.002437	0.989732
C61	C	1.099763	-0.769377	0.318366
C62	C	1.433096	-0.436043	0.651699
C63	C	1.766430	-0.102710	0.985032
C64	C	0.543266	-0.377111	0.383970
C65	C	0.876599	-0.043778	0.717303
C66	C	1.209933	0.289556	1.050636
C67	C	0.620124	-0.377097	0.383968
C68	C	0.953457	-0.043763	0.717301
C69	C	1.286791	0.289570	1.050635
C70	C	0.625511	-0.492348	0.284260
C71	C	0.958844	-0.159014	0.617594
C72	C	1.292177	0.174319	0.950927
C73	C	0.548654	-0.492366	0.284266
C74	C	0.881988	-0.159033	0.617599
C75	C	1.215321	0.174301	0.950933
C76	C	0.507534	-0.434743	0.334120
C77	C	0.840867	-0.101409	0.667453
C78	C	1.174200	0.231924	1.000786
C79	C	0.661248	-0.434710	0.334112
C80	C	0.994581	-0.101376	0.667446
C81	C	1.327915	0.231957	1.000779
C82	C	0.744581	-0.434694	0.334110
C83	C	1.077914	-0.101361	0.667444
C84	C	1.411248	0.231972	1.000777
C85	C	0.424195	-0.434759	0.334123
C86	C	0.757529	-0.101426	0.667456
C87	C	1.090862	0.231908	1.000790
C88	C	1.014517	-0.957814	0.403578
C89	C	1.347850	-0.624481	0.736911
C90	C	1.681183	-0.291147	1.070245
C91	C	1.018992	-1.052029	0.399165
C92	C	1.352325	-0.718696	0.732498
C93	C	1.685658	-0.385363	1.065832
C94	C	1.113183	-1.052024	0.305124
C95	C	1.446517	-0.718691	0.638457
C96	C	1.779850	-0.385357	0.971790
C97	C	1.108708	-0.957809	0.309536
C98	C	1.442042	-0.624476	0.642870
C99	C	1.775375	-0.291142	0.976203
C100	C	1.059374	-0.910707	0.358766
C101	C	1.392708	-0.577374	0.692100
C102	C	1.726041	-0.244040	1.025433
C103	C	1.054904	-0.816490	0.363182
C104	C	1.388237	-0.483157	0.696516
C105	C	1.721570	-0.149824	1.029849
C106	C	1.149091	-0.816487	0.269138
C107	C	1.482425	-0.483153	0.602471
C108	C	1.815758	-0.149820	0.935804
C109	C	1.153566	-0.910702	0.264725
C110	C	1.486899	-0.577369	0.598058
C111	C	1.820233	-0.244035	0.931391
C112	C	1.275972	-0.434755	0.334121
C113	C	1.609305	-0.101422	0.667454
C114	C	1.942638	0.231911	1.000787
C115	C	1.357771	-0.434773	0.334126
C116	C	1.691105	-0.101439	0.667459
C117	C	2.024438	0.231894	1.000793
C118	C	1.084059	-0.434653	0.526064
C119	C	1.417392	-0.101319	0.859397
C120	C	1.750726	0.232014	1.192730
C121	C	1.084077	-0.434626	0.607864
C122	C	1.417410	-0.101293	0.941197
C123	C	1.750743	0.232041	1.274530
C124	C	1.073013	-0.199410	0.345209
C125	C	1.406346	0.133923	0.678543
C126	C	1.739680	0.467256	1.011876
C127	C	1.068324	-0.099137	0.349940
C128	C	1.401657	0.234196	0.683274
C129	C	1.734991	0.567529	1.016607
C130	C	1.084014	-0.434712	0.142902
C131	C	1.417348	-0.101378	0.476235
C132	C	1.750681	0.231955	0.809568
C133	C	1.084127	-0.434484	0.061114
C134	C	1.417461	-0.101151	0.394447
C135	C	1.750794	0.232183	0.727780
C136	C	1.128462	-0.376883	0.798787
C137	C	1.461796	-0.043549	1.132120
C138	C	1.795129	0.289784	1.465454
C139	C	1.128470	-0.376856	0.875647
C140	C	1.461803	-0.043523	1.208980
C141	C	1.795137	0.289810	1.542314
C142	C	1.039736	-0.492230	0.870185
C143	C	1.373070	-0.158897	1.203518
C144	C	1.706403	0.174437	1.536852
C145	C	1.039725	-0.492251	0.793327
C146	C	1.373059	-0.158918	1.126660
C147	C	1.706392	0.174415	1.459993
C148	C	1.084093	-0.434579	0.757630
C149	C	1.417426	-0.101245	1.090963
C150	C	1.750759	0.232088	1.424296
C151	C	1.084111	-0.434531	0.911348
C152	C	1.417445	-0.101198	1.244681
C153	C	1.750778	0.232135	1.578015
C154	C	1.084119	-0.434503	0.994683
C155	C	1.417452	-0.101170	1.328016
C156	C	1.750786	0.232163	1.661350
C157	C	1.084084	-0.434605	0.674289
C158	C	1.417417	-0.101272	1.007623
C159	C	1.750751	0.232061	1.340956
H160	H	0.649214	-0.330168	0.424561
H161	H	0.982547	0.003165	0.757895
H162	H	1.315880	0.336499	1.091228
O163	O	0.669860	-0.554485	0.230481
O164	O	1.003194	-0.221152	0.563814
O165	O	1.336527	0.112182	0.897147
H166	H	0.729307	-0.544782	0.238844
H167	H	1.062640	-0.211449	0.572177
H168	H	1.395973	0.121884	0.905510
O169	O	0.510105	-0.554522	0.230492
O170	O	0.843439	-0.221189	0.563826
O171	O	1.176772	0.112145	0.897159
H172	H	0.551609	-0.594576	0.195816
H173	H	0.884942	-0.261243	0.529149
H174	H	1.218276	0.072090	0.862482
H175	H	1.164599	-0.329873	0.909154
H176	H	1.497932	0.003461	1.242488
H177	H	1.831266	0.336794	1.575821
H178	H	1.164587	-0.329919	0.769725
H179	H	1.497920	0.003414	1.103058
H180	H	1.831254	0.336747	1.436392
H181	H	0.509787	-0.330190	0.424564
H182	H	0.843121	0.003143	0.757897
H183	H	1.176454	0.336476	1.091230
O184	O	1.001687	-0.765681	0.416268
O185	O	1.335021	-0.432348	0.749601
O186	O	1.668354	-0.099015	1.082934
H187	H	0.971239	-0.814270	0.446678
H188	H	1.304572	-0.480937	0.780011
H189	H	1.637906	-0.147604	1.113344
H190	H	1.003616	-0.539187	0.899259
H191	H	1.336949	-0.205854	1.232592
H192	H	1.670283	0.127480	1.565926
H193	H	0.974352	-0.919463	0.443668
H194	H	1.307685	-0.586130	0.777001
H195	H	1.641019	-0.252797	1.110335
H196	H	0.982466	-1.090380	0.435657
H197	H	1.315799	-0.757047	0.768991
H198	H	1.649132	-0.423713	1.102324
H199	H	1.003589	-0.539234	0.759815
H200	H	1.336922	-0.205900	1.093148
H201	H	1.670256	0.127433	1.426482
H202	H	1.153342	-1.090390	0.265036
H203	H	1.486675	-0.757057	0.598370
H204	H	1.820009	-0.423724	0.931703
H205	H	1.193730	-0.949065	0.224641
H206	H	1.527064	-0.615732	0.557975
H207	H	1.860397	-0.282398	0.891308
H208	H	1.185620	-0.778122	0.232651
H209	H	1.518953	-0.444788	0.565984
H210	H	1.852286	-0.111455	0.899318
