data_functionalizedCrystal
_audit_creation_method	'MofGen! by Chris Wilmer'
_symmetry_space_group_name_H-M	'P1'
_symmetry_Int_Tables_number	1
_symmetry_cell_setting	triclinic
loop_
_symmetry_equiv_pos_as_xyz
  x,y,z
_cell_length_a	14.044220
_cell_length_b	10.654550
_cell_length_c	9.730223
_cell_angle_alpha	90.000043
_cell_angle_beta	89.994583
_cell_angle_gamma	91.163096
loop_
_atom_site_label
_atom_site_type_symbol
_atom_site_fract_x
_atom_site_fract_y
_atom_site_fract_z
O1	O	0.133232	-1.681228	-0.114191
O2	O	0.145925	-1.317025	-0.114216
O3	O	0.001558	-1.493659	-0.114190
O4	O	0.277599	-1.504593	-0.114217
O5	O	0.001554	-1.493647	0.114390
O6	O	0.145921	-1.317012	0.114364
O7	O	0.133228	-1.681215	0.114389
Zn8	Zn	0.139574	-1.499111	0.150668
Zn9	Zn	0.139579	-1.499128	-0.150496
O10	O	0.277595	-1.504580	0.114363
C11	C	-0.033790	-1.488867	0.000100
C12	C	-0.139110	-1.474592	0.000101
C13	C	0.144991	-1.270127	0.000070
C14	C	0.142202	-1.130403	0.000061
C15	C	0.134162	-1.728113	0.000099
C16	C	0.136950	-1.867836	0.000100
C17	C	-0.331943	-1.448493	0.000079
C18	C	-0.388910	-1.549741	0.000082
C19	C	-0.496209	-1.535219	0.000070
C20	C	-0.224634	-1.463013	0.000091
C21	C	0.312943	-1.509372	0.000070
C22	C	0.418262	-1.523648	0.000060
N23	N	0.139570	-1.499109	0.356205
C24	C	0.227204	-1.059459	0.000057
C25	C	0.224578	-0.928175	0.000081
C26	C	0.051942	-0.938790	0.000108
C27	C	0.054569	-1.070072	0.000094
N28	N	0.139576	-1.499140	-0.356032
C29	C	0.075671	-1.577355	0.428142
C30	C	0.075671	-1.577367	0.572025
C31	C	0.203477	-1.420885	0.572021
C32	C	0.203471	-1.420867	0.428140
H33	H	-0.357098	-1.647328	-0.000004
H34	H	-0.363754	-1.350913	0.000069
H35	H	0.255506	-1.357144	0.369565
C36	C	0.323603	-1.125819	0.000039
N37	N	0.396213	-1.175797	0.000032
C38	C	0.318086	-0.850142	0.000083
N39	N	0.388521	-0.791368	0.000088
C40	C	0.005370	-1.663433	0.651150
N41	N	-0.047588	-1.728257	0.710746
C42	C	-0.044449	-0.872413	0.000131
N43	N	-0.117054	-0.822419	0.000143
H44	H	-0.014653	-1.127837	0.000101
C45	C	0.005369	-1.663412	0.349018
N46	N	-0.047587	-1.728229	0.289426
H47	H	0.255506	-1.357184	0.630605
