data_functionalizedCrystal
_audit_creation_method	'MofGen! by Chris Wilmer'
_symmetry_space_group_name_H-M	'P1'
_symmetry_Int_Tables_number	1
_symmetry_cell_setting	triclinic
loop_
_symmetry_equiv_pos_as_xyz
  x,y,z
_cell_length_a	14.044220
_cell_length_b	16.109301
_cell_length_c	15.186229
_cell_angle_alpha	90.005167
_cell_angle_beta	89.997033
_cell_angle_gamma	91.674821
loop_
_atom_site_label
_atom_site_type_symbol
_atom_site_fract_x
_atom_site_fract_y
_atom_site_fract_z
O1	O	1.257643	-0.200436	-0.073232
O2	O	1.757643	0.299564	0.426768
O3	O	0.981676	-0.193203	-0.073234
O4	O	1.481676	0.306797	0.426766
O5	O	1.127241	-0.076352	-0.073224
O6	O	1.627241	0.423648	0.426776
O7	O	1.112079	-0.317286	-0.073242
O8	O	1.612079	0.182714	0.426758
O9	O	1.127231	-0.076350	0.073233
O10	O	1.627231	0.423650	0.573233
O11	O	0.981667	-0.193200	0.073223
O12	O	1.481667	0.306800	0.573223
O13	O	1.257634	-0.200433	0.073225
O14	O	1.757634	0.299567	0.573225
Zn15	Zn	1.119649	-0.196816	0.096478
Zn16	Zn	1.619649	0.303184	0.596478
Zn17	Zn	1.119661	-0.196820	-0.096486
Zn18	Zn	1.619661	0.303180	0.403514
O19	O	1.112069	-0.317284	0.073215
O20	O	1.612069	0.182716	0.573215
C21	C	1.126622	-0.045330	0.000005
C22	C	1.626622	0.454670	0.500005
C23	C	1.124781	0.047102	0.000006
C24	C	1.624781	0.547102	0.500006
C25	C	0.946358	-0.190036	-0.000005
C26	C	1.446358	0.309964	0.499995
C27	C	0.841135	-0.180592	-0.000006
C28	C	1.341135	0.319408	0.499994
C29	C	1.292952	-0.203600	-0.000005
C30	C	1.792952	0.296400	0.499995
C31	C	1.398175	-0.213044	-0.000010
C32	C	1.898175	0.286956	0.499990
C33	C	1.590831	-0.230310	-0.000011
C34	C	2.090831	0.269690	0.499989
C35	C	1.648485	-0.163330	-0.000005
C36	C	2.148485	0.336670	0.499995
C37	C	1.755685	-0.172937	-0.000006
C38	C	2.255685	0.327063	0.499994
C39	C	1.483620	-0.220704	-0.000011
C40	C	1.983620	0.279296	0.499989
C41	C	1.112688	-0.348306	-0.000016
C42	C	1.612688	0.151694	0.499984
C43	C	1.114529	-0.440738	-0.000023
C44	C	1.614529	0.059262	0.499977
N45	N	1.119647	-0.196814	0.228170
N46	N	1.619647	0.303186	0.728170
C47	C	1.206874	0.263266	-0.000007
C48	C	1.706874	0.763266	0.499993
C49	C	1.205137	0.350116	-0.000014
C50	C	1.705137	0.850116	0.499986
C51	C	1.032429	0.343091	-0.000012
C52	C	1.532429	0.843091	0.499988
C53	C	1.034168	0.256243	-0.000011
C54	C	1.534168	0.756243	0.499989
C55	C	1.121393	0.216333	-0.000004
C56	C	1.621393	0.716333	0.499996
C57	C	1.117917	0.390031	-0.000012
C58	C	1.617917	0.890031	0.499988
C59	C	1.116032	0.484197	-0.000020
C60	C	1.616032	0.984197	0.499980
C61	C	1.123278	0.122161	0.000002
C62	C	1.623278	0.622161	0.500002
N63	N	1.119671	-0.196816	-0.228179
N64	N	1.619671	0.303184	0.271821
C65	C	1.184125	-0.145093	0.453898
C66	C	1.684125	0.354907	0.953898
C67	C	1.184128	-0.145092	0.546087
C68	C	1.684128	0.354908	1.046087
C69	C	1.055186	-0.248539	0.546087
C70	C	1.555186	0.251461	1.046087
C71	C	1.055179	-0.248536	0.453899
C72	C	1.555179	0.251464	0.953899
C73	C	1.119654	-0.196814	0.407807
C74	C	1.619654	0.303186	0.907807
C75	C	1.119664	-0.196816	0.592185
C76	C	1.619664	0.303184	1.092185
C77	C	1.119666	-0.196814	0.692141
C78	C	1.619666	0.303186	1.192141
C79	C	1.119650	-0.196814	0.307844
C80	C	1.619650	0.303186	0.807844
H81	H	1.617334	-0.098773	-0.000065
H82	H	2.117334	0.401227	0.499935
H83	H	1.277898	0.230774	-0.000003
H84	H	1.777898	0.730774	0.499997
H85	H	1.002675	-0.290653	0.416370
H86	H	1.502675	0.209347	0.916370
H87	H	1.621980	-0.294862	-0.000016
H88	H	2.121980	0.205138	0.499984
H89	H	1.274744	0.388326	-0.000018
H90	H	1.774744	0.888326	0.499982
H91	H	0.961413	0.375597	-0.000016
H92	H	1.461413	0.875597	0.499984
H93	H	0.964554	0.218029	-0.000011
H94	H	1.464554	0.718029	0.499989
H95	H	1.236623	-0.102977	0.416371
H96	H	1.736623	0.397023	0.916371
H97	H	1.236624	-0.102975	0.583612
H98	H	1.736624	0.397025	1.083612
H99	H	1.002693	-0.290651	0.583625
H100	H	1.502693	0.209349	1.083625
