data_functionalizedCrystal
_audit_creation_method	'MofGen! by Chris Wilmer'
_symmetry_space_group_name_H-M	'P1'
_symmetry_Int_Tables_number	1
_symmetry_cell_setting	triclinic
loop_
_symmetry_equiv_pos_as_xyz
  x,y,z
_cell_length_a	17.638336
_cell_length_b	17.640280
_cell_length_c	10.686551
_cell_angle_alpha	106.368030
_cell_angle_beta	106.356989
_cell_angle_gamma	65.685103
loop_
_atom_site_label
_atom_site_type_symbol
_atom_site_fract_x
_atom_site_fract_y
_atom_site_fract_z
Zn1	Zn	1.365652	-0.544140	0.978145
Zn2	Zn	1.383322	-0.692078	0.725136
Zn3	Zn	1.217698	-0.526381	0.725202
Zn4	Zn	1.252750	-0.656913	0.905343
O5	O	1.304855	-0.604878	0.833457
O6	O	1.484560	-0.585913	0.975023
O7	O	1.354077	-0.677382	0.543871
O8	O	1.215260	-0.412196	0.789251
O9	O	1.497542	-0.694602	0.789139
O10	O	1.323961	-0.425243	0.975087
O11	O	1.232394	-0.555645	0.543919
O12	O	1.105784	-0.521547	0.718658
O13	O	1.275000	-0.634670	1.096275
O14	O	1.131536	-0.617449	0.851007
O15	O	1.357949	-0.551816	1.149762
O16	O	1.388065	-0.803954	0.718546
O17	O	1.292134	-0.778119	0.850943
C18	C	1.088436	-0.563756	0.776940
C19	C	0.995856	-0.546182	0.752787
C20	C	0.851928	-0.471396	0.649988
C21	C	0.938922	-0.487914	0.672691
C22	C	0.965812	-0.587959	0.810207
C23	C	0.878818	-0.571452	0.787509
C24	C	0.821882	-0.513169	0.707400
C25	C	0.848773	-0.613225	0.844922
C26	C	0.761787	-0.596716	0.822231
C27	C	0.704845	-0.538434	0.742129
C28	C	0.734896	-0.496660	0.684710
C29	C	0.905710	-0.671503	0.925038
C30	C	0.875665	-0.713276	0.982450
C31	C	0.788678	-0.696772	0.959753
C32	C	0.731736	-0.638490	0.879651
C33	C	0.758627	-0.738546	1.017172
C34	C	0.671641	-0.722036	0.994482
C35	C	0.644750	-0.621980	0.856961
C36	C	1.345844	-0.821257	0.776871
C37	C	1.363458	-0.913838	0.752727
C38	C	1.171410	-1.151183	1.017438
C39	C	1.187960	-1.238179	0.994710
C40	C	1.287925	-1.265022	0.857030
C41	C	1.271387	-1.178027	0.879752
C42	C	1.213127	-1.121114	0.959956
C43	C	1.313104	-1.147957	0.822269
C44	C	1.296563	-1.060970	0.844984
C45	C	1.238304	-1.004052	0.925181
C46	C	1.196586	-1.034126	0.982671
C47	C	1.371359	-1.204871	0.742058
C48	C	1.413076	-1.174802	0.684576
C49	C	1.396540	-1.087813	0.707298
C50	C	1.338281	-1.030895	0.787495
C51	C	1.438258	-1.057738	0.649808
C52	C	1.421717	-0.970751	0.672523
C53	C	1.321740	-0.943907	0.810209
C54	C	1.522120	-0.646161	0.890195
C55	C	1.614705	-0.663753	0.914373
C56	C	1.318414	-0.591301	1.171335
C57	C	1.324191	-0.585516	1.315319
C58	C	1.263730	-0.387657	0.890297
C59	C	1.246205	-0.295090	0.914519
C60	C	1.291386	-0.618351	0.496921
C61	C	1.285725	-0.623932	0.353041
H62	H	0.634016	-0.524989	0.723663
O63	O	0.796699	-0.414846	0.572002
C64	C	0.816149	-0.442142	0.443643
H65	H	0.885266	-0.486247	0.448963
H66	H	0.773540	-0.477387	0.375959
C67	C	0.716698	-0.310601	0.381141
C68	C	0.801591	-0.364765	0.387677
H69	H	0.707715	-0.262872	0.346615
H70	H	0.703591	-0.292212	0.467618
H71	H	0.681201	-0.339981	0.324740
H72	H	0.837086	-0.335388	0.444090
H73	H	0.814703	-0.383148	0.301208
O74	O	1.469659	-1.230207	0.606732
C75	C	1.475290	-1.313430	0.598965
H76	H	1.454240	-1.316120	0.688664
H77	H	1.432576	-1.332817	0.504048
C78	C	1.593432	-1.371215	0.487364
C79	C	1.567584	-1.374520	0.597539
H80	H	1.650362	-1.408900	0.486478
H81	H	1.589637	-1.315146	0.492591
H82	H	1.557830	-1.387369	0.408277
H83	H	1.603180	-1.358357	0.676623
H84	H	1.571388	-1.430588	0.592325
H85	H	0.976539	-0.684937	0.943520
H86	H	1.248375	-0.661252	1.275186
H87	H	1.012180	-0.635411	0.875435
O88	O	0.589322	-0.565407	0.779144
C89	C	0.506101	-0.559772	0.771476
H90	H	0.508117	-0.620143	0.793803
H91	H	0.474863	-0.502991	0.847074
C92	C	0.452196	-0.474621	0.603398
C93	C	0.454671	-0.548772	0.630809
H94	H	0.420469	-0.467832	0.516630
H95	H	0.508262	-0.478414	0.608567
H96	H	0.426165	-0.427312	0.666406
H97	H	0.480711	-0.596081	0.567812
H98	H	0.398608	-0.544987	0.625626
O99	O	0.813819	-0.795152	1.095076
C100	C	0.768649	-0.828499	1.140857
H101	H	0.700357	-0.782445	1.138165
H102	H	0.769471	-0.891863	1.074320
C103	C	0.894325	-0.898109	1.287693
C104	C	0.810449	-0.841540	1.284396
H105	H	0.920110	-0.906157	1.376232
H106	H	0.924758	-0.875645	1.256846
H107	H	0.894998	-0.950906	1.232238
H108	H	0.809778	-0.788742	1.339837
H109	H	0.780017	-0.863996	1.315256
H110	H	0.688535	-0.449200	0.619477
O111	O	0.968223	-0.447474	0.616842
C112	C	1.024120	-0.507722	0.533774
H113	H	1.050954	-0.571529	0.566183
H114	H	0.988446	-0.514265	0.426636
C115	C	1.064165	-0.400131	0.504177
C116	C	1.097128	-0.478498	0.543990
H117	H	1.109198	-0.382104	0.510473
H118	H	1.026504	-0.359540	0.560137
H119	H	1.034436	-0.405594	0.414898
H120	H	1.126847	-0.473031	0.633272
H121	H	1.134796	-0.519088	0.488045
H122	H	0.922033	-0.760728	1.047679
O123	O	0.642390	-0.762479	1.050405
C124	C	0.586460	-0.702226	1.133418
H125	H	0.600579	-0.641292	1.165580
H126	H	0.518371	-0.688405	1.076930
C127	C	0.580930	-0.812232	1.217455
C128	C	0.598276	-0.737394	1.256967
H129	H	0.588214	-0.833925	1.293663
H130	H	0.618608	-0.852826	1.161524
H131	H	0.524189	-0.800704	1.170380
H132	H	0.655018	-0.748925	1.304025
H133	H	0.560607	-0.696802	1.312908
H134	H	1.149152	-0.987785	1.047992
H135	H	1.485687	-1.104088	0.584496
H136	H	1.384827	-1.275701	0.723571
O137	O	1.265222	-0.888704	0.888303
C138	C	1.292598	-0.908172	1.016639
H139	H	1.336722	-0.977282	1.011236
H140	H	1.327850	-0.865559	1.084280
C141	C	1.161085	-0.808766	1.079387
C142	C	1.215273	-0.893649	1.072750
H143	H	1.113388	-0.799804	1.114003
H144	H	1.142642	-0.795647	0.992927
H145	H	1.190471	-0.773264	1.135753
H146	H	1.185890	-0.929148	1.016372
H147	H	1.233710	-0.906774	1.159202
H148	H	1.224831	-0.933220	0.943663
H149	H	1.123975	-1.104842	1.082760
H150	H	1.153995	-1.262657	1.041544
O151	O	1.462339	-0.941681	0.616630
C152	C	1.517291	-1.010564	0.540943
H153	H	1.534073	-1.070975	0.578563
H154	H	1.484654	-1.018023	0.432144
C155	C	1.578122	-0.919928	0.508210
C156	C	1.598740	-0.994125	0.554424
H157	H	1.628362	-0.909788	0.516519
H158	H	1.541098	-0.873520	0.559197
H159	H	1.550923	-0.926154	0.417548
H160	H	1.625929	-0.987895	0.645088
H161	H	1.635771	-1.040533	0.503451
H162	H	1.361551	-0.548201	1.393182
H163	H	1.335358	-1.311371	0.791724
