data_functionalizedCrystal
_audit_creation_method	'MofGen! by Chris Wilmer'
_symmetry_space_group_name_H-M	'P1'
_symmetry_Int_Tables_number	1
_symmetry_cell_setting	triclinic
loop_
_symmetry_equiv_pos_as_xyz
  x,y,z
_cell_length_a	14.560438
_cell_length_b	14.560438
_cell_length_c	14.560438
_cell_angle_alpha	120.004823
_cell_angle_beta	89.999672
_cell_angle_gamma	60.002811
loop_
_atom_site_label
_atom_site_type_symbol
_atom_site_fract_x
_atom_site_fract_y
_atom_site_fract_z
Zr1	Zr	0.884761	1.005332	0.120577
O2	O	0.738117	1.196942	0.267241
O3	O	0.929714	0.813724	0.075608
O4	O	0.929716	1.005337	0.267226
O5	O	0.738113	1.005324	-0.075518
O6	O	1.080855	1.005339	0.267223
O7	O	0.738114	1.005328	0.075624
O8	O	1.080850	0.662578	-0.075546
O9	O	0.738118	1.348086	0.267251
O10	O	1.061680	0.892536	0.056438
O11	O	0.948887	0.892532	-0.056356
O12	O	0.948889	1.118131	0.169249
O13	O	0.836096	1.118127	0.056456
Zr14	Zr	1.125807	1.005330	-0.120480
Zr15	Zr	1.125809	1.005336	0.120573
Zr16	Zr	0.884759	1.005326	-0.120476
Zr17	Zr	0.884763	1.246389	0.120593
Zr18	Zr	1.125806	0.764273	-0.120496
O19	O	1.080854	1.196938	-0.075511
O20	O	1.080856	1.196948	0.267236
O21	O	0.738115	1.196933	-0.075506
O22	O	1.272451	0.813720	-0.267144
O23	O	1.272453	0.813729	0.075603
O24	O	0.929712	0.813714	-0.267139
O25	O	1.272455	1.005338	0.075615
O26	O	1.080852	1.005325	-0.267129
O27	O	0.929713	1.005323	-0.267126
O28	O	1.272454	1.005334	-0.075527
O29	O	0.929719	1.348089	0.267248
O30	O	1.080849	0.662573	-0.267151
O31	O	1.272450	0.662576	-0.267154
O32	O	1.272451	0.662582	-0.075549
O33	O	0.738117	1.348080	0.075646
O34	O	0.929718	1.348084	0.075642
O35	O	1.061679	0.892530	-0.169153
O36	O	1.174472	0.892535	-0.056359
O37	O	1.061682	1.118130	0.056452
O38	O	0.948888	1.118125	-0.056341
C39	C	1.005282	0.703805	0.000029
C40	C	1.005281	0.601470	0.000022
C41	C	0.922016	0.636685	0.083307
C42	C	0.922021	0.540545	0.083335
C43	C	1.088560	0.373977	-0.083214
C44	C	1.088559	0.470116	-0.083237
C45	C	0.703770	1.005326	0.000053
C46	C	0.601439	1.005324	0.000055
C47	C	0.612235	0.887568	-0.058831
C48	C	0.516081	0.887574	-0.058841
C49	C	0.398335	1.123103	0.058930
C50	C	0.494489	1.123095	0.058933
C51	C	0.680214	0.751587	-0.126822
C52	C	0.584059	0.751593	-0.126832
C53	C	1.306798	1.005336	0.000044
C54	C	1.409130	1.005338	0.000042
C55	C	1.005286	1.005339	0.301569
C56	C	1.005286	1.005342	0.403903
C57	C	1.005286	1.306856	0.000068
C58	C	1.005287	1.409191	0.000074
C59	C	1.088550	1.005345	0.451978
C60	C	1.088554	1.005334	0.548124
C61	C	0.922021	1.005322	0.548115
C62	C	0.922023	1.005324	0.451966
C63	C	1.005284	1.005325	0.698529
C64	C	1.005289	1.005329	0.596199
C65	C	1.306796	0.703811	0.000024
C66	C	1.409127	0.601477	0.000016
C67	C	1.005280	0.703797	-0.301492
C68	C	1.005279	0.601460	-0.403832
C69	C	1.306795	0.703803	-0.301497
C70	C	1.409124	0.601467	-0.403838
C71	C	0.703774	1.306859	0.301594
C72	C	0.601444	1.409195	0.403935
C73	C	0.703772	1.306851	0.000073
C74	C	0.601442	1.409185	0.000081
C75	C	1.005288	1.306865	0.301589
C76	C	1.005289	1.409202	0.403929
C77	C	1.398328	0.553399	0.058888
C78	C	1.494483	0.457254	0.058885
C79	C	1.612230	0.457270	-0.058873
C80	C	1.516077	0.553420	-0.058862
C81	C	1.064154	0.553379	-0.510790
C82	C	1.064139	0.457231	-0.606946
C83	C	0.946374	0.457249	-0.489171
C84	C	0.946383	0.553402	-0.393018
C85	C	1.516076	0.553389	-0.393045
C86	C	1.612222	0.457242	-0.489209
C87	C	1.494451	0.457254	-0.606958
C88	C	1.398307	0.553406	-0.510795
H89	H	0.485689	1.218984	0.106879
N90	N	0.832204	0.578531	0.173157
H91	H	0.844839	0.497699	0.160544
H92	H	0.835877	0.631726	0.249561
N93	N	1.178370	0.232308	-0.173026
H94	H	1.254812	0.212643	-0.169395
H95	H	1.165639	0.176832	-0.160331
H96	H	0.311247	1.218988	0.106867
H97	H	1.156369	0.441431	-0.151060
N98	N	1.178350	1.005355	0.599986
H99	H	1.142009	1.085437	0.679927
H100	H	1.222079	0.925219	0.599751
N101	N	0.749377	0.682413	-0.246073
H102	H	0.710882	0.651557	-0.299293
H103	H	0.757116	0.744077	-0.252955
H104	H	0.731122	0.709402	-0.081958
H105	H	0.898434	0.592553	-0.305921
N106	N	1.127674	0.605214	-0.522449
H107	H	1.164968	0.560162	-0.604800
H108	H	1.073621	0.701737	-0.485114
N109	N	0.832212	0.778358	0.173114
H110	H	0.755767	0.798028	0.169494
H111	H	0.835959	0.797947	0.249514
H112	H	0.575342	0.709392	-0.213893
H113	H	1.485680	0.418115	0.106827
N114	N	1.727581	0.405436	-0.122375
H115	H	1.786857	0.337228	-0.113452
H116	H	1.736484	0.365617	-0.204717
H117	H	1.112079	0.418089	-0.694033
N118	N	0.882864	0.405406	-0.477505
H119	H	0.823614	0.422132	-0.514771
H120	H	0.936941	0.308902	-0.514762
H121	H	1.311248	0.592536	0.106842
N122	N	0.584041	0.682449	-0.076740
H123	H	0.653384	0.651596	-0.054372
H124	H	0.514637	0.744131	-0.008188
N125	N	1.527760	0.605220	-0.277696
H126	H	1.490498	0.701741	-0.235160
H127	H	1.490518	0.588390	-0.235267
H128	H	1.699305	0.418102	-0.480413
N129	N	1.282943	0.605253	-0.522436
H130	H	1.223680	0.673458	-0.445286
H131	H	1.274028	0.645079	-0.564948
N132	N	1.178352	1.005361	0.400135
H133	H	1.231100	1.005359	0.445182
H134	H	1.222021	0.925278	0.320192
N135	N	1.482786	0.405415	-0.722316
H136	H	1.559921	0.337205	-0.781599
H137	H	1.440265	0.365597	-0.731220
H138	H	0.854228	1.005311	0.587259
N139	N	0.832214	1.005310	0.400108
H140	H	0.755768	1.085388	0.456882
H141	H	0.844951	1.005256	0.331892
N142	N	1.527714	0.605299	-0.122351
H143	H	1.570181	0.531955	-0.204728
H144	H	1.450531	0.673524	-0.113307
