data_functionalizedCrystal
_audit_creation_method	'MofGen! by Chris Wilmer'
_symmetry_space_group_name_H-M	'P1'
_symmetry_Int_Tables_number	1
_symmetry_cell_setting	triclinic
loop_
_symmetry_equiv_pos_as_xyz
  x,y,z
_cell_length_a	10.540539
_cell_length_b	11.295483
_cell_length_c	12.811415
_cell_angle_alpha	88.701575
_cell_angle_beta	84.283526
_cell_angle_gamma	85.855350
loop_
_atom_site_label
_atom_site_type_symbol
_atom_site_fract_x
_atom_site_fract_y
_atom_site_fract_z
O1	O	1.694854	-0.114069	0.139854
O2	O	1.325491	-0.115577	0.153684
O3	O	1.518060	-0.098450	-0.004796
O4	O	1.502285	-0.131195	0.298334
O5	O	1.501146	0.098099	0.009102
O6	O	1.308577	0.080972	0.167582
O7	O	1.677940	0.082480	0.153752
Cu8	Cu	1.491714	0.099673	0.161936
Cu9	Cu	1.511717	-0.132769	0.145500
O10	O	1.485371	0.065353	0.312232
C11	C	1.269728	-0.017192	0.159596
C12	C	1.128769	-0.016862	0.156492
N13	N	1.477654	0.263160	0.173495
N14	N	1.525786	-0.296255	0.133932
C15	C	0.944879	-0.003558	0.037609
C16	C	1.091547	-0.004353	0.040723
C17	C	1.076953	-0.135115	0.204269
C18	C	0.930402	-0.134770	0.200312
C19	C	0.910687	0.088488	0.218472
C20	C	1.057547	0.089844	0.219642
C21	C	1.733704	-0.015907	0.147840
C22	C	1.874663	-0.016244	0.150943
C23	C	1.508201	0.004015	-0.036663
C24	C	1.504007	0.016501	-0.152321
C25	C	1.626995	0.525724	0.050661
C26	C	1.616379	0.649443	0.059404
C27	C	1.445801	0.634319	0.199719
C28	C	1.456417	0.510600	0.190976
C29	C	1.547018	0.456307	0.116446
C30	C	1.557640	0.332585	0.107708
C31	C	1.387057	0.317465	0.248017
C32	C	1.376441	0.441183	0.256761
C33	C	1.514546	-0.174339	-0.384798
C34	C	1.510606	-0.162612	-0.493470
C35	C	1.492179	0.051678	-0.478338
C36	C	1.496119	0.039952	-0.369666
C37	C	1.507304	-0.073060	-0.322900
C38	C	1.511253	-0.084785	-0.214227
C39	C	1.492817	0.129504	-0.199097
C40	C	1.488877	0.141231	-0.307769
C41	C	1.495230	-0.037114	0.344098
C42	C	1.499425	-0.049608	0.459756
H43	H	1.127081	0.080838	0.002575
H44	H	1.520365	-0.176805	-0.176153
H45	H	1.523665	-0.266357	-0.346722
Br46	Br	1.520426	-0.300068	-0.577471
H47	H	1.631414	0.288381	0.047025
H48	H	1.483061	0.143687	-0.516433
H49	H	1.321938	0.260931	0.301587
H50	H	1.479765	0.233242	-0.345860
H51	H	1.486925	0.211973	-0.148688
H52	H	0.921397	-0.078680	-0.013592
Br53	Br	1.172407	-0.131002	-0.042044
Br54	Br	0.885413	0.138835	-0.029135
H55	H	1.302672	0.485404	0.317439
H56	H	0.909264	-0.214219	0.153203
Br57	Br	1.115353	-0.157415	0.345466
Br58	Br	1.159682	-0.267371	0.129923
Br59	Br	0.851668	-0.158251	0.338477
Br60	Br	1.749967	0.452035	-0.050470
H61	H	1.372028	0.678542	0.260393
Br62	Br	1.113489	0.235576	0.161473
Br63	Br	0.845691	0.237030	0.166050
Br64	Br	1.097443	0.085943	0.361124
H65	H	1.681502	0.705959	0.005835
Br66	Br	0.832366	0.074697	0.357932
