data_functionalizedCrystal
_audit_creation_method	'MofGen! by Chris Wilmer'
_symmetry_space_group_name_H-M	'P1'
_symmetry_Int_Tables_number	1
_symmetry_cell_setting	triclinic
loop_
_symmetry_equiv_pos_as_xyz
  x,y,z
_cell_length_a	12.594516
_cell_length_b	12.594517
_cell_length_c	12.594509
_cell_angle_alpha	89.978673
_cell_angle_beta	90.026199
_cell_angle_gamma	89.984147
loop_
_atom_site_label
_atom_site_type_symbol
_atom_site_fract_x
_atom_site_fract_y
_atom_site_fract_z
Zn1	Zn	-0.423716	-1.627267	0.601875
Zn2	Zn	-0.601726	-1.627158	0.423903
Zn3	Zn	-0.423761	-1.449271	0.423904
Zn4	Zn	-0.601652	-1.449253	0.601833
O5	O	-0.512714	-1.538237	0.512879
O6	O	-0.447341	-1.776198	0.578284
O7	O	-0.578169	-1.603522	0.274957
O8	O	-0.274809	-1.472936	0.447530
O9	O	-0.578124	-1.776118	0.447528
O10	O	-0.274776	-1.603709	0.578285
O11	O	-0.447419	-1.472830	0.274958
O12	O	-0.447347	-1.300323	0.447489
O13	O	-0.577998	-1.472905	0.750784
O14	O	-0.578042	-1.300310	0.578213
O15	O	-0.447269	-1.603691	0.750815
O16	O	-0.750662	-1.603505	0.447488
O17	O	-0.750608	-1.472799	0.578212
C18	C	-0.512692	-1.261696	0.512847
C19	C	-0.512709	-1.143391	0.512859
C20	C	-0.512620	-1.538308	0.790500
C21	C	-0.512581	-1.538339	0.908805
C22	C	-0.789255	-1.538167	0.512868
C23	C	-0.907560	-1.538235	0.512899
C24	C	-0.976822	-1.467137	0.583950
C25	C	-1.047688	-1.441204	0.486827
C26	C	-1.047494	-1.564265	0.610039
C27	C	-0.976867	-1.512250	0.415725
C28	C	-0.976667	-1.635357	0.539002
C29	C	-1.047500	-1.609460	0.441812
C30	C	-0.235093	-1.538336	0.512912
C31	C	-0.116787	-1.538378	0.512927
C32	C	-0.512736	-1.815858	0.512911
C33	C	-0.512745	-1.934163	0.512924
C34	C	-0.441526	-1.074114	0.441894
C35	C	-0.538615	-1.003303	0.415718
C36	C	-0.415668	-1.003403	0.539054
C37	C	-0.609849	-1.074138	0.486632
C38	C	-0.486836	-1.074244	0.610013
C39	C	-0.583991	-1.003465	0.583874
C40	C	-0.512730	-1.538227	0.236338
C41	C	-0.512470	-1.538403	0.118033
C42	C	-0.583644	-1.467227	0.978042
C43	C	-0.609650	-1.564347	1.048833
C44	C	-0.486510	-1.441294	1.048813
C45	C	-0.538638	-1.635510	0.978038
C46	C	-0.415453	-1.512391	0.978012
C47	C	-0.441422	-1.609579	1.048772
H48	H	-1.078906	-1.359136	0.464772
H49	H	-0.945788	-1.406905	0.643949
O50	O	-0.564706	-0.965902	0.317810
C51	C	-0.594658	-0.811727	0.208460
C52	C	-0.565182	-0.853962	0.319401
H53	H	-0.595031	-0.721220	0.209704
H54	H	-0.676836	-0.841902	0.185444
H55	H	-0.533850	-0.840804	0.148073
H56	H	-0.625919	-0.824903	0.379862
H57	H	-0.482977	-0.823795	0.342328
O58	O	-0.707868	-1.110989	0.460290
C59	C	-0.893883	-1.115906	0.504703
C60	C	-0.782938	-1.074121	0.534673
H61	H	-0.954611	-1.086098	0.564812
H62	H	-0.893135	-1.206422	0.504906
H63	H	-0.916045	-1.086073	0.422143
H64	H	-0.760706	-1.103876	0.617238
H65	H	-0.783745	-0.983607	0.534397
O66	O	-0.939841	-1.485907	0.317780
C67	C	-0.786102	-1.456340	0.207867
C68	C	-0.827893	-1.486168	0.318839
H69	H	-0.695589	-1.456563	0.208680
H70	H	-0.815913	-1.373839	0.185465
H71	H	-0.815879	-1.516616	0.147274
H72	H	-0.798134	-1.425964	0.379506
H73	H	-0.798091	-1.568696	0.341151
O74	O	-1.084251	-1.681143	0.369923
C75	C	-1.089713	-1.734772	0.186365
C76	C	-1.048041	-1.653510	0.267665
H77	H	-1.060436	-1.712473	0.103674
H78	H	-1.180227	-1.734801	0.187299
H79	H	-1.059266	-1.817255	0.207954
H80	H	-1.078410	-1.570987	0.246132
H81	H	-0.957528	-1.653574	0.266715
O82	O	-0.317830	-0.966206	0.565587
C83	C	-0.214303	-0.862739	0.688790
C84	C	-0.325166	-0.904770	0.658863
H85	H	-0.220193	-0.813078	0.764217
H86	H	-0.182206	-0.811553	0.621387
H87	H	-0.158415	-0.932544	0.702955
H88	H	-0.381134	-0.835030	0.644714
H89	H	-0.357175	-0.955987	0.726282
H90	H	-0.945451	-1.717406	0.561104
O91	O	-0.655587	-1.395659	0.941033
C92	C	-0.839217	-1.342192	0.935190
C93	C	-0.757857	-1.423325	0.977152
H94	H	-0.921917	-1.364518	0.964394
H95	H	-0.838151	-1.342294	0.844678
H96	H	-0.817795	-1.259646	0.965495
H97	H	-0.779223	-1.505910	0.946926
H98	H	-0.758939	-1.423130	1.067663
O99	O	-0.565040	-1.733404	0.940937
C100	C	-0.594655	-1.843211	0.787115
C101	C	-0.564761	-1.732296	0.828990
H102	H	-0.594417	-1.842359	0.696602
H103	H	-0.677175	-1.865519	0.816841
H104	H	-0.534423	-1.903896	0.816913
H105	H	-0.624921	-1.671538	0.799210
H106	H	-0.482214	-1.710078	0.799273
O107	O	-0.707585	-1.590721	1.085834
C108	C	-0.846529	-1.722136	1.090352
C109	C	-0.735622	-1.692402	1.048355
H110	H	-0.869222	-1.804356	1.060086
H111	H	-0.907140	-1.661477	1.061277
H112	H	-0.845300	-1.722612	1.180861
H113	H	-0.736748	-1.691938	0.957849
H114	H	-0.675059	-1.753068	1.077512
H115	H	-0.644273	-0.972639	0.643914
O116	O	-0.369792	-1.681577	1.085548
C117	C	-0.316282	-1.865206	1.090963
C118	C	-0.397485	-1.783783	1.049261
H119	H	-0.338629	-1.947855	1.061623
H120	H	-0.316266	-1.864311	1.181477
H121	H	-0.233779	-1.843710	1.060601
H122	H	-0.480026	-1.805223	1.079545
H123	H	-0.397407	-1.784694	0.958748
H124	H	-1.078518	-1.586224	0.692178
O125	O	-0.369663	-1.111183	0.370364
C126	C	-0.211330	-1.214829	0.342131
C127	C	-0.292616	-1.172896	0.423254
H128	H	-0.149030	-1.264750	0.384858
H129	H	-0.171035	-1.145050	0.300899
H130	H	-0.253800	-1.265791	0.280556
H131	H	-0.250227	-1.121951	0.484892
H132	H	-0.332908	-1.242723	0.464405
O133	O	-0.317468	-1.486260	0.940990
C134	C	-0.131398	-1.530612	0.936446
C135	C	-0.242300	-1.560328	0.978470
H136	H	-0.070598	-1.590492	0.966713
H137	H	-0.109246	-1.447808	0.965501
H138	H	-0.132264	-1.531573	0.845938
H139	H	-0.241518	-1.559429	1.068975
H140	H	-0.264408	-1.643114	0.949333
O141	O	-0.460545	-1.111583	0.707884
C142	C	-0.338675	-1.216880	0.811293
C143	C	-0.368362	-1.174684	0.700393
H144	H	-0.264131	-1.267887	0.805277
H145	H	-0.406800	-1.266762	0.843878
H146	H	-0.323081	-1.147155	0.866845
H147	H	-0.383938	-1.244343	0.644761
H148	H	-0.300220	-1.124770	0.667895
O149	O	-0.460376	-1.343276	1.085778
C150	C	-0.505884	-1.157528	1.091812
C151	C	-0.535575	-1.268469	1.049863
H152	H	-0.566679	-1.097020	1.062811
H153	H	-0.423741	-1.134709	1.061438
H154	H	-0.505287	-1.158742	1.182320
H155	H	-0.536234	-1.267341	0.959358
H156	H	-0.617700	-1.291245	1.080318
