data_functionalizedCrystal
_audit_creation_method	'MofGen! by Chris Wilmer'
_symmetry_space_group_name_H-M	'P1'
_symmetry_Int_Tables_number	1
_symmetry_cell_setting	triclinic
loop_
_symmetry_equiv_pos_as_xyz
  x,y,z
_cell_length_a	15.944499
_cell_length_b	15.944551
_cell_length_c	9.565339
_cell_angle_alpha	89.999279
_cell_angle_beta	89.993857
_cell_angle_gamma	83.488174
loop_
_atom_site_label
_atom_site_type_symbol
_atom_site_fract_x
_atom_site_fract_y
_atom_site_fract_z
O1	O	1.114551	0.108119	-0.116347
O2	O	0.869995	0.121521	-0.116332
O3	O	0.998951	-0.007456	-0.116327
O4	O	0.985595	0.237096	-0.116351
O5	O	0.998941	-0.007448	0.116193
O6	O	0.869985	0.121529	0.116189
O7	O	1.114541	0.108127	0.116173
Zn8	Zn	0.992261	0.114829	0.153099
Zn9	Zn	0.992275	0.114819	-0.153257
O10	O	0.985584	0.237104	0.116169
C11	C	0.838695	0.120976	-0.000069
C12	C	0.745447	0.119331	-0.000063
C13	C	0.453911	0.194263	-0.000092
C14	C	0.514945	0.155308	-0.114735
C15	C	0.409810	0.113355	-0.000095
C16	C	0.514921	0.155294	0.114512
C17	C	0.574719	0.116296	-0.000077
C18	C	0.469617	0.074377	-0.114833
C19	C	0.469586	0.074374	0.114517
C20	C	0.530603	0.035360	-0.000154
C21	C	0.314810	0.111663	-0.000107
C22	C	0.669718	0.117981	-0.000076
C23	C	0.998392	-0.038746	-0.000067
C24	C	0.996729	-0.131992	-0.000066
C25	C	0.912823	-0.346833	-0.000080
C26	C	0.951781	-0.407853	0.114564
C27	C	0.993722	-0.302717	-0.000076
C28	C	0.951810	-0.407845	-0.114682
C29	C	0.990811	-0.467629	-0.000093
C30	C	1.032703	-0.362509	0.114662
C31	C	1.032720	-0.362494	-0.114687
C32	C	1.071737	-0.423497	-0.000015
C33	C	0.995397	-0.207715	-0.000066
C34	C	0.989143	-0.562630	-0.000093
C35	C	1.145840	0.108672	-0.000092
C36	C	1.239089	0.110317	-0.000107
C37	C	0.986144	0.268394	-0.000095
C38	C	0.987806	0.361640	-0.000105
N39	N	0.992258	0.114836	0.362178
N40	N	0.992284	0.114805	-0.362336
C41	C	0.932602	0.174464	0.453379
C42	C	1.008509	0.190753	0.546551
C43	C	0.916385	0.098554	0.546561
C44	C	1.068203	0.131163	0.453298
C45	C	0.976029	0.038931	0.453300
C46	C	1.051990	0.055187	0.546430
H47	H	0.563780	-0.031846	-0.000209
H48	H	1.102505	0.004746	0.587031
H49	H	0.852209	0.084795	0.587531
H50	H	0.449465	0.040185	0.211448
N51	N	1.075610	-0.337259	-0.236295
N52	N	1.048043	-0.351534	-0.355247
H53	H	1.078328	-0.333710	-0.441145
N54	N	0.869372	0.237764	0.402083
N55	N	0.810713	0.217240	0.327350
H56	H	0.766059	0.261946	0.291117
H57	H	0.534992	0.189532	0.211430
N58	N	0.412104	0.278498	-0.000247
N59	N	0.423662	0.327342	-0.098844
H60	H	0.394136	0.386832	-0.098960
N61	N	0.540150	0.198240	-0.236328
N62	N	0.512357	0.273731	-0.256764
H63	H	0.530153	0.304057	-0.342636
N64	N	0.444563	0.031497	-0.236573
N65	N	0.459527	0.058746	-0.355465
H66	H	0.441830	0.028466	-0.441447
H67	H	0.845673	-0.313513	0.000039
H68	H	0.917560	-0.427952	0.211491
H69	H	1.022253	0.254931	0.587511
N70	N	1.148727	0.148512	0.402113
N71	N	1.161702	0.151352	0.273413
H72	H	1.218571	0.163607	0.237258
H73	H	1.066886	-0.342522	0.211691
N74	N	0.958751	-0.041556	0.401887
N75	N	0.890600	-0.069055	0.431719
H76	H	0.878388	-0.125899	0.395408
H77	H	0.917587	-0.427919	-0.211612
N78	N	1.156052	-0.465103	0.000066
N79	N	1.204891	-0.453395	0.098586
H80	H	1.264439	-0.482779	0.098649
