data_functionalizedCrystal
_audit_creation_method	'MofGen! by Chris Wilmer'
_symmetry_space_group_name_H-M	'P1'
_symmetry_Int_Tables_number	1
_symmetry_cell_setting	triclinic
loop_
_symmetry_equiv_pos_as_xyz
  x,y,z
_cell_length_a	8.559649
_cell_length_b	14.853567
_cell_length_c	7.681481
_cell_angle_alpha	84.253558
_cell_angle_beta	94.912730
_cell_angle_gamma	76.706797
loop_
_atom_site_label
_atom_site_type_symbol
_atom_site_fract_x
_atom_site_fract_y
_atom_site_fract_z
O1	O	2.104974	-0.021000	-0.146424
O2	O	1.639873	0.025552	-0.146423
O3	O	1.884847	-0.129822	-0.146429
O4	O	1.860001	0.134374	-0.146418
O5	O	1.914999	-0.148985	0.146428
O6	O	1.670026	0.006389	0.146434
O7	O	2.135126	-0.040163	0.146433
Zn8	Zn	1.907363	-0.019929	0.192931
Zn9	Zn	1.867636	0.005318	-0.192921
O10	O	1.890153	0.115212	0.146439
C11	C	1.595427	0.019499	0.000005
C12	C	1.418071	0.030000	0.000005
C13	C	1.898796	-0.172913	-0.000006
C14	C	1.895421	-0.272760	-0.000021
C15	C	1.735643	-0.674120	0.000013
C16	C	2.026678	-0.715757	0.000012
C17	C	2.029849	-0.621945	0.000002
C18	C	1.885915	-0.554216	-0.000000
C19	C	1.738811	-0.580299	0.000008
C20	C	2.176953	-0.595855	0.000012
C21	C	2.180130	-0.502038	0.000003
C22	C	2.036193	-0.434306	-0.000012
C23	C	1.889083	-0.460394	-0.000005
C24	C	1.745149	-0.392665	-0.000008
C25	C	1.598035	-0.418750	-0.000014
C26	C	1.594874	-0.512567	-0.000007
C27	C	2.039355	-0.340489	-0.000019
C28	C	1.748316	-0.298843	-0.000013
C29	C	2.179572	-0.034109	0.000001
C30	C	2.356927	-0.044609	-0.000010
C31	C	1.876203	0.158303	0.000011
C32	C	1.879577	0.258150	0.000015
N33	N	1.934487	-0.037161	0.456264
N34	N	1.840525	0.022543	-0.456255
H35	H	1.440273	-0.116524	-0.000014
H36	H	1.631105	-0.243702	-0.000022
C37	C	1.441781	-0.345146	-0.000378
C38	C	1.419583	-0.280225	-0.151064
C39	C	1.275656	-0.212412	-0.151471
H40	H	1.447323	-0.314264	0.101631
H41	H	1.353654	-0.374070	-0.000479
H42	H	1.507688	-0.251303	-0.150947
H43	H	1.414012	-0.311079	-0.253098
H44	H	1.187528	-0.241336	-0.151572
H45	H	1.281210	-0.181536	-0.049455
H46	H	1.260568	-0.168359	-0.253716
H47	H	1.475102	-0.533815	-0.000011
C48	C	1.307000	0.125937	-0.000370
C49	C	1.320519	0.183760	-0.151053
C50	C	1.218198	0.272140	-0.151471
H51	H	1.336875	0.152067	0.101641
H52	H	1.198530	0.120536	-0.000484
H53	H	1.428965	0.189164	-0.150923
H54	H	1.290630	0.157659	-0.253089
H55	H	1.109729	0.266739	-0.151585
H56	H	1.248083	0.298261	-0.049452
H57	H	1.227346	0.311381	-0.253714
H58	H	1.744609	0.083483	0.468551
C59	C	2.062541	-0.118457	0.556207
C60	C	2.145189	-0.170949	0.436187
C61	C	2.263171	-0.245837	0.528188
H62	H	2.012430	-0.156728	0.628143
H63	H	2.136644	-0.095373	0.628076
H64	H	2.071097	-0.194033	0.364348
H65	H	2.195334	-0.132705	0.364247
H66	H	2.337274	-0.222754	0.600058
H67	H	2.213047	-0.284101	0.600121
H68	H	2.319272	-0.281457	0.446770
H69	H	1.615866	-0.695363	0.000001
H70	H	2.143863	-0.770908	0.000028
H71	H	2.294137	-0.651007	0.000030
H72	H	2.299919	-0.480808	0.000006
H73	H	2.159133	-0.319255	-0.000002
