data_functionalizedCrystal
_audit_creation_method	'MofGen! by Chris Wilmer'
_symmetry_space_group_name_H-M	'P1'
_symmetry_Int_Tables_number	1
_symmetry_cell_setting	triclinic
loop_
_symmetry_equiv_pos_as_xyz
  x,y,z
_cell_length_a	19.188930
_cell_length_b	10.868271
_cell_length_c	19.188928
_cell_angle_alpha	89.991193
_cell_angle_beta	96.855705
_cell_angle_gamma	90.018212
loop_
_atom_site_label
_atom_site_type_symbol
_atom_site_fract_x
_atom_site_fract_y
_atom_site_fract_z
O1	O	0.926144	0.102738	-0.087164
O2	O	0.722833	0.102656	-0.098899
O3	O	0.830357	0.102668	0.008624
O4	O	0.818621	0.102726	-0.194687
O5	O	0.830347	-0.101977	0.008621
O6	O	0.722823	-0.101989	-0.098902
O7	O	0.926135	-0.101907	-0.087168
Zn8	Zn	0.824477	-0.134440	-0.093036
Zn9	Zn	0.824490	0.135189	-0.093031
O10	O	0.818611	-0.101919	-0.194691
C11	C	0.696817	0.000323	-0.098520
C12	C	0.619313	0.000290	-0.097380
N13	N	0.824474	-0.318454	-0.093038
C14	C	0.824479	-0.429791	-0.093038
C15	C	0.824488	-0.569469	-0.093032
C16	C	0.574388	0.000327	-0.160471
C17	C	0.501564	0.000340	-0.159399
C18	C	0.473668	0.000341	-0.095233
C19	C	0.518603	0.000297	-0.032133
C20	C	0.591425	0.000272	-0.033207
N21	N	0.365692	0.070026	-0.046184
N22	N	0.296513	0.070053	-0.045169
C23	C	0.254260	0.000416	-0.091995
N24	N	0.283797	-0.069235	-0.139885
N25	N	0.352981	-0.069256	-0.140902
C26	C	0.394706	0.000368	-0.094062
C27	C	0.130371	0.000465	-0.153928
C28	C	0.057546	0.000471	-0.152854
C29	C	0.074586	0.000440	-0.025586
C30	C	0.147409	0.000422	-0.026662
C31	C	0.175297	0.000441	-0.090835
C32	C	0.952150	0.000429	-0.087546
C33	C	1.029655	0.000470	-0.088687
C34	C	0.829972	0.000340	0.034634
C35	C	0.828832	0.000324	0.112138
N36	N	0.824499	0.319203	-0.093023
C37	C	0.891923	0.000340	0.157062
C38	C	0.890852	0.000354	0.229886
C39	C	0.826686	0.000327	0.257783
C40	C	0.763587	0.000318	0.212849
C41	C	0.764660	0.000316	0.140027
N42	N	0.777637	-0.069345	0.365787
N43	N	0.776622	-0.069345	0.434965
C44	C	0.823450	0.000336	0.477192
N45	N	0.871342	0.070002	0.447627
N46	N	0.872359	0.069997	0.378442
C47	C	0.825516	0.000330	0.336745
C48	C	0.885384	0.000369	0.601080
C49	C	0.884311	0.000391	0.673905
C50	C	0.757043	0.000342	0.656866
C51	C	0.758119	0.000332	0.584043
C52	C	0.822291	0.000340	0.556155
C53	C	0.818998	0.000394	0.779300
C54	C	0.820144	0.000366	0.701797
H55	H	0.597089	0.000345	-0.212725
H56	H	0.495885	0.000315	0.020111
C57	C	0.953715	0.000407	0.723322
H58	H	0.992084	0.000399	0.696280
H59	H	0.955951	0.071773	0.752078
H60	H	0.955931	-0.070964	0.752090
H61	H	0.464980	0.000367	-0.210777
H62	H	0.628003	0.000242	0.018171
C63	C	0.695258	0.000295	0.090605
H64	H	0.705088	0.000303	0.043240
H65	H	0.668930	-0.071074	0.099046
H66	H	0.668945	0.071663	0.099032
C67	C	0.043912	0.000435	0.044997
H68	H	0.081101	0.000404	0.082419
H69	H	0.015877	0.071804	0.048065
H70	H	0.015841	-0.070933	0.048058
C71	C	0.161054	0.000471	-0.224511
H72	H	0.210859	0.000467	-0.216115
H73	H	0.145601	-0.070884	-0.250481
H74	H	0.145638	0.071853	-0.250479
H75	H	0.937637	0.000381	0.578372
C76	C	0.686462	0.000316	0.687544
H77	H	0.694858	0.000314	0.737349
H78	H	0.660496	0.071669	0.672101
H79	H	0.660490	-0.071068	0.672117
H80	H	0.706743	0.000312	0.547465
H81	H	0.020968	0.000494	-0.204232
C82	C	0.693004	0.000293	0.243529
H83	H	0.655581	0.000293	0.206340
H84	H	0.689933	-0.071070	0.271589
H85	H	0.689949	0.071667	0.271575
C86	C	0.196828	0.000400	0.042738
H87	H	0.169786	0.000413	0.081108
H88	H	0.225571	-0.070972	0.044966
H89	H	0.225608	0.071765	0.044963
H90	H	0.944177	0.000351	0.134361
C91	C	0.960255	0.000364	0.279311
H92	H	0.998626	0.000361	0.252272
H93	H	0.962490	0.071725	0.308070
H94	H	0.962470	-0.071012	0.308076
