data_functionalizedCrystal
_audit_creation_method	'MofGen! by Chris Wilmer'
_symmetry_space_group_name_H-M	'P1'
_symmetry_Int_Tables_number	1
_symmetry_cell_setting	triclinic
loop_
_symmetry_equiv_pos_as_xyz
  x,y,z
_cell_length_a	10.723023
_cell_length_b	14.044190
_cell_length_c	9.198806
_cell_angle_alpha	89.991997
_cell_angle_beta	89.996513
_cell_angle_gamma	88.829662
loop_
_atom_site_label
_atom_site_type_symbol
_atom_site_fract_x
_atom_site_fract_y
_atom_site_fract_z
O1	O	1.670503	0.133036	-0.120896
O2	O	1.308625	0.145772	-0.120904
O3	O	1.484127	0.001384	-0.120871
O4	O	1.495000	0.277424	-0.120928
O5	O	1.484112	0.001384	0.120914
O6	O	1.308609	0.145771	0.120881
O7	O	1.670487	0.133036	0.120889
Cu8	Cu	1.489547	0.139404	0.142962
Cu9	Cu	1.489565	0.139404	-0.142977
O10	O	1.494985	0.277424	0.120857
C11	C	1.262025	0.144845	-0.000012
C12	C	1.123193	0.142073	-0.000013
C13	C	1.061289	0.140836	0.125238
C14	C	0.917799	0.137971	0.125239
C15	C	1.479363	-0.033962	0.000025
C16	C	1.465175	-0.139280	0.000038
C17	C	1.539861	-0.389081	-0.000017
C18	C	1.439257	-0.332106	-0.000010
C19	C	1.453681	-0.224808	0.000017
C20	C	1.525438	-0.496389	-0.000044
C21	C	1.717087	0.133963	-0.000006
C22	C	1.855919	0.136735	-0.000014
C23	C	1.499749	0.312769	-0.000043
C24	C	1.513937	0.418088	-0.000065
N25	N	1.489543	0.139403	0.344076
N26	N	1.489578	0.139398	-0.344091
C27	C	1.563205	0.078511	0.416287
C28	C	1.563224	0.078508	0.583699
H29	H	1.342294	-0.363911	-0.000020
O30	O	1.668291	-0.346954	0.000012
H31	H	1.719742	-0.370920	-0.098541
O32	O	1.646691	0.009427	0.334027
H33	H	1.633561	0.020260	0.215443
O34	O	1.646766	0.009446	0.665938
H35	H	1.633664	0.020276	0.784523
O36	O	1.131790	0.142253	0.267285
H37	H	1.110766	0.077214	0.330539
O38	O	1.052711	0.140658	-0.142074
H39	H	0.989344	0.204013	-0.148324
H40	H	1.426514	0.191536	0.593821
O41	O	0.926427	0.138138	-0.142063
H42	H	0.897539	0.202182	-0.205316
H43	H	0.864563	0.136913	0.232470
H44	H	1.426488	0.191529	0.406193
