data_functionalizedCrystal
_audit_creation_method	'MofGen! by Chris Wilmer'
_symmetry_space_group_name_H-M	'P1'
_symmetry_Int_Tables_number	1
_symmetry_cell_setting	triclinic
loop_
_symmetry_equiv_pos_as_xyz
  x,y,z
_cell_length_a	14.971491
_cell_length_b	10.489741
_cell_length_c	13.448316
_cell_angle_alpha	90.002390
_cell_angle_beta	90.006764
_cell_angle_gamma	84.077705
loop_
_atom_site_label
_atom_site_type_symbol
_atom_site_fract_x
_atom_site_fract_y
_atom_site_fract_z
O1	O	1.187889	0.166247	0.082734
O2	O	0.927603	0.186145	0.082726
O3	O	1.063668	-0.009470	0.082724
O4	O	1.051823	0.361862	0.082736
O5	O	1.063655	-0.009468	-0.082659
O6	O	0.927589	0.186147	-0.082657
O7	O	1.187875	0.166249	-0.082650
Cu8	Cu	1.057731	0.176198	-0.097754
Cu9	Cu	1.057747	0.176196	0.097831
O10	O	1.051809	0.361864	-0.082648
C11	C	0.894266	0.185255	0.000034
C12	C	0.794954	0.182585	0.000031
C13	C	0.367190	0.171061	0.090204
C14	C	0.460505	0.173566	0.090200
C15	C	0.507150	0.174828	0.000046
C16	C	0.460478	0.173572	-0.090110
C17	C	0.367166	0.171058	-0.090105
C18	C	0.654969	0.178816	-0.090114
C19	C	0.748288	0.181333	-0.090119
C20	C	0.748308	0.181324	0.090192
C21	C	0.654996	0.178810	0.090197
C22	C	0.608330	0.177556	0.000040
C23	C	1.062767	-0.056991	0.000033
C24	C	1.060090	-0.198589	0.000035
C25	C	0.973516	-0.265730	0.000040
C26	C	1.014406	-0.358323	-0.081502
C27	C	1.014440	-0.358300	0.081553
C28	C	1.101016	-0.289318	-0.081574
C29	C	1.101038	-0.289285	0.081555
C30	C	1.141991	-0.381852	-0.000007
C31	C	1.221212	0.167139	0.000045
C32	C	1.320524	0.169809	0.000055
C33	C	1.052711	0.409385	0.000046
C34	C	1.055388	0.550983	0.000050
N35	N	1.057726	0.176199	-0.235319
C36	C	1.003016	0.098694	-0.712571
C37	C	1.003013	0.098690	-0.608467
C38	C	1.057749	0.176185	-0.556400
C39	C	1.112498	0.253679	-0.608441
C40	C	1.112505	0.253676	-0.712543
C41	C	1.112477	0.253684	-0.391461
C42	C	1.112469	0.253690	-0.287353
C43	C	1.002985	0.098698	-0.287386
C44	C	1.002992	0.098694	-0.391487
C45	C	1.057740	0.176191	-0.443521
N46	N	1.057759	0.176185	0.235395
H47	H	0.902334	-0.215256	-0.000045
H48	H	0.958438	0.035585	-0.566106
N49	N	0.947065	0.019558	-0.444673
N50	N	0.863809	0.034632	-0.433067
H51	H	0.824309	-0.021259	-0.470629
N52	N	0.947088	0.019554	-0.765752
N53	N	0.863832	0.034625	-0.754142
H54	H	0.824332	-0.021270	-0.791699
H55	H	1.157069	0.316771	-0.566040
H56	H	0.958405	0.035600	-0.245015
H57	H	1.137611	-0.258908	-0.150588
H58	H	1.157062	0.316787	-0.433824
H59	H	1.157037	0.316798	-0.244963
N60	N	0.319480	0.169771	-0.182182
N61	N	0.275077	0.078527	-0.202296
H62	H	0.241398	0.077612	-0.267327
N63	N	0.319535	0.169757	0.182287
N64	N	0.236222	0.167508	0.182283
H65	H	0.202566	0.166581	0.247319
N66	N	1.231370	-0.444876	-0.000065
N67	N	1.283489	-0.427011	-0.070140
H68	H	1.346613	-0.471521	-0.070185
H69	H	0.977769	-0.388911	-0.150442
N70	N	1.146956	-0.250880	0.168049
N71	N	1.117464	-0.272603	0.252656
H72	H	1.149887	-0.245477	0.313752
N73	N	1.168435	0.332832	-0.765682
N74	N	1.217304	0.402017	-0.719185
H75	H	1.256810	0.457919	-0.756713
N76	N	0.508105	0.174902	-0.182210
N77	N	0.466422	0.173805	-0.262695
H78	H	0.500055	0.174759	-0.327744
H79	H	0.977803	-0.388842	0.150497
N80	N	0.607314	0.177525	-0.182214
N81	N	0.648969	0.178655	-0.262704
H82	H	0.615313	0.177749	-0.327749
H83	H	0.498497	0.174578	0.163609
N84	N	0.607364	0.177512	0.182296
N85	N	0.625464	0.087949	0.242654
H86	H	0.591825	0.087028	0.307702
N87	N	0.795988	0.182578	0.182278
N88	N	0.879304	0.184799	0.182265
H89	H	0.912983	0.185678	0.247298
H90	H	0.786263	0.182367	-0.163530
