data_functionalizedCrystal
_audit_creation_method	'MofGen! by Chris Wilmer'
_symmetry_space_group_name_H-M	'P1'
_symmetry_Int_Tables_number	1
_symmetry_cell_setting	triclinic
loop_
_symmetry_equiv_pos_as_xyz
  x,y,z
_cell_length_a	16.625547
_cell_length_b	29.839131
_cell_length_c	16.625539
_cell_angle_alpha	89.962116
_cell_angle_beta	89.978691
_cell_angle_gamma	90.035164
loop_
_atom_site_label
_atom_site_type_symbol
_atom_site_fract_x
_atom_site_fract_y
_atom_site_fract_z
Zn1	Zn	1.232581	-0.178862	-0.455937
Zn2	Zn	1.482581	0.071138	-0.205937
Zn3	Zn	1.732581	0.321138	0.044063
Zn4	Zn	1.982581	0.571138	0.294063
Zn5	Zn	1.232462	-0.253990	-0.321077
Zn6	Zn	1.482462	-0.003990	-0.071077
Zn7	Zn	1.732462	0.246010	0.178923
Zn8	Zn	1.982462	0.496010	0.428923
Zn9	Zn	1.097751	-0.178875	-0.321107
Zn10	Zn	1.347751	0.071125	-0.071107
Zn11	Zn	1.597751	0.321125	0.178893
Zn12	Zn	1.847751	0.571125	0.428893
Zn13	Zn	1.097683	-0.253965	-0.455857
Zn14	Zn	1.347683	-0.003965	-0.205857
Zn15	Zn	1.597683	0.246035	0.044143
Zn16	Zn	1.847683	0.496035	0.294143
O17	O	1.165119	-0.216423	-0.388494
O18	O	1.415119	0.033577	-0.138494
O19	O	1.665119	0.283577	0.111506
O20	O	1.915119	0.533577	0.361506
O21	O	1.345398	-0.188832	-0.438068
O22	O	1.595398	0.061168	-0.188068
O23	O	1.845398	0.311168	0.061932
O24	O	2.095398	0.561168	0.311932
O25	O	1.214572	-0.244042	-0.208249
O26	O	1.464572	0.005958	0.041751
O27	O	1.714572	0.255958	0.291751
O28	O	1.964572	0.505958	0.541751
O29	O	1.115715	-0.116006	-0.339039
O30	O	1.365715	0.133994	-0.089039
O31	O	1.615715	0.383994	0.160961
O32	O	1.865715	0.633994	0.410961
O33	O	1.345311	-0.244029	-0.338987
O34	O	1.595311	0.005971	-0.088987
O35	O	1.845311	0.255971	0.161013
O36	O	2.095311	0.505971	0.411013
O37	O	1.214774	-0.115996	-0.438097
O38	O	1.464774	0.134004	-0.188097
O39	O	1.714774	0.384004	0.061903
O40	O	1.964774	0.634004	0.311903
O41	O	1.115600	-0.188855	-0.208271
O42	O	1.365600	0.061145	0.041729
O43	O	1.615600	0.311145	0.291729
O44	O	1.865600	0.561145	0.541729
O45	O	0.984910	-0.188831	-0.338961
O46	O	1.234910	0.061169	-0.088961
O47	O	1.484910	0.311169	0.161039
O48	O	1.734910	0.561169	0.411039
O49	O	1.115599	-0.243987	-0.568700
O50	O	1.365599	0.006013	-0.318700
O51	O	1.615599	0.256013	-0.068700
O52	O	1.865599	0.506013	0.181300
O53	O	0.984860	-0.243999	-0.437961
O54	O	1.234860	0.006001	-0.187961
O55	O	1.484860	0.256001	0.062039
O56	O	1.734860	0.506001	0.312039
O57	O	1.214708	-0.188808	-0.568759
O58	O	1.464708	0.061192	-0.318759
O59	O	1.714708	0.311192	-0.068759
O60	O	1.964708	0.561192	0.181241
O61	O	1.214506	-0.316854	-0.338910
O62	O	1.464506	-0.066854	-0.088910
O63	O	1.714506	0.183146	0.161090
O64	O	1.964506	0.433146	0.411090
O65	O	1.115484	-0.316836	-0.437932
O66	O	1.365484	-0.066836	-0.187932
O67	O	1.615484	0.183164	0.062068
O68	O	1.865484	0.433164	0.312068
C69	C	0.955629	-0.216414	-0.388456
C70	C	1.205629	0.033586	-0.138456
C71	C	1.455629	0.283586	0.111544
C72	C	1.705629	0.533586	0.361544
C73	C	0.866007	-0.216421	-0.388459
C74	C	1.116007	0.033579	-0.138459
C75	C	1.366007	0.283579	0.111541
C76	C	1.616007	0.533579	0.361541
C77	C	0.793225	-0.216422	-0.388469
C78	C	1.043225	0.033578	-0.138469
C79	C	1.293225	0.283578	0.111531
C80	C	1.543225	0.533578	0.361531
C81	C	0.701917	-0.216424	-0.388489
C82	C	0.951917	0.033576	-0.138489
C83	C	1.201917	0.283576	0.111511
C84	C	1.451917	0.533576	0.361511
C85	C	0.629140	-0.216429	-0.388510
C86	C	0.879140	0.033571	-0.138510
C87	C	1.129140	0.283571	0.111490
C88	C	1.379140	0.533571	0.361490
C89	C	0.537826	-0.216432	-0.388529
C90	C	0.787826	0.033568	-0.138529
C91	C	1.037826	0.283568	0.111471
C92	C	1.287826	0.533568	0.361471
C93	C	1.164996	-0.333145	-0.388426
C94	C	1.414996	-0.083145	-0.138426
C95	C	1.664996	0.166855	0.111574
C96	C	1.914996	0.416855	0.361574
C97	C	1.165018	-0.383080	-0.388424
C98	C	1.415018	-0.133080	-0.138424
C99	C	1.665018	0.116920	0.111576
C100	C	1.915018	0.366920	0.361576
C101	C	1.216688	-0.692683	-0.440148
C102	C	1.466688	-0.442683	-0.190148
C103	C	1.716688	-0.192683	0.059852
C104	C	1.966688	0.057317	0.309852
C105	C	1.216776	-0.880356	-0.440196
C106	C	1.466776	-0.630356	-0.190196
C107	C	1.716776	-0.380356	0.059804
C108	C	1.966776	-0.130356	0.309804
O109	O	1.260587	-0.904587	-0.484123
O110	O	1.510587	-0.654587	-0.234123
O111	O	1.760587	-0.404587	0.015877
O112	O	2.010587	-0.154587	0.265877
N113	N	1.165256	-0.903865	-0.388584
N114	N	1.415256	-0.653865	-0.138584
N115	N	1.665256	-0.403865	0.111416
N116	N	1.915256	-0.153865	0.361416
C117	C	1.113708	-0.880452	-0.336960
C118	C	1.363708	-0.630452	-0.086960
C119	C	1.613708	-0.380452	0.163040
C120	C	1.863708	-0.130452	0.413040
O121	O	1.069884	-0.904754	-0.293067
O122	O	1.319884	-0.654754	-0.043067
O123	O	1.569884	-0.404754	0.206933
O124	O	1.819884	-0.154754	0.456933
C125	C	1.113617	-0.692780	-0.336916
C126	C	1.363617	-0.442780	-0.086916
C127	C	1.613617	-0.192780	0.163084
C128	C	1.863617	0.057220	0.413084
C129	C	1.165145	-0.669274	-0.388526
C130	C	1.415145	-0.419274	-0.138526
C131	C	1.665145	-0.169274	0.111474
C132	C	1.915145	0.080726	0.361474
C133	C	1.268212	-0.669177	-0.491754
C134	C	1.518212	-0.419177	-0.241754
C135	C	1.768212	-0.169177	0.008246
C136	C	2.018212	0.080823	0.258246
C137	C	1.268193	-0.622262	-0.491738
C138	C	1.518193	-0.372262	-0.241738
C139	C	1.768193	-0.122262	0.008262
C140	C	2.018193	0.127738	0.258262
C141	C	1.216650	-0.598852	-0.440116
C142	C	1.466650	-0.348852	-0.190116
C143	C	1.716650	-0.098852	0.059884
C144	C	1.966650	0.151148	0.309884
C145	C	1.165126	-0.622359	-0.388510
C146	C	1.415126	-0.372359	-0.138510
C147	C	1.665126	-0.122359	0.111490
C148	C	1.915126	0.127641	0.361490
C149	C	1.062065	-0.669368	-0.285296
C150	C	1.312065	-0.419368	-0.035296
C151	C	1.562065	-0.169368	0.214704
C152	C	1.812065	0.080632	0.464704
C153	C	1.062045	-0.622447	-0.285291
C154	C	1.312045	-0.372447	-0.035291
C155	C	1.562045	-0.122447	0.214709
C156	C	1.812045	0.127553	0.464709
C157	C	1.113574	-0.598941	-0.336901
C158	C	1.363574	-0.348941	-0.086901
C159	C	1.613574	-0.098941	0.163099
C160	C	1.863574	0.151059	0.413099
C161	C	1.113564	-0.552034	-0.336872
C162	C	1.363564	-0.302034	-0.086872
C163	C	1.613564	-0.052034	0.163128
C164	C	1.863564	0.197966	0.413128
N165	N	1.165083	-0.528525	-0.388484
N166	N	1.415083	-0.278525	-0.138484
N167	N	1.665083	-0.028525	0.111516
N168	N	1.915083	0.221475	0.361516
C169	C	1.216626	-0.551935	-0.440107
C170	C	1.466626	-0.301935	-0.190107
C171	C	1.716626	-0.051935	0.059893
C172	C	1.966626	0.198065	0.309893
C173	C	1.113760	-0.978983	-0.336985
C174	C	1.363760	-0.728983	-0.086985
C175	C	1.613760	-0.478983	0.163015
C176	C	1.863760	-0.228983	0.413015
C177	C	1.113784	-1.025901	-0.336995
C178	C	1.363784	-0.775901	-0.086995
C179	C	1.613784	-0.525901	0.163005
C180	C	1.863784	-0.275901	0.413005
C181	C	1.216851	-1.025802	-0.440233
C182	C	1.466851	-0.775802	-0.190233
C183	C	1.716851	-0.525802	0.059767
C184	C	1.966851	-0.275802	0.309767
C185	C	1.216831	-0.978883	-0.440218
C186	C	1.466831	-0.728883	-0.190218
C187	C	1.716831	-0.478883	0.059782
C188	C	1.966831	-0.228883	0.309782
C189	C	1.165280	-0.955474	-0.388597
C190	C	1.415280	-0.705474	-0.138597
C191	C	1.665280	-0.455474	0.111403
C192	C	1.915280	-0.205474	0.361403
C193	C	1.216582	-0.453409	-0.440069
C194	C	1.466582	-0.203409	-0.190069
C195	C	1.716582	0.046591	0.059931
C196	C	1.966582	0.296591	0.309931
C197	C	1.216561	-0.406489	-0.440046
C198	C	1.466561	-0.156489	-0.190046
C199	C	1.716561	0.093511	0.059954
C200	C	1.966561	0.343511	0.309954
C201	C	1.113491	-0.406592	-0.336812
C202	C	1.363491	-0.156592	-0.086812
C203	C	1.613491	0.093408	0.163188
C204	C	1.863491	0.343408	0.413188
C205	C	1.113515	-0.453508	-0.336831
C206	C	1.363515	-0.203508	-0.086831
C207	C	1.613515	0.046492	0.163169
C208	C	1.863515	0.296492	0.413169
C209	C	1.165063	-0.476915	-0.388466
C210	C	1.415063	-0.226915	-0.138466
C211	C	1.665063	0.023085	0.111534
C212	C	1.915063	0.273085	0.361534
O213	O	1.069769	-0.527774	-0.292975
O214	O	1.319769	-0.277774	-0.042975
O215	O	1.569769	-0.027774	0.207025
O216	O	1.819769	0.222226	0.457025
O217	O	1.260431	-0.527625	-0.484005
O218	O	1.510431	-0.277625	-0.234005
O219	O	1.760431	-0.027625	0.015995
O220	O	2.010431	0.222375	0.265995
C221	C	1.216708	-0.739599	-0.440163
C222	C	1.466708	-0.489599	-0.190163
C223	C	1.716708	-0.239599	0.059837
C224	C	1.966708	0.010401	0.309837
C225	C	1.165184	-0.763105	-0.388557
C226	C	1.415184	-0.513105	-0.138557
C227	C	1.665184	-0.263105	0.111443
C228	C	1.915184	-0.013105	0.361443
C229	C	1.113641	-0.739696	-0.336935
C230	C	1.363641	-0.489696	-0.086935
C231	C	1.613641	-0.239696	0.163065
C232	C	1.863641	0.010304	0.413065
C233	C	1.165207	-0.810023	-0.388567
C234	C	1.415207	-0.560023	-0.138567
C235	C	1.665207	-0.310023	0.111433
C236	C	1.915207	-0.060023	0.361433
C237	C	1.216750	-0.833432	-0.440189
C238	C	1.466750	-0.583432	-0.190189
C239	C	1.716750	-0.333432	0.059811
C240	C	1.966750	-0.083432	0.309811
C241	C	1.268270	-0.809923	-0.491801
C242	C	1.518270	-0.559923	-0.241801
C243	C	1.768270	-0.309923	0.008199
C244	C	2.018270	-0.059923	0.258199
C245	C	1.268250	-0.763008	-0.491786
C246	C	1.518250	-0.513008	-0.241786
C247	C	1.768250	-0.263008	0.008214
C248	C	2.018250	-0.013008	0.258214
C249	C	1.062122	-0.763204	-0.285323
C250	C	1.312122	-0.513204	-0.035323
C251	C	1.562122	-0.263204	0.214677
C252	C	1.812122	-0.013204	0.464677
C253	C	1.062146	-0.810120	-0.285342
C254	C	1.312146	-0.560120	-0.035342
C255	C	1.562146	-0.310120	0.214658
C256	C	1.812146	-0.060120	0.464658
C257	C	1.113689	-0.833529	-0.336964
C258	C	1.363689	-0.583529	-0.086964
C259	C	1.613689	-0.333529	0.163036
C260	C	1.863689	-0.083529	0.413036
C261	C	1.375428	-0.216432	-0.388533
C262	C	1.625428	0.033568	-0.138533
C263	C	1.875428	0.283568	0.111467
C264	C	2.125428	0.533568	0.361467
C265	C	1.465049	-0.216436	-0.388550
C266	C	1.715049	0.033564	-0.138550
C267	C	1.965049	0.283564	0.111450
C268	C	2.215049	0.533564	0.361450
C269	C	1.165159	-0.216393	-0.598803
C270	C	1.415159	0.033607	-0.348803
C271	C	1.665159	0.283607	-0.098803
C272	C	1.915159	0.533607	0.151197
C273	C	1.165176	-0.216381	-0.688425
C274	C	1.415176	0.033619	-0.438425
C275	C	1.665176	0.283619	-0.188425
C276	C	1.915176	0.533619	0.061575
C277	C	1.165265	-0.099244	-0.388580
C278	C	1.415265	0.150756	-0.138580
C279	C	1.665265	0.400756	0.111420
C280	C	1.915265	0.650756	0.361420
C281	C	1.165327	-0.049310	-0.388617
C282	C	1.415327	0.200690	-0.138617
C283	C	1.665327	0.450690	0.111383
C284	C	1.915327	0.700690	0.361383
C285	C	1.165189	-0.216371	-0.761207
C286	C	1.415189	0.033629	-0.511207
C287	C	1.665189	0.283629	-0.261207
C288	C	1.915189	0.533629	-0.011207
C289	C	1.165208	-0.216354	-0.852516
C290	C	1.415208	0.033646	-0.602516
C291	C	1.665208	0.283646	-0.352516
C292	C	1.915208	0.533646	-0.102516
C293	C	1.165227	-0.216338	-0.925292
C294	C	1.415227	0.033662	-0.675292
C295	C	1.665227	0.283662	-0.425292
C296	C	1.915227	0.533662	-0.175292
C297	C	1.165247	-0.216322	-1.016606
C298	C	1.415247	0.033678	-0.766606
C299	C	1.665247	0.283678	-0.516606
C300	C	1.915247	0.533678	-0.266606
C301	C	1.165126	-0.216420	-0.179004
C302	C	1.415126	0.033580	0.070996
C303	C	1.665126	0.283580	0.320996
C304	C	1.915126	0.533580	0.570996
C305	C	1.165266	-0.216306	-0.089383
C306	C	1.415266	0.033694	0.160617
C307	C	1.665266	0.283694	0.410617
C308	C	1.915266	0.533694	0.660617
H309	H	1.258524	-0.387352	-0.482073
H310	H	1.508524	-0.137352	-0.232073
H311	H	1.758524	0.112648	0.017927
H312	H	2.008524	0.362648	0.267927
Br313	Br	0.992157	-0.731442	-0.215263
Br314	Br	1.242157	-0.481442	0.034737
Br315	Br	1.492157	-0.231442	0.284737
Br316	Br	1.742157	0.018558	0.534737
H317	H	1.258552	-0.472461	-0.482121
H318	H	1.508552	-0.222461	-0.232121
H319	H	1.758552	0.027539	0.017879
H320	H	2.008552	0.277539	0.267879
Br321	Br	1.043863	-1.057796	-0.266936
Br322	Br	1.293863	-0.807796	-0.016936
Br323	Br	1.543863	-0.557796	0.233064
Br324	Br	1.793863	-0.307796	0.483064
H325	H	1.071780	-0.959927	-0.294947
H326	H	1.321780	-0.709927	-0.044947
H327	H	1.571780	-0.459927	0.205053
H328	H	1.821780	-0.209927	0.455053
Br329	Br	1.338122	-0.590368	-0.561790
Br330	Br	1.588122	-0.340368	-0.311790
Br331	Br	1.838122	-0.090368	-0.061790
Br332	Br	2.088122	0.159632	0.188210
Br333	Br	1.286803	-1.057580	-0.510290
Br334	Br	1.536803	-0.807580	-0.260290
Br335	Br	1.786803	-0.557580	-0.010290
Br336	Br	2.036803	-0.307580	0.239710
H337	H	1.310184	-0.688232	-0.533796
H338	H	1.560184	-0.438232	-0.283796
H339	H	1.810184	-0.188232	-0.033796
H340	H	2.060184	0.061768	0.216204
H341	H	1.020105	-0.688499	-0.243269
H342	H	1.270105	-0.438499	0.006731
H343	H	1.520105	-0.188499	0.256731
H344	H	1.770105	0.061501	0.506731
H345	H	1.258789	-0.959747	-0.482244
H346	H	1.508789	-0.709747	-0.232244
H347	H	1.758789	-0.459747	0.017756
H348	H	2.008789	-0.209747	0.267756
Br349	Br	0.992077	-0.590682	-0.215231
Br350	Br	1.242077	-0.340682	0.034769
Br351	Br	1.492077	-0.090682	0.284769
Br352	Br	1.742077	0.159318	0.534769
Br353	Br	1.043596	-0.485410	-0.266776
Br354	Br	1.293596	-0.235410	-0.016776
Br355	Br	1.543596	0.014590	0.233224
Br356	Br	1.793596	0.264590	0.483224
H357	H	1.071527	-0.387525	-0.294779
H358	H	1.321527	-0.137525	-0.044779
H359	H	1.571527	0.112475	0.205221
H360	H	1.821527	0.362475	0.455221
Br361	Br	1.338186	-0.731114	-0.561831
Br362	Br	1.588186	-0.481114	-0.311831
Br363	Br	1.838186	-0.231114	-0.061831
Br364	Br	2.088186	0.018886	0.188169
H365	H	1.310241	-0.828991	-0.533831
H366	H	1.560241	-0.578991	-0.283831
H367	H	1.810241	-0.328991	-0.033831
H368	H	2.060241	-0.078991	0.216169
Br369	Br	0.992212	-0.842015	-0.215288
Br370	Br	1.242212	-0.592015	0.034712
Br371	Br	1.492212	-0.342015	0.284712
Br372	Br	1.742212	-0.092015	0.534712
