data_functionalizedCrystal
_audit_creation_method	'MofGen! by Chris Wilmer'
_symmetry_space_group_name_H-M	'P1'
_symmetry_Int_Tables_number	1
_symmetry_cell_setting	triclinic
loop_
_symmetry_equiv_pos_as_xyz
  x,y,z
_cell_length_a	10.065875
_cell_length_b	8.559649
_cell_length_c	8.597304
_cell_angle_alpha	102.375305
_cell_angle_beta	88.649997
_cell_angle_gamma	82.499019
loop_
_atom_site_label
_atom_site_type_symbol
_atom_site_fract_x
_atom_site_fract_y
_atom_site_fract_z
O1	O	0.104428	-2.140437	-0.076917
O2	O	0.113698	-1.678374	0.001873
O3	O	0.082770	-1.913212	-0.261104
O4	O	0.135356	-1.905599	0.186059
O5	O	-0.138301	-1.868439	-0.210779
O6	O	-0.107372	-1.633601	0.052198
O7	O	-0.116642	-2.095664	-0.026592
Zn8	Zn	-0.147107	-1.857524	0.020793
Zn9	Zn	0.144162	-1.916514	-0.045513
O10	O	-0.085714	-1.860826	0.236385
C11	C	0.003866	-1.596696	0.033006
C12	C	0.005958	-1.420024	0.050779
N13	N	-0.345891	-1.817276	0.066043
C14	C	-0.034433	-1.887515	-0.292659
C15	C	-0.054298	-1.877629	-0.461656
C16	C	-0.424939	-1.902500	-0.029777
C17	C	-0.578009	-1.871537	0.005058
N18	N	0.342945	-1.956775	-0.090776
C19	C	-0.006807	-2.177343	-0.057726
C20	C	-0.008891	-2.354016	-0.075501
C21	C	0.031491	-1.886524	0.267939
C22	C	0.051365	-1.896411	0.436934
H23	H	-0.379296	-1.998382	-0.137608
H24	H	-0.623649	-1.775638	0.112886
H25	H	-0.611417	-2.052662	-0.198613
O26	O	-0.400504	-1.702775	0.194512
C27	C	-0.489224	-1.584932	0.142839
H28	H	-0.524849	-1.639022	0.020623
H29	H	-0.579325	-1.542787	0.231655
H30	H	-0.435242	-1.477698	0.134456
O31	O	0.177525	-1.924570	-0.512665
C32	C	0.271774	-1.940089	-0.640886
H33	H	0.224694	-1.876262	-0.733869
H34	H	0.363626	-1.883066	-0.595292
H35	H	0.303216	-2.073483	-0.697179
H36	H	0.020279	-1.341371	0.172496
H37	H	-0.159973	-1.853965	-0.504124
H38	H	-0.023197	-1.432664	-0.197213
