data_functionalizedCrystal
_audit_creation_method	'MofGen! by Chris Wilmer'
_symmetry_space_group_name_H-M	'P1'
_symmetry_Int_Tables_number	1
_symmetry_cell_setting	triclinic
loop_
_symmetry_equiv_pos_as_xyz
  x,y,z
_cell_length_a	11.792241
_cell_length_b	10.268362
_cell_length_c	11.792254
_cell_angle_alpha	89.994545
_cell_angle_beta	95.803993
_cell_angle_gamma	89.999728
loop_
_atom_site_label
_atom_site_type_symbol
_atom_site_fract_x
_atom_site_fract_y
_atom_site_fract_z
O1	O	-1.506916	-0.108155	0.155568
O2	O	-1.173583	0.225178	0.488901
O3	O	-0.840249	0.558512	0.822234
O4	O	-1.176576	-0.108190	0.171601
O5	O	-0.843242	0.225144	0.504934
O6	O	-0.509909	0.558477	0.838267
O7	O	-1.349755	-0.108162	-0.001585
O8	O	-1.016421	0.225171	0.331748
O9	O	-0.683088	0.558505	0.665081
O10	O	-1.333737	-0.108182	0.328754
O11	O	-1.000403	0.225151	0.662087
O12	O	-0.667070	0.558484	0.995420
O13	O	-1.349739	0.108438	-0.001593
O14	O	-1.016406	0.441772	0.331741
O15	O	-0.683073	0.775105	0.665074
O16	O	-1.176560	0.108411	0.171593
O17	O	-0.843227	0.441744	0.504927
O18	O	-0.509894	0.775078	0.838260
O19	O	-1.506901	0.108446	0.155561
O20	O	-1.173567	0.441779	0.488894
O21	O	-0.840234	0.775112	0.822227
Cu22	Cu	-1.341729	0.128206	0.163576
Cu23	Cu	-1.008396	0.461539	0.496910
Cu24	Cu	-0.675062	0.794872	0.830243
Cu25	Cu	-1.341747	-0.127950	0.163585
Cu26	Cu	-1.008414	0.205384	0.496918
Cu27	Cu	-0.675080	0.538717	0.830252
O28	O	-1.333722	0.108418	0.328747
O29	O	-1.000388	0.441752	0.662080
O30	O	-0.667055	0.775085	0.995413
C31	C	-1.134277	0.000106	0.170590
C32	C	-0.800944	0.333440	0.503923
C33	C	-0.467610	0.666773	0.837257
C34	C	-1.008263	0.000093	0.167576
C35	C	-0.674930	0.333427	0.500909
C36	C	-0.341596	0.666760	0.834242
N37	N	-1.341725	0.308372	0.163570
N38	N	-1.008391	0.641705	0.496903
N39	N	-0.675058	0.975038	0.830236
C40	C	-0.777551	0.000128	0.162033
C41	C	-0.444217	0.333461	0.495366
C42	C	-0.110884	0.666795	0.828699
C43	C	-0.905936	0.000109	0.165112
C44	C	-0.572603	0.333442	0.498446
C45	C	-0.239269	0.666776	0.831779
C46	C	-1.348738	0.000138	-0.043880
C47	C	-1.015405	0.333471	0.289454
C48	C	-0.682071	0.666804	0.622787
C49	C	-1.345718	0.000136	-0.169893
C50	C	-1.012385	0.333469	0.163441
C51	C	-0.679051	0.666803	0.496774
C52	C	-0.549199	0.000144	0.156571
C53	C	-0.215866	0.333477	0.489905
C54	C	0.117467	0.666810	0.823238
C55	C	-0.675213	0.000138	0.159586
C56	C	-0.341880	0.333472	0.492919
C57	C	-0.008546	0.666805	0.826252
N58	N	-1.341760	-0.308115	0.163583
N59	N	-1.008427	0.025218	0.496916
N60	N	-0.675094	0.358551	0.830249
C61	C	-1.341741	0.574042	0.163583
C62	C	-1.008408	0.907376	0.496916
C63	C	-0.675075	1.240709	0.830249
C64	C	-1.341728	0.426204	0.163579
C65	C	-1.008395	0.759538	0.496912
C66	C	-0.675062	1.092871	0.830245
C67	C	-1.343264	0.000131	-0.272229
C68	C	-1.009931	0.333465	0.061104
C69	C	-0.676597	0.666798	0.394437
C70	C	-1.340196	0.000119	-0.400616
C71	C	-1.006862	0.333452	-0.067283
C72	C	-0.673529	0.666786	0.266051
C73	C	-1.334738	0.000116	0.371041
C74	C	-1.001405	0.333449	0.704374
C75	C	-0.668071	0.666782	1.037708
C76	C	-1.337758	0.000109	0.497054
C77	C	-1.004425	0.333442	0.830387
C78	C	-0.671092	0.666775	1.163721
