data_functionalizedCrystal
_audit_creation_method	'MofGen! by Chris Wilmer'
_symmetry_space_group_name_H-M	'P1'
_symmetry_Int_Tables_number	1
_symmetry_cell_setting	triclinic
loop_
_symmetry_equiv_pos_as_xyz
  x,y,z
_cell_length_a	15.944551
_cell_length_b	14.519709
_cell_length_c	12.996460
_cell_angle_alpha	89.999966
_cell_angle_beta	89.992903
_cell_angle_gamma	96.410558
loop_
_atom_site_label
_atom_site_type_symbol
_atom_site_fract_x
_atom_site_fract_y
_atom_site_fract_z
O1	O	0.110109	-1.223676	-0.085435
O2	O	0.610109	-0.723676	0.414565
O3	O	0.123076	-0.955177	-0.085467
O4	O	0.623076	-0.455177	0.414533
O5	O	-0.005672	-1.096759	-0.085441
O6	O	0.494328	-0.596759	0.414559
O7	O	0.238857	-1.082094	-0.085461
O8	O	0.738857	-0.582094	0.414539
O9	O	-0.005679	-1.096744	0.085693
O10	O	0.494321	-0.596744	0.585693
O11	O	0.123069	-0.955162	0.085667
O12	O	0.623069	-0.455162	0.585667
O13	O	0.110102	-1.223661	0.085699
O14	O	0.610102	-0.723661	0.585699
Cu15	Cu	0.116585	-1.089410	0.101309
Cu16	Cu	0.616585	-0.589410	0.601309
Cu17	Cu	0.116593	-1.089428	-0.101077
Cu18	Cu	0.616593	-0.589428	0.398923
O19	O	0.238849	-1.082080	0.085673
O20	O	0.738849	-0.582080	0.585673
C21	C	0.122468	-0.920810	0.000096
C22	C	0.622468	-0.420810	0.500096
C23	C	0.120657	-0.818432	0.000084
C24	C	0.620657	-0.318432	0.500084
C25	C	-0.036970	-1.096142	0.000126
C26	C	0.463030	-0.596142	0.500126
C27	C	-0.130219	-1.094317	0.000126
C28	C	0.369781	-0.594317	0.500126
N29	N	0.116578	-1.089405	0.243656
N30	N	0.616578	-0.589405	0.743656
C31	C	-0.345209	-1.002196	0.000101
C32	C	0.154791	-0.502196	0.500101
C33	C	-0.406168	-1.044967	0.084486
C34	C	0.093832	-0.544967	0.584486
C35	C	-0.300950	-1.091015	0.000118
C36	C	0.199050	-0.591015	0.500118
C37	C	-0.406144	-1.045002	-0.084239
C38	C	0.093856	-0.545002	0.415761
C39	C	-0.465867	-1.087820	0.000106
C40	C	0.034133	-0.587820	0.500106
C41	C	-0.360680	-1.133811	0.084572
C42	C	0.139320	-0.633811	0.584572
C43	C	-0.360650	-1.133834	-0.084228
C44	C	0.139350	-0.633834	0.415772
C45	C	-0.421591	-1.176669	0.000177
C46	C	0.078409	-0.676669	0.500177
C47	C	-0.205945	-1.092854	0.000126
C48	C	0.294055	-0.592854	0.500126
C49	C	-0.560871	-1.085988	0.000105
C50	C	-0.060871	-0.585988	0.500105
C51	C	0.270148	-1.082696	0.000103
C52	C	0.770148	-0.582696	0.500103
C53	C	0.363397	-1.084521	0.000096
C54	C	0.863397	-0.584521	0.500096
C55	C	0.110710	-1.258028	0.000133
C56	C	0.610710	-0.758028	0.500133
C57	C	0.112521	-1.360406	0.000139
C58	C	0.612521	-0.860406	0.500139
C59	C	0.113990	-0.443548	0.000132
C60	C	0.613990	0.056452	0.500132
C61	C	0.115842	-0.547853	0.000118
C62	C	0.615842	-0.047853	0.500118
C63	C	0.117323	-0.630987	0.000107
C64	C	0.617323	-0.130987	0.500107
C65	C	0.119175	-0.735298	0.000095
C66	C	0.619175	-0.235298	0.500095
N67	N	0.116593	-1.089441	-0.243424
N68	N	0.616593	-0.589441	0.256576
C69	C	0.116594	-1.089426	0.663470
C70	C	0.616594	-0.589426	1.163470
C71	C	0.116592	-1.089418	0.546665
C72	C	0.616592	-0.589418	1.046665
C73	C	0.116587	-1.089416	0.453567
C74	C	0.616587	-0.589416	0.953567
C75	C	0.116584	-1.089406	0.336754
C76	C	0.616584	-0.589406	0.836754
H77	H	-0.312009	-0.928471	0.000177
H78	H	0.187991	-0.428471	0.500177
F79	F	-0.464794	-1.273116	0.000247
F80	F	0.035206	-0.773116	0.500247
F81	F	-0.432527	-0.995858	0.177722
F82	F	0.067473	-0.495858	0.677722
F83	F	-0.334261	-1.182904	-0.177469
F84	F	0.165739	-0.682904	0.322531
H85	H	-0.340638	-1.171340	0.155991
H86	H	0.159362	-0.671340	0.655991
H87	H	-0.426273	-1.007429	-0.155584
H88	H	0.073727	-0.507429	0.344416
