data_functionalizedCrystal
_audit_creation_method	'MofGen! by Chris Wilmer'
_symmetry_space_group_name_H-M	'P1'
_symmetry_Int_Tables_number	1
_symmetry_cell_setting	triclinic
loop_
_symmetry_equiv_pos_as_xyz
  x,y,z
_cell_length_a	10.489716
_cell_length_b	14.853567
_cell_length_c	13.330367
_cell_angle_alpha	89.995418
_cell_angle_beta	89.999430
_cell_angle_gamma	84.082033
loop_
_atom_site_label
_atom_site_type_symbol
_atom_site_fract_x
_atom_site_fract_y
_atom_site_fract_z
O1	O	0.166530	1.197292	-0.083345
O2	O	0.186368	0.934943	-0.083361
O3	O	-0.009218	1.072099	-0.083356
O4	O	0.362116	1.060136	-0.083350
O5	O	-0.009223	1.072079	0.083491
O6	O	0.186363	0.934923	0.083486
O7	O	0.166525	1.197272	0.083502
Cu8	Cu	0.176444	1.066096	0.098728
Cu9	Cu	0.176449	1.066119	-0.098588
O10	O	0.362111	1.060116	0.083497
C11	C	0.185467	0.901339	0.000060
C12	C	0.182773	0.801240	0.000054
C13	C	0.055204	0.387999	0.000074
C14	C	0.287565	0.368007	0.000077
C15	C	0.290098	0.462054	0.000074
C16	C	0.175182	0.519079	0.000069
C17	C	0.057734	0.482056	0.000068
C18	C	0.407544	0.499085	0.000065
C19	C	0.410081	0.593138	0.000061
C20	C	0.295164	0.650164	0.000063
C21	C	0.177711	0.613136	0.000063
C22	C	0.062795	0.670160	0.000058
C23	C	-0.054659	0.633134	0.000065
C24	C	-0.057183	0.539082	0.000070
C25	C	0.297689	0.744216	0.000058
C26	C	0.065325	0.764217	0.000052
C27	C	-0.056743	1.071190	0.000064
C28	C	-0.198343	1.068501	0.000055
C29	C	-0.296961	1.152609	0.000069
C30	C	-0.373821	1.108174	-0.082195
C31	C	-0.373789	1.108135	0.082303
C32	C	-0.273338	1.024101	-0.082278
C33	C	-0.273301	1.024074	0.082294
C34	C	-0.350111	0.979577	0.000010
C35	C	0.409636	1.061025	0.000075
C36	C	0.551236	1.063714	0.000077
C37	C	0.167426	1.230876	0.000078
C38	C	0.170120	1.330974	0.000078
N39	N	0.176439	1.066085	0.237510
N40	N	0.176443	1.066137	-0.237369
C41	C	0.263020	1.005384	0.710131
C42	C	0.089868	1.126879	0.710103
C43	C	0.089864	1.126869	0.605085
C44	C	0.176441	1.066116	0.552584
C45	C	0.263022	1.005374	0.605103
C46	C	0.003293	1.187616	0.552559
C47	C	0.003287	1.187609	0.447534
C48	C	0.089859	1.126851	0.395032
C49	C	0.176442	1.066106	0.447556
C50	C	0.263019	1.005353	0.395056
C51	C	0.349598	0.944602	0.447579
C52	C	0.349594	0.944616	0.552601
C53	C	0.089863	1.126838	0.290010
C54	C	0.263020	1.005343	0.290028
H55	H	-0.152809	0.508926	0.000100
N56	N	-0.431882	1.155175	0.174432
H57	H	-0.393891	1.124077	0.236561
H58	H	-0.527692	1.152473	0.174013
H59	H	-0.273106	1.225769	-0.000010
H60	H	0.333518	0.955867	0.247289
H61	H	-0.148223	0.679576	0.000055
N62	N	-0.090106	1.253118	0.609184
H63	H	-0.144957	1.291596	0.559977
H64	H	-0.041194	1.293291	0.652765
N65	N	-0.003495	1.192402	0.766733
H66	H	-0.060055	1.157593	0.810317
H67	H	-0.058261	1.230868	0.717467
H68	H	0.420095	0.895141	0.404821
N69	N	-0.090089	1.253128	0.390888
H70	H	-0.144933	1.291615	0.440084
H71	H	-0.146571	1.218248	0.347325
N72	N	0.442967	0.879096	0.609248
H73	H	0.429831	0.888326	0.683745
H74	H	0.533482	0.890086	0.590886
N75	N	0.356391	0.939857	0.766770
H76	H	0.343255	0.949075	0.841269
H77	H	0.446908	0.950846	0.748412
N78	N	-0.003496	1.192359	0.233360
H79	H	-0.058337	1.230851	0.282554
H80	H	-0.059983	1.157485	0.189794
N81	N	-0.431968	1.155208	-0.174317
H82	H	-0.413081	1.220523	-0.174255
H83	H	-0.527763	1.152434	-0.173903
N84	N	-0.215098	0.977089	0.174417
H85	H	-0.152387	0.924262	0.153454
H86	H	-0.285173	0.954475	0.216586
N87	N	0.424354	0.784154	0.000040
H88	H	0.496768	0.733758	0.000037
H89	H	0.430472	0.822738	0.061890
N90	N	-0.058628	0.825714	0.000056
H91	H	-0.109864	0.813716	-0.061791
H92	H	-0.039108	0.890890	0.000088
N93	N	-0.071474	0.348072	0.000095
H94	H	-0.055647	0.279837	0.000105
H95	H	-0.121772	0.368875	-0.061757
H96	H	-0.229634	0.988623	-0.151903
H97	H	0.381124	0.321572	0.000072
H98	H	-0.373719	0.906363	-0.000039
H99	H	0.501102	0.452649	0.000058
H100	H	0.505720	0.623276	0.000055
