data_functionalizedCrystal
_audit_creation_method	'MofGen! by Chris Wilmer'
_symmetry_space_group_name_H-M	'P1'
_symmetry_Int_Tables_number	1
_symmetry_cell_setting	triclinic
loop_
_symmetry_equiv_pos_as_xyz
  x,y,z
_cell_length_a	15.072220
_cell_length_b	15.995350
_cell_length_c	15.995350
_cell_angle_alpha	83.492375
_cell_angle_beta	89.998899
_cell_angle_gamma	90.008851
loop_
_atom_site_label
_atom_site_type_symbol
_atom_site_fract_x
_atom_site_fract_y
_atom_site_fract_z
O1	O	-0.073703	-1.110996	-0.107921
O2	O	0.426297	-0.610996	0.392079
O3	O	-0.073721	-0.867221	-0.121249
O4	O	0.426279	-0.367221	0.378751
O5	O	-0.073710	-0.995772	0.007303
O6	O	0.426290	-0.495772	0.507303
O7	O	-0.073713	-0.982444	-0.236472
O8	O	0.426287	-0.482444	0.263528
O9	O	0.073855	-0.995740	0.007296
O10	O	0.573855	-0.495740	0.507296
O11	O	0.073844	-0.867189	-0.121256
O12	O	0.573844	-0.367189	0.378744
O13	O	0.073862	-1.110964	-0.107928
O14	O	0.573862	-0.610964	0.392072
Zn15	Zn	0.097283	-0.989071	-0.114593
Zn16	Zn	0.597283	-0.489071	0.385407
Zn17	Zn	-0.097141	-0.989113	-0.114584
Zn18	Zn	0.402859	-0.489113	0.385416
O19	O	0.073852	-0.982413	-0.236480
O20	O	0.573852	-0.482413	0.263520
C21	C	0.000060	-0.836010	-0.120701
C22	C	0.500060	-0.336010	0.379299
C23	C	0.000053	-0.743060	-0.119049
C24	C	0.500053	-0.243060	0.380951
N25	N	0.229971	-0.989049	-0.114599
N26	N	0.729971	-0.489049	0.385401
N27	N	-0.229830	-0.989142	-0.114571
N28	N	0.270170	-0.489142	0.385429
C29	C	0.589173	-0.989112	-0.114580
C30	C	1.089173	-0.489112	0.385420
C31	C	0.551560	-0.920095	-0.183135
C32	C	1.051560	-0.420095	0.316865
C33	C	0.448735	-0.920254	-0.183385
C34	C	0.948735	-0.420254	0.316615
C35	C	0.410969	-0.989080	-0.114590
C36	C	0.910969	-0.489080	0.385410
C37	C	0.448266	-1.076445	-0.133671
C38	C	0.948266	-0.576445	0.366329
C39	C	0.551124	-1.076058	-0.134159
C40	C	1.051124	-0.576058	0.365841
C41	C	0.551272	-0.971542	-0.026741
C42	C	1.051272	-0.471542	0.473259
C43	C	0.448409	-0.969537	-0.027327
C44	C	0.948409	-0.469537	0.472673
C45	C	0.310255	-0.989067	-0.114593
C46	C	0.810255	-0.489067	0.385407
C47	C	0.689886	-0.989130	-0.114579
C48	C	1.189886	-0.489130	0.385421
C49	C	0.000070	-0.995205	0.038494
C50	C	0.500070	-0.495205	0.538494
C51	C	0.000065	-0.993553	0.131444
C52	C	0.500065	-0.493553	0.631444
C53	C	0.000080	-1.142175	-0.108476
C54	C	0.500080	-0.642175	0.391524
C55	C	0.000081	-1.235125	-0.110127
C56	C	0.500081	-0.735125	0.389873
C57	C	0.000071	-0.405312	-0.113117
C58	C	0.500071	0.094688	0.386883
C59	C	0.000401	-0.452746	-0.021565
C60	C	0.500401	0.047254	0.478435
C61	C	0.000063	-0.549436	-0.023217
C62	C	0.500063	-0.049436	0.476783
C63	C	0.000063	-0.572873	-0.116060
C64	C	0.500063	-0.072873	0.383940
C65	C	-0.084201	-0.531804	-0.161212
C66	C	0.415799	-0.031804	0.338788
C67	C	-0.084266	-0.435168	-0.158912
C68	C	0.415734	0.064832	0.341088
C69	C	0.083543	-0.434793	-0.160812
C70	C	0.583543	0.065207	0.339188
C71	C	0.084651	-0.531738	-0.160790
C72	C	0.584651	-0.031738	0.339210
C73	C	0.000055	-0.667570	-0.117727
C74	C	0.500055	-0.167570	0.382273
C75	C	0.000073	-0.310614	-0.111452
C76	C	0.500073	0.189386	0.388548
C77	C	0.000069	-0.982980	-0.267671
C78	C	0.500069	-0.482980	0.232329
C79	C	0.000069	-0.984631	-0.360621
C80	C	0.500069	-0.484631	0.139379
C81	C	0.000068	-0.987621	0.469192
C82	C	0.500068	-0.487621	0.969192
C83	C	-0.000270	-0.896069	0.421758
C84	C	0.499730	-0.396069	0.921758
C85	C	0.000063	-0.897721	0.325068
C86	C	0.500063	-0.397721	0.825068
C87	C	0.000066	-0.990564	0.301631
C88	C	0.500066	-0.490564	0.801631
C89	C	0.084335	-1.035702	0.342705
C90	C	0.584335	-0.535702	0.842705
C91	C	0.084405	-1.033402	0.439341
C92	C	0.584405	-0.533402	0.939341
C93	C	-0.083404	-1.035330	0.439707
C94	C	0.416596	-0.535330	0.939707
C95	C	-0.084518	-1.035308	0.342761
C96	C	0.415482	-0.535308	0.842761
C97	C	0.000068	-0.992231	0.206934
C98	C	0.500068	-0.492231	0.706934
C99	C	0.000072	-0.985956	0.563890
C100	C	0.500072	-0.485956	1.063890
H101	H	0.576317	-0.854945	-0.171953
H102	H	1.076317	-0.354945	0.328047
H103	H	0.422704	-1.016540	0.026078
H104	H	0.922704	-0.516540	0.526078
O105	O	0.080068	-0.587089	0.023799
O106	O	0.580068	-0.087089	0.523799
H107	H	0.121678	-0.620117	-0.019371
H108	H	0.621678	-0.120117	0.480629
O109	O	0.585773	-0.934746	-0.268999
O110	O	1.085773	-0.434746	0.231001
H111	H	0.629448	-0.990971	-0.263061
H112	H	1.129448	-0.490971	0.236939
O113	O	0.585657	-0.888974	-0.002439
O114	O	1.085657	-0.388974	0.497561
H115	H	0.565046	-0.837103	-0.050526
H116	H	1.065046	-0.337103	0.449474
O117	O	0.080443	-0.428189	0.026911
O118	O	0.580443	0.071811	0.526911
H119	H	0.120942	-0.484982	0.046545
H120	H	0.620942	0.015018	0.546545
O121	O	-0.167696	-0.410923	-0.115286
O122	O	0.332304	0.089077	0.384714
H123	H	-0.149643	-0.380230	-0.058798
H124	H	0.350357	0.119770	0.441202
H125	H	-0.147274	-1.005411	0.460250
H126	H	0.352726	-0.505411	0.960250
O127	O	0.582895	-1.096565	-0.219014
O128	O	1.082895	-0.596565	0.280986
H129	H	0.656526	-1.096497	-0.220202
H130	H	1.156526	-0.596497	0.279798
O131	O	-0.079195	-0.426805	0.026697
O132	O	0.420805	0.073195	0.526697
H133	H	-0.078317	-0.460647	0.091228
H134	H	0.421683	0.039353	0.591228
O135	O	0.091401	-0.552093	-0.250471
O136	O	0.591401	-0.052093	0.249529
H137	H	0.031844	-0.527760	-0.286103
H138	H	0.531844	-0.027760	0.213897
O139	O	-0.079948	-0.850710	0.287424
O140	O	0.420052	-0.350710	0.787424
H141	H	-0.121569	-0.893877	0.254393
H142	H	0.378431	-0.393877	0.754393
H143	H	-0.146857	-1.002306	0.315516
H144	H	0.353143	-0.502306	0.815516
O145	O	0.084316	-0.392715	-0.250221
O146	O	0.584316	0.107285	0.249779
H147	H	0.025572	-0.351003	-0.260679
H148	H	0.525572	0.148997	0.239321
O149	O	-0.089350	-0.392442	-0.247941
O150	O	0.410650	0.107558	0.252059
H151	H	-0.091758	-0.440829	-0.292445
H152	H	0.408242	0.059171	0.207555
H153	H	0.424121	-0.931473	-0.248570
H154	H	0.924121	-0.431473	0.251430
H155	H	-0.083968	-1.102831	0.471468
H156	H	0.416032	-0.602831	0.971468
H157	H	-0.060701	-0.859490	0.440293
H158	H	0.439299	-0.359490	0.940293
H159	H	0.575595	-1.021872	0.024275
H160	H	1.075595	-0.521872	0.524275
H161	H	0.576003	-1.129019	-0.086195
H162	H	1.076003	-0.629019	0.413805
O163	O	0.168153	-0.407595	-0.121164
O164	O	0.668153	0.092405	0.378836
H165	H	0.151650	-0.372756	-0.067017
H166	H	0.651650	0.127244	0.432983
H167	H	0.059819	-0.859626	0.441349
H168	H	0.559819	-0.359626	0.941349
H169	H	-0.087335	-0.545929	-0.229421
H170	H	0.412665	-0.045929	0.270579
O171	O	0.089494	-1.122430	0.482067
O172	O	0.589494	-0.622430	0.982067
H173	H	0.091901	-1.166934	0.433680
H174	H	0.591901	-0.666934	0.933680
O175	O	-0.091261	-1.124996	0.322425
O176	O	0.408739	-0.624996	0.822425
H177	H	-0.034173	-1.139146	0.282511
H178	H	0.465827	-0.639146	0.782511
O179	O	0.167226	-0.567904	-0.117131
O180	O	0.667226	-0.067904	0.382869
H181	H	0.166546	-0.554802	-0.050459
H182	H	0.666546	-0.054802	0.449541
O183	O	0.415866	-1.146107	-0.069297
O184	O	0.915866	-0.646107	0.430703
H185	H	0.372728	-1.119135	-0.022912
H186	H	0.872728	-0.619135	0.477088
O187	O	-0.080090	-0.586366	0.024113
O188	O	0.419910	-0.086366	0.524113
H189	H	-0.118766	-0.535152	0.048264
H190	H	0.381234	-0.035152	0.548264
H191	H	-0.146912	-0.560191	-0.129845
H192	H	0.353088	-0.060191	0.370155
H193	H	0.423519	-0.855314	-0.172016
H194	H	0.923519	-0.355314	0.327984
O195	O	0.080218	-0.850389	0.288144
O196	O	0.580218	-0.350389	0.788144
H197	H	0.118898	-0.826235	0.339360
H198	H	0.618898	-0.326235	0.839360
H199	H	0.087471	-1.103910	0.328579
H200	H	0.587471	-0.603910	0.828579
O201	O	0.167838	-0.989761	0.463580
O202	O	0.667838	-0.489761	0.963580
H203	H	0.207163	-1.033510	0.507935
H204	H	0.707163	-0.533510	1.007935
O205	O	0.416133	-0.884403	-0.008147
O206	O	0.916133	-0.384403	0.491853
H207	H	0.342528	-0.884346	-0.005960
H208	H	0.842528	-0.384346	0.494040
H209	H	0.422498	-1.092297	-0.197002
H210	H	0.922498	-0.592297	0.302998
H211	H	0.147042	-1.004325	0.314320
H212	H	0.647042	-0.504325	0.814320
