data_functionalizedCrystal
_audit_creation_method	'MofGen! by Chris Wilmer'
_symmetry_space_group_name_H-M	'P1'
_symmetry_Int_Tables_number	1
_symmetry_cell_setting	triclinic
loop_
_symmetry_equiv_pos_as_xyz
  x,y,z
_cell_length_a	21.295420
_cell_length_b	21.295417
_cell_length_c	15.299128
_cell_angle_alpha	99.531213
_cell_angle_beta	80.201339
_cell_angle_gamma	90.025484
loop_
_atom_site_label
_atom_site_type_symbol
_atom_site_fract_x
_atom_site_fract_y
_atom_site_fract_z
Zn1	Zn	1.024534	-0.311521	-0.509992
Zn2	Zn	1.006048	-0.398798	-0.359147
Zn3	Zn	0.900870	-0.293542	-0.359172
Zn4	Zn	0.919221	-0.416741	-0.509933
O5	O	0.962668	-0.355151	-0.434561
O6	O	1.110173	-0.323113	-0.489996
O7	O	0.976679	-0.369803	-0.232927
O8	O	0.917331	-0.207842	-0.379214
O9	O	1.096591	-0.387236	-0.379171
O10	O	1.008186	-0.221051	-0.490021
O11	O	0.899406	-0.292472	-0.232946
O12	O	0.815213	-0.309870	-0.379157
O13	O	0.948607	-0.417817	-0.636164
O14	O	0.828695	-0.400384	-0.489921
O15	O	1.025980	-0.340512	-0.636207
O16	O	0.994473	-0.489264	-0.379114
O17	O	0.930682	-0.502446	-0.489896
C18	C	0.799113	-0.355124	-0.434536
C19	C	0.729146	-0.355130	-0.434546
C20	C	0.236775	-0.321870	-0.492375
C21	C	0.302517	-0.321865	-0.492375
C22	C	0.328311	-0.355172	-0.434582
C23	C	0.288359	-0.388500	-0.376801
C24	C	0.222619	-0.388509	-0.376810
N25	N	0.421872	-0.350497	-0.355601
N26	N	0.484323	-0.350485	-0.355596
C27	C	0.526383	-0.355148	-0.434556
N28	N	0.503633	-0.359812	-0.513522
N29	N	0.441176	-0.359821	-0.513526
C30	C	0.399595	-0.355167	-0.434567
C31	C	0.637613	-0.321821	-0.492337
C32	C	0.703357	-0.321821	-0.492339
C33	C	0.689196	-0.388452	-0.376757
C34	C	0.623455	-0.388456	-0.376764
C35	C	0.597667	-0.355138	-0.434552
C36	C	0.962582	-0.518697	-0.434516
C37	C	0.962607	-0.588666	-0.434526
C38	C	1.009897	-0.628358	-0.492264
C39	C	1.009922	-0.694104	-0.492287
C40	C	0.962661	-0.720152	-0.434555
C41	C	0.915363	-0.680452	-0.376812
C42	C	0.915335	-0.614709	-0.376798
N43	N	0.948278	-0.813998	-0.355615
N44	N	0.948308	-0.876451	-0.355631
C45	C	0.962740	-0.918232	-0.434595
N46	N	0.977153	-0.895200	-0.513545
N47	N	0.977126	-0.832740	-0.513528
C48	C	0.962685	-0.791439	-0.434564
C49	C	1.010060	-1.029213	-0.492363
C50	C	1.010080	-1.094959	-0.492386
C51	C	0.915524	-1.081305	-0.376904
C52	C	0.915500	-1.015561	-0.376888
C53	C	0.962772	-0.989518	-0.434616
C54	C	1.126861	-0.355178	-0.434587
C55	C	1.196831	-0.355190	-0.434598
C56	C	0.991403	-0.383171	-0.669829
C57	C	1.003648	-0.395112	-0.770086
C58	C	0.962774	-0.190968	-0.434627
C59	C	0.962819	-0.121003	-0.434655
C60	C	0.934081	-0.327194	-0.200208
C61	C	0.921959	-0.315076	-0.099952
C62	C	0.875742	-0.269420	-0.052907
C63	C	0.864353	-0.258031	0.041289
C64	C	0.899175	-0.292300	0.088450
C65	C	0.945389	-0.337960	0.041405
C66	C	0.956783	-0.349347	-0.052800
C67	C	0.980217	-0.372227	0.088557
C68	C	1.026431	-0.417888	0.041512
C69	C	1.037822	-0.429273	-0.052684
C70	C	1.003000	-0.395003	-0.099845
C71	C	0.968823	-0.360841	0.182762
C72	C	1.049864	-0.440768	0.182869
C73	C	1.061253	-0.452157	0.088673
H74	H	0.215783	-0.294742	-0.539435
H75	H	1.048387	-0.607157	-0.539272
H76	H	0.710198	-0.415577	-0.329708
H77	H	1.012267	-0.404277	-0.176547
H78	H	0.876994	-0.983241	-0.329868
C79	C	0.813517	-0.207808	0.093031
N80	N	0.775224	-0.169978	0.132003
H81	H	1.048590	-1.127277	-0.539408
H82	H	1.078221	-0.468672	0.221267
H83	H	0.735880	-0.294690	-0.539394
H84	H	0.931195	-0.323663	0.221056
C85	C	0.837447	-0.231726	-0.104790
N86	N	0.808600	-0.203331	-0.143870
H87	H	1.075458	-0.466447	-0.090985
H88	H	1.048427	-0.726428	-0.539315
C89	C	0.863396	-0.709102	-0.313272
N90	N	0.824259	-0.730680	-0.265401
H91	H	0.590931	-0.415586	-0.329711
C92	C	1.111991	-0.502480	0.036913
N93	N	1.150172	-0.540418	-0.002074
H94	H	0.876825	-0.582390	-0.329780
H95	H	0.335045	-0.294729	-0.539423
H96	H	0.309365	-0.415621	-0.329748
H97	H	0.190096	-0.415644	-0.329760
H98	H	1.048549	-1.008009	-0.539371
C99	C	0.863529	-1.109956	-0.313410
N100	N	0.824362	-1.131540	-0.265590
H101	H	0.616615	-0.294691	-0.539392
C102	C	0.886641	-0.279774	0.192068
N103	N	0.877195	-0.270341	0.270118
