data_functionalizedCrystal
_audit_creation_method	'MofGen! by Chris Wilmer'
_symmetry_space_group_name_H-M	'P1'
_symmetry_Int_Tables_number	1
_symmetry_cell_setting	triclinic
loop_
_symmetry_equiv_pos_as_xyz
  x,y,z
_cell_length_a	12.594516
_cell_length_b	21.395362
_cell_length_c	21.395355
_cell_angle_alpha	90.043940
_cell_angle_beta	89.988593
_cell_angle_gamma	89.968067
loop_
_atom_site_label
_atom_site_type_symbol
_atom_site_fract_x
_atom_site_fract_y
_atom_site_fract_z
Zn1	Zn	-0.423414	-0.957923	-0.354617
Zn2	Zn	-0.601379	-0.957853	-0.249852
Zn3	Zn	-0.423464	-0.853138	-0.249818
Zn4	Zn	-0.601400	-0.853134	-0.354557
O5	O	-0.512414	-0.905512	-0.302211
O6	O	-0.446992	-1.045592	-0.340759
O7	O	-0.577789	-0.943934	-0.162170
O8	O	-0.274511	-0.867069	-0.263730
O9	O	-0.577741	-1.045540	-0.263789
O10	O	-0.274475	-0.944055	-0.340725
O11	O	-0.447076	-0.867001	-0.162144
O12	O	-0.447097	-0.765460	-0.263672
O13	O	-0.577779	-0.867063	-0.442243
O14	O	-0.577827	-0.765457	-0.340624
O15	O	-0.447013	-0.944051	-0.442287
O16	O	-0.750327	-0.943930	-0.263731
O17	O	-0.750343	-0.866994	-0.340657
C18	C	-0.512471	-0.742724	-0.302138
C19	C	-0.512520	-0.673083	-0.302122
C20	C	-0.788955	-0.905471	-0.302205
C21	C	-0.907261	-0.905511	-0.302223
C22	C	-0.512393	-0.905564	-0.465634
C23	C	-0.512384	-0.905586	-0.535275
C24	C	-0.976561	-0.863661	-0.344034
C25	C	-1.047409	-0.848392	-0.286856
C26	C	-1.047212	-0.920837	-0.359410
C27	C	-0.976550	-0.890211	-0.245015
C28	C	-0.976347	-0.962683	-0.317608
C29	C	-1.047163	-0.947436	-0.260391
C30	C	-0.234793	-0.905570	-0.302231
C31	C	-0.116488	-0.905595	-0.302239
C32	C	-0.512359	-1.068935	-0.302284
C33	C	-0.512335	-1.138577	-0.302315
C34	C	-0.580681	-0.640385	-0.342130
C35	C	-0.580655	-0.574949	-0.342158
C36	C	-0.512479	-0.542215	-0.302167
C37	C	-0.444305	-0.574921	-0.262155
C38	C	-0.444326	-0.640355	-0.262133
C39	C	-0.503905	-0.438489	-0.245761
C40	C	-0.503892	-0.373056	-0.245782
C41	C	-0.512410	-0.340394	-0.302236
C42	C	-0.520963	-0.373173	-0.358670
C43	C	-0.520984	-0.438608	-0.358648
C44	C	-0.512449	-0.471262	-0.302187
C45	C	-0.580546	-0.236743	-0.342278
C46	C	-0.580513	-0.171307	-0.342307
C47	C	-0.444168	-0.171280	-0.262298
C48	C	-0.444196	-0.236715	-0.262275
C49	C	-0.512391	-0.269443	-0.302264
C50	C	-0.444291	-0.945672	-0.568012
C51	C	-0.444245	-0.945671	-0.633448
C52	C	-0.512311	-0.905591	-0.666144
C53	C	-0.580408	-0.865497	-0.633399
C54	C	-0.580445	-0.865495	-0.567965
C55	C	-0.608151	-0.900630	-0.769815
C56	C	-0.608116	-0.900636	-0.835248
C57	C	-0.512199	-0.905595	-0.867965
C58	C	-0.416312	-0.910560	-0.835241
C59	C	-0.416349	-0.910557	-0.769806
C60	C	-0.512279	-0.905589	-0.737096
C61	C	-0.444051	-0.945682	-0.971654
C62	C	-0.444003	-0.945677	-1.037091
C63	C	-0.580176	-0.865506	-1.037041
C64	C	-0.580214	-0.865508	-0.971605
C65	C	-0.512153	-0.905599	-0.938916
C66	C	-0.512359	-0.905496	-0.139423
C67	C	-0.512068	-0.905596	-0.069782
H68	H	-0.945559	-0.828207	-0.379340
H69	H	-0.636015	-0.144685	-0.374891
H70	H	-0.635892	-0.832849	-0.541311
H71	H	-0.945114	-1.010983	-0.330634
Br72	Br	-0.532521	-0.328856	-0.435292
H73	H	-0.388653	-0.144628	-0.229739
Br74	Br	-1.099427	-0.767867	-0.265170
H75	H	-1.077968	-0.982863	-0.224999
Br76	Br	-1.098955	-0.942385	-0.440004
Br77	Br	-0.925039	-0.868572	-0.164395
H78	H	-0.496964	-0.465077	-0.199786
H79	H	-0.388697	-0.263338	-0.229692
Br80	Br	-0.673228	-0.684799	-0.396402
H81	H	-0.636159	-0.548321	-0.374740
Br82	Br	-0.673089	-0.281164	-0.396550
Br83	Br	-0.532587	-0.483092	-0.435233
Br84	Br	-0.351812	-0.684735	-0.207833
H85	H	-0.635825	-0.832862	-0.660024
Br86	Br	-0.492286	-0.328576	-0.169194
H87	H	-0.388794	-0.548264	-0.229595
H88	H	-0.388869	-0.978317	-0.541401
H89	H	-0.388790	-0.978313	-0.660108
H90	H	-0.338275	-0.914598	-0.743165
Br91	Br	-0.286129	-0.917295	-0.879633
H92	H	-0.388625	-0.978323	-0.945037
H93	H	-0.388548	-0.978319	-1.063744
Br94	Br	-0.672539	-0.811102	-1.081407
Br95	Br	-0.672632	-0.811104	-0.927173
H96	H	-0.686193	-0.896598	-0.861887
Br97	Br	-0.738340	-0.893918	-0.725420
