data_functionalizedCrystal
_audit_creation_method	'MofGen! by Chris Wilmer'
_symmetry_space_group_name_H-M	'P1'
_symmetry_Int_Tables_number	1
_symmetry_cell_setting	triclinic
loop_
_symmetry_equiv_pos_as_xyz
  x,y,z
_cell_length_a	15.995350
_cell_length_b	14.044220
_cell_length_c	12.503572
_cell_angle_alpha	93.835250
_cell_angle_beta	93.525550
_cell_angle_gamma	91.659374
loop_
_atom_site_label
_atom_site_type_symbol
_atom_site_fract_x
_atom_site_fract_y
_atom_site_fract_z
O1	O	0.197434	-1.263165	-0.089196
O2	O	0.530767	-0.929832	0.244137
O3	O	0.864100	-0.596498	0.577470
O4	O	0.190148	-0.987198	-0.089224
O5	O	0.523481	-0.653864	0.244110
O6	O	0.856815	-0.320531	0.577443
O7	O	0.072467	-1.132725	-0.089208
O8	O	0.405800	-0.799392	0.244125
O9	O	0.739133	-0.466058	0.577458
O10	O	0.315115	-1.117638	-0.089212
O11	O	0.648448	-0.784304	0.244122
O12	O	0.981782	-0.450971	0.577455
O13	O	0.081333	-1.121781	0.089432
O14	O	0.414666	-0.788447	0.422766
O15	O	0.748000	-0.455114	0.756099
O16	O	0.199014	-0.976253	0.089417
O17	O	0.532348	-0.642920	0.422750
O18	O	0.865681	-0.309586	0.756084
O19	O	0.206300	-1.252221	0.089445
O20	O	0.539633	-0.918887	0.422778
O21	O	0.872967	-0.585554	0.756111
Cu22	Cu	0.203467	-1.113237	0.105742
Cu23	Cu	0.536800	-0.779904	0.439075
Cu24	Cu	0.870133	-0.446571	0.772409
Cu25	Cu	0.192981	-1.126181	-0.105521
Cu26	Cu	0.526315	-0.792847	0.227812
Cu27	Cu	0.859648	-0.459514	0.561145
O28	O	0.323981	-1.106693	0.089429
O29	O	0.657315	-0.773360	0.422762
O30	O	0.990648	-0.440026	0.756096
C31	C	0.191392	-0.946411	0.000093
C32	C	0.524726	-0.613078	0.333426
C33	C	0.858059	-0.279744	0.666760
C34	C	0.181881	-0.841186	0.000082
C35	C	0.515214	-0.507853	0.333416
C36	C	0.848548	-0.174519	0.666749
C37	C	0.045658	-1.126629	0.000110
C38	C	0.378992	-0.793296	0.333443
C39	C	0.712325	-0.459962	0.666777
C40	C	-0.047432	-1.124760	0.000104
C41	C	0.285901	-0.791426	0.333437
C42	C	0.619235	-0.458093	0.666770
N43	N	0.210842	-1.104141	0.254333
N44	N	0.544175	-0.770808	0.587667
N45	N	0.877508	-0.437474	0.921000
C46	C	-0.385681	-1.118044	0.000107
C47	C	-0.052348	-0.784710	0.333440
C48	C	0.280986	-0.451377	0.666773
C49	C	-0.346008	-1.014426	-0.000304
C50	C	-0.012675	-0.681093	0.333029
C51	C	0.320659	-0.347760	0.666362
C52	C	-0.249158	-1.016272	0.000099
C53	C	0.084175	-0.682939	0.333432
C54	C	0.417508	-0.349605	0.666765
C55	C	-0.217872	-1.121375	0.000105
C56	C	0.115462	-0.788042	0.333438
C57	C	0.448795	-0.454708	0.666771
C58	C	-0.250068	-1.166245	0.102120
C59	C	0.083266	-0.832912	0.435454
C60	C	0.416599	-0.499578	0.768787
C61	C	-0.346894	-1.163636	0.102206
C62	C	-0.013560	-0.830303	0.435539
C63	C	0.319773	-0.496970	0.768872
C64	C	-0.357175	-1.178223	-0.100942
C65	C	-0.023841	-0.844890	0.232391
C66	C	0.309492	-0.511557	0.565724
C67	C	-0.260298	-1.178281	-0.102290
C68	C	0.073035	-0.844948	0.231043
C69	C	0.406369	-0.511615	0.564376
C70	C	-0.123033	-1.123263	0.000107
C71	C	0.210300	-0.789930	0.333440
C72	C	0.543634	-0.456596	0.666774
C73	C	-0.480519	-1.116158	0.000111
C74	C	-0.147186	-0.782825	0.333445
C75	C	0.186147	-0.449492	0.666778
C76	C	0.350789	-1.112789	0.000108
C77	C	0.684123	-0.779456	0.333442
C78	C	1.017456	-0.446122	0.666775
C79	C	0.443879	-1.114659	0.000108
C80	C	0.777213	-0.781326	0.333441
C81	C	1.110546	-0.447993	0.666774
C82	C	0.205055	-1.293007	0.000125
C83	C	0.538389	-0.959674	0.333459
C84	C	0.871722	-0.626341	0.666792
C85	C	0.214567	-1.398233	0.000129
C86	C	0.547900	-1.064899	0.333462
C87	C	0.881233	-0.731566	0.666796
C88	C	0.164494	-0.648523	0.000104
C89	C	0.497827	-0.315190	0.333437
C90	C	0.831161	0.018143	0.666771
C91	C	0.231950	-0.590890	0.000107
C92	C	0.565283	-0.257557	0.333441
C93	C	0.898617	0.075777	0.666774
C94	C	0.222276	-0.483686	0.000119
C95	C	0.555609	-0.150352	0.333453
C96	C	0.888942	0.182981	0.666786
C97	C	0.174167	-0.755737	0.000092
C98	C	0.507500	-0.422404	0.333425
C99	C	0.840834	-0.089071	0.666759
N100	N	0.185600	-1.135285	-0.254113
N101	N	0.518934	-0.801951	0.079221
N102	N	0.852267	-0.468618	0.412554
C103	C	0.221698	-1.090759	0.473447
C104	C	0.555031	-0.757426	0.806781
C105	C	0.888364	-0.424093	1.140114
C106	C	0.174747	-1.148663	0.526780
C107	C	0.508080	-0.815330	0.860114
C108	C	0.841414	-0.481997	1.193447
C109	C	0.180787	-1.141218	0.648703
C110	C	0.514121	-0.807884	0.982036
C111	C	0.847454	-0.474551	1.315370
C112	C	0.215658	-1.098204	0.351514
C113	C	0.548991	-0.764870	0.684847
C114	C	0.882325	-0.431537	1.018180
H115	H	-0.227367	-0.980568	-0.073031
H116	H	0.105966	-0.647235	0.260303
H117	H	0.439300	-0.313902	0.593636
H118	H	0.130016	-1.203829	0.480873
H119	H	0.463349	-0.870495	0.814207
H120	H	0.796682	-0.537162	1.147540
Cl121	Cl	0.332332	-0.639012	0.000099
Cl122	Cl	0.665665	-0.305678	0.333432
Cl123	Cl	0.998999	0.027655	0.666766
Cl124	Cl	0.290760	-1.005596	0.544318
Cl125	Cl	0.624093	-0.672263	0.877651
Cl126	Cl	0.957427	-0.338929	1.210984
H127	H	-0.383262	-1.254680	-0.101623
H128	H	-0.049928	-0.921347	0.231710
H129	H	0.283405	-0.588014	0.565043
Cl130	Cl	0.064118	-0.600400	0.000107
Cl131	Cl	0.397452	-0.267067	0.333441
Cl132	Cl	0.730785	0.066267	0.666774
Cl133	Cl	-0.205183	-0.946883	0.113183
Cl134	Cl	0.128150	-0.613549	0.446516
Cl135	Cl	0.461484	-0.280216	0.779850
H136	H	-0.365072	-0.968729	0.072438
H137	H	-0.031739	-0.635395	0.405771
H138	H	0.301595	-0.302062	0.739105
Cl139	Cl	-0.385001	-0.957383	-0.113256
Cl140	Cl	-0.051667	-0.624050	0.220078
Cl141	Cl	0.281666	-0.290717	0.553411
H142	H	-0.373229	-1.239445	0.106839
H143	H	-0.039895	-0.906112	0.440172
H144	H	0.293438	-0.572779	0.773505
Cl145	Cl	-0.373609	-1.098866	0.219932
Cl146	Cl	-0.040276	-0.765532	0.553265
Cl147	Cl	0.293058	-0.432199	0.886598
Cl148	Cl	-0.204531	-1.104248	0.219327
Cl149	Cl	0.128802	-0.770914	0.552660
Cl150	Cl	0.462136	-0.437581	0.885993
Cl151	Cl	-0.227797	-1.128190	-0.218828
Cl152	Cl	0.105536	-0.794857	0.114506
Cl153	Cl	0.438869	-0.461523	0.447839
H154	H	-0.384083	-1.149075	-0.178264
H155	H	-0.050749	-0.815741	0.155070
H156	H	0.282584	-0.482408	0.488403
Cl157	Cl	-0.228211	-1.297200	-0.111801
Cl158	Cl	0.105122	-0.963867	0.221532
Cl159	Cl	0.438456	-0.630533	0.554865
Cl160	Cl	-0.219065	-1.285103	0.107991
Cl161	Cl	0.114268	-0.951770	0.441325
Cl162	Cl	0.447601	-0.618436	0.774658
