data_functionalizedCrystal
_audit_creation_method	'MofGen! by Chris Wilmer'
_symmetry_space_group_name_H-M	'P1'
_symmetry_Int_Tables_number	1
_symmetry_cell_setting	triclinic
loop_
_symmetry_equiv_pos_as_xyz
  x,y,z
_cell_length_a	10.489741
_cell_length_b	10.489741
_cell_length_c	13.930277
_cell_angle_alpha	89.995758
_cell_angle_beta	89.995477
_cell_angle_gamma	84.539174
loop_
_atom_site_label
_atom_site_type_symbol
_atom_site_fract_x
_atom_site_fract_y
_atom_site_fract_z
O1	O	1.694059	0.179967	-0.079771
O2	O	1.322863	0.196860	-0.079786
O3	O	1.516907	0.002816	-0.079772
O4	O	1.500015	0.374011	-0.079784
O5	O	1.516880	0.002811	0.079890
O6	O	1.322836	0.196855	0.079876
O7	O	1.694032	0.179963	0.079891
Zn8	Zn	1.508429	0.188408	0.105233
Zn9	Zn	1.508465	0.188414	-0.105128
O10	O	1.499987	0.374007	0.079877
C11	C	1.275318	0.195582	0.000043
C12	C	1.133688	0.191765	0.000038
C13	C	1.065548	0.068300	0.000051
C14	C	0.973435	0.126626	-0.078671
C15	C	0.973442	0.126651	0.078743
C16	C	1.043440	0.250141	-0.078749
C17	C	1.043457	0.250149	0.078736
C18	C	0.951371	0.308564	-0.000005
C19	C	1.515618	-0.044718	0.000058
C20	C	1.511801	-0.186348	0.000056
C21	C	1.388336	-0.254488	0.000044
C22	C	1.446646	-0.346613	0.078768
C23	C	1.446702	-0.346583	-0.078646
C24	C	1.570162	-0.276607	0.078845
C25	C	1.570201	-0.276568	-0.078640
C26	C	1.628600	-0.368665	0.000103
C27	C	1.741577	0.181241	0.000060
C28	C	1.883206	0.185058	0.000059
C29	C	1.501277	0.421541	0.000045
C30	C	1.505094	0.563170	0.000041
N31	N	1.508414	0.188404	0.248799
N32	N	1.508490	0.188409	-0.248694
C33	C	1.422539	0.274303	0.701063
C34	C	1.594427	0.102516	0.701044
C35	C	1.594412	0.102512	0.600548
C36	C	1.508460	0.188406	0.550305
C37	C	1.422524	0.274304	0.600558
C38	C	1.680355	0.016624	0.550288
C39	C	1.680344	0.016617	0.449786
C40	C	1.594386	0.102506	0.399541
C41	C	1.508445	0.188407	0.449800
C42	C	1.422493	0.274301	0.399557
C43	C	1.336545	0.360196	0.449814
C44	C	1.336565	0.360193	0.550313
C45	C	1.594366	0.102510	0.299042
C46	C	1.422478	0.274302	0.299052
H47	H	1.074492	0.302345	0.145290
H48	H	0.901947	0.410168	-0.000051
H49	H	0.942453	0.074386	0.145296
C50	C	0.932258	0.057118	-0.167528
C51	C	0.969475	0.120794	-0.249764
C52	C	0.931592	0.056783	-0.331633
H53	H	0.841834	0.055846	-0.167320
H54	H	0.971763	-0.028228	-0.167494
H55	H	0.929966	0.206118	-0.249798
H56	H	1.059893	0.122069	-0.250004
H57	H	0.971098	-0.028564	-0.331599
H58	H	0.841169	0.055514	-0.331415
H59	H	0.956849	0.099971	-0.387440
C60	C	1.639597	-0.235200	-0.167496
C61	C	1.574538	-0.270247	-0.249706
C62	C	1.638407	-0.232140	-0.331585
H63	H	1.724472	-0.275845	-0.168193
H64	H	1.642158	-0.144917	-0.166581
H65	H	1.571991	-0.360512	-0.250621
H66	H	1.489667	-0.229606	-0.249040
H67	H	1.640968	-0.141858	-0.330670
H68	H	1.723280	-0.272788	-0.332273
H69	H	1.594267	-0.255903	-0.387374
C70	C	1.376742	-0.387876	0.167424
C71	C	1.250997	-0.329574	0.167049
C72	C	1.186551	-0.367562	0.248693
H73	H	1.419621	-0.362769	0.223398
H74	H	1.375423	-0.478310	0.167077
H75	H	1.252322	-0.239159	0.167405
H76	H	1.208083	-0.354673	0.111093
H77	H	1.185233	-0.457996	0.248346
H78	H	1.229441	-0.342453	0.304660
H79	H	1.101224	-0.328019	0.248444
C80	C	1.252914	-0.188450	-0.000010
C81	C	1.187920	-0.225486	-0.081670
C82	C	1.063165	-0.164693	-0.081741
H83	H	1.256101	-0.098258	-0.000629
H84	H	1.209176	-0.212303	0.055953
H85	H	1.231646	-0.201624	-0.137619
H86	H	1.184697	-0.315667	-0.081068
H87	H	1.019428	-0.188546	-0.025777
H88	H	1.066365	-0.074504	-0.082357
H89	H	1.019048	-0.189822	-0.137141
H90	H	1.115238	-0.033196	-0.000044
H91	H	1.074280	0.302343	-0.145377
H92	H	1.622346	-0.245777	0.145475
H93	H	1.730204	-0.418089	0.000151
H94	H	1.394457	-0.377545	-0.145207
C95	C	1.243175	0.453596	0.395432
C96	C	1.167927	0.528841	0.460946
C97	C	1.081917	0.614904	0.410881
H98	H	1.189542	0.407336	0.356228
H99	H	1.289515	0.507215	0.356243
H100	H	1.121590	0.475229	0.500118
H101	H	1.221525	0.575129	0.500152
H102	H	1.128257	0.668523	0.371692
H103	H	1.028293	0.568633	0.371678
H104	H	1.030859	0.665976	0.455324
C105	C	1.243409	0.453398	0.605051
C106	C	1.261851	0.435038	0.703817
C107	C	1.176076	0.520889	0.754275
H108	H	1.158091	0.438802	0.588717
H109	H	1.258052	0.538694	0.588626
H110	H	1.247198	0.349763	0.720235
H111	H	1.347151	0.449644	0.720180
H112	H	1.190719	0.606185	0.737850
H113	H	1.090764	0.506286	0.737933
H114	H	1.188585	0.508452	0.821292
C115	C	1.773529	-0.076569	0.605010
C116	C	1.755117	-0.058210	0.703779
C117	C	1.840917	-0.144052	0.754223
H118	H	1.858839	-0.061964	0.588648
H119	H	1.758891	-0.161868	0.588602
H120	H	1.769766	0.027069	0.720181
H121	H	1.669825	-0.072825	0.720169
H122	H	1.826278	-0.229350	0.737814
H123	H	1.926221	-0.129439	0.737853
H124	H	1.828428	-0.131615	0.821242
C125	C	1.773494	-0.076990	0.395396
C126	C	1.751488	-0.202451	0.419984
C127	C	1.837256	-0.288781	0.369941
H128	H	1.858807	-0.062522	0.411845
H129	H	1.761269	-0.064926	0.328314
H130	H	1.763724	-0.214510	0.487051
H131	H	1.666192	-0.216960	0.403532
H132	H	1.825031	-0.276717	0.302859
H133	H	1.922564	-0.274302	0.386394
H134	H	1.822330	-0.373916	0.386610
H135	H	1.352481	0.344243	0.258150
C136	C	1.687523	0.009073	0.244515
C137	C	1.665703	-0.116493	0.268940
C138	C	1.751487	-0.202599	0.218714
H139	H	1.772834	0.023599	0.260924
H140	H	1.675184	0.021302	0.177459
H141	H	1.678052	-0.128716	0.335981
H142	H	1.580409	-0.131059	0.252528
H143	H	1.739148	-0.190370	0.151658
H144	H	1.836793	-0.188062	0.235127
H145	H	1.736686	-0.287805	0.235272
H146	H	1.352558	0.344235	0.741984
H147	H	1.664412	0.032589	0.741955
