data_functionalizedCrystal
_audit_creation_method	'MofGen! by Chris Wilmer'
_symmetry_space_group_name_H-M	'P1'
_symmetry_Int_Tables_number	1
_symmetry_cell_setting	triclinic
loop_
_symmetry_equiv_pos_as_xyz
  x,y,z
_cell_length_a	14.560438
_cell_length_b	14.809374
_cell_length_c	14.809374
_cell_angle_alpha	57.530506
_cell_angle_beta	98.953629
_cell_angle_gamma	67.427478
loop_
_atom_site_label
_atom_site_type_symbol
_atom_site_fract_x
_atom_site_fract_y
_atom_site_fract_z
Zr1	Zr	0.960109	1.000592	-0.231401
O2	O	0.808341	1.191294	-0.398606
O3	O	0.994165	0.809887	-0.165413
O4	O	0.981963	1.000592	-0.377361
O5	O	0.844353	1.000590	-0.036227
O6	O	1.133101	1.000595	-0.377359
O7	O	0.820544	1.000590	-0.186659
O8	O	1.154929	0.659459	0.001777
O9	O	0.822525	1.341726	-0.415363
O10	O	1.136547	0.888330	-0.155066
O11	O	1.041522	0.888328	-0.042802
O12	O	1.027155	1.112858	-0.292343
O13	O	0.932130	1.112857	-0.180079
Zr14	Zr	1.239130	1.000597	0.008523
Zr15	Zr	1.201158	1.000596	-0.231398
Zr16	Zr	0.998081	1.000593	0.008520
Zr17	Zr	0.982729	1.240513	-0.258126
Zr18	Zr	1.216509	0.760675	0.035248
O19	O	1.205074	1.191301	-0.057464
O20	O	1.151082	1.191300	-0.398602
O21	O	0.862333	1.191295	-0.057469
O22	O	1.390898	0.809894	0.175729
O23	O	1.336906	0.809893	-0.165409
O24	O	1.048157	0.809888	0.175724
O25	O	1.354886	1.000599	-0.186651
O26	O	1.217276	1.000596	0.154484
O27	O	1.066137	1.000594	0.154481
O28	O	1.378695	1.000599	-0.036219
O29	O	1.014126	1.341729	-0.415360
O30	O	1.185112	0.659459	0.192482
O31	O	1.376714	0.659462	0.192485
O32	O	1.346531	0.659462	0.001780
O33	O	0.852707	1.341727	-0.224657
O34	O	1.044309	1.341730	-0.224655
O35	O	1.172084	0.888330	0.069465
O36	O	1.267109	0.888332	-0.042799
O37	O	1.157717	1.112861	-0.180076
O38	O	1.062692	1.112859	-0.067812
C39	C	1.071324	0.700489	-0.078011
C40	C	1.061721	0.598637	-0.066665
C41	C	0.798104	1.000589	-0.111443
C42	C	0.695772	1.000587	-0.111445
C43	C	1.104579	0.553228	-0.117298
C44	C	1.094654	0.447958	-0.105573
C45	C	0.704795	0.883388	-0.039788
C46	C	0.608642	0.883394	-0.039778
C47	C	0.494446	1.117810	-0.183093
C48	C	0.590599	1.117802	-0.183095
C49	C	0.809968	0.766173	0.031862
C50	C	0.818996	0.648964	0.103524
C51	C	0.722843	0.648970	0.103534
C52	C	0.617663	0.766186	0.031881
C53	C	1.401135	1.000599	-0.111435
C54	C	1.503467	1.000601	-0.111433
C55	C	1.052122	1.000593	-0.411544
C56	C	1.036001	1.000593	-0.513397
C57	C	1.127915	1.300699	-0.144867
C58	C	1.137518	1.402552	-0.156212
C59	C	1.107944	1.000594	-0.558805
C60	C	1.091285	1.000594	-0.664075
C61	C	1.147117	1.000595	0.188666
C62	C	1.163237	1.000595	0.290519
C63	C	1.372840	0.700495	-0.078006
C64	C	1.465568	0.598643	-0.066660
C65	C	1.118822	0.700490	0.222094
C66	C	1.125339	0.598638	0.335293
C67	C	1.420337	0.700495	0.222099
C68	C	1.529186	0.598645	0.335298
C69	C	0.778901	1.300693	-0.444977
C70	C	0.670052	1.402544	-0.558176
C71	C	0.826399	1.300694	-0.144871
C72	C	0.733670	1.402545	-0.156218
C73	C	1.080417	1.300698	-0.444972
C74	C	1.073900	1.402551	-0.558170
C75	C	1.440961	0.550812	-0.119943
C76	C	1.528078	0.455125	-0.109306
C77	C	1.639802	0.407265	-0.045377
C78	C	1.664408	0.455106	0.007908
C79	C	1.577291	0.550798	-0.002738
C80	C	1.629915	0.550815	0.329857
C81	C	1.732199	0.455129	0.436210
C82	C	1.733751	0.407267	0.548003
C83	C	1.633012	0.455106	0.553440
C84	C	1.530731	0.550797	0.447088
C85	C	0.569325	1.450385	-0.552737
C86	C	0.467044	1.546101	-0.659092
C87	C	0.465492	1.593968	-0.770886
C88	C	0.566231	1.546123	-0.776323
C89	C	0.668510	1.450415	-0.669969
C90	C	0.758277	1.450387	-0.102945
C91	C	0.671158	1.546100	-0.113612
C92	C	0.559435	1.593963	-0.177545
C93	C	0.534829	1.546118	-0.230825
C94	C	0.621946	1.450413	-0.220165
C95	C	1.052938	0.633683	0.379220
C96	C	1.059039	0.537995	0.485571
C97	C	1.137547	0.407263	0.547998
C98	C	1.209950	0.372218	0.504062
C99	C	1.203843	0.467905	0.397708
C100	C	0.995386	1.533267	-0.620565
C101	C	0.989261	1.628982	-0.726919
C102	C	1.061645	1.593977	-0.770881
C103	C	1.140168	1.463248	-0.708477
C104	C	1.146297	1.367536	-0.602120
H105	H	1.148623	0.592280	-0.169321
H106	H	0.730200	0.553533	0.161893
Cl107	Cl	1.804867	0.394920	0.088279
Cl108	Cl	1.026663	0.387658	-0.025230
H109	H	1.000078	0.566555	0.521329
Cl110	Cl	1.862344	0.286965	0.681694
Cl111	Cl	0.993733	0.538334	0.013674
H112	H	0.443852	1.585103	-0.282879
Cl113	Cl	1.627994	0.610973	0.189331
Cl114	Cl	0.336901	1.714286	-0.904578
Cl115	Cl	0.951219	0.501617	0.193613
H116	H	0.539374	0.766181	0.031901
H117	H	1.237172	1.000590	-0.670422
H118	H	1.273870	0.265764	0.554906
H119	H	0.408803	1.213241	-0.241431
Cl120	Cl	1.858826	0.395003	0.429347
Cl121	Cl	0.898721	1.390242	-0.022572
H122	H	0.691215	1.585039	-0.070219
H123	H	1.634293	0.416123	0.644476
H124	H	1.017356	1.000586	-0.703126
H125	H	0.888267	0.766155	0.031861
H126	H	0.925315	1.735421	-0.777717
H127	H	0.488509	1.671892	-0.186216
H128	H	1.448718	0.589727	0.451536
Cl129	Cl	0.795133	1.390275	-0.676827
Cl130	Cl	1.145212	0.286985	0.681702
Cl131	Cl	1.222091	1.000586	-0.498505
Cl132	Cl	1.294878	0.423825	0.342504
H133	H	1.349996	0.589779	-0.172015
H134	H	0.936434	1.561794	-0.584788
H135	H	0.583252	1.213236	-0.241423
H136	H	1.056640	1.671925	-0.857487
H137	H	1.210230	1.261102	-0.551329
Cl138	Cl	1.205529	0.462831	-0.236536
Cl139	Cl	0.921866	1.000581	-0.573687
Cl140	Cl	1.497120	0.394997	-0.176294
Cl141	Cl	1.749308	0.286963	-0.032002
Cl142	Cl	1.231152	1.419263	-0.763766
Cl143	Cl	0.571246	1.390229	-0.412210
H144	H	0.385029	1.585040	-0.654642
Cl145	Cl	1.608246	0.610908	0.064267
H146	H	0.564954	1.585109	-0.867357
Cl147	Cl	0.590993	1.390272	-0.287136
Cl148	Cl	0.954232	0.798025	0.300761
