data_functionalizedCrystal
_audit_creation_method	'MofGen! by Chris Wilmer'
_symmetry_space_group_name_H-M	'P1'
_symmetry_Int_Tables_number	1
_symmetry_cell_setting	triclinic
loop_
_symmetry_equiv_pos_as_xyz
  x,y,z
_cell_length_a	16.109301
_cell_length_b	15.021413
_cell_length_c	16.109301
_cell_angle_alpha	90.002593
_cell_angle_beta	96.538519
_cell_angle_gamma	90.004594
loop_
_atom_site_label
_atom_site_type_symbol
_atom_site_fract_x
_atom_site_fract_y
_atom_site_fract_z
O1	O	1.103137	0.073979	-0.106856
O2	O	1.353137	0.323979	0.143144
O3	O	1.603137	0.573979	0.393144
O4	O	1.853137	0.823979	0.643144
O5	O	0.861075	0.073993	-0.120155
O6	O	1.111075	0.323993	0.129845
O7	O	1.361075	0.573993	0.379845
O8	O	1.611075	0.823993	0.629845
O9	O	0.988755	0.073976	0.007525
O10	O	1.238755	0.323976	0.257525
O11	O	1.488755	0.573976	0.507525
O12	O	1.738755	0.823976	0.757525
O13	O	0.975456	0.073995	-0.234537
O14	O	1.225456	0.323995	0.015463
O15	O	1.475456	0.573995	0.265463
O16	O	1.725456	0.823995	0.515463
O17	O	0.988735	-0.074088	0.007507
O18	O	1.238735	0.175912	0.257507
O19	O	1.488735	0.425912	0.507507
O20	O	1.738735	0.675912	0.757507
O21	O	0.861054	-0.074071	-0.120174
O22	O	1.111054	0.175929	0.129826
O23	O	1.361054	0.425929	0.379826
O24	O	1.611054	0.675929	0.629826
O25	O	1.103116	-0.074086	-0.106874
O26	O	1.353116	0.175914	0.143126
O27	O	1.603116	0.425914	0.393126
O28	O	1.853116	0.675914	0.643126
Zn29	Zn	0.982082	-0.097587	-0.113527
Zn30	Zn	1.232082	0.152413	0.136473
Zn31	Zn	1.482082	0.402413	0.386473
Zn32	Zn	1.732082	0.652413	0.636473
Zn33	Zn	0.982109	0.097494	-0.113503
Zn34	Zn	1.232109	0.347494	0.136497
Zn35	Zn	1.482109	0.597494	0.386497
Zn36	Zn	1.732109	0.847494	0.636497
O37	O	0.975436	-0.074069	-0.234555
O38	O	1.225436	0.175931	0.015445
O39	O	1.475436	0.425931	0.265445
O40	O	1.725436	0.675931	0.515445
C41	C	0.830090	-0.000037	-0.119626
C42	C	1.080090	0.249963	0.130374
C43	C	1.330090	0.499963	0.380374
C44	C	1.580090	0.749963	0.630374
C45	C	0.737794	-0.000032	-0.118011
C46	C	0.987794	0.249968	0.131989
C47	C	1.237794	0.499968	0.381989
C48	C	1.487794	0.749968	0.631989
N49	N	0.982070	-0.230724	-0.113543
N50	N	1.232070	0.019276	0.136457
N51	N	1.482070	0.269276	0.386457
N52	N	1.732070	0.519276	0.636457
C53	C	0.515522	-0.000037	-0.190018
C54	C	0.765522	0.249963	0.059982
C55	C	1.015522	0.499963	0.309982
C56	C	1.265522	0.749963	0.559982
C57	C	0.428801	-0.000043	-0.188494
C58	C	0.678801	0.249957	0.061506
C59	C	0.928801	0.499957	0.311506
C60	C	1.178801	0.749957	0.561506
C61	C	0.448676	-0.000051	-0.037006
C62	C	0.698676	0.249949	0.212994
C63	C	0.948676	0.499949	0.462994
C64	C	1.198676	0.749949	0.712994
C65	C	0.535394	-0.000051	-0.038530
C66	C	0.785394	0.249949	0.211470
C67	C	1.035394	0.499949	0.461470
C68	C	1.285394	0.749949	0.711470
C69	C	0.568815	-0.000040	-0.115039
C70	C	0.818815	0.249960	0.134961
C71	C	1.068815	0.499960	0.384961
C72	C	1.318815	0.749960	0.634961
C73	C	0.395376	-0.000045	-0.111990
C74	C	0.645376	0.249955	0.138010
C75	C	0.895376	0.499955	0.388010
C76	C	1.145376	0.749955	0.638010
C77	C	0.301350	-0.000051	-0.110337
C78	C	0.551350	0.249949	0.139663
C79	C	0.801350	0.499949	0.389663
C80	C	1.051350	0.749949	0.639663
C81	C	0.662847	-0.000035	-0.116693
C82	C	0.912847	0.249965	0.133307
C83	C	1.162847	0.499965	0.383307
C84	C	1.412847	0.749965	0.633307
C85	C	0.923021	-0.470400	-0.172554
C86	C	1.173021	-0.220400	0.077446
C87	C	1.423021	0.029600	0.327446
C88	C	1.673021	0.279600	0.577446
C89	C	0.998143	-0.529737	-0.188671
C90	C	1.248143	-0.279737	0.061329
C91	C	1.498143	-0.029737	0.311329
C92	C	1.748143	0.220263	0.561329
C93	C	0.982091	-0.412331	-0.113522
C94	C	1.232091	-0.162331	0.136478
C95	C	1.482091	0.087669	0.386478
C96	C	1.732091	0.337669	0.636478
C97	C	0.906990	-0.529735	-0.097424
C98	C	1.156990	-0.279735	0.152576
C99	C	1.406990	-0.029735	0.402576
C100	C	1.656990	0.220265	0.652576
C101	C	0.982105	-0.587755	-0.113504
C102	C	1.232105	-0.337755	0.136496
C103	C	1.482105	-0.087755	0.386496
C104	C	1.732105	0.162245	0.636496
C105	C	1.057251	-0.470362	-0.129676
C106	C	1.307251	-0.220362	0.120324
C107	C	1.557251	0.029638	0.370324
C108	C	1.807251	0.279638	0.620324
C109	C	0.966048	-0.470355	-0.038396
C110	C	1.216048	-0.220355	0.211604
C111	C	1.466048	0.029645	0.461604
C112	C	1.716048	0.279645	0.711604
C113	C	1.041224	-0.529666	-0.054481
C114	C	1.291224	-0.279666	0.195519
C115	C	1.541224	-0.029666	0.445519
C116	C	1.791224	0.220334	0.695519
C117	C	0.982082	-0.311274	-0.113535
C118	C	1.232082	-0.061274	0.136465
C119	C	1.482082	0.188726	0.386465
C120	C	1.732082	0.438726	0.636465
C121	C	0.982123	-0.688811	-0.113491
C122	C	1.232123	-0.438811	0.136509
C123	C	1.482123	-0.188811	0.386509
C124	C	1.732123	0.061189	0.636509
C125	C	1.134101	-0.000053	-0.107404
C126	C	1.384101	0.249947	0.142596
C127	C	1.634101	0.499947	0.392596
C128	C	1.884101	0.749947	0.642596
C129	C	1.226397	-0.000053	-0.109019
C130	C	1.476397	0.249947	0.140981
C131	C	1.726397	0.499947	0.390981
C132	C	1.976397	0.749947	0.640981
C133	C	0.988206	-0.000056	0.038491
C134	C	1.238206	0.249944	0.288491
C135	C	1.488206	0.499944	0.538491
C136	C	1.738206	0.749944	0.788491
C137	C	0.986591	-0.000057	0.130786
C138	C	1.236591	0.249943	0.380786
C139	C	1.486591	0.499943	0.630786
C140	C	1.736591	0.749943	0.880786
N141	N	0.982128	0.230632	-0.113480
N142	N	1.232128	0.480632	0.136520
N143	N	1.482128	0.730632	0.386520
N144	N	1.732128	0.980632	0.636520
C145	C	0.975984	-0.000034	-0.265521
C146	C	1.225984	0.249966	-0.015521
C147	C	1.475984	0.499966	0.234479
C148	C	1.725984	0.749966	0.484479
C149	C	0.977600	-0.000027	-0.357816
C150	C	1.227600	0.249973	-0.107816
C151	C	1.477600	0.499973	0.142184
C152	C	1.727600	0.749973	0.392184
C153	C	1.058599	-0.000048	0.353059
C154	C	1.308599	0.249952	0.603059
C155	C	1.558599	0.499952	0.853059
C156	C	1.808599	0.749952	1.103059
C157	C	1.057075	-0.000040	0.439779
C158	C	1.307075	0.249960	0.689779
C159	C	1.557075	0.499960	0.939779
C160	C	1.807075	0.749960	1.189779
C161	C	0.905586	-0.000035	0.419905
C162	C	1.155586	0.249965	0.669905
C163	C	1.405586	0.499965	0.919905
C164	C	1.655586	0.749965	1.169905
C165	C	0.907111	-0.000036	0.333186
C166	C	1.157111	0.249964	0.583186
C167	C	1.407111	0.499964	0.833186
C168	C	1.657111	0.749964	1.083186
C169	C	0.983620	-0.000047	0.299766
C170	C	1.233620	0.249953	0.549766
C171	C	1.483620	0.499953	0.799766
C172	C	1.733620	0.749953	1.049766
C173	C	0.980571	-0.000038	0.473205
C174	C	1.230571	0.249962	0.723205
C175	C	1.480571	0.499962	0.973205
C176	C	1.730571	0.749962	1.223205
C177	C	0.978918	-0.000030	0.567231
C178	C	1.228918	0.249970	0.817231
C179	C	1.478918	0.499970	1.067231
C180	C	1.728918	0.749970	1.317231
C181	C	0.985273	-0.000053	0.205734
C182	C	1.235273	0.249947	0.455734
C183	C	1.485273	0.499947	0.705734
C184	C	1.735273	0.749947	0.955734
H185	H	0.542730	-0.000034	-0.252317
H186	H	0.792730	0.249966	-0.002317
H187	H	1.042730	0.499966	0.247683
H188	H	1.292730	0.749966	0.497683
H189	H	0.578788	-0.000056	0.022530
H190	H	0.828788	0.249944	0.272530
H191	H	1.078788	0.499944	0.522530
H192	H	1.328788	0.749944	0.772530
O193	O	0.856919	-0.435916	-0.238727
O194	O	1.106919	-0.185916	0.011273
O195	O	1.356919	0.064084	0.261273
O196	O	1.606919	0.314084	0.511273
H197	H	0.870449	-0.459699	-0.301021
H198	H	1.120449	-0.209699	-0.051021
H199	H	1.370449	0.040301	0.198979
H200	H	1.620449	0.290301	0.448979
H201	H	1.118130	-0.000039	0.483168
H202	H	1.368130	0.249961	0.733168
H203	H	1.618130	0.499961	0.983168
H204	H	1.868130	0.749961	1.233168
H205	H	0.843295	-0.000027	0.447127
H206	H	1.093295	0.249973	0.697127
H207	H	1.343295	0.499973	0.947127
H208	H	1.593295	0.749973	1.197127
O209	O	1.016110	-0.564344	-0.272802
O210	O	1.266110	-0.314344	-0.022802
O211	O	1.516110	-0.064344	0.227198
O212	O	1.766110	0.185656	0.477198
H213	H	0.966979	-0.540633	-0.321706
H214	H	1.216979	-0.290633	-0.071706
H215	H	1.466979	-0.040633	0.178294
H216	H	1.716979	0.209367	0.428294
O217	O	0.826232	-0.000041	0.275703
O218	O	1.076232	0.249959	0.525703
O219	O	1.326232	0.499959	0.775703
O220	O	1.576232	0.749959	1.025703
H221	H	0.823305	0.060312	0.235727
H222	H	1.073305	0.310312	0.485727
H223	H	1.323305	0.560312	0.735727
H224	H	1.573305	0.810312	0.985727
O225	O	0.948029	-0.435777	0.045723
O226	O	1.198029	-0.185777	0.295723
O227	O	1.448029	0.064223	0.545723
O228	O	1.698029	0.314223	0.795723
H229	H	1.001627	-0.395132	0.073640
H230	H	1.251627	-0.145132	0.323640
H231	H	1.501627	0.104868	0.573640
H232	H	1.751627	0.354868	0.823640
H233	H	0.421454	-0.000065	0.025285
H234	H	0.671454	0.249935	0.275285
H235	H	0.921454	0.499935	0.525285
H236	H	1.171454	0.749935	0.775285
H237	H	1.120782	-0.444392	-0.143359
H238	H	1.370782	-0.194392	0.106641
H239	H	1.620782	0.055608	0.356641
H240	H	1.870782	0.305608	0.606641
H241	H	1.091238	-0.555525	-0.004548
H242	H	1.341238	-0.305525	0.245452
H243	H	1.591238	-0.055525	0.495452
H244	H	1.841238	0.194475	0.745452
H245	H	0.843472	-0.555818	-0.083817
H246	H	1.093472	-0.305818	0.166183
H247	H	1.343472	-0.055818	0.416183
H248	H	1.593472	0.194182	0.666183
O249	O	0.371318	-0.000037	-0.269364
O250	O	0.621318	0.249963	-0.019364
O251	O	0.871318	0.499963	0.230636
O252	O	1.121318	0.749963	0.480636
H253	H	0.409130	-0.000023	-0.322817
H254	H	0.659130	0.249977	-0.072817
H255	H	0.909130	0.499977	0.177183
H256	H	1.159130	0.749977	0.427183
O257	O	1.141114	-0.000041	0.317007
O258	O	1.391114	0.249959	0.567007
O259	O	1.641114	0.499959	0.817007
O260	O	1.891114	0.749959	1.067007
H261	H	1.192995	-0.000029	0.368638
H262	H	1.442995	0.249971	0.618638
H263	H	1.692995	0.499971	0.868638
H264	H	1.942995	0.749971	1.118638
