data_functionalizedCrystal
_audit_creation_method	'MofGen! by Chris Wilmer'
_symmetry_space_group_name_H-M	'P1'
_symmetry_Int_Tables_number	1
_symmetry_cell_setting	triclinic
loop_
_symmetry_equiv_pos_as_xyz
  x,y,z
_cell_length_a	16.625548
_cell_length_b	19.077068
_cell_length_c	19.076919
_cell_angle_alpha	85.529249
_cell_angle_beta	87.719059
_cell_angle_gamma	92.328114
loop_
_atom_site_label
_atom_site_type_symbol
_atom_site_fract_x
_atom_site_fract_y
_atom_site_fract_z
Zn1	Zn	1.200104	-0.296663	0.409849
Zn2	Zn	1.700104	0.203337	0.909849
Zn3	Zn	1.200004	-0.409817	0.296694
Zn4	Zn	1.700004	0.090183	0.796694
Zn5	Zn	1.070916	-0.291950	0.291979
Zn6	Zn	1.570916	0.208050	0.791979
Zn7	Zn	1.059584	-0.414516	0.414538
Zn8	Zn	1.559584	0.085484	0.914538
O9	O	1.132652	-0.353236	0.353265
O10	O	1.632652	0.146764	0.853265
O11	O	1.312922	-0.311679	0.394850
O12	O	1.812922	0.188321	0.894850
O13	O	1.187581	-0.390242	0.197422
O14	O	1.687581	0.109758	0.697422
O15	O	1.092838	-0.193926	0.303680
O16	O	1.592838	0.306074	0.803680
O17	O	1.312849	-0.394813	0.311715
O18	O	1.812849	0.105187	0.811715
O19	O	1.187751	-0.197389	0.390279
O20	O	1.687751	0.302611	0.890279
O21	O	1.092741	-0.303646	0.193958
O22	O	1.592741	0.196354	0.693958
O23	O	0.956582	-0.308202	0.308226
O24	O	1.456582	0.191798	0.808226
O25	O	1.073523	-0.402822	0.512563
O26	O	1.573523	0.097178	1.012563
O27	O	0.948256	-0.398251	0.398269
O28	O	1.448256	0.101749	0.898269
O29	O	1.176762	-0.316236	0.509118
O30	O	1.676762	0.183764	1.009118
O31	O	1.176592	-0.509089	0.316261
O32	O	1.676592	-0.009089	0.816261
O33	O	1.073426	-0.512542	0.402841
O34	O	1.573426	-0.012542	0.902841
C35	C	1.123790	-0.536395	0.360587
C36	C	1.623790	-0.036395	0.860587
C37	C	1.120071	-0.614752	0.363742
C38	C	1.620071	-0.114752	0.863742
C39	C	0.923163	-0.353225	0.353245
C40	C	1.423163	0.146775	0.853245
C41	C	0.833540	-0.353238	0.353254
C42	C	1.333540	0.146762	0.853254
C43	C	1.172076	-0.649745	0.320185
C44	C	1.672076	-0.149745	0.820185
C45	C	1.168583	-0.723370	0.323158
C46	C	1.668583	-0.223370	0.823158
C47	C	1.113081	-0.762000	0.369684
C48	C	1.613081	-0.262000	0.869684
C49	C	1.061075	-0.727002	0.413246
C50	C	1.561075	-0.227002	0.913246
C51	C	1.064572	-0.653379	0.410277
C52	C	1.564572	-0.153379	0.910277
C53	C	1.096861	-0.982386	0.383397
C54	C	1.596861	-0.482386	0.883397
C55	C	1.093366	-1.056015	0.386362
C56	C	1.593366	-0.556015	0.886362
C57	C	1.200875	-1.052377	0.296274
C58	C	1.700875	-0.552377	0.796274
C59	C	1.204365	-0.978752	0.293306
C60	C	1.704365	-0.478752	0.793306
C61	C	1.152361	-0.943761	0.336870
C62	C	1.652361	-0.443761	0.836870
N63	N	1.109508	-0.837257	0.372722
N64	N	1.609508	-0.337257	0.872722
N65	N	1.155939	-0.868506	0.333836
N66	N	1.655939	-0.368506	0.833836
C67	C	0.505363	-0.353244	0.353284
C68	C	1.005363	0.146756	0.853284
C69	C	0.596672	-0.353241	0.353273
C70	C	1.096672	0.146759	0.853273
C71	C	0.669449	-0.353242	0.353268
C72	C	1.169449	0.146758	0.853268
C73	C	0.760764	-0.353237	0.353259
C74	C	1.260764	0.146763	0.853259
C75	C	1.342959	-0.353248	0.353286
C76	C	1.842959	0.146752	0.853286
C77	C	1.432580	-0.353253	0.353294
C78	C	1.932580	0.146747	0.853294
C79	C	1.123890	-0.360579	0.537134
C80	C	1.623890	0.139421	1.037134
C81	C	1.120156	-0.363708	0.615488
C82	C	1.620156	0.136292	1.115488
C83	C	1.141570	-0.169363	0.345930
C84	C	1.641570	0.330637	0.845930
C85	C	1.145370	-0.091008	0.342805
C86	C	1.645370	0.408992	0.842805
C87	C	1.141429	-0.345872	0.170110
C88	C	1.641429	0.154128	0.670110
C89	C	1.145329	-0.342544	0.091748
C90	C	1.645329	0.157456	0.591748
C91	C	1.172150	-0.320099	0.650506
C92	C	1.672150	0.179901	1.150506
C93	C	1.168632	-0.323036	0.724128
C94	C	1.668632	0.176964	1.224128
C95	C	1.113123	-0.369586	0.762730
C96	C	1.613123	0.130414	1.262730
C97	C	1.061123	-0.413196	0.727706
C98	C	1.561123	0.086804	1.227706
C99	C	1.064638	-0.410255	0.654086
C100	C	1.564638	0.089745	1.154086
C101	C	1.096844	-0.383213	0.983104
C102	C	1.596844	0.116787	1.483104
C103	C	1.093334	-0.386153	1.056729
C104	C	1.593334	0.113847	1.556729
C105	C	1.200843	-0.295991	1.053146
C106	C	1.700843	0.204009	1.553146
C107	C	1.204356	-0.293057	0.979525
C108	C	1.704356	0.206943	1.479525
C109	C	1.152353	-0.336665	0.944507
C110	C	1.652353	0.163335	1.444507
N111	N	1.109527	-0.372591	0.837983
N112	N	1.609527	0.127409	1.337983
N113	N	1.155946	-0.333656	0.869255
N114	N	1.655946	0.166344	1.369255
H115	H	1.210930	-0.751857	0.287688
H116	H	1.710930	-0.251857	0.787688
C117	C	1.033107	-0.436801	1.098561
C118	C	1.533107	0.063199	1.598561
C119	C	1.048111	-0.505838	1.083427
C120	C	1.548111	-0.005838	1.583427
C121	C	0.992644	-0.552510	1.121943
C122	C	1.492644	-0.052510	1.621943
H123	H	1.038413	-0.432400	1.147435
H124	H	1.538413	0.067600	1.647435
H125	H	0.979992	-0.426037	1.086068
H126	H	1.479992	0.073963	1.586068
H127	H	1.101212	-0.516599	1.095925
H128	H	1.601212	-0.016599	1.595925
H129	H	1.042799	-0.510261	1.034560
H130	H	1.542799	-0.010261	1.534560
H131	H	0.939530	-0.541745	1.109450
H132	H	1.439530	-0.041745	1.609450
H133	H	0.997955	-0.548103	1.170815
H134	H	1.497955	-0.048103	1.670815
H135	H	1.002812	-0.599355	1.111676
H136	H	1.502812	-0.099355	1.611676
H137	H	1.022291	-0.445759	0.625574
H138	H	1.522291	0.054241	1.125574
C139	C	1.033081	-1.097834	0.436957
C140	C	1.533081	-0.597834	0.936957
C141	C	0.988303	-1.051434	0.474489
C142	C	1.488303	-0.551434	0.974489
C143	C	0.932772	-1.089933	0.521107
C144	C	1.432772	-0.589933	1.021107
H145	H	0.997816	-1.125520	0.411204
H146	H	1.497816	-0.625520	0.911204
H147	H	1.061057	-1.127733	0.468885
H148	H	1.561057	-0.627733	0.968885
H149	H	0.960328	-1.021547	0.442565
H150	H	1.460328	-0.521547	0.942565
H151	H	1.023545	-1.023747	0.500257
H152	H	1.523545	-0.523747	1.000257
H153	H	0.960748	-1.119832	0.553035
H154	H	1.460748	-0.619832	1.053035
H155	H	0.897513	-1.117617	0.495348
H156	H	1.397513	-0.617617	0.995348
H157	H	0.902388	-1.058457	0.546583
H158	H	1.402388	-0.558457	1.046583
C159	C	1.040516	-0.430601	0.945011
C160	C	1.540516	0.069399	1.445011
C161	C	1.085982	-0.474093	0.904538
C162	C	1.585982	0.025907	1.404538
C163	C	1.034116	-0.517752	0.869431
C164	C	1.534116	-0.017752	1.369431
H165	H	1.006943	-0.458805	0.978476
H166	H	1.506943	0.041195	1.478476
H167	H	1.008071	-0.402505	0.915175
H168	H	1.508071	0.097495	1.415175
H169	H	1.118414	-0.502187	0.934372
H170	H	1.618414	-0.002187	1.434372
H171	H	1.119553	-0.445908	0.871061
H172	H	1.619553	0.054092	1.371061
H173	H	1.001671	-0.489656	0.839594
H174	H	1.501671	0.010344	1.339594
H175	H	1.000546	-0.545952	0.902900
H176	H	1.500546	-0.045952	1.402900
H177	H	1.064957	-0.547263	0.841961
H178	H	1.564957	-0.047263	1.341961
H179	H	1.249558	-0.947300	0.255420
H180	H	1.749558	-0.447300	0.755420
H181	H	1.015924	-0.451096	0.759141
H182	H	1.515924	0.048904	1.259141
C183	C	1.040524	-0.944372	0.430776
C184	C	1.540524	-0.444372	0.930776
C185	C	1.085982	-0.903873	0.474310
C186	C	1.585982	-0.403873	0.974310
C187	C	1.034107	-0.868851	0.517972
C188	C	1.534107	-0.368851	1.017972
H189	H	1.008047	-0.914556	0.402707
H190	H	1.508047	-0.414556	0.902707
H191	H	1.006983	-0.977908	0.458945
H192	H	1.506983	-0.477908	0.958945
H193	H	1.119509	-0.870341	0.446144
H194	H	1.619509	-0.370341	0.946144
H195	H	1.118457	-0.933672	0.502394
H196	H	1.618457	-0.433672	1.002394
H197	H	1.000566	-0.902387	0.546141
H198	H	1.500566	-0.402387	1.046141
H199	H	1.001633	-0.839040	0.489897
H200	H	1.501633	-0.339040	0.989897
H201	H	1.064943	-0.841374	0.547519
H202	H	1.564943	-0.341374	1.047519
H203	H	1.243215	-1.080875	0.260807
H204	H	1.743215	-0.580875	0.760807
C205	C	1.232418	-0.607932	0.269646
C206	C	1.732418	-0.107932	0.769646
C207	C	1.277227	-0.654340	0.232151
C208	C	1.777227	-0.154340	0.732151
C209	C	1.332831	-0.615851	0.185594
C210	C	1.832831	-0.115851	0.685594
H211	H	1.204523	-0.578016	0.237686
H212	H	1.704523	-0.078016	0.737686
H213	H	1.267648	-0.580266	0.295465
H214	H	1.767648	-0.080266	0.795465
H215	H	1.242001	-0.681995	0.206334
H216	H	1.742001	-0.181995	0.706334
H217	H	1.305139	-0.684258	0.264092
H218	H	1.805139	-0.184258	0.764092
H219	H	1.368061	-0.588185	0.211413
H220	H	1.868061	-0.088185	0.711413
H221	H	1.304929	-0.585936	0.153639
H222	H	1.804929	-0.085936	0.653639
H223	H	1.363245	-0.647333	0.160153
H224	H	1.863245	-0.147333	0.660153
H225	H	1.015887	-0.758461	0.451132
H226	H	1.515887	-0.258461	0.951132
H227	H	1.022226	-0.624888	0.445746
H228	H	1.522226	-0.124888	0.945746
H229	H	1.217354	-0.282195	0.619082
H230	H	1.717354	0.217805	1.119082
H231	H	1.210973	-0.287527	0.752637
H232	H	1.710973	0.212473	1.252637
C233	C	1.257257	-0.248525	1.091071
C234	C	1.757257	0.251475	1.591071
C235	C	1.243948	-0.178061	1.070363
C236	C	1.743948	0.321939	1.570363
C237	C	1.295909	-0.134311	1.105277
C238	C	1.795909	0.365689	1.605277
H239	H	1.247271	-0.256845	1.140452
H240	H	1.747271	0.243155	1.640452
H241	H	1.311524	-0.258319	1.079409
H242	H	1.811524	0.241681	1.579409
H243	H	1.189693	-0.168271	1.082030
H244	H	1.689693	0.331729	1.582030
H245	H	1.253939	-0.169719	1.020988
H246	H	1.753939	0.330281	1.520988
H247	H	1.350176	-0.144105	1.093614
H248	H	1.850176	0.355895	1.593614
H249	H	1.285919	-0.142637	1.154656
H250	H	1.785919	0.357363	1.654656
H251	H	1.286891	-0.086497	1.091226
H252	H	1.786891	0.413503	1.591226
H253	H	1.249559	-0.255153	0.948100
H254	H	1.749559	0.244847	1.448100
