data_functionalizedCrystal
_audit_creation_method	'MofGen! by Chris Wilmer'
_symmetry_space_group_name_H-M	'P1'
_symmetry_Int_Tables_number	1
_symmetry_cell_setting	triclinic
loop_
_symmetry_equiv_pos_as_xyz
  x,y,z
_cell_length_a	6.817900
_cell_length_b	19.453114
_cell_length_c	15.185311
_cell_angle_alpha	95.653796
_cell_angle_beta	104.261569
_cell_angle_gamma	101.709288
loop_
_atom_site_label
_atom_site_type_symbol
_atom_site_fract_x
_atom_site_fract_y
_atom_site_fract_z
V1	V	-4.010750	-0.219207	-0.126703
O2	O	-3.994583	-0.214822	0.005115
O3	O	-3.966209	-0.217911	-0.250294
O4	O	-3.953618	-0.314717	-0.125181
O5	O	-4.007262	-0.117346	-0.120864
V6	V	-4.495009	-0.206998	-0.110885
O7	O	-4.270393	-0.245986	-0.161399
O8	O	-4.685564	-0.180219	-0.076189
O9	O	-4.316344	-0.208294	0.012706
O10	O	-4.628573	-0.211383	-0.242703
O11	O	-4.615895	-0.308859	-0.116724
O12	O	-4.328935	-0.111488	-0.112407
C13	C	-3.812432	-0.214506	-0.280409
C14	C	-3.857243	-0.214083	-0.381449
C15	C	-4.012022	-0.147973	-0.795423
C16	C	-4.081629	-0.276667	-0.821924
C17	C	-4.039499	-0.277060	-0.726990
C18	C	-3.983631	-0.212908	-0.666268
C19	C	-3.969893	-0.148364	-0.700480
C20	C	-4.053254	-0.341603	-0.692771
C21	C	-4.011125	-0.341999	-0.597832
C22	C	-3.955241	-0.277846	-0.537108
C23	C	-3.941502	-0.213299	-0.571326
C24	C	-3.885634	-0.149148	-0.510604
C25	C	-3.871880	-0.084600	-0.544819
C26	C	-3.914010	-0.084211	-0.639757
C27	C	-3.913111	-0.278235	-0.442171
C28	C	-3.843505	-0.149539	-0.415661
C29	C	-3.796369	-0.337990	-0.120814
C30	C	-3.830966	-0.416072	-0.120388
C31	C	-4.029144	-0.456336	-0.124750
C32	C	-4.061652	-0.529702	-0.124350
C33	C	-3.895979	-0.562803	-0.119605
C34	C	-3.697771	-0.522529	-0.115238
C35	C	-3.665264	-0.449164	-0.115629
N36	N	-3.837735	-0.681671	-0.167606
N37	N	-3.868628	-0.751366	-0.167236
C38	C	-3.993909	-0.783850	-0.118424
N39	N	-4.087165	-0.744008	-0.070007
N40	N	-4.056276	-0.674307	-0.070381
C41	C	-3.931207	-0.642356	-0.119180
C42	C	-4.227348	-0.903666	-0.122351
C43	C	-4.259846	-0.977033	-0.121944
C44	C	-3.895963	-0.969859	-0.112841
C45	C	-3.863466	-0.896493	-0.113239
C46	C	-4.029168	-0.863402	-0.117998
C47	C	-4.133464	-0.211697	0.042816
C48	C	-4.067890	-0.212124	0.143855
C49	C	-4.149527	-0.088211	-0.116777
C50	C	-4.094168	-0.010129	-0.117198
H51	H	-3.826399	-0.032368	-0.495368
F52	F	-3.652542	-0.853640	-0.108608
F53	F	-4.141104	-0.344937	-0.886550
H54	H	-4.223040	-0.562493	-0.127907
H55	H	-3.924346	-0.330789	-0.414318
H56	H	-3.503877	-0.416379	-0.112070
H57	H	-4.362271	-0.876721	-0.126222
F58	F	-3.899388	-0.015521	-0.676178
F59	F	-3.997377	-0.079279	-0.831837
H60	H	-4.098767	-0.393832	-0.742217
F61	F	-4.025758	-0.410695	-0.561426
F62	F	-4.205500	-0.421122	-0.129811
F63	F	-4.470783	-1.019885	-0.126585
F64	F	-3.521449	-0.557758	-0.110186
H65	H	-3.798001	-0.097298	-0.366226
F66	F	-3.719631	-1.005081	-0.107778
