data_functionalizedCrystal
_audit_creation_method	'MofGen! by Chris Wilmer'
_symmetry_space_group_name_H-M	'P1'
_symmetry_Int_Tables_number	1
_symmetry_cell_setting	triclinic
loop_
_symmetry_equiv_pos_as_xyz
  x,y,z
_cell_length_a	11.169417
_cell_length_b	18.050589
_cell_length_c	11.169409
_cell_angle_alpha	89.967208
_cell_angle_beta	89.979436
_cell_angle_gamma	90.029099
loop_
_atom_site_label
_atom_site_type_symbol
_atom_site_fract_x
_atom_site_fract_y
_atom_site_fract_z
Zn1	Zn	1.834822	-0.295582	-0.678538
Zn2	Zn	2.168155	0.037751	-0.345205
Zn3	Zn	2.501489	0.371084	-0.011872
Zn4	Zn	1.834646	-0.419797	-0.477854
Zn5	Zn	2.167979	-0.086464	-0.144520
Zn6	Zn	2.501313	0.246869	0.188813
Zn7	Zn	1.634105	-0.295627	-0.477873
Zn8	Zn	1.967439	0.037706	-0.144539
Zn9	Zn	2.300772	0.371039	0.188794
Zn10	Zn	1.634053	-0.419737	-0.678498
Zn11	Zn	1.967386	-0.086404	-0.345165
Zn12	Zn	2.300719	0.246930	-0.011832
O13	O	1.734407	-0.357686	-0.578191
O14	O	2.067740	-0.024353	-0.244857
O15	O	2.401073	0.308981	0.088476
O16	O	2.002748	-0.312066	-0.651926
O17	O	2.336082	0.021267	-0.318592
O18	O	2.669415	0.354601	0.014741
O19	O	1.807992	-0.403370	-0.309906
O20	O	2.141326	-0.070037	0.023427
O21	O	2.474659	0.263297	0.356760
O22	O	1.660826	-0.191697	-0.504516
O23	O	1.994160	0.141636	-0.171183
O24	O	2.327493	0.474970	0.162150
O25	O	2.002619	-0.403326	-0.504483
O26	O	2.335952	-0.069993	-0.171150
O27	O	2.669286	0.263340	0.162183
O28	O	1.808292	-0.191664	-0.651945
O29	O	2.141625	0.141670	-0.318611
O30	O	2.474959	0.475003	0.014722
O31	O	1.660656	-0.312143	-0.309920
O32	O	1.993989	0.021190	0.023413
O33	O	2.327322	0.354524	0.356746
O34	O	1.466149	-0.312085	-0.504478
O35	O	1.799482	0.021249	-0.171144
O36	O	2.132815	0.354582	0.162189
O37	O	1.660737	-0.403223	-0.846454
O38	O	1.994070	-0.069890	-0.513120
O39	O	2.327404	0.263443	-0.179787
O40	O	1.466110	-0.403267	-0.651876
O41	O	1.799443	-0.069934	-0.318543
O42	O	2.132777	0.263399	0.014790
O43	O	1.808241	-0.312008	-0.846483
O44	O	2.141574	0.021326	-0.513150
O45	O	2.474908	0.354659	-0.179816
O46	O	1.807941	-0.523714	-0.504445
O47	O	2.141275	-0.190381	-0.171111
O48	O	2.474608	0.142953	0.162222
O49	O	1.660566	-0.523670	-0.651858
O50	O	1.993900	-0.190336	-0.318524
O51	O	2.327233	0.142997	0.014809
C52	C	1.422582	-0.357675	-0.578175
C53	C	1.755915	-0.024341	-0.244842
C54	C	2.089249	0.308992	0.088491
C55	C	1.289182	-0.357688	-0.578197
C56	C	1.622515	-0.024354	-0.244864
C57	C	1.955849	0.308979	0.088469
C58	C	1.734262	-0.550638	-0.578171
C59	C	2.067595	-0.217305	-0.244838
C60	C	2.400928	0.116028	0.088496
C61	C	1.734309	-0.633184	-0.578202
C62	C	2.067643	-0.299851	-0.244869
C63	C	2.400976	0.033483	0.088464
C64	C	1.654246	-0.832637	-0.658338
C65	C	1.987579	-0.499304	-0.325004
C66	C	2.320912	-0.165971	0.008329
C67	C	1.624981	-0.882089	-0.548822
C68	C	1.958314	-0.548756	-0.215489
C69	C	2.291648	-0.215422	0.117844
C70	C	1.734427	-0.784314	-0.578218
C71	C	2.067761	-0.450981	-0.244885
C72	C	2.401094	-0.117648	0.088449
C73	C	1.763751	-0.881944	-0.687746
C74	C	2.097084	-0.548611	-0.354413
C75	C	2.430418	-0.215278	-0.021079
C76	C	1.734539	-0.930299	-0.578243
C77	C	2.067872	-0.596966	-0.244910
C78	C	2.401206	-0.263633	0.088424
C79	C	1.705105	-0.832679	-0.468645
C80	C	2.038438	-0.499345	-0.135312
C81	C	2.371772	-0.166012	0.198022
C82	C	1.843926	-0.832530	-0.607642
C83	C	2.177259	-0.499196	-0.274309
C84	C	2.510593	-0.165863	0.059024
C85	C	1.814703	-0.881959	-0.498052
C86	C	2.148036	-0.548626	-0.164718
C87	C	2.481370	-0.215292	0.168615
C88	C	1.734360	-0.700216	-0.578205
C89	C	2.067693	-0.366883	-0.244872
C90	C	2.401027	-0.033549	0.088461
C91	C	1.734607	-1.014396	-0.578243
C92	C	2.067940	-0.681062	-0.244910
C93	C	2.401273	-0.347729	0.088423
C94	C	2.047449	-0.357698	-0.578207
C95	C	2.380782	-0.024365	-0.244874
C96	C	2.714116	0.308969	0.088460
C97	C	2.180849	-0.357703	-0.578214
C98	C	2.514182	-0.024370	-0.244881
C99	C	2.847515	0.308964	0.088453
C100	C	1.734503	-0.357604	-0.891233
C101	C	2.067836	-0.024270	-0.557900
C102	C	2.401169	0.309063	-0.224567
C103	C	1.734544	-0.357569	-1.024633
C104	C	2.067877	-0.024235	-0.691300
C105	C	2.401210	0.309098	-0.357967
C106	C	1.734585	-0.163980	-0.578237
C107	C	2.067918	0.169353	-0.244904
C108	C	2.401251	0.502686	0.088430
C109	C	1.734661	-0.081435	-0.578257
C110	C	2.067994	0.251899	-0.244923
C111	C	2.401327	0.585232	0.088410
C112	C	1.734380	-0.357714	-0.266366
C113	C	2.067713	-0.024381	0.066967
C114	C	2.401046	0.308952	0.400301
C115	C	1.734571	-0.357540	-0.132967
C116	C	2.067905	-0.024207	0.200367
C117	C	2.401238	0.309126	0.533700
H118	H	1.586339	-0.810980	-0.725996
H119	H	1.919672	-0.477647	-0.392663
H120	H	2.253006	-0.144314	-0.059329
H121	H	1.532434	-0.903874	-0.523958
H122	H	1.865767	-0.570541	-0.190624
H123	H	2.199100	-0.237207	0.142709
Br124	Br	1.927806	-0.917827	-0.385018
Br125	Br	2.261139	-0.584494	-0.051685
Br126	Br	2.594472	-0.251161	0.281648
Br127	Br	1.663668	-0.796764	-0.314231
Br128	Br	1.997001	-0.463431	0.019102
Br129	Br	2.330335	-0.130097	0.352435
H130	H	1.936452	-0.810747	-0.632559
H131	H	2.269786	-0.477413	-0.299226
H132	H	2.603119	-0.144080	0.034107
Br133	Br	1.805013	-0.918020	-0.842109
Br134	Br	2.138346	-0.584687	-0.508775
Br135	Br	2.471679	-0.251354	-0.175442
