data_functionalizedCrystal
_audit_creation_method	'MofGen! by Chris Wilmer'
_symmetry_space_group_name_H-M	'P1'
_symmetry_Int_Tables_number	1
_symmetry_cell_setting	triclinic
loop_
_symmetry_equiv_pos_as_xyz
  x,y,z
_cell_length_a	13.032831
_cell_length_b	12.759393
_cell_length_c	12.759400
_cell_angle_alpha	89.969615
_cell_angle_beta	82.819144
_cell_angle_gamma	82.806365
loop_
_atom_site_label
_atom_site_type_symbol
_atom_site_fract_x
_atom_site_fract_y
_atom_site_fract_z
Zn1	Zn	1.597755	-0.797728	-0.622491
Zn2	Zn	1.597653	-0.622039	-0.798197
Zn3	Zn	1.422988	-0.599782	-0.600200
Zn4	Zn	1.422978	-0.775407	-0.775782
O5	O	1.510344	-0.698739	-0.699168
O6	O	1.743984	-0.793079	-0.664509
O7	O	1.574444	-0.472060	-0.771984
O8	O	1.446218	-0.626067	-0.456142
O9	O	1.743909	-0.664001	-0.793599
O10	O	1.574619	-0.771497	-0.472519
O11	O	1.446118	-0.455708	-0.626517
O12	O	1.276744	-0.604423	-0.604782
O13	O	1.446202	-0.925394	-0.755396
O14	O	1.276737	-0.733454	-0.733781
O15	O	1.574610	-0.941793	-0.642774
O16	O	1.574435	-0.642356	-0.942239
O17	O	1.446102	-0.755035	-0.925770
C18	C	1.238821	-0.664102	-0.664431
C19	C	1.122663	-0.649308	-0.649596
C20	C	1.510417	-0.972782	-0.699071
C21	C	1.510448	-1.089562	-0.699029
C22	C	1.510285	-0.698715	-0.972128
C23	C	1.510355	-0.698753	-1.088913
C24	C	1.070900	-0.706459	-0.706910
C25	C	0.950844	-0.691172	-0.691579
C26	C	1.782926	-0.733512	-0.734041
C27	C	1.899084	-0.748331	-0.748902
C28	C	1.443653	-1.135912	-0.623275
C29	C	1.443677	-1.245640	-0.623246
C30	C	1.577300	-1.262658	-0.774729
C31	C	1.577270	-1.152932	-0.774762
C32	C	1.510331	-0.425770	-0.699196
C33	C	1.510502	-0.309016	-0.698967
C34	C	1.577236	-0.774561	-1.261952
C35	C	1.577182	-0.774530	-1.152222
C36	C	1.443585	-0.622994	-1.135342
C37	C	1.443644	-0.623021	-1.245071
C38	C	1.510431	-0.698789	-0.425146
C39	C	1.510469	-0.698811	-0.308374
H40	H	1.115465	-0.766710	-0.767326
Br41	Br	0.876582	-0.590756	-0.590858
H42	H	0.943644	-0.808588	-0.809319
Br43	Br	1.048397	-0.548897	-0.548879
Br44	Br	1.352964	-1.049913	-0.520498
H45	H	1.389285	-1.283372	-0.561560
H46	H	1.631552	-0.836212	-1.114429
Br47	Br	1.352896	-0.520145	-1.049425
H48	H	1.389273	-0.561331	-1.282868
Br49	Br	1.667984	-1.348666	-0.877504
Br50	Br	1.667920	-1.090021	-0.877586
Br51	Br	1.667929	-0.877414	-1.347860
