data_functionalizedCrystal
_audit_creation_method	'MofGen! by Chris Wilmer'
_symmetry_space_group_name_H-M	'P1'
_symmetry_Int_Tables_number	1
_symmetry_cell_setting	triclinic
loop_
_symmetry_equiv_pos_as_xyz
  x,y,z
_cell_length_a	19.077105
_cell_length_b	12.759399
_cell_length_c	19.077258
_cell_angle_alpha	92.306641
_cell_angle_beta	90.096589
_cell_angle_gamma	87.711582
loop_
_atom_site_label
_atom_site_type_symbol
_atom_site_fract_x
_atom_site_fract_y
_atom_site_fract_z
Zn1	Zn	1.058248	-0.455634	0.440436
Zn2	Zn	1.062927	-0.638605	0.322933
Zn3	Zn	0.945486	-0.456166	0.318228
Zn4	Zn	0.940728	-0.624495	0.435687
O5	O	1.001847	-0.543725	0.379321
O6	O	1.157200	-0.485588	0.428805
O7	O	1.051297	-0.620532	0.223977
O8	O	0.960476	-0.309075	0.334457
O9	O	1.160638	-0.620016	0.342477
O10	O	1.043322	-0.308684	0.424243
O11	O	0.965013	-0.486495	0.220520
O12	O	0.846523	-0.472813	0.329852
O13	O	0.952369	-0.595967	0.534648
O14	O	0.843028	-0.596483	0.416149
O15	O	1.038710	-0.471906	0.538138
O16	O	1.046684	-0.783753	0.337872
O17	O	0.956905	-0.773387	0.420711
C18	C	0.819279	-0.533175	0.371975
C19	C	0.741175	-0.528687	0.368849
C20	C	1.001805	-0.816691	0.379303
C21	C	1.001850	-0.933469	0.379322
C22	C	0.702683	-0.591072	0.412240
C23	C	0.629296	-0.586840	0.409306
C24	C	0.594402	-0.520228	0.362977
C25	C	0.632899	-0.457835	0.319585
C26	C	0.706285	-0.462062	0.322523
C27	C	0.375115	-0.500665	0.349384
C28	C	0.301724	-0.496445	0.346448
C29	C	0.298125	-0.625448	0.436170
C30	C	0.371513	-0.629674	0.439101
C31	C	0.410003	-0.567278	0.395711
N32	N	0.519388	-0.515903	0.359976
N33	N	0.485015	-0.571598	0.398717
C34	C	1.048647	-0.993694	0.336240
C35	C	1.048691	-1.103419	0.336266
C36	C	0.955135	-1.092685	0.422455
C37	C	0.955095	-0.982961	0.422433
C38	C	1.132643	-1.259627	0.314591
C39	C	1.179434	-1.319855	0.271499
C40	C	1.193017	-1.289175	0.203372
C41	C	1.159800	-1.198267	0.178323
C42	C	1.113003	-1.138044	0.221412
C43	C	1.099433	-1.168723	0.289549
C44	C	0.871142	-0.826752	0.444101
C45	C	0.824342	-0.766527	0.487186
C46	C	0.810752	-0.797205	0.555314
C47	C	0.843957	-0.888115	0.580359
C48	C	0.890757	-0.948341	0.537274
C49	C	0.904349	-0.917655	0.469147
C50	C	1.185128	-0.554316	0.386696
C51	C	1.263232	-0.558830	0.389839
C52	C	0.994487	-0.532303	0.562602
C53	C	0.991350	-0.527436	0.640706
C54	C	1.001908	-0.269693	0.379355
C55	C	1.001934	-0.152917	0.379369
C56	C	1.034796	-0.594932	0.679202
C57	C	1.031849	-0.590346	0.752588
C58	C	0.985451	-0.518268	0.787478
C59	C	0.942004	-0.450766	0.748977
C60	C	0.944955	-0.455347	0.675591
C61	C	0.971811	-0.497077	1.006762
C62	C	0.968862	-0.492503	1.080153
C63	C	1.058708	-0.632082	1.083759
C64	C	1.061652	-0.636662	1.010373
C65	C	1.018207	-0.569155	0.971878
N66	N	0.982436	-0.513581	0.862490
N67	N	1.021226	-0.573838	0.896867
C68	C	1.009173	-0.555127	1.196752
C69	C	1.012308	-0.559998	1.118648
H70	H	0.731088	-0.645319	0.449963
Cl71	Cl	1.115580	-1.298194	0.400244
H72	H	0.772641	-0.748160	0.590392
H73	H	0.917068	-1.132995	0.457554
H74	H	0.399918	-0.683919	0.476825
Cl75	Cl	0.888229	-0.788175	0.358451
H76	H	0.266778	-0.676246	0.471497
Cl77	Cl	1.086465	-0.675208	0.800980
H78	H	0.931081	-0.433801	1.108557
H79	H	0.904229	-0.392074	0.777389
Cl80	Cl	1.093124	-0.685553	0.635348
H81	H	1.099423	-0.695371	0.981970
Cl82	Cl	0.917191	-0.412215	0.958379
H83	H	0.597958	-0.637642	0.444639
H84	H	0.273315	-0.442188	0.308726
H85	H	1.086718	-0.953400	0.301137
Cl86	Cl	0.754675	-0.383629	0.267974
Cl87	Cl	1.113324	-0.716938	1.132157
H88	H	0.909578	-0.400382	0.644249
Cl89	Cl	0.826873	-0.926687	0.666008
Cl90	Cl	0.423493	-0.422220	0.294838
H91	H	0.604482	-0.403593	0.281866
H92	H	1.085960	-1.064028	0.201018
H93	H	1.231117	-1.338220	0.168286
Cl94	Cl	1.176871	-1.159711	0.092669
Cl95	Cl	1.221192	-1.434134	0.302988
H96	H	0.797309	-0.692499	0.466789
Cl97	Cl	0.932503	-1.062629	0.568761
