data_functionalizedCrystal
_audit_creation_method	'MofGen! by Chris Wilmer'
_symmetry_space_group_name_H-M	'P1'
_symmetry_Int_Tables_number	1
_symmetry_cell_setting	triclinic
loop_
_symmetry_equiv_pos_as_xyz
  x,y,z
_cell_length_a	15.538191
_cell_length_b	14.853567
_cell_length_c	13.930277
_cell_angle_alpha	90.008437
_cell_angle_beta	90.005011
_cell_angle_gamma	114.546488
loop_
_atom_site_label
_atom_site_type_symbol
_atom_site_fract_x
_atom_site_fract_y
_atom_site_fract_z
O1	O	1.249533	0.292697	0.079862
O2	O	0.975411	0.188644	0.079854
O3	O	1.119794	0.374305	0.079861
O4	O	1.105150	0.107036	0.079855
O5	O	1.119773	0.374277	-0.079801
O6	O	0.975389	0.188616	-0.079808
O7	O	1.249512	0.292669	-0.079800
Zn8	Zn	1.112447	0.240638	-0.105154
Zn9	Zn	1.112475	0.240675	0.105208
O10	O	1.105129	0.107008	-0.079807
C11	C	0.940319	0.177744	0.000022
C12	C	0.835787	0.145316	0.000020
N13	N	1.112435	0.240615	-0.248720
C14	C	1.119120	0.407662	0.000033
C15	C	1.117132	0.507093	0.000041
C16	C	0.547575	0.467476	0.000042
C17	C	0.449350	0.436983	0.000042
C18	C	0.427131	0.265464	0.000038
C19	C	0.525357	0.295943	0.000033
C20	C	0.585572	0.396951	0.000037
C21	C	0.563354	0.225418	0.000028
C22	C	0.661571	0.255895	0.000028
C23	C	0.721792	0.356897	0.000034
C24	C	0.683789	0.427428	0.000037
C25	C	0.503137	0.124411	0.000031
C26	C	0.541133	0.053885	0.000026
C27	C	0.639353	0.084362	0.000019
C28	C	0.699574	0.185365	0.000025
C29	C	0.677355	0.013832	0.000016
C30	C	0.775573	0.044309	0.000017
C31	C	0.797791	0.215842	0.000026
C32	C	1.284604	0.303569	0.000034
C33	C	1.389135	0.335997	0.000043
C34	C	1.105803	0.073651	0.000023
C35	C	1.107791	-0.025780	0.000021
C36	C	1.022959	0.888697	0.000020
C37	C	1.194490	0.966314	0.000025
C38	C	1.196360	0.872895	0.000031
C39	C	1.111528	0.787371	0.000030
C40	C	1.024826	0.795267	0.000023
C41	C	1.283060	0.864991	0.000028
C42	C	1.284933	0.771567	0.000032
C43	C	1.200100	0.686041	0.000038
C44	C	1.113395	0.693942	0.000033
C45	C	1.028563	0.608418	0.000032
C46	C	0.941857	0.616316	0.000033
C47	C	0.939993	0.709742	0.000029
C48	C	1.201964	0.592616	0.000042
C49	C	1.030430	0.514989	0.000034
C50	C	1.169664	0.204695	-0.700979
C51	C	1.055315	0.276702	-0.700969
C52	C	1.055301	0.276682	-0.600473
C53	C	1.112470	0.240670	-0.550226
C54	C	1.169654	0.204677	-0.600474
C55	C	0.998126	0.312684	-0.550218
C56	C	0.998110	0.312667	-0.449716
C57	C	1.055275	0.276648	-0.399466
C58	C	1.112460	0.240652	-0.449720
C59	C	1.169629	0.204640	-0.399473
C60	C	1.226810	0.168638	-0.449725
C61	C	1.226819	0.168658	-0.550224
C62	C	1.055266	0.276628	-0.298967
C63	C	1.169619	0.204623	-0.298968
N64	N	1.112495	0.240707	0.248774
H65	H	0.846822	0.298092	0.000022
F66	F	0.930685	0.897104	0.000030
F67	F	0.408916	0.512054	0.000036
F68	F	0.940138	0.423972	0.000040
H69	H	0.872787	0.546671	0.000025
F70	F	0.747880	0.534932	0.000029
H71	H	0.596607	0.549726	0.000039
H72	H	0.951590	0.342013	-0.591136
H73	H	0.869402	0.716183	0.000029
F74	F	0.826325	0.389334	0.000040
H75	H	0.628314	-0.068408	0.000023
H76	H	1.272558	0.586189	0.000035
F77	F	1.230462	0.166286	-0.245498
F78	F	0.816014	-0.030752	0.000012
H79	H	1.263556	1.035951	0.000018
H80	H	0.378091	0.183224	0.000039
F81	F	0.937241	0.350967	-0.396242
F82	F	1.373337	0.956012	0.000011
H83	H	1.273361	0.139322	-0.408801
H84	H	0.423163	0.099600	0.000034
H85	H	1.355534	0.765147	0.000033
F86	F	1.287667	0.130343	-0.603713
H87	H	1.216217	0.175379	-0.741899
F88	F	0.477039	-0.053610	0.000028
F89	F	0.994429	0.314960	-0.245490
F90	F	0.994478	0.315029	-0.754448
