data_functionalizedCrystal
_audit_creation_method	'MofGen! by Chris Wilmer'
_symmetry_space_group_name_H-M	'P1'
_symmetry_Int_Tables_number	1
_symmetry_cell_setting	triclinic
loop_
_symmetry_equiv_pos_as_xyz
  x,y,z
_cell_length_a	12.827893
_cell_length_b	16.625545
_cell_length_c	12.827885
_cell_angle_alpha	89.967039
_cell_angle_beta	90.019272
_cell_angle_gamma	89.975993
loop_
_atom_site_label
_atom_site_type_symbol
_atom_site_fract_x
_atom_site_fract_y
_atom_site_fract_z
Zn1	Zn	1.597607	0.320963	0.590826
Zn2	Zn	2.097607	0.820963	1.090826
Zn3	Zn	1.597475	0.455817	0.416076
Zn4	Zn	2.097475	0.955817	0.916076
Zn5	Zn	1.422848	0.321002	0.416099
Zn6	Zn	1.922848	0.821002	0.916099
Zn7	Zn	1.422807	0.455757	0.590776
Zn8	Zn	1.922807	0.955757	1.090776
O9	O	1.510184	0.388385	0.503444
O10	O	2.010184	0.888385	1.003444
O11	O	1.743825	0.338861	0.567656
O12	O	2.243825	0.838861	1.067656
O13	O	1.574272	0.437976	0.269843
O14	O	2.074272	0.937976	0.769843
O15	O	1.446103	0.208165	0.439307
O16	O	1.946103	0.708165	0.939307
O17	O	1.743728	0.437937	0.439268
O18	O	2.243728	0.937937	0.939268
O19	O	1.574497	0.208136	0.567678
O20	O	2.074497	0.708136	1.067678
O21	O	1.445975	0.338928	0.269860
O22	O	1.945975	0.838928	0.769860
O23	O	1.276607	0.338869	0.439259
O24	O	1.776607	0.838869	0.939259
O25	O	1.446033	0.437835	0.737019
O26	O	1.946033	0.937835	1.237019
O27	O	1.276577	0.437873	0.567594
O28	O	1.776577	0.937873	1.067594
O29	O	1.574457	0.338802	0.737055
O30	O	2.074457	0.838802	1.237055
O31	O	1.574232	0.568642	0.439220
O32	O	2.074232	1.068642	0.939220
O33	O	1.445905	0.568598	0.567572
O34	O	1.945905	1.068598	1.067572
C35	C	1.238674	0.388370	0.503424
C36	C	1.738674	0.888370	1.003424
C37	C	1.122521	0.388382	0.503441
C38	C	1.622521	0.888382	1.003441
C39	C	1.510078	0.597876	0.503411
C40	C	2.010078	1.097876	1.003411
C41	C	1.510128	0.687497	0.503431
C42	C	2.010128	1.187497	1.003431
C43	C	1.070749	0.437449	0.566847
C44	C	1.570749	0.937449	1.066847
C45	C	0.950699	0.437464	0.566865
C46	C	1.450699	0.937464	1.066865
C47	C	1.510299	1.015673	0.503556
C48	C	2.010299	1.515673	1.003556
C49	C	1.510248	0.924364	0.503524
C50	C	2.010248	1.424364	1.003524
C51	C	1.510212	0.851588	0.503493
C52	C	2.010212	1.351588	1.003493
C53	C	1.510163	0.760274	0.503463
C54	C	2.010163	1.260274	1.003463
C55	C	1.782754	0.388401	0.503465
C56	C	2.282754	0.888401	1.003465
C57	C	1.898907	0.388408	0.503474
C58	C	2.398907	0.888408	1.003474
C59	C	1.510310	1.178076	0.503513
C60	C	2.010310	1.678076	1.003513
C61	C	1.510342	1.088455	0.503574
C62	C	2.010342	1.588455	1.003574
C63	C	1.510255	0.388308	0.776015
C64	C	2.010255	0.888308	1.276015
C65	C	1.510286	0.388275	0.892168
C66	C	2.010286	0.888275	1.392168
C67	C	1.510173	0.388404	0.231934
C68	C	2.010173	0.888404	0.731934
C69	C	1.510346	0.388210	0.115782
C70	C	2.010346	0.888210	0.615782
C71	C	1.573841	0.339261	0.943971
C72	C	2.073841	0.839261	1.443971
C73	C	1.573874	0.339225	1.064021
C74	C	2.073874	0.839225	1.564021
H75	H	1.115302	0.479444	0.621121
H76	H	1.615302	0.979444	1.121121
Br77	Br	1.419655	0.458164	1.041545
Br78	Br	1.919655	0.958164	1.541545
Br79	Br	1.664466	0.269335	0.869768
Br80	Br	2.164466	0.769335	1.369768
Br81	Br	1.664579	0.269287	1.138265
Br82	Br	2.164579	0.769287	1.638265
Br83	Br	0.876499	0.507491	0.657339
Br84	Br	1.376499	1.007491	1.157339
H85	H	1.455891	0.430206	0.936694
H86	H	1.955891	0.930206	1.436694
H87	H	1.077968	0.346382	0.449174
H88	H	1.577968	0.846382	0.949174
Br89	Br	0.973101	0.318392	0.412979
Br90	Br	1.473101	0.818392	0.912979
