data_functionalizedCrystal
_audit_creation_method	'MofGen! by Chris Wilmer'
_symmetry_space_group_name_H-M	'P1'
_symmetry_Int_Tables_number	1
_symmetry_cell_setting	triclinic
loop_
_symmetry_equiv_pos_as_xyz
  x,y,z
_cell_length_a	10.654546
_cell_length_b	10.723022
_cell_length_c	9.130313
_cell_angle_alpha	89.999893
_cell_angle_beta	89.998822
_cell_angle_gamma	84.475355
loop_
_atom_site_label
_atom_site_type_symbol
_atom_site_fract_x
_atom_site_fract_y
_atom_site_fract_z
O1	O	1.667809	0.175249	-0.121827
O2	O	1.302328	0.191952	-0.121823
O3	O	1.493500	0.002025	-0.121820
O4	O	1.476637	0.365176	-0.121831
O5	O	1.493497	0.002030	0.121779
O6	O	1.302325	0.191957	0.121776
O7	O	1.667807	0.175254	0.121771
Cu8	Cu	1.485066	0.183606	0.144016
Cu9	Cu	1.485069	0.183600	-0.144068
O10	O	1.476635	0.365181	0.121768
C11	C	1.255529	0.190729	-0.000023
C12	C	1.116086	0.187063	-0.000021
C13	C	1.050592	0.185325	-0.132814
C14	C	0.919572	0.181870	-0.132825
C15	C	0.919551	0.181885	0.132759
C16	C	1.050567	0.185349	0.132770
C17	C	1.050605	0.185310	-0.286147
C18	C	0.919584	0.181855	-0.286159
C19	C	1.492272	-0.044472	-0.000022
C20	C	1.488602	-0.183027	-0.000027
C21	C	1.378359	-0.231603	-0.000028
C22	C	1.374563	-0.374806	-0.000034
C23	C	1.714606	0.176477	-0.000032
C24	C	1.854049	0.180143	-0.000043
C25	C	1.477863	0.411678	-0.000033
C26	C	1.481533	0.550233	-0.000037
N27	N	1.485073	0.183610	0.346639
N28	N	1.485071	0.183587	-0.346690
C29	C	1.569746	0.099539	0.423292
C30	C	1.569743	0.099524	0.576629
C31	C	1.400389	0.267661	0.576646
C32	C	1.400388	0.267669	0.423312
C33	C	1.667525	0.002469	0.423284
C34	C	1.667521	0.002454	0.576621
H35	H	1.102341	0.096437	-0.333712
H36	H	1.764030	0.023834	0.618235
O37	O	1.269225	-0.154571	-0.000088
C38	C	1.297311	-0.028738	-0.000042
H39	H	1.396021	-0.023018	-0.046161
H40	H	1.225702	0.029697	-0.070761
H41	H	1.292921	0.008858	0.116827
O42	O	1.262060	-0.424898	0.000027
C43	C	1.283315	-0.556726	-0.000019
H44	H	1.381088	-0.586324	0.046098
H45	H	1.209076	-0.597438	0.070700
H46	H	1.276969	-0.593018	-0.116889
H47	H	1.758704	0.032862	0.375723
H48	H	1.575926	-0.407951	-0.000090
O49	O	1.080286	0.290298	-0.356586
C50	C	1.158050	0.256069	-0.477824
H51	H	1.143185	0.156530	-0.512919
H52	H	1.132842	0.323260	-0.572400
H53	H	1.261001	0.260740	-0.446193
H54	H	1.646097	-0.093448	0.381667
O55	O	1.318185	0.349487	0.650965
C56	C	1.339669	0.473217	0.613540
H57	H	1.388082	0.473522	0.502212
H58	H	1.245792	0.533797	0.608295
H59	H	1.402503	0.512383	0.699846
H60	H	1.580174	-0.247457	-0.000024
O61	O	1.630991	-0.105683	0.633170
C62	C	1.507764	-0.121822	0.585374
H63	H	1.487052	-0.066564	0.480039
H64	H	1.499423	-0.225452	0.564065
H65	H	1.437174	-0.086501	0.673367
H66	H	0.866190	0.180491	0.240873
O67	O	0.857939	0.287806	-0.343181
C68	C	0.897103	0.302960	-0.489074
H69	H	0.935784	0.208240	-0.535376
H70	H	0.813335	0.342877	-0.557768
H71	H	0.973856	0.370014	-0.492054
H72	H	1.103885	0.186778	0.240902
O73	O	0.890128	0.076774	-0.356578
C74	C	0.934177	0.078137	-0.502133
H75	H	1.014351	0.140982	-0.509823
H76	H	0.969858	-0.021122	-0.536792
H77	H	0.853945	0.115653	-0.577484
H78	H	1.331429	0.336115	0.360902
