data_functionalizedCrystal
_audit_creation_method	'MofGen! by Chris Wilmer'
_symmetry_space_group_name_H-M	'P1'
_symmetry_Int_Tables_number	1
_symmetry_cell_setting	triclinic
loop_
_symmetry_equiv_pos_as_xyz
  x,y,z
_cell_length_a	14.971491
_cell_length_b	15.995292
_cell_length_c	13.448316
_cell_angle_alpha	89.996588
_cell_angle_beta	89.991393
_cell_angle_gamma	83.542426
loop_
_atom_site_label
_atom_site_type_symbol
_atom_site_fract_x
_atom_site_fract_y
_atom_site_fract_z
O1	O	1.186796	0.109140	-0.082727
O2	O	1.686796	0.609140	0.417273
O3	O	0.926378	0.122203	-0.082719
O4	O	1.426378	0.622203	0.417281
O5	O	1.063733	-0.006212	-0.082725
O6	O	1.563733	0.493788	0.417275
O7	O	1.049441	0.237555	-0.082721
O8	O	1.549441	0.737555	0.417279
O9	O	1.063715	-0.006220	0.082659
O10	O	1.563715	0.493780	0.582659
O11	O	0.926361	0.122195	0.082665
O12	O	1.426361	0.622195	0.582665
O13	O	1.186778	0.109132	0.082657
O14	O	1.686778	0.609132	0.582657
Cu15	Cu	1.056568	0.115663	0.097762
Cu16	Cu	1.556568	0.615663	0.597762
Cu17	Cu	1.056588	0.115672	-0.097824
Cu18	Cu	1.556588	0.615672	0.402176
O19	O	1.049424	0.237547	0.082662
O20	O	1.549424	0.737547	0.582662
C21	C	0.893046	0.121614	-0.000026
C22	C	1.393046	0.621614	0.499974
C23	C	0.793751	0.119861	-0.000023
C24	C	1.293751	0.619861	0.499977
C25	C	0.366065	0.112301	-0.090197
C26	C	0.866065	0.612301	0.409803
C27	C	0.459364	0.113946	-0.090193
C28	C	0.959364	0.613946	0.409807
C29	C	0.505999	0.114769	-0.000039
C30	C	1.005999	0.614769	0.499961
C31	C	0.459332	0.113939	0.090117
C32	C	0.959332	0.613939	0.590117
C33	C	0.366037	0.112289	0.090112
C34	C	0.866037	0.612289	0.590112
C35	C	0.653789	0.117382	0.090121
C36	C	1.153789	0.617382	0.590121
C37	C	0.747091	0.119034	0.090126
C38	C	1.247091	0.619034	0.590126
C39	C	0.747116	0.119038	-0.090185
C40	C	1.247116	0.619038	0.409815
C41	C	0.653821	0.117388	-0.090190
C42	C	1.153821	0.617388	0.409810
C43	C	0.607160	0.116560	-0.000033
C44	C	1.107160	0.616560	0.499967
C45	C	1.063142	-0.037412	-0.000035
C46	C	1.563142	0.462588	0.499965
C47	C	1.061399	-0.130367	-0.000043
C48	C	1.561399	0.369633	0.499957
C49	C	1.054988	-0.468112	-0.000034
C50	C	1.554988	0.031888	0.499966
C51	C	1.154126	-0.444699	0.000333
C52	C	1.654126	0.055301	0.500333
C53	C	1.156011	-0.348021	-0.000044
C54	C	1.656011	0.151979	0.499956
C55	C	1.058169	-0.300553	-0.000038
C56	C	1.558169	0.199447	0.499962
C57	C	1.008614	-0.329700	-0.094475
C58	C	1.508614	0.170300	0.405525
C59	C	1.007420	-0.426492	-0.094551
C60	C	1.507420	0.073508	0.405449
C61	C	1.005376	-0.426360	0.093522
C62	C	1.505376	0.073640	0.593522
C63	C	1.009050	-0.329864	0.094766
C64	C	1.509050	0.170136	0.594766
C65	C	1.059961	-0.205855	-0.000043
C66	C	1.559961	0.294145	0.499957
C67	C	1.053192	-0.562810	-0.000035
C68	C	1.553192	-0.062810	0.499965
C69	C	1.220111	0.109721	-0.000038
C70	C	1.720111	0.609721	0.499962
C71	C	1.319405	0.111474	-0.000048
C72	C	1.819405	0.611474	0.499952
C73	C	1.050014	0.268747	-0.000029
C74	C	1.550014	0.768747	0.499971
C75	C	1.051758	0.361702	-0.000028
C76	C	1.551758	0.861702	0.499972
N77	N	1.056560	0.115656	0.235326
N78	N	1.556560	0.615656	0.735326
N79	N	1.056603	0.115673	-0.235388
N80	N	1.556603	0.615673	0.264612
C81	C	1.117400	0.058817	0.287364
C82	C	1.617400	0.558817	0.787364
C83	C	1.117405	0.058816	0.391467
C84	C	1.617405	0.558816	0.891467
C85	C	1.056575	0.115659	0.443530
C86	C	1.556575	0.615659	0.943530
C87	C	0.995729	0.172500	0.391485
C88	C	1.495729	0.672500	0.891485
C89	C	0.995720	0.172496	0.287384
C90	C	1.495720	0.672496	0.787384
C91	C	0.995754	0.172506	0.608465
C92	C	1.495754	0.672506	1.108465
C93	C	0.995764	0.172511	0.712574
C94	C	1.495764	0.672511	1.212574
C95	C	1.117439	0.058826	0.712548
C96	C	1.617439	0.558826	1.212548
C97	C	1.117430	0.058822	0.608447
C98	C	1.617430	0.558822	1.108447
C99	C	1.056585	0.115665	0.556409
C100	C	1.556585	0.615665	1.056409
H101	H	1.194821	-0.328960	0.067651
H102	H	1.694821	0.171040	0.567651
F103	F	0.931018	0.233010	0.767977
F104	F	1.431018	0.733010	1.267977
F105	F	1.053612	-0.303434	-0.186344
F106	F	1.553612	0.196566	0.313656
H107	H	1.195064	-0.329574	-0.067861
H108	H	1.695064	0.170426	0.432139
H109	H	1.041754	-0.453270	-0.165149
H110	H	1.541754	0.046730	0.334851
F111	F	0.914508	-0.288140	-0.099066
F112	F	1.414508	0.211860	0.400934
H113	H	0.946204	0.218791	0.566100
H114	H	1.446204	0.718791	1.066100
F115	F	1.182149	-0.001680	0.231963
F116	F	1.682149	0.498320	0.731963
F117	F	1.204067	-0.481245	0.088856
F118	F	1.704067	0.018755	0.588856
H119	H	0.946195	0.218780	0.433882
H120	H	1.446195	0.718780	0.933882
F121	F	0.796723	0.119905	0.186078
F122	F	1.296723	0.619905	0.686078
F123	F	0.930963	0.232990	0.232003
F124	F	1.430963	0.732990	0.732003
H125	H	0.497351	0.114614	-0.163602
H126	H	0.997351	0.614614	0.336398
H127	H	0.615852	0.116723	-0.163601
H128	H	1.115852	0.616723	0.336399
F129	F	0.912414	-0.445610	-0.100153
F130	F	1.412414	0.054390	0.399847
H131	H	0.328101	0.111636	-0.163611
H132	H	0.828101	0.611636	0.336389
H133	H	0.615800	0.116717	0.163536
H134	H	1.115800	0.616717	0.663536
F135	F	0.796775	0.119928	-0.186137
F136	F	1.296775	0.619928	0.313863
F137	F	0.508968	0.114813	0.186066
F138	F	1.008968	0.614813	0.686066
H139	H	1.192134	-0.473675	-0.067015
H140	H	1.692134	0.026325	0.432985
F141	F	0.316379	0.111402	0.186062
F142	F	0.816379	0.611402	0.686062
F143	F	1.182156	-0.001679	0.446850
F144	F	1.682156	0.498321	0.946850
H145	H	1.036590	-0.454420	0.165105
H146	H	1.536590	0.045580	0.665105
F147	F	1.056208	-0.305548	0.186086
F148	F	1.556208	0.194452	0.686086
H149	H	1.166967	0.012540	0.566057
H150	H	1.666967	0.512540	1.066057
F151	F	0.915703	-0.286868	0.102228
F152	F	1.415703	0.213132	0.602228
F153	F	1.182195	-0.001669	0.767935
F154	F	1.682195	0.498331	1.267935
F155	F	0.909995	-0.444744	0.094361
F156	F	1.409995	0.055256	0.594361
