data_functionalizedCrystal
_audit_creation_method	'MofGen! by Chris Wilmer'
_symmetry_space_group_name_H-M	'P1'
_symmetry_Int_Tables_number	1
_symmetry_cell_setting	triclinic
loop_
_symmetry_equiv_pos_as_xyz
  x,y,z
_cell_length_a	14.519709
_cell_length_b	8.559649
_cell_length_c	7.088929
_cell_angle_alpha	84.674985
_cell_angle_beta	96.236165
_cell_angle_gamma	76.729405
loop_
_atom_site_label
_atom_site_type_symbol
_atom_site_fract_x
_atom_site_fract_y
_atom_site_fract_z
O1	O	0.020642	-2.103670	-0.158956
O2	O	-0.026977	-1.638600	-0.158968
O3	O	0.131957	-1.883467	-0.158944
O4	O	-0.138292	-1.858803	-0.158979
O5	O	0.153240	-1.916191	0.159034
O6	O	-0.005694	-1.671324	0.159010
O7	O	0.041925	-2.136393	0.159023
Cu8	Cu	0.020059	-1.906847	0.188050
Cu9	Cu	-0.005111	-1.868147	-0.187996
O10	O	-0.117009	-1.891526	0.158999
C11	C	0.176876	-1.898680	0.000045
C12	C	0.279010	-1.895236	0.000046
C13	C	-0.019944	-1.595443	0.000020
C14	C	-0.030686	-1.418093	0.000015
C15	C	-0.161928	-1.876313	0.000005
C16	C	-0.264063	-1.879756	-0.000008
C17	C	0.652993	-1.882552	-0.000004
C18	C	0.548938	-1.886074	0.000011
C19	C	0.466005	-1.888894	0.000023
C20	C	0.361944	-1.892417	0.000034
C21	C	0.034892	-2.179551	0.000031
C22	C	0.045633	-2.356899	0.000022
N23	N	0.037763	-1.934078	0.452541
N24	N	-0.022807	-1.840929	-0.452487
H25	H	0.119190	-1.440186	0.000023
C26	C	-0.121778	-1.145837	-0.000002
C27	C	-0.129996	-1.305659	0.000000
H28	H	-0.183087	-1.076430	-0.000001
H29	H	-0.095768	-1.114932	-0.110880
H30	H	-0.080916	-1.137757	0.110893
H31	H	-0.170853	-1.313741	-0.110903
H32	H	-0.156019	-1.336573	0.110889
H33	H	-0.085574	-1.744390	0.465858
H34	H	0.100529	-2.030634	0.534206
