data_functionalizedCrystal
_audit_creation_method	'MofGen! by Chris Wilmer'
_symmetry_space_group_name_H-M	'P1'
_symmetry_Int_Tables_number	1
_symmetry_cell_setting	triclinic
loop_
_symmetry_equiv_pos_as_xyz
  x,y,z
_cell_length_a	6.817900
_cell_length_b	15.300992
_cell_length_c	9.582880
_cell_angle_alpha	92.795750
_cell_angle_beta	111.207034
_cell_angle_gamma	104.175078
loop_
_atom_site_label
_atom_site_type_symbol
_atom_site_fract_x
_atom_site_fract_y
_atom_site_fract_z
V1	V	-4.120121	-0.124377	-0.467051
O2	O	-4.102208	0.006368	-0.457696
O3	O	-4.074509	-0.246996	-0.464302
O4	O	-4.110836	-0.122292	-0.670544
O5	O	-4.065629	-0.119198	-0.250027
V6	V	-4.598319	-0.108759	-0.441039
O7	O	-4.393060	-0.158638	-0.524110
O8	O	-4.775578	-0.074499	-0.383979
O9	O	-4.420724	0.013860	-0.443787
O10	O	-4.733629	-0.239505	-0.450393
O11	O	-4.770208	-0.113938	-0.658063
O12	O	-4.384397	-0.110844	-0.237545
C13	C	-3.918923	-0.276893	-0.457050
C14	C	-3.963177	-0.377134	-0.456159
C15	C	-3.916975	-0.411462	-0.318649
C16	C	-3.958578	-0.505650	-0.317817
C17	C	-4.046368	-0.565508	-0.454497
C18	C	-4.092578	-0.531175	-0.592018
C19	C	-4.050990	-0.436989	-0.592848
C20	C	-4.179252	-0.727487	-0.590277
C21	C	-4.220840	-0.821680	-0.589446
C22	C	-4.086840	-0.796149	-0.315245
C23	C	-4.045252	-0.701963	-0.316076
C24	C	-4.091461	-0.667636	-0.453597
C25	C	-3.965260	-0.117820	-0.720129
C26	C	-4.038971	-0.116927	-0.886489
C27	C	-4.239652	0.043752	-0.451036
C28	C	-4.174638	0.143992	-0.451936
C29	C	-4.193314	-0.115319	-0.187952
C30	C	-4.098842	-0.116208	-0.021591
H31	H	-4.088636	-0.409042	-0.704824
H32	H	-3.845474	-0.362730	-0.207347
H33	H	-4.216917	-0.699543	-0.702263
H34	H	-4.164075	-0.579919	-0.703305
H35	H	-3.973756	-0.653227	-0.204778
H36	H	-4.292320	-0.870415	-0.700743
O37	O	-4.041585	-0.829446	-0.181610
C38	C	-3.765272	-0.832076	0.060148
C39	C	-3.816204	-0.794306	-0.091129
H40	H	-3.583064	-0.803667	0.133357
H41	H	-3.809931	-0.909674	0.037342
H42	H	-3.865176	-0.810801	0.121782
H43	H	-3.716329	-0.815514	-0.152840
H44	H	-3.771605	-0.716714	-0.068221
O45	O	-3.913470	-0.538841	-0.184101
C46	C	-3.776271	-0.503581	0.087776
C47	C	-3.827208	-0.465870	-0.063553
H48	H	-3.706563	-0.444604	0.185277
H49	H	-3.651285	-0.543486	0.100865
H50	H	-3.933427	-0.550586	0.089203
H51	H	-3.670176	-0.418828	-0.065085
H52	H	-3.952282	-0.426018	-0.076581
