data_functionalizedCrystal
_audit_creation_method	'MofGen! by Chris Wilmer'
_symmetry_space_group_name_H-M	'P1'
_symmetry_Int_Tables_number	1
_symmetry_cell_setting	triclinic
loop_
_symmetry_equiv_pos_as_xyz
  x,y,z
_cell_length_a	14.519731
_cell_length_b	14.519731
_cell_length_c	14.750779
_cell_angle_alpha	77.331756
_cell_angle_beta	102.666662
_cell_angle_gamma	83.688853
loop_
_atom_site_label
_atom_site_type_symbol
_atom_site_fract_x
_atom_site_fract_y
_atom_site_fract_z
O1	O	1.203879	0.140959	-0.079831
O2	O	1.703879	0.640959	0.420169
O3	O	0.935405	0.155175	-0.079832
O4	O	1.435405	0.655175	0.420168
O5	O	1.076752	0.013828	-0.079823
O6	O	1.576752	0.513828	0.420177
O7	O	1.062532	0.282306	-0.079840
O8	O	1.562532	0.782306	0.420160
O9	O	1.116709	-0.026125	0.079830
O10	O	1.616709	0.473875	0.579830
O11	O	0.975362	0.115222	0.079821
O12	O	1.475362	0.615222	0.579821
O13	O	1.243836	0.101006	0.079822
O14	O	1.743836	0.601006	0.579822
Zn15	Zn	1.115943	0.101771	0.105170
Zn16	Zn	1.615943	0.601771	0.605170
Zn17	Zn	1.063298	0.154410	-0.105180
Zn18	Zn	1.563298	0.654410	0.394820
O19	O	1.102489	0.242353	0.079813
O20	O	1.602489	0.742353	0.579813
C21	C	0.921024	0.134533	-0.000006
C22	C	1.421024	0.634533	0.499994
C23	C	0.818644	0.132537	-0.000006
C24	C	1.318644	0.632537	0.499994
C25	C	1.096065	-0.040508	0.000004
C26	C	1.596065	0.459492	0.500004
C27	C	1.094069	-0.142888	0.000004
C28	C	1.594069	0.357112	0.500004
C29	C	0.735499	0.130916	-0.000010
C30	C	1.235499	0.630916	0.499990
C31	C	0.631190	0.128889	-0.000010
C32	C	1.131190	0.628889	0.499990
C33	C	0.548051	0.127281	-0.000010
C34	C	1.048051	0.627281	0.499990
C35	C	0.443735	0.125255	-0.000012
C36	C	0.943735	0.625255	0.499988
C37	C	1.092446	-0.226032	0.000002
C38	C	1.592446	0.273968	0.500002
C39	C	1.090418	-0.330339	-0.000005
C40	C	1.590418	0.169661	0.499995
C41	C	1.088808	-0.413477	-0.000011
C42	C	1.588808	0.086523	0.499989
C43	C	1.086780	-0.517791	-0.000017
C44	C	1.586780	-0.017791	0.499983
C45	C	1.258216	0.121649	-0.000006
C46	C	1.758216	0.621649	0.499994
C47	C	1.360595	0.123647	-0.000012
C48	C	1.860595	0.623647	0.499988
C49	C	1.083176	0.296689	-0.000016
C50	C	1.583176	0.796689	0.499984
C51	C	1.085170	0.399072	-0.000023
C52	C	1.585170	0.899072	0.499977
N53	N	1.151879	0.065845	0.248728
N54	N	1.651879	0.565845	0.748728
N55	N	1.027370	0.190329	-0.248738
N56	N	1.527370	0.690329	0.251262
C57	C	0.927006	0.290623	0.600531
C58	C	1.427006	0.790623	1.100531
C59	C	0.952195	0.265454	0.701032
C60	C	1.452195	0.765454	1.201032
C61	C	1.077383	0.140338	0.701003
C62	C	1.577383	0.640338	1.201003
C63	C	1.052202	0.165493	0.600500
C64	C	1.552202	0.665493	1.100500
C65	C	0.977014	0.240636	0.550272
C66	C	1.477014	0.740636	1.050272
C67	C	1.102210	0.115506	0.550241
C68	C	1.602210	0.615506	1.050241
C69	C	1.077034	0.140663	0.449747
C70	C	1.577034	0.640663	0.949747
C71	C	1.001851	0.215805	0.399512
C72	C	1.501851	0.715805	0.899512
C73	C	0.951838	0.265793	0.449778
C74	C	1.451838	0.765793	0.949778
C75	C	1.177403	0.040367	0.600471
C76	C	1.677403	0.540367	1.100471
C77	C	1.227410	-0.009619	0.550212
C78	C	1.727410	0.490381	1.050212
C79	C	1.202230	0.015533	0.449716
C80	C	1.702230	0.515533	0.949716
C81	C	1.127047	0.090675	0.399481
C82	C	1.627047	0.590675	0.899481
C83	C	1.252243	-0.034455	0.399450
C84	C	1.752243	0.465545	0.899450
C85	C	1.227067	-0.009298	0.298956
C86	C	1.727067	0.490702	0.798956
C87	C	1.101871	0.115832	0.298987
C88	C	1.601871	0.615832	0.798987
H89	H	1.040639	0.177015	0.258089
H90	H	1.540639	0.677015	0.758089
H91	H	1.197901	0.019891	0.682300
H92	H	1.697901	0.519891	1.182300
H93	H	1.313468	-0.095631	0.440359
H94	H	1.813468	0.404369	0.940359
H95	H	1.267790	-0.050002	0.258035
H96	H	1.767790	0.449998	0.758035
H97	H	0.981357	0.236289	0.317683
H98	H	1.481357	0.736289	0.817683
H99	H	0.865774	0.351806	0.559633
H100	H	1.365774	0.851806	1.059633
H101	H	0.911466	0.306167	0.741948
H102	H	1.411466	0.806167	1.241948
H103	H	0.890606	0.326976	0.408880
H104	H	1.390606	0.826976	0.908880
H105	H	1.288632	-0.070799	0.591119
H106	H	1.788632	0.429201	1.091119
H107	H	1.138605	0.079157	0.741910
H108	H	1.638605	0.579157	1.241910
