data_functionalizedCrystal
_audit_creation_method	'MofGen! by Chris Wilmer'
_symmetry_space_group_name_H-M	'P1'
_symmetry_Int_Tables_number	1
_symmetry_cell_setting	triclinic
loop_
_symmetry_equiv_pos_as_xyz
  x,y,z
_cell_length_a	19.188905
_cell_length_b	19.188925
_cell_length_c	9.130313
_cell_angle_alpha	89.999117
_cell_angle_beta	89.992651
_cell_angle_gamma	83.138552
loop_
_atom_site_label
_atom_site_type_symbol
_atom_site_fract_x
_atom_site_fract_y
_atom_site_fract_z
O1	O	0.926150	0.087082	-0.122040
O2	O	1.426150	0.587082	0.377960
O3	O	0.722836	0.098834	-0.121989
O4	O	1.222836	0.598834	0.378011
O5	O	0.830362	-0.008699	-0.122008
O6	O	1.330362	0.491301	0.377992
O7	O	0.818624	0.194614	-0.122021
O8	O	1.318624	0.694614	0.377979
O9	O	0.830361	-0.008696	0.121591
O10	O	1.330361	0.491304	0.621591
O11	O	0.722835	0.098837	0.121610
O12	O	1.222835	0.598837	0.621610
O13	O	0.926149	0.087084	0.121559
O14	O	1.426149	0.587084	0.621559
Cu15	Cu	0.824492	0.092961	0.143827
Cu16	Cu	1.324492	0.592961	0.643827
Cu17	Cu	0.824493	0.092958	-0.144257
Cu18	Cu	1.324493	0.592958	0.355743
O19	O	0.818623	0.194617	0.121578
O20	O	1.318623	0.694617	0.621578
C21	C	0.696824	0.098458	-0.000183
C22	C	1.196824	0.598458	0.499817
C23	C	0.619319	0.097324	-0.000164
C24	C	1.119319	0.597324	0.499836
C25	C	0.829982	-0.034708	-0.000209
C26	C	1.329982	0.465292	0.499791
C27	C	0.828843	-0.112213	-0.000212
C28	C	1.328843	0.387787	0.499788
C29	C	0.884308	-0.673988	-0.000263
C30	C	1.384308	-0.173988	0.499737
C31	C	0.885384	-0.601165	-0.000249
C32	C	1.385384	-0.101165	0.499751
C33	C	0.822291	-0.556225	-0.000234
C34	C	1.322291	-0.056225	0.499766
C35	C	0.758117	-0.584113	-0.000195
C36	C	1.258117	-0.084113	0.499805
C37	C	0.757043	-0.656935	-0.000193
C38	C	1.257043	-0.156935	0.499807
N39	N	0.776615	-0.435541	-0.083138
N40	N	1.276615	0.064459	0.416862
N41	N	0.777640	-0.366364	-0.083142
N42	N	1.277640	0.133636	0.416858
C43	C	0.825525	-0.336816	-0.000236
C44	C	1.325525	0.163184	0.499764
N45	N	0.872357	-0.379060	0.082657
N46	N	1.372357	0.120940	0.582657
N47	N	0.871334	-0.448244	0.082655
N48	N	1.371334	0.051756	0.582655
C49	C	0.823450	-0.477261	-0.000235
C50	C	1.323450	0.022739	0.499765
C51	C	0.890863	-0.229973	-0.000251
C52	C	1.390863	0.270027	0.499749
C53	C	0.891937	-0.157148	-0.000229
C54	C	1.391937	0.342852	0.499771
C55	C	0.764668	-0.140097	-0.000189
C56	C	1.264668	0.359903	0.499811
C57	C	0.763596	-0.212921	-0.000197
C58	C	1.263596	0.287079	0.499803
C59	C	0.826695	-0.257855	-0.000235
C60	C	1.326695	0.242145	0.499765
C61	C	0.582928	0.096778	-0.132954
C62	C	1.082928	0.596778	0.367046
C63	C	0.510104	0.095705	-0.132972
C64	C	1.010104	0.595705	0.367028
C65	C	0.473676	0.095164	-0.000193
C66	C	0.973676	0.595164	0.499807
C67	C	0.510076	0.095714	0.132614
C68	C	1.010076	0.595714	0.632614
C69	C	0.582897	0.096794	0.132629
C70	C	1.082897	0.596794	0.632629
N71	N	0.364656	0.053736	0.098624
N72	N	0.864656	0.553736	0.598624
N73	N	0.295479	0.052709	0.098602
N74	N	0.795479	0.552709	0.598602
C75	C	0.254270	0.091911	-0.000228
C76	C	0.754270	0.591911	0.499772
N77	N	0.284852	0.132171	-0.099057
N78	N	0.784852	0.632171	0.400943
N79	N	0.354035	0.133196	-0.099038
N80	N	0.854035	0.633196	0.400962
C81	C	0.394714	0.093993	-0.000194
C82	C	0.894714	0.593993	0.499806
C83	C	0.138915	0.090203	-0.133046
C84	C	0.638915	0.590203	0.366954
C85	C	0.066089	0.089134	-0.133059
C86	C	0.566089	0.589134	0.366941
C87	C	0.066063	0.089136	0.132531
C88	C	0.566063	0.589136	0.632531
C89	C	0.138886	0.090212	0.132540
C90	C	0.638886	0.590212	0.632540
C91	C	0.175308	0.090742	-0.000253
C92	C	0.675308	0.590742	0.499747
C93	C	0.952161	0.087461	-0.000250
C94	C	1.452161	0.587461	0.499750
C95	C	1.029666	0.088594	-0.000279
C96	C	1.529666	0.588594	0.499721
C97	C	0.819003	0.220627	-0.000224
C98	C	1.319003	0.720627	0.499776
C99	C	0.820142	0.298131	-0.000231
C100	C	1.320142	0.798131	0.499769
N101	N	0.824496	0.092963	0.346450
N102	N	1.324496	0.592963	0.846450
N103	N	0.824495	0.092950	-0.346880
N104	N	1.324495	0.592950	0.153120
C105	C	0.872120	0.045363	0.423093
C106	C	1.372120	0.545363	0.923093
C107	C	0.872119	0.045355	0.576430
C108	C	1.372119	0.545355	1.076430
C109	C	0.776865	0.140552	0.576466
C110	C	1.276865	0.640552	1.076466
C111	C	0.776864	0.140556	0.423132
C112	C	1.276864	0.640556	0.923132
C113	C	0.927116	-0.009596	0.423074
C114	C	1.427116	0.490404	0.923074
C115	C	0.927114	-0.009604	0.576411
C116	C	1.427114	0.490396	1.076411
H117	H	0.937637	-0.578460	-0.000275
H118	H	1.437637	-0.078460	0.499725
N119	N	0.958920	-0.278435	-0.000264
N120	N	1.458920	0.221565	0.499736
H121	H	0.961310	-0.309031	0.090036
H122	H	1.461310	0.190969	0.590036
H123	H	0.961275	-0.308982	-0.090628
H124	H	1.461275	0.191018	0.409372
N125	N	0.994005	0.012126	0.360038
N126	N	1.494005	0.512126	0.860038
H127	H	0.982576	0.055488	0.297768
H128	H	1.482576	0.555488	0.797768
H129	H	1.026293	0.022582	0.442441
H130	H	1.526293	0.522582	0.942441
N131	N	0.622215	0.097363	-0.276167
N132	N	1.122215	0.597363	0.223833
H133	H	0.658232	0.054540	-0.282077
H134	H	1.158232	0.554540	0.217923
H135	H	0.588063	0.096882	-0.360216
H136	H	1.088063	0.596882	0.139784
H137	H	0.480469	0.095261	-0.241108
H138	H	0.980469	0.595261	0.258892
N139	N	0.690067	-0.535645	-0.000195
N140	N	1.190067	-0.035645	0.499805
H141	H	0.649254	-0.564360	-0.000176
H142	H	1.149254	-0.064360	0.499824
H143	H	0.687742	-0.505057	0.090107
H144	H	1.187742	-0.005057	0.590107
N145	N	0.725498	0.191891	0.340452
N146	N	1.225498	0.691891	0.840452
H147	H	0.694674	0.165284	0.276842
H148	H	1.194674	0.665284	0.776842
H149	H	0.695373	0.222030	0.412384
H150	H	1.195373	0.722030	0.912384
N151	N	0.694383	-0.242989	-0.000163
N152	N	1.194383	0.257011	0.499837
H153	H	0.666748	-0.226588	-0.090454
H154	H	1.166748	0.273412	0.409546
H155	H	0.703329	-0.295936	-0.000105
H156	H	1.203329	0.204064	0.499895
N157	N	0.952362	-0.722452	-0.000274
N158	N	1.452362	-0.222452	0.499726
H159	H	0.954755	-0.753048	-0.090574
H160	H	1.454755	-0.253048	0.409426
H161	H	0.993134	-0.693686	-0.000232
H162	H	1.493134	-0.193686	0.499768
H163	H	0.910747	-0.060122	0.623966
H164	H	1.410747	0.439878	1.123966
N165	N	0.687833	-0.687011	-0.000148
N166	N	1.187833	-0.187011	0.499852
H167	H	0.648025	-0.647494	-0.000128
H168	H	1.148025	-0.147494	0.499872
H169	H	0.684610	-0.716853	-0.090451
H170	H	1.184610	-0.216853	0.409549
N171	N	0.725492	0.191881	0.659173
N172	N	1.225492	0.691881	1.159173
H173	H	0.732716	0.184655	0.767941
H174	H	1.232716	0.684655	1.267941
H175	H	0.733399	0.241395	0.632379
H176	H	1.233399	0.741395	1.132379
N177	N	0.912165	-0.080498	0.367935
N178	N	1.412165	0.419502	0.867935
H179	H	0.905488	-0.112142	0.453927
H180	H	1.405488	0.387858	0.953927
H181	H	0.868103	-0.074701	0.306451
H182	H	1.368103	0.425299	0.806451
N183	N	0.961147	-0.127073	-0.000246
N184	N	1.461147	0.372927	0.499754
H185	H	1.000954	-0.166591	-0.000271
H186	H	1.500954	0.333409	0.499729
H187	H	0.964361	-0.097226	-0.090548
H188	H	1.464361	0.402774	0.409452
N189	N	0.998003	0.005401	0.631528
N190	N	1.498003	0.505401	1.131528
H191	H	1.008037	0.052824	0.594698
H192	H	1.508037	0.552824	1.094698
H193	H	0.997982	0.005361	0.742144
H194	H	1.497982	0.505361	1.242144
H195	H	0.480411	0.095275	0.240724
H196	H	0.980411	0.595275	0.740724
H197	H	0.036404	0.088700	0.240642
H198	H	0.536404	0.588700	0.740642
H199	H	0.713296	-0.103508	-0.000164
H200	H	1.213296	0.396492	0.499836
N201	N	0.622152	0.097386	0.275857
N202	N	1.122152	0.597386	0.775857
H203	H	0.588028	0.096884	0.359974
H204	H	1.088028	0.596884	0.859974
H205	H	0.658166	0.054560	0.281654
H206	H	1.158166	0.554560	0.781654
H207	H	0.168570	0.090642	-0.241174
H208	H	0.668570	0.590642	0.258826
H209	H	0.168517	0.090652	0.240672
H210	H	0.668517	0.590652	0.740672
N211	N	0.026835	0.088540	-0.276288
N212	N	0.526835	0.588540	0.223712
H213	H	-0.009177	0.131365	-0.282230
H214	H	0.490823	0.631365	0.217770
H215	H	0.061008	0.089011	-0.360319
H216	H	0.561008	0.589011	0.139681
