data_functionalizedCrystal
_audit_creation_method	'MofGen! by Chris Wilmer'
_symmetry_space_group_name_H-M	'P1'
_symmetry_Int_Tables_number	1
_symmetry_cell_setting	triclinic
loop_
_symmetry_equiv_pos_as_xyz
  x,y,z
_cell_length_a	10.967926
_cell_length_b	9.483334
_cell_length_c	14.971486
_cell_angle_alpha	80.648014
_cell_angle_beta	95.825072
_cell_angle_gamma	68.714547
loop_
_atom_site_label
_atom_site_type_symbol
_atom_site_fract_x
_atom_site_fract_y
_atom_site_fract_z
O1	O	1.705062	-0.306262	-0.090275
O2	O	1.326552	-0.211435	-0.113174
O3	O	1.525954	-0.261401	0.028716
O4	O	1.505661	-0.256296	-0.232166
O5	O	1.566424	-0.513317	0.057648
O6	O	1.367022	-0.463351	-0.084243
O7	O	1.745532	-0.558178	-0.061343
Cu8	Cu	1.559972	-0.533766	-0.070151
Cu9	Cu	1.512112	-0.235846	-0.104366
O10	O	1.546130	-0.508212	-0.203234
C11	C	1.298347	-0.325257	-0.099229
C12	C	1.154012	-0.289098	-0.100767
N13	N	1.593644	-0.743310	-0.046085
C14	C	1.110627	-0.403477	-0.086466
C15	C	0.961449	-0.366107	-0.088055
C16	C	1.522028	-0.797594	-0.097268
C17	C	1.550077	-0.972028	-0.077235
C18	C	1.773737	-0.444352	-0.075289
C19	C	1.918070	-0.480502	-0.073752
C20	C	1.545282	-0.387131	0.076485
C21	C	1.542562	-0.386448	0.175718
N22	N	1.478451	-0.026306	-0.128425
C23	C	1.526802	-0.382478	-0.251003
C24	C	1.529520	-0.383151	-0.350237
C25	C	1.659704	-0.415797	0.235710
C26	C	1.657139	-0.415140	0.328948
C27	C	1.537432	-0.385144	0.362192
C28	C	1.420280	-0.355789	0.302191
C29	C	1.422845	-0.356436	0.208955
C30	C	1.414943	-0.354447	0.496527
C31	C	1.412378	-0.353803	0.589770
C32	C	1.649237	-0.413150	0.616520
C33	C	1.651802	-0.413797	0.523283
C34	C	1.534650	-0.384445	0.463290
H35	H	1.183925	-0.529067	-0.073039
H36	H	1.327455	-0.332537	0.160109
N37	N	1.413297	-0.688116	-0.174956
H38	H	1.433024	-0.719459	-0.234903
H39	H	1.408721	-0.579064	-0.178173
N40	N	1.658815	-1.081505	0.000456
H41	H	1.663441	-1.190597	0.003753
H42	H	1.639021	-1.050031	0.060359
H43	H	1.396373	-0.943649	-0.187083
N44	N	1.702375	-0.852796	0.031600
H45	H	1.682654	-0.821458	0.091550
H46	H	1.790273	-0.848344	0.020318
H47	H	1.757185	-0.440232	0.208652
H48	H	1.744626	-0.437046	0.665371
N49	N	1.783486	-0.446803	0.393656
H50	H	1.859711	-0.465916	0.358450
H51	H	1.802572	-0.541214	0.443651
H52	H	0.991363	-0.606101	-0.060327
H53	H	1.080716	-0.163508	-0.114186
N54	N	1.780914	-0.446166	0.487425
H55	H	1.854740	-0.464661	0.539577
H56	H	1.772134	-0.354340	0.438593
H57	H	0.888156	-0.240508	-0.101475
H58	H	1.314906	-0.329402	0.616837
H59	H	1.319544	-0.330541	0.447681
N60	N	1.291160	-0.323434	0.338037
H61	H	1.269814	-0.228461	0.365398
H62	H	1.299906	-0.415313	0.386815
