data_functionalizedCrystal
_audit_creation_method	'MofGen! by Chris Wilmer'
_symmetry_space_group_name_H-M	'P1'
_symmetry_Int_Tables_number	1
_symmetry_cell_setting	triclinic
loop_
_symmetry_equiv_pos_as_xyz
  x,y,z
_cell_length_a	17.639617
_cell_length_b	17.637651
_cell_length_c	19.805399
_cell_angle_alpha	78.757390
_cell_angle_beta	78.759384
_cell_angle_gamma	109.613464
loop_
_atom_site_label
_atom_site_type_symbol
_atom_site_fract_x
_atom_site_fract_y
_atom_site_fract_z
Zn1	Zn	1.193607	-0.073779	-0.576912
Zn2	Zn	1.165665	-0.211636	-0.434992
Zn3	Zn	1.055789	-0.101627	-0.435013
Zn4	Zn	1.027920	-0.239406	-0.519442
O5	O	1.110745	-0.156612	-0.491590
O6	O	1.305224	-0.068789	-0.582129
O7	O	1.151059	-0.197076	-0.340267
O8	O	1.097427	0.017422	-0.477897
O9	O	1.284696	-0.170072	-0.477861
O10	O	1.198681	0.037882	-0.582150
O11	O	1.070334	-0.116253	-0.340283
O12	O	0.936768	-0.143180	-0.422170
O13	O	1.049929	-0.217402	-0.621793
O14	O	0.916293	-0.244406	-0.484199
O15	O	1.171658	-0.095717	-0.664016
O16	O	1.124036	-0.330674	-0.422134
O17	O	1.022835	-0.351076	-0.484179
C18	C	0.896628	-0.199829	-0.446951
C19	C	0.805024	-0.218337	-0.427866
C20	C	0.557071	-0.015989	-0.636747
C21	C	0.470991	-0.033401	-0.618796
C22	C	0.449672	-0.138692	-0.510133
C23	C	0.535751	-0.121291	-0.528077
C24	C	0.589445	-0.059938	-0.591384
C25	C	0.568125	-0.165241	-0.482714
C26	C	0.654198	-0.147839	-0.500655
C27	C	0.707897	-0.086487	-0.563958
C28	C	0.675517	-0.042536	-0.609325
C29	C	0.514431	-0.226590	-0.419404
C30	C	0.546805	-0.270539	-0.374042
C31	C	0.632878	-0.253142	-0.391985
C32	C	0.686577	-0.191790	-0.455288
C33	C	0.665257	-0.297092	-0.346618
C34	C	0.751330	-0.279690	-0.364559
C35	C	0.772650	-0.174387	-0.473229
C36	C	1.067402	-0.370781	-0.446937
C37	C	1.048935	-0.462388	-0.427873
C38	C	1.251572	-0.710159	-0.636744
C39	C	1.234193	-0.796243	-0.618813
C40	C	1.128828	-0.817641	-0.510186
C41	C	1.146200	-0.731557	-0.528106
C42	C	1.207573	-0.677822	-0.591386
C43	C	1.102201	-0.699220	-0.482748
C44	C	1.119570	-0.613143	-0.500669
C45	C	1.180937	-0.559404	-0.563948
C46	C	1.224941	-0.591745	-0.609307
C47	C	1.040825	-0.752957	-0.419471
C48	C	0.996825	-0.720620	-0.374113
C49	C	1.014198	-0.634541	-0.392031
C50	C	1.075566	-0.580801	-0.455310
C51	C	0.970194	-0.602199	-0.346672
C52	C	0.987563	-0.516123	-0.364592
C53	C	1.092934	-0.494725	-0.473231
C54	C	1.325698	-0.113227	-0.536403
C55	C	1.417298	-0.094738	-0.555500
C56	C	1.110802	-0.156551	-0.668153
C57	C	1.110826	-0.156524	-0.743394
C58	C	1.154280	0.058398	-0.536436
C59	C	1.172832	0.150022	-0.555547
C60	C	1.174212	-0.093160	-0.800726
C61	C	1.174225	-0.093134	-0.871421
C62	C	1.110855	-0.156477	-0.884783
C63	C	1.047463	-0.219845	-0.827444
C64	C	1.047447	-0.219867	-0.756751
C65	C	1.047525	-0.219759	-1.112543
C66	C	1.047547	-0.219734	-1.183244
C67	C	1.174303	-0.093027	-1.227214
C68	C	1.174287	-0.093048	-1.156520
C69	C	1.110893	-0.156413	-1.099188
C70	C	1.110878	-0.156439	-1.022532
C71	C	1.110872	-0.156455	-0.961437
C72	C	1.110748	-0.156604	-0.315736
C73	C	1.110930	-0.156365	-0.240577
H74	H	0.719238	0.007421	-0.660878
C75	C	1.021715	-0.847640	-0.399755
H76	H	0.978855	-0.875013	-0.355577
H77	H	1.070979	-0.856350	-0.395124
H78	H	1.003505	-0.869975	-0.436399
C79	C	0.390605	-0.206178	-0.440501
H80	H	0.334705	-0.210253	-0.436315
H81	H	0.407144	-0.191202	-0.400504
H82	H	0.393517	-0.258725	-0.441736
H83	H	1.225892	-0.041470	-1.145647
C84	C	0.977781	-0.289444	-1.049488
H85	H	0.940044	-0.327163	-1.067573
H86	H	0.948260	-0.265147	-1.021015
H87	H	1.002007	-0.319022	-1.020977
C88	C	0.929324	-0.779731	-0.304507
H89	H	0.925285	-0.835626	-0.300327
H90	H	0.876784	-0.776835	-0.305753
H91	H	0.944274	-0.763202	-0.264494
H92	H	0.816370	-0.124431	-0.524782
H93	H	1.225920	-0.041429	-1.273903
H94	H	0.995863	-0.271418	-0.838329
H95	H	0.621529	-0.347040	-0.295070
C96	C	0.487738	-0.338026	-0.304410
H97	H	0.431838	-0.342100	-0.300224
H98	H	0.504277	-0.323050	-0.264413
H99	H	0.490650	-0.390573	-0.305645
C100	C	0.977832	-0.289410	-1.197940
H101	H	0.940069	-0.327146	-1.153670
H102	H	1.002087	-0.318958	-1.224598
H103	H	0.948321	-0.265103	-1.224610
C104	C	1.319065	-0.651049	-0.706362
H105	H	1.342777	-0.682635	-0.730816
H106	H	1.361773	-0.610198	-0.694993
H107	H	1.294266	-0.623858	-0.736235
C108	C	1.282604	-0.831809	-0.668707
H109	H	1.321646	-0.787475	-0.708956
H110	H	1.244285	-0.871761	-0.684608
H111	H	1.311761	-0.858123	-0.643335
C112	C	0.616138	0.051493	-0.706387
H113	H	0.584532	0.075179	-0.730837
H114	H	0.643344	0.026702	-0.736250
H115	H	0.656971	0.094239	-0.695033
C116	C	1.243919	-0.023484	-0.786030
H117	H	1.234838	-0.032574	-0.735717
H118	H	1.243076	0.029471	-0.806654
H119	H	1.296852	-0.024374	-0.806647
C120	C	0.977739	-0.289584	-0.693686
H121	H	0.940008	-0.327315	-0.711767
H122	H	0.948201	-0.265325	-0.665185
H123	H	1.002007	-0.319139	-0.665204
C124	C	0.902687	-0.661313	-0.277070
H125	H	0.898647	-0.717208	-0.272892
H126	H	0.850149	-0.658414	-0.278320
H127	H	0.917630	-0.644791	-0.237052
C128	C	0.939169	-0.480544	-0.314703
H129	H	0.958299	-0.421585	-0.334444
H130	H	0.948412	-0.492229	-0.268814
H131	H	0.880934	-0.505862	-0.310085
C132	C	1.292434	-0.532635	-0.678925
H133	H	1.316146	-0.564222	-0.703379
H134	H	1.335142	-0.491784	-0.667557
H135	H	1.267635	-0.505445	-0.708798
C136	C	1.243953	-0.023437	-0.934483
H137	H	1.281698	0.014278	-0.916400
H138	H	1.219713	0.006131	-0.962980
H139	H	1.273481	-0.047722	-0.962969
H140	H	0.777983	-0.072316	-0.578562
H141	H	1.078856	-0.861404	-0.458664
H142	H	0.444638	0.002397	-0.655737
C143	C	1.200047	-0.464720	-0.583666
H144	H	1.242894	-0.437352	-0.627852
H145	H	1.218256	-0.442380	-0.547028
H146	H	1.150777	-0.456016	-0.588298
C147	C	0.786943	-0.328042	-0.314668
H148	H	0.742636	-0.367082	-0.274400
H149	H	0.826894	-0.289685	-0.298795
H150	H	0.813258	-0.357206	-0.340029
H151	H	0.444349	-0.240738	-0.404788
H152	H	1.142916	-0.450970	-0.524756
