data_functionalizedCrystal
_audit_creation_method	'MofGen! by Chris Wilmer'
_symmetry_space_group_name_H-M	'P1'
_symmetry_Int_Tables_number	1
_symmetry_cell_setting	triclinic
loop_
_symmetry_equiv_pos_as_xyz
  x,y,z
_cell_length_a	13.635800
_cell_length_b	17.982723
_cell_length_c	17.982968
_cell_angle_alpha	84.069762
_cell_angle_beta	102.451960
_cell_angle_gamma	77.552436
loop_
_atom_site_label
_atom_site_type_symbol
_atom_site_fract_x
_atom_site_fract_y
_atom_site_fract_z
V1	V	2.004959	-0.106128	0.237875
O2	O	2.001517	0.004365	0.233013
O3	O	1.978235	-0.209727	0.236568
O4	O	1.978245	-0.104817	0.341474
O5	O	2.001508	-0.101270	0.127382
V6	V	2.247426	-0.092873	0.224620
O7	O	2.134041	-0.135202	0.266950
O8	O	2.343443	-0.063799	0.195544
O9	O	2.162547	0.010726	0.225926
O10	O	2.309566	-0.203367	0.229481
O11	O	2.309576	-0.097731	0.335113
O12	O	2.162537	-0.094184	0.121021
V13	V	2.504959	-0.106128	0.237875
O14	O	2.501517	0.004365	0.233013
O15	O	2.478235	-0.209727	0.236568
O16	O	2.478245	-0.104817	0.341474
O17	O	2.501508	-0.101270	0.127382
V18	V	2.747426	-0.092873	0.224620
O19	O	2.634041	-0.135202	0.266950
O20	O	2.843443	-0.063799	0.195544
O21	O	2.662547	0.010726	0.225926
O22	O	2.809566	-0.203367	0.229481
O23	O	2.809576	-0.097731	0.335113
O24	O	2.662537	-0.094184	0.121021
C25	C	1.900203	-0.234972	0.232898
C26	C	1.918980	-0.319668	0.232521
C27	C	2.125138	-0.843438	0.233974
C28	C	2.107490	-0.763858	0.234332
C29	C	2.007798	-0.720179	0.230698
C30	C	1.925746	-0.756083	0.226698
C31	C	1.943392	-0.835662	0.226334
C32	C	1.854575	-0.435153	0.228163
C33	C	1.836935	-0.355570	0.228529
C34	C	2.018673	-0.363349	0.236160
C35	C	2.036320	-0.442927	0.235797
C36	C	1.954266	-0.478824	0.231793
C37	C	1.973402	-0.565114	0.231403
C38	C	1.988662	-0.633891	0.231093
C39	C	1.900215	-0.101149	0.366715
C40	C	1.918998	-0.100763	0.451410
C41	C	2.072250	0.035967	0.229594
C42	C	2.043092	0.120662	0.229976
C43	C	2.072238	-0.097855	0.095776
C44	C	2.043075	-0.098237	0.011080
C45	C	2.400203	-0.234972	0.232898
C46	C	2.418980	-0.319668	0.232521
C47	C	2.400215	-0.101149	0.366715
C48	C	2.418998	-0.100763	0.451410
C49	C	2.018689	-0.104400	0.495092
C50	C	2.036332	-0.104037	0.574672
C51	C	1.954283	-0.100043	0.610568
C52	C	1.854583	-0.096403	0.566879
C53	C	1.836940	-0.096761	0.487300
C54	C	1.925732	-0.094960	0.887811
C55	C	1.943383	-0.094606	0.967397
C56	C	2.125123	-0.102236	0.975183
C57	C	2.107481	-0.102594	0.895605
C58	C	2.007782	-0.098951	0.851922
C59	C	1.988652	-0.099343	0.765632
C60	C	1.973413	-0.099656	0.696857
C61	C	2.572250	0.035967	0.229594
C62	C	2.543092	0.120662	0.229976
C63	C	2.572238	-0.097855	0.095776
C64	C	2.543075	-0.098237	0.011080
C65	C	2.518675	-0.363339	0.236162
C66	C	2.536335	-0.442922	0.235819
C67	C	2.454296	-0.478832	0.231830
C68	C	2.354593	-0.435156	0.228190
C69	C	2.336936	-0.355576	0.228539
C70	C	2.518694	-0.104392	0.495078
C71	C	2.536354	-0.104020	0.574657
C72	C	2.454318	-0.100024	0.610566
C73	C	2.354613	-0.096392	0.566891
C74	C	2.336953	-0.096759	0.487313
C75	C	2.615890	0.164332	0.226337
C76	C	2.588502	0.243915	0.226684
C77	C	2.488318	0.279825	0.230675
C78	C	2.415514	0.236150	0.234313
C79	C	2.442900	0.156570	0.233960
C80	C	2.442880	-0.102224	-0.024810
C81	C	2.415461	-0.102574	-0.104391
C82	C	2.488239	-0.098942	-0.148081
C83	C	2.588441	-0.094952	-0.112186
C84	C	2.615857	-0.094596	-0.032607
H85	H	2.206318	-0.878997	0.236937
H86	H	1.876563	-0.091351	0.996620
H87	H	2.465905	-0.099241	-0.212877
H88	H	1.844560	-0.092021	0.852259
H89	H	2.117499	-0.478488	0.238760
H90	H	1.876583	-0.864891	0.223086
H91	H	2.085483	-0.334112	0.239417
H92	H	2.383607	-0.105182	0.010752
H93	H	2.697447	-0.091354	-0.003391
H94	H	2.333942	0.265400	0.237562
H95	H	2.174303	-0.734633	0.237590
H96	H	1.844571	-0.720513	0.223734
H97	H	1.787777	-0.093147	0.596111
H98	H	1.755757	-0.093781	0.451731
H99	H	2.585486	-0.334111	0.239407
H100	H	1.755750	-0.320008	0.225570
H101	H	2.617523	-0.478472	0.238781
H102	H	2.287824	-0.093139	0.596141
H103	H	1.787757	-0.464369	0.224893
H104	H	2.383616	0.121018	0.236931
H105	H	2.466032	0.344625	0.230961
H106	H	2.287803	-0.464407	0.224942
H107	H	2.468688	-0.543633	0.231546
H108	H	2.085506	-0.107657	0.465873
H109	H	2.117508	-0.106994	0.610235
H110	H	2.174296	-0.105850	0.866383
H111	H	2.255751	-0.320024	0.225569
H112	H	2.333867	-0.105823	-0.133605
H113	H	2.585505	-0.107648	0.465852
H114	H	2.617546	-0.106980	0.610207
H115	H	2.468712	-0.099726	0.675365
H116	H	2.697471	0.135105	0.223087
H117	H	2.255768	-0.093805	0.451764
H118	H	2.206304	-0.105200	1.010759
H119	H	2.647796	0.279465	0.223723
H120	H	2.647689	-0.091992	-0.147770
