data_functionalizedCrystal
_audit_creation_method	'MofGen! by Chris Wilmer'
_symmetry_space_group_name_H-M	'P1'
_symmetry_Int_Tables_number	1
_symmetry_cell_setting	triclinic
loop_
_symmetry_equiv_pos_as_xyz
  x,y,z
_cell_length_a	12.759401
_cell_length_b	12.827892
_cell_length_c	12.759393
_cell_angle_alpha	90.029782
_cell_angle_beta	90.020938
_cell_angle_gamma	90.016917
loop_
_atom_site_label
_atom_site_type_symbol
_atom_site_fract_x
_atom_site_fract_y
_atom_site_fract_z
Zn1	Zn	1.606261	-0.415940	0.594025
Zn2	Zn	1.606150	-0.590717	0.418348
Zn3	Zn	1.430560	-0.415996	0.418361
Zn4	Zn	1.430550	-0.590644	0.593985
O5	O	1.518380	-0.503324	0.506180
O6	O	1.753268	-0.439132	0.570733
O7	O	1.582816	-0.567594	0.271328
O8	O	1.453918	-0.269752	0.441685
O9	O	1.753186	-0.567540	0.441663
O10	O	1.583005	-0.269711	0.570745
O11	O	1.453810	-0.439227	0.271338
O12	O	1.283538	-0.439156	0.441646
O13	O	1.453900	-0.567416	0.741011
O14	O	1.283530	-0.567469	0.570676
O15	O	1.582995	-0.439061	0.741041
O16	O	1.582806	-0.736944	0.441624
O17	O	1.453793	-0.736890	0.570664
C18	C	1.245413	-0.503312	0.506159
C19	C	1.128636	-0.503331	0.506175
C20	C	1.073798	-0.570246	0.573255
C21	C	0.964074	-0.570250	0.573276
C22	C	0.964036	-0.436422	0.439127
C23	C	1.073758	-0.436413	0.439112
C24	C	0.814177	-0.607747	0.697137
C25	C	0.759335	-0.674678	0.764208
C26	C	0.794932	-0.776661	0.780157
C27	C	0.885369	-0.811735	0.729020
C28	C	0.940205	-0.744809	0.661941
C29	C	0.904610	-0.642811	0.646012
C30	C	1.223657	-0.398927	0.315250
C31	C	1.278495	-0.332006	0.248165
C32	C	1.242901	-0.230021	0.232205
C33	C	1.152461	-0.194951	0.283324
C34	C	1.097622	-0.261872	0.350409
C35	C	1.133224	-0.363856	0.366370
C36	C	1.518315	-0.774834	0.506161
C37	C	1.518383	-0.890987	0.506188
C38	C	1.582298	-0.942764	0.442406
C39	C	1.582370	-1.062814	0.442433
C40	C	1.792414	-0.503338	0.506201
C41	C	1.909190	-0.503344	0.506210
C42	C	1.518459	-0.503224	0.780213
C43	C	1.518492	-0.503181	0.896990
C44	C	1.518475	-0.230754	0.506221
C45	C	1.518515	-0.114601	0.506239
C46	C	1.518363	-0.503349	0.233212
C47	C	1.518533	-0.503097	0.116436
C48	C	1.585717	-0.436336	0.951869
C49	C	1.585735	-0.436291	1.061593
C50	C	1.451301	-0.569945	1.061549
C51	C	1.451278	-0.569984	0.951827
C52	C	1.623348	-0.312997	1.211570
C53	C	1.690589	-0.246161	1.266452
C54	C	1.793102	-0.230136	1.230861
C55	C	1.828395	-0.280963	1.140388
C56	C	1.761160	-0.347806	1.085511
C57	C	1.658632	-0.363811	1.121101
C58	C	1.413676	-0.693280	0.801849
C59	C	1.346445	-0.760130	0.746969
C60	C	1.243930	-0.776165	0.782559
C61	C	1.208641	-0.725357	0.873035
C62	C	1.275872	-0.658507	0.927914
C63	C	1.378385	-0.642470	0.892317
H64	H	1.118476	-0.624732	0.627864
F65	F	0.776296	-0.499198	0.680183
H66	H	1.375190	-0.801510	0.673306
H67	H	1.911875	-0.267917	1.111422
F68	F	1.379774	-0.641041	1.119920
F69	F	1.114569	-0.086409	0.266332
H70	H	1.125166	-0.738417	0.902016
F71	F	0.905622	-0.365208	0.367757
H72	H	1.352136	-0.360569	0.206540
H73	H	1.023986	-0.233307	0.392040
H74	H	1.252653	-0.481969	0.328248
H75	H	1.287555	-0.175538	0.177569
F76	F	1.522775	-0.676191	0.763945
H77	H	1.247131	-0.617137	1.001585
F78	F	1.446981	-1.056412	0.577613
F79	F	1.446931	-0.949210	0.577596
H80	H	1.640444	-0.381938	0.907224
H81	H	1.636970	-0.898218	0.387783
H82	H	1.847850	-0.175716	1.275554
F83	F	1.653891	-1.121010	0.371050
F84	F	1.798715	-0.401899	0.989230
F85	F	1.172386	-0.847332	0.724159
H86	H	1.013836	-0.773365	0.620305
F87	F	1.514236	-0.330034	1.249448
F88	F	0.663091	-0.637346	0.818634
H89	H	0.914338	-0.894784	0.742002
H90	H	0.750272	-0.831157	0.834769
H91	H	1.661844	-0.204778	1.340116
