data_functionalizedCrystal
_audit_creation_method	'MofGen! by Chris Wilmer'
_symmetry_space_group_name_H-M	'P1'
_symmetry_Int_Tables_number	1
_symmetry_cell_setting	triclinic
loop_
_symmetry_equiv_pos_as_xyz
  x,y,z
_cell_length_a	10.654550
_cell_length_b	14.750779
_cell_length_c	10.654551
_cell_angle_alpha	102.765272
_cell_angle_beta	84.485180
_cell_angle_gamma	77.230523
loop_
_atom_site_label
_atom_site_type_symbol
_atom_site_fract_x
_atom_site_fract_y
_atom_site_fract_z
O1	O	1.640842	0.079751	0.203385
O2	O	1.275358	0.079768	0.220197
O3	O	1.466503	0.079757	0.029051
O4	O	1.449697	0.079762	0.394531
O5	O	1.520537	-0.079896	-0.024978
O6	O	1.329392	-0.079885	0.166168
O7	O	1.694876	-0.079903	0.149356
Zn8	Zn	1.520713	-0.105242	0.149184
Zn9	Zn	1.449521	0.105108	0.220369
O10	O	1.503731	-0.079891	0.340502
C11	C	1.255576	-0.000056	0.191949
C12	C	1.116131	-0.000050	0.188259
C13	C	1.036646	-0.000051	0.300800
C14	C	0.905631	-0.000068	0.297318
C15	C	0.933597	-0.000078	0.068745
C16	C	1.064612	-0.000068	0.072226
N17	N	1.569310	-0.248801	0.100601
C18	C	1.265211	-0.600601	0.404570
C19	C	1.299274	-0.701102	0.370535
C20	C	1.468568	-0.701075	0.201339
C21	C	1.434516	-0.600572	0.235356
C22	C	1.332837	-0.550343	0.336973
C23	C	1.502142	-0.550313	0.167759
C24	C	1.468096	-0.449819	0.201778
C25	C	1.366425	-0.399583	0.303394
C26	C	1.298792	-0.449849	0.370992
C27	C	1.603826	-0.600544	0.066147
C28	C	1.671453	-0.550286	-0.001450
C29	C	1.637401	-0.449790	0.032563
C30	C	1.535729	-0.399554	0.134179
C31	C	1.705034	-0.399524	-0.035036
C32	C	1.670988	-0.299030	-0.001017
C33	C	1.501684	-0.299059	0.168198
C34	C	1.714657	-0.000076	0.177604
C35	C	1.854101	-0.000076	0.181296
C36	C	1.492286	-0.000068	-0.044761
C37	C	1.488591	-0.000063	-0.184203
N38	N	1.400934	0.248667	0.268942
C39	C	1.457404	0.086965	-0.220255
C40	C	1.453923	0.086966	-0.351275
C41	C	1.512826	-0.087097	-0.410182
C42	C	1.516297	-0.087097	-0.279163
C43	C	1.477948	-0.000064	0.414314
C44	C	1.481640	-0.000062	0.553758
H45	H	1.418878	-0.258161	0.250936
Br46	Br	1.550422	-0.205209	-0.539062
H47	H	1.129333	-0.000070	-0.019425
Br48	Br	1.843039	-0.467701	-0.172924
H49	H	1.338710	-0.317754	0.331095
H50	H	1.244196	-0.742018	0.425591
H51	H	1.215986	-0.408950	0.453731
Br52	Br	1.606563	-0.769248	0.063438
H53	H	1.078591	-0.000043	0.395279
Br54	Br	1.419799	0.205081	-0.091384
H55	H	1.754244	-0.591194	-0.084185
H56	H	0.840920	-0.000071	0.388960
Br57	Br	0.863668	-0.000099	-0.088719
H58	H	1.182405	-0.559703	0.487309
Br59	Br	1.762777	-0.230819	-0.092751
Br60	Br	1.411588	0.205081	-0.400197
Br61	Br	1.558606	-0.205216	-0.230227
H62	H	1.631546	-0.682373	0.038457
