data_functionalizedCrystal
_audit_creation_method	'MofGen! by Chris Wilmer'
_symmetry_space_group_name_H-M	'P1'
_symmetry_Int_Tables_number	1
_symmetry_cell_setting	triclinic
loop_
_symmetry_equiv_pos_as_xyz
  x,y,z
_cell_length_a	21.295420
_cell_length_b	21.395361
_cell_length_c	21.295420
_cell_angle_alpha	89.980988
_cell_angle_beta	89.992398
_cell_angle_gamma	90.024750
loop_
_atom_site_label
_atom_site_type_symbol
_atom_site_fract_x
_atom_site_fract_y
_atom_site_fract_z
Zn1	Zn	-0.962242	0.249626	0.355931
Zn2	Zn	-0.462242	0.749626	0.855931
Zn3	Zn	-0.962177	0.354381	0.250656
Zn4	Zn	-0.462177	0.854381	0.750656
Zn5	Zn	-0.856998	0.249611	0.250674
Zn6	Zn	-0.356998	0.749611	0.750674
Zn7	Zn	-0.856934	0.354359	0.355886
Zn8	Zn	-0.356934	0.854359	0.855886
O9	O	-0.909588	0.301994	0.303287
O10	O	-0.409588	0.801994	0.803287
O11	O	-1.050322	0.263538	0.341978
O12	O	-0.550322	0.763538	0.841978
O13	O	-0.948225	0.340486	0.162569
O14	O	-0.448225	0.840486	0.662569
O15	O	-0.871013	0.161935	0.264663
O16	O	-0.371013	0.661935	0.764663
O17	O	-1.050275	0.340501	0.264633
O18	O	-0.550275	0.840501	0.764633
O19	O	-0.948335	0.161946	0.341995
O20	O	-0.448335	0.661946	0.841995
O21	O	-0.870950	0.263512	0.162582
O22	O	-0.370950	0.763512	0.662582
O23	O	-0.768900	0.263490	0.264619
O24	O	-0.268900	0.763490	0.764619
O25	O	-0.870903	0.340463	0.443981
O26	O	-0.370903	0.840463	0.943981
O27	O	-0.768853	0.340448	0.341918
O28	O	-0.268853	0.840448	0.841918
O29	O	-0.948272	0.263516	0.444014
O30	O	-0.448272	0.763516	0.944014
O31	O	-0.948162	0.442056	0.264589
O32	O	-0.448162	0.942056	0.764589
O33	O	-0.870841	0.442040	0.341901
O34	O	-0.370841	0.942040	0.841901
C35	C	-0.746036	0.301965	0.303266
C36	C	-0.246036	0.801965	0.803266
C37	C	-0.676068	0.301968	0.303272
C38	C	-0.176068	0.801968	0.803272
C39	C	-0.909505	0.464782	0.303252
C40	C	-0.409505	0.964782	0.803252
C41	C	-0.909527	0.534423	0.303258
C42	C	-0.409527	1.034423	0.803258
C43	C	-0.176634	0.261992	0.343620
C44	C	0.323366	0.761992	0.843620
C45	C	-0.242377	0.261989	0.343622
C46	C	0.257623	0.761989	0.843622
C47	C	-0.275229	0.301994	0.303289
C48	C	0.224771	0.801994	0.803289
C49	C	-0.242333	0.342016	0.262963
C50	C	0.257667	0.842016	0.762963
C51	C	-0.176591	0.342022	0.262967
C52	C	0.323409	0.842022	0.762967
N53	N	-0.378436	0.306708	0.248171
N54	N	0.121564	0.806708	0.748171
N55	N	-0.440887	0.306699	0.248169
N56	N	0.059113	0.806699	0.748169
C57	C	-0.473303	0.301980	0.303274
C58	C	0.026697	0.801980	0.803274
N59	N	-0.440909	0.297258	0.358383
N60	N	0.059091	0.797258	0.858383
N61	N	-0.378451	0.297264	0.358385
N62	N	0.121549	0.797264	0.858385
C63	C	-0.346514	0.301993	0.303280
C64	C	0.153486	0.801993	0.803280
C65	C	-0.577477	0.261960	0.343602
C66	C	-0.077477	0.761960	0.843602
C67	C	-0.643221	0.261962	0.343604
C68	C	-0.143221	0.761962	0.843604
C69	C	-0.643175	0.341986	0.262940
C70	C	-0.143175	0.841986	0.762940
C71	C	-0.577433	0.341987	0.262943
C72	C	-0.077433	0.841987	0.762943
C73	C	-0.544588	0.301971	0.303273
C74	C	-0.044588	0.801971	0.803273
C75	C	-0.909588	0.301989	0.467477
C76	C	-0.409588	0.801989	0.967477
C77	C	-0.909588	0.301986	0.537445
C78	C	-0.409588	0.801986	1.037445
C79	C	-0.073778	0.302016	0.303303
C80	C	0.426222	0.802016	0.803303
C81	C	-0.143746	0.302006	0.303297
C82	C	0.356254	0.802006	0.803297
C83	C	-0.909688	0.138571	0.303336
C84	C	-0.409688	0.638571	0.803336
C85	C	-0.909731	0.068930	0.303357
C86	C	-0.409731	0.568930	0.803357
C87	C	-0.949824	0.567124	0.263043
C88	C	-0.449824	1.067124	0.763043
C89	C	-0.949853	0.632560	0.263057
C90	C	-0.449853	1.132560	0.763057
C91	C	-0.909574	0.665292	0.303279
C92	C	-0.409574	1.165292	0.803279
C93	C	-0.869274	0.632583	0.343502
C94	C	-0.369274	1.132583	0.843502
C95	C	-0.869250	0.567149	0.343491
C96	C	-0.369250	1.067149	0.843491
C97	C	-0.852893	0.769001	0.308211
C98	C	-0.352893	1.269001	0.808211
C99	C	-0.852916	0.834434	0.308218
C100	C	-0.352916	1.334434	0.808218
C101	C	-0.909647	0.867112	0.303316
C102	C	-0.409647	1.367112	0.803316
C103	C	-0.966358	0.834350	0.298396
C104	C	-0.466358	1.334350	0.798396
C105	C	-0.966334	0.768915	0.298385
C106	C	-0.466334	1.268915	0.798385
C107	C	-0.909595	0.736244	0.303296
C108	C	-0.409595	1.236244	0.803296
C109	C	-0.949979	0.970766	0.263115
C110	C	-0.449979	1.470766	0.763115
C111	C	-0.950010	1.036202	0.263133
C112	C	-0.450010	1.536202	0.763133
C113	C	-0.869425	1.036224	0.343575
C114	C	-0.369425	1.536224	0.843575
C115	C	-0.869401	0.970789	0.343560
C116	C	-0.369401	1.470789	0.843560
C117	C	-0.909677	0.938064	0.303326
C118	C	-0.409677	1.438064	0.803326
C119	C	-0.949846	0.261927	1.036921
C120	C	-0.449846	0.761927	1.536921
C121	C	-0.949853	0.261928	0.971179
C122	C	-0.449853	0.761928	1.471179
C123	C	-0.909572	0.301989	0.938285
C124	C	-0.409572	0.801989	1.438285
C125	C	-0.869293	0.342063	0.971138
C126	C	-0.369293	0.842063	1.471138
C127	C	-0.869292	0.342065	1.036880
C128	C	-0.369292	0.842065	1.536880
N129	N	-0.854469	0.306782	0.835055
N130	N	-0.354469	0.806782	1.335055
N131	N	-0.854472	0.306777	0.772603
N132	N	-0.354472	0.806777	1.272603
C133	C	-0.909574	0.301986	0.740210
C134	C	-0.409574	0.801986	1.240210
N135	N	-0.964674	0.297189	0.772627
N136	N	-0.464674	0.797189	1.272627
N137	N	-0.964671	0.297191	0.835084
N138	N	-0.464671	0.797191	1.335084
C139	C	-0.909569	0.301991	0.866999
C140	C	-0.409569	0.801991	1.366999
C141	C	-0.949861	0.261919	0.636079
C142	C	-0.449861	0.761919	1.136079
C143	C	-0.949868	0.261925	0.570335
C144	C	-0.449868	0.761925	1.070335
C145	C	-0.869303	0.342056	0.570296
C146	C	-0.369303	0.842056	1.070296
C147	C	-0.869301	0.342053	0.636038
C148	C	-0.369301	0.842053	1.136038
C149	C	-0.909579	0.301982	0.668926
C150	C	-0.409579	0.801982	1.168926
C151	C	-0.909580	0.302008	1.139735
C152	C	-0.409580	0.802008	1.639735
C153	C	-0.909570	0.301993	1.069767
C154	C	-0.409570	0.801993	1.569767
H155	H	-0.149895	0.229410	0.376463
H156	H	0.350105	0.729410	0.876463
H157	H	-0.836508	0.374676	0.543514
H158	H	-0.336508	0.874676	1.043514
O159	O	-0.675073	0.223031	0.382796
O160	O	-0.175073	0.723031	0.882796
C161	C	-0.631982	0.187726	0.418401
C162	C	-0.131982	0.687726	0.918401
H163	H	-0.585116	0.185524	0.392623
H164	H	-0.085116	0.685524	0.892623
H165	H	-0.624989	0.210735	0.466171
H166	H	-0.124989	0.710735	0.966171
C167	C	-0.715228	0.123757	0.459248
C168	C	-0.215228	0.623757	0.959248
C169	C	-0.657667	0.121049	0.427584
C170	C	-0.157667	0.621049	0.927584
H171	H	-0.731072	0.082628	0.464915
H172	H	-0.231072	0.582628	0.964915
H173	H	-0.744260	0.147544	0.435262
H174	H	-0.244260	0.647544	0.935262
H175	H	-0.709393	0.142934	0.499053
H176	H	-0.209393	0.642934	0.999053
H177	H	-0.663504	0.101879	0.387777
H178	H	-0.163504	0.601879	0.887777
H179	H	-0.628637	0.097257	0.451563
H180	H	-0.128637	0.597257	0.951563
O181	O	-1.021452	0.737159	0.293525
O182	O	-0.521452	1.237159	0.793525
C183	C	-1.051289	0.753137	0.236644
C184	C	-0.551289	1.253137	0.736644
H185	H	-1.033625	0.800669	0.220079
H186	H	-0.533625	1.300669	0.720079
H187	H	-1.040141	0.716336	0.199584
H188	H	-0.540141	1.216336	0.699584
C189	C	-1.144497	0.697714	0.267298
C190	C	-0.644497	1.197714	0.767298
C191	C	-1.122806	0.756097	0.246954
C192	C	-0.622806	1.256097	0.746954
H193	H	-1.188612	0.699538	0.273656
H194	H	-0.688612	1.199538	0.773656
H195	H	-1.124395	0.686948	0.305618
H196	H	-0.624395	1.186948	0.805618
H197	H	-1.135202	0.667053	0.236411
H198	H	-0.635202	1.167053	0.736411
H199	H	-1.132095	0.786755	0.277844
H200	H	-0.632095	1.286755	0.777844
H201	H	-1.142911	0.766869	0.208639
H202	H	-0.642911	1.266869	0.708639
H203	H	-1.012555	0.860955	0.294405
H204	H	-0.512555	1.360955	0.794405
H205	H	-0.982828	1.062826	0.230386
H206	H	-0.482828	1.562826	0.730386
O207	O	-0.797749	0.737326	0.313064
O208	O	-0.297749	1.237326	0.813064
C209	C	-0.767930	0.753299	0.369952
C210	C	-0.267930	1.253299	0.869952
H211	H	-0.785629	0.800789	0.386526
H212	H	-0.285629	1.300789	0.886526
H213	H	-0.779058	0.716448	0.407002
H214	H	-0.279058	1.216448	0.907002
C215	C	-0.674680	0.698048	0.339297
C216	C	-0.174680	1.198048	0.839297
C217	C	-0.696414	0.756378	0.359652
C218	C	-0.196414	1.256378	0.859652
H219	H	-0.630566	0.699944	0.332945
H220	H	-0.130566	1.199944	0.832945
H221	H	-0.694770	0.687284	0.300972
H222	H	-0.194770	1.187284	0.800972
H223	H	-0.683959	0.667344	0.370175
H224	H	-0.183959	1.167344	0.870175
H225	H	-0.687143	0.787079	0.328770
H226	H	-0.187143	1.287079	0.828770
H227	H	-0.676321	0.767147	0.397972
H228	H	-0.176321	1.267147	0.897972
H229	H	-0.550655	0.374569	0.230105
H230	H	-0.050655	0.874569	0.730105
H231	H	-0.982670	0.659190	0.230309
H232	H	-0.482670	1.159190	0.730309
H233	H	-0.269159	0.229402	0.376457
H234	H	0.230841	0.729402	0.876457
O235	O	-0.989012	0.535433	0.223948
O236	O	-0.489012	1.035433	0.723948
C237	C	-1.024576	0.578333	0.188446
C238	C	-0.524576	1.078333	0.688446
H239	H	-1.026747	0.624963	0.214238
H240	H	-0.526747	1.124963	0.714238
H241	H	-1.001567	0.585331	0.140615
H242	H	-0.501567	1.085331	0.640615
C243	C	-1.088907	0.495480	0.147757
C244	C	-0.588907	0.995480	0.647757
C245	C	-1.091578	0.552750	0.179438
C246	C	-0.591578	1.052750	0.679438
H247	H	-1.130236	0.479699	0.142198
H248	H	-0.630236	0.979699	0.642198
H249	H	-1.064946	0.466576	0.171673
H250	H	-0.564946	0.966576	0.671673
H251	H	-1.069730	0.501319	0.107901
H252	H	-0.569730	1.001319	0.607901
H253	H	-1.110747	0.546909	0.219295
H254	H	-0.610747	1.046909	0.719295
H255	H	-1.115544	0.581652	0.155528
H256	H	-0.615544	1.081652	0.655528
O257	O	-0.988900	0.222936	0.668059
O258	O	-0.488900	0.722936	1.168059
C259	C	-0.953085	0.182472	0.706106
C260	C	-0.453085	0.682472	1.206106
H261	H	-0.903511	0.178591	0.686286
H262	H	-0.403511	0.678591	1.186286
H263	H	-0.950901	0.201845	0.755923
H264	H	-0.450901	0.701845	1.255923
C265	C	-1.044770	0.122112	0.731489
C266	C	-0.544770	0.622112	1.231489
C267	C	-0.983883	0.117340	0.707143
C268	C	-0.483883	0.617340	1.207143
H269	H	-1.063768	0.081936	0.732132
H270	H	-0.563768	0.581936	1.232132
H271	H	-1.068900	0.149374	0.705858
H272	H	-0.568900	0.649374	1.205858
H273	H	-1.042942	0.138259	0.773001
H274	H	-0.542942	0.638259	1.273001
H275	H	-0.985713	0.101201	0.665630
H276	H	-0.485713	0.601201	1.165630
H277	H	-0.959754	0.090074	0.732767
H278	H	-0.459754	0.590074	1.232767
H279	H	-0.836632	1.062874	0.376328
H280	H	-0.336632	1.562874	0.876328
O281	O	-0.274312	0.380907	0.223870
O282	O	0.225688	0.880907	0.723870
C283	C	-0.312322	0.421432	0.259635
C284	C	0.187678	0.921432	0.759635
H285	H	-0.322188	0.399401	0.307378
H286	H	0.177812	0.899401	0.807378
H287	H	-0.286973	0.467877	0.266470
H288	H	0.213027	0.967877	0.766470
C289	C	-0.362643	0.459776	0.166335
C290	C	0.137357	0.959776	0.666335
C291	C	-0.374764	0.432716	0.224973
C292	C	0.125236	0.932716	0.724973
H293	H	-0.401158	0.466740	0.144954
H294	H	0.098842	0.966740	0.644954
H295	H	-0.337033	0.432476	0.142239
H296	H	0.162967	0.932476	0.642239
H297	H	-0.341517	0.498478	0.172040
H298	H	0.158483	0.998478	0.672040
H299	H	-0.395882	0.394012	0.219268
H300	H	0.104118	0.894012	0.719268
H301	H	-0.400379	0.460010	0.249067
H302	H	0.099621	0.960010	0.749067
H303	H	-0.836480	0.659237	0.376253
H304	H	-0.336480	1.159237	0.876253
O305	O	-0.988909	0.222916	0.939290
O306	O	-0.488909	0.722916	1.439290
C307	C	-0.975192	0.160469	0.955385
C308	C	-0.475192	0.660469	1.455385
H309	H	-0.924906	0.157304	0.973456
H310	H	-0.424906	0.657304	1.473456
H311	H	-1.008952	0.144091	0.993551
H312	H	-0.508952	0.644091	1.493551
C313	C	-1.044292	0.122543	0.874803
C314	C	-0.544292	0.622543	1.374803
C315	C	-0.982529	0.118655	0.896993
C316	C	-0.482529	0.618655	1.396993
H317	H	-1.048821	0.096748	0.838786
H318	H	-0.548821	0.596748	1.338786
H319	H	-1.053536	0.164614	0.863961
H320	H	-0.553536	0.664614	1.363961
H321	H	-1.072419	0.108895	0.906614
H322	H	-0.572419	0.608895	1.406614
H323	H	-0.954404	0.132309	0.865186
H324	H	-0.454404	0.632309	1.365186
H325	H	-0.973281	0.076585	0.907829
H326	H	-0.473281	0.576585	1.407829
H327	H	-0.550733	0.229377	0.376441
H328	H	-0.050733	0.729377	0.876441
O329	O	-0.830112	0.380988	0.667851
O330	O	-0.330112	0.880988	1.167851
C331	C	-0.794570	0.416359	0.624723
C332	C	-0.294570	0.916359	1.124723
H333	H	-0.792407	0.390695	0.577869
H334	H	-0.292407	0.890695	1.077869
H335	H	-0.817594	0.463948	0.617718
H336	H	-0.317594	0.963948	1.117718
C337	C	-0.730225	0.456901	0.707914
C338	C	-0.230225	0.956901	1.207914
C339	C	-0.727563	0.425377	0.650368
C340	C	-0.227563	0.925377	1.150368
H341	H	-0.688893	0.462467	0.723733
H342	H	-0.188893	0.962467	1.223733
H343	H	-0.754171	0.433073	0.736971
H344	H	-0.254171	0.933073	1.236971
H345	H	-0.749414	0.496555	0.702069
H346	H	-0.249414	0.996555	1.202069
H347	H	-0.708381	0.385721	0.656215
H348	H	-0.208381	0.885721	1.156215
H349	H	-0.703612	0.449199	0.621313
H350	H	-0.203612	0.949199	1.121313
O351	O	-0.797838	0.866287	0.312888
O352	O	-0.297838	1.366287	0.812888
C353	C	-0.789785	0.904182	0.259308
C354	C	-0.289785	1.404182	0.759308
H355	H	-0.818690	0.884459	0.218847
H356	H	-0.318690	1.384459	0.718847
H357	H	-0.806103	0.953754	0.270178
H358	H	-0.306103	1.453754	0.770178
C359	C	-0.684396	0.929481	0.290447
C360	C	-0.184396	1.429481	0.790447
C361	C	-0.719894	0.905253	0.240751
C362	C	-0.219894	1.405253	0.740751
H363	H	-0.641284	0.930145	0.279001
H364	H	-0.141284	1.430145	0.779001
H365	H	-0.689822	0.903952	0.326547
H366	H	-0.189822	1.403952	0.826547
H367	H	-0.698002	0.970789	0.299501
H368	H	-0.198002	1.470789	0.799501
H369	H	-0.706294	0.863944	0.231703
H370	H	-0.206294	1.363944	0.731703
H371	H	-0.714464	0.930775	0.204649
H372	H	-0.214464	1.430775	0.704649
O373	O	-0.675177	0.380790	0.223782
O374	O	-0.175177	0.880790	0.723782
C375	C	-0.740255	0.372219	0.232438
C376	C	-0.240255	0.872219	0.732438
H377	H	-0.749256	0.323895	0.253139
H378	H	-0.249256	0.823895	0.753139
H379	H	-0.758902	0.409430	0.265893
H380	H	-0.258902	0.909430	0.765893
C381	C	-0.762939	0.437222	0.143308
C382	C	-0.262939	0.937222	0.643308
C383	C	-0.773995	0.377867	0.168729
C384	C	-0.273995	0.877867	0.668729
H385	H	-0.783753	0.440708	0.104011
H386	H	-0.283753	0.940708	0.604011
H387	H	-0.719095	0.442998	0.137478
H388	H	-0.219095	0.942998	0.637478
H389	H	-0.778479	0.468224	0.171194
H390	H	-0.278479	0.968224	0.671194
H391	H	-0.758449	0.346866	0.140847
H392	H	-0.258449	0.846866	0.640847
H393	H	-0.817838	0.372085	0.174554
H394	H	-0.317838	0.872085	0.674554
O395	O	-0.989016	0.222944	0.538524
O396	O	-0.489016	0.722944	1.038524
C397	C	-1.024573	0.187590	0.581652
C398	C	-0.524573	0.687590	1.081652
H399	H	-0.998788	0.185419	0.628511
H400	H	-0.498788	0.685419	1.128511
H401	H	-1.072370	0.210536	0.588646
H402	H	-0.572370	0.710536	1.088646
C403	C	-1.065350	0.123574	0.498465
C404	C	-0.565350	0.623574	0.998465
C405	C	-1.033677	0.120903	0.556016
C406	C	-0.533677	0.620903	1.056016
H407	H	-1.070968	0.082438	0.482652
H408	H	-0.570968	0.582438	0.982652
H409	H	-1.041396	0.147394	0.469408
H410	H	-0.541396	0.647394	0.969408
H411	H	-1.105177	0.142698	0.504301
H412	H	-0.605177	0.642698	1.004301
H413	H	-0.993847	0.101785	0.550179
H414	H	-0.493847	0.601785	1.050179
H415	H	-1.057624	0.097078	0.585072
H416	H	-0.557624	0.597078	1.085072
O417	O	-0.989163	0.939069	0.224016
O418	O	-0.489163	1.439069	0.724016
C419	C	-1.024731	0.981967	0.188515
C420	C	-0.524731	1.481967	0.688515
H421	H	-1.026911	1.028594	0.214312
H422	H	-0.526911	1.528594	0.714312
H423	H	-1.001718	0.988973	0.140687
H424	H	-0.501718	1.488973	0.640687
C425	C	-1.089045	0.899108	0.147813
C426	C	-0.589045	1.399108	0.647813
C427	C	-1.091728	0.956375	0.179499
C428	C	-0.591728	1.456375	0.679499
H429	H	-1.130371	0.883321	0.142248
H430	H	-0.630371	1.383321	0.642248
H431	H	-1.065082	0.870206	0.171728
H432	H	-0.565082	1.370206	0.671728
H433	H	-1.069866	0.904954	0.107960
H434	H	-0.569866	1.404954	0.607960
H435	H	-1.110900	0.950527	0.219354
H436	H	-0.610900	1.450527	0.719354
H437	H	-1.115696	0.985276	0.155590
H438	H	-0.615696	1.485276	0.655590
H439	H	-0.836584	0.944162	0.376304
H440	H	-0.336584	1.444162	0.876304
O441	O	-0.830043	0.535477	0.382576
O442	O	-0.330043	1.035477	0.882576
C443	C	-0.794510	0.578394	0.418097
C444	C	-0.294510	1.078394	0.918097
H445	H	-0.792368	0.625054	0.392321
H446	H	-0.292368	1.125054	0.892321
H447	H	-0.817527	0.585309	0.465928
H448	H	-0.317527	1.085309	0.965928
C449	C	-0.730127	0.495597	0.458761
C450	C	-0.230127	0.995597	0.958761
C451	C	-0.727492	0.552904	0.427100
C452	C	-0.227492	1.052904	0.927100
H453	H	-0.688788	0.479873	0.464317
H454	H	-0.188788	0.979873	0.964317
H455	H	-0.754068	0.466682	0.434832
H456	H	-0.254068	0.966682	0.934832
H457	H	-0.749311	0.501367	0.498617
H458	H	-0.249311	1.001367	0.998617
H459	H	-0.708316	0.547133	0.387242
H460	H	-0.208316	1.047133	0.887242
H461	H	-0.703547	0.581818	0.451023
H462	H	-0.203547	1.081818	0.951023
H463	H	-0.982646	0.229301	1.063694
H464	H	-0.482646	0.729301	1.563694
O465	O	-0.830254	0.381007	0.939115
O466	O	-0.330254	0.881007	1.439115
C467	C	-0.866076	0.421484	0.901089
C468	C	-0.366076	0.921484	1.401089
H469	H	-0.913793	0.399389	0.891260
H470	H	-0.413793	0.899389	1.391260
H471	H	-0.872967	0.467919	0.926406
H472	H	-0.372967	0.967919	1.426406
C473	C	-0.772833	0.459957	0.850702
C474	C	-0.272833	0.959957	1.350702
C475	C	-0.831438	0.432816	0.838625
C476	C	-0.331438	0.932816	1.338625
H477	H	-0.751466	0.466950	0.812172
H478	H	-0.251466	0.966950	1.312172
H479	H	-0.748699	0.432689	0.876322
H480	H	-0.248699	0.932689	1.376322
H481	H	-0.778584	0.498650	0.871801
H482	H	-0.278584	0.998650	1.371801
H483	H	-0.825687	0.394121	0.817534
H484	H	-0.325687	0.894121	1.317534
H485	H	-0.855571	0.460078	0.813000
H486	H	-0.355571	0.960078	1.313000
H487	H	-0.149814	0.374608	0.230130
H488	H	0.350186	0.874608	0.730130
H489	H	-0.836494	0.374692	1.063622
H490	H	-0.336494	0.874692	1.563622
