data_functionalizedCrystal
_audit_creation_method	'MofGen! by Chris Wilmer'
_symmetry_space_group_name_H-M	'P1'
_symmetry_Int_Tables_number	1
_symmetry_cell_setting	triclinic
loop_
_symmetry_equiv_pos_as_xyz
  x,y,z
_cell_length_a	10.654555
_cell_length_b	9.130313
_cell_length_c	10.654550
_cell_angle_alpha	89.995631
_cell_angle_beta	95.514047
_cell_angle_gamma	90.000876
loop_
_atom_site_label
_atom_site_type_symbol
_atom_site_fract_x
_atom_site_fract_y
_atom_site_fract_z
O1	O	-1.667836	-0.121710	0.176429
O2	O	-1.302358	-0.121732	0.193228
O3	O	-1.493500	-0.121711	0.002089
O4	O	-1.476694	-0.121731	0.367568
O5	O	-1.493487	0.121887	0.002084
O6	O	-1.302345	0.121866	0.193223
O7	O	-1.667823	0.121889	0.176423
Cu8	Cu	-1.485083	0.144120	0.184822
Cu9	Cu	-1.485098	-0.143964	0.184829
O10	O	-1.476681	0.121868	0.367562
C11	C	-1.255554	0.000064	0.191991
C12	C	-1.116111	0.000056	0.188296
C13	C	-1.492259	0.000087	-0.044711
C14	C	-1.488567	0.000085	-0.184155
C15	C	-0.919572	-0.132722	0.183097
C16	C	-1.050595	-0.132729	0.186561
C17	C	-1.050599	0.132856	0.186555
C18	C	-0.919580	0.132861	0.183082
N19	N	-1.485081	0.346743	0.184817
C20	C	-0.714627	0.000084	0.177662
C21	C	-0.854069	0.000068	0.181360
N22	N	-1.485110	-0.346586	0.184824
C23	C	-1.569747	0.423404	0.100217
C24	C	-1.569759	0.576741	0.100217
C25	C	-1.400434	0.576742	0.269429
C26	C	-1.400417	0.423408	0.269422
C27	C	-1.601109	0.000091	-0.263638
C28	C	-1.597632	0.000073	-0.394659
C29	C	-1.369063	0.000048	-0.366700
C30	C	-1.372541	0.000056	-0.235682
C31	C	-1.477921	0.000066	0.414363
C32	C	-1.481613	0.000059	0.553806
H33	H	-1.103922	-0.240860	0.187974
H34	H	-1.638684	0.360987	0.031325
H35	H	-1.695585	0.000111	-0.221690
H36	H	-1.280891	0.000046	-0.170962
H37	H	-1.103954	0.240972	0.187960
H38	H	-1.331505	0.639178	0.338314
H39	H	-1.331466	0.360986	0.338314
H40	H	-1.638701	0.639154	0.031326
O41	O	-0.848914	0.276090	0.181216
H42	H	-0.916474	0.368429	0.183018
H43	H	-0.866238	-0.240851	0.181694
O44	O	-1.719015	0.000098	-0.480393
H45	H	-1.800273	0.000134	-0.422546
O46	O	-1.243923	0.000049	-0.422274
H47	H	-1.260409	0.000066	-0.526733
