data_functionalizedCrystal
_audit_creation_method	'MofGen! by Chris Wilmer'
_symmetry_space_group_name_H-M	'P1'
_symmetry_Int_Tables_number	1
_symmetry_cell_setting	triclinic
loop_
_symmetry_equiv_pos_as_xyz
  x,y,z
_cell_length_a	12.594517
_cell_length_b	19.120786
_cell_length_c	12.594510
_cell_angle_alpha	87.519650
_cell_angle_beta	89.988729
_cell_angle_gamma	92.461418
loop_
_atom_site_label
_atom_site_type_symbol
_atom_site_fract_x
_atom_site_fract_y
_atom_site_fract_z
Zn1	Zn	1.609116	-0.279645	-0.583458
Zn2	Zn	1.601383	-0.397128	-0.397865
Zn3	Zn	1.431119	-0.279680	-0.405515
Zn4	Zn	1.423483	-0.397059	-0.575830
O5	O	1.516275	-0.338378	-0.490667
O6	O	1.757035	-0.295244	-0.558829
O7	O	1.578757	-0.381592	-0.249931
O8	O	1.461162	-0.181384	-0.435512
O9	O	1.751354	-0.381559	-0.422475
O10	O	1.591937	-0.181359	-0.566246
O11	O	1.453664	-0.295303	-0.255551
O12	O	1.281161	-0.295236	-0.428117
O13	O	1.448148	-0.381440	-0.725791
O14	O	1.275551	-0.381474	-0.553247
O15	O	1.584532	-0.295177	-0.731394
O16	O	1.571353	-0.495410	-0.415080
O17	O	1.440649	-0.495359	-0.545830
C18	C	1.239736	-0.338351	-0.490685
C19	C	1.121430	-0.338357	-0.490717
C20	C	1.049151	-0.385354	-0.558632
C21	C	0.982498	-0.321310	-0.588960
C22	C	0.977280	-0.402453	-0.460361
C23	C	1.056338	-0.274279	-0.521098
C24	C	1.051124	-0.355466	-0.392451
C25	C	0.984506	-0.291378	-0.422746
C26	C	1.504362	-0.520870	-0.478820
C27	C	1.499363	-0.598941	-0.473788
C28	C	1.565051	-0.635545	-0.539545
C29	C	1.560349	-0.708901	-0.534818
C30	C	1.489965	-0.745651	-0.464328
C31	C	1.424270	-0.709042	-0.398568
C32	C	1.428967	-0.635688	-0.403301
C33	C	1.472375	-0.967138	-0.446635
C34	C	1.467685	-1.040498	-0.441904
C35	C	1.603764	-1.040352	-0.578156
C36	C	1.608459	-0.966996	-0.582878
C37	C	1.542760	-0.930393	-0.517123
C38	C	1.485160	-0.820633	-0.459492
C39	C	1.547560	-0.855413	-0.521964
C40	C	1.793894	-0.338405	-0.490650
C41	C	1.912199	-0.338417	-0.490642
C42	C	1.516351	-0.338297	-0.768293
C43	C	1.516383	-0.338262	-0.886601
C44	C	1.528264	-0.155173	-0.502583
C45	C	1.533373	-0.077102	-0.507661
C46	C	1.590584	-0.291340	-0.958902
C47	C	1.494624	-0.274143	-1.030824
C48	C	1.612403	-0.355410	-1.025481
C49	C	1.420373	-0.321032	-0.956967
C50	C	1.538216	-0.402329	-0.951616
C51	C	1.442187	-0.385157	-1.023504
C52	C	1.516265	-0.338408	-0.214124
C53	C	1.516451	-0.338245	-0.095830
H54	H	0.942685	-0.456633	-0.434721
H55	H	1.622370	-0.605628	-0.596940
H56	H	1.613848	-0.738701	-0.588356
C57	C	1.782526	-1.062814	-0.628712
C58	C	1.675963	-1.080584	-0.650450
H59	H	1.827095	-1.087654	-0.673348
H60	H	1.795385	-1.013873	-0.641614
H61	H	1.797369	-1.074876	-0.556434
H62	H	1.661118	-1.068518	-0.722726
H63	H	1.663099	-1.129537	-0.637556
C64	C	1.775438	-0.255063	-0.956593
C65	C	1.675153	-0.237746	-0.920466
H66	H	1.827640	-0.221973	-0.932866
H67	H	1.791088	-0.300559	-0.929361
H68	H	1.775601	-0.254390	-1.032055
H69	H	1.674988	-0.238425	-0.845003
H70	H	1.659499	-0.192239	-0.947693
H71	H	1.427855	-0.850563	-0.402096
H72	H	1.476180	-0.219956	-1.065480
H73	H	0.956221	-0.251614	-0.365284
H74	H	1.410364	-1.070418	-0.384502
C75	C	1.720569	-0.375401	-1.177305
C76	C	1.721982	-0.375004	-1.066163
H77	H	1.788222	-0.387489	-1.202415
H78	H	1.667970	-0.408776	-1.199333
H79	H	1.704572	-0.330200	-1.205540
H80	H	1.737972	-0.420207	-1.037927
H81	H	1.774597	-0.341627	-1.044124
H82	H	0.952319	-0.306861	-0.672030
C83	C	1.053034	-0.420841	-0.739096
C84	C	1.087625	-0.438902	-0.636269
H85	H	1.076795	-0.453895	-0.787026
H86	H	0.977619	-0.420940	-0.740067
H87	H	1.081245	-0.375443	-0.759936
H88	H	1.059407	-0.484298	-0.615425
H89	H	1.163055	-0.438810	-0.635294
H90	H	1.090799	-0.220083	-0.546835
C91	C	1.293991	-0.643195	-0.268146
C92	C	1.356760	-0.595449	-0.331019
H93	H	1.249414	-0.618353	-0.223521
H94	H	1.251426	-0.671803	-0.312644
H95	H	1.338566	-0.671803	-0.225618
H96	H	1.312185	-0.566845	-0.373552
H97	H	1.399329	-0.566829	-0.286515
C98	C	1.661669	-0.944289	-0.764617
C99	C	1.685830	-0.926605	-0.660364
H100	H	1.709436	-0.919351	-0.812449
H101	H	1.668272	-0.993210	-0.771201
H102	H	1.590914	-0.932289	-0.780906
H103	H	1.756583	-0.938610	-0.644072
H104	H	1.679237	-0.877674	-0.653776
H105	H	1.418882	-0.937342	-0.393092
C106	C	1.050325	-0.441607	-0.247947
C107	C	1.091911	-0.374995	-0.280344
H108	H	1.075514	-0.453670	-0.178739
H109	H	0.974936	-0.441329	-0.246938
H110	H	1.072341	-0.475000	-0.296187
H111	H	1.069889	-0.341602	-0.232108
H112	H	1.167316	-0.375268	-0.281345
H113	H	1.366957	-0.738970	-0.341178
C114	C	1.311737	-0.301510	-0.805295
C115	C	1.310765	-0.301352	-0.916479
H116	H	1.244073	-0.289354	-0.780300
H117	H	1.327339	-0.346880	-0.777496
H118	H	1.364450	-0.268392	-0.782686
H119	H	1.258058	-0.334474	-0.939087
H120	H	1.295151	-0.255975	-0.944288
H121	H	1.604864	-0.825489	-0.579361
C122	C	1.257042	-0.420579	-1.026951
C123	C	1.357430	-0.438712	-1.061681
H124	H	1.204717	-0.453638	-1.050528
H125	H	1.256176	-0.420605	-0.951538
H126	H	1.242147	-0.375198	-1.055249
H127	H	1.372329	-0.484091	-1.033376
H128	H	1.358299	-0.438693	-1.137109
H129	H	1.556690	-0.456501	-0.916941
