data_functionalizedCrystal
_audit_creation_method	'MofGen! by Chris Wilmer'
_symmetry_space_group_name_H-M	'P1'
_symmetry_Int_Tables_number	1
_symmetry_cell_setting	triclinic
loop_
_symmetry_equiv_pos_as_xyz
  x,y,z
_cell_length_a	15.455313
_cell_length_b	16.992694
_cell_length_c	16.992695
_cell_angle_alpha	89.331777
_cell_angle_beta	87.142836
_cell_angle_gamma	87.134047
loop_
_atom_site_label
_atom_site_type_symbol
_atom_site_fract_x
_atom_site_fract_y
_atom_site_fract_z
O1	O	0.072024	1.047614	-0.170138
O2	O	0.072049	0.819213	-0.168308
O3	O	0.072030	0.932498	-0.055023
O4	O	0.072043	0.934329	-0.283424
O5	O	-0.072234	0.938970	-0.048565
O6	O	-0.072214	0.825685	-0.161851
O7	O	-0.072240	1.054086	-0.163681
Cu8	Cu	-0.085399	0.940476	-0.162176
Cu9	Cu	0.085209	0.932823	-0.169813
O10	O	-0.072220	0.940801	-0.276966
C11	C	-0.000079	0.793089	-0.162724
C12	C	-0.000070	0.705604	-0.155696
N13	N	-0.205396	0.945865	-0.156804
N14	N	0.205205	0.927440	-0.175179
C15	C	-0.000066	0.659613	-0.223514
C16	C	-0.000079	0.577412	-0.216904
C17	C	-0.000088	0.541204	-0.142476
C18	C	-0.000094	0.587202	-0.074653
C19	C	-0.000088	0.669401	-0.081263
C20	C	-0.000113	0.295891	-0.115081
C21	C	-0.000116	0.213686	-0.108476
C22	C	-0.000103	0.203902	-0.250728
C23	C	-0.000091	0.286103	-0.257331
C24	C	-0.000102	0.332093	-0.189508
N25	N	-0.000098	0.457183	-0.135719
N26	N	-0.000098	0.416114	-0.196266
C27	C	0.250591	0.975671	-0.127156
C28	C	0.341400	0.971598	-0.131213
C29	C	0.386821	0.919290	-0.183288
C30	C	0.341429	0.871056	-0.231316
C31	C	0.250622	0.875133	-0.227263
C32	C	0.658405	0.901709	-0.200779
C33	C	0.749219	0.897634	-0.204827
C34	C	0.749183	0.998177	-0.104724
C35	C	0.658375	1.002247	-0.100673
C36	C	0.612990	0.954016	-0.148704
N37	N	0.479642	0.915124	-0.187434
N38	N	0.520171	0.958187	-0.144561
C39	C	-0.000102	0.933378	-0.022434
C40	C	-0.000101	0.926350	0.065050
C41	C	-0.000109	1.080210	-0.169265
C42	C	-0.000113	1.167695	-0.176294
C43	C	-0.000087	0.939920	-0.309555
C44	C	-0.000082	0.946949	-0.397040
C45	C	-0.000109	0.994168	0.111042
C46	C	-0.000100	0.987559	0.193242
C47	C	-0.000089	0.913131	0.229450
C48	C	-0.000078	0.845307	0.183452
C49	C	-0.000081	0.851917	0.101253
C50	C	-0.000074	0.885735	0.474764
C51	C	-0.000074	0.879131	0.556969
C52	C	-0.000094	1.021383	0.566753
C53	C	-0.000102	1.027987	0.484552
C54	C	-0.000087	0.960163	0.438561
N55	N	-0.000082	0.906373	0.313472
N56	N	-0.000087	0.966921	0.354541
H57	H	-0.000058	0.689087	-0.284121
C58	C	0.200697	0.822059	-0.280067
H59	H	0.240752	0.790311	-0.311652
H60	H	0.165269	0.853937	-0.313108
H61	H	0.165280	0.789167	-0.248011
C62	C	-0.000129	0.173859	-0.026601
H63	H	-0.000141	0.213021	0.012846
H64	H	0.050178	0.139734	-0.023318
H65	H	-0.050444	0.144259	-0.018820
C66	C	-0.000059	0.763436	0.223275
H67	H	-0.000044	0.723992	0.184108
H68	H	-0.050363	0.760152	0.257394
H69	H	0.050258	0.755648	0.252879
H70	H	0.213615	1.018263	-0.084748
C71	C	-0.000118	0.346470	-0.040478
H72	H	-0.000116	0.313130	0.004793
H73	H	-0.050425	0.381002	-0.037845
H74	H	0.050197	0.376475	-0.042349
C75	C	0.608418	1.059795	-0.043400
H76	H	0.648454	1.087944	-0.015386
H77	H	0.572984	1.031088	-0.007201
H78	H	0.573003	1.095871	-0.072285
C79	C	0.608494	0.848674	-0.253628
H80	H	0.648553	0.816939	-0.285221
H81	H	0.573089	0.880586	-0.286659
H82	H	0.573053	0.815770	-0.221609
C83	C	-0.000101	1.062156	0.243832
H84	H	-0.000083	1.047562	0.297972
H85	H	-0.050411	1.094724	0.234633
H86	H	0.050211	1.090200	0.230109
C87	C	-0.000103	0.547375	0.007216
H88	H	-0.000097	0.491833	0.001441
H89	H	-0.050411	0.565120	0.037610
H90	H	0.050211	0.560595	0.033102
C91	C	-0.000103	1.109857	0.444728
H92	H	-0.000098	1.149301	0.483892
H93	H	-0.050410	1.117652	0.415119
H94	H	0.050212	1.113129	0.410613
C95	C	-0.000121	1.076040	0.071220
H96	H	-0.000117	1.115482	0.110387
H97	H	-0.050430	1.083834	0.041613
H98	H	0.050192	1.079317	0.037104
H99	H	0.786144	1.037445	-0.065621
H100	H	-0.000090	0.706846	-0.026038
C101	C	0.799184	0.840088	-0.262105
H102	H	0.859765	0.844560	-0.257629
H103	H	0.784324	0.852488	-0.314545
H104	H	0.784299	0.787705	-0.249461
C105	C	0.391321	1.024649	-0.078383
H106	H	0.351264	1.056377	-0.046781
H107	H	0.426749	1.057546	-0.110414
H108	H	0.426738	0.992746	-0.045347
C109	C	-0.000072	0.526825	-0.291505
H110	H	-0.000055	0.560162	-0.336778
H111	H	-0.050383	0.496822	-0.289636
H112	H	0.050239	0.492291	-0.294132
H113	H	0.378416	0.828468	-0.273721
H114	H	-0.000106	1.076601	0.604207
H115	H	-0.000073	0.796692	0.063808
H116	H	-0.000079	0.818520	0.586447
H117	H	-0.000061	0.830508	0.437328
H118	H	-0.000096	0.166449	-0.305945
C119	C	-0.000093	0.325927	-0.339202
H120	H	-0.000103	0.286763	-0.378646
H121	H	0.050214	0.355528	-0.346993
H122	H	-0.050408	0.360050	-0.342479
