data_functionalizedCrystal
_audit_creation_method	'MofGen! by Chris Wilmer'
_symmetry_space_group_name_H-M	'P1'
_symmetry_Int_Tables_number	1
_symmetry_cell_setting	triclinic
loop_
_symmetry_equiv_pos_as_xyz
  x,y,z
_cell_length_a	15.944493
_cell_length_b	10.654550
_cell_length_c	15.021413
_cell_angle_alpha	90.005223
_cell_angle_beta	90.006749
_cell_angle_gamma	96.020027
loop_
_atom_site_label
_atom_site_type_symbol
_atom_site_fract_x
_atom_site_fract_y
_atom_site_fract_z
O1	O	1.115495	-0.161602	0.074018
O2	O	0.871054	-0.181647	0.074022
O3	O	0.998895	0.011189	0.074017
O4	O	0.987654	-0.354439	0.074023
O5	O	0.998874	0.011161	-0.074048
O6	O	0.871034	-0.181675	-0.074042
O7	O	1.115474	-0.161630	-0.074046
Zn8	Zn	0.993251	-0.171657	-0.097553
Zn9	Zn	0.993278	-0.171620	0.097528
O10	O	0.987634	-0.354466	-0.074041
C11	C	0.839745	-0.180842	-0.000010
C12	C	0.746482	-0.178386	-0.000008
C13	C	0.511379	-0.291893	-0.000005
C14	C	0.460456	-0.230697	-0.073014
C15	C	0.575734	-0.173834	-0.000010
C16	C	0.460481	-0.230642	0.072966
C17	C	0.410799	-0.169447	-0.000008
C18	C	0.526040	-0.112670	-0.073078
C19	C	0.526068	-0.112632	0.072967
C20	C	0.475178	-0.051348	-0.000059
C21	C	0.670749	-0.176365	-0.000012
C22	C	0.315788	-0.166907	-0.000012
C23	C	0.998059	0.057962	-0.000014
C24	C	0.995590	0.197373	-0.000011
C25	C	1.146784	-0.162435	-0.000013
C26	C	1.240047	-0.164892	-0.000008
C27	C	0.988469	-0.401239	-0.000008
C28	C	0.990939	-0.540650	-0.000005
N29	N	0.993239	-0.171681	-0.230690
C30	C	1.070860	0.277856	-0.000015
C31	C	1.068535	0.408846	-0.000009
C32	C	0.915663	0.378857	0.000001
C33	C	0.917989	0.247869	0.000002
C34	C	1.159120	0.295171	-0.000025
C35	C	1.156795	0.426161	-0.000019
C36	C	0.934116	-0.260806	-0.470371
C37	C	1.010159	-0.285163	-0.529706
C38	C	0.993260	-0.171649	-0.412297
C39	C	0.917237	-0.147321	-0.529704
C40	C	0.993274	-0.171622	-0.587721
C41	C	1.069342	-0.196063	-0.470326
C42	C	0.976370	-0.058171	-0.470318
C43	C	1.052468	-0.082479	-0.529627
C44	C	0.993251	-0.171668	-0.311240
C45	C	0.993292	-0.171602	-0.688776
N46	N	0.993296	-0.171587	0.230666
H47	H	0.431839	-0.280512	0.134680
H48	H	0.554734	-0.062800	0.134690
N49	N	1.192150	0.487108	0.084655
H50	H	1.147250	0.531689	0.115205
H51	H	1.210944	0.420141	0.125489
H52	H	1.190041	0.468350	-0.061983
H53	H	0.554571	-0.062853	-0.134862
N54	N	0.957406	0.068886	-0.435722
H55	H	1.001480	0.136442	-0.458216
H56	H	0.899911	0.087065	-0.457287
H57	H	0.856696	0.182344	0.000017
H58	H	0.431799	-0.280566	-0.134734
N59	N	0.453906	0.083456	-0.000108
H60	H	0.477989	0.127872	-0.055273
H61	H	0.390628	0.084307	0.000446
H62	H	1.102545	-0.007066	-0.555481
N63	N	0.532864	-0.426592	-0.000102
H64	H	0.596153	-0.427333	0.000464
H65	H	0.507914	-0.471567	0.054469
H66	H	0.852482	0.419988	0.000013
H67	H	1.024458	-0.381117	-0.555792
N68	N	1.204861	0.256886	0.082039
H69	H	1.174328	0.282472	0.136971
H70	H	1.206549	0.162393	0.081980
N71	N	1.154528	-0.223470	-0.435930
H72	H	1.193116	-0.235831	-0.487801
H73	H	1.179610	-0.150274	-0.398422
H74	H	1.187216	0.259904	-0.063957
N75	N	0.867924	-0.360745	-0.435909
H76	H	0.880801	-0.446423	-0.457517
H77	H	0.868047	-0.359412	-0.368681
N78	N	0.832074	-0.120073	-0.564262
H79	H	0.787442	-0.187490	-0.542709
H80	H	0.818924	-0.034997	-0.541727
