data_functionalizedCrystal
_audit_creation_method	'MofGen! by Chris Wilmer'
_symmetry_space_group_name_H-M	'P1'
_symmetry_Int_Tables_number	1
_symmetry_cell_setting	triclinic
loop_
_symmetry_equiv_pos_as_xyz
  x,y,z
_cell_length_a	14.853567
_cell_length_b	14.853566
_cell_length_c	15.186229
_cell_angle_alpha	89.999490
_cell_angle_beta	90.000050
_cell_angle_gamma	83.634672
loop_
_atom_site_label
_atom_site_type_symbol
_atom_site_fract_x
_atom_site_fract_y
_atom_site_fract_z
O1	O	0.117698	1.196364	-0.073163
O2	O	0.617698	1.696364	0.426837
O3	O	0.131720	0.933904	-0.073176
O4	O	0.631720	1.433904	0.426824
O5	O	-0.006521	1.072145	-0.073172
O6	O	0.493479	1.572145	0.426828
O7	O	0.255939	1.058124	-0.073167
O8	O	0.755939	1.558124	0.426833
O9	O	-0.006523	1.072136	0.073285
O10	O	0.493477	1.572136	0.573285
O11	O	0.131718	0.933895	0.073281
O12	O	0.631718	1.433895	0.573281
O13	O	0.117696	1.196355	0.073294
O14	O	0.617696	1.696355	0.573294
Zn15	Zn	0.124707	1.065124	0.096541
Zn16	Zn	0.624707	1.565124	0.596541
Zn17	Zn	0.124709	1.065136	-0.096423
Zn18	Zn	0.624709	1.565136	0.403577
O19	O	0.255937	1.058114	0.073290
O20	O	0.755937	1.558114	0.573290
C21	C	0.131084	0.900311	0.000050
C22	C	0.631084	1.400311	0.500050
C23	C	0.129181	0.800227	0.000045
C24	C	0.629181	1.300227	0.500045
C25	C	-0.040111	1.071505	0.000054
C26	C	0.459889	1.571505	0.500054
C27	C	-0.140194	1.069601	0.000046
C28	C	0.359806	1.569601	0.500046
C29	C	0.121131	0.377048	-0.079774
C30	C	0.621131	0.877048	0.420226
C31	C	0.121129	0.377059	0.079900
C32	C	0.621129	0.877059	0.579900
C33	C	0.122917	0.471093	0.079897
C34	C	0.622917	0.971093	0.579897
C35	C	0.123813	0.518108	0.000058
C36	C	0.623813	1.018108	0.500058
C37	C	0.122921	0.471090	-0.079779
C38	C	0.622921	0.971090	0.420221
C39	C	0.123818	0.518117	0.159732
C40	C	0.623818	1.018117	0.659732
C41	C	0.125606	0.612157	0.159733
C42	C	0.625606	1.112157	0.659733
C43	C	0.126496	0.659175	0.079892
C44	C	0.626496	1.159175	0.579892
C45	C	0.125603	0.612151	0.000053
C46	C	0.625603	1.112151	0.500053
C47	C	0.126499	0.659166	-0.079787
C48	C	0.626499	1.159166	0.420213
C49	C	0.125600	0.612145	-0.159627
C50	C	0.625600	1.112145	0.340373
C51	C	0.123811	0.518108	-0.159619
C52	C	0.623811	1.018108	0.340381
C53	C	0.128285	0.753212	0.079884
C54	C	0.628285	1.253212	0.579884
C55	C	0.128289	0.753209	-0.079792
C56	C	0.628289	1.253209	0.420208
C57	C	-0.552728	0.979435	0.000059
C58	C	-0.052728	1.479435	0.500059
C59	C	-0.574009	1.143668	0.000067
C60	C	-0.074009	1.643668	0.500067
C61	C	-0.479976	1.145458	0.000062
C62	C	0.020024	1.645458	0.500062
C63	C	-0.422313	1.064236	0.000056
C64	C	0.077687	1.564236	0.500056
C65	C	-0.458685	0.981223	0.000056
C66	C	0.041315	1.481223	0.500056
C67	C	-0.443597	1.228470	0.000071
C68	C	0.056403	1.728470	0.500071
C69	C	-0.349558	1.230263	0.000067
C70	C	0.150442	1.730263	0.500067
C71	C	-0.291894	1.149040	0.000055
C72	C	0.208106	1.649040	0.500055
C73	C	-0.328271	1.066023	0.000054
C74	C	0.171729	1.566023	0.500054
C75	C	-0.270608	0.984801	0.000049
C76	C	0.229392	1.484801	0.500049
C77	C	-0.306984	0.901784	0.000041
C78	C	0.193016	1.401784	0.500041
C79	C	-0.401021	0.899999	0.000044
C80	C	0.098979	1.399999	0.500044
C81	C	-0.197856	1.150824	0.000052
C82	C	0.302144	1.650824	0.500052
C83	C	-0.176566	0.986588	0.000046
C84	C	0.323434	1.486588	0.500046
C85	C	0.289526	1.058754	0.000062
C86	C	0.789526	1.558754	0.500062
C87	C	0.389610	1.060658	0.000064
C88	C	0.889610	1.560658	0.500064
C89	C	0.118332	1.229948	0.000066
C90	C	0.618332	1.729948	0.500066
C91	C	0.120235	1.330032	0.000066
C92	C	0.620235	1.830032	0.500066
N93	N	0.124704	1.065122	0.228234
N94	N	0.624704	1.565122	0.728234
N95	N	0.124704	1.065145	-0.228116
N96	N	0.624704	1.565145	0.271884
C97	C	0.063512	1.126356	0.453958
C98	C	0.563512	1.626356	0.953958
C99	C	0.063510	1.126358	0.546148
C100	C	0.563510	1.626358	1.046148
C101	C	0.185900	1.003904	0.546153
C102	C	0.685900	1.503904	1.046153
C103	C	0.185897	1.003898	0.453965
C104	C	0.685897	1.503898	0.953965
C105	C	0.124704	1.065129	0.407870
C106	C	0.624704	1.565129	0.907870
C107	C	0.124705	1.065138	0.592248
C108	C	0.624705	1.565138	1.092248
C109	C	0.124703	1.065140	0.692204
C110	C	0.624703	1.565140	1.192204
C111	C	0.124704	1.065125	0.307908
C112	C	0.624704	1.565125	0.807908
H113	H	0.126336	0.650436	-0.224632
H114	H	0.626336	1.150436	0.275368
H115	H	0.120406	0.338772	0.144901
H116	H	0.620406	0.838772	0.644901
H117	H	-0.319950	1.297861	0.000072
H118	H	0.180050	1.797861	0.500072
C119	C	-0.507023	1.317805	0.000083
C120	C	-0.007023	1.817805	0.500083
H121	H	-0.568238	1.304849	0.000075
H122	H	-0.068238	1.804849	0.500075
H123	H	-0.495986	1.351833	0.051160
H124	H	0.004014	1.851833	0.551160
H125	H	-0.495988	1.351845	-0.050992
H126	H	0.004012	1.851845	0.449008
C127	C	0.253188	0.936534	0.596856
C128	C	0.753188	1.436534	1.096856
H129	H	0.289618	0.900055	0.556202
H130	H	0.789618	1.400055	1.056202
H131	H	0.290787	0.968985	0.632829
H132	H	0.790787	1.468985	1.132829
H133	H	0.220659	0.898978	0.632808
H134	H	0.720659	1.398978	1.132808
H135	H	0.129026	0.791491	0.144889
H136	H	0.629026	1.291491	0.644889
H137	H	-0.168244	1.218415	0.000064
H138	H	0.331756	1.718415	0.500064
C139	C	-0.243554	0.812442	0.000036
C140	C	0.256446	1.312442	0.500036
H141	H	-0.278680	0.762744	0.000037
H142	H	0.221320	1.262744	0.500037
H143	H	-0.206424	0.809734	-0.051034
H144	H	0.293576	1.309734	0.448966
H145	H	-0.206432	0.809727	0.051118
H146	H	0.293568	1.309727	0.551118
H147	H	0.123078	0.479815	-0.224621
H148	H	0.623078	0.979815	0.275379
C149	C	-0.003800	1.193706	0.596846
C150	C	0.496200	1.693706	1.096846
H151	H	0.004956	1.184936	0.658352
H152	H	0.504956	1.684936	1.158352
H153	H	0.006098	1.253884	0.581735
H154	H	0.506098	1.753884	1.081735
H155	H	-0.063989	1.183834	0.581736
H156	H	0.436011	1.683834	1.081736
C157	C	0.253214	0.936547	0.403265
C158	C	0.753214	1.436547	0.903265
H159	H	0.289667	0.900090	0.443919
H160	H	0.789667	1.400090	0.943919
H161	H	0.220714	0.898979	0.367305
H162	H	0.720714	1.398979	0.867305
H163	H	0.290801	0.969028	0.367299
H164	H	0.790801	1.469028	0.867299
H165	H	0.123094	0.479829	0.224733
H166	H	0.623094	0.979829	0.724733
C167	C	0.129278	0.804919	-0.167617
C168	C	0.629278	1.304919	0.332383
H169	H	0.128493	0.763444	-0.215161
H170	H	0.628493	1.263444	0.284839
H171	H	0.077449	0.848417	-0.170940
H172	H	0.577449	1.348417	0.329060
H173	H	0.182518	0.834785	-0.170936
H174	H	0.682518	1.334785	0.329064
C175	C	-0.003805	1.193698	0.403257
C176	C	0.496195	1.693698	0.903257
H177	H	-0.040255	1.230156	0.443912
H178	H	0.459745	1.730156	0.943912
H179	H	0.028688	1.231265	0.367288
H180	H	0.528688	1.731265	0.867288
H181	H	-0.041396	1.161212	0.367301
H182	H	0.458604	1.661212	0.867301
H183	H	0.120395	0.338759	-0.144778
H184	H	0.620395	0.838759	0.355222
C185	C	0.126587	0.663878	0.247549
C186	C	0.626587	1.163878	0.747549
H187	H	0.127784	0.726616	0.236114
H188	H	0.627784	1.226616	0.736114
H189	H	0.073763	0.655273	0.280353
H190	H	0.573763	1.155273	0.780353
H191	H	0.178832	0.641661	0.280353
H192	H	0.678832	1.141661	0.780353
H193	H	-0.129622	0.920446	0.000038
H194	H	0.370378	1.420446	0.500038
H195	H	-0.430646	0.832411	0.000039
H196	H	0.069354	1.332411	0.500039
H197	H	-0.620963	1.209796	0.000078
H198	H	-0.120963	1.709796	0.500078
C199	C	-0.592735	0.888124	0.000054
C200	C	-0.092735	1.388124	0.500054
H201	H	-0.656999	0.898687	0.000060
H202	H	-0.156999	1.398687	0.500060
H203	H	-0.572949	0.854678	-0.051019
H204	H	-0.072949	1.354678	0.448981
H205	H	-0.572950	0.854678	0.051133
H206	H	-0.072950	1.354678	0.551133
