data_functionalizedCrystal
_audit_creation_method	'MofGen! by Chris Wilmer'
_symmetry_space_group_name_H-M	'P1'
_symmetry_Int_Tables_number	1
_symmetry_cell_setting	triclinic
loop_
_symmetry_equiv_pos_as_xyz
  x,y,z
_cell_length_a	10.654549
_cell_length_b	23.532407
_cell_length_c	9.730217
_cell_angle_alpha	89.992119
_cell_angle_beta	89.997559
_cell_angle_gamma	83.667798
loop_
_atom_site_label
_atom_site_type_symbol
_atom_site_fract_x
_atom_site_fract_y
_atom_site_fract_z
O1	O	1.665299	0.079997	-0.114339
O2	O	1.299579	0.087615	-0.114336
O3	O	1.493467	0.000946	-0.114312
O4	O	1.471411	0.166666	-0.114363
O5	O	1.493461	0.000945	0.114268
O6	O	1.299573	0.087614	0.114244
O7	O	1.665293	0.079996	0.114241
Zn8	Zn	1.482432	0.083805	0.150535
Zn9	Zn	1.482440	0.083806	-0.150630
O10	O	1.471405	0.166665	0.114217
C11	C	1.252796	0.087054	-0.000045
C12	C	1.113406	0.085379	-0.000043
C13	C	0.820238	0.185870	-0.000112
C14	C	0.870108	0.238477	-0.000122
C15	C	1.001076	0.240053	-0.000105
C16	C	1.082179	0.189016	-0.000081
C17	C	1.032309	0.136410	-0.000071
C18	C	0.901336	0.134840	-0.000084
C19	C	1.063536	0.032773	-0.000033
C20	C	0.932568	0.031196	-0.000040
C21	C	1.144639	-0.018264	-0.000009
C22	C	1.094769	-0.070871	0.000011
C23	C	0.963792	-0.072445	-0.000005
C24	C	0.882698	-0.021411	-0.000030
C25	C	1.492903	-0.020274	-0.000019
C26	C	1.491214	-0.083502	-0.000008
C27	C	1.595361	-0.481926	-0.000085
C28	C	1.593792	-0.541336	-0.000095
O29	O	1.690338	-0.577451	-0.000147
N30	N	1.478526	-0.564714	-0.000093
C31	C	1.364821	-0.528678	-0.000095
O32	O	1.266634	-0.554019	-0.000095
C33	C	1.366391	-0.469269	-0.000094
C34	C	1.481665	-0.445894	-0.000082
C35	C	1.710625	-0.458551	-0.000074
C36	C	1.712194	-0.399144	-0.000061
C37	C	1.598497	-0.363113	-0.000059
C38	C	1.483233	-0.386488	-0.000069
C39	C	1.252687	-0.433234	-0.000105
C40	C	1.254267	-0.373822	-0.000106
C41	C	1.369541	-0.350447	-0.000094
C42	C	1.371105	-0.291050	-0.000053
N43	N	1.486371	-0.267672	-0.000055
C44	C	1.600067	-0.303704	-0.000058
C45	C	1.361533	-0.653442	-0.000098
C46	C	1.359961	-0.712851	-0.000089
C47	C	1.588933	-0.725504	-0.000092
C48	C	1.590503	-0.666095	-0.000091
C49	C	1.476799	-0.630064	-0.000100
C50	C	1.603352	-0.178945	-0.000030
C51	C	1.604910	-0.119533	-0.000011
C52	C	1.375939	-0.106885	-0.000015
C53	C	1.374380	-0.166292	-0.000027
C54	C	1.488097	-0.202321	-0.000038
O55	O	1.274610	-0.254901	-0.000008
O56	O	1.698238	-0.278355	-0.000076
C57	C	1.712076	0.080557	-0.000053
C58	C	1.851466	0.082232	-0.000064
C59	C	1.471969	0.187885	-0.000079
C60	C	1.473658	0.251113	-0.000099
N61	N	1.482436	0.083804	0.356071
N62	N	1.482446	0.083803	-0.356166
C63	C	1.654193	0.007082	0.356083
C64	C	1.740080	-0.031278	0.428028
C65	C	1.740092	-0.031278	0.571908
C66	C	1.654207	0.007084	0.643845
C67	C	1.568320	0.045443	0.571900
C68	C	1.568319	0.045441	0.428017
C69	C	1.396559	0.122162	0.571888
C70	C	1.396550	0.122166	0.428009
C71	C	1.310674	0.160524	0.643826
C72	C	1.224791	0.198888	0.571880
C73	C	1.224782	0.198887	0.427992
C74	C	1.310664	0.160526	0.356063
H75	H	1.160811	-0.112421	0.000021
N76	N	0.910006	-0.129186	-0.000005
H77	H	0.981260	-0.161274	0.000010
H78	H	0.856337	-0.132099	0.084728
N79	N	1.832718	-0.072648	0.350436
H80	H	1.887127	-0.096947	0.417847
H81	H	1.784971	-0.098031	0.290752
N82	N	1.832730	-0.072646	0.649519
H83	H	1.785074	-0.098065	0.709234
H84	H	1.887114	-0.096910	0.582036
H85	H	1.154838	0.230122	0.369421
H86	H	1.803216	-0.487882	-0.000081
H87	H	1.654201	0.007083	0.238928
H88	H	1.654212	0.007076	0.761000
N89	N	0.741440	-0.023109	-0.000031
H90	H	0.697635	0.017204	-0.000046
H91	H	0.716137	-0.043857	-0.084766
N92	N	1.714836	-0.640889	-0.000083
H93	H	1.720604	-0.616518	-0.084816
H94	H	1.720513	-0.616557	0.084710
H95	H	1.698784	-0.100505	0.000002
H96	H	1.310682	0.160520	0.760980
N97	N	1.711561	-0.764377	-0.000106
H98	H	1.761888	-0.756800	-0.084841
H99	H	1.761789	-0.756797	0.084685
H100	H	1.266094	-0.731876	-0.000075
N101	N	1.132157	0.240255	0.649465
H102	H	1.145191	0.234431	0.751528
H103	H	1.146142	0.280719	0.624311
H104	H	1.695951	-0.208274	-0.000045
H105	H	1.310669	0.160524	0.238908
H106	H	0.713595	0.184592	-0.000102
H107	H	0.804060	0.280029	-0.000146
N108	N	1.238878	-0.614589	-0.000072
H109	H	1.234423	-0.589665	0.084668
H110	H	1.234476	-0.589686	-0.084858
H111	H	1.158819	-0.452255	-0.000123
H112	H	1.161673	-0.344488	-0.000115
H113	H	1.041679	0.282889	-0.000111
H114	H	1.188819	0.190304	-0.000083
H115	H	1.280515	-0.185324	0.000002
N116	N	1.836525	-0.373937	-0.000053
H117	H	1.908302	-0.405784	-0.000060
H118	H	1.842171	-0.349559	-0.084790
N119	N	1.253328	-0.068007	-0.000015
H120	H	1.203005	-0.075567	-0.084754
H121	H	1.203089	-0.075596	0.084772
N122	N	1.285897	-0.016567	0.000010
H123	H	1.305186	0.024502	0.000007
H124	H	1.323461	-0.036562	0.084762
