data_functionalizedCrystal
_audit_creation_method	'MofGen! by Chris Wilmer'
_symmetry_space_group_name_H-M	'P1'
_symmetry_Int_Tables_number	1
_symmetry_cell_setting	triclinic
loop_
_symmetry_equiv_pos_as_xyz
  x,y,z
_cell_length_a	17.000371
_cell_length_b	17.019372
_cell_length_c	8.140239
_cell_angle_alpha	93.873699
_cell_angle_beta	90.001781
_cell_angle_gamma	100.495440
loop_
_atom_site_label
_atom_site_type_symbol
_atom_site_fract_x
_atom_site_fract_y
_atom_site_fract_z
O1	O	-0.101383	1.039634	0.010342
O2	O	-0.114321	0.809074	-0.022249
O3	O	0.008031	0.938670	-0.003927
O4	O	-0.223735	0.910038	-0.007980
O5	O	0.008032	0.938664	0.269299
O6	O	-0.114320	0.809068	0.250977
O7	O	-0.101382	1.039628	0.283568
Zn8	Zn	-0.107851	0.924347	0.310653
Zn9	Zn	-0.107852	0.924355	-0.049334
O10	O	-0.223734	0.910032	0.265246
C11	C	-0.113831	0.779716	0.110214
C12	C	-0.112362	0.692249	0.097850
C13	C	-0.104031	0.197556	0.020339
C14	C	-0.105411	0.279741	0.031979
C15	C	-0.106106	0.320820	0.186735
C16	C	-0.105413	0.279713	0.329862
C17	C	-0.104027	0.197530	0.318221
C18	C	-0.110284	0.568958	0.229335
C19	C	-0.111672	0.651146	0.240966
C20	C	-0.111668	0.651169	-0.056919
C21	C	-0.110287	0.568984	-0.068547
C22	C	-0.109590	0.527884	0.074580
C23	C	-0.107519	0.404826	0.198637
C24	C	-0.108172	0.443881	0.062677
C25	C	-0.253390	0.908497	0.128415
C26	C	-0.341754	0.903924	0.127766
C27	C	-0.373698	0.974297	0.137709
C28	C	-0.456725	0.969995	0.137110
C29	C	-0.507808	0.895320	0.126556
C30	C	-0.475860	0.824942	0.116617
C31	C	-0.392833	0.829244	0.117228
C32	C	-0.758974	0.878702	0.124210
C33	C	-0.842005	0.874405	0.123595
C34	C	-0.822865	1.019459	0.144092
C35	C	-0.739838	1.023754	0.144692
C36	C	-0.707897	0.953376	0.134761
C37	C	-0.592677	0.890922	0.125939
C38	C	-0.623030	0.957776	0.135391
C39	C	0.037687	0.940205	0.132900
C40	C	0.126051	0.944778	0.133539
C41	C	-0.101872	1.068986	0.151101
C42	C	-0.103341	1.156453	0.163455
N43	N	-0.107849	0.924346	0.556336
N44	N	-0.107848	0.924362	-0.295016
H45	H	-0.107603	0.410431	-0.063325
Cl46	Cl	-0.106285	0.331356	0.524415
Cl47	Cl	-0.112544	0.702788	0.435532
Cl48	Cl	-0.906224	0.780520	0.110334
Cl49	Cl	-0.112537	0.702843	-0.236837
H50	H	-0.103471	0.164113	-0.105681
Cl51	Cl	-0.656902	0.797047	0.112658
H52	H	-0.105968	0.313204	-0.084562
Cl53	Cl	-0.109429	0.517296	0.409267
H54	H	-0.103474	0.164064	0.434761
Cl55	Cl	-0.558811	1.051650	0.148669
H56	H	-0.108086	0.438282	0.324640
Cl57	Cl	-0.309486	1.068180	0.150966
H58	H	-0.482729	1.027301	0.145209
H59	H	-0.698251	1.084563	0.153293
H60	H	-0.366827	0.771939	0.109144
H61	H	-0.732977	0.821395	0.116104
Cl62	Cl	-0.109415	0.517347	-0.263106
H63	H	-0.848881	1.076757	0.152164
Cl64	Cl	-0.540079	0.731064	0.103356
