data_functionalizedCrystal
_audit_creation_method	'MofGen! by Chris Wilmer'
_symmetry_space_group_name_H-M	'P1'
_symmetry_Int_Tables_number	1
_symmetry_cell_setting	triclinic
loop_
_symmetry_equiv_pos_as_xyz
  x,y,z
_cell_length_a	17.038272
_cell_length_b	10.908937
_cell_length_c	10.065875
_cell_angle_alpha	83.441416
_cell_angle_beta	99.426590
_cell_angle_gamma	75.598756
loop_
_atom_site_label
_atom_site_type_symbol
_atom_site_fract_x
_atom_site_fract_y
_atom_site_fract_z
O1	O	-0.132801	1.708126	-0.113530
O2	O	-0.072602	1.340841	-0.113525
O3	O	-0.216232	1.522299	-0.113517
O4	O	0.010829	1.526668	-0.113538
O5	O	-0.188753	1.487707	0.113471
O6	O	-0.045123	1.306249	0.113462
O7	O	-0.105322	1.673534	0.113457
Zn8	Zn	-0.070860	1.484399	0.149499
Zn9	Zn	-0.107064	1.529975	-0.149566
O10	O	0.038308	1.492076	0.113449
C11	C	-0.053237	1.276318	-0.000031
C12	C	-0.036483	1.135597	-0.000029
C13	C	-0.080310	0.934470	-0.000049
C14	C	-0.097625	1.079910	-0.000031
C15	C	-0.231105	1.501032	-0.000023
C16	C	-0.316360	1.489185	-0.000023
C17	C	-0.380598	1.597952	-0.000023
C18	C	-0.460704	1.586815	-0.000036
C19	C	-0.476568	1.466909	-0.000039
C20	C	-0.412323	1.358135	-0.000043
C21	C	-0.332221	1.369274	-0.000040
C22	C	-0.717218	1.427556	-0.000057
C23	C	-0.797328	1.416424	-0.000056
C24	C	-0.845703	1.645107	-0.000052
C25	C	-0.765595	1.656234	-0.000040
C26	C	-0.701358	1.547461	-0.000052
C27	C	-0.558448	1.455522	-0.000048
C28	C	-0.619481	1.558851	-0.000053
C29	C	0.053181	1.513343	-0.000048
C30	C	0.138434	1.525191	-0.000056
C31	C	-0.124687	1.738057	-0.000040
C32	C	-0.141442	1.878780	-0.000051
N33	N	-0.046153	1.453304	0.353603
N34	N	-0.131779	1.561080	-0.353671
C35	C	-0.098472	1.519148	0.421385
C36	C	-0.079452	1.495227	0.578551
H37	H	-0.206600	0.938776	-0.000047
C38	C	-0.185654	1.160937	-0.000021
H39	H	-0.221764	1.107139	-0.000036
H40	H	-0.185175	1.200759	0.079137
H41	H	-0.204336	1.224894	-0.079184
H42	H	0.028678	1.075608	-0.000044
C43	C	0.033373	1.353205	0.432374
H44	H	0.063726	1.314986	0.369468
H45	H	0.066166	1.393949	0.488118
H46	H	0.019285	1.288902	0.488117
H47	H	-0.367688	1.695592	-0.000012
H48	H	-0.513005	1.675385	-0.000033
H49	H	-0.752686	1.753875	-0.000038
C50	C	-0.211319	1.661163	0.567567
H51	H	-0.241678	1.699363	0.630475
H52	H	-0.197252	1.725469	0.511804
H53	H	-0.244106	1.620388	0.511843
H54	H	-0.898012	1.733664	-0.000045
C55	C	0.000086	1.395145	0.657323
H56	H	0.002439	1.392203	0.752622
H57	H	0.000021	1.313213	0.633993
H58	H	0.046873	1.418297	0.633966
H59	H	-0.810236	1.318774	-0.000037
C60	C	-0.575899	1.323629	-0.000051
H61	H	-0.526171	1.260440	-0.000058
H62	H	-0.596569	1.302469	0.079097
H63	H	-0.615720	1.326607	-0.079224
H64	H	-0.015154	0.874477	-0.000069
H65	H	-0.664924	1.338985	-0.000066
C66	C	-0.429770	1.226239	-0.000057
H67	H	-0.380039	1.163059	-0.000072
H68	H	-0.450434	1.205069	0.079094
H69	H	-0.469592	1.229214	-0.079226
C70	C	-0.261556	1.249635	-0.000041
H71	H	-0.211580	1.273443	-0.000053
H72	H	-0.255162	1.188760	0.079111
H73	H	-0.274329	1.212903	-0.079210
H74	H	-0.606564	1.656483	-0.000080
H75	H	-0.157348	1.593225	0.363064
