data_functionalizedCrystal
_audit_creation_method	'MofGen! by Chris Wilmer'
_symmetry_space_group_name_H-M	'P1'
_symmetry_Int_Tables_number	1
_symmetry_cell_setting	triclinic
loop_
_symmetry_equiv_pos_as_xyz
  x,y,z
_cell_length_a	17.019311
_cell_length_b	17.038272
_cell_length_c	12.996460
_cell_angle_alpha	89.993697
_cell_angle_beta	86.114693
_cell_angle_gamma	87.245400
loop_
_atom_site_label
_atom_site_type_symbol
_atom_site_fract_x
_atom_site_fract_y
_atom_site_fract_z
O1	O	1.053367	0.099635	-0.178902
O2	O	0.824554	0.112328	-0.158630
O3	O	0.937601	-0.007833	-0.168638
O4	O	0.940320	0.219796	-0.168895
O5	O	0.937588	-0.007839	0.002497
O6	O	0.824541	0.112322	0.012505
O7	O	1.053354	0.099628	-0.007767
Cu8	Cu	0.938946	0.105974	0.017995
Cu9	Cu	0.938962	0.105982	-0.184392
O10	O	0.940307	0.219789	0.002240
C11	C	0.795126	0.111843	-0.070456
C12	C	0.707458	0.110396	-0.062689
C13	C	0.211627	0.102237	-0.014081
C14	C	0.294000	0.103597	-0.021382
C15	C	0.335194	0.104274	-0.118319
C16	C	0.294010	0.103600	-0.207962
C17	C	0.211639	0.102246	-0.200661
C18	C	0.583903	0.108367	-0.145031
C19	C	0.666281	0.109719	-0.152325
C20	C	0.666265	0.109717	0.034256
C21	C	0.583892	0.108358	0.041549
C22	C	0.542715	0.107689	-0.048094
C23	C	0.419392	0.105661	-0.125783
C24	C	0.458518	0.106307	-0.040629
C25	C	0.935120	-0.036962	-0.082851
C26	C	0.927740	-0.123749	-0.082198
C27	C	0.995500	-0.173919	-0.088200
C28	C	0.988561	-0.255464	-0.087595
C29	C	0.913861	-0.286837	-0.080980
C30	C	0.846095	-0.236660	-0.074981
C31	C	0.853035	-0.155117	-0.075593
C32	C	0.889343	-0.532575	-0.078822
C33	C	0.882408	-0.614124	-0.078207
C34	C	1.024874	-0.632923	-0.090823
C35	C	1.031808	-0.551377	-0.091429
C36	C	0.964042	-0.501207	-0.085435
C37	C	0.906766	-0.370189	-0.080358
C38	C	0.971138	-0.417857	-0.086064
C39	C	1.082782	0.100114	-0.095944
C40	C	1.170449	0.101561	-0.103718
C41	C	0.942788	0.248919	-0.083549
C42	C	0.950168	0.335705	-0.084209
N43	N	0.938941	0.105968	0.160342
N44	N	0.938973	0.105982	-0.326740
C45	C	0.938961	0.105983	0.580155
C46	C	0.938953	0.105981	0.463350
C47	C	0.938951	0.105976	0.370252
C48	C	0.938943	0.105974	0.253440
H49	H	0.699799	0.110264	0.107238
H50	H	0.550387	0.107819	-0.218025
Br51	Br	1.133190	-0.508805	-0.100439
H52	H	0.785273	-0.262211	-0.069601
Br53	Br	0.349881	0.104522	0.100274
H54	H	0.699818	0.110277	-0.231267
Br55	Br	0.527990	0.107456	0.173112
Br56	Br	1.116836	-0.701013	-0.098958
Br57	Br	1.096884	-0.131350	-0.097162
H58	H	0.845944	-0.395742	-0.074970
Br59	Br	0.781022	-0.656701	-0.069219
H60	H	0.452942	0.106211	-0.204710
Br61	Br	0.349915	0.104523	-0.339522
H62	H	0.178113	0.101697	-0.273653
Br63	Br	0.797374	-0.464498	-0.070694
H64	H	1.043739	-0.296310	-0.092480
H65	H	1.031958	-0.392310	-0.091472
Br66	Br	0.155729	0.101307	0.117483
Br67	Br	0.761071	-0.087027	-0.067455
H68	H	0.424974	0.105760	0.038297
