data_functionalizedCrystal
_audit_creation_method	'MofGen! by Chris Wilmer'
_symmetry_space_group_name_H-M	'P1'
_symmetry_Int_Tables_number	1
_symmetry_cell_setting	triclinic
loop_
_symmetry_equiv_pos_as_xyz
  x,y,z
_cell_length_a	15.995350
_cell_length_b	17.699083
_cell_length_c	16.176319
_cell_angle_alpha	90.007566
_cell_angle_beta	90.004199
_cell_angle_gamma	83.387695
loop_
_atom_site_label
_atom_site_type_symbol
_atom_site_fract_x
_atom_site_fract_y
_atom_site_fract_z
O1	O	-1.110791	-0.097560	-0.068678
O2	O	-0.610791	0.402440	0.431322
O3	O	-0.866991	-0.109607	-0.068695
O4	O	-0.366991	0.390393	0.431305
O5	O	-0.995779	0.006595	-0.068679
O6	O	-0.495779	0.506595	0.431321
O7	O	-0.982003	-0.213761	-0.068695
O8	O	-0.482003	0.286239	0.431305
O9	O	-0.995760	0.006602	0.068814
O10	O	-0.495760	0.506602	0.568814
O11	O	-0.866972	-0.109600	0.068798
O12	O	-0.366972	0.390400	0.568798
O13	O	-1.110772	-0.097553	0.068815
O14	O	-0.610772	0.402447	0.568815
Cu15	Cu	-0.988871	-0.103576	0.081361
Cu16	Cu	-0.488871	0.396424	0.581361
Cu17	Cu	-0.988893	-0.103584	-0.081241
Cu18	Cu	-0.488893	0.396416	0.418759
O19	O	-0.981984	-0.213754	0.068799
O20	O	-0.481984	0.286246	0.568799
C21	C	-0.835788	-0.109105	0.000049
C22	C	-0.335788	0.390895	0.500049
C23	C	-0.742841	-0.107612	0.000043
C24	C	-0.242841	0.392388	0.500043
C25	C	-1.141975	-0.098054	0.000069
C26	C	-0.641975	0.401946	0.500069
C27	C	-1.234923	-0.099547	0.000070
C28	C	-0.734923	0.400453	0.500070
C29	C	-0.995276	0.034796	0.000068
C30	C	-0.495276	0.534796	0.500068
C31	C	-0.993795	0.118816	0.000068
C32	C	-0.493795	0.618816	0.500068
C33	C	-0.405104	-0.102250	0.000060
C34	C	0.094896	0.397750	0.500060
C35	C	-0.452706	-0.019493	0.000373
C36	C	0.047294	0.480507	0.500373
C37	C	-0.549394	-0.020987	0.000057
C38	C	-0.049394	0.479013	0.500057
C39	C	-0.572659	-0.104910	0.000052
C40	C	-0.072659	0.395090	0.500052
C41	C	-0.531500	-0.145732	-0.078463
C42	C	-0.031500	0.354268	0.421537
C43	C	-0.434868	-0.143653	-0.078523
C44	C	0.065132	0.356347	0.421477
C45	C	-0.434504	-0.145355	0.077833
C46	C	0.065496	0.354645	0.577833
C47	C	-0.531450	-0.145335	0.078865
C48	C	-0.031450	0.354665	0.578865
C49	C	-0.667354	-0.106417	0.000045
C50	C	-0.167354	0.393583	0.500045
C51	C	-0.310409	-0.100745	0.000062
C52	C	0.189591	0.399255	0.500062
C53	C	-0.982487	-0.241955	0.000050
C54	C	-0.482487	0.258045	0.500050
C55	C	-0.983968	-0.325976	0.000044
C56	C	-0.483968	0.174024	0.500044
N57	N	-0.988861	-0.103569	0.195726
N58	N	-0.488861	0.396431	0.695726
C59	C	-1.069391	0.167312	0.000074
C60	C	-0.569391	0.667312	0.500074
C61	C	-1.067994	0.246257	0.000067
C62	C	-0.567994	0.746257	0.500067
C63	C	-0.991001	0.276706	0.000059
C64	C	-0.491001	0.776706	0.500059
C65	C	-0.915400	0.228205	0.000050
C66	C	-0.415400	0.728205	0.500050
C67	C	-0.916797	0.149261	0.000051
C68	C	-0.416797	0.649261	0.500051
C69	C	-0.909763	0.546577	0.000043
C70	C	-0.409763	1.046577	0.500043
C71	C	-0.908372	0.625527	0.000044
C72	C	-0.408372	1.125527	0.500044
C73	C	-1.060960	0.643574	0.000058
C74	C	-0.560960	1.143574	0.500058
C75	C	-1.062358	0.564630	0.000060
C76	C	-0.562358	1.064630	0.500060
C77	C	-0.986757	0.516135	0.000047
C78	C	-0.486757	1.016135	0.500047
C79	C	-0.988272	0.430533	0.000053
C80	C	-0.488272	0.930533	0.500053
C81	C	-0.989485	0.362306	0.000058
C82	C	-0.489485	0.862306	0.500058
C83	C	-1.045905	-0.052136	0.238997
C84	C	-0.545905	0.447864	0.738997
C85	C	-1.045909	-0.052136	0.325544
C86	C	-0.545909	0.447864	0.825544
C87	C	-0.988871	-0.103572	0.368818
C88	C	-0.488871	0.396428	0.868818
C89	C	-0.931821	-0.155008	0.325541
C90	C	-0.431821	0.344992	0.825541
C91	C	-0.931814	-0.155004	0.238995
C92	C	-0.431814	0.344996	0.738995
C93	C	-0.931847	-0.155023	0.674569
C94	C	-0.431847	0.344977	1.174569
C95	C	-0.931860	-0.155024	0.761121
C96	C	-0.431860	0.344976	1.261121
C97	C	-1.045941	-0.052155	0.761118
C98	C	-0.545941	0.447845	1.261118
C99	C	-1.045934	-0.052151	0.674573
C100	C	-0.545934	0.447849	1.174573
C101	C	-0.988882	-0.103583	0.631303
C102	C	-0.488882	0.396417	1.131303
C103	C	-0.988878	-0.103582	0.537459
C104	C	-0.488878	0.396418	1.037459
C105	C	-0.988879	-0.103578	0.462661
C106	C	-0.488879	0.396422	0.962661
N107	N	-0.988901	-0.103587	0.804394
N108	N	-0.488901	0.396413	1.304394
H109	H	-0.577880	0.011101	0.056340
H110	H	-0.077880	0.511101	0.556340
H111	H	-0.416628	-0.113889	-0.137211
H112	H	0.083372	0.386111	0.362789
H113	H	-0.433187	0.013431	-0.055618
H114	H	0.066813	0.513431	0.444382
H115	H	-0.414016	-0.118297	0.137345
H116	H	0.085984	0.381703	0.637345
C117	C	-1.108678	0.004434	0.626976
C118	C	-0.608678	0.504434	1.126976
N119	N	-1.155934	0.047059	0.591127
N120	N	-0.655934	0.547059	1.091127
C121	C	-1.108694	0.004429	0.808723
C122	C	-0.608694	0.504429	1.308723
N123	N	-1.155958	0.047046	0.844577
N124	N	-0.655958	0.547046	1.344577
H125	H	-0.885411	-0.196911	0.796353
H126	H	-0.385411	0.303089	1.296353
H127	H	-1.129552	0.285740	0.000074
H128	H	-0.629552	0.785740	0.500074
H129	H	-0.885362	-0.196885	0.203765
H130	H	-0.385362	0.303115	0.703765
H131	H	-1.092355	-0.010254	0.203769
H132	H	-0.592355	0.489746	0.703769
C133	C	-0.427756	0.025201	0.076439
C134	C	0.072244	0.525201	0.576439
N135	N	-0.408956	0.058866	0.133733
N136	N	0.091044	0.558866	0.633733
H137	H	-0.577325	0.011312	-0.056319
H138	H	-0.077325	0.511312	0.443681
C139	C	-0.869196	-0.211698	0.626984
C140	C	-0.369196	0.288302	1.126984
N141	N	-0.822043	-0.254424	0.591139
N142	N	-0.322043	0.245576	1.091139
H143	H	-0.546690	-0.206534	0.083603
H144	H	-0.046690	0.293466	0.583603
H145	H	-0.402497	-0.204412	-0.082089
H146	H	0.097503	0.295588	0.417911
C147	C	-0.550417	-0.229026	-0.082418
C148	C	-0.050417	0.270974	0.417582
N149	N	-0.564668	-0.291763	-0.085396
N150	N	-0.064668	0.208237	0.414604
H151	H	-1.125053	0.539843	0.000070
H152	H	-0.625053	1.039843	0.500070
C153	C	-0.869072	-0.211581	0.373146
C154	C	-0.369072	0.288419	0.873146
N155	N	-0.821807	-0.254194	0.409001
N156	N	-0.321807	0.245806	0.909001
H157	H	-0.848204	0.507102	0.000032
H158	H	-0.348204	1.007102	0.500032
C159	C	-0.569913	-0.107432	-0.157399
C160	C	-0.069913	0.392568	0.342601
N161	N	-0.598845	-0.078580	-0.216853
N162	N	-0.098845	0.421420	0.283147
H163	H	-1.122518	0.683068	0.000065
H164	H	-0.622518	1.183068	0.500065
H165	H	-0.558819	-0.115535	0.136950
H166	H	-0.058819	0.384465	0.636950
C167	C	-0.823669	0.659018	0.000028
C168	C	-0.323669	1.159018	0.500028
N169	N	-0.759875	0.684244	0.000016
N170	N	-0.259875	1.184244	0.500016
H171	H	-0.855239	0.109776	0.000046
H172	H	-0.355239	0.609776	0.500046
H173	H	-1.132087	0.142527	0.000086
H174	H	-0.632087	0.642527	0.500086
C175	C	-0.391425	-0.227783	0.078548
C176	C	0.108575	0.272217	0.578548
N177	N	-0.358973	-0.289865	0.079081
N178	N	0.141027	0.210135	0.579081
C179	C	-0.830706	0.261701	0.000048
C180	C	-0.330706	0.761701	0.500048
N181	N	-0.766914	0.286930	0.000053
N182	N	-0.266914	0.786930	0.500053
H183	H	-1.092357	-0.010255	0.360776
H184	H	-0.592357	0.489745	0.860776
