data_functionalizedCrystal
_audit_creation_method	'MofGen! by Chris Wilmer'
_symmetry_space_group_name_H-M	'P1'
_symmetry_Int_Tables_number	1
_symmetry_cell_setting	triclinic
loop_
_symmetry_equiv_pos_as_xyz
  x,y,z
_cell_length_a	16.120490
_cell_length_b	16.120444
_cell_length_c	10.686551
_cell_angle_alpha	88.708632
_cell_angle_beta	82.497748
_cell_angle_gamma	90.165174
loop_
_atom_site_label
_atom_site_type_symbol
_atom_site_fract_x
_atom_site_fract_y
_atom_site_fract_z
Zn1	Zn	1.299161	-0.355281	-0.840282
Zn2	Zn	1.549161	-0.105281	-0.590282
Zn3	Zn	1.799161	0.144719	-0.340282
Zn4	Zn	2.049161	0.394719	-0.090282
Zn5	Zn	1.281312	-0.504003	-0.639306
Zn6	Zn	1.531312	-0.254003	-0.389306
Zn7	Zn	1.781312	-0.004003	-0.139306
Zn8	Zn	2.031312	0.245997	0.110694
Zn9	Zn	1.148278	-0.358926	-0.618009
Zn10	Zn	1.398278	-0.108926	-0.368009
Zn11	Zn	1.648278	0.141074	-0.118009
Zn12	Zn	1.898278	0.391074	0.131991
Zn13	Zn	1.152949	-0.487282	-0.839134
Zn14	Zn	1.402949	-0.237282	-0.589134
Zn15	Zn	1.652949	0.012718	-0.339134
Zn16	Zn	1.902949	0.262718	-0.089134
O17	O	1.220425	-0.426373	-0.734183
O18	O	1.470425	-0.176373	-0.484183
O19	O	1.720425	0.073627	-0.234183
O20	O	1.970425	0.323627	0.015817
O21	O	1.413658	-0.380482	-0.823015
O22	O	1.663658	-0.130482	-0.573015
O23	O	1.913658	0.119518	-0.323015
O24	O	2.163658	0.369518	-0.073015
O25	O	1.254240	-0.493281	-0.459830
O26	O	1.504240	-0.243281	-0.209830
O27	O	1.754240	0.006719	0.040170
O28	O	2.004240	0.256719	0.290170
O29	O	1.173808	-0.242485	-0.639061
O30	O	1.423808	0.007515	-0.389061
O31	O	1.673808	0.257515	-0.139061
O32	O	1.923808	0.507515	0.110939
O33	O	1.400545	-0.489747	-0.675359
O34	O	1.650545	-0.239747	-0.425359
O35	O	1.900545	0.010253	-0.175359
O36	O	2.150545	0.260253	0.074641
O37	O	1.284661	-0.239807	-0.802364
O38	O	1.534661	0.010193	-0.552364
O39	O	1.784661	0.260193	-0.302364
O40	O	2.034661	0.510193	-0.052364
O41	O	1.156501	-0.386694	-0.444183
O42	O	1.406501	-0.136694	-0.194183
O43	O	1.656501	0.113306	0.055817
O44	O	1.906501	0.363306	0.305817
O45	O	1.032033	-0.370481	-0.637948
O46	O	1.282033	-0.120481	-0.387948
O47	O	1.532033	0.129519	-0.137948
O48	O	1.782033	0.379519	0.112052
O49	O	1.181769	-0.461249	-1.015937
O50	O	1.431769	-0.211249	-0.765937
O51	O	1.681769	0.038751	-0.515937
O52	O	1.931769	0.288751	-0.265937
O53	O	1.035465	-0.464783	-0.800408
O54	O	1.285465	-0.214783	-0.550408
O55	O	1.535465	0.035217	-0.300408
O56	O	1.785465	0.285217	-0.050408
O57	O	1.289190	-0.364268	-1.016780
O58	O	1.539190	-0.114268	-0.766780
O59	O	1.789190	0.135732	-0.516780
O60	O	2.039190	0.385732	-0.266780
O61	O	1.258770	-0.617743	-0.674246
O62	O	1.508770	-0.367743	-0.424246
O63	O	1.758770	-0.117743	-0.174246
O64	O	2.008770	0.132257	0.075754
O65	O	1.164462	-0.605458	-0.821059
O66	O	1.414462	-0.355458	-0.571059
O67	O	1.664462	-0.105458	-0.321059
O68	O	1.914462	0.144542	-0.071059
C69	C	1.003447	-0.416213	-0.716743
C70	C	1.253447	-0.166213	-0.466743
C71	C	1.503447	0.083787	-0.216743
C72	C	1.753447	0.333787	0.033257
C73	C	0.910623	-0.411886	-0.709314
C74	C	1.160623	-0.161886	-0.459314
C75	C	1.410623	0.088114	-0.209314
C76	C	1.660623	0.338114	0.040686
C77	C	1.210210	-0.641667	-0.749868
C78	C	1.460210	-0.391667	-0.499868
C79	C	1.710210	-0.141667	-0.249868
C80	C	1.960210	0.108333	0.000132
C81	C	1.205919	-0.733772	-0.756627
C82	C	1.455919	-0.483772	-0.506627
C83	C	1.705919	-0.233772	-0.256627
C84	C	1.955919	0.016228	-0.006627
C85	C	0.701025	-0.448816	-0.772721
C86	C	0.951025	-0.198816	-0.522721
C87	C	1.201025	0.051184	-0.272721
C88	C	1.451025	0.301184	-0.022721
C89	C	0.740678	-0.403992	-0.695749
C90	C	0.990678	-0.153992	-0.445749
C91	C	1.240678	0.096008	-0.195749
C92	C	1.490678	0.346008	0.054251
C93	C	0.835245	-0.408385	-0.703299
C94	C	1.085245	-0.158385	-0.453299
C95	C	1.335245	0.091615	-0.203299
C96	C	1.585245	0.341615	0.046701
C97	C	0.606451	-0.444423	-0.765172
C98	C	0.856451	-0.194423	-0.515172
C99	C	1.106451	0.055577	-0.265172
C100	C	1.356451	0.305577	-0.015172
C101	C	1.242906	-0.949498	-0.699409
C102	C	1.492906	-0.699498	-0.449409
C103	C	1.742906	-0.449498	-0.199409
C104	C	1.992906	-0.199498	0.050591
C105	C	1.198100	-0.902404	-0.768981
C106	C	1.448100	-0.652404	-0.518981
C107	C	1.698100	-0.402404	-0.268981
C108	C	1.948100	-0.152404	-0.018981
C109	C	1.202452	-0.808568	-0.762105
C110	C	1.452452	-0.558568	-0.512105
C111	C	1.702452	-0.308568	-0.262105
C112	C	1.952452	-0.058568	-0.012105
C113	C	1.238555	-1.043342	-0.706284
C114	C	1.488555	-0.793342	-0.456284
C115	C	1.738555	-0.543342	-0.206284
C116	C	1.988555	-0.293342	0.043716
C117	C	1.438251	-0.436573	-0.751691
C118	C	1.688251	-0.186573	-0.501691
C119	C	1.938251	0.063427	-0.251691
C120	C	2.188251	0.313427	-0.001691
C121	C	1.531075	-0.440920	-0.759152
C122	C	1.781075	-0.190920	-0.509152
C123	C	2.031075	0.059080	-0.259152
C124	C	2.281075	0.309080	-0.009152
C125	C	1.237992	-0.410487	-1.063443
C126	C	1.487992	-0.160487	-0.813443
C127	C	1.737992	0.089513	-0.563443
C128	C	1.987992	0.339513	-0.313443
C129	C	1.245478	-0.403717	-1.203754
C130	C	1.495478	-0.153717	-0.953754
C131	C	1.745478	0.096283	-0.703754
C132	C	1.995478	0.346283	-0.453754
C133	C	1.230704	-0.210239	-0.718465
C134	C	1.480704	0.039761	-0.468465
C135	C	1.730704	0.289761	-0.218465
C136	C	1.980704	0.539761	0.031535
C137	C	1.235085	-0.118135	-0.711767
C138	C	1.485085	0.131865	-0.461767
C139	C	1.735085	0.381865	-0.211767
C140	C	1.985085	0.631865	0.038233
C141	C	1.202977	-0.442140	-0.406202
C142	C	1.452977	-0.192140	-0.156202
C143	C	1.702977	0.057860	0.093798
C144	C	1.952977	0.307860	0.343798
C145	C	1.195664	-0.448684	-0.265888
C146	C	1.445664	-0.198684	-0.015888
C147	C	1.695664	0.051316	0.234112
C148	C	1.945664	0.301316	0.484112
H149	H	0.703605	-0.362317	-0.624182
H150	H	0.953605	-0.112317	-0.374182
H151	H	1.203605	0.137683	-0.124182
H152	H	1.453605	0.387683	0.125818
H153	H	1.147292	-0.492365	-1.211741
H154	H	1.397292	-0.242365	-0.961741
H155	H	1.647292	0.007635	-0.711741
H156	H	1.897292	0.257635	-0.461741
N157	N	1.298045	-0.909564	-0.613676
N158	N	1.548045	-0.659564	-0.363676
N159	N	1.798045	-0.409564	-0.113676
N160	N	2.048045	-0.159564	0.136324
H161	H	1.293373	-0.847220	-0.620859
H162	H	1.543373	-0.597220	-0.370859
H163	H	1.793373	-0.347220	-0.120859
H164	H	2.043373	-0.097220	0.129141
H165	H	1.279594	-0.928422	-0.523549
H166	H	1.529594	-0.678422	-0.273549
H167	H	1.779594	-0.428422	-0.023549
H168	H	2.029594	-0.178422	0.226451
H169	H	1.156472	-0.932558	-0.833707
H170	H	1.406472	-0.682558	-0.583707
H171	H	1.656472	-0.432558	-0.333707
H172	H	1.906472	-0.182558	-0.083707
N173	N	1.309567	-0.345861	-1.275472
N174	N	1.559567	-0.095861	-1.025472
N175	N	1.809567	0.154139	-0.775472
N176	N	2.059567	0.404139	-0.525472
H177	H	1.306015	-0.349063	-1.368903
H178	H	1.556015	-0.099063	-1.118903
H179	H	1.806015	0.150937	-0.868903
H180	H	2.056015	0.400937	-0.618903
H181	H	1.298172	-0.287167	-1.247145
H182	H	1.548172	-0.037167	-0.997145
H183	H	1.798172	0.212833	-0.747145
H184	H	2.048172	0.462833	-0.497145
H185	H	0.738096	-0.490488	-0.844281
H186	H	0.988096	-0.240488	-0.594281
H187	H	1.238096	0.009512	-0.344281
H188	H	1.488096	0.259512	-0.094281
