data_functionalizedCrystal
_audit_creation_method	'MofGen! by Chris Wilmer'
_symmetry_space_group_name_H-M	'P1'
_symmetry_Int_Tables_number	1
_symmetry_cell_setting	triclinic
loop_
_symmetry_equiv_pos_as_xyz
  x,y,z
_cell_length_a	11.169417
_cell_length_b	17.077402
_cell_length_c	17.077396
_cell_angle_alpha	89.970216
_cell_angle_beta	90.015939
_cell_angle_gamma	89.975868
loop_
_atom_site_label
_atom_site_type_symbol
_atom_site_fract_x
_atom_site_fract_y
_atom_site_fract_z
Zn1	Zn	1.834815	0.312482	0.443761
Zn2	Zn	1.834673	0.443757	0.312492
Zn3	Zn	1.634114	0.312512	0.312517
Zn4	Zn	1.634065	0.443713	0.443724
O5	O	1.734417	0.378116	0.378123
O6	O	2.002746	0.329902	0.426353
O7	O	1.808030	0.426378	0.202648
O8	O	1.660817	0.202661	0.329953
O9	O	2.002642	0.426349	0.329910
O10	O	1.808272	0.202639	0.426377
O11	O	1.660679	0.329953	0.202667
O12	O	1.466158	0.329910	0.329917
O13	O	1.660734	0.426274	0.553576
O14	O	1.466122	0.426303	0.426314
O15	O	1.808224	0.329859	0.553603
O16	O	1.807982	0.553598	0.329874
O17	O	1.660596	0.553565	0.426290
C18	C	1.734301	0.582064	0.378092
C19	C	1.734361	0.669314	0.378105
C20	C	1.422592	0.378105	0.378114
C21	C	1.289192	0.378120	0.378129
C22	C	1.734489	0.378058	0.582868
C23	C	1.734520	0.378033	0.670118
C24	C	2.047459	0.378127	0.378133
C25	C	2.180859	0.378132	0.378137
C26	C	1.734566	0.173372	0.378172
C27	C	1.734629	0.086122	0.378193
C28	C	1.811184	0.710295	0.327955
C29	C	1.811242	0.792275	0.327975
C30	C	1.734472	0.833273	0.378142
C31	C	1.657646	0.792286	0.428297
C32	C	1.657594	0.710307	0.428280
C33	C	1.657757	0.963156	0.428327
C34	C	1.657807	1.045141	0.428342
C35	C	1.811405	1.045124	0.328022
C36	C	1.811353	0.963145	0.328005
C37	C	1.734526	0.922164	0.378160
C38	C	1.734414	0.378117	0.174176
C39	C	1.734615	0.377920	0.086926
C40	C	1.811321	0.327826	0.711123
C41	C	1.811336	0.327800	0.793104
C42	C	1.734554	0.377986	0.834077
C43	C	1.657745	0.428195	0.793066
C44	C	1.657725	0.428217	0.711087
C45	C	1.657793	0.428148	0.963936
C46	C	1.657814	0.428128	1.045921
C47	C	1.811404	0.327731	1.045953
C48	C	1.811384	0.327753	0.963974
C49	C	1.734576	0.377964	0.922968
H50	H	1.873694	0.676919	0.287101
O51	O	1.894283	1.089322	0.273934
H52	H	1.840627	1.126739	0.233981
O53	O	1.894136	0.273697	0.666931
H54	H	1.947535	0.238776	0.709221
H55	H	1.595224	0.469054	0.826433
O56	O	1.894093	0.836479	0.273881
H57	H	1.947454	0.794198	0.238987
H58	H	1.595229	0.469023	0.930552
H59	H	1.595200	0.929792	0.469170
H60	H	1.873878	0.286918	0.826487
O61	O	1.574992	1.089359	0.482444
H62	H	1.587922	1.153248	0.474016
H63	H	1.873860	0.929765	0.287152
H64	H	1.595143	0.825673	0.469146
O65	O	1.574723	0.666100	0.482360
H66	H	1.521336	0.708379	0.517240
H67	H	1.873913	0.286892	0.930616
O68	O	1.894240	0.273566	1.090173
H69	H	1.881345	0.281971	1.154062
O70	O	1.574991	0.482247	1.090119
H71	H	1.521563	0.517156	1.047834
H72	H	1.595174	0.469093	0.677701
