data_functionalizedCrystal
_audit_creation_method	'MofGen! by Chris Wilmer'
_symmetry_space_group_name_H-M	'P1'
_symmetry_Int_Tables_number	1
_symmetry_cell_setting	triclinic
loop_
_symmetry_equiv_pos_as_xyz
  x,y,z
_cell_length_a	10.654550
_cell_length_b	9.565339
_cell_length_c	10.489716
_cell_angle_alpha	89.995727
_cell_angle_beta	84.507019
_cell_angle_gamma	90.007114
loop_
_atom_site_label
_atom_site_type_symbol
_atom_site_fract_x
_atom_site_fract_y
_atom_site_fract_z
O1	O	1.667909	0.116361	0.179155
O2	O	1.302437	0.116338	0.196224
O3	O	1.493505	0.116355	0.002086
O4	O	1.476841	0.116344	0.373293
O5	O	1.493490	-0.116165	0.002098
O6	O	1.302422	-0.116182	0.196236
O7	O	1.667894	-0.116159	0.179167
Zn8	Zn	1.485155	-0.153088	0.187704
Zn9	Zn	1.485175	0.153267	0.187688
O10	O	1.476826	-0.116176	0.373305
C11	C	1.255631	0.000075	0.194977
C12	C	1.116186	0.000066	0.191227
N13	N	1.485151	-0.362168	0.187714
C14	C	1.036744	0.000083	0.305533
C15	C	0.905722	0.000108	0.302002
C16	C	0.933597	0.000104	0.069849
C17	C	1.064616	0.000069	0.073382
C18	C	1.020650	0.000091	0.439565
C19	C	0.889628	0.000116	0.436034
C20	C	1.396761	-0.453379	0.277466
C21	C	1.510474	-0.546551	0.303222
C22	C	1.371487	-0.546550	0.161968
C23	C	1.598922	-0.453288	0.213527
C24	C	1.459859	-0.453279	0.072223
C25	C	1.573654	-0.546410	0.097930
C26	C	1.714700	0.000107	0.180414
C27	C	1.854144	0.000125	0.184164
C28	C	1.492245	0.000099	-0.045440
C29	C	1.488499	0.000112	-0.187069
N30	N	1.485190	0.362346	0.187667
C31	C	1.605668	0.000107	-0.284800
C32	C	1.543761	0.114743	-0.362136
C33	C	1.543719	-0.114503	-0.362088
C34	C	1.426641	0.114843	-0.262540
C35	C	1.426616	-0.114506	-0.262487
C36	C	1.364623	0.000159	-0.339775
C37	C	1.478085	0.000083	0.420831
C38	C	1.481831	0.000080	0.562460
H39	H	1.129294	0.000036	-0.019697
C40	C	1.430873	-0.397878	-0.059652
N41	N	1.409026	-0.356146	-0.158979
C42	C	1.241605	-0.601887	0.132570
N43	N	1.143775	-0.643561	0.110436
H44	H	1.056328	0.100479	0.482237
C45	C	1.359840	-0.245457	-0.203664
N46	N	1.309550	-0.344101	-0.159362
C47	C	1.610592	0.245679	-0.420948
N48	N	1.660937	0.344293	-0.465245
H49	H	1.593199	-0.211418	-0.405580
C50	C	1.743351	0.000271	-0.251523
N51	N	1.847051	0.000401	-0.226457
C52	C	1.539402	-0.601914	0.435137
N53	N	1.561180	-0.643613	0.534497
H54	H	0.843965	-0.100271	0.476545
C55	C	1.359880	0.245930	-0.204020
N56	N	1.309603	0.344667	-0.159939
H57	H	1.648501	-0.587001	0.022006
C58	C	0.833279	0.131588	0.504239
N59	N	0.790838	0.230611	0.555606
C60	C	1.226836	0.000231	-0.372719
N61	N	1.123056	0.000293	-0.397535
C62	C	1.295880	-0.398177	0.380098
N63	N	1.219904	-0.356595	0.457404
C64	C	1.060300	-0.131378	0.510384
N65	N	1.090164	-0.230400	0.563720
H66	H	1.695084	-0.412495	0.235400
H67	H	0.891592	0.000128	-0.026097
