data_functionalizedCrystal
_audit_creation_method	'MofGen! by Chris Wilmer'
_symmetry_space_group_name_H-M	'P1'
_symmetry_Int_Tables_number	1
_symmetry_cell_setting	triclinic
loop_
_symmetry_equiv_pos_as_xyz
  x,y,z
_cell_length_a	10.654545
_cell_length_b	9.730223
_cell_length_c	10.654550
_cell_angle_alpha	90.004253
_cell_angle_beta	95.515995
_cell_angle_gamma	89.997167
loop_
_atom_site_label
_atom_site_type_symbol
_atom_site_fract_x
_atom_site_fract_y
_atom_site_fract_z
O1	O	1.667842	-0.114276	-0.176372
O2	O	1.302363	-0.114282	-0.193184
O3	O	1.493506	-0.114270	-0.002038
O4	O	1.476700	-0.114287	-0.367517
O5	O	1.493493	0.114310	-0.002033
O6	O	1.302351	0.114298	-0.193178
O7	O	1.667830	0.114304	-0.176366
Zn8	Zn	1.485088	0.150593	-0.184771
Zn9	Zn	1.485105	-0.150571	-0.184778
O10	O	1.476687	0.114292	-0.367512
C11	C	1.255559	0.000008	-0.191948
C12	C	1.116115	0.000006	-0.188258
C13	C	1.050604	0.124606	-0.186518
C14	C	0.919585	0.124606	-0.183031
C15	C	0.919599	-0.124605	-0.183028
C16	C	1.050617	-0.124603	-0.186507
C17	C	1.492266	0.000019	0.044762
C18	C	1.488574	0.000017	0.184206
C19	C	1.714634	0.000012	-0.177602
C20	C	1.854078	0.000005	-0.181292
N21	N	1.485086	0.356130	-0.184766
N22	N	1.485117	-0.356107	-0.184774
C23	C	1.569753	0.428061	-0.100163
C24	C	1.569766	0.571944	-0.100163
C25	C	1.400440	0.571952	-0.269381
C26	C	1.400423	0.428071	-0.269374
C27	C	1.477927	0.000000	-0.414312
C28	C	1.481619	-0.000007	-0.553755
C29	C	1.601115	0.000018	0.263693
C30	C	1.597639	0.000002	0.394714
C31	C	1.369069	-0.000012	0.366747
C32	C	1.372547	-0.000005	0.235729
H33	H	1.103958	-0.226074	-0.187920
H34	H	1.331471	0.369501	-0.338268
H35	H	1.638690	0.369489	-0.031268
H36	H	1.695592	0.000033	0.221748
H37	H	1.689282	-0.000000	0.459428
H38	H	1.280896	-0.000010	0.171006
H39	H	1.103929	0.226070	-0.187944
H40	H	0.866251	0.226067	-0.181614
H41	H	0.866254	-0.226057	-0.181603
H42	H	1.274604	-0.000027	0.408713
H43	H	1.331511	0.630541	-0.338269
H44	H	1.638708	0.630506	-0.031270
