data_functionalizedCrystal
_audit_creation_method	'MofGen! by Chris Wilmer'
_symmetry_space_group_name_H-M	'P1'
_symmetry_Int_Tables_number	1
_symmetry_cell_setting	triclinic
loop_
_symmetry_equiv_pos_as_xyz
  x,y,z
_cell_length_a	21.295418
_cell_length_b	21.295417
_cell_length_c	12.645323
_cell_angle_alpha	89.966008
_cell_angle_beta	89.958322
_cell_angle_gamma	90.046319
loop_
_atom_site_label
_atom_site_type_symbol
_atom_site_fract_x
_atom_site_fract_y
_atom_site_fract_z
Zn1	Zn	0.962343	-0.250338	-0.599917
Zn2	Zn	1.462343	0.249662	-0.099917
Zn3	Zn	0.962249	-0.355613	-0.422629
Zn4	Zn	1.462249	0.144387	0.077371
Zn5	Zn	0.857070	-0.250391	-0.422602
Zn6	Zn	1.357070	0.249609	0.077398
Zn7	Zn	0.857036	-0.355603	-0.599785
Zn8	Zn	1.357036	0.144397	-0.099785
O9	O	0.909674	-0.302986	-0.511233
O10	O	1.409674	0.197014	-0.011233
O11	O	1.050420	-0.264286	-0.576465
O12	O	1.550420	0.235714	-0.076465
O13	O	0.948272	-0.341681	-0.274278
O14	O	1.448272	0.158319	0.225722
O15	O	0.871088	-0.162294	-0.446168
O16	O	1.371088	0.337706	0.053832
O17	O	1.050351	-0.341631	-0.446212
O18	O	1.550351	0.158369	0.053788
O19	O	0.948432	-0.162256	-0.576440
O20	O	1.448432	0.337744	-0.076440
O21	O	0.870997	-0.264375	-0.274258
O22	O	1.370997	0.235625	0.225742
O23	O	0.768976	-0.264365	-0.446040
O24	O	1.268976	0.235635	0.053960
O25	O	0.871030	-0.341613	-0.748150
O26	O	1.371030	0.158387	-0.248150
O27	O	0.768951	-0.341664	-0.576215
O28	O	1.268951	0.158336	-0.076215
O29	O	0.948399	-0.264276	-0.748247
O30	O	1.448399	0.235724	-0.248247
O31	O	0.948239	-0.443701	-0.446085
O32	O	1.448239	0.056299	0.053915
O33	O	0.870939	-0.443694	-0.576241
O34	O	1.370939	0.056306	-0.076241
C35	C	0.746123	-0.303019	-0.511111
C36	C	1.246123	0.196981	-0.011111
C37	C	0.676155	-0.303049	-0.511084
C38	C	1.176155	0.196951	-0.011084
C39	C	0.643291	-0.343352	-0.578765
C40	C	1.143291	0.156648	-0.078765
C41	C	0.577549	-0.343336	-0.578813
C42	C	1.077549	0.156664	-0.078813
C43	C	0.544672	-0.303024	-0.511160
C44	C	1.044672	0.196976	-0.011160
C45	C	0.577543	-0.262714	-0.443475
C46	C	1.077543	0.237286	0.056525
C47	C	0.643285	-0.262726	-0.443437
C48	C	1.143285	0.237274	0.056563
N49	N	0.441398	-0.298109	-0.418440
N50	N	0.941398	0.201891	0.081560
N51	N	0.378947	-0.298101	-0.418480
N52	N	0.878947	0.201899	0.081520
C53	C	0.346598	-0.302984	-0.511273
C54	C	0.846598	0.197016	-0.011273
N55	N	0.379059	-0.307888	-0.604027
N56	N	0.879059	0.192112	-0.104027
N57	N	0.441516	-0.307899	-0.603987
N58	N	0.941516	0.192101	-0.103987
C59	C	0.473387	-0.303006	-0.511195
C60	C	0.973387	0.196994	-0.011195
C61	C	0.242449	-0.343272	-0.579011
C62	C	0.742449	0.156728	-0.079011
C63	C	0.176705	-0.343252	-0.579061
C64	C	0.676705	0.156748	-0.079061
C65	C	0.176701	-0.262633	-0.443713
C66	C	0.676701	0.237367	0.056287
C67	C	0.242443	-0.262650	-0.443673
C68	C	0.742443	0.237350	0.056327
C69	C	0.275313	-0.302973	-0.511321
C70	C	0.775313	0.197027	-0.011321
C71	C	0.909592	-0.466538	-0.511175
C72	C	1.409592	0.033462	-0.011175
C73	C	0.909614	-0.536506	-0.511185
C74	C	1.409614	-0.036506	-0.011185
C75	C	0.949900	-0.569356	-0.443482
C76	C	1.449900	-0.069356	0.056518
C77	C	0.949930	-0.635098	-0.443506
C78	C	1.449930	-0.135098	0.056494
C79	C	0.909662	-0.667988	-0.511221
C80	C	1.409662	-0.167988	-0.011221
C81	C	0.869373	-0.635131	-0.578937
C82	C	1.369373	-0.135131	-0.078937
C83	C	0.869349	-0.569390	-0.578919
C84	C	1.369349	-0.069390	-0.078919
N85	N	0.854595	-0.771269	-0.519262
N86	N	1.354595	-0.271269	-0.019262
N87	N	0.854619	-0.833721	-0.519273
N88	N	1.354619	-0.333721	-0.019273
C89	C	0.909733	-0.866063	-0.511282
C90	C	1.409733	-0.366063	-0.011282
N91	N	0.964822	-0.833595	-0.503259
N92	N	1.464822	-0.333595	-0.003259
N93	N	0.964796	-0.771138	-0.503242
N94	N	1.464796	-0.271138	-0.003242
C95	C	0.909684	-0.739274	-0.511249
C96	C	1.409684	-0.239274	-0.011249
C97	C	0.950054	-0.970198	-0.443602
C98	C	1.450054	-0.470198	0.056398
C99	C	0.950084	-1.035942	-0.443633
C100	C	1.450084	-0.535942	0.056367
C101	C	0.869522	-1.035973	-0.579059
C102	C	1.369522	-0.535973	-0.079059
C103	C	0.869497	-0.970231	-0.579033
C104	C	1.369497	-0.470231	-0.079033
C105	C	0.909762	-0.937347	-0.511299
C106	C	1.409762	-0.437347	-0.011299
C107	C	1.073865	-0.302953	-0.511356
C108	C	1.573865	0.197047	-0.011356
C109	C	1.143833	-0.302939	-0.511409
C110	C	1.643833	0.197061	-0.011409
C111	C	0.909721	-0.302938	-0.787739
C112	C	1.409721	0.197062	-0.287739
C113	C	0.909741	-0.302917	-0.905569
C114	C	1.409741	0.197083	-0.405569
C115	C	0.909774	-0.138796	-0.511315
C116	C	1.409774	0.361204	-0.011315
C117	C	0.909817	-0.068828	-0.511350
C118	C	1.409817	0.431172	-0.011350
C119	C	0.860918	-0.351341	-1.073072
C120	C	1.360918	0.148659	-0.573072
C121	C	0.861045	-0.351580	-0.950512
C122	C	1.361045	0.148420	-0.450512
C123	C	0.976064	-0.320902	-0.950121
C124	C	1.476064	0.179098	-0.450121
C125	C	0.975797	-0.321205	-1.072719
C126	C	1.475797	0.178795	-0.572719
C127	C	0.892867	-0.236237	-1.072775
C128	C	1.392867	0.263763	-0.572775
C129	C	0.891387	-0.236637	-0.950168
C130	C	1.391387	0.263363	-0.450168
C131	C	0.909665	-0.302989	-0.235804
C132	C	1.409665	0.197011	0.264196
C133	C	0.909767	-0.302833	-0.117974
C134	C	1.409767	0.197167	0.382026
H135	H	0.269201	-0.229834	-0.388554
H136	H	0.769201	0.270166	0.111446
H137	H	0.149933	-0.229808	-0.388634
H138	H	0.649933	0.270192	0.111366
H139	H	0.670050	-0.376185	-0.633851
H140	H	1.170050	0.123815	-0.133851
C141	C	0.584150	-0.423030	-0.712588
C142	C	1.084150	0.076970	-0.212588
C143	C	0.541415	-0.387638	-0.653217
C144	C	1.041415	0.112362	-0.153217
H145	H	0.561842	-0.450380	-0.758518
H146	H	1.061842	0.049620	-0.258518
H147	H	0.609844	-0.395640	-0.753207
H148	H	1.109844	0.104360	-0.253207
H149	H	0.609738	-0.447080	-0.666300
H150	H	1.109738	0.052920	-0.166300
H151	H	0.515830	-0.363584	-0.699504
H152	H	1.015830	0.136416	-0.199504
H153	H	0.515710	-0.415031	-0.612594
H154	H	1.015710	0.084969	-0.112594
C155	C	0.965998	-0.156201	-0.994400
C156	C	1.465998	0.343799	-0.494400
C157	C	0.935907	-0.185263	-0.908881
C158	C	1.435907	0.314737	-0.408881
H159	H	0.993482	-0.124483	-0.968910
H160	H	1.493482	0.375517	-0.468910
H161	H	0.989440	-0.186557	-1.032696
H162	H	1.489440	0.313443	-0.532696
H163	H	0.935477	-0.137844	-1.039584
H164	H	1.435477	0.362156	-0.539584
H165	H	0.966428	-0.203624	-0.863701
H166	H	1.466428	0.296376	-0.363701
H167	H	0.912463	-0.154901	-0.870568
H168	H	1.412463	0.345099	-0.370568
C169	C	1.034856	-1.109698	-0.429230
C170	C	1.534856	-0.609698	0.070770
C171	C	0.994434	-1.072018	-0.369267
C172	C	1.494434	-0.572018	0.130733
H173	H	1.062256	-1.131957	-0.383335
H174	H	1.562256	-0.631957	0.116665
H175	H	1.010883	-1.138718	-0.469506
H176	H	1.510883	-0.638718	0.030494
H177	H	1.058849	-1.083970	-0.475505
H178	H	1.558849	-0.583970	0.024495
H179	H	0.970437	-1.097747	-0.322998
H180	H	1.470437	-0.597747	0.177002
H181	H	1.018409	-1.042995	-0.328974
H182	H	1.518409	-0.542995	0.171026
H183	H	0.811590	-0.340197	-1.102521
H184	H	1.311590	0.159803	-0.602521
H185	H	0.928446	-0.200097	-1.101818
H186	H	1.428446	0.299903	-0.601818
H187	H	0.836739	-1.062752	-0.634199
H188	H	1.336739	-0.562752	-0.134199
H189	H	0.836690	-0.943483	-0.634159
H190	H	1.336690	-0.443483	-0.134159
H191	H	0.845346	-0.219840	-1.103657
H192	H	1.345346	0.280160	-0.603657
H193	H	0.871964	-0.400403	-1.103884
H194	H	1.371964	0.099597	-0.603884
H195	H	0.811864	-0.340328	-0.920386
H196	H	1.311864	0.159672	-0.420386
C197	C	0.885127	-0.458078	-0.997638
C198	C	1.385127	0.041922	-0.497638
C199	C	0.876154	-0.418216	-0.910919
C200	C	1.376154	0.081784	-0.410919
H201	H	0.894466	-0.499215	-0.973193
H202	H	1.394466	0.000785	-0.473193
H203	H	0.847984	-0.459104	-1.039141
H204	H	1.347984	0.040896	-0.539141
H205	H	0.919026	-0.442952	-1.039383
H206	H	1.419026	0.057048	-0.539383
H207	H	0.842252	-0.433339	-0.869179
H208	H	1.342252	0.066661	-0.369179
H209	H	0.913302	-0.417192	-0.869399
H210	H	1.413302	0.082808	-0.369399
H211	H	0.990123	-0.369887	-1.101325
H212	H	1.490123	0.130113	-0.601325
H213	H	0.149949	-0.376071	-0.634181
H214	H	0.649949	0.123929	-0.134181
H215	H	0.982842	-0.943423	-0.388451
H216	H	1.482842	-0.443423	0.111549
H217	H	1.013426	-0.287407	-1.102428
H218	H	1.513426	0.212593	-0.602428
H219	H	1.013436	-0.286688	-0.921016
H220	H	1.513436	0.213312	-0.421016
H221	H	0.836588	-0.661914	-0.634074
H222	H	1.336588	-0.161914	-0.134074
H223	H	0.982737	-0.661849	-0.388374
H224	H	1.482737	-0.161849	0.111626
C225	C	1.005118	-0.426616	-0.994210
C226	C	1.505118	0.073384	-0.494210
C227	C	0.995740	-0.385934	-0.908701
C228	C	1.495740	0.114066	-0.408701
H229	H	1.017266	-0.466763	-0.968639
H230	H	1.517266	0.033237	-0.468639
H231	H	0.967240	-0.430364	-1.033323
H232	H	1.467240	0.069636	-0.533323
H233	H	1.037216	-0.410312	-1.038649
H234	H	1.537216	0.089688	-0.538649
H235	H	0.963638	-0.402236	-0.864265
H236	H	1.463638	0.097764	-0.364265
H237	H	1.033622	-0.382187	-0.869570
H238	H	1.533622	0.117813	-0.369570
H239	H	0.982688	-0.542584	-0.388331
H240	H	1.482688	-0.042584	0.111669
H241	H	0.836543	-0.542643	-0.634052
H242	H	1.336543	-0.042643	-0.134052
H243	H	0.670042	-0.229904	-0.388322
H244	H	1.170042	0.270096	0.111678
C245	C	0.809533	-0.159165	-0.951018
C246	C	1.309533	0.340835	-0.451018
C247	C	0.825498	-0.218321	-0.910858
C248	C	1.325498	0.281679	-0.410858
H249	H	0.768854	-0.147862	-0.926750
H250	H	1.268854	0.352138	-0.426750
H251	H	0.839221	-0.128960	-0.927442
H252	H	1.339221	0.371040	-0.427442
H253	H	0.809687	-0.160557	-1.026102
H254	H	1.309687	0.339443	-0.526102
H255	H	0.825348	-0.216927	-0.835773
H256	H	1.325348	0.283073	-0.335773
H257	H	0.795802	-0.248533	-0.934428
H258	H	1.295802	0.251467	-0.434428
C259	C	0.503539	-0.253856	-0.300932
C260	C	1.003539	0.246144	0.199068
C261	C	0.541411	-0.218405	-0.369099
C262	C	1.041411	0.281595	0.130901
H263	H	0.481238	-0.226499	-0.255011
H264	H	0.981238	0.273501	0.244989
H265	H	0.474557	-0.277849	-0.341248
H266	H	0.974557	0.222151	0.158752
H267	H	0.529142	-0.281256	-0.260292
H268	H	1.029142	0.218744	0.239708
H269	H	0.515807	-0.191009	-0.409745
H270	H	1.015807	0.308991	0.090255
H271	H	0.570397	-0.194401	-0.328779
H272	H	1.070397	0.305599	0.171221
C273	C	0.235852	-0.422951	-0.712813
C274	C	0.735852	0.077049	-0.212813
C275	C	0.278585	-0.387585	-0.653382
C276	C	0.778585	0.112415	-0.153382
H277	H	0.258161	-0.450303	-0.758731
H278	H	0.758161	0.049697	-0.258731
H279	H	0.210158	-0.446992	-0.666570
H280	H	0.710158	0.053008	-0.166570
H281	H	0.210263	-0.395540	-0.753457
H282	H	0.710263	0.104460	-0.253457
H283	H	0.304171	-0.414996	-0.612732
H284	H	0.804171	0.085004	-0.112732
H285	H	0.304289	-0.363542	-0.699631
H286	H	0.804289	0.136458	-0.199631
