data_functionalizedCrystal
_audit_creation_method	'MofGen! by Chris Wilmer'
_symmetry_space_group_name_H-M	'P1'
_symmetry_Int_Tables_number	1
_symmetry_cell_setting	triclinic
loop_
_symmetry_equiv_pos_as_xyz
  x,y,z
_cell_length_a	15.944486
_cell_length_b	16.109301
_cell_length_c	14.586319
_cell_angle_alpha	89.994786
_cell_angle_beta	90.007006
_cell_angle_gamma	96.533053
loop_
_atom_site_label
_atom_site_type_symbol
_atom_site_fract_x
_atom_site_fract_y
_atom_site_fract_z
O1	O	-1.114521	0.106972	-0.076318
O2	O	-0.869960	0.120248	-0.076303
O3	O	-0.998959	-0.007420	-0.076302
O4	O	-0.985522	0.234640	-0.076319
O5	O	-0.998950	-0.007422	0.076179
O6	O	-0.869951	0.120246	0.076177
O7	O	-1.114512	0.106970	0.076163
Cu8	Cu	-0.992231	0.113608	0.090093
Cu9	Cu	-0.992242	0.113610	-0.090233
O10	O	-0.985513	0.234639	0.076161
C11	C	-0.838661	0.119705	-0.000061
C12	C	-0.745412	0.118081	-0.000055
C13	C	-0.453850	0.192263	-0.000070
C14	C	-0.514897	0.153707	-0.075250
C15	C	-0.409776	0.112181	-0.000070
C16	C	-0.514874	0.153683	0.075084
C17	C	-0.574685	0.115085	-0.000062
C18	C	-0.469595	0.073603	-0.075313
C19	C	-0.469565	0.073590	0.075088
C20	C	-0.530594	0.034976	-0.000111
C21	C	-0.314776	0.110511	-0.000076
C22	C	-0.669684	0.116749	-0.000062
C23	C	-0.998410	-0.038396	-0.000061
C24	C	-0.996778	-0.130692	-0.000059
C25	C	-1.069530	-0.352957	-0.000078
C26	C	-1.067990	-0.439678	-0.000085
C27	C	-0.914937	-0.419818	-0.000073
C28	C	-0.916478	-0.333099	-0.000072
C29	C	-0.993776	-0.299671	-0.000070
C30	C	-0.990696	-0.473111	-0.000078
C31	C	-0.989026	-0.567137	-0.000086
C32	C	-0.995447	-0.205639	-0.000064
C33	C	-0.145810	0.107524	-0.000077
C34	C	-0.239054	0.109182	-0.000075
C35	C	-0.986062	0.265614	-0.000082
C36	C	-0.987694	0.357910	-0.000089
N37	N	-0.992230	0.113606	0.216925
N38	N	-0.992249	0.113606	-0.217065
C39	C	-1.049369	0.057093	0.451932
C40	C	-1.049372	0.057091	0.547913
C41	C	-0.935104	0.170121	0.547921
C42	C	-0.935098	0.170118	0.451942
C43	C	-0.992235	0.113606	0.403950
C44	C	-0.992244	0.113606	0.595910
C45	C	-0.992246	0.113604	0.699977
C46	C	-0.992232	0.113606	0.299876
H47	H	-0.449630	0.039763	-0.138943
C48	C	-0.872248	0.232286	0.399152
C49	C	-0.809429	0.294480	0.451936
C50	C	-0.746580	0.356642	0.399145
C51	C	-0.746549	0.356610	0.293572
C52	C	-0.809370	0.294414	0.240782
C53	C	-0.872219	0.232252	0.293573
H54	H	-0.809450	0.294506	0.530093
H55	H	-0.700076	0.402684	0.438224
H56	H	-0.700024	0.402626	0.254493
H57	H	-0.809349	0.294388	0.162625
H58	H	-0.918723	0.186210	0.254494
H59	H	-0.563794	-0.031547	-0.000146
H60	H	-0.420498	0.258726	-0.000147
H61	H	-0.449456	0.039746	0.138654
H62	H	-0.534988	0.187582	-0.138811
H63	H	-1.095894	0.011073	0.586978
C64	C	-1.151321	-0.498292	-0.000091
C65	C	-1.214659	-0.494569	0.079087
C66	C	-1.297994	-0.553183	0.079080
C67	C	-1.317990	-0.615519	-0.000105
C68	C	-1.254650	-0.619244	-0.079289
C69	C	-1.171316	-0.560630	-0.079282
H70	H	-1.199858	-0.448422	0.137710
H71	H	-1.344882	-0.550425	0.137697
H72	H	-1.379680	-0.658908	-0.000111
H73	H	-1.269452	-0.665391	-0.137912
H74	H	-1.124427	-0.563388	-0.137899
H75	H	-1.095893	0.011076	0.412859
C76	C	-0.829911	-0.456591	-0.000073
C77	C	-0.828212	-0.551978	-0.000075
C78	C	-0.743184	-0.588748	-0.000076
C79	C	-0.659856	-0.530132	-0.000075
C80	C	-0.661553	-0.434740	-0.000074
C81	C	-0.746580	-0.397969	-0.000073
H82	H	-0.889899	-0.595374	-0.000075
H83	H	-0.741929	-0.659364	-0.000077
H84	H	-0.596914	-0.557352	-0.000076
H85	H	-0.599866	-0.391344	-0.000074
H86	H	-0.747836	-0.327353	-0.000072
H87	H	-0.534934	0.187567	0.138639
H88	H	-1.132471	-0.325743	-0.000078
C89	C	-0.833143	-0.274478	-0.000061
C90	C	-0.769799	-0.278201	-0.079233
C91	C	-0.686468	-0.219581	-0.079226
C92	C	-0.666482	-0.157237	-0.000046
C93	C	-0.729828	-0.153511	0.079132
C94	C	-0.813158	-0.212131	0.079125
H95	H	-0.784593	-0.324354	-0.137852
H96	H	-0.639576	-0.222339	-0.137839
H97	H	-0.604796	-0.113842	-0.000040
H98	H	-0.715034	-0.107358	0.137751
H99	H	-0.860051	-0.209373	0.137738
H100	H	-0.888585	0.216134	0.587006
