data_functionalizedCrystal
_audit_creation_method	'MofGen! by Chris Wilmer'
_symmetry_space_group_name_H-M	'P1'
_symmetry_Int_Tables_number	1
_symmetry_cell_setting	triclinic
loop_
_symmetry_equiv_pos_as_xyz
  x,y,z
_cell_length_a	10.540539
_cell_length_b	10.540539
_cell_length_c	9.016244
_cell_angle_alpha	89.999933
_cell_angle_beta	89.994699
_cell_angle_gamma	84.525492
loop_
_atom_site_label
_atom_site_type_symbol
_atom_site_fract_x
_atom_site_fract_y
_atom_site_fract_z
O1	O	1.685893	0.178895	-0.123263
O2	O	1.316480	0.195751	-0.123280
O3	O	1.509614	0.002617	-0.123269
O4	O	1.492759	0.372030	-0.123274
O5	O	1.509586	0.002621	0.123411
O6	O	1.316452	0.195755	0.123400
O7	O	1.685865	0.178900	0.123418
Cu8	Cu	1.501156	0.187328	0.145933
Cu9	Cu	1.501189	0.187323	-0.145795
O10	O	1.492730	0.372034	0.123407
C11	C	1.269163	0.194489	0.000058
C12	C	1.128215	0.190707	0.000051
C13	C	1.508336	-0.044684	0.000068
C14	C	1.504554	-0.185632	0.000060
C15	C	0.944788	0.045790	0.000628
C16	C	1.091406	0.049624	0.000057
C17	C	1.066558	0.258600	-0.140811
C18	C	0.920014	0.253785	-0.140914
C19	C	0.919493	0.256660	0.139608
C20	C	1.066475	0.257960	0.141455
C21	C	1.359637	-0.369059	-0.000500
C22	C	1.363471	-0.222441	0.000055
C23	C	1.572434	-0.247287	0.140930
C24	C	1.567619	-0.393832	0.141049
C25	C	1.570520	-0.394355	-0.139473
C26	C	1.571820	-0.247373	-0.141336
C27	C	1.733182	0.180161	0.000077
C28	C	1.874130	0.183943	0.000074
C29	C	1.494008	0.419335	0.000066
C30	C	1.497790	0.560283	0.000064
N31	N	1.501141	0.187331	0.351119
N32	N	1.501213	0.187310	-0.350982
C33	C	1.397510	0.290298	0.586146
C34	C	1.397739	0.290684	0.414255
C35	C	1.633864	0.217464	0.413464
C36	C	1.633298	0.218193	0.585409
C37	C	1.473367	0.053892	0.585663
C38	C	1.470322	0.054757	0.413709
H39	H	1.134008	-0.003797	0.101034
Cl40	Cl	1.103864	0.416774	0.154582
Cl41	Cl	1.425324	0.443522	0.350716
Cl42	Cl	1.499599	-0.181522	0.302779
H43	H	1.088912	0.362208	-0.146054
Cl44	Cl	1.155840	-0.033078	-0.156376
H45	H	1.548979	-0.022762	0.626319
Cl46	Cl	1.727850	-0.467270	-0.140934
Cl47	Cl	1.319576	0.019487	0.350802
H48	H	1.524871	-0.425910	-0.246244
H49	H	1.540849	-0.025564	0.370737
H50	H	1.522153	-0.206517	-0.245547
Cl51	Cl	0.870779	0.186165	0.304459
Cl52	Cl	0.845949	0.410434	-0.150791
Cl53	Cl	0.900629	-0.040262	0.156597
Cl54	Cl	0.898164	-0.039911	-0.154458
Cl55	Cl	0.846580	0.413990	0.141078
H56	H	1.676041	-0.224933	0.146173
H57	H	0.891816	0.203602	-0.246209
H58	H	1.109159	0.211434	-0.245643
Cl59	Cl	1.281005	-0.156661	-0.155851
Cl60	Cl	1.730631	-0.209973	-0.154473
H61	H	1.517429	-0.422030	0.246347
Cl62	Cl	1.129540	0.181256	0.302346
H63	H	1.669083	-0.441800	0.147444
Cl64	Cl	1.273602	-0.413214	-0.156470
Cl65	Cl	1.245460	0.262774	0.349174
Cl66	Cl	1.273681	-0.416237	0.154127
H67	H	1.658762	0.313702	0.370386
Cl68	Cl	1.280388	-0.157960	0.156212
Cl69	Cl	1.244765	0.262720	0.650011
H70	H	1.415177	0.388722	0.629339
H71	H	1.657653	0.315531	0.625498
H72	H	1.712941	0.146204	0.626995
Cl73	Cl	1.755925	0.104815	0.350327
Cl74	Cl	1.327074	0.009637	0.652683
