data_functionalizedCrystal
_audit_creation_method	'MofGen! by Chris Wilmer'
_symmetry_space_group_name_H-M	'P1'
_symmetry_Int_Tables_number	1
_symmetry_cell_setting	triclinic
loop_
_symmetry_equiv_pos_as_xyz
  x,y,z
_cell_length_a	12.827893
_cell_length_b	12.827892
_cell_length_c	10.686551
_cell_angle_alpha	94.405078
_cell_angle_beta	94.395101
_cell_angle_gamma	90.015362
loop_
_atom_site_label
_atom_site_type_symbol
_atom_site_fract_x
_atom_site_fract_y
_atom_site_fract_z
Zn1	Zn	1.643031	-0.370627	0.713454
Zn2	Zn	2.143031	0.129373	1.213454
Zn3	Zn	1.629510	-0.558818	0.502454
Zn4	Zn	2.129510	-0.058818	1.002454
Zn5	Zn	1.454858	-0.384091	0.502470
Zn6	Zn	1.954858	0.115909	1.002470
Zn7	Zn	1.468255	-0.545330	0.713406
Zn8	Zn	1.968255	-0.045330	1.213406
O9	O	1.548913	-0.464717	0.607946
O10	O	2.048913	0.035283	1.107946
O11	O	1.787474	-0.395602	0.685478
O12	O	2.287474	0.104398	1.185478
O13	O	1.595077	-0.546920	0.325875
O14	O	2.095077	-0.046920	0.825875
O15	O	1.479872	-0.236067	0.530485
O16	O	1.979872	0.263933	1.030485
O17	O	1.777540	-0.533865	0.530457
O18	O	2.277540	-0.033865	1.030457
O19	O	1.618122	-0.226175	0.685493
O20	O	2.118122	0.273825	1.185493
O21	O	1.466761	-0.418548	0.325887
O22	O	1.966761	0.081452	0.825887
O23	O	1.310398	-0.405469	0.530438
O24	O	1.810398	0.094531	1.030438
O25	O	1.502704	-0.510876	0.889993
O26	O	2.002704	-0.010876	1.389993
O27	O	1.320241	-0.523931	0.685411
O28	O	1.820241	-0.023931	1.185411
O29	O	1.631112	-0.382522	0.890028
O30	O	2.131112	0.117478	1.390028
O31	O	1.608067	-0.703267	0.530411
O32	O	2.108067	-0.203267	1.030411
O33	O	1.489593	-0.693357	0.685396
O34	O	1.989593	-0.193357	1.185396
C35	C	1.277402	-0.464698	0.607922
C36	C	1.777402	0.035302	1.107922
C37	C	1.161250	-0.464713	0.607942
C38	C	1.661250	0.035287	1.107942
C39	C	1.548847	-0.736228	0.607924
C40	C	2.048847	-0.236228	1.107924
C41	C	1.548916	-0.852379	0.607956
C42	C	2.048916	-0.352379	1.107956
C43	C	1.490347	-1.019340	0.684624
C44	C	1.990347	-0.519340	1.184624
C45	C	1.490273	-0.899292	0.684592
C46	C	1.990273	-0.399292	1.184592
C47	C	1.114356	-0.523438	0.684509
C48	C	1.614356	-0.023438	1.184509
C49	C	0.994307	-0.523456	0.684531
C50	C	1.494307	-0.023456	1.184531
C51	C	1.821485	-0.464736	0.607971
C52	C	2.321485	0.035264	1.107971
C53	C	1.937639	-0.464744	0.607982
C54	C	2.437639	0.035256	1.107982
C55	C	1.569911	-0.443693	0.937077
C56	C	2.069911	0.056307	1.437077
C57	C	1.578858	-0.434733	1.077332
C58	C	2.078858	0.065267	1.577332
C59	C	1.549011	-0.192143	0.607996
C60	C	2.049011	0.307857	1.107996
C61	C	1.549052	-0.075989	0.608017
C62	C	2.049052	0.424011	1.108017
C63	C	1.528058	-0.485583	0.280096
C64	C	2.028058	0.014417	0.780096
C65	C	1.519313	-0.494248	0.139841
C66	C	2.019313	0.005752	0.639841
H67	H	1.440146	-1.059716	0.750238
H68	H	1.940146	-0.559716	1.250238
H69	H	1.599262	-1.035613	0.542413
H70	H	2.099262	-0.535613	1.042413
Cl71	Cl	1.189579	-0.601052	0.785691
Cl72	Cl	1.689579	-0.101052	1.285691
Cl73	Cl	1.430036	-0.583506	1.056807
Cl74	Cl	1.930036	-0.083506	1.556807
H75	H	0.977978	-0.414469	0.542421
H76	H	1.477978	0.085531	1.042421
Cl77	Cl	1.412666	-0.824113	0.785849
Cl78	Cl	1.912666	-0.324113	1.285849
Cl79	Cl	0.932020	-0.601090	0.785737
Cl80	Cl	1.432020	-0.101090	1.285737
Cl81	Cl	1.086027	-0.387099	0.506761
Cl82	Cl	1.586027	0.112901	1.006761
H83	H	1.636691	-0.376927	1.131122
H84	H	2.136691	0.123073	1.631122
Cl85	Cl	1.626514	-0.927553	0.506681
Cl86	Cl	2.126514	-0.427553	1.006681
