data_functionalizedCrystal
_audit_creation_method	'MofGen! by Chris Wilmer'
_symmetry_space_group_name_H-M	'P1'
_symmetry_Int_Tables_number	1
_symmetry_cell_setting	triclinic
loop_
_symmetry_equiv_pos_as_xyz
  x,y,z
_cell_length_a	10.540539
_cell_length_b	11.792241
_cell_length_c	10.868271
_cell_angle_alpha	90.005281
_cell_angle_beta	90.002250
_cell_angle_gamma	84.359454
loop_
_atom_site_label
_atom_site_type_symbol
_atom_site_fract_x
_atom_site_fract_y
_atom_site_fract_z
O1	O	-1.685366	-0.159957	-0.102265
O2	O	-1.185366	0.340043	0.397735
O3	O	-1.315904	-0.175028	-0.102280
O4	O	-0.815904	0.324972	0.397720
O5	O	-1.509601	-0.002345	-0.102263
O6	O	-1.009601	0.497655	0.397737
O7	O	-1.491669	-0.332639	-0.102281
O8	O	-0.991669	0.167361	0.397719
O9	O	-1.509585	-0.002338	0.102381
O10	O	-1.009585	0.497662	0.602381
O11	O	-1.315888	-0.175021	0.102365
O12	O	-0.815888	0.324979	0.602365
O13	O	-1.685350	-0.159950	0.102380
O14	O	-1.185350	0.340050	0.602380
Zn15	Zn	-1.500616	-0.167484	0.134864
Zn16	Zn	-1.000616	0.332516	0.634864
Zn17	Zn	-1.500637	-0.167493	-0.134764
Zn18	Zn	-1.000637	0.332507	0.365236
O19	O	-1.491653	-0.332632	0.102363
O20	O	-0.991653	0.167368	0.602363
C21	C	-1.268596	-0.173894	0.000040
C22	C	-0.768596	0.326106	0.500040
C23	C	-1.127659	-0.170513	0.000035
C24	C	-0.627659	0.329487	0.500035
C25	C	-1.508466	0.039952	0.000058
C26	C	-1.008466	0.539952	0.500058
C27	C	-1.505095	0.165975	0.000057
C28	C	-1.005095	0.665975	0.500057
C29	C	-1.732657	-0.161083	0.000057
C30	C	-1.232657	0.338917	0.500057
C31	C	-1.873594	-0.164465	0.000054
C32	C	-1.373594	0.335535	0.500054
C33	C	-0.944655	-0.040941	0.000520
C34	C	-0.444655	0.459059	0.500520
C35	C	-1.091262	-0.044369	0.000045
C36	C	-0.591262	0.455631	0.500045
C37	C	-1.065798	-0.231222	-0.116826
C38	C	-0.565798	0.268778	0.383174
C39	C	-0.919268	-0.226917	-0.116911
C40	C	-0.419268	0.273083	0.383089
C41	C	-0.918753	-0.229475	0.115808
C42	C	-0.418753	0.270525	0.615808
C43	C	-1.065731	-0.230637	0.117340
C44	C	-0.565731	0.269363	0.617340
C45	C	-1.492787	-0.374930	0.000039
C46	C	-0.992787	0.125070	0.500039
C47	C	-1.496159	-0.500952	0.000032
C48	C	-0.996159	-0.000952	0.500032
N49	N	-1.500611	-0.167477	0.318878
N50	N	-1.000611	0.332523	0.818878
C51	C	-1.498896	0.396703	0.000036
C52	C	-0.998896	0.896703	0.500036
C53	C	-1.502340	0.268309	0.000048
C54	C	-1.002340	0.768309	0.500048
N55	N	-1.500653	-0.167491	-0.318778
N56	N	-1.000653	0.332509	0.181222
C57	C	-1.500631	-0.167491	0.569884
C58	C	-1.000631	0.332509	1.069884
C59	C	-1.500616	-0.167487	0.430207
C60	C	-1.000616	0.332513	0.930207
H61	H	-0.916225	0.008895	0.084328
H62	H	-0.416225	0.508895	0.584328
H63	H	-0.887333	-0.188649	0.204388
H64	H	-0.387333	0.311351	0.704388
H65	H	-0.914616	0.008679	-0.082816
H66	H	-0.414616	0.508679	0.417184
H67	H	-0.891210	-0.182053	-0.204261
H68	H	-0.391210	0.317947	0.295739
H69	H	-0.871004	-0.317637	-0.122220
H70	H	-0.371004	0.182363	0.377780
O71	O	-0.861936	-0.338130	0.116577
O72	O	-0.361936	0.161870	0.616577
C73	C	-0.781799	-0.355411	0.013021
C74	C	-0.281799	0.144589	0.513021
H75	H	-0.753515	-0.269859	-0.020624
H76	H	-0.253515	0.230141	0.479376
H77	H	-0.692536	-0.412786	0.039325
H78	H	-0.192536	0.087214	0.539325
H79	H	-0.834541	-0.397562	-0.063374
H80	H	-0.334541	0.102438	0.436626
H81	H	-1.133170	0.003730	-0.083865
H82	H	-0.633170	0.503730	0.416135
H83	H	-1.087850	-0.323858	-0.121179
H84	H	-0.587850	0.176142	0.378821
H85	H	-1.108531	-0.189055	-0.203792
H86	H	-0.608531	0.310945	0.296208
H87	H	-1.106831	-0.186287	0.203793
H88	H	-0.606831	0.313713	0.703793
O89	O	-1.094332	-0.340350	0.125539
O90	O	-0.594332	0.159650	0.625539
C91	C	-1.171391	-0.365247	0.024946
C92	C	-0.671391	0.134753	0.524946
H93	H	-1.156298	-0.304332	-0.053973
H94	H	-0.656298	0.195668	0.446027
H95	H	-1.144347	-0.456674	-0.006454
H96	H	-0.644347	0.043326	0.493546
H97	H	-1.275836	-0.354870	0.053923
H98	H	-0.775836	0.145130	0.553923
H99	H	-1.134024	0.003399	0.083817
H100	H	-0.634024	0.503399	0.583817
