data_functionalizedCrystal
_audit_creation_method	'MofGen! by Chris Wilmer'
_symmetry_space_group_name_H-M	'P1'
_symmetry_Int_Tables_number	1
_symmetry_cell_setting	triclinic
loop_
_symmetry_equiv_pos_as_xyz
  x,y,z
_cell_length_a	15.944551
_cell_length_b	15.944551
_cell_length_c	12.996460
_cell_angle_alpha	89.998907
_cell_angle_beta	90.001256
_cell_angle_gamma	96.501262
loop_
_atom_site_label
_atom_site_type_symbol
_atom_site_fract_x
_atom_site_fract_y
_atom_site_fract_z
O1	O	-0.108334	1.114525	-0.085448
O2	O	0.141666	1.364525	0.164552
O3	O	0.391666	1.614525	0.414552
O4	O	0.641666	1.864525	0.664552
O5	O	-0.121690	0.869976	-0.085472
O6	O	0.128310	1.119976	0.164528
O7	O	0.378310	1.369976	0.414528
O8	O	0.628310	1.619976	0.664528
O9	O	0.007263	0.998929	-0.085466
O10	O	0.257263	1.248929	0.164534
O11	O	0.507263	1.498929	0.414534
O12	O	0.757263	1.748929	0.664534
O13	O	-0.237287	0.985572	-0.085455
O14	O	0.012713	1.235572	0.164545
O15	O	0.262713	1.485572	0.414545
O16	O	0.512713	1.735572	0.664545
O17	O	0.007270	0.998915	0.085668
O18	O	0.257270	1.248915	0.335668
O19	O	0.507270	1.498915	0.585668
O20	O	0.757270	1.748915	0.835668
O21	O	-0.121683	0.869962	0.085661
O22	O	0.128317	1.119962	0.335661
O23	O	0.378317	1.369962	0.585661
O24	O	0.628317	1.619962	0.835661
O25	O	-0.108326	1.114512	0.085686
O26	O	0.141674	1.364512	0.335686
O27	O	0.391674	1.614512	0.585686
O28	O	0.641674	1.864512	0.835686
Cu29	Cu	-0.115004	0.992236	0.101299
Cu30	Cu	0.134996	1.242236	0.351299
Cu31	Cu	0.384996	1.492236	0.601299
Cu32	Cu	0.634996	1.742236	0.851299
Cu33	Cu	-0.115012	0.992252	-0.101086
Cu34	Cu	0.134988	1.242252	0.148914
Cu35	Cu	0.384988	1.492252	0.398914
Cu36	Cu	0.634988	1.742252	0.648914
O37	O	-0.237279	0.985559	0.085679
O38	O	0.012721	1.235559	0.335679
O39	O	0.262721	1.485559	0.585679
O40	O	0.512721	1.735559	0.835679
C41	C	-0.121132	0.838675	0.000091
C42	C	0.128868	1.088675	0.250091
C43	C	0.378868	1.338675	0.500091
C44	C	0.628868	1.588675	0.750091
C45	C	-0.119470	0.745429	0.000081
C46	C	0.130530	0.995429	0.250081
C47	C	0.380530	1.245429	0.500081
C48	C	0.630530	1.495429	0.750081
C49	C	-0.035565	0.530572	0.000098
C50	C	0.214435	0.780572	0.250098
C51	C	0.464435	1.030572	0.500098
C52	C	0.714435	1.280572	0.750098
C53	C	-0.074531	0.469559	-0.084279
C54	C	0.175469	0.719559	0.165721
C55	C	0.425469	0.969559	0.415721
C56	C	0.675469	1.219559	0.665721
C57	C	-0.116462	0.574703	0.000093
C58	C	0.133538	0.824703	0.250093
C59	C	0.383538	1.074703	0.500093
C60	C	0.633538	1.324703	0.750093
C61	C	-0.074543	0.469568	0.084446
C62	C	0.175457	0.719568	0.334446
C63	C	0.425457	0.969568	0.584446
C64	C	0.675457	1.219568	0.834446
C65	C	-0.113551	0.409790	0.000110
C66	C	0.136449	0.659790	0.250110
C67	C	0.386449	0.909790	0.500110
C68	C	0.636449	1.159790	0.750110
C69	C	-0.155450	0.514918	-0.084353
C70	C	0.094550	0.764918	0.165647
C71	C	0.344550	1.014918	0.415647
C72	C	0.594550	1.264918	0.665647
C73	C	-0.155451	0.514933	0.084448
C74	C	0.094549	0.764933	0.334448
C75	C	0.344549	1.014933	0.584448
C76	C	0.594549	1.264933	0.834448
C77	C	-0.194476	0.453937	0.000051
C78	C	0.055524	0.703937	0.250051
C79	C	0.305524	0.953937	0.500051
C80	C	0.555524	1.203937	0.750051
C81	C	-0.118137	0.669705	0.000083
C82	C	0.131863	0.919705	0.250083
C83	C	0.381863	1.169705	0.500083
C84	C	0.631863	1.419705	0.750083
C85	C	-0.111883	0.314789	0.000112
C86	C	0.138117	0.564789	0.250112
C87	C	0.388117	0.814789	0.500112
C88	C	0.638117	1.064789	0.750112
C89	C	-0.268577	0.986120	0.000113
C90	C	-0.018577	1.236120	0.250113
C91	C	0.231423	1.486120	0.500113
C92	C	0.481423	1.736120	0.750113
C93	C	-0.361823	0.987782	0.000118
C94	C	-0.111823	1.237782	0.250118
C95	C	0.138177	1.487782	0.500118
C96	C	0.388177	1.737782	0.750118
C97	C	-0.576680	1.071687	0.000111
C98	C	-0.326680	1.321687	0.250111
C99	C	-0.076680	1.571687	0.500111
C100	C	0.173320	1.821687	0.750111
C101	C	-0.637692	1.032718	0.084486
C102	C	-0.387692	1.282718	0.334486
C103	C	-0.137692	1.532718	0.584486
C104	C	0.112308	1.782718	0.834486
C105	C	-0.532549	0.990790	0.000109
C106	C	-0.282549	1.240790	0.250109
C107	C	-0.032549	1.490790	0.500109
C108	C	0.217451	1.740790	0.750109
C109	C	-0.637685	1.032712	-0.084239
C110	C	-0.387685	1.282712	0.165761
C111	C	-0.137685	1.532712	0.415761
C112	C	0.112315	1.782712	0.665761
C113	C	-0.697462	0.993700	0.000096
C114	C	-0.447462	1.243700	0.250096
C115	C	-0.197462	1.493700	0.500096
C116	C	0.052538	1.743700	0.750096
C117	C	-0.592333	0.951798	0.084554
C118	C	-0.342333	1.201798	0.334554
C119	C	-0.092333	1.451798	0.584554
C120	C	0.157667	1.701798	0.834554
C121	C	-0.592320	0.951804	-0.084247
C122	C	-0.342320	1.201804	0.165753
C123	C	-0.092320	1.451804	0.415753
C124	C	0.157680	1.701804	0.665753
C125	C	-0.653315	0.912776	0.000149
C126	C	-0.403315	1.162776	0.250149
C127	C	-0.153315	1.412776	0.500149
C128	C	0.096685	1.662776	0.750149
C129	C	-0.437547	0.989115	0.000118
C130	C	-0.187547	1.239115	0.250118
C131	C	0.062453	1.489115	0.500118
C132	C	0.312453	1.739115	0.750118
C133	C	-0.792463	0.995369	0.000095
C134	C	-0.542463	1.245369	0.250095
C135	C	-0.292463	1.495369	0.500095
C136	C	-0.042463	1.745369	0.750095
C137	C	0.038561	0.998367	0.000097
C138	C	0.288561	1.248367	0.250097
C139	C	0.538561	1.498367	0.500097
C140	C	0.788561	1.748367	0.750097
C141	C	0.131807	0.996705	0.000086
C142	C	0.381807	1.246705	0.250086
C143	C	0.631807	1.496705	0.500086
C144	C	0.881807	1.746705	0.750086
C145	C	-0.108885	1.145813	0.000120
C146	C	0.141115	1.395813	0.250120
C147	C	0.391115	1.645813	0.500120
C148	C	0.641115	1.895813	0.750120
C149	C	-0.110547	1.239059	0.000123
C150	C	0.139453	1.489059	0.250123
C151	C	0.389453	1.739059	0.500123
C152	C	0.639453	1.989059	0.750123
N153	N	-0.114997	0.992231	0.243646
N154	N	0.135003	1.242231	0.493646
N155	N	0.385003	1.492231	0.743646
N156	N	0.635003	1.742231	0.993646
N157	N	-0.115012	0.992263	-0.243433
N158	N	0.134988	1.242263	0.006567
N159	N	0.384988	1.492263	0.256567
N160	N	0.634988	1.742263	0.506567
C161	C	-0.115013	0.992251	0.663461
C162	C	0.134987	1.242251	0.913461
C163	C	0.384987	1.492251	1.163461
C164	C	0.634987	1.742251	1.413461
C165	C	-0.115012	0.992243	0.546656
C166	C	0.134988	1.242243	0.796656
C167	C	0.384988	1.492243	1.046656
C168	C	0.634988	1.742243	1.296656
C169	C	-0.115006	0.992241	0.453557
C170	C	0.134994	1.242241	0.703557
C171	C	0.384994	1.492241	0.953557
C172	C	0.634994	1.742241	1.203557
C173	C	-0.115003	0.992232	0.336745
C174	C	0.134997	1.242232	0.586745
C175	C	0.384997	1.492232	0.836745
C176	C	0.634997	1.742232	1.086745
H177	H	0.031573	0.563905	-0.000010
H178	H	0.281573	0.813905	0.249990
H179	H	0.531573	1.063905	0.499990
H180	H	0.781573	1.313905	0.749990
H181	H	-0.657796	1.066928	0.155825
H182	H	-0.407796	1.316928	0.405825
H183	H	-0.157796	1.566928	0.655825
H184	H	0.092204	1.816928	0.905825
F185	F	-0.663950	1.077461	-0.177469
F186	F	-0.413950	1.327461	0.072531
F187	F	-0.163950	1.577461	0.322531
F188	F	0.086050	1.827461	0.572531
H189	H	-0.543374	1.138836	0.000200
H190	H	-0.293374	1.388836	0.250200
H191	H	-0.043374	1.638836	0.500200
H192	H	0.206626	1.888836	0.750200
F193	F	-0.029815	0.443282	-0.177524
F194	F	0.220185	0.693282	0.072476
F195	F	0.470185	0.943282	0.322476
F196	F	0.720185	1.193282	0.572476
F197	F	-0.200144	0.541047	-0.177693
F198	F	0.049856	0.791047	0.072307
F199	F	0.299856	1.041047	0.322307
F200	F	0.549856	1.291047	0.572307
F201	F	-0.282319	0.410594	-0.000004
F202	F	-0.032319	0.660594	0.249996
F203	F	0.217681	0.910594	0.499996
F204	F	0.467681	1.160594	0.749996
F205	F	-0.200134	0.541241	0.177695
F206	F	0.049866	0.791241	0.427695
F207	F	0.299866	1.041241	0.677695
F208	F	0.549866	1.291241	0.927695
H209	H	-0.040309	0.449476	0.155777
H210	H	0.209691	0.699476	0.405777
H211	H	0.459691	0.949476	0.655777
H212	H	0.709691	1.199476	0.905777
H213	H	-0.572339	0.917603	0.155963
H214	H	-0.322339	1.167603	0.405963
H215	H	-0.072339	1.417603	0.655963
H216	H	0.177661	1.667603	0.905963
H217	H	-0.572194	0.917622	-0.155590
H218	H	-0.322194	1.167622	0.094410
H219	H	-0.072194	1.417622	0.344410
H220	H	0.177806	1.667622	0.594410
H221	H	-0.686473	0.845569	0.000189
H222	H	-0.436473	1.095569	0.250189
H223	H	-0.186473	1.345569	0.500189
H224	H	0.063527	1.595569	0.750189
