data_functionalizedCrystal
_audit_creation_method	'MofGen! by Chris Wilmer'
_symmetry_space_group_name_H-M	'P1'
_symmetry_Int_Tables_number	1
_symmetry_cell_setting	triclinic
loop_
_symmetry_equiv_pos_as_xyz
  x,y,z
_cell_length_a	19.077399
_cell_length_b	12.759394
_cell_length_c	19.076919
_cell_angle_alpha	87.725879
_cell_angle_beta	85.520477
_cell_angle_gamma	92.314249
loop_
_atom_site_label
_atom_site_type_symbol
_atom_site_fract_x
_atom_site_fract_y
_atom_site_fract_z
Zn1	Zn	1.061718	-0.375939	0.355402
Zn2	Zn	1.561718	0.124061	0.855402
Zn3	Zn	1.066392	-0.544283	0.237526
Zn4	Zn	1.566392	-0.044283	0.737526
Zn5	Zn	0.948573	-0.375967	0.242257
Zn6	Zn	1.448573	0.124033	0.742257
Zn7	Zn	0.943822	-0.558927	0.360095
Zn8	Zn	1.443822	-0.058927	0.860095
O9	O	1.005126	-0.463779	0.298820
O10	O	1.505126	0.036221	0.798820
O11	O	1.160986	-0.392130	0.335822
O12	O	1.660986	0.107870	0.835822
O13	O	1.054707	-0.515839	0.139506
O14	O	1.554707	-0.015839	0.639506
O15	O	0.963614	-0.228942	0.257282
O16	O	1.463614	0.271058	0.757282
O17	O	1.164420	-0.515812	0.249219
O18	O	1.664420	-0.015812	0.749219
O19	O	1.046742	-0.228921	0.340409
O20	O	1.546742	0.271079	0.840409
O21	O	0.968146	-0.392178	0.142982
O22	O	1.468146	0.107822	0.642982
O23	O	0.849295	-0.406378	0.261832
O24	O	1.349295	0.093622	0.761832
O25	O	0.955517	-0.540770	0.458119
O26	O	1.455517	-0.040770	0.958119
O27	O	0.845805	-0.540798	0.348407
O28	O	1.345805	-0.040798	0.848407
O29	O	1.042135	-0.406329	0.454672
O30	O	1.542135	0.093671	0.954672
O31	O	1.050100	-0.693248	0.253769
O32	O	1.550100	-0.193248	0.753769
O33	O	0.960049	-0.704007	0.343819
O34	O	1.460049	-0.204007	0.843819
C35	C	0.821972	-0.475181	0.306142
C36	C	1.321972	0.024819	0.806142
C37	C	0.743617	-0.480085	0.309291
C38	C	1.243617	0.019915	0.809291
C39	C	0.708599	-0.412307	0.265770
C40	C	1.208599	0.087693	0.765770
C41	C	0.634976	-0.416924	0.268729
C42	C	1.134976	0.083076	0.768729
C43	C	0.596372	-0.489314	0.315213
C44	C	1.096372	0.010686	0.815213
C45	C	0.631395	-0.557100	0.358736
C46	C	1.131395	-0.057100	0.858736
C47	C	0.705017	-0.552487	0.355774
C48	C	1.205017	-0.052487	0.855774
C49	C	0.375995	-0.510629	0.328897
C50	C	0.875995	-0.010629	0.828897
C51	C	0.302368	-0.515235	0.331858
C52	C	0.802368	-0.015235	0.831858
C53	C	0.305954	-0.375060	0.241849
C54	C	0.805954	0.124940	0.741849
C55	C	0.379577	-0.370449	0.238894
C56	C	0.879577	0.129551	0.738894
C57	C	0.414594	-0.438238	0.282414
C58	C	0.914594	0.061762	0.782414
N59	N	0.521118	-0.494033	0.318240
N60	N	1.021118	0.005967	0.818240
N61	N	0.489847	-0.433524	0.279383
N62	N	0.989847	0.066476	0.779383
C63	C	1.005085	-0.736748	0.298804
C64	C	1.505085	-0.236748	0.798804
C65	C	1.005130	-0.853523	0.298819
C66	C	1.505130	-0.353523	0.798819
C67	C	1.098966	-0.842267	0.205114
C68	C	1.598966	-0.342267	0.705114
C69	C	1.145902	-0.891498	0.158269
C70	C	1.645902	-0.391498	0.658269
C71	C	1.145942	-1.001219	0.158286
C72	C	1.645942	-0.501219	0.658286
C73	C	1.099044	-1.061710	0.205155
C74	C	1.599044	-0.561710	0.705155
C75	C	1.052108	-1.012478	0.252000
C76	C	1.552108	-0.512478	0.752000
C77	C	1.052071	-0.902755	0.251976
C78	C	1.552071	-0.402755	0.751976
C79	C	0.958277	-1.023735	0.345708
C80	C	1.458277	-0.523735	0.845708
C81	C	0.958232	-0.914015	0.345688
C82	C	1.458232	-0.414015	0.845688
C83	C	0.911378	-1.084226	0.392577
C84	C	1.411378	-0.584226	0.892577
C85	C	0.864437	-1.034994	0.439419
C86	C	1.364437	-0.534994	0.939419
C87	C	0.864398	-0.925267	0.439399
C88	C	1.364398	-0.425267	0.939399
C89	C	0.911296	-0.864783	0.392533
C90	C	1.411296	-0.364783	0.892533
C91	C	1.188996	-0.452334	0.291469
C92	C	1.688996	0.047666	0.791469
C93	C	1.267350	-0.447457	0.288337
C94	C	1.767350	0.052543	0.788337
C95	C	0.997775	-0.475180	0.482689
C96	C	1.497775	0.024820	0.982689
C97	C	0.994642	-0.480038	0.561043
C98	C	1.494642	0.019962	1.061043
C99	C	1.005187	-0.189744	0.298850
C100	C	1.505187	0.310256	0.798850
C101	C	1.005212	-0.072967	0.298863
C102	C	1.505212	0.427033	0.798863
C103	C	1.012490	-0.452344	0.115664
C104	C	1.512490	0.047656	0.615664
C105	C	1.015759	-0.447182	0.037305
C106	C	1.515759	0.052818	0.537305
C107	C	1.038265	-0.412328	0.596060
C108	C	1.538265	0.087672	1.096060
C109	C	1.035313	-0.416889	0.669683
C110	C	1.535313	0.083111	1.169683
C111	C	0.988740	-0.489167	0.708286
C112	C	1.488740	0.010833	1.208286
C113	C	0.945112	-0.556881	0.673264
C114	C	1.445112	-0.056881	1.173264
C115	C	0.948062	-0.552313	0.599643
C116	C	1.448062	-0.052313	1.099643
C117	C	0.975081	-0.510328	0.928662
C118	C	1.475081	-0.010328	1.428662
C119	C	0.972136	-0.514892	1.002288
C120	C	1.472136	-0.014892	1.502288
C121	C	1.062336	-0.374899	0.998701
C122	C	1.562336	0.125101	1.498701
C123	C	1.065284	-0.370342	0.925079
C124	C	1.565284	0.129658	1.425079
C125	C	1.021654	-0.438052	0.890063
C126	C	1.521654	0.061948	1.390063
N127	N	0.985723	-0.493834	0.783540
N128	N	1.485723	0.006166	1.283540
N129	N	1.024668	-0.433380	0.814811
N130	N	1.524668	0.066620	1.314811
H131	H	0.733527	-0.607679	0.391213
H132	H	1.233527	-0.107679	0.891213
Cl133	Cl	0.893216	-0.637436	0.555622
Cl134	Cl	1.393216	-0.137436	1.055622
H135	H	0.599958	-0.616046	0.396582
H136	H	1.099958	-0.116046	0.896582
Cl137	Cl	0.428102	-0.279431	0.180460
Cl138	Cl	0.928102	0.220569	0.680460
Cl139	Cl	0.420006	-0.595848	0.383611
Cl140	Cl	0.920006	-0.095848	0.883611
H141	H	0.277436	-0.319871	0.206417
H142	H	0.777436	0.180129	0.706417
H143	H	1.184088	-0.842237	0.120110
H144	H	1.684088	-0.342237	0.620110
Cl145	Cl	1.099109	-0.704332	0.205278
Cl146	Cl	1.599109	-0.204332	0.705278
H147	H	0.911417	-1.173566	0.392590
H148	H	1.411417	-0.673566	0.892590
Cl149	Cl	1.204951	-1.063113	0.099399
Cl150	Cl	1.704951	-0.563113	0.599399
H151	H	0.907190	-0.615727	0.704701
H152	H	1.407190	-0.115727	1.204701
H153	H	0.826259	-1.084255	0.477579
H154	H	1.326259	-0.584255	0.977579
H155	H	1.099087	-1.151050	0.205171
H156	H	1.599087	-0.651050	0.705171
H157	H	0.740025	-0.353351	0.227923
H158	H	1.240025	0.146649	0.727923
H159	H	0.826180	-0.885189	0.477549
H160	H	1.326180	-0.385189	0.977549
H161	H	0.911264	-0.775442	0.392508
H162	H	1.411264	-0.275442	0.892508
Cl163	Cl	1.096820	-0.321465	0.547537
Cl164	Cl	1.596820	0.178535	1.047537
Cl165	Cl	1.090187	-0.331808	0.713700
Cl166	Cl	1.590187	0.168192	1.213700
Cl167	Cl	1.123835	-0.279476	0.876554
Cl168	Cl	1.623835	0.220524	1.376554
Cl169	Cl	1.117179	-0.289780	1.042725
Cl170	Cl	1.617179	0.210220	1.542725
H171	H	0.934209	-0.573752	1.033717
H172	H	1.434209	-0.073752	1.533717
Cl173	Cl	0.590957	-0.331707	0.214017
Cl174	Cl	1.090957	0.168293	0.714017
H175	H	0.939564	-0.565477	0.900161
H176	H	1.439564	-0.065477	1.400161
H177	H	0.270938	-0.574183	0.369716
H178	H	0.770938	-0.074183	0.869716
