data_functionalizedCrystal
_audit_creation_method	'MofGen! by Chris Wilmer'
_symmetry_space_group_name_H-M	'P1'
_symmetry_Int_Tables_number	1
_symmetry_cell_setting	triclinic
loop_
_symmetry_equiv_pos_as_xyz
  x,y,z
_cell_length_a	19.805407
_cell_length_b	11.169416
_cell_length_c	19.805380
_cell_angle_alpha	90.099044
_cell_angle_beta	89.929483
_cell_angle_gamma	89.989659
loop_
_atom_site_label
_atom_site_type_symbol
_atom_site_fract_x
_atom_site_fract_y
_atom_site_fract_z
Zn1	Zn	1.035152	0.476902	-0.382755
Zn2	Zn	1.034998	0.677882	-0.269581
Zn3	Zn	0.921866	0.477211	-0.269579
Zn4	Zn	0.921962	0.677542	-0.382728
O5	O	0.978494	0.577384	-0.326161
O6	O	1.129848	0.503575	-0.367754
O7	O	1.019886	0.651534	-0.174864
O8	O	0.936918	0.309220	-0.284603
O9	O	1.129735	0.651234	-0.284606
O10	O	1.020148	0.308994	-0.367753
O11	O	0.936768	0.504102	-0.174863
O12	O	0.827162	0.503773	-0.284577
O13	O	0.937081	0.650655	-0.477448
O14	O	0.827232	0.650955	-0.367706
O15	O	1.020241	0.503246	-0.477468
O16	O	1.019979	0.845786	-0.284579
O17	O	0.936932	0.845537	-0.367708
C18	C	0.802638	0.577361	-0.326139
C19	C	0.727406	0.577380	-0.326146
C20	C	0.978467	0.889209	-0.326156
C21	C	0.978518	1.022609	-0.326176
C22	C	0.978689	0.576878	-0.502704
C23	C	0.978772	0.576663	-0.577936
C24	C	0.692116	0.654134	-0.369361
C25	C	0.621428	0.654136	-0.369371
C26	C	0.586031	0.577390	-0.326161
C27	C	0.621325	0.500628	-0.282943
C28	C	0.692012	0.500621	-0.282938
C29	C	0.336252	0.500654	-0.282966
C30	C	0.265560	0.500670	-0.282973
C31	C	0.265667	0.654170	-0.369399
C32	C	0.336355	0.654162	-0.369393
C33	C	0.371643	0.577397	-0.326178
C34	C	0.448292	0.577394	-0.326169
C35	C	0.509383	0.577398	-0.326166
C36	C	1.155037	0.577408	-0.326183
C37	C	1.230269	0.577418	-0.326193
C38	C	0.978540	0.264342	-0.326181
C39	C	0.978559	0.130942	-0.326189
C40	C	0.978339	0.577801	-0.150304
C41	C	0.978387	0.577679	-0.075072
C42	C	0.935159	0.500533	0.386686
C43	C	0.935101	0.500681	0.315998
C44	C	0.978661	0.576953	0.280688
C45	C	1.022276	0.653092	0.316071
C46	C	1.022330	0.652949	0.386758
C47	C	1.022060	0.653670	0.030998
C48	C	1.022004	0.653804	-0.039694
C49	C	0.934831	0.501401	-0.039762
C50	C	0.934885	0.501258	0.030925
C51	C	0.978497	0.577401	0.066302
C52	C	0.978558	0.577241	0.142950
C53	C	0.978604	0.577108	0.204042
H54	H	0.720932	0.716634	-0.404546
H55	H	0.899416	0.439145	0.059671
H56	H	0.236741	0.438166	-0.247786
H57	H	0.592698	0.716638	-0.404561
H58	H	0.899317	0.439406	-0.068573
C59	C	0.848976	0.349912	0.379512
C60	C	0.887272	0.416695	0.425495
H61	H	0.819408	0.298163	0.403471
H62	H	0.878262	0.303683	0.351811
H63	H	0.823276	0.402604	0.352075
H64	H	0.912975	0.364004	0.452929
H65	H	0.857982	0.462928	0.453207
C66	C	1.137098	0.710145	0.294174
C67	C	1.070159	0.736935	0.277261
H68	H	1.166659	0.761912	0.270218
H69	H	1.146672	0.629416	0.282437
H70	H	1.143363	0.720961	0.341337
H71	H	1.063894	0.726111	0.230098
H72	H	1.060582	0.817684	0.288993
C73	C	0.843915	0.485343	0.236685
C74	C	0.887148	0.417004	0.277119
H75	H	0.814303	0.433685	0.212689
H76	H	0.869847	0.530767	0.205536
H77	H	0.818267	0.537910	0.264410
H78	H	0.912800	0.364443	0.249393
H79	H	0.861213	0.371560	0.308271
C80	C	0.329359	0.805887	-0.454831
C81	C	0.375263	0.738520	-0.416893
H82	H	0.353380	0.857957	-0.484160
H83	H	0.301749	0.851804	-0.425302
H84	H	0.301823	0.753582	-0.480770
H85	H	0.402795	0.790825	-0.390951
H86	H	0.402884	0.692599	-0.446426
H87	H	0.236927	0.716672	-0.404589
C88	C	0.329036	0.348923	-0.197538
C89	C	0.375035	0.416276	-0.235464
H90	H	0.352982	0.296833	-0.168209
H91	H	0.301506	0.303026	-0.227075
H92	H	0.301429	0.401235	-0.171600
H93	H	0.402638	0.363964	-0.261406
H94	H	0.402577	0.462176	-0.205923
C95	C	0.512921	0.432477	-0.244576
C96	C	0.582418	0.416261	-0.235448
H97	H	0.488904	0.380395	-0.215250
H98	H	0.501401	0.414911	-0.290066
H99	H	0.501324	0.513121	-0.234591
H100	H	0.594015	0.335619	-0.245438
H101	H	0.593942	0.433818	-0.189948
C102	C	1.108173	0.804468	-0.032530
C103	C	1.069884	0.737659	-0.078508
H104	H	1.137727	0.856237	-0.056494
H105	H	1.133881	0.751803	-0.005096
H106	H	1.078876	0.850690	-0.004826
H107	H	1.099181	0.691430	-0.106209
H108	H	1.044174	0.790331	-0.105953
C109	C	1.060850	0.721143	0.139380
C110	C	1.070001	0.737359	0.069879
H111	H	1.090446	0.772819	0.163384
H112	H	1.070449	0.640369	0.150815
H113	H	1.015450	0.739266	0.151077
H114	H	1.115400	0.719228	0.058181
H115	H	1.060407	0.818152	0.058439
C116	C	0.684811	0.348906	-0.197497
C117	C	0.730806	0.416261	-0.235427
H118	H	0.708761	0.296830	-0.168164
H119	H	0.657285	0.302995	-0.227031
H120	H	0.657200	0.401218	-0.171564
H121	H	0.758413	0.363950	-0.261365
H122	H	0.758343	0.462176	-0.205890
C123	C	1.056115	0.855707	0.408779
C124	C	1.070271	0.736635	0.425648
H125	H	1.085714	0.907373	0.432785
H126	H	1.010722	0.873812	0.420484
H127	H	1.062321	0.866691	0.361626
H128	H	1.064060	0.725649	0.472800
H129	H	1.115675	0.718523	0.413947
