data_functionalizedCrystal
_audit_creation_method	'MofGen! by Chris Wilmer'
_symmetry_space_group_name_H-M	'P1'
_symmetry_Int_Tables_number	1
_symmetry_cell_setting	triclinic
loop_
_symmetry_equiv_pos_as_xyz
  x,y,z
_cell_length_a	21.295418
_cell_length_b	16.959454
_cell_length_c	16.959447
_cell_angle_alpha	89.973264
_cell_angle_beta	90.034641
_cell_angle_gamma	89.964110
loop_
_atom_site_label
_atom_site_type_symbol
_atom_site_fract_x
_atom_site_fract_y
_atom_site_fract_z
Zn1	Zn	0.962345	0.314332	0.447357
Zn2	Zn	1.462345	0.814332	0.947357
Zn3	Zn	0.962283	0.446525	0.315187
Zn4	Zn	1.462283	0.946525	0.815187
Zn5	Zn	0.857085	0.314401	0.315148
Zn6	Zn	1.357085	0.814401	0.815148
Zn7	Zn	0.857057	0.446509	0.447278
Zn8	Zn	1.357057	0.946509	0.947278
O9	O	0.909692	0.380442	0.381243
O10	O	1.409692	0.880442	0.881243
O11	O	1.050426	0.331846	0.429874
O12	O	1.550426	0.831846	0.929874
O13	O	0.948314	0.429033	0.204571
O14	O	1.448314	0.929033	0.704571
O15	O	0.871085	0.203781	0.332702
O16	O	1.371085	0.703781	0.832702
O17	O	1.050381	0.428967	0.332769
O18	O	1.550381	0.928967	0.832769
O19	O	0.948420	0.203730	0.429836
O20	O	1.448420	0.703730	0.929836
O21	O	0.871026	0.331962	0.204542
O22	O	1.371026	0.831962	0.704542
O23	O	0.768992	0.331947	0.332626
O24	O	1.268992	0.831947	0.832626
O25	O	0.871037	0.428940	0.557900
O26	O	1.371037	0.928940	1.057900
O27	O	0.768971	0.429007	0.429702
O28	O	1.268971	0.929007	0.929702
O29	O	0.948392	0.331831	0.557958
O30	O	1.448392	0.831831	1.057958
O31	O	0.948287	0.557133	0.332692
O32	O	1.448287	1.057133	0.832692
O33	O	0.870978	0.557122	0.429740
O34	O	1.370978	1.057122	0.929740
C35	C	0.746141	0.380483	0.381152
C36	C	1.246141	0.880483	0.881152
C37	C	0.676173	0.380520	0.381131
C38	C	1.176173	0.880520	0.881131
C39	C	0.909640	0.585808	0.381229
C40	C	1.409640	1.085808	0.881229
C41	C	0.909675	0.673664	0.381250
C42	C	1.409675	1.173664	0.881250
C43	C	0.909719	0.380376	0.587411
C44	C	1.409719	0.880376	1.087411
C45	C	0.909730	0.380348	0.675267
C46	C	1.409730	0.880348	1.175267
C47	C	0.643312	0.431126	0.431603
C48	C	1.143312	0.931126	0.931603
C49	C	0.577569	0.431106	0.431639
C50	C	1.077569	0.931106	0.931639
C51	C	0.544690	0.380489	0.381188
C52	C	1.044690	0.880489	0.881188
C53	C	0.577559	0.329874	0.330713
C54	C	1.077559	0.829874	0.830713
C55	C	0.643300	0.329889	0.330684
C56	C	1.143300	0.829889	0.830684
N57	N	0.441422	0.374319	0.312053
N58	N	0.941422	0.874319	0.812053
N59	N	0.378971	0.374309	0.312083
N60	N	0.878971	0.874309	0.812083
C61	C	0.346615	0.380439	0.381272
C62	C	0.846615	0.880439	0.881272
N63	N	0.379071	0.386595	0.450433
N64	N	0.879071	0.886595	0.950433
N65	N	0.441528	0.386609	0.450403
N66	N	0.941528	0.886609	0.950403
C67	C	0.473405	0.380467	0.381214
C68	C	0.973405	0.880467	0.881214
C69	C	0.242469	0.431026	0.431787
C70	C	0.742469	0.931026	0.931787
C71	C	0.176725	0.431001	0.431824
C72	C	0.676725	0.931001	0.931824
C73	C	0.176716	0.329773	0.330891
C74	C	0.676716	0.829773	0.830891
C75	C	0.242459	0.329794	0.330861
C76	C	0.742459	0.829794	0.830861
C77	C	0.275331	0.380425	0.381308
C78	C	0.775331	0.880425	0.881308
C79	C	1.073883	0.380400	0.381334
C80	C	1.573883	0.880400	0.881334
C81	C	1.143851	0.380383	0.381373
C82	C	1.643851	0.880383	0.881373
C83	C	0.909762	0.174273	0.381273
C84	C	1.409762	0.674273	0.881273
C85	C	0.909792	0.086417	0.381286
C86	C	1.409792	0.586417	0.881286
C87	C	0.869496	1.045164	0.431770
C88	C	1.369496	1.545164	0.931770
C89	C	0.950064	1.045116	0.330796
C90	C	1.450064	1.545116	0.830796
C91	C	0.950042	0.962570	0.330789
C92	C	1.450042	1.462570	0.830789
C93	C	0.909746	0.921317	0.381272
C94	C	1.409746	1.421317	0.881272
C95	C	0.869471	0.962611	0.431762
C96	C	1.369471	1.462611	0.931762
C97	C	0.990312	0.921271	0.280294
C98	C	1.490312	1.421271	0.780294
C99	C	0.990291	0.838720	0.280284
C100	C	1.490291	1.338720	0.780284
C101	C	0.949997	0.797466	0.330771
C102	C	1.449997	1.297466	0.830771
C103	C	0.909721	0.838764	0.381264
C104	C	1.409721	1.338764	0.881264
C105	C	0.869425	0.797511	0.431748
C106	C	1.369425	1.297511	0.931748
C107	C	0.829152	0.838808	0.482245
C108	C	1.329152	1.338808	0.982245
C109	C	0.829177	0.921356	0.482250
C110	C	1.329177	1.421356	0.982250
C111	C	0.949971	0.714917	0.330767
C112	C	1.449971	1.214917	0.830767
C113	C	0.869400	0.714958	0.431740
C114	C	1.369400	1.214958	0.931740
C115	C	0.909702	0.380450	0.175876
C116	C	1.409702	0.880450	0.675876
C117	C	0.909813	0.380255	0.088020
C118	C	1.409813	0.880255	0.588020
C119	C	0.869530	0.430825	1.046716
C120	C	1.369530	0.930825	1.546716
C121	C	0.950080	0.329704	1.046771
C122	C	1.450080	0.829704	1.546771
C123	C	0.950063	0.329721	0.964225
C124	C	1.450063	0.829721	1.464225
C125	C	0.909780	0.380292	0.922921
C126	C	1.409780	0.880292	1.422921
C127	C	0.869513	0.430845	0.964162
C128	C	1.369513	0.930845	1.464162
C129	C	0.990334	0.279174	0.922977
C130	C	1.490334	0.779174	1.422977
C131	C	0.990319	0.279189	0.840426
C132	C	1.490319	0.779189	1.340426
C133	C	0.950032	0.329756	0.799120
C134	C	1.450032	0.829756	1.299120
C135	C	0.909763	0.380312	0.840367
C136	C	1.409763	0.880312	1.340367
C137	C	0.869480	0.430882	0.799063
C138	C	1.369480	0.930882	1.299063
C139	C	0.829207	0.481434	0.840308
C140	C	1.329207	0.981434	1.340308
C141	C	0.829226	0.481413	0.922856
C142	C	1.329226	0.981413	1.422856
C143	C	0.950013	0.329778	0.716572
C144	C	1.450013	0.829778	1.216572
C145	C	0.869463	0.430902	0.716509
C146	C	1.369463	0.930902	1.216509
H147	H	0.550809	0.472315	0.472742
H148	H	1.050809	0.972315	0.972742
H149	H	0.550785	0.288659	0.289637
H150	H	1.050785	0.788659	0.789637
N151	N	0.676879	0.482847	0.483138
N152	N	1.176879	0.982847	0.983138
N153	N	0.647526	0.528027	0.528200
N154	N	1.147526	1.028027	1.028200
H155	H	0.671233	0.564555	0.564598
H156	H	1.171233	1.064555	1.064598
H157	H	0.836653	0.472076	0.682885
H158	H	1.336653	0.972076	1.182885
N159	N	0.788086	0.533030	0.964997
N160	N	1.288086	1.033030	1.464997
N161	N	0.748000	0.505203	1.011051
N162	N	1.248000	1.005203	1.511051
H163	H	0.718945	0.541655	1.040820
H164	H	1.218945	1.041655	1.540820
N165	N	0.676860	0.278186	0.279124
N166	N	1.176860	0.778186	0.779124
N167	N	0.647501	0.232988	0.234087
N168	N	1.147501	0.732988	0.734087
H169	H	0.671203	0.196472	0.197671
H170	H	1.171203	0.696472	0.697671
H171	H	0.269235	0.472249	0.472868
H172	H	0.769235	0.972249	0.972868
N173	N	1.031460	0.227552	0.798312
N174	N	1.531460	0.727552	1.298312
N175	N	1.067425	0.182407	0.835201
N176	N	1.567425	0.682407	1.335201
H177	H	1.096481	0.145936	0.805458
H178	H	1.596481	0.645936	1.305458
H179	H	0.836739	0.471981	1.080301
H180	H	1.336739	0.971981	1.580301
N181	N	0.276039	0.278118	0.279296
N182	N	0.776039	0.778118	0.779296
N183	N	0.334736	0.278141	0.279275
N184	N	0.834736	0.778141	0.779275
H185	H	0.358453	0.241642	0.242857
H186	H	0.858453	0.741642	0.742857
H187	H	0.982758	0.681297	0.289649
H188	H	1.482758	1.181297	0.789649
H189	H	1.023134	0.238007	0.956613
H190	H	1.523134	0.738007	1.456613
N191	N	0.143166	0.482695	0.483395
N192	N	0.643166	0.982695	0.983395
N193	N	0.172527	0.527892	0.528431
N194	N	0.672527	1.027892	1.028431
H195	H	0.148826	0.564401	0.564856
H196	H	0.648826	1.064401	1.064856
H197	H	0.836708	1.078791	0.472886
H198	H	1.336708	1.578791	0.972886
N199	N	0.143130	0.278064	0.279370
N200	N	0.643130	0.778064	0.779370
N201	N	0.084433	0.278051	0.279406
N202	N	0.584433	0.778051	0.779406
H203	H	0.060709	0.241526	0.243021
H204	H	0.560709	0.741526	0.743021
N205	N	0.991153	0.278147	0.674454
N206	N	1.491153	0.778147	1.174454
N207	N	1.027121	0.233004	0.711342
N208	N	1.527121	0.733004	1.211342
H209	H	1.056178	0.196536	0.681597
H210	H	1.556178	0.696536	1.181597
N211	N	0.828238	0.672834	0.483320
N212	N	1.328238	1.172834	0.983320
N213	N	0.792289	0.709717	0.528401
N214	N	1.292289	1.209717	1.028401
H215	H	0.763218	0.679969	0.564832
H216	H	1.263218	1.179969	1.064832
H217	H	0.796339	0.805210	0.523345
H218	H	1.296339	1.305210	1.023345
H219	H	0.796388	0.954987	0.523361
H220	H	1.296388	1.454987	1.023361
H221	H	0.982868	1.078709	0.289690
H222	H	1.482868	1.578709	0.789690
N223	N	1.031461	0.963420	0.228728
N224	N	1.531461	1.463420	0.728728
N225	N	1.031477	1.037124	0.228746
N226	N	1.531477	1.537124	0.728746
H227	H	1.060541	1.066896	0.192327
H228	H	1.560541	1.566896	0.692327
N229	N	1.031430	0.796553	0.228699
N230	N	1.531430	1.296553	0.728699
N231	N	1.067403	0.833396	0.183627
N232	N	1.567403	1.333396	0.683627
H233	H	1.096459	0.803615	0.147195
H234	H	1.596459	1.303615	0.647195
N235	N	0.788069	0.533091	0.798100
N236	N	1.288069	1.033091	1.298100
N237	N	0.788069	0.533102	0.724396
N238	N	1.288069	1.033102	1.224396
H239	H	0.759017	0.569584	0.694583
H240	H	1.259017	1.069584	1.194583
N241	N	0.991229	0.278064	1.088971
N242	N	1.491229	0.778064	1.588971
N243	N	0.991241	0.278059	1.162675
N244	N	1.491241	0.778059	1.662675
H245	H	1.020304	0.241586	1.192483
H246	H	1.520304	0.741586	1.692483
