data_functionalizedCrystal
_audit_creation_method	'MofGen! by Chris Wilmer'
_symmetry_space_group_name_H-M	'P1'
_symmetry_Int_Tables_number	1
_symmetry_cell_setting	triclinic
loop_
_symmetry_equiv_pos_as_xyz
  x,y,z
_cell_length_a	23.532407
_cell_length_b	16.109301
_cell_length_c	14.586319
_cell_angle_alpha	89.994786
_cell_angle_beta	90.001839
_cell_angle_gamma	83.155079
loop_
_atom_site_label
_atom_site_type_symbol
_atom_site_fract_x
_atom_site_fract_y
_atom_site_fract_z
O1	O	0.755631	0.100925	-0.076129
O2	O	1.255631	0.600925	0.423871
O3	O	0.589822	0.115528	-0.076156
O4	O	1.089822	0.615528	0.423844
O5	O	0.677281	-0.012841	-0.076132
O6	O	1.177281	0.487159	0.423868
O7	O	0.668171	0.229293	-0.076153
O8	O	1.168171	0.729293	0.423847
O9	O	0.677275	-0.012843	0.076348
O10	O	1.177275	0.487157	0.576348
O11	O	0.589816	0.115526	0.076325
O12	O	1.089816	0.615526	0.576325
O13	O	0.755625	0.100923	0.076352
O14	O	1.255625	0.600923	0.576352
Cu15	Cu	0.672720	0.108224	0.090261
Cu16	Cu	1.172720	0.608224	0.590261
Cu17	Cu	0.672727	0.108226	-0.090065
Cu18	Cu	1.172727	0.608226	0.409935
O19	O	0.668165	0.229291	0.076328
O20	O	1.168165	0.729291	0.576328
C21	C	0.568601	0.115155	0.000081
C22	C	1.068601	0.615155	0.500081
C23	C	0.505380	0.114037	0.000071
C24	C	1.005380	0.614037	0.500071
C25	C	0.676909	-0.043814	0.000108
C26	C	1.176909	0.456186	0.500108
C27	C	0.675803	-0.136100	0.000110
C28	C	1.175803	0.363900	0.500110
C29	C	0.725127	-0.358760	0.000103
C30	C	1.225127	0.141240	0.500103
C31	C	0.724083	-0.445473	0.000095
C32	C	1.224083	0.054527	0.500095
C33	C	0.620315	-0.424782	0.000082
C34	C	1.120315	0.075218	0.500082
C35	C	0.621360	-0.338072	0.000083
C36	C	1.121360	0.161928	0.500083
C37	C	0.673768	-0.305063	0.000098
C38	C	1.173768	0.194937	0.500098
C39	C	0.671679	-0.478486	0.000089
C40	C	1.171679	0.021514	0.500089
C41	C	0.670547	-0.572503	0.000081
C42	C	1.170547	-0.072503	0.500081
C43	C	0.674900	-0.211040	0.000105
C44	C	1.174900	0.288960	0.500105
C45	C	0.106531	0.182990	0.000107
C46	C	0.606531	0.682990	0.500107
C47	C	0.047127	0.181951	0.000112
C48	C	0.547127	0.681951	0.500112
O49	O	0.010619	0.245872	0.000140
O50	O	0.510619	0.745872	0.500140
N51	N	0.024220	0.105636	0.000117
N52	N	0.524220	0.605636	0.500117
C53	C	0.060719	0.030355	0.000126
C54	C	0.560719	0.530355	0.500126
O55	O	0.035780	-0.034652	0.000131
O56	O	0.535780	0.465348	0.500131
C57	C	0.120122	0.031395	0.000126
C58	C	0.620122	0.531395	0.500126
C59	C	0.143027	0.107715	0.000112
C60	C	0.643027	0.607715	0.500112
C61	C	0.129436	0.259304	0.000093
C62	C	0.629436	0.759304	0.500093
C63	C	0.188836	0.260342	0.000086
C64	C	0.688836	0.760342	0.500086
C65	C	0.225331	0.185066	0.000092
C66	C	0.725331	0.685066	0.500092
C67	C	0.202427	0.108753	0.000105
C68	C	0.702427	0.608753	0.500105
C69	C	0.156621	-0.043886	0.000141
C70	C	0.656621	0.456114	0.500141
C71	C	0.216027	-0.042840	0.000143
C72	C	0.716027	0.457160	0.500143
C73	C	0.238932	0.033480	0.000129
C74	C	0.738932	0.533480	0.500129
C75	C	0.298322	0.034516	0.000103
C76	C	0.798322	0.534516	0.500103
N77	N	0.321229	0.110831	0.000098
N78	N	0.821229	0.610831	0.500098
C79	C	0.284734	0.186106	0.000093
C80	C	0.784734	0.686106	0.500093
C81	C	-0.064031	0.028178	0.000125
C82	C	0.435969	0.528178	0.500125
C83	C	-0.123433	0.027138	0.000118
C84	C	0.376567	0.527138	0.500118
C85	C	-0.137021	0.178734	0.000106
C86	C	0.362979	0.678734	0.500106
C87	C	-0.077618	0.179774	0.000107
C88	C	0.422382	0.679774	0.500107
C89	C	-0.041123	0.104493	0.000120
C90	C	0.458877	0.604493	0.500120
C91	C	0.409479	0.188281	0.000076
C92	C	0.909479	0.688281	0.500076
C93	C	0.468885	0.189312	0.000065
C94	C	0.968885	0.689312	0.500065
C95	C	0.482468	0.037716	0.000081
C96	C	0.982468	0.537716	0.500081
C97	C	0.423067	0.036684	0.000088
C98	C	0.923067	0.536684	0.500088
C99	C	0.386574	0.111973	0.000088
C100	C	0.886574	0.611973	0.500088
O101	O	0.334865	-0.029371	0.000079
O102	O	0.834865	0.470629	0.500079
O103	O	0.309682	0.251102	0.000099
O104	O	0.809682	0.751102	0.500099
C105	C	0.776846	0.101295	0.000113
C106	C	1.276846	0.601295	0.500113
C107	C	0.840067	0.102414	0.000117
C108	C	1.340067	0.602414	0.500117
N109	N	0.672719	0.108222	0.217093
N110	N	1.172719	0.608222	0.717093
C111	C	0.668537	0.260264	0.000085
C112	C	1.168537	0.760264	0.500085
C113	C	0.669644	0.352551	0.000078
C114	C	1.169644	0.852551	0.500078
N115	N	0.672732	0.108222	-0.216897
N116	N	1.172732	0.608222	0.283103
C117	C	0.711459	0.051399	0.452110
C118	C	1.211459	0.551399	0.952110
C119	C	0.711460	0.051397	0.548091
C120	C	1.211460	0.551397	1.048091
C121	C	0.633988	0.165047	0.548079
C122	C	1.133988	0.665047	1.048079
C123	C	0.633984	0.165045	0.452100
C124	C	1.133984	0.665045	0.952100
C125	C	0.672723	0.108222	0.404117
C126	C	1.172723	0.608222	0.904117
C127	C	0.672728	0.108222	0.596078
C128	C	1.172728	0.608222	1.096078
C129	C	0.672730	0.108220	0.700145
C130	C	1.172730	0.608220	1.200145
C131	C	0.672721	0.108222	0.300044
C132	C	1.172721	0.608222	0.800044
H133	H	0.767801	-0.331888	0.000114
H134	H	1.267801	0.168112	0.500114
F135	F	0.752687	-0.009082	0.599165
F136	F	1.252687	0.490918	1.099165
H137	H	0.577647	-0.451669	0.000071
H138	H	1.077647	0.048331	0.500071
H139	H	0.579534	-0.294349	0.000076
H140	H	1.079534	0.205651	0.500076
F141	F	0.493257	0.270546	0.000047
F142	F	0.993257	0.770546	0.500047
H143	H	0.379772	0.249588	0.000080
H144	H	0.879772	0.749588	0.500080
F145	F	0.213205	0.341573	0.000075
F146	F	0.713205	0.841573	0.500075
F147	F	-0.175872	0.258850	0.000104
F148	F	0.324128	0.758850	0.500104
F149	F	0.090603	0.339430	0.000087
F150	F	0.590603	0.839430	0.500087
F151	F	0.778748	-0.502618	0.000099
F152	F	1.278748	-0.002618	0.500099
F153	F	-0.053247	0.261003	0.000094
F154	F	0.446753	0.761003	0.500094
F155	F	0.592752	0.225522	0.401019
F156	F	1.092752	0.725522	0.901019
F157	F	0.752686	-0.009079	0.401047
F158	F	1.252686	0.490921	0.901047
H159	H	-0.142076	-0.035010	0.000115
H160	H	0.357924	0.464990	0.500115
H161	H	0.602449	0.211312	0.587156
H162	H	1.102449	0.711312	1.087156
H163	H	-0.034320	-0.033129	0.000128
H164	H	0.465680	0.466871	0.500128
F165	F	0.398690	-0.044543	0.000103
F166	F	0.898690	0.455457	0.500103
F167	F	0.254865	-0.122966	0.000159
F168	F	0.754865	0.377034	0.500159
F169	F	0.521319	-0.042393	0.000089
F170	F	1.021319	0.457607	0.500089
F171	F	0.132258	-0.125117	0.000144
F172	F	0.632258	0.374883	0.500144
