data_functionalizedCrystal
_audit_creation_method	'MofGen! by Chris Wilmer'
_symmetry_space_group_name_H-M	'P1'
_symmetry_Int_Tables_number	1
_symmetry_cell_setting	triclinic
loop_
_symmetry_equiv_pos_as_xyz
  x,y,z
_cell_length_a	18.215407
_cell_length_b	21.295417
_cell_length_c	18.215399
_cell_angle_alpha	89.967848
_cell_angle_beta	89.980167
_cell_angle_gamma	90.030955
loop_
_atom_site_label
_atom_site_type_symbol
_atom_site_fract_x
_atom_site_fract_y
_atom_site_fract_z
Zn1	Zn	1.125043	-0.250608	-0.416094
Zn2	Zn	1.625043	0.249392	0.083906
Zn3	Zn	1.124940	-0.355879	-0.293019
Zn4	Zn	1.624940	0.144121	0.206981
Zn5	Zn	1.001976	-0.250629	-0.293042
Zn6	Zn	1.501976	0.249371	0.206958
Zn7	Zn	1.001930	-0.355844	-0.416044
Zn8	Zn	1.501930	0.144156	0.083956
O9	O	1.063472	-0.303240	-0.354550
O10	O	1.563472	0.196760	0.145450
O11	O	1.228014	-0.264579	-0.399780
O12	O	1.728014	0.235421	0.100220
O13	O	1.108604	-0.341941	-0.190038
O14	O	1.608604	0.158059	0.309962
O15	O	1.018364	-0.162537	-0.309396
O16	O	1.518364	0.337463	0.190604
O17	O	1.227938	-0.341921	-0.309357
O18	O	1.727938	0.158079	0.190643
O19	O	1.108781	-0.162521	-0.399802
O20	O	1.608781	0.337479	0.100198
O21	O	1.018263	-0.264614	-0.190054
O22	O	1.518263	0.235386	0.309946
O23	O	0.898985	-0.264580	-0.309347
O24	O	1.398985	0.235420	0.190653
O25	O	1.018285	-0.341861	-0.519035
O26	O	1.518285	0.158139	-0.019035
O27	O	0.898951	-0.341881	-0.399716
O28	O	1.398951	0.158119	0.100284
O29	O	1.108736	-0.264545	-0.519072
O30	O	1.608736	0.235455	-0.019072
O31	O	1.108559	-0.443964	-0.309308
O32	O	1.608559	0.056036	0.190692
O33	O	1.018184	-0.443938	-0.399694
O34	O	1.518184	0.056062	0.100306
C35	C	0.872266	-0.303229	-0.354529
C36	C	1.372266	0.196771	0.145471
C37	C	0.790467	-0.303240	-0.354537
C38	C	1.290467	0.196760	0.145463
C39	C	0.602275	-0.343554	-0.401533
C40	C	1.102275	0.156446	0.098467
C41	C	0.525416	-0.343556	-0.401542
C42	C	1.025416	0.156444	0.098458
C43	C	0.525422	-0.262938	-0.307582
C44	C	1.025422	0.237062	0.192418
C45	C	0.602279	-0.262933	-0.307577
C46	C	1.102279	0.237067	0.192423
C47	C	0.640703	-0.303245	-0.354552
C48	C	1.140703	0.196755	0.145448
C49	C	0.486987	-0.303251	-0.354566
C50	C	0.986987	0.196749	0.145434
C51	C	0.403654	-0.303253	-0.354575
C52	C	0.903654	0.196747	0.145425
C53	C	0.724042	-0.303242	-0.354543
C54	C	1.224042	0.196758	0.145457
C55	C	1.063376	-0.466792	-0.354509
C56	C	1.563376	0.033208	0.145491
C57	C	1.063402	-0.536760	-0.354516
C58	C	1.563402	-0.036760	0.145484
C59	C	1.110502	-0.569619	-0.307500
C60	C	1.610502	-0.069619	0.192500
C61	C	1.110536	-0.635361	-0.307517
C62	C	1.610536	-0.135361	0.192483
C63	C	1.063457	-0.668242	-0.354542
C64	C	1.563457	-0.168242	0.145458
C65	C	1.016354	-0.635375	-0.401566
C66	C	1.516354	-0.135375	0.098434
C67	C	1.016326	-0.569634	-0.401554
C68	C	1.516326	-0.069634	0.098446
N69	N	0.999079	-0.771508	-0.360145
N70	N	1.499079	-0.271508	0.139855
N71	N	0.999107	-0.833960	-0.360153
N72	N	1.499107	-0.333960	0.139847
C73	C	1.063540	-0.866317	-0.354584
C74	C	1.563540	-0.366317	0.145416
N75	N	1.127944	-0.833863	-0.348993
N76	N	1.627944	-0.333863	0.151007
N77	N	1.127915	-0.771406	-0.348981
N78	N	1.627915	-0.271406	0.151019
C79	C	1.063483	-0.739528	-0.354561
C80	C	1.563483	-0.239528	0.145439
C81	C	1.110681	-0.970462	-0.307584
C82	C	1.610681	-0.470462	0.192416
C83	C	1.110717	-1.036205	-0.307605
C84	C	1.610717	-0.536205	0.192395
C85	C	1.016528	-1.036218	-0.401651
C86	C	1.516528	-0.536218	0.098349
C87	C	1.016499	-0.970475	-0.401633
C88	C	1.516499	-0.470475	0.098367
C89	C	1.063575	-0.937601	-0.354595
C90	C	1.563575	-0.437601	0.145405
C91	C	1.255425	-0.303251	-0.354571
C92	C	1.755425	0.196749	0.145429
C93	C	1.337224	-0.303256	-0.354581
C94	C	1.837224	0.196744	0.145419
C95	C	1.063517	-0.303197	-0.546503
C96	C	1.563517	0.196803	-0.046503
C97	C	1.063536	-0.303178	-0.628302
C98	C	1.563536	0.196822	-0.128302
C99	C	1.063589	-0.139050	-0.354607
C100	C	1.563589	0.360950	0.145393
C101	C	1.063639	-0.069082	-0.354631
C102	C	1.563639	0.430918	0.145369
C103	C	1.110651	-0.262882	-0.816516
C104	C	1.610651	0.237118	-0.316516
C105	C	1.110660	-0.262863	-0.893375
C106	C	1.610660	0.237137	-0.393375
C107	C	1.016473	-0.343377	-0.893325
C108	C	1.516473	0.156623	-0.393325
C109	C	1.016461	-0.343392	-0.816468
C110	C	1.516461	0.156608	-0.316468
C111	C	1.063554	-0.303145	-0.778065
C112	C	1.563554	0.196855	-0.278065
C113	C	1.063575	-0.303112	-0.931781
C114	C	1.563575	0.196888	-0.431781
C115	C	1.063584	-0.303093	-1.015115
C116	C	1.563584	0.196907	-0.515115
C117	C	1.063544	-0.303164	-0.694726
C118	C	1.563544	0.196836	-0.194726
C119	C	1.063470	-0.303238	-0.163344
C120	C	1.563470	0.196762	0.336656
C121	C	1.063593	-0.303079	-0.081545
C122	C	1.563593	0.196921	0.418455
H123	H	0.494127	-0.230118	-0.269336
H124	H	0.994127	0.269882	0.230664
C125	C	1.161876	-0.219126	-0.934989
C126	C	1.661876	0.280874	-0.434989
C127	C	1.203125	-0.183896	-0.884904
C128	C	1.703125	0.316104	-0.384904
C129	C	1.250322	-0.143603	-0.923212
C130	C	1.750322	0.356397	-0.423212
H131	H	1.133831	-0.191634	-0.964978
H132	H	1.633831	0.308366	-0.464978
H133	H	1.193968	-0.243188	-0.964953
H134	H	1.693968	0.256812	-0.464953
H135	H	1.171037	-0.159837	-0.854953
H136	H	1.671037	0.340163	-0.354953
H137	H	1.231185	-0.211372	-0.854914
H138	H	1.731185	0.288628	-0.354914
H139	H	1.282414	-0.167664	-0.953176
H140	H	1.782414	0.332336	-0.453176
H141	H	1.222270	-0.116115	-0.953199
H142	H	1.722270	0.383885	-0.453199
H143	H	1.278319	-0.119699	-0.889235
H144	H	1.778319	0.380301	-0.389235
C145	C	0.965267	-0.671185	-0.452541
C146	C	1.465267	-0.171185	0.047459
C147	C	0.975357	-0.735792	-0.442475
C148	C	1.475357	-0.235792	0.057525
C149	C	0.928302	-0.768798	-0.489418
C150	C	1.428302	-0.268798	0.010582
H151	H	0.975958	-0.660449	-0.502026
H152	H	1.475958	-0.160449	-0.002026
H153	H	0.915806	-0.660491	-0.441717
H154	H	1.415806	-0.160491	0.058283
H155	H	1.024807	-0.746482	-0.453305
H156	H	1.524807	-0.246482	0.046695
H157	H	0.964660	-0.746546	-0.393000
H158	H	1.464660	-0.246546	0.107000
H159	H	0.878841	-0.758104	-0.478594
H160	H	1.378841	-0.258104	0.021406
H161	H	0.938998	-0.758058	-0.538900
H162	H	1.438998	-0.258058	-0.038900
H163	H	0.935137	-0.812637	-0.482590
H164	H	1.435137	-0.312637	0.017410
H165	H	0.633557	-0.376377	-0.439785
H166	H	1.133557	0.123623	0.060215
H167	H	0.494130	-0.376379	-0.439801
H168	H	0.994130	0.123621	0.060199
C169	C	0.965272	-0.387101	-0.934888
C170	C	1.465272	0.112899	-0.434888
C171	C	0.924010	-0.422354	-0.884761
C172	C	1.424010	0.077646	-0.384761
C173	C	0.876830	-0.462636	-0.923021
C174	C	1.376830	0.037364	-0.423021
H175	H	0.993330	-0.414580	-0.964866
H176	H	1.493330	0.085420	-0.464866
H177	H	0.933187	-0.363030	-0.964860
H178	H	1.433187	0.136970	-0.464860
H179	H	0.956091	-0.446423	-0.854803
H180	H	1.456091	0.053577	-0.354803
H181	H	0.895937	-0.394892	-0.854782
H182	H	1.395937	0.105108	-0.354782
H183	H	0.844745	-0.438564	-0.952992
H184	H	1.344745	0.061436	-0.452992
H185	H	0.904894	-0.490110	-0.952997
H186	H	1.404894	0.009890	-0.452997
H187	H	0.848823	-0.486555	-0.889015
H188	H	1.348823	0.013445	-0.389015
C189	C	0.965103	-0.534068	-0.452627
C190	C	1.465103	-0.034068	0.047373
C191	C	0.923868	-0.576931	-0.493805
C192	C	1.423868	-0.076931	0.006195
C193	C	0.876666	-0.544189	-0.540854
C194	C	1.376666	-0.044189	-0.040854
H195	H	0.993143	-0.508376	-0.484777
H196	H	1.493143	-0.008376	0.015223
H197	H	0.933002	-0.508480	-0.424456
H198	H	1.433002	-0.008480	0.075544
H199	H	0.955965	-0.602508	-0.521974
H200	H	1.455965	-0.102508	-0.021974
H201	H	0.895813	-0.602624	-0.461675
H202	H	1.395813	-0.102624	0.038325
H203	H	0.844565	-0.518601	-0.512682
H204	H	1.344565	-0.018601	-0.012682
H205	H	0.904712	-0.518498	-0.572998
H206	H	1.404712	-0.018498	-0.072998
H207	H	0.848678	-0.573267	-0.568794
H208	H	1.348678	-0.073267	-0.068794
C209	C	0.643875	-0.219142	-0.256484
C210	C	1.143875	0.280858	0.243516
C211	C	0.593776	-0.183856	-0.215329
C212	C	1.093776	0.316144	0.284671
C213	C	0.632067	-0.143516	-0.168252
C214	C	1.132067	0.356484	0.331748
H215	H	0.673886	-0.191688	-0.284612
H216	H	1.173886	0.308312	0.215388
H217	H	0.673815	-0.243173	-0.224328
H218	H	1.173815	0.256827	0.275672
H219	H	0.563848	-0.159826	-0.247481
H220	H	1.063848	0.340174	0.252519
H221	H	0.563763	-0.211293	-0.187186
H222	H	1.063763	0.288707	0.312814
H223	H	0.662008	-0.167547	-0.136096
H224	H	1.162008	0.332453	0.363904
H225	H	0.662077	-0.116066	-0.196386
H226	H	1.162077	0.383934	0.303614
H227	H	0.598081	-0.119573	-0.140318
H228	H	1.098081	0.380427	0.359682
H229	H	1.148835	-0.542855	-0.269202
H230	H	1.648835	-0.042855	0.230798
H231	H	0.978104	-0.376179	-0.785160
H232	H	1.478104	0.123821	-0.285160
C233	C	1.161700	-0.670934	-0.256385
C234	C	1.661700	-0.170934	0.243615
C235	C	1.202908	-0.628073	-0.215177
C236	C	1.702908	-0.128073	0.284823
C237	C	1.250039	-0.660817	-0.168059
C238	C	1.750039	-0.160817	0.331941
H239	H	1.193827	-0.696542	-0.284485
H240	H	1.693827	-0.196542	0.215515
H241	H	1.133587	-0.696606	-0.224263
H242	H	1.633587	-0.196606	0.275737
H243	H	1.231019	-0.602412	-0.247295
H244	H	1.731019	-0.102412	0.252705
H245	H	1.170801	-0.602464	-0.187062
H246	H	1.670801	-0.102464	0.312938
H247	H	1.221926	-0.686489	-0.135937
H248	H	1.721926	-0.186489	0.364063
H249	H	1.282161	-0.686424	-0.196165
H250	H	1.782161	-0.186424	0.303835
H251	H	1.277999	-0.631741	-0.140090
H252	H	1.777999	-0.131741	0.359910
H253	H	1.149015	-0.943694	-0.269285
H254	H	1.649015	-0.443694	0.230715
H255	H	0.978143	-0.943720	-0.439914
H256	H	1.478143	-0.443720	0.060086
C257	C	1.161886	-1.071770	-0.256476
C258	C	1.661886	-0.571770	0.243524
C259	C	1.203089	-1.028906	-0.215269
C260	C	1.703089	-0.528906	0.284731
C261	C	1.250227	-1.061646	-0.168154
C262	C	1.750227	-0.561646	0.331846
H263	H	1.194016	-1.097374	-0.284578
H264	H	1.694016	-0.597374	0.215422
H265	H	1.133778	-1.097446	-0.224354
H266	H	1.633778	-0.597446	0.275646
H267	H	1.231196	-1.003241	-0.247387
H268	H	1.731196	-0.503241	0.252613
H269	H	1.170979	-1.003301	-0.187152
H270	H	1.670979	-0.503301	0.312848
H271	H	1.222119	-1.087322	-0.136032
H272	H	1.722119	-0.587322	0.363968
H273	H	1.282352	-1.087249	-0.196262
H274	H	1.782352	-0.587249	0.303738
H275	H	1.278184	-1.032568	-0.140184
H276	H	1.778184	-0.532568	0.359816
H277	H	0.978199	-1.062989	-0.439942
H278	H	1.478199	-0.562989	0.060058
H279	H	1.148995	-0.230109	-0.785251
H280	H	1.648995	0.269891	-0.285251
