data_functionalizedCrystal
_audit_creation_method	'MofGen! by Chris Wilmer'
_symmetry_space_group_name_H-M	'P1'
_symmetry_Int_Tables_number	1
_symmetry_cell_setting	triclinic
loop_
_symmetry_equiv_pos_as_xyz
  x,y,z
_cell_length_a	16.992694
_cell_length_b	16.053802
_cell_length_c	16.992695
_cell_angle_alpha	87.258926
_cell_angle_beta	90.668223
_cell_angle_gamma	92.750953
loop_
_atom_site_label
_atom_site_type_symbol
_atom_site_fract_x
_atom_site_fract_y
_atom_site_fract_z
O1	O	-1.053959	-0.069325	-0.163815
O2	O	-0.825560	-0.069350	-0.161983
O3	O	-0.938844	-0.069331	-0.048699
O4	O	-0.940676	-0.069344	-0.277099
O5	O	-0.932607	0.069527	-0.054907
O6	O	-0.819323	0.069508	-0.168191
O7	O	-1.047722	0.069533	-0.170023
Zn8	Zn	-0.932532	0.091567	-0.170093
Zn9	Zn	-0.940750	-0.091384	-0.161913
O10	O	-0.934438	0.069514	-0.283307
C11	C	-0.793082	0.000076	-0.162731
C12	C	-0.705597	0.000067	-0.155702
C13	C	-0.933370	0.000098	-0.022443
C14	C	-0.926341	0.000097	0.065042
C15	C	-1.080201	0.000105	-0.169275
C16	C	-1.167685	0.000109	-0.176304
N17	N	-0.926930	0.216427	-0.175675
C18	C	-0.659607	0.000064	-0.223520
C19	C	-0.577405	0.000076	-0.216911
C20	C	-0.541197	0.000085	-0.142484
C21	C	-0.587193	0.000091	-0.074661
C22	C	-0.669393	0.000085	-0.081270
C23	C	-0.295881	0.000109	-0.115090
C24	C	-0.213676	0.000112	-0.108486
C25	C	-0.203893	0.000099	-0.250737
C26	C	-0.286095	0.000088	-0.257339
C27	C	-0.332084	0.000098	-0.189517
N28	N	-0.457174	0.000094	-0.135727
N29	N	-0.416105	0.000094	-0.196275
N30	N	-0.946358	-0.216243	-0.156325
C31	C	-0.975152	0.260129	-0.127492
C32	C	-0.971241	0.347535	-0.131404
C33	C	-0.919110	0.391237	-0.183504
C34	C	-0.870883	0.347529	-0.231689
C35	C	-0.874791	0.260125	-0.227772
C36	C	-0.902039	0.652644	-0.200593
C37	C	-0.898136	0.740055	-0.204508
C38	C	-0.998493	0.740054	-0.104222
C39	C	-1.002400	0.652648	-0.100313
C40	C	-0.954169	0.608948	-0.148494
N41	N	-0.915113	0.480580	-0.187507
N42	N	-0.958163	0.519606	-0.144487
C43	C	-0.939913	0.000084	-0.309563
C44	C	-0.946942	0.000079	-0.397047
C45	C	-0.994158	0.000105	0.111032
C46	C	-0.987550	0.000096	0.193233
C47	C	-0.913123	0.000086	0.229442
C48	C	-0.845300	0.000075	0.183446
C49	C	-0.851910	0.000078	0.101246
C50	C	-0.885729	0.000071	0.474757
C51	C	-0.879124	0.000071	0.556962
C52	C	-1.021375	0.000091	0.566745
C53	C	-1.027978	0.000099	0.484543
C54	C	-0.960155	0.000083	0.438554
N55	N	-0.906366	0.000079	0.313465
N56	N	-0.966913	0.000084	0.354533
H57	H	-0.689081	0.000056	-0.284126
H58	H	-0.333316	0.000118	-0.059864
H59	H	-0.557705	0.000110	-0.014061
H60	H	-0.706838	0.000087	-0.026046
H61	H	-0.539963	0.000072	-0.272136
O62	O	-1.066420	0.000004	0.075777
C63	C	-1.077736	-0.071921	0.031748
H64	H	-1.018051	-0.095902	0.016255
H65	H	-1.111760	-0.055743	-0.024705
H66	H	-1.112548	-0.122277	0.068091
H67	H	-1.017605	0.224552	-0.085070
H68	H	-0.784700	0.000061	0.212933
O69	O	-1.018173	0.389857	-0.084578
C70	C	-1.065016	0.332542	-0.037748
H71	H	-1.070700	0.270229	-0.067285
H72	H	-1.126003	0.357785	-0.030862
H73	H	-1.036224	0.323264	0.022770
O74	O	-1.053056	0.610327	-0.049631
C75	C	-1.094795	0.667644	-0.007955
H76	H	-1.059681	0.729954	-0.007815
H77	H	-1.103997	0.642398	0.055283
H78	H	-1.154456	0.676926	-0.037631
O79	O	-0.847417	0.782380	-0.255131
C80	C	-0.805695	0.725067	-0.296829
H81	H	-0.805575	0.662765	-0.261710
H82	H	-0.742452	0.750331	-0.305979
H83	H	-0.835318	0.715761	-0.356514
H84	H	-1.037759	0.775643	-0.064994
O85	O	-0.321137	0.000121	-0.329701
C86	C	-0.262918	0.000100	-0.388143
H87	H	-0.204580	0.026394	-0.363758
H88	H	-0.281442	0.040409	-0.441598
H89	H	-0.255654	-0.066518	-0.406330
O90	O	-0.855312	0.610113	-0.247443
C91	C	-0.902774	0.559561	-0.296422
H92	H	-0.962989	0.546453	-0.268371
H93	H	-0.873441	0.498105	-0.304058
H94	H	-0.910270	0.593244	-0.356444
H95	H	-0.818513	0.000076	0.586440
H96	H	-0.828433	0.383117	-0.274107
H97	H	-0.835522	0.224543	-0.267007
H98	H	-0.796685	0.000071	0.063801
O99	O	-1.100251	0.000251	0.449326
C100	C	-1.105089	0.072158	0.398845
H101	H	-1.060482	0.122419	0.418600
H102	H	-1.166986	0.096303	0.401155
H103	H	-1.091713	0.055898	0.335960
H104	H	-1.042774	0.000105	0.230676
H105	H	-1.076592	0.000102	0.604198
H106	H	-0.166440	0.000092	-0.305954
O107	O	-0.819767	0.000105	0.430205
C108	C	-0.752662	0.000080	0.479794
H109	H	-0.767627	0.026367	0.538649
H110	H	-0.703018	0.040394	0.450826
H111	H	-0.733078	-0.066538	0.490006
H112	H	-0.184198	0.000119	-0.047875
