data_functionalizedCrystal
_audit_creation_method	'MofGen! by Chris Wilmer'
_symmetry_space_group_name_H-M	'P1'
_symmetry_Int_Tables_number	1
_symmetry_cell_setting	triclinic
loop_
_symmetry_equiv_pos_as_xyz
  x,y,z
_cell_length_a	12.827892
_cell_length_b	15.298563
_cell_length_c	12.827885
_cell_angle_alpha	80.356255
_cell_angle_beta	89.970214
_cell_angle_gamma	80.291755
loop_
_atom_site_label
_atom_site_type_symbol
_atom_site_fract_x
_atom_site_fract_y
_atom_site_fract_z
Zn1	Zn	-0.139193	-1.379158	-0.314918
Zn2	Zn	-0.313989	-1.379066	-0.140197
Zn3	Zn	-0.169520	-1.228301	-0.170374
Zn4	Zn	-0.344171	-1.228288	-0.345063
O5	O	-0.241718	-1.303703	-0.242638
O6	O	-0.137056	-1.505381	-0.266496
O7	O	-0.294885	-1.359034	0.002030
O8	O	-0.019252	-1.248356	-0.189562
O9	O	-0.265478	-1.505314	-0.138129
O10	O	0.003029	-1.359190	-0.295758
O11	O	-0.188745	-1.248267	-0.020141
O12	O	-0.218011	-1.102064	-0.218792
O13	O	-0.316920	-1.248334	-0.487294
O14	O	-0.346327	-1.102054	-0.347135
O15	O	-0.166323	-1.359177	-0.465146
O16	O	-0.464237	-1.359022	-0.167359
O17	O	-0.486412	-1.248245	-0.317874
C18	C	-0.288736	-1.069327	-0.289510
C19	C	-0.308876	-0.969060	-0.309587
C20	C	-0.513239	-1.303647	-0.242631
C21	C	-0.629381	-1.303705	-0.242646
C22	C	-0.098013	-0.686344	-0.099339
C23	C	-0.079085	-0.780549	-0.080477
C24	C	-0.136531	-0.827682	-0.137752
C25	C	-0.212909	-0.780599	-0.213894
C26	C	-0.231833	-0.686384	-0.232764
C27	C	-0.270351	-0.827722	-0.271177
C28	C	-0.346728	-0.780640	-0.347319
C29	C	-0.365649	-0.686434	-0.366184
C30	C	-0.308203	-0.639301	-0.308909
C31	C	-0.251427	-0.921937	-0.252307
C32	C	-0.385246	-0.921978	-0.385732
C33	C	-0.404174	-0.827772	-0.404594
C34	C	-0.670145	-1.358586	-0.168224
C35	C	-0.790183	-1.358647	-0.168239
C36	C	0.030868	-1.303784	-0.242663
C37	C	0.147028	-1.303819	-0.242674
C38	C	-0.241606	-1.303765	-0.515196
C39	C	-0.241558	-1.303791	-0.631344
C40	C	-0.194512	-0.538994	-0.195571
C41	C	-0.174384	-0.639261	-0.175484
C42	C	-0.167024	-1.358645	-0.672168
C43	C	-0.166972	-1.358674	-0.792213
C44	C	-0.241745	-1.303694	0.028870
C45	C	-0.241463	-1.303842	0.145052
H46	H	-0.189236	-0.960263	-0.190315
Br47	Br	-0.347837	-1.225567	-0.796376
H48	H	-0.305325	-1.256843	-0.685267
Br49	Br	-0.020045	-0.622376	-0.021632
Br50	Br	-0.848676	-1.436957	-0.062028
Br51	Br	-0.060617	-1.436962	-0.850789
Br52	Br	-0.794489	-1.225492	-0.348873
Br53	Br	-0.580203	-1.436835	-0.062012
H54	H	-0.121115	-0.904388	-0.122391
H55	H	-0.103248	-1.405584	-0.618248
H56	H	-0.016902	-0.818877	-0.018479
H57	H	-0.683348	-1.256769	-0.306375
H58	H	-0.323615	-0.562591	-0.324257
H59	H	-0.466361	-0.789424	-0.466590
Br60	Br	-0.469289	-0.622537	-0.469535
H61	H	-0.432020	-0.960353	-0.432374
