data_functionalizedCrystal
_audit_creation_method	'MofGen! by Chris Wilmer'
_symmetry_space_group_name_H-M	'P1'
_symmetry_Int_Tables_number	1
_symmetry_cell_setting	triclinic
loop_
_symmetry_equiv_pos_as_xyz
  x,y,z
_cell_length_a	10.654550
_cell_length_b	13.448316
_cell_length_c	10.654550
_cell_angle_alpha	89.996507
_cell_angle_beta	95.515069
_cell_angle_gamma	90.001838
loop_
_atom_site_label
_atom_site_type_symbol
_atom_site_fract_x
_atom_site_fract_y
_atom_site_fract_z
O1	O	1.667842	0.082617	-0.176397
O2	O	1.302364	0.082636	-0.193203
O3	O	1.493506	0.082620	-0.002061
O4	O	1.476700	0.082633	-0.367539
O5	O	1.493487	-0.082764	-0.002059
O6	O	1.302345	-0.082748	-0.193201
O7	O	1.667823	-0.082766	-0.176395
Cu8	Cu	1.485082	-0.097858	-0.184798
Cu9	Cu	1.485105	0.097727	-0.184800
O10	O	1.476681	-0.082751	-0.367537
C11	C	1.255556	-0.000054	-0.191968
C12	C	1.116113	-0.000047	-0.188276
N13	N	1.485075	-0.235422	-0.184796
C14	C	1.036628	-0.000046	-0.300818
C15	C	0.905607	-0.000063	-0.297341
C16	C	0.933570	-0.000079	-0.068772
C17	C	1.064588	-0.000069	-0.072250
C18	C	1.561904	-0.287460	-0.261679
C19	C	1.561920	-0.391563	-0.261673
C20	C	1.485099	-0.443627	-0.184791
C21	C	1.408267	-0.391583	-0.107899
C22	C	1.408259	-0.287481	-0.107899
C23	C	1.408287	-0.608563	-0.107908
C24	C	1.408293	-0.712671	-0.107910
C25	C	1.561948	-0.712644	-0.261682
C26	C	1.561940	-0.608543	-0.261682
C27	C	1.485106	-0.556506	-0.184792
C28	C	1.714631	-0.000075	-0.177630
C29	C	1.854074	-0.000075	-0.181322
C30	C	1.492263	-0.000072	0.044738
C31	C	1.488571	-0.000070	0.184181
N32	N	1.485122	0.235292	-0.184792
C33	C	1.477925	-0.000057	-0.414336
C34	C	1.481616	-0.000052	-0.553779
C35	C	1.601112	-0.000075	0.263667
C36	C	1.597636	-0.000063	0.394688
C37	C	1.369066	-0.000044	0.366725
C38	C	1.372544	-0.000049	0.235706
H39	H	1.078574	-0.000036	-0.395294
H40	H	1.345737	-0.755059	-0.045307
H41	H	1.129309	-0.000073	0.019401
Cl42	Cl	1.223212	-0.000019	0.431509
Cl43	Cl	1.739124	-0.000067	0.494608
Cl44	Cl	0.868786	-0.000100	0.077082
Cl45	Cl	1.231051	-0.000034	0.135774
H46	H	0.840894	-0.000064	-0.388984
H47	H	1.624453	-0.245076	-0.324293
H48	H	1.624484	-0.433927	-0.324277
H49	H	1.624488	-0.566155	-0.324292
Cl50	Cl	1.658544	-0.778062	-0.358339
H51	H	1.345724	-0.433982	-0.045294
Cl52	Cl	1.311713	-0.543146	-0.011224
Cl53	Cl	1.746974	-0.000098	0.198897
Cl54	Cl	1.311683	-0.222063	-0.011228
