data_functionalizedCrystal
_audit_creation_method	'MofGen! by Chris Wilmer'
_symmetry_space_group_name_H-M	'P1'
_symmetry_Int_Tables_number	1
_symmetry_cell_setting	triclinic
loop_
_symmetry_equiv_pos_as_xyz
  x,y,z
_cell_length_a	14.971491
_cell_length_b	10.723023
_cell_length_c	13.448316
_cell_angle_alpha	89.994428
_cell_angle_beta	89.991393
_cell_angle_gamma	84.041892
loop_
_atom_site_label
_atom_site_type_symbol
_atom_site_fract_x
_atom_site_fract_y
_atom_site_fract_z
O1	O	1.187818	0.162647	-0.082732
O2	O	0.927522	0.182114	-0.082725
O3	O	1.063674	-0.009258	-0.082725
O4	O	1.051666	0.354020	-0.082732
O5	O	1.063657	-0.009270	0.082659
O6	O	0.927505	0.182102	0.082659
O7	O	1.187800	0.162636	0.082652
Cu8	Cu	1.057651	0.172368	0.097756
Cu9	Cu	1.057672	0.172382	-0.097829
O10	O	1.051648	0.354008	0.082651
C11	C	0.894185	0.181237	-0.000032
C12	C	0.794874	0.178624	-0.000029
C13	C	0.367117	0.167358	-0.090202
C14	C	0.460430	0.169809	-0.090199
C15	C	0.507073	0.171036	-0.000045
C16	C	0.460399	0.169800	0.090112
C17	C	0.367088	0.167340	0.090107
C18	C	0.654888	0.174929	0.090115
C19	C	0.748206	0.177392	0.090121
C20	C	0.748231	0.177399	-0.090190
C21	C	0.654920	0.174939	-0.090195
C22	C	0.608252	0.173705	-0.000038
C23	C	1.062792	-0.055754	-0.000034
C24	C	1.060178	-0.194281	-0.000037
C25	C	1.059021	-0.256029	-0.085712
C26	C	1.056319	-0.399204	-0.085717
C27	C	1.221138	0.163513	-0.000044
C28	C	1.320449	0.166126	-0.000053
C29	C	1.052531	0.400504	-0.000042
C30	C	1.055145	0.539031	-0.000045
N31	N	1.057643	0.172357	0.235321
N32	N	1.057686	0.172383	-0.235394
C33	C	1.117950	0.087653	0.287361
C34	C	1.117956	0.087652	0.391464
C35	C	1.057658	0.172362	0.443525
C36	C	0.997344	0.257071	0.391477
C37	C	0.997335	0.257065	0.287376
C38	C	0.997369	0.257079	0.608457
C39	C	0.997379	0.257087	0.712566
C40	C	1.117990	0.087666	0.712546
C41	C	1.117981	0.087660	0.608444
C42	C	1.057668	0.172371	0.556404
H43	H	0.498424	0.170805	-0.163607
H44	H	1.056144	-0.407876	0.073308
H45	H	1.059162	-0.247413	0.073309
C46	C	1.184284	-0.005538	0.230103
N47	N	1.234245	-0.075736	0.186980
H48	H	1.167062	0.018678	0.433835
H49	H	1.060028	-0.202896	-0.159058
H50	H	1.167084	0.018688	0.566056
H51	H	0.948244	0.326040	0.433871
H52	H	0.329091	0.166349	0.163516
C53	C	1.054976	-0.470938	-0.184813
N54	N	1.053962	-0.524971	-0.259455
C55	C	0.799512	0.178728	0.189295
N56	N	0.838157	0.179731	0.263994
C57	C	1.184331	-0.005522	0.769792
N58	N	1.234300	-0.075705	0.812915
C59	C	0.931043	0.350266	0.769831
N60	N	0.881077	0.420448	0.812963
C61	C	0.931012	0.350253	0.551215
N62	N	0.881033	0.420430	0.508101
H63	H	0.948226	0.326039	0.245006
H64	H	0.329146	0.166368	-0.163617
H65	H	0.786232	0.178405	-0.163599
C66	C	0.603615	0.173584	-0.189369
N67	N	0.564973	0.172555	-0.264069
H68	H	0.616893	0.173940	0.163531
H69	H	0.498384	0.170791	0.163517
