data_functionalizedCrystal
_audit_creation_method	'MofGen! by Chris Wilmer'
_symmetry_space_group_name_H-M	'P1'
_symmetry_Int_Tables_number	1
_symmetry_cell_setting	triclinic
loop_
_symmetry_equiv_pos_as_xyz
  x,y,z
_cell_length_a	10.489746
_cell_length_b	13.339070
_cell_length_c	11.804365
_cell_angle_alpha	105.124870
_cell_angle_beta	101.953295
_cell_angle_gamma	79.914702
loop_
_atom_site_label
_atom_site_type_symbol
_atom_site_fract_x
_atom_site_fract_y
_atom_site_fract_z
O1	O	0.622516	-1.367274	-0.099074
O2	O	0.538370	-1.072131	-0.099067
O3	O	0.397145	-1.226414	-0.099062
O4	O	0.763740	-1.212991	-0.099079
O5	O	0.434272	-1.185797	0.098993
O6	O	0.575497	-1.031514	0.098988
O7	O	0.659643	-1.326657	0.098980
Cu8	Cu	0.620960	-1.175377	0.117068
Cu9	Cu	0.577053	-1.223411	-0.117154
O10	O	0.800867	-1.172374	0.098975
C11	C	0.542719	-1.014029	-0.000038
C12	C	0.500351	-0.901418	-0.000035
N13	N	0.651843	-1.141599	0.281808
C14	C	0.367829	-1.205090	-0.000035
C15	C	0.225160	-1.202053	-0.000035
C16	C	0.038078	-1.102092	-0.000048
C17	C	0.114275	-1.172096	-0.097698
C18	C	0.150846	-1.132074	0.097569
C19	C	0.047152	-1.266719	-0.097792
C20	C	0.083730	-1.226665	0.097562
C21	C	0.159897	-1.296743	-0.000112
C22	C	0.830182	-1.193698	-0.000054
C23	C	0.972850	-1.196737	-0.000061
C24	C	0.655293	-1.384759	-0.000051
C25	C	0.697659	-1.497372	-0.000062
C26	C	0.829783	-0.539037	-0.000070
C27	C	0.869593	-0.644841	-0.000076
C28	C	0.777286	-0.708990	-0.000066
C29	C	0.645162	-0.667325	-0.000049
C30	C	0.605345	-0.561512	-0.000052
C31	C	0.552849	-0.731465	-0.000048
C32	C	0.420724	-0.689800	-0.000031
C33	C	0.380915	-0.583997	-0.000033
C34	C	0.473222	-0.519847	-0.000044
C35	C	0.592665	-0.837278	-0.000045
C36	C	0.368227	-0.859753	-0.000027
C37	C	0.328417	-0.753949	-0.000020
N38	N	0.546162	-1.257197	-0.281894
C39	C	0.471974	-1.338308	0.655763
C40	C	0.448605	-1.363860	0.531102
C41	C	0.499412	-1.308297	0.468772
C42	C	0.573593	-1.227178	0.531116
C43	C	0.596974	-1.201630	0.655789
C44	C	0.624412	-1.171618	0.468798
C45	C	0.698593	-1.090499	0.531142
C46	C	0.721968	-1.064954	0.655802
C47	C	0.671161	-1.120518	0.718132
C48	C	0.601031	-1.197166	0.344125
C49	C	0.726031	-1.060487	0.344151
C50	C	0.749400	-1.034936	0.468812
H51	H	-0.014833	-1.019816	-0.000143
H52	H	0.388209	-1.429906	0.480346
F53	F	0.269978	-0.928022	-0.000024
H54	H	0.430622	-1.383546	0.706520
H55	H	0.809801	-0.968888	0.519588
F56	F	0.696027	-1.093320	0.850813
F57	F	0.064961	-1.256710	0.205473
H58	H	0.540633	-1.263213	0.293376
H59	H	0.480381	-1.329104	0.367268
H60	H	0.809708	-0.795141	-0.000074
H61	H	0.782383	-0.998911	0.706563
F62	F	0.132992	-1.142007	-0.205607
H63	H	0.212556	-1.379112	-0.000168
F64	F	0.780113	-1.001352	0.277821
H65	H	0.904923	-0.486800	-0.000089
F66	F	-0.011799	-1.341060	-0.205823
H67	H	0.440815	-0.433691	-0.000038
H68	H	0.196082	-1.075172	0.180125
F69	F	0.240290	-0.539663	-0.000049
H70	H	0.700242	-0.871191	-0.000054
F71	F	1.010203	-0.689179	-0.000099
H72	H	0.220837	-0.720011	-0.000017
