data_functionalizedCrystal
_audit_creation_method	'MofGen! by Chris Wilmer'
_symmetry_space_group_name_H-M	'P1'
_symmetry_Int_Tables_number	1
_symmetry_cell_setting	triclinic
loop_
_symmetry_equiv_pos_as_xyz
  x,y,z
_cell_length_a	14.519709
_cell_length_b	19.288864
_cell_length_c	18.366186
_cell_angle_alpha	89.976766
_cell_angle_beta	89.994197
_cell_angle_gamma	83.408195
loop_
_atom_site_label
_atom_site_type_symbol
_atom_site_fract_x
_atom_site_fract_y
_atom_site_fract_z
O1	O	0.115043	0.921767	-0.060785
O2	O	0.448376	1.255101	0.272549
O3	O	0.781710	1.588434	0.605882
O4	O	0.130562	0.719562	-0.060735
O5	O	0.463896	1.052896	0.272598
O6	O	0.797229	1.386229	0.605931
O7	O	-0.011470	0.826026	-0.060755
O8	O	0.321864	1.159359	0.272579
O9	O	0.655197	1.492693	0.605912
O10	O	0.257075	0.815304	-0.060765
O11	O	0.590408	1.148637	0.272568
O12	O	0.923742	1.481970	0.605901
O13	O	-0.011473	0.826007	0.060345
O14	O	0.321860	1.159340	0.393678
O15	O	0.655194	1.492674	0.727011
O16	O	0.130559	0.719543	0.060364
O17	O	0.463893	1.052877	0.393698
O18	O	0.797226	1.386210	0.727031
O19	O	0.115040	0.921748	0.060315
O20	O	0.448373	1.255081	0.393648
O21	O	0.781707	1.588415	0.726981
Zn22	Zn	0.122799	0.820643	0.079567
Zn23	Zn	0.456132	1.153976	0.412900
Zn24	Zn	0.789466	1.487309	0.746233
Zn25	Zn	0.122803	0.820668	-0.079987
Zn26	Zn	0.456136	1.154001	0.253346
Zn27	Zn	0.789470	1.487335	0.586680
O28	O	0.257072	0.815285	0.060334
O29	O	0.590405	1.148618	0.393668
O30	O	0.923739	1.481951	0.727001
C31	C	0.130061	0.693675	-0.000179
C32	C	0.463395	1.027008	0.333154
C33	C	0.796728	1.360341	0.666488
C34	C	0.128562	0.616566	-0.000160
C35	C	0.461896	0.949899	0.333173
C36	C	0.795229	1.283232	0.666507
C37	C	0.211900	0.572169	-0.000175
C38	C	0.545234	0.905503	0.333159
C39	C	0.878567	1.238836	0.666492
C40	C	0.210492	0.499717	-0.000183
C41	C	0.543825	0.833050	0.333151
C42	C	0.877159	1.166384	0.666484
C43	C	0.125741	0.471665	-0.000191
C44	C	0.459074	0.804998	0.333143
C45	C	0.792408	1.138331	0.666476
C46	C	0.042392	0.516071	-0.000172
C47	C	0.375725	0.849404	0.333162
C48	C	0.709059	1.182737	0.666495
C49	C	0.043803	0.588521	-0.000156
C50	C	0.377136	0.921855	0.333177
C51	C	0.710469	1.255188	0.666510
C52	C	0.059118	0.363170	-0.042639
C53	C	0.392452	0.696503	0.290694
C54	C	0.725785	1.029836	0.624028
C55	C	0.057711	0.290720	-0.042659
C56	C	0.391045	0.624053	0.290675
C57	C	0.724378	0.957387	0.624008
C58	C	0.121387	0.248203	-0.000234
C59	C	0.454720	0.581537	0.333099
C60	C	0.788053	0.914870	0.666432
C61	C	0.186485	0.278144	0.042200
C62	C	0.519818	0.611477	0.375533
C63	C	0.853152	0.944810	0.708867
C64	C	0.187896	0.350594	0.042215
C65	C	0.521229	0.683928	0.375549
C66	C	0.854562	1.017261	0.708882
C67	C	0.124202	0.393105	-0.000207
C68	C	0.457535	0.726438	0.333127
C69	C	0.790869	1.059772	0.666460
C70	C	0.203203	0.125246	-0.000257
C71	C	0.536537	0.458579	0.333077
C72	C	0.869870	0.791912	0.666410
C73	C	0.201792	0.052792	-0.000260
C74	C	0.535125	0.386126	0.333073
C75	C	0.868458	0.719459	0.666406
C76	C	0.033689	0.069148	-0.000257
C77	C	0.367023	0.402481	0.333077
C78	C	0.700356	0.735814	0.666410
C79	C	0.035103	0.141599	-0.000246
C80	C	0.368437	0.474933	0.333087
C81	C	0.701770	0.808266	0.666421
C82	C	0.119863	0.169644	-0.000249
C83	C	0.453196	0.502977	0.333084
C84	C	0.786530	0.836310	0.666417
C85	C	-0.045828	0.825517	-0.000205
C86	C	0.287505	1.158850	0.333129
C87	C	0.620839	1.492183	0.666462
C88	C	-0.148200	0.824019	-0.000204
C89	C	0.185134	1.157353	0.333129
C90	C	0.518467	1.490686	0.666463
C91	C	-0.523061	0.818507	-0.000222
C92	C	-0.189727	1.151840	0.333112
C93	C	0.143606	1.485173	0.666445
C94	C	-0.418762	0.820037	-0.000216
C95	C	-0.085429	1.153371	0.333117
C96	C	0.247904	1.486704	0.666450
C97	C	-0.335633	0.821263	-0.000212
C98	C	-0.002300	1.154596	0.333121
C99	C	0.331033	1.487929	0.666455
C100	C	-0.231329	0.822794	-0.000208
C101	C	0.102005	1.156127	0.333125
C102	C	0.435338	1.489461	0.666458
C103	C	0.291430	0.815794	-0.000217
C104	C	0.624763	1.149127	0.333116
C105	C	0.958097	1.482461	0.666449
C106	C	0.393802	0.817291	-0.000223
C107	C	0.727135	1.150625	0.333110
C108	C	1.060469	1.483958	0.666444
C109	C	0.115541	0.947636	-0.000243
C110	C	0.448874	1.280969	0.333090
C111	C	0.782207	1.614303	0.666424
C112	C	0.117040	1.024745	-0.000267
C113	C	0.450373	1.358078	0.333066
C114	C	0.783706	1.691412	0.666400
N115	N	0.122796	0.820631	0.188458
N116	N	0.456129	1.153964	0.521791
N117	N	0.789462	1.487297	0.855124
C118	C	0.178592	0.862819	0.226539
C119	C	0.511925	1.196152	0.559872
C120	C	0.845258	1.529485	0.893205
C121	C	0.178590	0.862830	0.302767
C122	C	0.511923	1.196163	0.636100
C123	C	0.845256	1.529496	0.969433
C124	C	0.122802	0.820639	0.340910
C125	C	0.456136	1.153973	0.674244
C126	C	0.789469	1.487306	1.007577
C127	C	0.066995	0.778449	0.302820
C128	C	0.400328	1.111782	0.636153
C129	C	0.733662	1.445115	0.969487
C130	C	0.066992	0.778444	0.226594
C131	C	0.400325	1.111777	0.559927
C132	C	0.733658	1.445111	0.893260
C133	C	0.120471	0.758019	0.461707
C134	C	0.453804	1.091352	0.795040
C135	C	0.787137	1.424685	1.128374
C136	C	0.120480	0.758022	0.537932
C137	C	0.453814	1.091355	0.871265
C138	C	0.787147	1.424688	1.204599
C139	C	0.122807	0.820654	0.576018
C140	C	0.456140	1.153987	0.909351
C141	C	0.789474	1.487320	1.242685
C142	C	0.125143	0.883284	0.537870
C143	C	0.458476	1.216617	0.871203
C144	C	0.791810	1.549951	1.204536
C145	C	0.125140	0.883280	0.461643
C146	C	0.458473	1.216613	0.794977
C147	C	0.791806	1.549946	1.128310
C148	C	0.122799	0.820640	0.423565
C149	C	0.456133	1.153973	0.756898
C150	C	0.789466	1.487307	1.090232
C151	C	0.178604	0.862857	0.696754
C152	C	0.511937	1.196191	1.030087
C153	C	0.845270	1.529524	1.363421
C154	C	0.178595	0.862870	0.772983
C155	C	0.511928	1.196203	1.106317
C156	C	0.845262	1.529536	1.439650
C157	C	0.067006	0.778482	0.773035
C158	C	0.400339	1.111816	1.106369
C159	C	0.733672	1.445149	1.439702
C160	C	0.067009	0.778476	0.696808
C161	C	0.400342	1.111810	1.030141
C162	C	0.733676	1.445143	1.363474
C163	C	0.122813	0.820663	0.658671
C164	C	0.456146	1.153996	0.992005
C165	C	0.789480	1.487329	1.325338
N166	N	0.122806	0.820680	0.811122
N167	N	0.456139	1.154013	1.144455
N168	N	0.789473	1.487347	1.477788
H169	H	0.269658	0.016645	-0.000268
H170	H	0.602992	0.349978	0.333065
H171	H	0.936325	0.683311	0.666399
F172	F	0.117934	0.691359	0.421180
F173	F	0.451267	1.024692	0.754514
F174	F	0.784600	1.358025	1.087847
F175	F	0.257173	0.382457	0.087378
F176	F	0.590506	0.715790	0.420712
F177	F	0.923840	1.049123	0.754045
H178	H	0.021581	0.744131	0.804091
H179	H	0.354915	1.077464	1.137425
H180	H	0.688248	1.410798	1.470758
H181	H	0.272220	0.148080	-0.000249
H182	H	0.605553	0.481414	0.333084
H183	H	0.938886	0.814747	0.666418
F184	F	-0.008659	0.408413	-0.087795
F185	F	0.324674	0.741746	0.245538
F186	F	0.658008	1.075080	0.578871
H187	H	0.021577	0.744119	0.665802
H188	H	0.354911	1.077453	0.999135
H189	H	0.688244	1.410786	1.332468
H190	H	0.021571	0.744098	0.333882
H191	H	0.354905	1.077431	0.667215
H192	H	0.688238	1.410764	1.000548
F193	F	0.007607	0.733537	0.186064
F194	F	0.340940	1.066870	0.519397
F195	F	0.674274	1.400203	0.852731
H196	H	0.280918	0.594998	-0.000179
H197	H	0.614252	0.928331	0.333154
H198	H	0.947585	1.261665	0.666488
F199	F	0.299195	0.452459	-0.000196
F200	F	0.632529	0.785792	0.333137
F201	F	0.965862	1.119125	0.666470
F202	F	-0.044901	0.635773	-0.000141
F203	F	0.288432	0.969107	0.333193
F204	F	0.621766	1.302440	0.666526
H205	H	-0.026613	0.493226	-0.000188
H206	H	0.306720	0.826559	0.333145
H207	H	0.640054	1.159893	0.666478
H208	H	0.224028	0.897185	0.333778
H209	H	0.557361	1.230518	0.667112
H210	H	0.890695	1.563851	1.000445
F211	F	0.254259	0.232900	0.087354
F212	F	0.587592	0.566233	0.420688
F213	F	0.920926	0.899566	0.754021
F214	F	-0.053598	0.188851	-0.000234
F215	F	0.279736	0.522185	0.333099
F216	F	0.613069	0.855518	0.666433
F217	F	0.118003	0.691365	0.578525
F218	F	0.451336	1.024698	0.911859
F219	F	0.784670	1.358032	1.245192
F220	F	-0.056510	0.039297	-0.000258
F221	F	0.276823	0.372630	0.333075
F222	F	0.610157	0.705964	0.666409
H223	H	0.004708	0.266348	-0.077214
H224	H	0.338041	0.599682	0.256119
H225	H	0.671375	0.933015	0.589452
F226	F	0.237998	0.907707	0.185956
F227	F	0.571331	1.241040	0.519289
F228	F	0.904665	1.574373	0.852623
F229	F	0.127625	0.949933	0.421046
F230	F	0.460958	1.283266	0.754379
F231	F	0.794292	1.616600	1.087712
H232	H	0.127042	0.934285	0.568877
H233	H	0.460375	1.267618	0.902211
H234	H	0.793709	1.600951	1.235544
F235	F	0.237978	0.907767	0.656164
F236	F	0.571311	1.241101	0.989497
F237	F	0.904645	1.574434	1.322831
F238	F	0.237980	0.907778	0.813512
F239	F	0.571313	1.241111	1.146845
F240	F	0.904646	1.574445	1.480178
