data_functionalizedCrystal
_audit_creation_method	'MofGen! by Chris Wilmer'
_symmetry_space_group_name_H-M	'P1'
_symmetry_Int_Tables_number	1
_symmetry_cell_setting	triclinic
loop_
_symmetry_equiv_pos_as_xyz
  x,y,z
_cell_length_a	19.188964
_cell_length_b	10.540539
_cell_length_c	9.616153
_cell_angle_alpha	90.000094
_cell_angle_beta	89.999991
_cell_angle_gamma	96.157906
loop_
_atom_site_label
_atom_site_type_symbol
_atom_site_fract_x
_atom_site_fract_y
_atom_site_fract_z
O1	O	0.927190	-0.158671	-0.115418
O2	O	0.724024	-0.179958	-0.115468
O3	O	0.830242	0.015493	-0.115440
O4	O	0.820972	-0.354122	-0.115446
O5	O	0.830227	0.015489	0.115852
O6	O	0.724009	-0.179962	0.115823
O7	O	0.927175	-0.158675	0.115874
Zn8	Zn	0.825590	-0.169319	0.152571
Zn9	Zn	0.825609	-0.169314	-0.152165
O10	O	0.820957	-0.354126	0.115846
C11	C	0.698001	-0.179264	0.000171
C12	C	0.620484	-0.177173	0.000152
C13	C	0.953198	-0.159369	0.000232
C14	C	1.030715	-0.161460	0.000242
C15	C	0.829540	0.062779	0.000203
C16	C	0.827460	0.203682	0.000195
C17	C	1.067123	-0.162438	-0.125837
C18	C	1.139961	-0.164369	-0.125852
C19	C	1.176386	-0.165348	0.000219
C20	C	1.139970	-0.164363	0.126315
C21	C	1.067135	-0.162419	0.126327
N22	N	1.285919	-0.240634	0.094044
N23	N	1.355109	-0.242484	0.094025
C24	C	1.395837	-0.171203	0.000193
N25	N	1.364758	-0.098018	-0.093640
N26	N	1.295561	-0.096174	-0.093625
C27	C	1.255365	-0.167455	0.000221
C28	C	1.511224	-0.174273	-0.125912
C29	C	1.584063	-0.176196	-0.125921
C30	C	1.584071	-0.176202	0.126250
C31	C	1.511233	-0.174266	0.126256
C32	C	1.474814	-0.173308	0.000171
C33	C	0.821660	-0.401412	0.000200
C34	C	0.823740	-0.542315	0.000199
N35	N	0.825582	-0.169322	0.360546
C36	C	0.747760	0.385370	-0.000344
C37	C	0.749868	0.238798	0.000177
C38	C	0.864792	0.266151	0.132283
C39	C	0.862144	0.412638	0.132394
C40	C	0.863738	0.413196	-0.130627
C41	C	0.864453	0.266229	-0.132374
N42	N	0.825623	-0.169301	-0.360140
C43	C	0.768589	-0.273533	0.580901
C44	C	0.768714	-0.273916	0.419733
C45	C	0.898576	-0.197864	0.419013
C46	C	0.898265	-0.198600	0.580231
C47	C	0.810308	-0.036217	0.580455
C48	C	0.808633	-0.037118	0.419227
H49	H	1.169609	-0.165173	-0.228525
N50	N	0.707311	0.424486	0.124401
H51	H	0.737990	0.488846	0.181264
H52	H	0.692469	0.346922	0.183269
H53	H	1.481569	-0.173488	-0.228577
N54	N	0.825573	0.449209	0.263148
H55	H	0.858410	0.510588	0.319338
H56	H	0.811322	0.370145	0.320070
N57	N	0.939390	0.235797	-0.142930
H58	H	0.940290	0.140317	-0.148821
H59	H	0.966264	0.269550	-0.058008
N60	N	0.737497	-0.008459	0.368600
H61	H	0.742625	0.073297	0.312989
H62	H	0.705886	0.001247	0.451029
N63	N	1.027847	-0.161383	-0.261827
H64	H	1.002890	-0.081907	-0.267438
H65	H	0.992402	-0.239293	-0.267367
N66	N	0.707162	0.422375	-0.125808
H67	H	0.664039	0.461525	-0.094296
H68	H	0.692670	0.343974	-0.183620
N69	N	0.937978	0.477349	-0.131790
H70	H	0.946120	0.529678	-0.219411
H71	H	0.971807	0.410311	-0.128644
H72	H	1.169633	-0.165158	0.228964
H73	H	0.838632	0.444203	-0.230741
N74	N	1.623343	-0.177267	0.262236
H75	H	1.615929	-0.098265	0.317361
H76	H	1.674994	-0.178694	0.242992
H77	H	0.847420	0.044048	0.378943
H78	H	1.613706	-0.176983	-0.228595
N79	N	0.696874	-0.251473	0.367359
H80	H	0.664839	-0.241242	0.449001
H81	H	0.677183	-0.326679	0.309170
H82	H	0.851892	0.041345	0.618582
N83	N	1.027862	-0.161362	0.262319
H84	H	1.062044	-0.161411	0.342183
H85	H	0.992707	-0.239663	0.268223
N86	N	0.830428	0.208958	0.262464
H87	H	0.779436	0.224726	0.263763
H88	H	0.854867	0.249788	0.346830
H89	H	0.778558	-0.372685	0.381155
N90	N	0.710957	0.181515	-0.125244
H91	H	0.733897	0.218838	-0.212788
H92	H	0.660655	0.201376	-0.121697
N93	N	0.696520	-0.251469	0.632294
H94	H	0.660709	-0.319384	0.593248
H95	H	0.685105	-0.164646	0.600837
H96	H	1.481589	-0.173475	0.228924
H97	H	0.720275	0.196395	0.095007
H98	H	0.917946	0.461824	0.138400
H99	H	0.778305	-0.371745	0.621401
H100	H	0.911660	-0.295645	0.617821
H101	H	0.837138	0.224777	-0.230089
N102	N	0.940278	0.238239	0.138792
H103	H	0.951026	0.184695	0.055986
H104	H	0.948282	0.190300	0.227304
H105	H	0.942066	-0.125654	0.619231
H106	H	0.942054	-0.123952	0.380672
H107	H	0.912269	-0.293803	0.378625
H108	H	0.758206	-0.008674	0.621179
