data_functionalizedCrystal
_audit_creation_method	'MofGen! by Chris Wilmer'
_symmetry_space_group_name_H-M	'P1'
_symmetry_Int_Tables_number	1
_symmetry_cell_setting	triclinic
loop_
_symmetry_equiv_pos_as_xyz
  x,y,z
_cell_length_a	6.817900
_cell_length_b	14.858565
_cell_length_c	14.125465
_cell_angle_alpha	95.622353
_cell_angle_beta	100.398878
_cell_angle_gamma	104.523916
loop_
_atom_site_label
_atom_site_type_symbol
_atom_site_fract_x
_atom_site_fract_y
_atom_site_fract_z
V1	V	-3.996465	-0.127870	-0.300243
V2	V	-3.663131	0.205463	0.033090
V3	V	-3.329798	0.538796	0.366424
O4	O	-3.979228	0.006967	-0.294252
O5	O	-3.645894	0.340300	0.039082
O6	O	-3.312561	0.673633	0.372415
O7	O	-3.953312	-0.254336	-0.298455
O8	O	-3.619979	0.078997	0.034878
O9	O	-3.286645	0.412331	0.368212
O10	O	-3.932513	-0.125543	-0.431068
O11	O	-3.599180	0.207791	-0.097735
O12	O	-3.265846	0.541124	0.235598
O13	O	-4.000171	-0.122718	-0.160720
O14	O	-3.666837	0.210615	0.172613
O15	O	-3.333504	0.543948	0.505946
V16	V	-4.481428	-0.111785	-0.283523
V17	V	-4.148094	0.221548	0.049811
V18	V	-3.814761	0.554882	0.383144
O19	O	-4.254564	-0.163155	-0.336920
O20	O	-3.921231	0.170178	-0.003587
O21	O	-3.587897	0.503512	0.329746
O22	O	-4.673526	-0.076500	-0.246845
O23	O	-4.340192	0.256833	0.086488
O24	O	-4.006859	0.590167	0.419821
O25	O	-4.301374	0.014681	-0.285311
O26	O	-3.968040	0.348014	0.048023
O27	O	-3.634707	0.681347	0.381356
O28	O	-4.616061	-0.246622	-0.289514
O29	O	-4.282728	0.086711	0.043819
O30	O	-3.949395	0.420045	0.377153
O31	O	-4.595118	-0.116937	-0.423045
O32	O	-4.261785	0.216396	-0.089712
O33	O	-3.928452	0.549730	0.243621
O34	O	-4.322173	-0.114113	-0.152697
O35	O	-3.988839	0.219221	0.180636
O36	O	-3.655506	0.552554	0.513969
C37	C	-3.800092	-0.285177	-0.293787
C38	C	-3.466759	0.048156	0.039546
C39	C	-3.133426	0.381490	0.372880
C40	C	-3.845993	-0.388562	-0.293197
C41	C	-3.512660	-0.055229	0.040136
C42	C	-3.179326	0.278105	0.373469
C43	C	-4.013994	-0.767139	-0.291051
C44	C	-3.680661	-0.433805	0.042282
C45	C	-3.347327	-0.100472	0.375616
C46	C	-3.967242	-0.661807	-0.291648
C47	C	-3.633909	-0.328474	0.041686
C48	C	-3.300576	0.004860	0.375019
C49	C	-3.929994	-0.577854	-0.292123
C50	C	-3.596661	-0.244520	0.041210
C51	C	-3.263328	0.088813	0.374544
C52	C	-3.883241	-0.472515	-0.292722
C53	C	-3.549908	-0.139182	0.040612
C54	C	-3.216575	0.194151	0.373945
C55	C	-3.773560	-0.120887	-0.462947
C56	C	-3.440227	0.212446	-0.129614
C57	C	-3.106894	0.545780	0.203720
C58	C	-3.802591	-0.119821	-0.569899
C59	C	-3.469258	0.213512	-0.236566
C60	C	-3.135924	0.546846	0.096768
C61	C	-3.855803	-0.117865	-0.765718
C62	C	-3.522469	0.215468	-0.432385
C63	C	-3.189136	0.548801	-0.099051
C64	C	-4.041458	-0.121788	-0.818048
C65	C	-3.708125	0.211545	-0.484714
C66	C	-3.374791	0.544879	-0.151381
C67	C	-4.071068	-0.120700	-0.927008
C68	C	-3.737734	0.212633	-0.593675
C69	C	-3.404401	0.545967	-0.260341
C70	C	-3.826185	-0.118953	-0.656748
C71	C	-3.492852	0.214380	-0.323414
C72	C	-3.159519	0.547713	0.009919
C73	C	-4.117936	0.045517	-0.289976
C74	C	-3.784602	0.378850	0.043357
C75	C	-3.451269	0.712183	0.376691
C76	C	-4.051272	0.148901	-0.290572
C77	C	-3.717939	0.482234	0.042761
C78	C	-3.384606	0.815568	0.376095
C79	C	-4.144468	-0.118771	-0.120814
C80	C	-3.811135	0.214562	0.212520
C81	C	-3.477801	0.547895	0.545853
C82	C	-4.094676	-0.119833	-0.013861
C83	C	-3.761342	0.213501	0.319473
C84	C	-3.428009	0.546834	0.652806
H85	H	-4.178170	-0.125973	-0.781018
H86	H	-3.844837	0.207361	-0.447685
H87	H	-3.511503	0.540694	-0.114351
H88	H	-3.719107	-0.113692	-0.802747
H89	H	-3.385774	0.219642	-0.469414
H90	H	-3.052441	0.552975	-0.136081
