data_functionalizedCrystal
_audit_creation_method	'MofGen! by Chris Wilmer'
_symmetry_space_group_name_H-M	'P1'
_symmetry_Int_Tables_number	1
_symmetry_cell_setting	triclinic
loop_
_symmetry_equiv_pos_as_xyz
  x,y,z
_cell_length_a	12.759401
_cell_length_b	16.959453
_cell_length_c	16.959455
_cell_angle_alpha	90.014910
_cell_angle_beta	90.002171
_cell_angle_gamma	90.021720
loop_
_atom_site_label
_atom_site_type_symbol
_atom_site_fract_x
_atom_site_fract_y
_atom_site_fract_z
Zn1	Zn	1.606020	-0.314755	0.446917
Zn2	Zn	1.605956	-0.446911	0.314737
Zn3	Zn	1.430380	-0.314754	0.314753
Zn4	Zn	1.430294	-0.446900	0.446874
O5	O	1.518163	-0.380830	0.380820
O6	O	1.753032	-0.332291	0.429394
O7	O	1.582675	-0.429384	0.204128
O8	O	1.453742	-0.204143	0.332310
O9	O	1.752986	-0.429385	0.332282
O10	O	1.582783	-0.204144	0.429410
O11	O	1.453680	-0.332289	0.204140
O12	O	1.283348	-0.332278	0.332268
O13	O	1.453595	-0.429367	0.557491
O14	O	1.283285	-0.429365	0.429337
O15	O	1.582700	-0.332281	0.557522
O16	O	1.582592	-0.557520	0.332240
O17	O	1.453534	-0.557512	0.429321
C18	C	1.245195	-0.380821	0.380800
C19	C	1.128419	-0.380836	0.380810
C20	C	0.963826	-0.431466	0.431301
C21	C	1.073550	-0.431464	0.431279
C22	C	1.073557	-0.330212	0.330353
C23	C	0.963835	-0.330218	0.330372
C24	C	0.963824	-0.489921	0.489572
C25	C	1.073548	-0.489919	0.489551
C26	C	1.518075	-0.586196	0.380791
C27	C	1.518134	-0.674053	0.380805
C28	C	1.585441	-1.045470	0.431476
C29	C	1.451178	-1.045586	0.330282
C30	C	1.451139	-0.963040	0.330264
C31	C	1.518251	-0.921706	0.380853
C32	C	1.585402	-0.962917	0.431461
C33	C	1.383982	-0.921823	0.279663
C34	C	1.383939	-0.839272	0.279644
C35	C	1.451057	-0.797936	0.330230
C36	C	1.518212	-0.839152	0.380838
C37	C	1.585323	-0.797818	0.431428
C38	C	1.652484	-0.839032	0.482033
C39	C	1.652519	-0.921581	0.482047
C40	C	1.451022	-0.715388	0.330216
C41	C	1.585284	-0.715264	0.431413
C42	C	1.792196	-0.380840	0.380841
C43	C	1.908972	-0.380844	0.380850
C44	C	1.518145	-0.380823	0.586988
C45	C	1.518138	-0.380820	0.674845
C46	C	1.518279	-0.174662	0.380867
C47	C	1.518329	-0.086805	0.380886
C48	C	1.450934	-0.431389	1.046307
C49	C	1.585373	-0.330293	1.046335
C50	C	1.585369	-0.330286	0.963789
C51	C	1.518148	-0.380833	0.922498
C52	C	1.450931	-0.431386	0.963753
C53	C	1.652592	-0.279740	0.922528
C54	C	1.652592	-0.279732	0.839977
C55	C	1.585366	-0.330275	0.798684
C56	C	1.518145	-0.380829	0.839944
C57	C	1.450924	-0.431376	0.798654
C58	C	1.383697	-0.481927	0.839912
C59	C	1.383704	-0.481929	0.922461
C60	C	1.585359	-0.330273	0.716136
C61	C	1.450921	-0.431373	0.716100
C62	C	1.518166	-0.380851	1.175454
C63	C	1.518155	-0.380843	1.087597
H64	H	0.934017	-0.551117	0.473076
H65	H	1.103355	-0.473610	0.550792
H66	H	1.328975	-0.523087	0.956061
O67	O	1.650768	-0.281289	0.676023
C68	C	1.718575	-0.326294	0.628244
H69	H	1.725022	-0.388551	0.653099
H70	H	1.799448	-0.297715	0.627316
H71	H	1.686086	-0.329008	0.565680
H72	H	1.639939	-0.681614	0.472606
O73	O	0.923300	-0.463995	0.559061
C74	C	0.957547	-0.513357	0.620775
H75	H	0.980055	-0.573427	0.595813
H76	H	0.891739	-0.520883	0.665613
H77	H	1.028536	-0.485676	0.650803
H78	H	1.396171	-0.472527	0.682487
H79	H	1.118239	-0.288995	0.289255
O80	O	1.385733	-0.480467	1.086502
C81	C	1.400121	-0.469619	1.168217
H82	H	1.481215	-0.443736	1.179505
H83	H	1.392957	-0.528826	1.199572
H84	H	1.337826	-0.427523	1.191651
O85	O	1.114064	-0.559319	0.463393
C86	C	1.079810	-0.621198	0.512566
H87	H	1.057305	-0.596432	0.572721
H88	H	1.145614	-0.666047	0.519933
H89	H	1.008818	-0.651151	0.484808
H90	H	0.919177	-0.289005	0.289280
H91	H	1.707122	-0.805368	0.523227
H92	H	1.707197	-0.955145	0.523248
O93	O	1.650520	-1.085541	0.480717
C94	C	1.590665	-1.133318	0.531719
H95	H	1.507901	-1.108484	0.536539
H96	H	1.628590	-1.134211	0.592577
H97	H	1.587105	-1.195892	0.507285
H98	H	1.640106	-0.289145	1.079959
H99	H	1.396534	-1.079246	0.289098
H100	H	1.329340	-0.955484	0.238478
O101	O	1.318678	-0.799362	0.230408
C102	C	1.259434	-0.853548	0.185776
H103	H	1.302494	-0.912371	0.183086
H104	H	1.248294	-0.829735	0.123484
H105	H	1.179608	-0.862353	0.214665
O106	O	1.318524	-0.531145	0.799830
C107	C	1.341429	-0.609924	0.819994
H108	H	1.425352	-0.613912	0.842704
H109	H	1.332382	-0.648971	0.765691
H110	H	1.285077	-0.630593	0.867891
O111	O	1.385678	-0.675315	0.281180
C112	C	1.317772	-0.627565	0.326131
H113	H	1.311228	-0.652419	0.388385
H114	H	1.236948	-0.626682	0.297492
H115	H	1.350229	-0.564985	0.328863
O116	O	1.717741	-0.230565	0.962675
C117	C	1.657960	-0.179525	1.010455
H118	H	1.575220	-0.174627	0.985573
H119	H	1.696005	-0.118701	1.011421
H120	H	1.654317	-0.203973	1.073007
O121	O	1.717920	-0.230550	0.800024
C122	C	1.777270	-0.185954	0.854171
H123	H	1.734245	-0.183223	0.913017
H124	H	1.788508	-0.123674	0.830343
H125	H	1.857049	-0.214901	0.862937
