data_functionalizedCrystal
_audit_creation_method	'MofGen! by Chris Wilmer'
_symmetry_space_group_name_H-M	'P1'
_symmetry_Int_Tables_number	1
_symmetry_cell_setting	triclinic
loop_
_symmetry_equiv_pos_as_xyz
  x,y,z
_cell_length_a	16.992694
_cell_length_b	16.956993
_cell_length_c	15.455313
_cell_angle_alpha	87.537683
_cell_angle_beta	87.142206
_cell_angle_gamma	96.638538
loop_
_atom_site_label
_atom_site_type_symbol
_atom_site_fract_x
_atom_site_fract_y
_atom_site_fract_z
O1	O	1.033121	-0.165135	-0.072030
O2	O	0.804957	-0.163286	-0.072056
O3	O	0.932745	-0.049006	-0.072031
O4	O	0.905333	-0.279415	-0.072055
O5	O	0.925439	-0.055512	0.072230
O6	O	0.797651	-0.169793	0.072205
O7	O	1.025816	-0.171641	0.072230
Cu8	Cu	0.911066	-0.171311	0.085390
Cu9	Cu	0.919706	-0.163616	-0.085215
O10	O	0.898028	-0.285921	0.072205
C11	C	0.772246	-0.164163	0.000071
C12	C	0.685662	-0.157072	0.000062
C13	C	0.630988	-0.225486	0.000056
C14	C	0.549632	-0.218820	0.000068
C15	C	0.522953	-0.143738	0.000081
C16	C	0.577634	-0.075318	0.000090
C17	C	0.658987	-0.081986	0.000084
C18	C	0.281145	-0.116103	0.000107
C19	C	0.199785	-0.109441	0.000111
C20	C	0.171789	-0.252943	0.000091
C21	C	0.253146	-0.259604	0.000079
C22	C	0.307819	-0.191185	0.000093
N23	N	0.439796	-0.136922	0.000092
N24	N	0.390975	-0.198002	0.000089
C25	C	0.930496	-0.022641	0.000101
C26	C	0.934668	0.065614	0.000104
C27	C	1.058527	-0.170764	0.000101
C28	C	1.145111	-0.177855	0.000105
C29	C	0.965884	0.562923	0.000136
C30	C	0.961957	0.479998	0.000135
C31	C	0.888245	0.433608	0.000120
C32	C	0.818455	0.470146	0.000114
C33	C	0.822383	0.553069	0.000121
C34	C	0.868806	0.185075	0.000104
C35	C	0.864884	0.102147	0.000095
C36	C	1.008386	0.112004	0.000118
C37	C	1.012307	0.194929	0.000119
C38	C	0.942517	0.231460	0.000118
N39	N	0.884230	0.348845	0.000117
N40	N	0.946533	0.316221	0.000127
N41	N	0.904995	-0.176723	0.205384
C42	C	0.900276	0.687713	0.000088
C43	C	0.896099	0.599456	0.000127
N44	N	0.925784	-0.158199	-0.205210
C45	C	0.959301	-0.128193	0.250789
C46	C	0.954716	-0.132293	0.341596
C47	C	0.895829	-0.184928	0.386996
C48	C	0.841518	-0.233460	0.341585
C49	C	0.846100	-0.229355	0.250780
C50	C	0.876055	-0.202626	0.658574
C51	C	0.871478	-0.206729	0.749386
C52	C	0.984676	-0.105560	0.749390
C53	C	0.989255	-0.101463	0.658583
C54	C	0.934942	-0.149992	0.613180
N55	N	0.891143	-0.189123	0.479816
N56	N	0.939625	-0.145793	0.520362
H57	H	0.127266	-0.308646	0.000081
Br58	Br	0.733189	0.010866	0.000101
H59	H	0.823523	-0.249594	0.786347
H60	H	0.765556	0.582813	0.000121
H61	H	1.072331	0.232695	0.000136
H62	H	0.325651	-0.060391	0.000119
Br63	Br	1.069176	-0.030033	0.596966
H64	H	0.831832	-0.242142	0.621614
H65	H	1.025909	0.600689	0.000141
Br66	Br	1.058382	-0.039701	0.811011
Br67	Br	0.761593	-0.304889	0.403197
Br68	Br	0.667187	-0.327388	0.000029
H69	H	0.804855	0.064377	0.000085
Br70	Br	0.772392	-0.295215	0.189159
Br71	Br	0.475434	-0.311673	0.000056
H72	H	0.811978	0.214809	0.000093
H73	H	0.274861	-0.320743	0.000058
H74	H	0.178068	-0.048297	0.000121
Br75	Br	0.718416	0.407189	0.000100
H76	H	1.007256	-0.085335	0.213830
H77	H	0.555905	-0.014185	0.000114
H78	H	1.018783	0.450257	0.000143
H79	H	1.065206	0.082252	0.000112
H80	H	0.998935	-0.092776	0.378564
