data_functionalizedCrystal
_audit_creation_method	'MofGen! by Chris Wilmer'
_symmetry_space_group_name_H-M	'P1'
_symmetry_Int_Tables_number	1
_symmetry_cell_setting	triclinic
loop_
_symmetry_equiv_pos_as_xyz
  x,y,z
_cell_length_a	25.639233
_cell_length_b	12.827893
_cell_length_c	12.827892
_cell_angle_alpha	90.015362
_cell_angle_beta	90.012547
_cell_angle_gamma	90.011415
loop_
_atom_site_label
_atom_site_type_symbol
_atom_site_fract_x
_atom_site_fract_y
_atom_site_fract_z
Zn1	Zn	-0.295615	-1.597589	0.416161
Zn2	Zn	-0.208189	-1.597507	0.590886
Zn3	Zn	-0.208195	-1.422854	0.416159
Zn4	Zn	-0.295595	-1.422815	0.590861
O5	O	-0.251898	-1.510191	0.503517
O6	O	-0.284023	-1.743814	0.439350
O7	O	-0.135024	-1.574320	0.567718
O8	O	-0.219803	-1.446083	0.269924
O9	O	-0.219791	-1.743753	0.567719
O10	O	-0.284030	-1.574460	0.269925
O11	O	-0.135029	-1.446004	0.439347
O12	O	-0.219784	-1.276613	0.439323
O13	O	-0.368763	-1.446017	0.567677
O14	O	-0.283996	-1.276584	0.567675
O15	O	-0.368777	-1.574423	0.439325
O16	O	-0.219772	-1.574283	0.737119
O17	O	-0.283989	-1.445938	0.737100
C18	C	-0.251888	-1.238681	0.503497
C19	C	-0.251897	-1.122528	0.503513
C20	C	-0.251889	-1.510126	0.775027
C21	C	-0.251903	-1.510193	0.891180
C22	C	-0.388271	-1.510225	0.503498
C23	C	-0.446386	-1.510239	0.503491
C24	C	-0.806762	-1.577184	0.436460
C25	C	-0.861366	-1.577197	0.436431
O26	O	-0.889614	-1.634032	0.379562
N27	N	-0.888668	-1.510354	0.503246
C28	C	-0.861363	-1.443486	0.570086
O29	O	-0.889599	-1.386632	0.626914
C30	C	-0.806760	-1.443469	0.570109
C31	C	-0.779461	-1.510324	0.503297
C32	C	-0.779463	-1.644033	0.369652
C33	C	-0.724862	-1.644021	0.369683
C34	C	-0.697561	-1.577161	0.436521
C35	C	-0.724860	-1.510312	0.503328
C36	C	-0.779455	-1.376597	0.636944
C37	C	-0.724848	-1.376584	0.636960
C38	C	-0.697549	-1.443439	0.570148
C39	C	-0.642958	-1.443440	0.570196
N40	N	-0.615656	-1.510283	0.503381
C41	C	-0.642958	-1.577143	0.436544
C42	C	-0.976034	-1.443527	0.570032
C43	C	-1.030636	-1.443549	0.570015
C44	C	-1.030636	-1.577258	0.436358
C45	C	-0.976032	-1.577241	0.436381
C46	C	-0.948732	-1.510370	0.503217
C47	C	-0.528292	-1.577114	0.436613
C48	C	-0.473687	-1.577100	0.436653
C49	C	-0.473692	-1.443386	0.570306
C50	C	-0.528293	-1.443404	0.570270
C51	C	-0.555592	-1.510272	0.503416
O52	O	-0.614675	-1.386631	0.627033
O53	O	-0.614715	-1.633979	0.379716
C54	C	-0.116056	-1.510218	0.503460
C55	C	-0.057942	-1.510406	0.503173
C56	C	-0.251909	-1.782761	0.503538
C57	C	-0.251913	-1.898914	0.503547
C58	C	-0.283622	-1.070757	0.567125
C59	C	-0.283631	-0.950707	0.567144
C60	C	-0.251919	-1.510285	0.230947
C61	C	-0.251928	-1.510325	0.114793
C62	C	-0.220161	-1.573778	0.942939
C63	C	-0.220175	-1.573849	1.062989
H64	H	-0.550513	-1.631561	0.382171
N65	N	-0.948149	-1.375240	0.638333
N66	N	-0.917683	-1.411974	0.704946
H67	H	-0.897991	-1.363746	0.753184
N68	N	-0.285999	-1.441948	0.947074
N69	N	-0.282489	-1.345508	0.935054
H70	H	-0.306570	-1.297305	0.974528
N71	N	-0.186067	-1.642014	0.887029
N72	N	-0.186108	-1.641866	0.789587
H73	H	-0.162029	-1.690063	0.750101
N74	N	-0.317680	-1.126640	0.635447
N75	N	-0.314134	-1.114523	0.731878
H76	H	-0.338188	-1.153990	0.780134
H77	H	-0.451463	-1.631545	0.382246
H78	H	-0.550521	-1.388976	0.624684
H79	H	-0.224744	-1.077975	0.449062
N80	N	-0.696989	-1.712320	0.301430
N81	N	-0.721381	-1.772006	0.241763
H82	H	-0.701699	-1.820246	0.193554
H83	H	-0.310791	-0.906184	0.621607
H84	H	-0.224749	-0.943430	0.449087
N85	N	-0.186081	-1.642129	1.118836
N86	N	-0.186138	-1.642087	1.216278
H87	H	-0.162058	-1.690310	1.255723
H88	H	-0.279102	-1.455881	1.070289
H89	H	-0.801686	-1.698479	0.315219
H90	H	-0.953809	-1.631679	0.381975
H91	H	-1.052874	-1.631698	0.381932
H92	H	-0.801673	-1.322156	0.691349
N93	N	-1.058510	-1.375266	0.638283
N94	N	-1.034120	-1.315580	0.697954
H95	H	-1.053804	-1.267349	0.746168
N96	N	-0.696962	-1.308262	0.705220
N97	N	-0.703058	-1.211839	0.698268
H98	H	-0.683364	-1.163585	0.746476
N99	N	-0.445791	-1.375108	0.638577
N100	N	-0.397038	-1.375115	0.638585
H101	H	-0.377330	-1.326890	0.686800
