data_functionalizedCrystal
_audit_creation_method	'MofGen! by Chris Wilmer'
_symmetry_space_group_name_H-M	'P1'
_symmetry_Int_Tables_number	1
_symmetry_cell_setting	triclinic
loop_
_symmetry_equiv_pos_as_xyz
  x,y,z
_cell_length_a	15.995350
_cell_length_b	14.971486
_cell_length_c	14.048226
_cell_angle_alpha	89.993360
_cell_angle_beta	89.997187
_cell_angle_gamma	83.553252
loop_
_atom_site_label
_atom_site_type_symbol
_atom_site_fract_x
_atom_site_fract_y
_atom_site_fract_z
O1	O	1.111103	0.115295	-0.079080
O2	O	0.867342	0.129533	-0.079100
O3	O	0.995756	-0.007793	-0.079083
O4	O	0.982689	0.252622	-0.079098
O5	O	0.995741	-0.007802	0.079238
O6	O	0.867327	0.129525	0.079221
O7	O	1.111088	0.115287	0.079241
Zn8	Zn	0.989205	0.122405	0.104368
Zn9	Zn	0.989225	0.122415	-0.104227
O10	O	0.982674	0.252614	0.079224
C11	C	0.995164	-0.041122	0.000077
C12	C	0.993413	-0.140417	0.000076
C13	C	0.836139	0.128940	0.000058
C14	C	0.743187	0.127175	0.000051
C15	C	1.068852	-0.197728	0.000083
C16	C	1.067202	-0.291026	0.000073
C17	C	0.990111	-0.327010	0.000064
C18	C	0.914666	-0.269691	0.000054
C19	C	0.916317	-0.176395	0.000057
C20	C	0.911229	-0.464150	0.000050
C21	C	0.909577	-0.557452	0.000049
C22	C	1.062114	-0.578780	0.000067
C23	C	1.063766	-0.485484	0.000070
C24	C	0.988320	-0.428172	0.000062
C25	C	0.405433	0.120838	0.000071
C26	C	0.452769	0.023037	0.000430
C27	C	0.549461	0.024802	0.000066
C28	C	0.572997	0.123982	0.000062
C29	C	0.531967	0.172225	-0.090347
C30	C	0.435329	0.169768	-0.090416
C31	C	0.434974	0.171780	0.089625
C32	C	0.531919	0.171757	0.090814
C33	C	0.667696	0.125763	0.000053
C34	C	0.310733	0.119060	0.000073
C35	C	1.142291	0.115880	0.000081
C36	C	1.235243	0.117645	0.000082
C37	C	0.983266	0.285942	0.000061
C38	C	0.985017	0.385237	0.000056
N39	N	0.989197	0.122397	0.246729
N40	N	0.989239	0.122416	-0.246588
C41	C	1.046076	0.061614	0.296554
C42	C	1.046082	0.061613	0.396212
C43	C	0.989212	0.122401	0.446042
C44	C	0.932326	0.183187	0.396210
C45	C	0.932317	0.183182	0.296554
C46	C	0.932350	0.183193	0.603924
C47	C	0.932360	0.183199	0.703587
C48	C	1.046115	0.061624	0.703582
C49	C	1.046106	0.061620	0.603926
C50	C	0.989221	0.122407	0.554100
H51	H	1.131629	-0.168438	0.000097
C52	C	1.108634	-0.005274	0.451016
N53	N	1.155743	-0.055665	0.492293
H54	H	1.128633	-0.337686	0.000081
C55	C	1.148569	-0.445904	0.000085
N56	N	1.212445	-0.416092	0.000094
H57	H	0.886017	0.232678	0.436787
C58	C	0.391858	0.266770	-0.095983
N59	N	0.359120	0.339830	-0.100187
H60	H	1.123545	-0.625449	0.000070
C61	C	0.587811	-0.026436	0.087615
N62	N	0.616692	-0.065036	0.153557
C63	C	0.824773	-0.597032	0.000027
N64	N	0.760898	-0.626844	0.000006
H65	H	0.885999	0.232677	0.255987
C66	C	0.407188	0.128574	0.182203
N67	N	0.386262	0.096021	0.251928
H68	H	0.886026	0.232690	0.563359
C69	C	0.828234	-0.401108	0.000047
N70	N	0.765723	-0.353624	0.000051
H71	H	1.092418	0.012127	0.563355
H72	H	0.851897	-0.298997	0.000040
C73	C	0.833327	-0.113352	0.000052
N74	N	0.770817	-0.065869	0.000046
C75	C	0.587056	-0.026762	-0.087638
N76	N	0.615372	-0.065601	-0.153701
H77	H	0.433143	-0.015873	-0.064044
C78	C	0.427676	-0.029783	0.088017
N79	N	0.408769	-0.069568	0.153990
H80	H	0.416991	0.134594	-0.157995
H81	H	1.092432	0.012129	0.744156
C82	C	0.551151	0.270661	-0.094899
N83	N	0.565604	0.344803	-0.098328
C84	C	0.570255	0.126963	-0.181241
N85	N	0.599093	0.092865	-0.249701
H86	H	0.559194	0.136539	0.157697
H87	H	0.547356	0.244081	0.096271
H88	H	0.403285	0.243888	0.090233
C89	C	1.108639	-0.005259	0.241750
N90	N	1.155761	-0.055632	0.200475
H91	H	0.886049	0.232698	0.744153
