data_functionalizedCrystal
_audit_creation_method	'MofGen! by Chris Wilmer'
_symmetry_space_group_name_H-M	'P1'
_symmetry_Int_Tables_number	1
_symmetry_cell_setting	triclinic
loop_
_symmetry_equiv_pos_as_xyz
  x,y,z
_cell_length_a	19.188905
_cell_length_b	19.188930
_cell_length_c	9.130307
_cell_angle_alpha	89.991600
_cell_angle_beta	89.991361
_cell_angle_gamma	83.139668
loop_
_atom_site_label
_atom_site_type_symbol
_atom_site_fract_x
_atom_site_fract_y
_atom_site_fract_z
O1	O	0.926153	0.087083	-0.122057
O2	O	1.426153	0.587083	0.377943
O3	O	0.722839	0.098836	-0.122009
O4	O	1.222839	0.598836	0.377991
O5	O	0.830363	-0.008697	-0.122006
O6	O	1.330363	0.491303	0.377994
O7	O	0.818629	0.194616	-0.122060
O8	O	1.318629	0.694616	0.377940
O9	O	0.830360	-0.008698	0.121593
O10	O	1.330360	0.491302	0.621593
O11	O	0.722836	0.098835	0.121590
O12	O	1.222836	0.598835	0.621590
O13	O	0.926150	0.087082	0.121542
O14	O	1.426150	0.587082	0.621542
Cu15	Cu	0.824492	0.092958	0.143808
Cu16	Cu	1.324492	0.592958	0.643808
Cu17	Cu	0.824496	0.092960	-0.144276
Cu18	Cu	1.324496	0.592960	0.355724
O19	O	0.818625	0.194615	0.121539
O20	O	1.318625	0.694615	0.621539
C21	C	0.696826	0.098458	-0.000203
C22	C	1.196826	0.598458	0.499797
C23	C	0.619321	0.097324	-0.000184
C24	C	1.119321	0.597324	0.499816
C25	C	0.582931	0.096780	-0.132973
C26	C	1.082931	0.596780	0.367027
C27	C	0.510107	0.095707	-0.132991
C28	C	1.010107	0.595707	0.367009
C29	C	0.473678	0.095164	-0.000212
C30	C	0.973678	0.595164	0.499788
C31	C	0.510076	0.095712	0.132595
C32	C	1.010076	0.595712	0.632595
C33	C	0.582898	0.096792	0.132609
C34	C	1.082898	0.596792	0.632609
N35	N	0.364657	0.053735	0.098614
N36	N	0.864657	0.553735	0.598614
N37	N	0.295480	0.052707	0.098591
N38	N	0.795480	0.552707	0.598591
C39	C	0.254272	0.091911	-0.000246
C40	C	0.754272	0.591911	0.499754
N41	N	0.284855	0.132173	-0.099083
N42	N	0.784855	0.632173	0.400917
N43	N	0.354039	0.133197	-0.099065
N44	N	0.854039	0.633197	0.400935
C45	C	0.394716	0.093993	-0.000212
C46	C	0.894716	0.593993	0.499788
C47	C	0.138918	0.090205	-0.133065
C48	C	0.638918	0.590205	0.366935
C49	C	0.066092	0.089136	-0.133077
C50	C	0.566092	0.589136	0.366923
C51	C	0.066064	0.089134	0.132513
C52	C	0.566064	0.589134	0.632513
C53	C	0.138887	0.090210	0.132522
C54	C	0.638887	0.590210	0.632522
C55	C	0.175310	0.090742	-0.000271
C56	C	0.675310	0.590742	0.499729
C57	C	0.829982	-0.034708	-0.000202
C58	C	1.329982	0.465292	0.499798
C59	C	0.828841	-0.112213	-0.000189
C60	C	1.328841	0.387787	0.499811
C61	C	0.891933	-0.157142	-0.000197
C62	C	1.391933	0.342858	0.499803
C63	C	0.890861	-0.229966	-0.000220
C64	C	1.390861	0.270034	0.499780
C65	C	0.826694	-0.257857	-0.000206
C66	C	1.326694	0.242143	0.499794
C67	C	0.763594	-0.212917	-0.000207
C68	C	1.263594	0.287083	0.499793
C69	C	0.764668	-0.140095	-0.000198
C70	C	1.264668	0.359905	0.499802
N71	N	0.777645	-0.365858	0.082707
N72	N	1.277645	0.134142	0.582707
N73	N	0.776629	-0.435036	0.082702
N74	N	1.276629	0.064964	0.582702
C75	C	0.823456	-0.477265	-0.000235
C76	C	1.323456	0.022735	0.499765
N77	N	0.871347	-0.447703	-0.083148
N78	N	1.371347	0.052297	0.416852
N79	N	0.872364	-0.378519	-0.083137
N80	N	1.372364	0.121481	0.416863
C81	C	0.825523	-0.336819	-0.000216
C82	C	1.325523	0.163181	0.499784
C83	C	0.885390	-0.601159	-0.000270
C84	C	1.385390	-0.101159	0.499730
C85	C	0.884315	-0.673984	-0.000302
C86	C	1.384315	-0.173984	0.499698
C87	C	0.757047	-0.656933	-0.000274
C88	C	1.257047	-0.156933	0.499726
C89	C	0.758123	-0.584110	-0.000257
C90	C	1.258123	-0.084110	0.499743
C91	C	0.822296	-0.556228	-0.000248
C92	C	1.322296	-0.056228	0.499752
C93	C	0.952163	0.087460	-0.000267
C94	C	1.452163	0.587460	0.499733
C95	C	1.029668	0.088594	-0.000296
C96	C	1.529668	0.588594	0.499704
C97	C	0.819007	0.220626	-0.000268
C98	C	1.319007	0.720626	0.499732
C99	C	0.820148	0.298131	-0.000291
C100	C	1.320148	0.798131	0.499709
N101	N	0.824495	0.092957	0.346431
N102	N	1.324495	0.592957	0.846431
N103	N	0.824500	0.092955	-0.346898
N104	N	1.324500	0.592955	0.153102
C105	C	0.919746	-0.002236	0.346424
C106	C	1.419746	0.497764	0.846424
C107	C	0.967376	-0.049830	0.423087
C108	C	1.467376	0.450170	0.923087
C109	C	0.967383	-0.049831	0.576421
C110	C	1.467383	0.450169	1.076421
C111	C	0.919753	-0.002233	0.653094
C112	C	1.419753	0.497767	1.153094
C113	C	0.872123	0.045361	0.576431
C114	C	1.372123	0.545361	1.076431
C115	C	0.872122	0.045358	0.423094
C116	C	1.372122	0.545358	0.923094
C117	C	0.776870	0.140550	0.576438
C118	C	1.276870	0.640550	1.076438
C119	C	0.776865	0.140555	0.423105
C120	C	1.276865	0.640555	0.923105
C121	C	0.729240	0.188147	0.653112
C122	C	1.229240	0.688147	1.153112
C123	C	0.681612	0.235746	0.576449
C124	C	1.181612	0.735746	1.076449
C125	C	0.681608	0.235745	0.423106
C126	C	1.181608	0.735745	0.923106
C127	C	0.729235	0.188149	0.346442
C128	C	1.229235	0.688149	0.846442
H129	H	0.036403	0.088696	0.240625
H130	H	0.536403	0.588696	0.740625
F131	F	0.958014	-0.277792	-0.000231
F132	F	1.458014	0.222208	0.499769
H133	H	0.937644	-0.578456	-0.000270
H134	H	1.437644	-0.078456	0.499730
F135	F	0.695303	-0.242601	-0.000201
F136	F	1.195303	0.257399	0.499799
H137	H	0.642819	0.274500	0.360695
H138	H	1.142819	0.774500	0.860695
H139	H	0.944187	-0.134445	-0.000195
H140	H	1.444187	0.365555	0.499805
F141	F	1.018073	-0.100489	0.658012
F142	F	1.518073	0.399511	1.158012
H143	H	0.168517	0.090648	0.240653
H144	H	0.668517	0.590648	0.740653
F145	F	0.697514	-0.092276	-0.000191
F146	F	1.197514	0.407724	0.499809
H147	H	0.612582	0.097213	-0.241104
H148	H	1.112582	0.597213	0.258896
H149	H	0.935694	-0.710565	-0.000317
H150	H	1.435694	-0.210565	0.499683
H151	H	0.729245	0.188142	0.777964
H152	H	1.229245	0.688142	1.277964
F153	F	0.729237	0.188147	0.183250
F154	F	1.229237	0.688147	0.683250
H155	H	0.480473	0.095265	-0.241128
H156	H	0.980473	0.595265	0.258872
H157	H	0.704801	-0.679641	-0.000270
H158	H	1.204801	-0.179641	0.499730
F159	F	0.690971	-0.536291	-0.000242
F160	F	1.190971	-0.036291	0.499758
H161	H	0.919750	-0.002234	0.221572
H162	H	1.419750	0.497766	0.721572
F163	F	1.018063	-0.100487	0.341479
F164	F	1.518063	0.399513	0.841479
H165	H	0.919756	-0.002242	0.777947
H166	H	1.419756	0.497758	1.277947
H167	H	0.642832	0.274494	0.638886
H168	H	1.142832	0.774494	1.138886
F169	F	0.621628	0.097371	0.273948
F170	F	1.121628	0.597371	0.773948
H171	H	0.480411	0.095271	0.240705
H172	H	0.980411	0.595271	0.740705
H173	H	0.168574	0.090645	-0.241192
H174	H	0.668574	0.590645	0.258808
H175	H	0.036464	0.088697	-0.241215
H176	H	0.536464	0.588697	0.258785
