data_functionalizedCrystal
_audit_creation_method	'MofGen! by Chris Wilmer'
_symmetry_space_group_name_H-M	'P1'
_symmetry_Int_Tables_number	1
_symmetry_cell_setting	triclinic
loop_
_symmetry_equiv_pos_as_xyz
  x,y,z
_cell_length_a	19.188933
_cell_length_b	19.188930
_cell_length_c	17.666332
_cell_angle_alpha	90.011603
_cell_angle_beta	90.007939
_cell_angle_gamma	83.145175
loop_
_atom_site_label
_atom_site_type_symbol
_atom_site_fract_x
_atom_site_fract_y
_atom_site_fract_z
O1	O	0.926149	0.087175	0.062932
O2	O	0.722838	0.098908	0.062940
O3	O	0.830360	-0.008614	0.062921
O4	O	0.818626	0.194697	0.062951
O5	O	0.830341	-0.008620	-0.062976
O6	O	0.722819	0.098902	-0.062957
O7	O	0.926130	0.087170	-0.062965
Cu8	Cu	0.824473	0.093035	-0.074456
Cu9	Cu	0.824495	0.093042	0.074431
O10	O	0.818607	0.194692	-0.062946
C11	C	0.696817	0.098525	-0.000008
C12	C	0.619313	0.097384	-0.000005
C13	C	0.829971	-0.034628	-0.000030
C14	C	0.828830	-0.112132	-0.000036
C15	C	0.066068	0.089242	0.068612
C16	C	0.138892	0.090310	0.068615
C17	C	0.175299	0.090844	-0.000011
C18	C	0.138877	0.090292	-0.068645
C19	C	0.066056	0.089217	-0.068647
N20	N	0.284311	0.132260	-0.051087
N21	N	0.353489	0.133283	-0.051081
C22	C	0.394707	0.094082	-0.000012
N23	N	0.364134	0.053828	0.051062
N24	N	0.294949	0.052808	0.051059
C25	C	0.254262	0.092009	-0.000018
C26	C	0.510085	0.095787	0.068621
C27	C	0.582911	0.096851	0.068621
C28	C	0.582894	0.096840	-0.068641
C29	C	0.510070	0.095769	-0.068639
C30	C	0.473669	0.095246	-0.000006
C31	C	0.891921	-0.157056	-0.000043
C32	C	0.890849	-0.229880	-0.000030
C33	C	0.826683	-0.257777	-0.000027
C34	C	0.763584	-0.212843	-0.000017
C35	C	0.764658	-0.140021	-0.000021
N36	N	0.777630	-0.365784	-0.042870
N37	N	0.776614	-0.434963	-0.042868
C38	C	0.823445	-0.477185	-0.000012
N39	N	0.871341	-0.447618	0.042832
N40	N	0.872358	-0.378433	0.042826
C41	C	0.825512	-0.336739	-0.000022
C42	C	0.885378	-0.601073	-0.000004
C43	C	0.884304	-0.673898	0.000013
C44	C	0.757037	-0.656860	0.000019
C45	C	0.758113	-0.584037	0.000010
C46	C	0.822286	-0.556148	-0.000005
C47	C	0.952150	0.087553	-0.000016
C48	C	1.029655	0.088694	-0.000013
C49	C	0.818997	0.220705	0.000006
C50	C	0.820137	0.298210	0.000018
N51	N	0.824462	0.093030	-0.179176
C52	C	0.872088	0.045443	-0.218794
C53	C	0.872093	0.045439	-0.298042
C54	C	0.824477	0.093036	-0.337668
C55	C	0.776842	0.140627	-0.298040
C56	C	0.776834	0.140624	-0.218794
N57	N	0.815401	0.154843	-0.462077
N58	N	0.815412	0.154843	-0.537358
C59	C	0.824495	0.093045	-0.576432
N60	N	0.833581	0.031245	-0.537382
N61	N	0.833573	0.031245	-0.462095
C62	C	0.824479	0.093043	-0.423597
C63	C	0.872129	0.045450	-0.701980
C64	C	0.872128	0.045446	-0.781229
C65	C	0.776880	0.140639	-0.781226
C66	C	0.776878	0.140638	-0.701978
C67	C	0.824506	0.093044	-0.662360
N68	N	0.824511	0.093042	0.179150
H69	H	0.036435	0.088813	0.124498
H70	H	0.935682	-0.710475	0.000012
H71	H	0.168545	0.090760	0.124499
C72	C	1.000737	-0.149149	0.064668
C73	C	0.962459	-0.126402	-0.000050
H74	H	1.044282	-0.130220	0.064665
H75	H	1.009123	-0.198943	0.064663
H76	H	0.974769	-0.133700	0.108567
H77	H	0.988425	-0.141856	-0.043949
H78	H	0.954075	-0.076597	-0.000052
C79	C	0.943534	-0.497005	-0.000025
C80	C	0.955914	-0.570411	-0.000012
H81	H	0.987080	-0.478078	-0.000035
H82	H	0.917576	-0.481563	0.043875
H83	H	0.917558	-0.481591	-0.043931
H84	H	0.981885	-0.585825	0.043897
H85	H	0.981883	-0.585859	-0.043917
H86	H	0.910868	0.006687	-0.186539
H87	H	0.910908	0.006694	-0.669721
H88	H	0.612536	0.097272	-0.124517
H89	H	0.704792	-0.679573	0.000025
C90	C	0.963488	-0.321651	0.064678
C91	C	0.960203	-0.279272	-0.000042
H92	H	1.006306	-0.352139	0.064670
H93	H	0.925121	-0.348680	0.064680
H94	H	0.961276	-0.292874	0.108576
H95	H	0.962410	-0.308049	-0.043940
H96	H	0.998580	-0.252241	-0.000051
H97	H	0.168525	0.090726	-0.124521
H98	H	0.480422	0.095326	-0.124521
C99	C	0.966244	-0.048651	-0.290093
C100	C	0.924445	-0.006875	-0.341602
H101	H	0.998565	-0.080945	-0.316985
H102	H	0.937260	-0.073696	-0.259199
H103	H	0.991265	-0.019644	-0.259169
H104	H	0.899420	-0.035882	-0.372522
H105	H	0.953433	0.018171	-0.372509
C106	C	0.073355	0.089315	-0.204323
C107	C	0.026025	0.088622	-0.144085
H108	H	0.048639	0.088954	-0.250894
H109	H	0.107204	0.049029	-0.201474
H110	H	0.096313	0.130442	-0.201458
H111	H	0.003070	0.047493	-0.146947
H112	H	-0.007836	0.128912	-0.146935
H113	H	0.738071	0.179379	-0.330308
H114	H	0.480446	0.095359	0.124506
C115	C	0.705432	-0.316911	-0.000019
C116	C	0.693051	-0.243505	-0.000017
H117	H	0.661885	-0.335837	-0.000021
H118	H	0.731403	-0.332332	0.043880
H119	H	0.731394	-0.332345	-0.043927
H120	H	0.667093	-0.228070	0.043894
H121	H	0.667069	-0.228077	-0.043920
H122	H	0.612558	0.097292	0.124507
H123	H	0.738050	0.179376	-0.186536
C124	C	0.638753	-0.130496	-0.000015
C125	C	0.695303	-0.090636	-0.000022
H126	H	0.595937	-0.100006	-0.000022
H127	H	0.640987	-0.159239	0.043889
H128	H	0.640979	-0.159269	-0.043918
H129	H	0.693080	-0.061867	0.043883
H130	H	0.693068	-0.061881	-0.043931
H131	H	0.706738	-0.547459	0.000011
C132	C	0.966289	-0.048632	-0.773267
C133	C	0.924486	-0.006864	-0.824780
H134	H	0.998616	-0.080922	-0.800156
H135	H	0.937308	-0.073681	-0.742373
H136	H	0.991302	-0.019618	-0.742343
H137	H	0.899469	-0.035878	-0.855701
H138	H	0.953471	0.018187	-0.855687
H139	H	0.738108	0.179390	-0.813489
C140	C	0.682739	0.234735	-0.709938
C141	C	0.724532	0.192956	-0.658425
H142	H	0.650424	0.267037	-0.683048
H143	H	0.657719	0.205735	-0.740858
H144	H	0.711734	0.259777	-0.740835
H145	H	0.695538	0.167910	-0.627531
H146	H	0.749555	0.221960	-0.627491
