data_functionalizedCrystal
_audit_creation_method	'MofGen! by Chris Wilmer'
_symmetry_space_group_name_H-M	'P1'
_symmetry_Int_Tables_number	1
_symmetry_cell_setting	triclinic
loop_
_symmetry_equiv_pos_as_xyz
  x,y,z
_cell_length_a	21.395364
_cell_length_b	21.395361
_cell_length_c	12.759393
_cell_angle_alpha	89.964307
_cell_angle_beta	90.022716
_cell_angle_gamma	89.973702
loop_
_atom_site_label
_atom_site_type_symbol
_atom_site_fract_x
_atom_site_fract_y
_atom_site_fract_z
Zn1	Zn	0.957849	0.249479	0.594032
Zn2	Zn	1.457849	0.749479	1.094032
Zn3	Zn	0.957755	0.354269	0.418336
Zn4	Zn	1.457755	0.854269	0.918336
Zn5	Zn	0.853067	0.249502	0.418362
Zn6	Zn	1.353067	0.749502	0.918362
Zn7	Zn	0.853033	0.354215	0.593968
Zn8	Zn	1.353033	0.854215	1.093968
O9	O	0.905426	0.301866	0.506174
O10	O	1.405426	0.801866	1.006174
O11	O	1.045514	0.263393	0.570742
O12	O	1.545514	0.763393	1.070742
O13	O	0.943843	0.340404	0.271318
O14	O	1.443843	0.840404	0.771318
O15	O	0.867020	0.161821	0.441702
O16	O	1.367020	0.661821	0.941702
O17	O	1.045445	0.340382	0.441659
O18	O	1.545445	0.840382	0.941659
O19	O	0.944003	0.161804	0.570766
O20	O	1.444003	0.661804	1.070766
O21	O	0.866929	0.263432	0.271337
O22	O	1.366929	0.763432	0.771337
O23	O	0.765385	0.263379	0.441640
O24	O	1.265385	0.763379	0.941640
O25	O	0.866962	0.340289	0.740997
O26	O	1.366962	0.840289	1.240997
O27	O	0.765360	0.340311	0.570657
O28	O	1.265360	0.840311	1.070657
O29	O	0.943970	0.263340	0.741045
O30	O	1.443970	0.763340	1.241045
O31	O	0.943810	0.441940	0.441596
O32	O	1.443810	0.941940	0.941596
O33	O	0.866871	0.441900	0.570632
O34	O	1.366871	0.941900	1.070632
C35	C	0.742638	0.301842	0.506145
C36	C	1.242638	0.801842	1.006145
C37	C	0.672997	0.301847	0.506157
C38	C	1.172997	0.801847	1.006157
C39	C	0.171236	0.261873	0.573512
C40	C	0.671236	0.761873	1.073512
C41	C	0.236672	0.261868	0.573512
C42	C	0.736672	0.761868	1.073512
C43	C	0.269359	0.301885	0.506198
C44	C	0.769359	0.801885	1.006198
C45	C	0.236605	0.341922	0.438898
C46	C	0.736605	0.841922	0.938898
C47	C	0.171171	0.341930	0.438908
C48	C	0.671171	0.841930	0.938908
C49	C	0.372997	0.306754	0.411512
C50	C	0.872997	0.806754	0.911512
C51	C	0.438430	0.306741	0.411500
C52	C	0.938430	0.806741	0.911500
C53	C	0.471179	0.301865	0.506169
C54	C	0.971179	0.801865	1.006169
C55	C	0.438488	0.296987	0.600852
C56	C	0.938488	0.796987	1.100852
C57	C	0.373054	0.296995	0.600861
C58	C	0.873054	0.796995	1.100861
C59	C	0.340311	0.301882	0.506181
C60	C	0.840311	0.801882	1.006181
C61	C	0.574878	0.261829	0.573469
C62	C	1.074878	0.761829	1.073469
C63	C	0.640314	0.261829	0.573471
C64	C	1.140314	0.761829	1.073471
C65	C	0.640247	0.341879	0.438848
C66	C	1.140247	0.841879	0.938848
C67	C	0.574811	0.341883	0.438856
C68	C	1.074811	0.841883	0.938856
C69	C	0.542131	0.301854	0.506165
C70	C	1.042131	0.801854	1.006165
C71	C	0.905344	0.464654	0.506128
C72	C	1.405344	0.964654	1.006128
C73	C	0.905366	0.534295	0.506143
C74	C	1.405366	1.034295	1.006143
C75	C	0.945463	0.567008	0.439025
C76	C	1.445463	1.067008	0.939025
C77	C	0.945493	0.632444	0.439053
C78	C	1.445493	1.132444	0.939053
C79	C	0.905413	0.665163	0.506188
C80	C	1.405413	1.165163	1.006188
C81	C	0.865313	0.632442	0.573319
C82	C	1.365313	1.132442	1.073319
C83	C	0.865289	0.567008	0.573296
C84	C	1.365289	1.067008	1.073296
C85	C	0.848999	0.768873	0.514429
C86	C	1.348999	1.268873	1.014429
C87	C	0.849022	0.834306	0.514444
C88	C	1.349022	1.334306	1.014444
C89	C	0.905487	0.866984	0.506264
C90	C	1.405487	1.366984	1.006264
C91	C	0.961931	0.834221	0.498047
C92	C	1.461931	1.334221	0.998047
C93	C	0.961908	0.768787	0.498024
C94	C	1.461908	1.268787	0.998024
C95	C	0.905435	0.736116	0.506221
C96	C	1.405435	1.236116	1.006221
C97	C	0.945620	0.970650	0.439174
C98	C	1.445620	1.470650	0.939174
C99	C	0.945650	1.036086	0.439209
C100	C	1.445650	1.536086	0.939209
C101	C	0.865465	1.036084	0.573470
C102	C	1.365465	1.536084	1.073470
C103	C	0.865440	0.970649	0.573439
C104	C	1.365440	1.470649	1.073439
C105	C	0.905517	0.937935	0.506286
C106	C	1.405517	1.437935	1.006286
C107	C	1.068849	0.301891	0.506204
C108	C	1.568849	0.801891	1.006204
C109	C	1.138490	0.301901	0.506217
C110	C	1.638490	0.801901	1.006217
C111	C	0.905473	0.301806	0.780208
C112	C	1.405473	0.801806	1.280208
C113	C	0.905493	0.301780	0.896985
C114	C	1.405493	0.801780	1.396985
C115	C	0.905526	1.138443	0.506262
C116	C	1.405526	1.638443	1.006262
C117	C	0.905571	1.068802	0.506346
C118	C	1.405571	1.568802	1.006346
C119	C	0.905415	0.301881	0.233207
C120	C	1.405415	0.801881	0.733207
C121	C	0.905517	0.301730	0.116431
C122	C	1.405517	0.801730	0.616431
C123	C	0.945594	0.261707	0.951873
C124	C	1.445594	0.761707	1.451873
C125	C	0.945604	0.261680	1.061597
C126	C	1.445604	0.761680	1.561597
C127	C	0.865411	0.341806	1.061535
C128	C	1.365411	0.841806	1.561535
C129	C	0.865398	0.341829	0.951813
C130	C	1.365398	0.841829	1.451813
H131	H	0.465151	0.293013	0.677939
H132	H	0.965151	0.793013	1.177939
C133	C	0.821379	1.072065	0.647322
C134	C	1.321379	1.572065	1.147322
H135	H	0.797496	1.043207	0.687296
H136	H	1.297496	1.543207	1.187296
H137	H	0.794101	1.097636	0.607104
H138	H	1.294101	1.597636	1.107104
H139	H	0.845347	1.097545	0.693150
H140	H	1.345347	1.597545	1.193150
C141	C	0.135291	0.217849	0.647558
C142	C	0.635291	0.717849	1.147558
H143	H	0.164169	0.194012	0.687643
H144	H	0.664169	0.694012	1.187643
H145	H	0.109761	0.190525	0.607457
H146	H	0.609761	0.690525	1.107457
H147	H	0.109773	0.241854	0.693275
H148	H	0.609773	0.741854	1.193275
H149	H	0.832739	0.374461	0.907122
H150	H	1.332739	0.874461	1.407122
H151	H	0.263223	0.374506	0.384093
H152	H	0.763223	0.874506	0.884093
H153	H	0.346439	0.293025	0.677955
H154	H	0.846439	0.793025	1.177955
H155	H	0.263338	0.229269	0.628310
H156	H	0.763338	0.729269	1.128310
H157	H	0.978147	0.659084	0.384398
H158	H	1.478147	1.159084	0.884398
C159	C	0.135149	0.385959	0.364873
C160	C	0.635149	0.885959	0.864873
H161	H	0.163986	0.409790	0.324778
H162	H	0.663986	0.909790	0.824778
H163	H	0.109622	0.413287	0.404982
H164	H	0.609622	0.913287	0.904982
H165	H	0.109622	0.361957	0.319166
H166	H	0.609622	0.861957	0.819166
H167	H	0.803061	0.860976	0.521125
H168	H	1.303061	1.360976	1.021125
C169	C	0.786883	0.732933	0.523435
C170	C	1.286883	1.232933	1.023435
H171	H	0.753272	0.761815	0.528318
H172	H	1.253272	1.261815	1.028318
H173	H	0.787670	0.707377	0.584328
H174	H	1.287670	1.207377	1.084328
H175	H	0.781385	0.707441	0.463200
H176	H	1.281385	1.207441	0.963200
C177	C	0.538927	0.217810	0.647521
C178	C	1.038927	0.717810	1.147521
H179	H	0.567803	0.193977	0.687614
H180	H	1.067803	0.693977	1.187614
H181	H	0.513398	0.190483	0.607424
H182	H	1.013398	0.690483	1.107424
H183	H	0.513407	0.241820	0.693230
H184	H	1.013407	0.741820	1.193230
H185	H	0.666860	0.374467	0.384048
H186	H	1.166860	0.874467	0.884048
C187	C	1.023991	0.732750	0.489002
C188	C	1.523991	1.232750	0.989002
H189	H	1.057626	0.761579	0.484142
H190	H	1.557626	1.261579	0.984142
H191	H	1.023190	0.707252	0.428096
H192	H	1.523190	1.207252	0.928096
H193	H	1.029464	0.707193	0.549225
H194	H	1.529464	1.207193	1.049225
C195	C	0.989531	0.531024	0.365139
C196	C	1.489531	1.031024	0.865139
H197	H	0.983767	0.487368	0.374722
H198	H	1.483767	0.987368	0.874722
H199	H	1.031634	0.541698	0.380552
H200	H	1.531634	1.041698	0.880552
H201	H	0.980365	0.541800	0.294545
H202	H	1.480365	1.041800	0.794545
H203	H	0.666975	0.229234	0.628278
H204	H	1.166975	0.729234	1.128278
H205	H	0.548149	0.374476	0.384052
H206	H	1.048149	0.874476	0.884052
H207	H	1.007911	0.860826	0.491387
H208	H	1.507911	1.360826	0.991387
H209	H	0.978254	0.944014	0.384496
H210	H	1.478254	1.444014	0.884496
H211	H	0.465042	0.310709	0.334404
H212	H	0.965042	0.810709	0.834404
C213	C	0.821315	0.385861	1.121845
C214	C	1.321315	0.885861	1.621845
H215	H	0.797426	0.409727	1.073437
H216	H	1.297426	0.909727	1.573437
H217	H	0.845271	0.413156	1.164642
H218	H	1.345271	0.913156	1.664642
H219	H	0.794033	0.361877	1.164649
H220	H	1.294033	0.861877	1.664649
C221	C	0.336979	0.312116	0.307370
C222	C	0.836979	0.812116	0.807370
H223	H	0.365818	0.315010	0.250980
H224	H	0.865818	0.815010	0.750980
H225	H	0.311439	0.348438	0.308625
H226	H	0.811439	0.848438	0.808625
H227	H	0.311464	0.276199	0.298250
H228	H	0.811464	0.776199	0.798250
C229	C	0.989759	1.072071	0.365375
C230	C	1.489759	1.572071	0.865375
H231	H	1.013618	1.043214	0.325374
H232	H	1.513618	1.543214	0.825374
H233	H	1.017059	1.097554	0.405610
H234	H	1.517059	1.597554	0.905610
H235	H	0.965808	1.097640	0.319572
H236	H	1.465808	1.597640	0.819572
H237	H	0.832786	0.944012	0.628089
H238	H	1.332786	1.444012	1.128089
C239	C	0.821177	0.531022	0.647123
C240	C	1.321177	1.031022	1.147123
H241	H	0.797308	0.559878	0.687110
H242	H	1.297308	1.059878	1.187110
H243	H	0.845119	0.505451	0.692925
H244	H	1.345119	1.005451	1.192925
H245	H	0.793877	0.505543	0.606873
H246	H	1.293877	1.005543	1.106873
C247	C	0.821226	0.668431	0.647163
C248	C	1.321226	1.168431	1.147163
H249	H	0.826978	0.712087	0.637557
H250	H	1.326978	1.212087	1.137557
H251	H	0.830369	0.657667	0.717765
H252	H	1.330369	1.157667	1.217765
H253	H	0.779127	0.657748	0.631712
H254	H	1.279127	1.157748	1.131712
C255	C	0.989690	0.217652	0.891560
C256	C	1.489690	0.717652	1.391560
H257	H	0.983944	0.223408	0.818351
H258	H	1.483944	0.723408	1.318351
H259	H	0.980549	0.175550	0.909558
H260	H	1.480549	0.675550	1.409558
H261	H	1.031786	0.226829	0.909553
H262	H	1.531786	0.726829	1.409553
C263	C	0.989718	0.217602	1.121970
C264	C	1.489718	0.717602	1.621970
H265	H	1.013596	0.193759	1.073598
H266	H	1.513596	0.693759	1.573598
H267	H	0.965776	0.190286	1.164776
H268	H	1.465776	0.690286	1.664776
H269	H	1.017008	0.241570	1.164770
H270	H	1.517008	0.741570	1.664770
