data_functionalizedCrystal
_audit_creation_method	'MofGen! by Chris Wilmer'
_symmetry_space_group_name_H-M	'P1'
_symmetry_Int_Tables_number	1
_symmetry_cell_setting	triclinic
loop_
_symmetry_equiv_pos_as_xyz
  x,y,z
_cell_length_a	12.759401
_cell_length_b	12.594516
_cell_length_c	12.594509
_cell_angle_alpha	89.973801
_cell_angle_beta	89.980791
_cell_angle_gamma	90.017577
loop_
_atom_site_label
_atom_site_type_symbol
_atom_site_fract_x
_atom_site_fract_y
_atom_site_fract_z
Zn1	Zn	1.606239	-0.423667	-0.601815
Zn2	Zn	1.606131	-0.601677	-0.423843
Zn3	Zn	1.430543	-0.423718	-0.423850
Zn4	Zn	1.430525	-0.601608	-0.601779
O5	O	1.518359	-0.512667	-0.512822
O6	O	1.753245	-0.447288	-0.578218
O7	O	1.582801	-0.578120	-0.274898
O8	O	1.453901	-0.274765	-0.447476
O9	O	1.753166	-0.578071	-0.447463
O10	O	1.582985	-0.274728	-0.578226
O11	O	1.453797	-0.447374	-0.274903
O12	O	1.283519	-0.447308	-0.447441
O13	O	1.453872	-0.577954	-0.750730
O14	O	1.283506	-0.578003	-0.578165
O15	O	1.582968	-0.447221	-0.750756
O16	O	1.582784	-0.750614	-0.447428
O17	O	1.453767	-0.750563	-0.578158
C18	C	1.245392	-0.512654	-0.512801
C19	C	1.128615	-0.512674	-0.512817
C20	C	1.073774	-0.580831	-0.580778
C21	C	0.964050	-0.580835	-0.580799
C22	C	0.964018	-0.444523	-0.444889
C23	C	1.073740	-0.444514	-0.444874
C24	C	0.814149	-0.619031	-0.706282
C25	C	0.759305	-0.687205	-0.774234
C26	C	0.794899	-0.791078	-0.790395
C27	C	0.885337	-0.826800	-0.738589
C28	C	0.940177	-0.758632	-0.670630
C29	C	0.904583	-0.654744	-0.654489
C30	C	1.223643	-0.406329	-0.319389
C31	C	1.278484	-0.338166	-0.251424
C32	C	1.242891	-0.234291	-0.235252
C33	C	1.152450	-0.198573	-0.287039
C34	C	1.097608	-0.266736	-0.355004
C35	C	1.133209	-0.370610	-0.371178
C36	C	1.518290	-0.789208	-0.512811
C37	C	1.518357	-0.907514	-0.512843
C38	C	1.448178	-0.976778	-0.583896
C39	C	1.422580	-1.047644	-0.486774
C40	C	1.544051	-1.047447	-0.609981
C41	C	1.492708	-0.976822	-0.415669
C42	C	1.614224	-0.976618	-0.538942
C43	C	1.588662	-1.047452	-0.441753
C44	C	1.792392	-0.512681	-0.512844
C45	C	1.909169	-0.512687	-0.512853
C46	C	1.518430	-0.512574	-0.790443
C47	C	1.518460	-0.512534	-0.908748
C48	C	1.518457	-0.235047	-0.512856
C49	C	1.518499	-0.116741	-0.512870
C50	C	1.448266	-0.583600	-0.977987
C51	C	1.544132	-0.609603	-1.048775
C52	C	1.422669	-0.486467	-1.048760
C53	C	1.614375	-0.538589	-0.977978
C54	C	1.492848	-0.415407	-0.977956
C55	C	1.588779	-0.441374	-1.048712
C56	C	1.518350	-0.512683	-0.236281
C57	C	1.518523	-0.512423	-0.117976
H58	H	0.750237	-0.846585	-0.845724
H59	H	1.341573	-1.078866	-0.464721
O60	O	1.326027	-0.460024	-1.085799
C61	C	1.188850	-0.328636	-1.090134
C62	C	1.298316	-0.358425	-1.048140
H63	H	1.166402	-0.246501	-1.059686
H64	H	1.189962	-0.327999	-1.180644
H65	H	1.129109	-0.389401	-1.061100
H66	H	1.358118	-0.297690	-1.077095
H67	H	1.297116	-0.359096	-0.957632
H68	H	0.919325	-0.389031	-0.389571
H69	H	1.123457	-0.113995	-0.273855
H70	H	1.695213	-0.945399	-0.561041
O71	O	1.009801	-0.231856	-0.405271
C72	C	0.890540	-0.086225	-0.433387
C73	C	0.990007	-0.125580	-0.376413
H74	H	0.874493	-0.000304	-0.410059
H75	H	0.902334	-0.091400	-0.522965
H76	H	0.821107	-0.137875	-0.409257
H77	H	1.059487	-0.073962	-0.400456
H78	H	0.978124	-0.120429	-0.286846
H79	H	1.352126	-0.367257	-0.209255
O80	O	1.377375	-0.655333	-0.941058
C81	C	1.196449	-0.710074	-0.936629
C82	C	1.276619	-0.628777	-0.978547
H83	H	1.114967	-0.688620	-0.966904
H84	H	1.218423	-0.792819	-0.965758
H85	H	1.196603	-0.708930	-0.846120
H86	H	1.276506	-0.629826	-1.069053
H87	H	1.254616	-0.546070	-0.949337
H88	H	1.252638	-0.490911	-0.332561
H89	H	1.648071	-1.078288	-0.381607
O90	O	1.296012	-0.167953	-0.169226
C91	C	1.305586	0.006482	-0.091299
C92	C	1.245319	-0.068543	-0.166075
H93	H	1.264637	0.086879	-0.088745
H94	H	1.307735	-0.029036	-0.008053
H95	H	1.389060	0.017163	-0.121802
H96	H	1.161819	-0.079253	-0.135669
H97	H	1.243256	-0.032990	-0.249308
O98	O	1.569845	-0.707598	-1.085845
C99	C	1.524956	-0.893357	-1.091815
C100	C	1.495711	-0.782433	-1.049789
H101	H	1.465047	-0.953895	-1.062663
H102	H	1.525436	-0.892231	-1.182326
H103	H	1.606092	-0.916072	-1.061507
H104	H	1.414569	-0.759649	-1.080019
H105	H	1.495303	-0.783618	-0.959279
O106	O	1.569977	-1.084280	-0.708019
C107	C	1.616360	-1.039713	-0.888092
C108	C	1.587046	-0.997862	-0.777109
H109	H	1.630147	-0.969866	-0.943987
H110	H	1.690827	-1.089395	-0.882471
H111	H	1.549727	-1.090876	-0.919997
H112	H	1.653611	-0.946655	-0.745139
H113	H	1.512547	-0.948239	-0.782796
O114	O	1.711086	-0.565106	-0.941179
C115	C	1.847686	-0.697090	-0.936251
C116	C	1.738168	-0.667180	-0.978019
H117	H	1.869606	-0.779626	-0.966000
H118	H	1.907653	-0.636908	-0.966018
H119	H	1.846844	-0.696900	-0.845738
H120	H	1.738907	-0.667380	-1.068529
H121	H	1.678247	-0.727367	-0.948170
O122	O	1.659847	-0.369742	-1.085486
C123	C	1.841103	-0.316225	-1.090894
C124	C	1.760732	-0.397431	-1.049195
H125	H	1.922684	-0.338570	-1.061551
H126	H	1.840220	-0.316210	-1.181408
H127	H	1.819885	-0.233724	-1.060532
H128	H	1.781895	-0.479972	-1.079478
H129	H	1.761631	-0.397353	-0.958682
H130	H	1.471122	-0.333340	-0.946826
H131	H	1.470940	-0.945927	-0.333508
H132	H	1.118450	-0.636329	-0.636103
H133	H	0.685670	-0.658110	-0.816415
H134	H	1.013809	-0.787716	-0.628450
H135	H	0.785166	-0.534446	-0.693141
O136	O	0.919790	-0.927727	-0.754435
C137	C	0.891121	-1.094628	-0.843285
C138	C	0.851998	-0.980347	-0.825449
H139	H	0.836318	-1.137212	-0.900682
H140	H	0.973602	-1.092538	-0.878055
H141	H	0.892373	-1.138765	-0.764248
H142	H	0.850679	-0.936145	-0.904444
H143	H	0.769540	-0.982515	-0.790629
O144	O	1.377113	-0.939797	-0.655356
C145	C	1.195821	-0.934090	-0.708588
C146	C	1.276188	-0.976023	-0.627578
H147	H	1.114208	-0.963381	-0.686171
H148	H	1.196861	-0.843577	-0.708446
H149	H	1.216917	-0.964331	-0.791175
H150	H	1.255148	-0.945861	-0.544952
H151	H	1.275132	-1.066535	-0.627813
