data_functionalizedCrystal
_audit_creation_method	'MofGen! by Chris Wilmer'
_symmetry_space_group_name_H-M	'P1'
_symmetry_Int_Tables_number	1
_symmetry_cell_setting	triclinic
loop_
_symmetry_equiv_pos_as_xyz
  x,y,z
_cell_length_a	10.723024
_cell_length_b	27.732048
_cell_length_c	9.798715
_cell_angle_alpha	89.991917
_cell_angle_beta	89.996609
_cell_angle_gamma	83.555262
loop_
_atom_site_label
_atom_site_type_symbol
_atom_site_fract_x
_atom_site_fract_y
_atom_site_fract_z
O1	O	1.654382	0.067789	-0.113499
O2	O	1.290961	0.074278	-0.113505
O3	O	1.483959	0.000707	-0.113476
O4	O	1.461384	0.141360	-0.113528
O5	O	1.483944	0.000707	0.113507
O6	O	1.290947	0.074278	0.113477
O7	O	1.654368	0.067789	0.113483
Zn8	Zn	1.472655	0.071033	0.149519
Zn9	Zn	1.472674	0.071033	-0.149540
O10	O	1.461370	0.141360	0.113454
C11	C	1.244474	0.073806	-0.000014
C12	C	1.105978	0.072393	-0.000016
C13	C	1.029292	0.113559	-0.000032
C14	C	0.886149	0.112100	-0.000033
C15	C	1.483478	-0.017303	0.000019
C16	C	1.482051	-0.070967	0.000030
C17	C	1.587117	-0.409130	-0.000038
C18	C	1.581823	-0.610822	-0.000057
O19	O	1.677898	-0.641481	-0.000115
N20	N	1.467383	-0.630656	-0.000058
C21	C	1.354259	-0.600064	-0.000063
O22	O	1.256800	-0.621562	-0.000078
C23	C	1.359554	-0.398373	-0.000053
C24	C	1.474001	-0.378541	-0.000039
C25	C	1.701554	-0.389298	-0.000025
C26	C	1.702877	-0.338877	-0.000013
C27	C	1.589761	-0.308289	-0.000013
C28	C	1.475324	-0.328121	-0.000026
C29	C	1.246432	-0.367781	-0.000068
C30	C	1.247766	-0.317356	-0.000069
C31	C	1.362213	-0.297524	-0.000054
C32	C	1.363531	-0.247113	-0.000015
N33	N	1.477970	-0.227278	-0.000014
C34	C	1.591085	-0.257867	-0.000014
C35	C	1.351487	-0.705956	-0.000065
C36	C	1.350163	-0.756378	-0.000065
C37	C	1.577727	-0.767133	-0.000062
C38	C	1.579050	-0.716709	-0.000052
C39	C	1.465926	-0.686121	-0.000064
C40	C	1.593854	-0.151980	0.000013
C41	C	1.595166	-0.101555	0.000031
C42	C	1.367603	-0.090805	0.000021
C43	C	1.366290	-0.141226	0.000010
C44	C	1.479425	-0.171813	0.000002
O45	O	1.267507	-0.216425	0.000028
O46	O	1.688531	-0.236359	-0.000029
C47	C	1.585794	-0.459550	-0.000050
C48	C	1.471357	-0.479382	-0.000063
C49	C	1.358241	-0.448793	-0.000064
C50	C	1.470033	-0.529804	-0.000063
C51	C	1.583148	-0.560392	-0.000062
C52	C	1.697587	-0.540558	-0.000062
C53	C	1.698910	-0.490138	-0.000049
C54	C	1.243802	-0.468628	-0.000065
C55	C	1.242489	-0.519048	-0.000075
C56	C	1.355604	-0.549637	-0.000074
C57	C	1.700855	0.068261	-0.000010
C58	C	1.839351	0.069674	-0.000018
C59	C	1.461851	0.159370	-0.000044
C60	C	1.463278	0.213034	-0.000064
N61	N	1.472651	0.071033	0.353618
N62	N	1.472687	0.071030	-0.353640
C63	C	1.553691	0.040006	0.421408
C64	C	1.553711	0.040005	0.578570
H65	H	1.688366	-0.085411	0.000047
F66	F	1.644407	0.005286	0.654764
F67	F	1.382000	0.105755	0.570175
F68	F	0.925464	0.023607	-0.000010
F69	F	1.381975	0.105750	0.429833
H70	H	1.256969	-0.772520	-0.000053
F71	F	1.824688	-0.317778	-0.000027
H72	H	1.151687	-0.443727	-0.000068
H73	H	1.623054	0.013442	0.363096
H74	H	1.065659	0.036068	-0.000037
H75	H	1.685980	-0.176879	0.000001
H76	H	1.275507	-0.065891	0.000025
F77	F	1.821958	-0.421845	-0.000025
H78	H	0.820258	0.147342	-0.000052
F79	F	1.127360	-0.284805	-0.000085
H80	H	1.792104	-0.473996	-0.000038
F81	F	1.700858	-0.695608	-0.000037
F82	F	1.244483	-0.162333	0.000019
H83	H	1.669830	-0.792046	-0.000060
H84	H	1.259363	-0.681055	-0.000074
H85	H	1.149285	-0.535190	-0.000075
F86	F	1.081984	0.161040	-0.000045
F87	F	1.124620	-0.388876	-0.000089
H88	H	1.789690	-0.565472	-0.000055
