data_functionalizedCrystal
_audit_creation_method	'MofGen! by Chris Wilmer'
_symmetry_space_group_name_H-M	'P1'
_symmetry_Int_Tables_number	1
_symmetry_cell_setting	triclinic
loop_
_symmetry_equiv_pos_as_xyz
  x,y,z
_cell_length_a	19.077105
_cell_length_b	21.295417
_cell_length_c	21.295420
_cell_angle_alpha	90.017552
_cell_angle_beta	92.311980
_cell_angle_gamma	87.726672
loop_
_atom_site_label
_atom_site_type_symbol
_atom_site_fract_x
_atom_site_fract_y
_atom_site_fract_z
Zn1	Zn	1.075919	-0.289439	0.394522
Zn2	Zn	1.409252	0.043894	0.727855
Zn3	Zn	1.742586	0.377227	1.061188
Zn4	Zn	1.075829	-0.394680	0.289244
Zn5	Zn	1.409162	-0.061347	0.622577
Zn6	Zn	1.742495	0.271986	0.955910
Zn7	Zn	0.958231	-0.285195	0.285043
Zn8	Zn	1.291564	0.048138	0.618377
Zn9	Zn	1.624897	0.381471	0.951710
Zn10	Zn	0.958178	-0.390436	0.390253
Zn11	Zn	1.291511	-0.057103	0.723587
Zn12	Zn	1.624844	0.276231	1.056920
O13	O	1.017039	-0.339938	0.339766
O14	O	1.350372	-0.006604	0.673099
O15	O	1.683706	0.326729	1.006432
O16	O	1.174397	-0.306952	0.384100
O17	O	1.507731	0.026381	0.717434
O18	O	1.841064	0.359715	1.050767
O19	O	1.060213	-0.380157	0.200597
O20	O	1.393547	-0.046824	0.533930
O21	O	1.726880	0.286509	0.867263
O22	O	0.973902	-0.197671	0.299594
O23	O	1.307236	0.135662	0.632927
O24	O	1.640569	0.468995	0.966261
O25	O	1.174331	-0.384272	0.306753
O26	O	1.507664	-0.050939	0.640087
O27	O	1.840997	0.282394	0.973420
O28	O	1.060367	-0.200789	0.380027
O29	O	1.393701	0.132544	0.713361
O30	O	1.727034	0.465878	1.046694
O31	O	0.973815	-0.299719	0.197511
O32	O	1.307148	0.033614	0.530844
O33	O	1.640481	0.366948	0.864177
O34	O	0.859733	-0.295603	0.295456
O35	O	1.193067	0.037730	0.628789
O36	O	1.526400	0.371063	0.962122
O37	O	0.973812	-0.377038	0.478910
O38	O	1.307145	-0.043705	0.812243
O39	O	1.640479	0.289628	1.145576
O40	O	0.859695	-0.372923	0.372753
O41	O	1.193028	-0.039590	0.706086
O42	O	1.526361	0.293743	1.039420
O43	O	1.060316	-0.302836	0.482045
O44	O	1.393649	0.030497	0.815379
O45	O	1.726983	0.363830	1.148712
O46	O	1.060162	-0.482205	0.302615
O47	O	1.393495	-0.148871	0.635948
O48	O	1.726829	0.184462	0.969281
O49	O	0.973724	-0.479086	0.376826
O50	O	1.307058	-0.145753	0.710159
O51	O	1.640391	0.187580	1.043493
C52	C	0.834177	-0.333343	0.333186
C53	C	1.167510	-0.000009	0.666519
C54	C	1.500843	0.333324	0.999852
C55	C	0.755947	-0.330536	0.330386
C56	C	1.089281	0.002797	0.663719
C57	C	1.422614	0.336130	0.997052
C58	C	0.719193	-0.369535	0.369252
C59	C	1.052526	-0.036202	0.702585
C60	C	1.385860	0.297132	1.035918
C61	C	0.645688	-0.366890	0.366624
C62	C	0.979022	-0.033557	0.699957
C63	C	1.312355	0.299777	1.033290
C64	C	0.608939	-0.325249	0.325126
C65	C	0.942272	0.008084	0.658460
C66	C	1.275606	0.341418	0.991793
C67	C	0.645698	-0.286246	0.286259
C68	C	0.979032	0.047087	0.619592
C69	C	1.312365	0.380420	0.952926
C70	C	0.719202	-0.288889	0.288890
C71	C	1.052535	0.044445	0.622224
C72	C	1.385868	0.377778	0.955557
C73	C	0.389108	-0.313020	0.312951
C74	C	0.722441	0.020313	0.646284
C75	C	1.055774	0.353647	0.979617
C76	C	0.315599	-0.310382	0.310321
C77	C	0.648932	0.022951	0.643654
C78	C	0.982266	0.356285	0.976987
C79	C	0.315594	-0.391025	0.390687
C80	C	0.648927	-0.057692	0.724020
C81	C	0.982261	0.275641	1.057353
C82	C	0.389099	-0.393667	0.393312
C83	C	0.722432	-0.060333	0.726645
C84	C	1.055766	0.273000	1.059978
C85	C	0.425852	-0.354661	0.354447
C86	C	0.759185	-0.021328	0.687780
C87	C	1.092518	0.312005	1.021113
N88	N	0.533805	-0.322546	0.322438
N89	N	0.867139	0.010787	0.655771
N90	N	1.200472	0.344121	0.989105
N91	N	0.500984	-0.357362	0.357139
N92	N	0.834317	-0.024029	0.690472
N93	N	1.167651	0.309305	1.023805
C94	C	1.016947	-0.503486	0.339727
C95	C	1.350280	-0.170153	0.673061
C96	C	1.683613	0.163181	1.006394
C97	C	1.016972	-0.573455	0.339734
C98	C	1.350305	-0.240122	0.673068
C99	C	1.683638	0.093212	1.006401
C100	C	1.062020	-0.607926	0.301135
C101	C	1.395353	-0.274593	0.634469
C102	C	1.728686	0.058741	0.967802
C103	C	1.062053	-0.673670	0.301151
C104	C	1.395386	-0.340336	0.634484
C105	C	1.728719	-0.007003	0.967817
C106	C	1.017025	-0.704939	0.339758
C107	C	1.350358	-0.371606	0.673091
C108	C	1.683692	-0.038273	1.006425
C109	C	0.971974	-0.670461	0.378365
C110	C	1.305307	-0.337127	0.711698
C111	C	1.638641	-0.003794	1.045032
C112	C	0.971947	-0.604718	0.378353
C113	C	1.305281	-0.271385	0.711686
C114	C	1.638614	0.061948	1.045020
N115	N	0.955455	-0.805990	0.342341
N116	N	1.288789	-0.472657	0.675675
N117	N	1.622122	-0.139323	1.009008
N118	N	0.955483	-0.868442	0.342349
N119	N	1.288816	-0.535109	0.675682
N120	N	1.622149	-0.201776	1.009016
C121	C	1.017104	-0.903017	0.339797
C122	C	1.350437	-0.569684	0.673130
C123	C	1.683771	-0.236350	1.006464
N124	N	1.078698	-0.872780	0.337225
N125	N	1.412031	-0.539447	0.670558
N126	N	1.745365	-0.206113	1.003891
N127	N	1.078670	-0.810322	0.337214
N128	N	1.412003	-0.476988	0.670547
N129	N	1.745337	-0.143655	1.003880
C130	C	1.017049	-0.776226	0.339775
C131	C	1.350383	-0.442892	0.673109
C132	C	1.683716	-0.109559	1.006442
C133	C	1.062191	-1.008775	0.301212
C134	C	1.395525	-0.675442	0.634546
C135	C	1.728858	-0.342108	0.967879
C136	C	1.062226	-1.074520	0.301232
C137	C	1.395559	-0.741186	0.634566
C138	C	1.728892	-0.407853	0.967899
C139	C	0.972141	-1.071309	0.378443
C140	C	1.305474	-0.737976	0.711776
C141	C	1.638807	-0.404642	1.045110
C142	C	0.972113	-1.005566	0.378427
C143	C	1.305446	-0.672232	0.711760
C144	C	1.638779	-0.338899	1.045093
C145	C	1.017137	-0.974302	0.339808
C146	C	1.350471	-0.640969	0.673141
C147	C	1.683804	-0.307636	1.006475
C148	C	1.200615	-0.346559	0.346371
C149	C	1.533949	-0.013226	0.679705
C150	C	1.867282	0.320108	1.013038
C151	C	1.278845	-0.349381	0.349187
C152	C	1.612178	-0.016047	0.682520
C153	C	1.945511	0.317286	1.015853
C154	C	1.017068	-0.339937	0.503957
C155	C	1.350402	-0.006604	0.837290
C156	C	1.683735	0.326729	1.170623
C157	C	1.017081	-0.339937	0.573925
C158	C	1.350414	-0.006604	0.907259
C159	C	1.683747	0.326730	1.240592
C160	C	1.017151	-0.175752	0.339818
C161	C	1.350484	0.157582	0.673152
C162	C	1.683817	0.490915	1.006485
C163	C	1.017198	-0.105785	0.339841
C164	C	1.350532	0.227548	0.673174
C165	C	1.683865	0.560882	1.006507
C166	C	0.972100	-0.298056	0.605175
C167	C	1.305433	0.035277	0.938509
C168	C	1.638766	0.368610	1.271842
C169	C	0.972087	-0.298059	0.670917
C170	C	1.305420	0.035274	1.004251
C171	C	1.638754	0.368608	1.337584
C172	C	1.017068	-0.339937	0.705407
C173	C	1.350401	-0.006603	1.038741
C174	C	1.683734	0.326730	1.372074
C175	C	1.062052	-0.381825	0.674150
C176	C	1.395385	-0.048492	1.007483
C177	C	1.728718	0.284841	1.340816
C178	C	1.062058	-0.381826	0.608409
C179	C	1.395392	-0.048492	0.941742
C180	C	1.728725	0.284841	1.275075
N181	N	1.078662	-0.346985	0.810856
N182	N	1.411996	-0.013652	1.144189
N183	N	1.745329	0.319681	1.477523
N184	N	1.078654	-0.346981	0.873307
N185	N	1.411987	-0.013648	1.206640
N186	N	1.745321	0.319685	1.539974
C187	C	1.017050	-0.339939	0.903481
C188	C	1.350383	-0.006606	1.236815
C189	C	1.683716	0.326727	1.570148
N190	N	0.955452	-0.332889	0.868845
N191	N	1.288786	0.000444	1.202179
N192	N	1.622119	0.333777	1.535512
N193	N	0.955461	-0.332890	0.806389
N194	N	1.288795	0.000443	1.139722
N195	N	1.622128	0.333777	1.473055
C196	C	1.017065	-0.339941	0.776693
C197	C	1.350399	-0.006608	1.110026
C198	C	1.683732	0.326725	1.443359
C199	C	0.972051	-0.298059	1.006016
C200	C	1.305384	0.035274	1.339350
C201	C	1.638718	0.368607	1.672683
C202	C	0.972037	-0.298067	1.071760
C203	C	1.305370	0.035267	1.405093
C204	C	1.638704	0.368600	1.738426
C205	C	1.062008	-0.381830	1.074991
C206	C	1.395341	-0.048497	1.408324
C207	C	1.728675	0.284837	1.741657
C208	C	1.062016	-0.381826	1.009249
C209	C	1.395349	-0.048493	1.342582
C210	C	1.728682	0.284841	1.675915
C211	C	1.017038	-0.339937	0.974765
C212	C	1.350371	-0.006604	1.308099
C213	C	1.683705	0.326729	1.641432
C214	C	1.017011	-0.339950	1.176213
C215	C	1.350344	-0.006617	1.509546
C216	C	1.683678	0.326716	1.842880
C217	C	1.017017	-0.339945	1.106245
C218	C	1.350351	-0.006612	1.439578
C219	C	1.683684	0.326721	1.772912
H220	H	0.285662	-0.422780	0.422329
H221	H	0.618995	-0.089447	0.755663
H222	H	0.952329	0.243887	1.088996
N223	N	1.107995	-0.575991	0.261676
N224	N	1.441329	-0.242658	0.595009
N225	N	1.774662	0.090675	0.928343
N226	N	1.083231	-0.538465	0.220645
N227	N	1.416565	-0.205132	0.553979
N228	N	1.749898	0.128202	0.887312
H229	H	1.115698	-0.515912	0.192771
H230	H	1.449032	-0.182579	0.526105
H231	H	1.782365	0.150755	0.859438
H232	H	0.935427	-0.263952	0.977939
H233	H	1.268760	0.069382	1.311272
H234	H	1.602094	0.402715	1.644605
N235	N	0.278070	-0.267841	0.267926
N236	N	0.611403	0.065492	0.601259
N237	N	0.944737	0.398826	0.934593
N238	N	0.310892	-0.233018	0.233229
N239	N	0.644225	0.100315	0.566563
N240	N	0.977559	0.433648	0.899896
H241	H	0.284388	-0.202975	0.203289
H242	H	0.617721	0.130358	0.536622
H243	H	0.951054	0.463692	0.869956
H244	H	0.615766	-0.398647	0.398272
H245	H	0.949100	-0.065314	0.731605
H246	H	1.282433	0.268019	1.064939
H247	H	1.098646	-0.415928	0.983805
H248	H	1.431979	-0.082595	1.317138
H249	H	1.765313	0.250738	1.650471
N250	N	1.108070	-0.708881	0.261713
N251	N	1.441403	-0.375547	0.595046
N252	N	1.774736	-0.042214	0.928379
N253	N	1.148263	-0.680959	0.227234
N254	N	1.481596	-0.347626	0.560567
N255	N	1.814929	-0.014293	0.893901
H256	H	1.180760	-0.705825	0.199378
H257	H	1.514094	-0.372491	0.532711
H258	H	1.847427	-0.039158	0.866044
H259	H	0.935473	-0.263949	0.577103
H260	H	1.268806	0.069384	0.910436
H261	H	1.602140	0.402717	1.243770
N262	N	0.926090	-0.255291	1.103695
N263	N	1.259423	0.078042	1.437029
N264	N	1.592757	0.411375	1.770362
N265	N	0.881220	-0.275818	1.138748
N266	N	1.214554	0.057516	1.472082
N267	N	1.547887	0.390849	1.805415
H268	H	0.848771	-0.245607	1.161306
H269	H	1.182104	0.087726	1.494639
H270	H	1.515437	0.421060	1.827972
N271	N	0.426646	-0.436200	0.435696
N272	N	0.759979	-0.102866	0.769029
N273	N	1.093313	0.230467	1.102363
N274	N	0.492273	-0.438557	0.438035
N275	N	0.825607	-0.105224	0.771368
N276	N	1.158940	0.228109	1.104701
H277	H	0.518792	-0.468601	0.467964
H278	H	0.852126	-0.135268	0.801298
H279	H	1.185459	0.198066	1.134631
N280	N	0.925988	-0.702409	0.417802
N281	N	1.259321	-0.369075	0.751135
N282	N	1.592655	-0.035742	1.084468
N283	N	0.926017	-0.761106	0.417807
N284	N	1.259350	-0.427773	0.751140
N285	N	1.592683	-0.094440	1.084474
H286	H	0.893540	-0.783671	0.445663
H287	H	1.226873	-0.450337	0.778996
H288	H	1.560207	-0.117004	1.112329
H289	H	1.098634	-0.415926	1.103072
H290	H	1.431967	-0.082593	1.436405
H291	H	1.765300	0.250740	1.769738
N292	N	0.926102	-0.970343	0.417855
N293	N	1.259436	-0.637010	0.751188
N294	N	1.592769	-0.303677	1.084522
N295	N	0.950826	-0.934513	0.458869
N296	N	1.284160	-0.601179	0.792202
N297	N	1.617493	-0.267846	1.125536
H298	H	0.918333	-0.909637	0.486720
H299	H	1.251666	-0.576303	0.820054
H300	H	1.584999	-0.242970	1.153387
H301	H	1.098914	-1.102585	0.269802
H302	H	1.432247	-0.769252	0.603135
H303	H	1.765580	-0.435919	0.936468
H304	H	0.935459	-0.263952	0.696366
H305	H	1.268793	0.069382	1.029700
H306	H	1.602126	0.402715	1.363033
H307	H	0.749109	-0.403446	0.403041
H308	H	1.082442	-0.070112	0.736375
H309	H	1.415776	0.263221	1.069708
N310	N	0.426632	-0.273178	0.273244
N311	N	0.759966	0.060155	0.606577
N312	N	1.093299	0.393488	0.939911
N313	N	0.393810	-0.236007	0.236193
N314	N	0.727143	0.097327	0.569526
N315	N	1.060476	0.430660	0.902860
H316	H	0.420313	-0.207868	0.208146
H317	H	0.753647	0.125465	0.541480
H318	H	1.086980	0.458799	0.874813
N319	N	1.108193	-0.976826	0.261786
N320	N	1.441526	-0.643493	0.595120
N321	N	1.774859	-0.310160	0.928453
N322	N	1.108166	-0.918128	0.261783
N323	N	1.441499	-0.584795	0.595116
N324	N	1.774833	-0.251462	0.928450
H325	H	1.140657	-0.895565	0.233941
H326	H	1.473991	-0.562232	0.567274
H327	H	1.807324	-0.228898	0.900608
N328	N	1.107990	-0.424602	0.709386
N329	N	1.441323	-0.091269	1.042720
N330	N	1.774656	0.242064	1.376053
N331	N	1.107979	-0.424597	0.768083
N332	N	1.441312	-0.091263	1.101416
N333	N	1.774645	0.242070	1.434749
H334	H	1.140421	-0.454811	0.792969
H335	H	1.473754	-0.121478	1.126303
H336	H	1.807088	0.211856	1.459636
H337	H	1.098690	-0.415930	0.582965
H338	H	1.432024	-0.082596	0.916299
H339	H	1.765357	0.250737	1.249632
N340	N	0.925937	-0.569505	0.417791
N341	N	1.259270	-0.236172	0.751124
N342	N	1.592604	0.097162	1.084458
N343	N	0.930571	-0.576981	0.476048
N344	N	1.263904	-0.243647	0.809382
N345	N	1.597237	0.089686	1.142715
H346	H	0.898075	-0.552110	0.503902
H347	H	1.231409	-0.218777	0.837236
H348	H	1.564742	0.114556	1.170569
N349	N	0.608151	-0.243710	0.243878
N350	N	0.941485	0.089624	0.577212
N351	N	1.274818	0.422957	0.910545
N352	N	0.542524	-0.241355	0.241533
N353	N	0.875857	0.091978	0.574866
N354	N	1.209191	0.425311	0.908200
H355	H	0.516006	-0.211314	0.211600
H356	H	0.849340	0.122020	0.544934
H357	H	1.182673	0.455353	0.878267
H358	H	0.749126	-0.257129	0.257245
H359	H	1.082459	0.076205	0.590578
H360	H	1.415793	0.409538	0.923912
H361	H	0.935481	-1.096768	0.409881
H362	H	1.268815	-0.763435	0.743214
H363	H	1.602148	-0.430102	1.076548
