data_functionalizedCrystal
_audit_creation_method	'MofGen! by Chris Wilmer'
_symmetry_space_group_name_H-M	'P1'
_symmetry_Int_Tables_number	1
_symmetry_cell_setting	triclinic
loop_
_symmetry_equiv_pos_as_xyz
  x,y,z
_cell_length_a	14.853558
_cell_length_b	22.610064
_cell_length_c	14.853569
_cell_angle_alpha	90.005598
_cell_angle_beta	83.633349
_cell_angle_gamma	90.014758
loop_
_atom_site_label
_atom_site_type_symbol
_atom_site_fract_x
_atom_site_fract_y
_atom_site_fract_z
O1	O	1.196385	0.049179	0.117662
O2	O	1.696385	0.549179	0.617662
O3	O	0.933924	0.049182	0.131692
O4	O	1.433924	0.549182	0.631692
O5	O	1.072165	0.049175	-0.006553
O6	O	1.572165	0.549175	0.493447
O7	O	1.058145	0.049186	0.255907
O8	O	1.558145	0.549186	0.755907
O9	O	1.072124	-0.049195	-0.006553
O10	O	1.572124	0.450805	0.493447
O11	O	0.933884	-0.049187	0.131692
O12	O	1.433884	0.450813	0.631692
O13	O	1.196344	-0.049190	0.117662
O14	O	1.696344	0.450810	0.617662
Zn15	Zn	1.065108	-0.064807	0.124677
Zn16	Zn	1.565108	0.435193	0.624677
Zn17	Zn	1.065161	0.064799	0.124677
Zn18	Zn	1.565161	0.564799	0.624677
O19	O	1.058104	-0.049183	0.255907
O20	O	1.558104	0.450817	0.755907
C21	C	0.900315	-0.000002	0.131058
C22	C	1.400315	0.499998	0.631058
C23	C	0.800231	-0.000001	0.129158
C24	C	1.300231	0.499999	0.629158
C25	C	0.753233	0.053622	0.128266
C26	C	1.253233	0.553622	0.628266
C27	C	0.753187	-0.053624	0.128255
C28	C	1.253187	0.446376	0.628255
C29	C	0.659153	-0.053625	0.126465
C30	C	1.159153	0.446375	0.626465
C31	C	0.612155	-0.000002	0.125574
C32	C	1.112155	0.499998	0.625574
C33	C	0.659191	0.053622	0.126473
C34	C	1.159191	0.553622	0.626473
C35	C	0.612112	-0.107248	0.125556
C36	C	1.112112	0.392752	0.625556
C37	C	0.518073	-0.107252	0.123765
C38	C	1.018073	0.392748	0.623765
C39	C	0.471072	-0.053628	0.122880
C40	C	0.971072	0.446372	0.622880
C41	C	0.518113	-0.000001	0.123780
C42	C	1.018113	0.499999	0.623780
C43	C	0.471115	0.053622	0.122889
C44	C	0.971115	0.553622	0.622889
C45	C	0.518154	0.107249	0.123796
C46	C	1.018154	0.607249	0.623796
C47	C	0.612190	0.107246	0.125588
C48	C	1.112190	0.607246	0.625588
C49	C	0.377036	-0.053625	0.121088
C50	C	0.877036	0.446375	0.621088
C51	C	0.377073	0.053623	0.121096
C52	C	0.877073	0.553623	0.621096
N53	N	1.065078	-0.153259	0.124676
N54	N	1.565078	0.346741	0.624676
C55	C	1.119907	-0.561899	0.179445
C56	C	1.619907	-0.061899	0.679445
C57	C	1.119918	-0.623819	0.179443
C58	C	1.619918	-0.123819	0.679443
O59	O	1.166499	-0.655836	0.226003
O60	O	1.666499	-0.155836	0.726003
N61	N	1.065178	-0.654797	0.124667
N62	N	1.565178	-0.154797	0.624667
C63	C	1.010431	-0.623851	0.069883
C64	C	1.510431	-0.123851	0.569883
O65	O	0.963872	-0.655886	0.023291
O66	O	1.463872	-0.155886	0.523291
C67	C	1.010425	-0.561932	0.069881
C68	C	1.510425	-0.061932	0.569881
C69	C	1.065161	-0.530958	0.124667
C70	C	1.565161	-0.030958	0.624667
C71	C	1.174639	-0.530925	0.234226
C72	C	1.674639	-0.030925	0.734226
C73	C	1.174626	-0.469009	0.234230
C74	C	1.674626	0.030991	0.734230
C75	C	1.119881	-0.438068	0.179452
C76	C	1.619881	0.061932	0.679452
C77	C	1.065148	-0.469042	0.124670
C78	C	1.565148	0.030958	0.624670
C79	C	0.955683	-0.530988	0.015092
C80	C	1.455683	-0.030988	0.515092
C81	C	0.955682	-0.469065	0.015095
C82	C	1.455682	0.030935	0.515095
C83	C	1.010419	-0.438091	0.069881
C84	C	1.510419	0.061909	0.569881
C85	C	1.010390	-0.376185	0.069896
C86	C	1.510390	0.123815	0.569896
N87	N	1.065130	-0.345208	0.124672
N88	N	1.565130	0.154792	0.624672
C89	C	1.119875	-0.376149	0.179450
C90	C	1.619875	0.123851	0.679450
C91	C	1.010448	-0.753885	0.069890
C92	C	1.510448	-0.253885	0.569890
C93	C	1.010449	-0.815802	0.069896
C94	C	1.510449	-0.315802	0.569896
C95	C	1.119937	-0.815766	0.179455
C96	C	1.619937	-0.315766	0.679455
C97	C	1.119932	-0.753847	0.179453
C98	C	1.619932	-0.253847	0.679453
C99	C	1.065188	-0.722907	0.124666
C100	C	1.565188	-0.222907	0.624666
C101	C	1.119843	-0.246122	0.179453
C102	C	1.619843	0.253878	0.679453
C103	C	1.119823	-0.184201	0.179454
C104	C	1.619823	0.315799	0.679454
C105	C	1.010338	-0.184242	0.069892
C106	C	1.510338	0.315758	0.569892
C107	C	1.010355	-0.246158	0.069894
C108	C	1.510355	0.253842	0.569894
C109	C	1.065115	-0.277096	0.124677
C110	C	1.565115	0.222904	0.624677
O111	O	0.963835	-0.344129	0.023356
O112	O	1.463835	0.155871	0.523356
O113	O	1.166435	-0.344107	0.226025
O114	O	1.666435	0.155893	0.726025
C115	C	1.229953	-0.000005	0.118296
C116	C	1.729953	0.499995	0.618296
C117	C	1.330038	-0.000002	0.120197
C118	C	1.830038	0.499998	0.620197
C119	C	1.071509	-0.000010	-0.040141
C120	C	1.571509	0.499990	0.459859
C121	C	1.069604	-0.000011	-0.140225
C122	C	1.569604	0.499989	0.359775
N123	N	1.065198	0.153251	0.124671
N124	N	1.565198	0.653251	0.624671
C125	C	0.986593	-0.000011	-0.176599
C126	C	1.486593	0.499989	0.323401
C127	C	1.150826	-0.000006	-0.197894
C128	C	1.650826	0.499994	0.302106
C129	C	1.149040	-0.000004	-0.291928
C130	C	1.649040	0.499996	0.208072
C131	C	1.066029	-0.000004	-0.328302
C132	C	1.566029	0.499996	0.171698
C133	C	0.984804	-0.000006	-0.270641
C134	C	1.484804	0.499994	0.229359
C135	C	1.230263	0.000005	-0.349595
C136	C	1.730263	0.500005	0.150405
C137	C	1.228480	0.000008	-0.443635
C138	C	1.728480	0.500008	0.056365
C139	C	1.145468	0.000004	-0.480011
C140	C	1.645468	0.500004	0.019989
C141	C	1.064240	0.000001	-0.422344
C142	C	1.564240	0.500001	0.077656
C143	C	0.981229	0.000000	-0.458718
C144	C	1.481229	0.500000	0.041282
C145	C	0.900000	-0.000007	-0.401053
C146	C	1.400000	0.499993	0.098947
C147	C	0.901792	-0.000011	-0.307017
C148	C	1.401792	0.499989	0.192983
C149	C	1.143675	0.000008	-0.574047
C150	C	1.643675	0.500008	-0.074047
C151	C	0.979439	0.000005	-0.552760
C152	C	1.479439	0.500005	-0.052760
C153	C	1.058760	0.000003	0.289496
C154	C	1.558760	0.500003	0.789496
C155	C	1.060664	0.000007	0.389579
C156	C	1.560664	0.500007	0.889579
H157	H	0.338813	0.097290	0.120376
H158	H	0.838813	0.597290	0.620376
N159	N	0.801196	-0.108392	0.129202
N160	N	1.301196	0.391608	0.629202
N161	N	0.782448	-0.144284	0.192514
N162	N	1.282448	0.355716	0.692514
H163	H	0.816360	-0.182965	0.193193
H164	H	1.316360	0.317035	0.693193
N165	N	0.470130	0.162017	0.122874
N166	N	0.970130	0.662017	0.622874
N167	N	0.386170	0.162004	0.121262
N168	N	0.886170	0.662004	0.621262
H169	H	0.352249	0.200683	0.120609
H170	H	0.852249	0.700683	0.620609
H171	H	1.219224	-0.556110	0.278833
H172	H	1.719224	-0.056110	0.778833
H173	H	1.164513	-0.840970	0.224060
H174	H	1.664513	-0.340970	0.724060
N175	N	1.235608	0.000003	-0.160727
N176	N	1.735608	0.500003	0.339273
N177	N	1.237192	0.000005	-0.076764
N178	N	1.737192	0.500005	0.423236
H179	H	1.297072	0.000012	-0.050511
H180	H	1.797072	0.500012	0.449489
N181	N	0.328975	-0.108391	0.120151
N182	N	0.828975	0.391609	0.620151
N183	N	0.284728	-0.120350	0.055650
N184	N	0.784728	0.379650	0.555650
H185	H	0.250784	-0.159032	0.054988
H186	H	0.750784	0.340968	0.554988
N187	N	1.175755	-0.152562	0.235402
N188	N	1.675755	0.347438	0.735402
N189	N	1.235311	-0.118000	0.200303
N190	N	1.735311	0.382000	0.700303
H191	H	1.274815	-0.095657	0.239812
H192	H	1.774815	0.404343	0.739812
H193	H	0.835660	-0.000015	-0.260058
H194	H	1.335660	0.499985	0.239942
N195	N	0.660144	-0.162008	0.126483
N196	N	1.160144	0.337992	0.626483
N197	N	0.704376	-0.173956	0.190990
N198	N	1.204376	0.326044	0.690990
H199	H	0.738309	-0.212630	0.191650
H200	H	1.238309	0.287370	0.691650
H201	H	0.650498	0.150907	0.126325
H202	H	1.150498	0.650907	0.626325
H203	H	0.791536	0.097284	0.129008
H204	H	1.291536	0.597284	0.629008
N205	N	0.954540	-0.847447	0.013941
N206	N	1.454540	-0.347447	0.513941
N207	N	0.954551	-0.902731	0.013937
N208	N	1.454551	-0.402731	0.513937
H209	H	0.915066	-0.925080	-0.025586
H210	H	1.415066	-0.425080	0.474414
N211	N	0.894635	-0.000004	-0.589897
N212	N	1.394635	0.499996	-0.089897
N213	N	0.822123	-0.000014	-0.538399
N214	N	1.322123	0.499986	-0.038399
H215	H	0.762229	-0.000021	-0.564625
H216	H	1.262229	0.499979	-0.064625
H217	H	0.479782	-0.150918	0.123025
H218	H	0.979782	0.349082	0.623025
H219	H	1.164434	-0.271304	0.224062
H220	H	1.664434	0.228696	0.724062
H221	H	0.832412	-0.000003	-0.430681
H222	H	1.332412	0.499997	0.069319
N223	N	1.226646	0.000009	-0.632936
N224	N	1.726646	0.500009	-0.132936
N225	N	1.281818	-0.041453	-0.629565
N226	N	1.781818	0.458547	-0.129565
H227	H	1.340421	-0.041454	-0.671155
H228	H	1.840421	0.458546	-0.171155
H229	H	1.219202	-0.443795	0.278839
H230	H	1.719202	0.056205	0.778839
N231	N	1.175855	-0.722220	0.235414
N232	N	1.675855	-0.222220	0.735414
N233	N	1.224729	-0.749860	0.284315
N234	N	1.724729	-0.249860	0.784315
H235	H	1.264232	-0.727527	0.323836
H236	H	1.764232	-0.227527	0.823836
H237	H	0.920459	-0.000019	-0.129644
H238	H	1.420459	0.499981	0.370356
N239	N	1.315059	-0.000004	-0.312456
N240	N	1.815059	0.499996	0.187544
N241	N	1.387574	-0.000002	-0.363948
N242	N	1.887574	0.499998	0.136052
H243	H	1.447466	-0.000011	-0.337717
H244	H	1.947466	0.499989	0.162283
N245	N	0.954520	-0.722292	0.013916
N246	N	1.454520	-0.222292	0.513916
N247	N	0.905657	-0.749963	-0.034987
N248	N	1.405657	-0.249963	0.465013
H249	H	0.866160	-0.727654	-0.074522
H250	H	1.366160	-0.227654	0.425478
H251	H	0.911112	-0.556197	-0.029522
H252	H	1.411112	-0.056197	0.470478
N253	N	0.954441	-0.277813	0.013950
N254	N	1.454441	0.222187	0.513950
N255	N	0.894893	-0.312383	0.049041
N256	N	1.394893	0.187617	0.549041
H257	H	0.855409	-0.334737	0.009525
H258	H	1.355409	0.165263	0.509525
N259	N	0.899774	-0.437471	-0.040895
N260	N	1.399774	0.062529	0.459105
N261	N	0.850922	-0.465139	-0.089813
N262	N	1.350922	0.034861	0.410187
H263	H	0.811441	-0.442827	-0.129360
H264	H	1.311441	0.057173	0.370640
N265	N	0.954420	-0.152621	0.013951
N266	N	1.454420	0.347379	0.513951
N267	N	0.954426	-0.097337	0.013966
N268	N	1.454426	0.402663	0.513966
H269	H	0.914937	-0.075002	-0.025546
H270	H	1.414937	0.424998	0.474454
H271	H	1.294622	0.000013	-0.490579
H272	H	1.794622	0.500013	0.009421
