data_functionalizedCrystal
_audit_creation_method	'MofGen! by Chris Wilmer'
_symmetry_space_group_name_H-M	'P1'
_symmetry_Int_Tables_number	1
_symmetry_cell_setting	triclinic
loop_
_symmetry_equiv_pos_as_xyz
  x,y,z
_cell_length_a	21.295420
_cell_length_b	21.295417
_cell_length_c	12.759393
_cell_angle_alpha	89.961564
_cell_angle_beta	89.979718
_cell_angle_gamma	90.025484
loop_
_atom_site_label
_atom_site_type_symbol
_atom_site_fract_x
_atom_site_fract_y
_atom_site_fract_z
Zn1	Zn	0.962332	-0.250641	-0.594024
Zn2	Zn	0.962244	-0.355926	-0.418324
Zn3	Zn	0.857063	-0.250666	-0.418354
Zn4	Zn	0.857026	-0.355869	-0.593956
O5	O	0.909666	-0.303275	-0.506165
O6	O	1.050410	-0.264620	-0.570734
O7	O	0.948270	-0.341997	-0.271307
O8	O	0.871080	-0.162574	-0.441698
O9	O	1.050345	-0.341973	-0.441648
O10	O	0.948420	-0.162555	-0.570762
O11	O	0.870994	-0.264664	-0.271329
O12	O	0.768969	-0.264609	-0.441631
O13	O	0.871017	-0.341875	-0.740986
O14	O	0.768942	-0.341900	-0.570645
O15	O	0.948384	-0.264565	-0.741036
O16	O	0.948234	-0.444007	-0.441581
O17	O	0.870931	-0.443965	-0.570617
C18	C	0.746115	-0.303251	-0.506135
C19	C	0.676147	-0.303256	-0.506147
C20	C	0.176722	-0.263093	-0.573505
C21	C	0.242464	-0.263088	-0.573504
C22	C	0.275307	-0.303295	-0.506189
C23	C	0.242402	-0.343520	-0.438888
C24	C	0.176661	-0.343528	-0.438897
N25	N	0.378501	-0.308047	-0.414194
N26	N	0.440953	-0.308036	-0.414188
C27	C	0.473382	-0.303274	-0.506158
N28	N	0.441000	-0.298511	-0.598136
N29	N	0.378543	-0.298519	-0.598141
C30	C	0.346593	-0.303291	-0.506172
C31	C	0.577565	-0.263049	-0.573460
C32	C	0.643308	-0.263049	-0.573462
C33	C	0.643245	-0.343477	-0.438836
C34	C	0.577502	-0.343481	-0.438843
C35	C	0.544666	-0.303263	-0.506154
C36	C	0.909586	-0.466827	-0.506111
C37	C	0.909609	-0.536795	-0.506124
C38	C	0.949858	-0.569595	-0.573376
C39	C	0.949880	-0.635337	-0.573401
C40	C	0.909660	-0.668278	-0.506157
C41	C	0.869404	-0.635470	-0.438900
C42	C	0.869379	-0.569729	-0.438884
N43	N	0.904905	-0.771547	-0.414210
N44	N	0.904933	-0.833998	-0.414229
C45	C	0.909734	-0.866352	-0.506204
N46	N	0.914518	-0.833896	-0.598162
N47	N	0.914494	-0.771439	-0.598143
C48	C	0.909683	-0.739563	-0.506168
C49	C	0.950008	-0.970438	-0.573490
C50	C	0.950026	-1.036181	-0.573518
C51	C	0.869554	-1.036313	-0.439007
C52	C	0.869533	-0.970570	-0.438989
C53	C	0.909763	-0.937637	-0.506229
C54	C	1.073857	-0.303300	-0.506195
C55	C	1.143825	-0.303311	-0.506208
C56	C	0.909706	-0.303211	-0.780198
C57	C	0.909723	-0.303184	-0.896975
C58	C	0.909764	-0.139085	-0.506241
C59	C	0.909806	-0.069117	-0.506273
C60	C	0.869477	-0.343406	-1.061537
C61	C	0.869453	-0.343425	-0.951813
C62	C	0.950016	-0.262917	-0.951866
C63	C	0.950036	-0.262896	-1.061588
C64	C	0.822967	-0.389889	-1.061506
C65	C	0.822943	-0.389907	-0.951782
C66	C	0.909663	-0.303294	-0.233197
C67	C	0.909768	-0.303144	-0.116421
H68	H	0.669985	-0.376219	-0.384034
C69	C	0.994352	-0.218604	-1.121957
H70	H	1.018333	-0.194643	-1.073584
H71	H	0.970294	-0.191168	-1.164776
H72	H	1.021778	-0.242681	-1.164746
C73	C	0.994103	-0.533368	-0.647343
H74	H	0.988327	-0.489517	-0.637699
H75	H	0.984872	-0.544117	-0.717922
H76	H	1.036409	-0.544114	-0.632026
C77	C	0.825310	-1.072536	-0.365040
H78	H	0.801334	-1.043583	-0.324986
H79	H	0.849413	-1.098187	-0.319307
H80	H	0.797876	-1.098181	-0.405204
H81	H	0.836656	-0.662294	-0.384152
C82	C	0.994311	-0.218652	-0.891547
H83	H	0.988531	-0.224432	-0.818340
H84	H	0.985128	-0.176352	-0.909556
H85	H	1.036606	-0.227872	-0.909524
C86	C	0.994302	-1.072261	-0.647498
H87	H	1.018260	-1.043229	-0.687531
H88	H	0.970219	-1.097903	-0.693250
H89	H	1.021752	-1.097904	-0.607347
C90	C	0.825267	-0.934489	-0.364998
H91	H	0.801320	-0.963521	-0.324945
H92	H	0.797815	-0.908844	-0.405134
H93	H	0.849359	-0.908848	-0.319249
C94	C	0.140602	-0.218864	-0.647553
H95	H	0.096737	-0.224625	-0.637919
H96	H	0.151395	-0.228123	-0.718113
H97	H	0.151385	-0.176555	-0.632296
C98	C	0.278659	-0.218845	-0.647529
H99	H	0.249687	-0.194892	-0.687613
H100	H	0.304311	-0.242949	-0.693232
H101	H	0.304300	-0.191388	-0.607402
C102	C	0.278526	-0.387744	-0.364840
H103	H	0.322392	-0.381974	-0.374464
H104	H	0.267745	-0.430051	-0.380089
H105	H	0.267735	-0.378481	-0.294275
H106	H	0.774226	-0.376820	-1.091286
C107	C	0.541314	-0.387713	-0.364804
H108	H	0.570288	-0.411654	-0.324705
H109	H	0.515668	-0.415171	-0.404910
H110	H	0.515667	-0.363599	-0.319099
C111	C	0.140473	-0.387765	-0.364860
H112	H	0.169446	-0.411708	-0.324764
H113	H	0.114825	-0.415220	-0.404968
H114	H	0.114827	-0.363651	-0.319154
C115	C	0.994155	-0.671428	-0.647376
H116	H	0.988405	-0.715297	-0.637758
H117	H	1.036451	-0.660627	-0.632058
H118	H	0.984914	-0.660629	-0.717956
H119	H	0.550828	-0.230302	-0.628269
C120	C	0.846524	-0.452444	-1.107454
H121	H	0.856998	-0.480317	-1.051989
H122	H	0.882639	-0.444963	-1.149368
H123	H	0.814461	-0.470651	-1.149341
C124	C	0.760386	-0.366316	-0.905811
H125	H	0.732542	-0.355803	-0.961266
H126	H	0.767881	-0.330221	-0.863932
H127	H	0.742137	-0.398379	-0.863886
H128	H	0.670092	-0.230301	-0.628271
C129	C	0.825108	-0.533648	-0.364897
H130	H	0.801159	-0.562679	-0.324847
H131	H	0.797659	-0.508001	-0.405034
H132	H	0.849200	-0.508008	-0.319145
C133	C	0.840676	-0.455738	-0.911506
H134	H	0.847978	-0.482801	-0.969401
H135	H	0.807359	-0.472024	-0.870078
H136	H	0.877683	-0.452988	-0.870205
C137	C	0.994240	-0.934208	-0.647481
H138	H	1.018203	-0.963161	-0.687557
H139	H	1.021677	-0.908553	-0.607350
H140	H	0.970117	-0.908566	-0.693208
