data_functionalizedCrystal
_audit_creation_method	'MofGen! by Chris Wilmer'
_symmetry_space_group_name_H-M	'P1'
_symmetry_Int_Tables_number	1
_symmetry_cell_setting	triclinic
loop_
_symmetry_equiv_pos_as_xyz
  x,y,z
_cell_length_a	15.944493
_cell_length_b	16.109301
_cell_length_c	14.586319
_cell_angle_alpha	89.994786
_cell_angle_beta	89.997059
_cell_angle_gamma	83.468262
loop_
_atom_site_label
_atom_site_type_symbol
_atom_site_fract_x
_atom_site_fract_y
_atom_site_fract_z
O1	O	1.114518	0.106998	-0.076231
O2	O	1.447851	0.440331	0.257102
O3	O	1.781185	0.773664	0.590436
O4	O	0.869957	0.120268	-0.076236
O5	O	1.203291	0.453601	0.257097
O6	O	1.536624	0.786935	0.590431
O7	O	0.998956	-0.007397	-0.076224
O8	O	1.332289	0.325936	0.257109
O9	O	1.665623	0.659269	0.590443
O10	O	0.985519	0.234663	-0.076243
O11	O	1.318853	0.567996	0.257090
O12	O	1.652186	0.901330	0.590424
O13	O	0.998947	-0.007399	0.076257
O14	O	1.332280	0.325934	0.409590
O15	O	1.665614	0.659267	0.742923
O16	O	0.869948	0.120266	0.076245
O17	O	1.203282	0.453599	0.409578
O18	O	1.536615	0.786933	0.742911
O19	O	1.114509	0.106996	0.076250
O20	O	1.447842	0.440329	0.409583
O21	O	1.781176	0.773662	0.742916
Cu22	Cu	0.992228	0.113631	0.090170
Cu23	Cu	1.325561	0.446964	0.423503
Cu24	Cu	1.658895	0.780297	0.756837
Cu25	Cu	0.992239	0.113633	-0.090156
Cu26	Cu	1.325572	0.446966	0.243177
Cu27	Cu	1.658905	0.780300	0.576510
O28	O	0.985510	0.234661	0.076238
O29	O	1.318844	0.567994	0.409571
O30	O	1.652177	0.901328	0.742904
C31	C	0.998407	-0.038373	0.000017
C32	C	1.331741	0.294960	0.333350
C33	C	1.665074	0.628293	0.666683
C34	C	0.996775	-0.130669	0.000018
C35	C	1.330109	0.202665	0.333351
C36	C	1.663442	0.535998	0.666685
C37	C	0.838658	0.119725	0.000004
C38	C	1.171992	0.453058	0.333337
C39	C	1.505325	0.786391	0.666671
C40	C	0.745410	0.118099	0.000002
C41	C	1.078744	0.451432	0.333336
C42	C	1.412077	0.784765	0.666669
C43	C	1.069526	-0.352933	0.000005
C44	C	1.402860	-0.019599	0.333338
C45	C	1.736193	0.313734	0.666672
C46	C	1.067987	-0.439653	-0.000003
C47	C	1.401320	-0.106320	0.333331
C48	C	1.734653	0.227013	0.666664
C49	C	0.914934	-0.419797	-0.000002
C50	C	1.248267	-0.086464	0.333331
C51	C	1.581601	0.246870	0.666665
C52	C	0.916475	-0.333078	-0.000001
C53	C	1.249808	0.000255	0.333332
C54	C	1.583141	0.333589	0.666666
C55	C	0.993773	-0.299648	0.000007
C56	C	1.327107	0.033685	0.333340
C57	C	1.660440	0.367018	0.666674
C58	C	0.990693	-0.473088	-0.000001
C59	C	1.324026	-0.139755	0.333332
C60	C	1.657360	0.193579	0.666665
C61	C	0.989023	-0.567114	-0.000010
C62	C	1.322356	-0.233781	0.333324
C63	C	1.655690	0.099553	0.666657
C64	C	0.995444	-0.205616	0.000014
C65	C	1.328777	0.127717	0.333347
C66	C	1.662111	0.461050	0.666680
C67	C	0.509625	0.193245	-0.000004
C68	C	0.842959	0.526579	0.333329
C69	C	1.176292	0.859912	0.666662
C70	C	0.459076	0.152721	0.075184
C71	C	0.792409	0.486054	0.408517
C72	C	1.125743	0.819387	0.741851
C73	C	0.574690	0.115086	0.000004
C74	C	0.908023	0.448419	0.333338
C75	C	1.241357	0.781752	0.666671
C76	C	0.459089	0.152704	-0.075150
C77	C	0.792423	0.486037	0.258183
C78	C	1.125756	0.819371	0.591517
C79	C	0.409781	0.112181	0.000002
C80	C	0.743115	0.445514	0.333336
C81	C	1.076448	0.778848	0.666669
C82	C	0.525369	0.074582	0.075255
C83	C	0.858702	0.407915	0.408588
C84	C	1.192036	0.741249	0.741921
C85	C	0.525386	0.074577	-0.075147
C86	C	0.858719	0.407910	0.258186
C87	C	1.192052	0.741243	0.591520
C88	C	0.474869	0.033995	0.000059
C89	C	0.808203	0.367328	0.333393
C90	C	1.141536	0.700661	0.666726
C91	C	0.669689	0.116761	0.000006
C92	C	1.003023	0.450094	0.333340
C93	C	1.336356	0.783428	0.666673
C94	C	0.314785	0.110499	0.000007
C95	C	0.648118	0.443833	0.333340
C96	C	0.981452	0.777166	0.666674
C97	C	1.145808	0.107539	0.000008
C98	C	1.479142	0.440872	0.333341
C99	C	1.812475	0.774206	0.666674
C100	C	1.239056	0.109165	0.000003
C101	C	1.572390	0.442498	0.333337
C102	C	1.905723	0.775832	0.666670
C103	C	0.986059	0.265637	-0.000005
C104	C	1.319392	0.598970	0.333328
C105	C	1.652726	0.932304	0.666662
C106	C	0.987691	0.357932	-0.000012
C107	C	1.321024	0.691266	0.333321
C108	C	1.654358	1.024599	0.666654
N109	N	0.992227	0.113629	0.217002
N110	N	1.325560	0.446962	0.550335
N111	N	1.658893	0.780295	0.883668
N112	N	0.992246	0.113628	-0.216988
N113	N	1.325580	0.446962	0.116345
N114	N	1.658913	0.780295	0.449679
C115	C	1.049366	0.057117	0.452013
C116	C	1.382699	0.390451	0.785347
C117	C	1.716033	0.723784	1.118680
C118	C	1.049368	0.057115	0.547995
C119	C	1.382702	0.390449	0.881328
C120	C	1.716035	0.723782	1.214661
C121	C	0.935101	0.170142	0.547994
C122	C	1.268434	0.503476	0.881327
C123	C	1.601768	0.836809	1.214660
C124	C	0.935095	0.170140	0.452014
C125	C	1.268428	0.503473	0.785347
C126	C	1.601762	0.836806	1.118681
C127	C	0.992232	0.113628	0.404026
C128	C	1.325566	0.446962	0.737360
C129	C	1.658899	0.780295	1.070693
C130	C	0.992241	0.113629	0.595987
C131	C	1.325574	0.446962	0.929321
C132	C	1.658907	0.780295	1.262654
C133	C	0.992243	0.113627	0.700054
C134	C	1.325576	0.446960	1.033388
C135	C	1.658910	0.780294	1.366721
C136	C	0.992229	0.113629	0.299953
C137	C	1.325563	0.446962	0.633286
C138	C	1.658896	0.780295	0.966619
H139	H	1.132468	-0.325717	0.000010
H140	H	1.465801	0.007616	0.333343
H141	H	1.799135	0.340949	0.666676
H142	H	1.129673	-0.483034	-0.000006
H143	H	1.463006	-0.149701	0.333327
H144	H	1.796339	0.183632	0.666660
H145	H	0.430144	0.185729	-0.138707
H146	H	0.763477	0.519062	0.194627
H147	H	1.096810	0.852395	0.527960
H148	H	0.852000	-0.447026	-0.000007
H149	H	1.185334	-0.113693	0.333326
H150	H	1.518667	0.219641	0.666660
H151	H	0.525227	0.260572	0.000061
H152	H	0.858560	0.593905	0.333394
H153	H	1.191894	0.927238	0.666728
H154	H	0.854784	-0.289691	-0.000002
H155	H	1.188117	0.043642	0.333331
H156	H	1.521450	0.376975	0.666665
H157	H	1.095890	0.011101	0.412944
H158	H	1.429223	0.344434	0.746277
H159	H	1.762556	0.677768	1.079611
H160	H	0.430124	0.185728	0.138744
H161	H	0.763457	0.519061	0.472077
H162	H	1.096791	0.852395	0.805410
H163	H	1.095891	0.011098	0.587063
H164	H	1.429224	0.344431	0.920396
H165	H	1.762557	0.677765	1.253730
H166	H	0.554204	0.041593	0.138883
H167	H	0.887537	0.374926	0.472216
H168	H	1.220871	0.708260	0.805550
H169	H	0.888582	0.216154	0.587075
H170	H	1.221915	0.549487	0.920408
H171	H	1.555249	0.882821	1.253741
H172	H	0.459426	-0.033382	0.000108
H173	H	0.792759	0.299951	0.333441
H174	H	1.126092	0.633284	0.666775
H175	H	0.554346	0.041594	-0.138710
H176	H	0.887680	0.374928	0.194623
H177	H	1.221013	0.708261	0.527957
H178	H	0.888566	0.216158	0.412940
H179	H	1.221899	0.549491	0.746274
H180	H	1.555233	0.882825	1.079607
