data_functionalizedCrystal
_audit_creation_method	'MofGen! by Chris Wilmer'
_symmetry_space_group_name_H-M	'P1'
_symmetry_Int_Tables_number	1
_symmetry_cell_setting	triclinic
loop_
_symmetry_equiv_pos_as_xyz
  x,y,z
_cell_length_a	21.395362
_cell_length_b	12.759399
_cell_length_c	21.395356
_cell_angle_alpha	89.978636
_cell_angle_beta	89.964230
_cell_angle_gamma	90.030995
loop_
_atom_site_label
_atom_site_type_symbol
_atom_site_fract_x
_atom_site_fract_y
_atom_site_fract_z
Zn1	Zn	0.957877	-0.417869	-0.354604
Zn2	Zn	1.457877	0.082131	0.145396
Zn3	Zn	0.957823	-0.593555	-0.249834
Zn4	Zn	1.457823	-0.093555	0.250166
Zn5	Zn	0.853107	-0.417940	-0.249805
Zn6	Zn	1.353107	0.082060	0.250195
Zn7	Zn	0.853089	-0.593555	-0.354539
Zn8	Zn	1.353089	-0.093555	0.145461
O9	O	0.905474	-0.505730	-0.302196
O10	O	1.405474	-0.005730	0.197804
O11	O	1.045548	-0.441145	-0.340746
O12	O	1.545548	0.058855	0.159254
O13	O	0.943917	-0.570289	-0.162153
O14	O	1.443917	-0.070289	0.337847
O15	O	0.867035	-0.270909	-0.263722
O16	O	1.367035	0.229091	0.236278
O17	O	1.045508	-0.570221	-0.263772
O18	O	1.545508	-0.070221	0.236228
O19	O	0.944009	-0.270857	-0.340717
O20	O	1.444009	0.229143	0.159283
O21	O	0.866982	-0.441265	-0.162131
O22	O	1.366982	0.058735	0.337869
O23	O	0.765426	-0.441265	-0.263659
O24	O	1.265426	0.058735	0.236341
O25	O	0.867005	-0.570220	-0.442226
O26	O	1.367005	-0.070220	0.057774
O27	O	0.765414	-0.570289	-0.340607
O28	O	1.265414	-0.070289	0.159393
O29	O	0.943992	-0.441145	-0.442273
O30	O	1.443992	0.058855	0.057727
O31	O	0.943900	-0.740576	-0.263709
O32	O	1.443900	-0.240576	0.236291
O33	O	0.866953	-0.740576	-0.340635
O34	O	1.366953	-0.240576	0.159365
C35	C	0.742686	-0.505785	-0.302123
C36	C	1.242686	-0.005785	0.197877
C37	C	0.673045	-0.505834	-0.302107
C38	C	1.173045	-0.005834	0.197893
C39	C	0.905436	-0.778697	-0.302182
C40	C	1.405436	-0.278697	0.197818
C41	C	0.905476	-0.895474	-0.302196
C42	C	1.405476	-0.395474	0.197804
C43	C	0.640342	-0.573106	-0.342113
C44	C	1.140342	-0.073106	0.157887
C45	C	0.574906	-0.573081	-0.342141
C46	C	1.074906	-0.073081	0.157859
C47	C	0.542177	-0.505794	-0.302151
C48	C	1.042177	-0.005794	0.197849
C49	C	0.574888	-0.438509	-0.262142
C50	C	1.074888	0.061491	0.237858
C51	C	0.640322	-0.438529	-0.262120
C52	C	1.140322	0.061471	0.237880
C53	C	0.438459	-0.497342	-0.245746
C54	C	0.938459	0.002658	0.254254
C55	C	0.373026	-0.497329	-0.245767
C56	C	0.873026	0.002671	0.254233
C57	C	0.340356	-0.505725	-0.302221
C58	C	0.840356	-0.005725	0.197779
C59	C	0.373127	-0.514157	-0.358655
C60	C	0.873127	-0.014157	0.141345
C61	C	0.438561	-0.514177	-0.358632
C62	C	0.938561	-0.014177	0.141368
C63	C	0.471224	-0.505764	-0.302172
C64	C	0.971224	-0.005764	0.197828
C65	C	0.236700	-0.572973	-0.342261
C66	C	0.736700	-0.072973	0.157739
C67	C	0.171264	-0.572940	-0.342290
C68	C	0.671264	-0.072940	0.157710
C69	C	0.171246	-0.438374	-0.262285
C70	C	0.671246	0.061626	0.237715
C71	C	0.236682	-0.438402	-0.262262
C72	C	0.736682	0.061598	0.237738
C73	C	0.269405	-0.505707	-0.302249
C74	C	0.769405	-0.005707	0.197751
C75	C	0.945588	-0.950301	-0.262187
C76	C	1.445588	-0.450301	0.237813
C77	C	0.945629	-1.060025	-0.262208
C78	C	1.445629	-0.560025	0.237792
C79	C	0.865439	-1.060085	-0.342250
C80	C	1.365439	-0.560085	0.157750
C81	C	0.865403	-0.950363	-0.342232
C82	C	1.365403	-0.450363	0.157768
C83	C	1.019585	-1.209863	-0.239938
C84	C	1.519585	-0.709863	0.260062
C85	C	1.059692	-1.264694	-0.199919
C86	C	1.559692	-0.764694	0.300081
C87	C	1.069337	-1.229132	-0.138789
C88	C	1.569337	-0.729132	0.361211
C89	C	1.038867	-1.138741	-0.117667
C90	C	1.538867	-0.638741	0.382333
C91	C	0.998756	-1.083916	-0.157683
C92	C	1.498756	-0.583916	0.342317
C93	C	0.989122	-1.119476	-0.218821
C94	C	1.489122	-0.619476	0.281179
C95	C	0.791445	-0.800523	-0.364494
C96	C	1.291445	-0.300523	0.135506
C97	C	0.751331	-0.745696	-0.404508
C98	C	1.251331	-0.245696	0.095492
C99	C	0.741678	-0.781255	-0.465639
C100	C	1.241678	-0.281255	0.034361
C101	C	0.772137	-0.871650	-0.486759
C102	C	1.272137	-0.371650	0.013241
C103	C	0.812252	-0.926477	-0.446745
C104	C	1.312252	-0.426477	0.053255
C105	C	0.821905	-0.890910	-0.385615
C106	C	1.321905	-0.390910	0.114385
C107	C	1.068897	-0.505675	-0.302269
C108	C	1.568897	-0.005675	0.197731
C109	C	1.138539	-0.505651	-0.302300
C110	C	1.638539	-0.005651	0.197700
C111	C	0.905503	-0.505675	-0.465619
C112	C	1.405503	-0.005675	0.034381
C113	C	0.905515	-0.505651	-0.535260
C114	C	1.405515	-0.005651	-0.035260
C115	C	0.905530	-0.231697	-0.302224
C116	C	1.405530	0.268303	0.197776
C117	C	0.905553	-0.114920	-0.302236
C118	C	1.405553	0.385080	0.197764
C119	C	0.945645	-0.572614	-1.037068
C120	C	1.445645	-0.072614	-0.537068
C121	C	0.945634	-0.572647	-0.971633
C122	C	1.445634	-0.072647	-0.471633
C123	C	0.905575	-0.505484	-0.938899
C124	C	1.405575	-0.005484	-0.438899
C125	C	0.865512	-0.438303	-0.971606
C126	C	1.365512	0.061697	-0.471606
C127	C	0.865520	-0.438279	-1.037040
C128	C	1.365520	0.061721	-0.537040
C129	C	0.900634	-0.410868	-0.835238
C130	C	1.400634	0.089132	-0.335238
C131	C	0.900630	-0.410890	-0.769805
C132	C	1.400630	0.089110	-0.269805
C133	C	0.905546	-0.505559	-0.737078
C134	C	1.405546	-0.005559	-0.237078
C135	C	0.910479	-0.600208	-0.769792
C136	C	1.410479	-0.100208	-0.269792
C137	C	0.910487	-0.600184	-0.835227
C138	C	1.410487	-0.100184	-0.335227
C139	C	0.905561	-0.505503	-0.867947
C140	C	1.405561	-0.005503	-0.367947
C141	C	0.945591	-0.572778	-0.633427
C142	C	1.445591	-0.072778	-0.133427
C143	C	0.945575	-0.572813	-0.567990
C144	C	1.445575	-0.072813	-0.067990
C145	C	0.865457	-0.438459	-0.567964
C146	C	1.365457	0.061541	-0.067964
C147	C	0.865469	-0.438434	-0.633399
C148	C	1.365469	0.061566	-0.133399
C149	C	0.905540	-0.505591	-0.666127
C150	C	1.405540	-0.005591	-0.166127
C151	C	0.905481	-0.505709	-0.139408
C152	C	1.405481	-0.005709	0.360592
C153	C	0.905590	-0.505437	-0.069767
C154	C	1.405590	-0.005437	0.430233
H155	H	0.666981	-0.627910	-0.374675
H156	H	1.166981	-0.127910	0.125325
H157	H	0.263309	-0.383627	-0.229681
H158	H	0.763309	0.116373	0.270319
H159	H	0.832812	-1.104789	-0.374844
H160	H	1.332812	-0.604789	0.125156
C161	C	0.845763	-1.025908	-0.469982
C162	C	1.345763	-0.525908	0.030018
N163	N	0.871005	-1.100796	-0.487485
N164	N	1.371005	-0.600796	0.012515
H165	H	0.832895	-0.383620	-0.944949
H166	H	1.332895	0.116380	-0.444949
H167	H	1.084501	-1.338290	-0.217123
H168	H	1.584501	-0.838290	0.282877
C169	C	1.008982	-1.248986	-0.307186
C170	C	1.508982	-0.748986	0.192814
N171	N	1.000993	-1.278461	-0.357837
N172	N	1.500993	-0.778461	0.142163
C173	C	0.915886	-0.704353	-0.733798
C174	C	1.415886	-0.204353	-0.233798
N175	N	0.919958	-0.782792	-0.706684
N176	N	1.419958	-0.282792	-0.206684
H177	H	0.726533	-0.672087	-0.387308
H178	H	1.226533	-0.172087	0.112692
H179	H	0.896671	-0.333766	-0.861879
H180	H	1.396671	0.166234	-0.361879
C181	C	0.915905	-0.704297	-0.871210
C182	C	1.415905	-0.204297	-0.371210
N183	N	0.919982	-0.782718	-0.898312
N184	N	1.419982	-0.282718	-0.398312
H185	H	0.832855	-0.383727	-0.660023
H186	H	1.332855	0.116273	-0.160023
H187	H	0.799306	-0.771556	-0.314718
H188	H	1.299306	-0.271556	0.185282
C189	C	0.895203	-0.306775	-0.733826
C190	C	1.395203	0.193225	-0.233826
N191	N	0.891114	-0.228352	-0.706727
N192	N	1.391114	0.271648	-0.206727
H193	H	0.548235	-0.383722	-0.229583
H194	H	1.048235	0.116278	0.270417
C195	C	0.474389	-0.488109	-0.183638
C196	C	0.974389	0.011891	0.316362
N197	N	0.501450	-0.481157	-0.136860
N198	N	1.001450	0.018843	0.363140
H199	H	1.101994	-1.273783	-0.106205
H200	H	1.601994	-0.773783	0.393795
H201	H	0.832903	-0.383573	-1.063663
H202	H	1.332903	0.116427	-0.563663
H203	H	0.666949	-0.383745	-0.229542
H204	H	1.166949	0.116255	0.270458
C205	C	0.989662	-0.646662	-0.669429
C206	C	1.489662	-0.146662	-0.169429
N207	N	1.022856	-0.702315	-0.696544
N208	N	1.522856	-0.202315	-0.196544
H209	H	0.346348	-0.490470	-0.199815
H210	H	0.846348	0.009530	0.300185
C211	C	0.821389	-0.364582	-0.531960
C212	C	1.321389	0.135418	-0.031960
N213	N	0.788195	-0.308939	-0.504839
N214	N	1.288195	0.191061	-0.004839
H215	H	0.548274	-0.627861	-0.374722
H216	H	1.048274	-0.127861	0.125278
C217	C	0.697547	-0.720942	-0.509652
C218	C	1.197547	-0.220942	-0.009652
N219	N	0.664310	-0.675515	-0.542804
N220	N	1.164310	-0.175515	-0.042804
H221	H	0.764279	-0.900603	-0.536537
H222	H	1.264279	-0.400603	-0.036537
H223	H	0.978189	-0.627526	-0.541368
H224	H	1.478189	-0.127526	-0.041368
H225	H	0.346529	-0.520992	-0.404625
H226	H	0.846529	-0.020992	0.095375
C227	C	0.989674	-0.889927	-0.218150
C228	C	1.489674	-0.389927	0.281850
N229	N	1.022882	-0.844456	-0.184982
N230	N	1.522882	-0.344456	0.315018
H231	H	0.144638	-0.627719	-0.374872
H232	H	0.644638	-0.127719	0.125128
H233	H	0.978271	-0.627302	-1.063711
H234	H	1.478271	-0.127302	-0.563711
C235	C	0.272698	-0.646997	-0.386254
C236	C	0.772698	-0.146997	0.113746
N237	N	0.299809	-0.702751	-0.419392
N238	N	0.799809	-0.202751	0.080608
H239	H	0.978260	-0.627339	-0.945004
H240	H	1.478260	-0.127339	-0.445004
H241	H	0.144599	-0.383583	-0.229728
H242	H	0.644599	0.116417	0.270272
C243	C	0.965244	-0.984487	-0.134453
C244	C	1.465244	-0.484487	0.365547
N245	N	0.940007	-0.909591	-0.116956
N246	N	1.440007	-0.409591	0.383044
C247	C	0.474607	-0.523450	-0.420708
C248	C	0.974607	-0.023450	0.079292
N249	N	0.501757	-0.530433	-0.467465
N250	N	1.001757	-0.030433	0.032535
H251	H	1.046719	-1.109800	-0.067886
H252	H	1.546719	-0.609800	0.432114
