data_functionalizedCrystal
_audit_creation_method	'MofGen! by Chris Wilmer'
_symmetry_space_group_name_H-M	'P1'
_symmetry_Int_Tables_number	1
_symmetry_cell_setting	triclinic
loop_
_symmetry_equiv_pos_as_xyz
  x,y,z
_cell_length_a	15.711784
_cell_length_b	23.532407
_cell_length_c	14.185569
_cell_angle_alpha	76.924933
_cell_angle_beta	107.179161
_cell_angle_gamma	101.218739
loop_
_atom_site_label
_atom_site_type_symbol
_atom_site_fract_x
_atom_site_fract_y
_atom_site_fract_z
O1	O	1.124554	0.320615	-0.083510
O2	O	0.873265	0.277326	-0.083495
O3	O	1.006492	0.217644	-0.083484
O4	O	0.991328	0.380297	-0.083520
O5	O	1.045848	0.200016	0.083353
O6	O	0.912621	0.259698	0.083342
O7	O	1.163910	0.302987	0.083328
Cu8	Cu	1.041859	0.279733	0.098569
Cu9	Cu	0.995316	0.300580	-0.098736
O10	O	1.030684	0.362669	0.083317
C11	C	0.860800	0.261441	-0.000074
C12	C	0.765025	0.240363	-0.000068
C13	C	0.640762	0.161013	-0.000050
C14	C	0.730757	0.180825	-0.000055
C15	C	0.709302	0.280114	-0.000081
C16	C	0.619302	0.260311	-0.000080
C17	C	0.585040	0.200760	-0.000064
C18	C	0.563580	0.300059	-0.000094
C19	C	0.473590	0.280257	-0.000089
C20	C	0.439321	0.220708	-0.000069
C21	C	0.495050	0.180958	-0.000058
C22	C	0.597845	0.359609	-0.000104
C23	C	0.542123	0.399356	-0.000118
C24	C	0.452129	0.379555	-0.000119
C25	C	0.417861	0.320006	-0.000100
C26	C	0.396401	0.419304	-0.000130
C27	C	0.306411	0.399502	-0.000125
C28	C	0.327871	0.300204	-0.000094
C29	C	1.025784	0.187532	-0.000063
C30	C	1.024626	0.124068	-0.000055
C31	C	1.096173	-0.259853	-0.000114
C32	C	1.095093	-0.319481	-0.000122
O33	O	1.161422	-0.342153	-0.000163
N34	N	1.015893	-0.358904	-0.000117
C35	C	0.937765	-0.338695	-0.000114
O36	O	0.870300	-0.377702	-0.000111
C37	C	0.938844	-0.279067	-0.000114
C38	C	1.018052	-0.239648	-0.000109
C39	C	1.175374	-0.220435	-0.000110
C40	C	1.176454	-0.160811	-0.000101
C41	C	1.098333	-0.140606	-0.000095
C42	C	1.019132	-0.180024	-0.000099
C43	C	0.860715	-0.258859	-0.000118
C44	C	0.861801	-0.199226	-0.000119
C45	C	0.941009	-0.159807	-0.000114
C46	C	0.942090	-0.100196	-0.000084
N47	N	1.021290	-0.060773	-0.000089
C48	C	1.099412	-0.080978	-0.000095
C49	C	0.935505	-0.463916	-0.000117
C50	C	0.934427	-0.523544	-0.000110
C51	C	1.091755	-0.504326	-0.000119
C52	C	1.092834	-0.444698	-0.000119
C53	C	1.014705	-0.424494	-0.000122
C54	C	1.101673	0.044235	-0.000074
C55	C	1.102747	0.103863	-0.000061
C56	C	0.945418	0.084640	-0.000056
C57	C	0.944345	0.025017	-0.000065
C58	C	1.022479	0.004817	-0.000077
O59	O	0.875795	-0.077481	-0.000048
O60	O	1.166863	-0.041963	-0.000111
C61	C	1.176374	0.318873	-0.000095
C62	C	1.272149	0.339951	-0.000108
C63	C	1.011391	0.392782	-0.000106
C64	C	1.012547	0.456246	-0.000121
N65	N	1.074602	0.265071	0.237343
N66	N	0.962581	0.315239	-0.237510
C67	C	0.866384	0.358290	0.604976
C68	C	0.891192	0.347189	0.709999
C69	C	1.009187	0.294374	0.709970
C70	C	0.984386	0.305468	0.604944
C71	C	0.912985	0.337427	0.552455
C72	C	1.030987	0.284605	0.552424
C73	C	1.006191	0.295701	0.447407
C74	C	0.934794	0.327660	0.394911
C75	C	0.888189	0.348523	0.447439
C76	C	1.102393	0.252650	0.604914
C77	C	1.148993	0.231787	0.552394
C78	C	1.124194	0.242880	0.447376
C79	C	1.052797	0.274838	0.394880
C80	C	1.170799	0.222017	0.394848
C81	C	1.146003	0.233113	0.289831
C82	C	1.028001	0.285934	0.289863
H83	H	0.299971	0.251713	-0.000091
H84	H	1.240952	-0.128720	-0.000101
H85	H	1.155365	-0.520787	-0.000128
N86	N	1.243729	0.189369	0.448455
N87	N	1.285329	0.170742	0.401548
H88	H	1.336837	0.147684	0.439406
N89	N	1.127729	0.241314	0.712187
N90	N	1.205365	0.259681	0.759046
H91	H	1.223256	0.251675	0.834808
N92	N	0.605767	0.100182	-0.000047
N93	N	0.655524	0.064697	-0.000044
H94	H	0.630809	0.021737	-0.000042
N95	N	0.853516	-0.563801	-0.000091
N96	N	0.783776	-0.545745	-0.000080
H97	H	0.726629	-0.574174	-0.000071
N98	N	1.221933	0.199153	0.606030
N99	N	1.244072	0.189255	0.699793
H100	H	1.295588	0.166207	0.737674
H101	H	0.871881	-0.447472	-0.000110
H102	H	1.067325	0.268355	0.752718
N103	N	0.779808	-0.299120	-0.000141
N104	N	0.778835	-0.352359	-0.000152
H105	H	0.721690	-0.380794	-0.000170
N106	N	0.781981	-0.178598	-0.000133
N107	N	0.711271	-0.213803	-0.000144
H108	H	0.654897	-0.199236	-0.000155
N109	N	1.193505	0.211706	0.236192
N110	N	1.257178	0.183108	0.283068
H111	H	1.290690	0.167954	0.245185
H112	H	0.808236	0.384309	0.562237
N113	N	1.173745	-0.404436	-0.000100
N114	N	1.242880	-0.412102	0.070229
H115	H	1.300027	-0.383669	0.070243
N116	N	0.744309	0.340939	-0.000079
N117	N	0.808716	0.355638	0.070244
H118	H	0.833439	0.398597	0.070245
N119	N	0.863438	-0.015247	-0.000039
N120	N	0.793697	0.002802	-0.000018
H121	H	0.736554	-0.025630	-0.000003
H122	H	0.881815	0.101102	-0.000048
H123	H	0.366047	0.204585	-0.000055
H124	H	0.969852	0.311953	0.247125
H125	H	0.914609	0.336696	0.309400
N126	N	1.255188	-0.241068	-0.000088
N127	N	1.288734	-0.279626	0.070248
H128	H	1.345111	-0.294196	0.070274
N129	N	0.460027	0.120131	-0.000058
N130	N	0.395612	0.105440	-0.070380
H131	H	0.370875	0.062483	-0.070382
N132	N	0.689764	0.379838	-0.000133
N133	N	0.708547	0.418272	-0.070469
H134	H	0.773465	0.432559	-0.070492
N135	N	0.787668	0.140211	-0.000027
N136	N	0.757064	0.087043	-0.000002
H137	H	0.797258	0.058359	0.000023
H138	H	0.830040	0.374542	0.404700
N139	N	0.431390	0.480134	-0.000149
N140	N	0.381627	0.515617	-0.000163
H141	H	0.406336	0.558579	-0.000175
H142	H	0.261041	0.431868	-0.000132
N143	N	0.843572	0.368503	0.763633
N144	N	0.779823	0.397034	0.716751
H145	H	0.746191	0.412086	0.754629
N146	N	1.183669	0.144119	-0.000048
N147	N	1.253412	0.126067	-0.000053
H148	H	1.310563	0.154495	-0.000044
H149	H	1.165297	0.027797	-0.000088
N150	N	0.577141	0.460180	-0.000127
N151	N	0.657491	0.477854	-0.000128
H152	H	0.682222	0.520813	-0.000136
