data_functionalizedCrystal
_audit_creation_method	'MofGen! by Chris Wilmer'
_symmetry_space_group_name_H-M	'P1'
_symmetry_Int_Tables_number	1
_symmetry_cell_setting	triclinic
loop_
_symmetry_equiv_pos_as_xyz
  x,y,z
_cell_length_a	13.897448
_cell_length_b	15.297621
_cell_length_c	15.296720
_cell_angle_alpha	91.615729
_cell_angle_beta	80.353909
_cell_angle_gamma	99.681015
loop_
_atom_site_label
_atom_site_type_symbol
_atom_site_fract_x
_atom_site_fract_y
_atom_site_fract_z
Zn1	Zn	-0.750768	-1.253449	0.726645
Zn2	Zn	-0.889665	-1.278721	0.580163
Zn3	Zn	-0.696575	-1.132323	0.554882
Zn4	Zn	-0.880178	-1.106948	0.701287
O5	O	-0.804296	-1.192860	0.640744
O6	O	-0.795844	-1.379381	0.728407
O7	O	-0.845342	-1.280498	0.454235
O8	O	-0.568796	-1.148434	0.577698
O9	O	-0.897891	-1.397948	0.620788
O10	O	-0.608611	-1.237424	0.703892
O11	O	-0.703479	-1.172940	0.435661
O12	O	-0.694279	-1.006378	0.553109
O13	O	-0.881721	-1.105185	0.827225
O14	O	-0.829172	-0.987735	0.660673
O15	O	-0.786644	-1.212819	0.845855
O16	O	-1.023375	-1.255892	0.596198
O17	O	-1.016404	-1.129691	0.685187
C18	C	-0.754816	-0.965273	0.601396
C19	C	-0.733674	-0.867906	0.584584
C20	C	-1.054893	-1.192801	0.640708
C21	C	-1.162121	-1.192850	0.640735
C22	C	-0.955360	-0.554778	0.760868
C23	C	-0.975230	-0.646259	0.776661
C24	C	-0.914843	-0.701675	0.728644
C25	C	-0.834582	-0.665601	0.664829
C26	C	-0.814714	-0.574112	0.649029
C27	C	-0.774197	-0.721009	0.616805
C28	C	-0.693936	-0.684936	0.552990
C29	C	-0.674072	-0.593455	0.537194
C30	C	-0.734459	-0.538039	0.585211
C31	C	-0.794065	-0.812499	0.632605
C32	C	-0.653419	-0.831833	0.520766
C33	C	-0.633549	-0.740352	0.504973
C34	C	-1.358445	-1.192933	0.640806
C35	C	-1.249196	-1.192884	0.640769
C36	C	-0.552729	-1.192941	0.640804
C37	C	-0.445527	-1.192975	0.640829
C38	C	-0.839169	-1.153352	0.869211
C39	C	-0.854030	-1.136516	0.966570
C40	C	-0.853962	-0.421338	0.680239
C41	C	-0.875105	-0.518705	0.697050
C42	C	-0.769501	-1.232265	0.413175
C43	C	-0.754405	-1.249271	0.315846
C44	C	-0.697923	-1.313222	1.279810
C45	C	-0.683963	-1.329046	1.188337
C46	C	-0.726478	-1.280915	1.132891
C47	C	-0.782956	-1.216957	1.168926
C48	C	-0.796923	-1.201137	1.260408
C49	C	-0.825479	-1.168830	1.113490
C50	C	-0.881957	-1.104872	1.149525
C51	C	-0.895921	-1.089054	1.240998
C52	C	-0.853406	-1.137185	1.296445
C53	C	-0.811512	-1.184650	1.022007
C54	C	-0.910512	-1.072565	1.002606
C55	C	-0.924472	-1.056741	1.094078
H56	H	-0.931026	-0.776163	0.741507
H57	H	-1.040580	-0.675624	0.828617
H58	H	-0.945134	-1.033374	0.957461
N59	N	-0.652078	-1.365127	1.339616
H60	H	-0.577777	-1.354302	1.321368
H61	H	-0.678312	-1.430441	1.334491
H62	H	-0.859414	-0.841861	0.684564
H63	H	-0.608727	-0.564089	0.485223
H64	H	-0.765526	-1.236724	0.992677
N65	N	-0.711425	-1.297978	1.034231
H66	H	-0.669194	-1.345796	1.019816
H67	H	-0.677295	-1.241663	1.001878
N68	N	-0.868434	-1.120093	1.395103
H69	H	-0.832916	-1.160280	1.424754
H70	H	-0.941471	-1.132337	1.419856
H71	H	-0.568200	-0.710968	0.453014
H72	H	-0.637982	-1.381122	1.159005
N73	N	-0.588284	-0.891592	0.468966
H74	H	-0.613046	-0.955020	0.488660
H75	H	-0.518045	-0.873240	0.479948
N76	N	-0.985372	-0.987756	1.132961
H77	H	-1.043601	-1.016770	1.177063
H78	H	-1.010120	-0.959674	1.083915
H79	H	-0.718283	-0.463546	0.572357
N80	N	-1.020493	-0.495013	0.812644
H81	H	-0.995729	-0.431586	0.792947
H82	H	-1.018622	-0.500189	0.877991
H83	H	-0.941918	-1.036983	1.270336
