data_functionalizedCrystal
_audit_creation_method	'MofGen! by Chris Wilmer'
_symmetry_space_group_name_H-M	'P1'
_symmetry_Int_Tables_number	1
_symmetry_cell_setting	triclinic
loop_
_symmetry_equiv_pos_as_xyz
  x,y,z
_cell_length_a	13.897449
_cell_length_b	16.959453
_cell_length_c	16.959447
_cell_angle_alpha	89.968936
_cell_angle_beta	89.985709
_cell_angle_gamma	90.021267
loop_
_atom_site_label
_atom_site_type_symbol
_atom_site_fract_x
_atom_site_fract_y
_atom_site_fract_z
Zn1	Zn	1.474626	-0.314639	-0.446904
Zn2	Zn	1.974626	0.185361	0.053096
Zn3	Zn	1.474532	-0.446831	-0.314724
Zn4	Zn	1.974532	0.053169	0.185276
Zn5	Zn	1.313333	-0.314674	-0.314742
Zn6	Zn	1.813333	0.185326	0.185258
Zn7	Zn	1.313290	-0.446782	-0.446862
Zn8	Zn	1.813290	0.053218	0.053138
O9	O	1.393945	-0.380732	-0.380808
O10	O	1.893945	0.119268	0.119192
O11	O	1.609595	-0.332181	-0.429380
O12	O	2.109595	0.167819	0.070620
O13	O	1.453127	-0.429336	-0.204115
O14	O	1.953127	0.070664	0.295885
O15	O	1.334786	-0.204058	-0.332298
O16	O	1.834786	0.295942	0.167702
O17	O	1.609526	-0.429302	-0.332268
O18	O	2.109526	0.070698	0.167732
O19	O	1.453287	-0.204033	-0.429397
O20	O	1.953287	0.295967	0.070603
O21	O	1.334695	-0.332240	-0.204128
O22	O	1.834695	0.167760	0.295872
O23	O	1.178346	-0.332192	-0.332258
O24	O	1.678346	0.167808	0.167742
O25	O	1.334713	-0.429218	-0.557479
O26	O	1.834713	0.070782	-0.057479
O27	O	1.178314	-0.429252	-0.429326
O28	O	1.678314	0.070748	0.070674
O29	O	1.453246	-0.332133	-0.557509
O30	O	1.953246	0.167867	-0.057509
O31	O	1.453085	-0.557436	-0.332227
O32	O	1.953085	-0.057436	0.167773
O33	O	1.334622	-0.557400	-0.429309
O34	O	1.834622	-0.057400	0.070691
C35	C	1.143331	-0.380721	-0.380790
C36	C	1.643331	0.119279	0.119210
C37	C	1.036117	-0.380736	-0.380801
C38	C	1.536117	0.119264	0.119199
C39	C	0.839822	-0.380738	-0.380822
C40	C	1.339822	0.119262	0.119178
C41	C	0.949054	-0.380734	-0.380808
C42	C	1.449054	0.119266	0.119192
C43	C	1.393865	-0.586098	-0.380779
C44	C	1.893865	-0.086098	0.119221
C45	C	1.393919	-0.673954	-0.380793
C46	C	1.893919	-0.173954	0.119207
C47	C	1.455728	-1.045358	-0.431463
C48	C	1.955728	-0.545358	0.068537
C49	C	1.332432	-1.045502	-0.330270
C50	C	1.832432	-0.545502	0.169730
C51	C	1.332396	-0.962956	-0.330252
C52	C	1.832396	-0.462956	0.169748
C53	C	1.394026	-0.921607	-0.380841
C54	C	1.894026	-0.421607	0.119159
C55	C	1.455692	-0.962805	-0.431448
C56	C	1.955692	-0.462805	0.068552
C57	C	1.270725	-0.921752	-0.279652
C58	C	1.770725	-0.421752	0.220348
C59	C	1.270686	-0.839202	-0.279632
C60	C	1.770686	-0.339202	0.220368
C61	C	1.332321	-0.797851	-0.330218
C62	C	1.832321	-0.297851	0.169782
C63	C	1.393990	-0.839054	-0.380826
C64	C	1.893990	-0.339054	0.119174
C65	C	1.455620	-0.797705	-0.431415
C66	C	1.955620	-0.297705	0.068585
C67	C	1.517295	-0.838906	-0.482020
C68	C	2.017295	-0.338906	0.017980
C69	C	1.517327	-0.921455	-0.482033
C70	C	2.017327	-0.421455	0.017967
C71	C	1.332289	-0.715303	-0.330204
C72	C	1.832289	-0.215303	0.169796
C73	C	1.455584	-0.715152	-0.431400
C74	C	1.955584	-0.215152	0.068600
C75	C	1.645538	-0.380743	-0.380826
C76	C	2.145538	0.119257	0.119174
C77	C	1.752752	-0.380748	-0.380834
C78	C	2.252752	0.119252	0.119166
C79	C	1.393985	-0.380666	-0.586976
C80	C	1.893985	0.119334	-0.086976
C81	C	1.394002	-0.380638	-0.674833
C82	C	1.894002	0.119362	-0.174833
C83	C	1.394052	-0.174563	-0.380854
C84	C	1.894052	0.325437	0.119146
C85	C	1.394098	-0.086707	-0.380874
C86	C	1.894098	0.413293	0.119126
C87	C	1.332403	-0.431103	-1.046295
C88	C	1.832403	0.068897	-0.546295
C89	C	1.455832	-0.330007	-1.046322
C90	C	1.955832	0.169993	-0.546322
C91	C	1.455807	-0.330024	-0.963776
C92	C	1.955807	0.169976	-0.463776
C93	C	1.394079	-0.380582	-0.922486
C94	C	1.894079	0.119418	-0.422486
C95	C	1.332378	-0.431123	-0.963742
C96	C	1.832378	0.068877	-0.463742
C97	C	1.517514	-0.279490	-0.922514
C98	C	2.017514	0.220510	-0.422514
C99	C	1.517492	-0.279505	-0.839963
C100	C	2.017492	0.220495	-0.339963
C101	C	1.455759	-0.330059	-0.798672
C102	C	1.955759	0.169941	-0.298672
C103	C	1.394054	-0.380602	-0.839932
C104	C	1.894054	0.119398	-0.339932
C105	C	1.332326	-0.431159	-0.798642
C106	C	1.832326	0.068841	-0.298642
C107	C	1.270616	-0.481698	-0.839901
C108	C	1.770616	0.018302	-0.339901
C109	C	1.270645	-0.481677	-0.922450
C110	C	1.770645	0.018323	-0.422450
C111	C	1.455730	-0.330081	-0.716123
C112	C	1.955730	0.169919	-0.216123
C113	C	1.332301	-0.431179	-0.716089
C114	C	1.832301	0.068821	-0.216089
C115	C	1.393961	-0.380740	-0.175442
C116	C	1.893961	0.119260	0.324558
C117	C	1.394131	-0.380545	-0.087585
C118	C	1.894131	0.119455	0.412415
H119	H	1.505775	-0.681491	-0.472593
H120	H	2.005775	-0.181491	0.027407
Cl121	Cl	1.254826	-0.494632	-1.098161
Cl122	Cl	1.754826	0.005368	-0.598161
Cl123	Cl	1.595116	-0.215942	-0.974425
Cl124	Cl	2.095116	0.284058	-0.474425
H125	H	1.567538	-0.955008	-0.523234
H126	H	2.067538	-0.455008	-0.023234
Cl127	Cl	1.193079	-0.545210	-0.974323
Cl128	Cl	1.693079	-0.045210	-0.474323
Cl129	Cl	1.254945	-1.097484	-0.266688
Cl130	Cl	1.754945	-0.597484	0.233312
Cl131	Cl	1.193152	-0.787414	-0.216017
Cl132	Cl	1.693152	-0.287414	0.283983
Cl133	Cl	1.533435	-0.266458	-1.098231
Cl134	Cl	2.033435	0.233542	-0.598231
Cl135	Cl	1.595065	-0.215969	-0.788102
Cl136	Cl	2.095065	0.284031	-0.288102
Cl137	Cl	1.533308	-0.266557	-0.664258
Cl138	Cl	2.033308	0.233443	-0.164258
H139	H	1.220547	-0.955425	-0.238467
H140	H	1.720547	-0.455425	0.261533
Cl141	Cl	1.254760	-0.663511	-0.266594
Cl142	Cl	1.754760	-0.163511	0.233406
H143	H	1.505944	-1.078908	-0.472662
H144	H	2.005944	-0.578908	0.027338
Cl145	Cl	1.254691	-0.494737	-0.664188
Cl146	Cl	1.754691	0.005263	-0.164188
Cl147	Cl	1.594760	-0.786915	-0.545622
Cl148	Cl	2.094760	-0.286915	-0.045622
H149	H	1.220362	-0.522866	-0.806272
H150	H	1.720362	-0.022866	-0.306272
