data_functionalizedCrystal
_audit_creation_method	'MofGen! by Chris Wilmer'
_symmetry_space_group_name_H-M	'P1'
_symmetry_Int_Tables_number	1
_symmetry_cell_setting	triclinic
loop_
_symmetry_equiv_pos_as_xyz
  x,y,z
_cell_length_a	14.971482
_cell_length_b	13.448316
_cell_length_c	14.971486
_cell_angle_alpha	90.002892
_cell_angle_beta	83.613368
_cell_angle_gamma	90.004360
loop_
_atom_site_label
_atom_site_type_symbol
_atom_site_fract_x
_atom_site_fract_y
_atom_site_fract_z
O1	O	1.186948	0.082679	0.116544
O2	O	1.686948	0.582679	0.616544
O3	O	0.926547	0.082684	0.130506
O4	O	1.426547	0.582684	0.630506
O5	O	1.063727	0.082675	-0.006675
O6	O	1.563727	0.582675	0.493325
O7	O	1.049768	0.082689	0.253725
O8	O	1.549768	0.582689	0.753725
O9	O	1.063713	-0.082709	-0.006674
O10	O	1.563713	0.417291	0.493326
O11	O	0.926533	-0.082699	0.130508
O12	O	1.426533	0.417301	0.630508
O13	O	1.186934	-0.082704	0.116545
O14	O	1.686934	0.417296	0.616545
Cu15	Cu	1.056732	-0.097803	0.123527
Cu16	Cu	1.556732	0.402197	0.623527
Cu17	Cu	1.056749	0.097783	0.123525
Cu18	Cu	1.556749	0.597783	0.623525
O19	O	1.049754	-0.082695	0.253727
O20	O	1.549754	0.417305	0.753727
C21	C	0.893215	-0.000007	0.129883
C22	C	1.393215	0.499993	0.629883
C23	C	0.793918	-0.000005	0.128014
C24	C	1.293918	0.499995	0.628014
C25	C	0.747266	-0.090157	0.127134
C26	C	1.247266	0.409843	0.627134
C27	C	0.653968	-0.090158	0.125363
C28	C	1.153968	0.409842	0.625363
C29	C	0.607322	-0.000007	0.124479
C30	C	1.107322	0.499993	0.624479
C31	C	0.653981	0.090152	0.125356
C32	C	1.153981	0.590152	0.625356
C33	C	0.747279	0.090152	0.127120
C34	C	1.247279	0.590152	0.627120
C35	C	0.459519	0.090146	0.121680
C36	C	0.959519	0.590146	0.621680
C37	C	0.366215	0.090146	0.119918
C38	C	0.866215	0.590146	0.619918
C39	C	0.366208	-0.090165	0.119924
C40	C	0.866208	0.409835	0.619924
C41	C	0.459506	-0.090165	0.121688
C42	C	0.959506	0.409835	0.621688
C43	C	0.506158	-0.000006	0.122567
C44	C	1.006158	0.499994	0.622567
C45	C	1.063096	-0.000017	-0.039999
C46	C	1.563096	0.499983	0.460001
C47	C	1.061225	-0.000016	-0.139296
C48	C	1.561225	0.499984	0.360704
C49	C	1.220266	-0.000011	0.117168
C50	C	1.720266	0.499989	0.617168
C51	C	1.319563	-0.000006	0.119038
C52	C	1.819563	0.499994	0.619038
N53	N	1.056728	-0.235367	0.123527
N54	N	1.556728	0.264633	0.623527
C55	C	1.002458	-0.712617	0.069178
C56	C	1.502458	-0.212617	0.569178
C57	C	1.002455	-0.608514	0.069175
C58	C	1.502455	-0.108514	0.569175
C59	C	1.056750	-0.556448	0.123517
C60	C	1.556750	-0.056448	0.623517
C61	C	1.111059	-0.608492	0.177859
C62	C	1.611059	-0.108492	0.677859
C63	C	1.111066	-0.712593	0.177857
C64	C	1.611066	-0.212593	0.677857
C65	C	1.111038	-0.391512	0.177863
C66	C	1.611038	0.108488	0.677863
C67	C	1.111030	-0.287403	0.177867
C68	C	1.611030	0.212597	0.677867
C69	C	1.002427	-0.287432	0.069181
C70	C	1.502427	0.212568	0.569181
C71	C	1.002435	-0.391533	0.069178
C72	C	1.502435	0.108467	0.569178
C73	C	1.056742	-0.443570	0.123522
C74	C	1.556742	0.056430	0.623522
N75	N	1.056760	0.235347	0.123517
N76	N	1.556760	0.735347	0.623517
C77	C	1.141814	-0.000018	-0.196522
C78	C	1.641814	0.499982	0.303478
C79	C	1.140051	-0.000008	-0.289822
C80	C	1.640051	0.499992	0.210178
C81	C	1.057698	-0.000003	-0.325893
C82	C	1.557698	0.499997	0.174107
C83	C	0.977102	0.000002	-0.268659
C84	C	1.477102	0.500002	0.231341
C85	C	0.978866	-0.000001	-0.175362
C86	C	1.478866	0.499999	0.324638
C87	C	0.973431	0.000006	-0.463122
C88	C	1.473431	0.500006	0.036878
C89	C	0.971667	0.000007	-0.556426
C90	C	1.471667	0.500007	-0.056426
C91	C	1.134616	-0.000002	-0.577582
C92	C	1.634616	0.499998	-0.077582
C93	C	1.136380	-0.000004	-0.484284
C94	C	1.636380	0.499996	0.015716
C95	C	1.055784	-0.000001	-0.427057
C96	C	1.555784	0.499999	0.072943
C97	C	1.050385	-0.000001	0.287051
C98	C	1.550385	0.499999	0.787051
C99	C	1.052256	0.000005	0.386348
C100	C	1.552256	0.500005	0.886348
H101	H	0.785237	-0.163569	0.127862
H102	H	1.285237	0.336431	0.627862
H103	H	1.155263	-0.433877	0.222113
H104	H	1.655263	0.066123	0.722113
H105	H	1.205675	-0.000012	-0.336413
H106	H	1.705675	0.499988	0.163587
C107	C	0.942728	-0.769879	0.009396
C108	C	1.442728	-0.269879	0.509396
N109	N	0.897739	-0.813006	-0.035636
N110	N	1.397739	-0.313006	0.464364
H111	H	1.155285	-0.754960	0.222105
H112	H	1.655285	-0.254960	0.722105
H113	H	0.913242	0.000001	-0.128768
H114	H	1.413242	0.500001	0.371232
H115	H	0.615996	0.163555	0.124629
H116	H	1.115996	0.663555	0.624629
C117	C	0.942714	-0.551278	0.009401
C118	C	1.442714	-0.051278	0.509401
N119	N	0.897714	-0.508170	-0.035623
N120	N	1.397714	-0.008170	0.464377
H121	H	1.208876	-0.000029	-0.167161
H122	H	1.708876	0.499971	0.332839
C123	C	0.602652	-0.189333	0.124416
C124	C	1.102652	0.310667	0.624416
N125	N	0.564001	-0.264035	0.123710
N126	N	1.064001	0.235965	0.623710
H127	H	0.904607	-0.000005	-0.585792
H128	H	1.404607	0.499995	-0.085792
H129	H	0.497481	-0.163574	0.122414
H130	H	0.997481	0.336426	0.622414
C131	C	0.798595	0.189326	0.128090
C132	C	1.298595	0.689326	0.628090
N133	N	0.837246	0.264028	0.128818
N134	N	1.337246	0.764028	0.628818
C135	C	0.314890	-0.189341	0.118951
C136	C	0.814890	0.310659	0.618951
N137	N	0.276232	-0.264038	0.118220
N138	N	0.776232	0.235962	0.618220
C139	C	0.942618	-0.230190	0.009473
C140	C	1.442618	0.269810	0.509473
N141	N	0.897542	-0.187071	-0.035468
N142	N	1.397542	0.312929	0.464532
C143	C	0.314907	0.189317	0.118941
C144	C	0.814907	0.689317	0.618941
N145	N	0.276262	0.264015	0.118204
N146	N	0.776262	0.764015	0.618204
H147	H	0.958218	-0.433922	0.024932
H148	H	1.458218	0.066078	0.524932
C149	C	0.884771	0.000005	-0.400173
C150	C	1.384771	0.500005	0.099827
N151	N	0.817993	-0.000004	-0.352761
N152	N	1.317993	0.499996	0.147239
C153	C	1.170763	-0.230134	0.237641
C154	C	1.670763	0.269866	0.737641
N155	N	1.215756	-0.186998	0.282662
N156	N	1.715756	0.313002	0.782662
H157	H	0.497500	0.163563	0.122396
H158	H	0.997500	0.663563	0.622396
H159	H	1.155271	-0.566092	0.222102
H160	H	1.655271	-0.066092	0.722102
H161	H	1.203439	-0.000016	-0.454919
H162	H	1.703439	0.499984	0.045081
C163	C	1.223273	0.000002	-0.640534
C164	C	1.723273	0.500002	-0.140534
N165	N	1.290046	0.000004	-0.687953
N166	N	1.790046	0.500004	-0.187953
H167	H	0.910049	0.000013	-0.298036
H168	H	1.410049	0.500013	0.201964
