data_functionalizedCrystal
_audit_creation_method	'MofGen! by Chris Wilmer'
_symmetry_space_group_name_H-M	'P1'
_symmetry_Int_Tables_number	1
_symmetry_cell_setting	triclinic
loop_
_symmetry_equiv_pos_as_xyz
  x,y,z
_cell_length_a	11.792254
_cell_length_b	16.053934
_cell_length_c	16.992695
_cell_angle_alpha	92.750093
_cell_angle_beta	92.566590
_cell_angle_gamma	92.582275
loop_
_atom_site_label
_atom_site_type_symbol
_atom_site_fract_x
_atom_site_fract_y
_atom_site_fract_z
O1	O	-1.511217	0.069453	0.110841
O2	O	-1.011217	0.569453	0.610841
O3	O	-1.181784	0.069450	0.121911
O4	O	-0.681784	0.569450	0.621911
O5	O	-1.345180	0.069445	0.002228
O6	O	-0.845180	0.569445	0.502228
O7	O	-1.347821	0.069458	0.230525
O8	O	-0.847821	0.569458	0.730525
O9	O	-1.354124	-0.069412	-0.004337
O10	O	-0.854124	0.430588	0.495663
O11	O	-1.190727	-0.069407	0.115346
O12	O	-0.690727	0.430593	0.615346
O13	O	-1.520161	-0.069404	0.104276
O14	O	-1.020161	0.430596	0.604276
Zn15	Zn	-1.356864	-0.091452	0.108769
Zn16	Zn	-0.856864	0.408548	0.608769
Zn17	Zn	-1.345080	0.091498	0.117419
Zn18	Zn	-0.845080	0.591498	0.617419
O19	O	-1.356764	-0.069399	0.223960
O20	O	-0.856764	0.430601	0.723960
C21	C	-1.143908	0.000021	0.117931
C22	C	-0.643908	0.500021	0.617931
C23	C	-1.017724	0.000019	0.115844
C24	C	-0.517724	0.500019	0.615844
C25	C	-0.915249	0.000021	0.114148
C26	C	-0.415249	0.500021	0.614148
C27	C	-0.786689	0.000019	0.112027
C28	C	-0.286689	0.500019	0.612027
N29	N	-1.364914	-0.216310	0.102865
N30	N	-0.864914	0.283690	0.602865
C31	C	-0.558037	0.000023	0.108256
C32	C	-0.058037	0.500023	0.608256
C33	C	-0.684221	0.000018	0.110343
C34	C	-0.184221	0.500018	0.610343
C35	C	-1.295373	-0.260022	0.153772
C36	C	-0.795373	0.239978	0.653772
C37	C	-1.301037	-0.347428	0.149639
C38	C	-0.801037	0.152572	0.649639
C39	C	-1.376238	-0.391119	0.094595
C40	C	-0.876238	0.108881	0.594595
C41	C	-1.445787	-0.347400	0.043686
C42	C	-0.945787	0.152600	0.543686
C43	C	-1.440128	-0.259997	0.047824
C44	C	-0.940128	0.240003	0.547824
C45	C	-1.400929	-0.652522	0.076544
C46	C	-0.900929	-0.152522	0.576544
C47	C	-1.406580	-0.739932	0.072409
C48	C	-0.906580	-0.239932	0.572409
C49	C	-1.261831	-0.739953	0.178363
C50	C	-0.761831	-0.239953	0.678363
C51	C	-1.256174	-0.652548	0.182493
C52	C	-0.756174	-0.152548	0.682493
C53	C	-1.325727	-0.608837	0.131587
C54	C	-0.825727	-0.108837	0.631587
N55	N	-1.382027	-0.480461	0.090368
N56	N	-0.882027	0.019539	0.590368
N57	N	-1.319943	-0.519496	0.135818
N58	N	-0.819943	-0.019496	0.635818
C59	C	-1.346254	0.000016	-0.030282
C60	C	-0.846254	0.500016	0.469718
C61	C	-1.336116	0.000017	-0.117370
C62	C	-0.836116	0.500017	0.382630
N63	N	-1.337039	0.216356	0.123316
N64	N	-0.837039	0.716356	0.623316
C65	C	-1.433934	0.000017	-0.167191
C66	C	-0.933934	0.500017	0.332809
C67	C	-1.424401	0.000024	-0.249018
C68	C	-0.924401	0.500024	0.250982
C69	C	-1.317050	0.000026	-0.281022
C70	C	-0.817050	0.500026	0.218978
C71	C	-1.219225	0.000029	-0.231194
C72	C	-0.719225	0.500029	0.268806
C73	C	-1.228758	0.000027	-0.149369
C74	C	-0.728758	0.500027	0.350631
C75	C	-1.277536	0.000037	-0.524789
C76	C	-0.777536	0.500037	-0.024789
C77	C	-1.268010	0.000037	-0.606621
C78	C	-0.768010	0.500037	-0.106621
C79	C	-1.473187	0.000034	-0.624439
C80	C	-0.973187	0.500034	-0.124439
C81	C	-1.482712	0.000027	-0.542611
C82	C	-0.982712	0.500027	-0.042611
C83	C	-1.384887	0.000034	-0.492790
C84	C	-0.884887	0.500034	0.007210
N85	N	-1.307303	0.000032	-0.364663
N86	N	-0.807303	0.500032	0.135337
N87	N	-1.394634	0.000035	-0.409151
N88	N	-0.894634	0.500035	0.090849
C89	C	-1.355690	0.000031	0.256469
C90	C	-0.855690	0.500031	0.756469
C91	C	-1.365828	0.000037	0.343557
C92	C	-0.865828	0.500037	0.843557
H93	H	-1.234132	-0.224455	0.198591
H94	H	-0.734132	0.275545	0.698591
C95	C	-1.169934	0.000030	-0.469997
C96	C	-0.669934	0.500030	0.030003
H97	H	-1.104638	0.000020	-0.500780
H98	H	-0.604638	0.500020	-0.000780
H99	H	-1.166258	0.048450	-0.435411
H100	H	-0.666258	0.548450	0.064589
H101	H	-1.172511	-0.048401	-0.440003
H102	H	-0.672511	0.451599	0.059997
C103	C	-1.516619	-0.211913	-0.008176
C104	C	-1.016619	0.288087	0.491824
H105	H	-1.562210	-0.250451	-0.041556
H106	H	-1.062210	0.249549	0.458444
H107	H	-1.564230	-0.177807	0.021878
H108	H	-1.064230	0.322193	0.521878
H109	H	-1.470604	-0.177827	-0.039410
H110	H	-0.970604	0.322173	0.460590
H111	H	-1.180589	0.000025	-0.632676
H112	H	-0.680589	0.500025	-0.132676
H113	H	-1.149105	0.000027	-0.108804
H114	H	-0.649105	0.500027	0.391196
H115	H	-1.194939	-0.616976	0.227314
H116	H	-0.694939	-0.116976	0.727314
C117	C	-1.101141	0.000028	-0.266397
C118	C	-0.601141	0.500028	0.233603
H119	H	-1.109472	0.000020	-0.322266
H120	H	-0.609472	0.500020	0.177734
H121	H	-1.057431	0.048449	-0.247035
H122	H	-0.557431	0.548449	0.252965
H123	H	-1.063677	-0.048402	-0.251616
H124	H	-0.563677	0.451598	0.248384
H125	H	-1.467821	-0.775501	0.027583
H126	H	-0.967821	-0.275501	0.527583
H127	H	-1.507023	-0.382979	-0.001129
H128	H	-1.007023	0.117021	0.498871
C129	C	-1.600797	0.000036	-0.507412
C130	C	-1.100797	0.500036	-0.007412
H131	H	-1.657690	0.000046	-0.548804
H132	H	-1.157690	0.500046	-0.048804
H133	H	-1.611905	-0.048384	-0.478152
H134	H	-1.111905	0.451616	0.021848
H135	H	-1.605654	0.048466	-0.473572
H136	H	-1.105654	0.548466	0.026428
C137	C	-1.185341	-0.788036	0.234362
C138	C	-0.685341	-0.288036	0.734362
H139	H	-1.199485	-0.846348	0.224021
H140	H	-0.699485	-0.346348	0.724021
H141	H	-1.107866	-0.773727	0.226169
H142	H	-0.607866	-0.273727	0.726169
H143	H	-1.201501	-0.773706	0.287451
H144	H	-0.701501	-0.273706	0.787451
H145	H	-1.244412	-0.383018	0.191091
H146	H	-0.744412	0.116982	0.691091
C147	C	-1.477423	-0.604451	0.020542
C148	C	-0.977423	-0.104451	0.520542
H149	H	-1.523007	-0.642992	-0.012837
H150	H	-1.023007	-0.142992	0.487163
H151	H	-1.525039	-0.570344	0.050591
H152	H	-1.025039	-0.070344	0.550591
H153	H	-1.431405	-0.570365	-0.010692
H154	H	-0.931405	-0.070365	0.489308
C155	C	-1.552019	0.000012	-0.131990
C156	C	-1.052019	0.500012	0.368010
H157	H	-1.543691	0.000003	-0.076122
H158	H	-1.043691	0.500003	0.423878
H159	H	-1.589491	0.048434	-0.146769
H160	H	-1.089491	0.548434	0.353231
H161	H	-1.595721	-0.048417	-0.151356
H162	H	-1.095721	0.451583	0.348644
C163	C	-1.532001	0.000016	-0.303819
C164	C	-1.032001	0.500016	0.196181
H165	H	-1.597301	0.000003	-0.273040
H166	H	-1.097301	0.500003	0.226960
H167	H	-1.529440	0.048438	-0.333819
H168	H	-1.029440	0.548438	0.166181
H169	H	-1.535657	-0.048413	-0.338401
H170	H	-1.035657	0.451587	0.161599
C171	C	-1.580784	0.000039	-0.679242
C172	C	-1.080784	0.500039	-0.179242
H173	H	-1.559735	0.000048	-0.732559
H174	H	-1.059735	0.500048	-0.232559
H175	H	-1.627621	-0.048381	-0.671788
H176	H	-1.127621	0.451619	-0.171788
H177	H	-1.621370	0.048470	-0.667197
H178	H	-1.121370	0.548470	-0.167197
