data_functionalizedCrystal
_audit_creation_method	'MofGen! by Chris Wilmer'
_symmetry_space_group_name_H-M	'P1'
_symmetry_Int_Tables_number	1
_symmetry_cell_setting	triclinic
loop_
_symmetry_equiv_pos_as_xyz
  x,y,z
_cell_length_a	19.121102
_cell_length_b	12.594515
_cell_length_c	12.594509
_cell_angle_alpha	90.026612
_cell_angle_beta	87.540104
_cell_angle_gamma	92.417425
loop_
_atom_site_label
_atom_site_type_symbol
_atom_site_fract_x
_atom_site_fract_y
_atom_site_fract_z
Zn1	Zn	1.073720	0.493233	-0.671199
Zn2	Zn	1.573720	0.993233	-0.171199
Zn3	Zn	1.073623	0.671237	-0.493220
Zn4	Zn	1.573623	1.171237	0.006780
Zn5	Zn	0.956266	0.485674	-0.485645
Zn6	Zn	1.456266	0.985674	0.014355
Zn7	Zn	0.956230	0.663562	-0.663570
Zn8	Zn	1.456230	1.163562	-0.163570
O9	O	1.014960	0.578426	-0.578408
O10	O	1.514960	1.078426	-0.078408
O11	O	1.171992	0.523220	-0.653953
O12	O	1.671992	1.023220	-0.153953
O13	O	1.058031	0.646670	-0.343267
O14	O	1.558031	1.146670	0.156733
O15	O	0.971903	0.337734	-0.510282
O16	O	1.471903	0.837734	-0.010282
O17	O	1.171921	0.653999	-0.523192
O18	O	1.671921	1.153999	-0.023192
O19	O	1.058195	0.343288	-0.646608
O20	O	1.558195	0.843288	-0.146608
O21	O	0.971809	0.510337	-0.337702
O22	O	1.471809	1.010337	0.162298
O23	O	0.857977	0.502896	-0.502884
O24	O	1.357977	1.002896	-0.002884
O25	O	0.971841	0.640919	-0.813529
O26	O	1.471841	1.140919	-0.313529
O27	O	0.857951	0.633590	-0.633605
O28	O	1.357951	1.133590	-0.133605
O29	O	1.058160	0.515779	-0.819135
O30	O	1.558160	1.015779	-0.319135
O31	O	1.057995	0.819161	-0.515794
O32	O	1.557995	1.319161	-0.015794
O33	O	0.971747	0.813522	-0.640950
O34	O	1.471747	1.313522	-0.140950
C35	C	1.014876	0.854962	-0.578391
C36	C	1.514876	1.354962	-0.078391
C37	C	1.014904	0.973269	-0.578423
C38	C	1.514904	1.473269	-0.078423
C39	C	0.832480	0.566590	-0.566595
C40	C	1.332480	1.066590	-0.066595
C41	C	0.754414	0.561553	-0.561566
C42	C	1.254414	1.061553	-0.061566
C43	C	0.968016	1.110259	-0.646461
C44	C	1.468016	1.610259	-0.146461
C45	C	1.032054	1.043494	-0.676710
C46	C	1.532054	1.543494	-0.176710
C47	C	0.950872	1.038463	-0.548222
C48	C	1.450872	1.538463	-0.048222
C49	C	1.079067	1.117298	-0.608771
C50	C	1.579067	1.617298	-0.108771
C51	C	0.997842	1.112270	-0.480235
C52	C	1.497842	1.612270	0.019765
C53	C	1.061924	1.045540	-0.510449
C54	C	1.561924	1.545540	-0.010449
C55	C	0.717743	0.627334	-0.627156
C56	C	1.217743	1.127334	-0.127156
C57	C	0.644392	0.622586	-0.622436
C58	C	1.144392	1.122586	-0.122436
C59	C	0.607713	0.552062	-0.552120
C60	C	1.107713	1.052062	-0.052120
C61	C	0.644389	0.486274	-0.486528
C62	C	1.144389	0.986274	0.013472
C63	C	0.717739	0.491017	-0.491254
C64	C	1.217739	0.991017	0.008746
C65	C	0.386244	0.534327	-0.534456
C66	C	0.886244	1.034327	-0.034456
C67	C	0.312889	0.529592	-0.529733
C68	C	0.812889	1.029592	-0.029733
C69	C	0.312897	0.665903	-0.665644
C70	C	0.812897	1.165903	-0.165644
C71	C	0.386248	0.670644	-0.670359
C72	C	0.886248	1.170644	-0.170359
C73	C	0.422918	0.604852	-0.604770
C74	C	0.922918	1.104852	-0.104770
C75	C	0.532737	0.547210	-0.547292
C76	C	1.032737	1.047210	-0.047292
C77	C	0.497893	0.609700	-0.609605
C78	C	0.997893	1.109700	-0.109605
C79	C	1.198153	0.590309	-0.590269
C80	C	1.698153	1.090309	-0.090269
C81	C	1.276218	0.595373	-0.595323
C82	C	1.776218	1.095373	-0.095323
C83	C	1.015035	1.300810	-0.578451
C84	C	1.515035	1.800810	-0.078451
C85	C	1.014994	1.182502	-0.578470
C86	C	1.514994	1.682502	-0.078470
C87	C	1.015007	0.578336	-0.856032
C88	C	1.515007	1.078336	-0.356032
C89	C	1.015027	0.578298	-0.974339
C90	C	1.515027	1.078298	-0.474339
C91	C	0.968093	0.646322	-1.040545
C92	C	1.468093	1.146322	-0.540545
C93	C	1.032176	0.676477	-1.115474
C94	C	1.532176	1.176477	-0.615474
C95	C	0.950994	0.548081	-1.110213
C96	C	1.450994	1.048081	-0.610213
C97	C	1.079144	0.608506	-1.047712
C98	C	1.579144	1.108506	-0.547712
C99	C	0.997919	0.480062	-1.042442
C100	C	1.497919	0.980062	-0.542442
C101	C	1.062046	0.510183	-1.117342
C102	C	1.562046	1.010183	-0.617342
C103	C	1.014954	0.578442	-0.301867
C104	C	1.514954	1.078442	0.198133
C105	C	1.015070	0.578189	-0.183570
C106	C	1.515070	1.078189	0.316430
H107	H	0.928375	1.138776	-0.704029
H108	H	1.428375	1.638776	-0.204029
Cl109	Cl	0.975467	1.159002	-0.352037
Cl110	Cl	1.475467	1.659002	0.147963
H111	H	0.747602	0.684766	-0.684411
H112	H	1.247602	1.184766	-0.184411
H113	H	0.527760	0.667115	-0.666860
H114	H	1.027760	1.167115	-0.166860
Cl115	Cl	0.598294	0.705287	-0.704896
Cl116	Cl	1.098294	1.205287	-0.204896
Cl117	Cl	0.486620	0.458553	-0.458897
Cl118	Cl	0.986620	0.958553	0.041103
Cl119	Cl	0.763840	0.408314	-0.408797
Cl120	Cl	1.263840	0.908314	0.091203
Cl121	Cl	0.906861	0.735280	-0.988636
Cl122	Cl	1.406861	1.235280	-0.488636
H123	H	1.046669	0.759507	-1.147517
H124	H	1.546669	1.259507	-0.647517
H125	H	1.046527	1.013252	-0.759765
H126	H	1.546527	1.513252	-0.259765
H127	H	0.896683	1.003965	-0.522659
H128	H	1.396683	1.503965	-0.022659
H129	H	0.614520	0.428847	-0.429279
H130	H	1.114520	0.928847	0.070721
Cl131	Cl	1.162801	0.648053	-1.005323
Cl132	Cl	1.662801	1.148053	-0.505323
Cl133	Cl	0.432353	0.759310	-0.758757
Cl134	Cl	0.932353	1.259310	-0.258757
Cl135	Cl	0.266794	0.748609	-0.748091
Cl136	Cl	0.766794	1.248609	-0.248091
Cl137	Cl	1.123422	0.421302	-1.168961
Cl138	Cl	1.623422	0.921302	-0.668961
H139	H	0.283028	0.472150	-0.472480
H140	H	0.783028	0.972150	0.027520
Cl141	Cl	0.975513	0.351904	-0.992927
Cl142	Cl	1.475513	0.851904	-0.492927
Cl143	Cl	0.432334	0.451613	-0.452004
Cl144	Cl	0.932334	0.951613	0.047996
Cl145	Cl	0.867362	0.508691	-1.152813
Cl146	Cl	1.367362	1.008691	-0.652813
H147	H	1.101660	1.017223	-0.452934
H148	H	1.601660	1.517223	0.047066
Cl149	Cl	1.162756	1.170350	-0.648388
Cl150	Cl	1.662756	1.670350	-0.148388
