data_functionalizedCrystal
_audit_creation_method	'MofGen! by Chris Wilmer'
_symmetry_space_group_name_H-M	'P1'
_symmetry_Int_Tables_number	1
_symmetry_cell_setting	triclinic
loop_
_symmetry_equiv_pos_as_xyz
  x,y,z
_cell_length_a	16.704479
_cell_length_b	21.606444
_cell_length_c	21.606444
_cell_angle_alpha	59.998659
_cell_angle_beta	90.001740
_cell_angle_gamma	63.428624
loop_
_atom_site_label
_atom_site_type_symbol
_atom_site_fract_x
_atom_site_fract_y
_atom_site_fract_z
Zr1	Zr	0.735415	0.735826	-0.110417
O2	O	0.613525	0.855272	-0.204407
O3	O	0.772776	0.609673	-0.081604
O4	O	0.772774	0.738796	-0.210727
O5	O	0.613534	0.726146	0.026570
O6	O	0.898397	0.748769	-0.215713
O7	O	0.613527	0.726149	-0.075283
O8	O	0.898401	0.517791	0.015264
O9	O	0.613530	0.957123	-0.204407
O10	O	0.882466	0.671488	-0.073037
O11	O	0.788720	0.664043	0.006696
O12	O	0.788718	0.816069	-0.145329
O13	O	0.694971	0.808624	-0.065596
Zr14	Zr	0.935779	0.751725	0.044075
Zr15	Zr	0.935769	0.751731	-0.118370
Zr16	Zr	0.735425	0.735820	0.052028
Zr17	Zr	0.735422	0.898266	-0.110418
Zr18	Zr	0.935771	0.589285	0.044076
O19	O	0.898417	0.877878	0.015262
O20	O	0.898403	0.877887	-0.215714
O21	O	0.613540	0.855264	0.026570
O22	O	1.057668	0.632279	0.138065
O23	O	1.057654	0.632287	-0.092911
O24	O	0.772791	0.609664	0.149372
O25	O	1.057660	0.761406	-0.092912
O26	O	0.898419	0.748755	0.144385
O27	O	0.772796	0.738783	0.149371
O28	O	1.057666	0.761402	0.008941
O29	O	0.772785	0.969765	-0.210729
O30	O	0.898409	0.517786	0.144387
O31	O	1.057664	0.530428	0.138065
O32	O	1.057656	0.530433	0.008943
O33	O	0.613538	0.957118	-0.075285
O34	O	0.772793	0.969760	-0.081606
O35	O	0.882476	0.671482	0.078988
O36	O	0.976222	0.678927	-0.000746
O37	O	0.882473	0.823508	-0.073038
O38	O	0.788727	0.816063	0.006695
C39	C	0.835587	0.540588	-0.033169
C40	C	0.835584	0.471628	-0.033169
C41	C	0.884545	0.052207	-0.074792
C42	C	0.884538	0.117007	-0.074794
C43	C	0.835601	0.145518	-0.033174
C44	C	0.786659	0.109231	0.008446
C45	C	0.786661	0.044436	0.008444
C46	C	0.786649	0.370541	0.008454
C47	C	0.786653	0.435338	0.008454
C48	C	0.884527	0.443112	-0.074785
C49	C	0.884528	0.378317	-0.074787
C50	C	0.835583	0.342039	-0.033170
C51	C	0.835590	0.271777	-0.033169
C52	C	0.835599	0.215775	-0.033171
C53	C	0.584984	0.723881	-0.023223
C54	C	0.499929	0.717129	-0.019847
C55	C	0.428977	0.632150	0.022641
C56	C	0.508898	0.638489	0.019473
C57	C	0.411029	0.789437	-0.056004
C58	C	0.331109	0.783098	-0.052835
C59	C	0.340087	0.704452	-0.013511
C60	C	0.260164	0.698114	-0.010338
C61	C	0.162298	0.849061	-0.085819
C62	C	0.242219	0.855400	-0.088987
C63	C	1.086209	0.763670	-0.043119
C64	C	1.171265	0.770422	-0.046495
C65	C	0.835584	0.743783	-0.236365
C66	C	0.835580	0.743786	-0.305327
C67	C	0.835606	0.946963	-0.033172
C68	C	0.835609	1.015923	-0.033173
C69	C	0.786643	0.819255	-0.375462
C70	C	0.786651	0.819253	-0.440257
C71	C	0.835591	0.743781	-0.434916
C72	C	0.884533	0.668306	-0.364774
C73	C	0.884530	0.668310	-0.299981
C74	C	0.884548	0.668292	-0.626078
C75	C	0.884545	0.668295	-0.690878
C76	C	0.786669	0.819236	-0.766354
C77	C	0.786666	0.819239	-0.701561
C78	C	0.835612	0.743765	-0.631425
C79	C	0.835604	0.743768	-0.561167
C80	C	0.835594	0.743777	-0.505172
C81	C	0.835609	0.743768	0.170023
C82	C	0.835614	0.743765	0.238985
C83	C	1.086200	0.560482	-0.043117
C84	C	1.171252	0.498274	-0.046493
C85	C	0.835600	0.540580	0.170025
C86	C	0.835601	0.471617	0.238987
C87	C	1.086213	0.560474	0.160077
C88	C	1.171269	0.498264	0.225664
C89	C	0.584981	0.927077	-0.226419
C90	C	0.499924	0.989288	-0.292006
C91	C	0.584994	0.927069	-0.023225
C92	C	0.499941	0.989277	-0.019849
C93	C	0.835593	0.946971	-0.236367
C94	C	0.835592	1.015934	-0.305329
C95	C	1.162254	0.465177	-0.085820
C96	C	1.242162	0.406734	-0.089007
C97	C	1.331068	0.381385	-0.052861
C98	C	1.340064	0.414488	-0.013532
C99	C	1.260157	0.472934	-0.010351
C100	C	0.884541	0.443115	0.309115
C101	C	0.884539	0.378326	0.373919
C102	C	0.835601	0.342037	0.368594
C103	C	0.786655	0.370545	0.298459
C104	C	0.786653	0.435337	0.233656
C105	C	1.260156	0.472936	0.214843
C106	C	1.340083	0.414492	0.276462
C107	C	1.331122	0.381372	0.348901
C108	C	1.242226	0.406706	0.359720
C109	C	1.162301	0.465153	0.298102
C110	C	0.411038	1.014623	-0.281185
C111	C	0.331110	1.073088	-0.342804
C112	C	0.340071	1.106210	-0.415243
C113	C	0.428967	1.080873	-0.426062
C114	C	0.508893	1.022414	-0.364444
C115	C	0.508939	1.022381	0.019471
C116	C	0.429031	1.080842	0.022640
C117	C	0.340126	1.106193	-0.013508
C118	C	0.331130	1.073087	-0.052833
C119	C	0.411037	1.014632	-0.056006
C120	C	0.884540	1.052203	-0.299980
C121	C	0.884557	1.116994	-0.364772
C122	C	0.835621	1.145518	-0.434913
C123	C	0.786672	1.109241	-0.440261
C124	C	0.786661	1.044448	-0.375469
H125	H	0.746797	0.458552	0.042346
O126	O	1.269843	0.508654	0.136720
H127	H	1.235789	0.493510	0.106648
H128	H	0.275068	1.153792	-0.010919
H129	H	0.746811	0.340989	0.294134
O130	O	0.401318	0.978929	-0.098416
H131	H	0.471813	0.934025	-0.094559
O132	O	1.269866	0.508617	0.032082
H133	H	1.345114	0.481158	0.056686
H134	H	0.746785	0.880713	-0.379819
H135	H	0.924377	0.472660	-0.108674
H136	H	0.924389	1.028990	-0.242874
O137	O	0.232598	0.940199	-0.131413
H138	H	0.193807	0.975212	-0.106973
O139	O	0.066420	0.927053	-0.124819
H140	H	0.012352	0.909436	-0.116015
H141	H	0.924386	0.606856	-0.360430
O142	O	1.417335	0.318325	0.415356
H143	H	1.417284	0.259278	0.449573
H144	H	0.924385	0.146550	-0.108684
O145	O	0.937305	0.586911	-0.224331
H146	H	0.971329	0.534429	-0.231500
H147	H	0.924400	0.355123	0.431019
H148	H	0.746798	0.341008	0.042343
O149	O	0.733852	1.005340	-0.381242
H150	H	0.699820	1.036072	-0.440901
H151	H	0.835611	0.289280	0.421366
H152	H	1.412459	0.393871	0.267640
O153	O	0.235237	1.100433	-0.091821
H154	H	0.181193	1.146636	-0.082997
O155	O	0.937350	1.156116	-0.358997
H156	H	0.971360	1.125402	-0.299336
O157	O	1.232566	0.370970	0.437852
H158	H	1.303081	0.326064	0.478874
H159	H	0.581274	0.579613	0.048915
H160	H	0.746803	0.458535	0.176558
H161	H	0.924400	0.028995	-0.108680
O162	O	0.269843	0.613293	0.032073
H163	H	0.235762	0.606803	-0.006637
O164	O	0.733876	0.900644	-0.707326
H165	H	0.742088	0.887966	-0.650487
O166	O	0.937323	0.482253	0.314868
H167	H	0.971340	0.451546	0.374525
H168	H	1.396126	0.333793	-0.055457
H169	H	0.835637	1.198277	-0.487664
H170	H	0.258735	1.093707	-0.333981
H171	H	1.089928	0.485767	0.306923
H172	H	0.581323	1.001744	0.048913
H173	H	0.403723	0.987657	-0.222207
H174	H	0.746830	1.132476	-0.497378
O175	O	0.253862	1.169272	-0.481701
H176	H	0.190552	1.181318	-0.462000
O177	O	0.438628	1.116594	-0.504194
H178	H	0.368112	1.161491	-0.545216
H179	H	0.746808	0.132452	0.042331
H180	H	0.581266	1.001786	-0.373263
O181	O	0.733867	0.900651	-0.515904
H182	H	0.699826	0.953130	-0.508732
H183	H	0.436374	1.107787	0.054666
H184	H	0.924401	0.606833	-0.686521
O185	O	0.937302	0.347575	-0.119685
H186	H	1.012517	0.324033	-0.099750
O187	O	0.733866	0.005307	0.053321
H188	H	0.699836	0.036016	0.082263
O189	O	1.066368	0.492520	-0.124817
H190	H	1.073551	0.459689	-0.152705
O191	O	1.232450	0.371029	-0.131419
H192	H	1.157202	0.398467	-0.156004
O193	O	0.438651	0.547331	0.065050
H194	H	0.477460	0.512353	0.124494
O195	O	0.401354	0.874257	-0.098561
H196	H	0.471864	0.866513	-0.094739
O197	O	1.435957	0.387137	0.025460
H198	H	1.490001	0.340927	0.016644
H199	H	0.746818	0.880691	-0.823468
O200	O	0.937325	0.586892	-0.550436
H201	H	0.971344	0.534413	-0.557610
