data_functionalizedCrystal
_audit_creation_method	'MofGen! by Chris Wilmer'
_symmetry_space_group_name_H-M	'P1'
_symmetry_Int_Tables_number	1
_symmetry_cell_setting	triclinic
loop_
_symmetry_equiv_pos_as_xyz
  x,y,z
_cell_length_a	8.634740
_cell_length_b	8.559649
_cell_length_c	9.130313
_cell_angle_alpha	89.997262
_cell_angle_beta	89.996881
_cell_angle_gamma	85.174486
loop_
_atom_site_label
_atom_site_type_symbol
_atom_site_fract_x
_atom_site_fract_y
_atom_site_fract_z
O1	O	1.985469	0.511630	-0.121790
O2	O	1.541598	0.468727	-0.121792
O3	O	1.802639	0.263597	-0.121789
O4	O	1.724428	0.716760	-0.121793
O5	O	1.802624	0.263588	0.121810
O6	O	1.541583	0.468718	0.121807
O7	O	1.985454	0.511620	0.121809
Cu8	Cu	1.763517	0.490168	0.144050
Cu9	Cu	1.763535	0.490179	-0.144033
O10	O	1.724413	0.716751	0.121806
C11	C	1.485291	0.459004	0.000007
C12	C	1.317539	0.430026	0.000005
C13	C	1.808558	0.204975	0.000007
C14	C	1.826201	0.030311	-0.000001
C15	C	2.041761	0.521344	0.000007
C16	C	2.209512	0.550322	-0.000001
C17	C	1.718493	0.775373	0.000006
C18	C	1.700851	0.950037	0.000005
N19	N	1.763516	0.490161	0.346673
N20	N	1.763549	0.490176	-0.346656
C21	C	1.879134	0.399380	0.423326
C22	C	1.879148	0.399382	0.576663
C23	C	1.647920	0.580961	0.576680
C24	C	1.647900	0.580949	0.423346
H25	H	1.245360	0.675483	0.000011
C26	C	2.006333	0.299526	0.660983
C27	C	2.133521	0.199695	0.576643
C28	C	2.260710	0.099832	0.660963
C29	C	2.260712	0.099801	0.829625
C30	C	2.133519	0.199636	0.913975
C31	C	2.006330	0.299499	0.829654
H32	H	2.133524	0.199714	0.451781
H33	H	2.354867	0.025928	0.598521
H34	H	2.354865	0.025877	0.892044
H35	H	2.133516	0.199617	1.038837
H36	H	1.912174	0.373403	0.892097
C37	C	1.989431	-0.057355	0.000007
C38	C	2.039239	-0.169527	0.126511
C39	C	2.202466	-0.257192	0.126519
C40	C	2.315883	-0.232686	0.000023
C41	C	2.266077	-0.120510	-0.126489
C42	C	2.102850	-0.032844	-0.126497
H43	H	1.955279	-0.187672	0.220158
H44	H	2.239335	-0.340233	0.220172
H45	H	2.436713	-0.297582	0.000029
H46	H	2.350037	-0.102365	-0.220137
H47	H	2.065981	0.050197	-0.220151
H48	H	1.281685	0.304857	-0.000035
H49	H	1.973273	0.325452	0.360903
H50	H	1.553790	0.654881	0.639122
H51	H	1.580036	0.014934	0.000009
H52	H	1.553743	0.654874	0.360931
