data_functionalizedCrystal
_audit_creation_method	'MofGen! by Chris Wilmer'
_symmetry_space_group_name_H-M	'P1'
_symmetry_Int_Tables_number	1
_symmetry_cell_setting	triclinic
loop_
_symmetry_equiv_pos_as_xyz
  x,y,z
_cell_length_a	16.120530
_cell_length_b	12.645330
_cell_length_c	16.120297
_cell_angle_alpha	87.125115
_cell_angle_beta	89.871860
_cell_angle_gamma	87.108294
loop_
_atom_site_label
_atom_site_type_symbol
_atom_site_fract_x
_atom_site_fract_y
_atom_site_fract_z
Zn1	Zn	1.247519	-0.537082	0.534581
Zn2	Zn	1.254495	-0.705845	0.395529
Zn3	Zn	1.115507	-0.519169	0.388499
Zn4	Zn	1.108451	-0.704868	0.527498
O5	O	1.181493	-0.616741	0.461527
O6	O	1.364812	-0.567375	0.522042
O7	O	1.241930	-0.673993	0.278231
O8	O	1.133052	-0.373201	0.407899
O9	O	1.369937	-0.691364	0.419881
O10	O	1.230041	-0.386362	0.515225
O11	O	1.139816	-0.536843	0.273066
O12	O	0.998204	-0.535896	0.401031
O13	O	1.121027	-0.689700	0.644804
O14	O	0.993020	-0.672329	0.503153
O15	O	1.223200	-0.566428	0.650008
O16	O	1.235089	-0.854059	0.413013
O17	O	1.127791	-0.853342	0.509970
C18	C	0.965439	-0.602064	0.450561
C19	C	0.873009	-0.595812	0.445890
C20	C	0.703778	-0.584372	0.437368
C21	C	0.660046	-0.649192	0.485747
C22	C	0.565880	-0.642827	0.481005
C23	C	0.797952	-0.590736	0.442108
C24	C	1.181453	-0.892167	0.461505
C25	C	1.181510	-1.010002	0.461528
C26	C	1.248914	-1.177958	0.400396
C27	C	1.249115	-1.055422	0.400564
C28	C	1.200830	-1.061367	0.550384
C29	C	1.201356	-1.183979	0.550068
C30	C	1.094716	-1.169992	0.434665
C31	C	1.095237	-1.047295	0.432721
C32	C	1.398391	-0.631476	0.472536
C33	C	1.490820	-0.637756	0.477228
C34	C	1.170548	-0.629953	0.678422
C35	C	1.165884	-0.635584	0.770849
C36	C	1.181556	-0.340242	0.461568
C37	C	1.181582	-0.222415	0.461586
C38	C	1.192444	-0.603507	0.245479
C39	C	1.197269	-0.597589	0.153060
C40	C	1.157338	-0.645837	0.940074
C41	C	1.205813	-0.587338	0.983840
C42	C	1.201058	-0.593044	1.078003
C43	C	1.162092	-0.640133	0.845903
H44	H	0.670499	-0.524104	0.392392
C45	C	1.027011	-1.208691	0.494789
C46	C	0.953908	-1.268288	0.461838
C47	C	0.886210	-1.306993	0.521966
C48	C	0.891615	-1.286102	0.615044
C49	C	0.964720	-1.226503	0.648000
C50	C	1.032418	-1.187797	0.587872
H51	H	0.949905	-1.283755	0.392932
H52	H	0.832093	-1.351112	0.497569
H53	H	0.841501	-1.314754	0.659553
H54	H	0.968723	-1.211035	0.716906
H55	H	1.086535	-1.143678	0.612269
H56	H	1.250884	-0.532970	0.950591
C57	C	0.705000	-0.730626	0.546508
C58	C	0.654425	-0.805722	0.602550
C59	C	0.699383	-0.887156	0.663306
C60	C	0.794916	-0.893494	0.668020
C61	C	0.845496	-0.818395	0.611977
C62	C	0.800538	-0.736962	0.551220
H63	H	0.583701	-0.801033	0.599062
H64	H	0.661939	-0.942749	0.704793
H65	H	0.828196	-0.953776	0.712996
H66	H	0.916220	-0.823085	0.615465
H67	H	0.837982	-0.681369	0.509733
H68	H	1.112270	-0.700201	0.973321
H69	H	1.237542	-1.020427	0.334818
H70	H	1.313002	-1.213986	0.418372
C71	C	1.233556	-1.211159	0.311334
C72	C	1.151215	-1.177303	0.267037
C73	C	1.135853	-1.210514	0.177973
C74	C	1.202832	-1.277580	0.133206
C75	C	1.285179	-1.311440	0.177503
C76	C	1.300541	-1.278229	0.266567
H77	H	1.101628	-1.127653	0.300176
H78	H	1.074894	-1.185448	0.145182
H79	H	1.191460	-1.302165	0.067276
H80	H	1.334767	-1.361090	0.144364
H81	H	1.361500	-1.303295	0.299358
C82	C	1.336150	-1.022885	0.425108
C83	C	1.405687	-1.108454	0.444620
C84	C	1.492724	-1.075920	0.469170
C85	C	1.510225	-0.957816	0.474207
C86	C	1.440687	-0.872239	0.454694
C87	C	1.353649	-0.904774	0.430144
H88	H	1.392733	-1.195889	0.440892
H89	H	1.544201	-1.139270	0.483614
H90	H	1.574656	-0.933732	0.492380
H91	H	1.453640	-0.784805	0.458423
H92	H	1.302172	-0.841424	0.415700
H93	H	1.264719	-1.218021	0.572354
C94	C	1.137672	-1.224096	0.614091
C95	C	1.064661	-1.287591	0.585864
C96	C	1.000987	-1.327707	0.649893
C97	C	1.010324	-1.304329	0.742149
C98	C	1.083338	-1.240830	0.770381
C99	C	1.147012	-1.200714	0.706352
H100	H	1.057746	-1.304900	0.517567
H101	H	0.946937	-1.374713	0.628994
H102	H	0.963188	-1.334025	0.789547
H103	H	1.090253	-1.223521	0.838678
H104	H	1.201062	-1.153709	0.727251
C105	C	1.136343	-1.021927	0.613890
C106	C	1.043755	-1.041811	0.602049
C107	C	0.979267	-1.002368	0.665552
C108	C	1.007367	-0.943040	0.740897
C109	C	1.099960	-0.923153	0.752741
C110	C	1.164448	-0.962596	0.689238
H111	H	1.022949	-1.085732	0.546271
H112	H	0.910723	-1.017091	0.656784
H113	H	0.959629	-0.913842	0.787906
H114	H	1.120765	-0.879232	0.808519
H115	H	1.232991	-0.947874	0.698006
C116	C	1.285429	-1.027219	0.580873
C117	C	1.355557	-1.111358	0.602142
C118	C	1.440159	-1.077212	0.632625
C119	C	1.454632	-0.958928	0.641839
C120	C	1.384502	-0.874782	0.620569
C121	C	1.299900	-0.908928	0.590086
H122	H	1.344845	-1.198926	0.595322
H123	H	1.492073	-1.139504	0.648371
H124	H	1.517259	-0.933652	0.664404
H125	H	1.395214	-0.787214	0.627388
H126	H	1.247985	-0.846636	0.574340
C127	C	1.069823	-1.204687	0.348338
C128	C	1.128062	-1.281081	0.301184
C129	C	1.103180	-1.315777	0.214855
C130	C	1.020060	-1.274080	0.175679
C131	C	0.961816	-1.197682	0.222834
C132	C	0.986697	-1.162986	0.309163
H133	H	1.189597	-1.311952	0.330184
H134	H	1.146297	-1.372332	0.179948
H135	H	1.001641	-1.299764	0.111773
H136	H	0.900280	-1.166811	0.193834
H137	H	0.943581	-1.106431	0.344070
C138	C	1.075444	-1.001134	0.344354
C139	C	0.997051	-0.928312	0.328407
C140	C	0.977263	-0.882142	0.240041
C141	C	1.035868	-0.908794	0.167622
C142	C	1.114266	-0.981620	0.183567
C143	C	1.134054	-1.027790	0.271933
H144	H	0.953664	-0.908579	0.382018
H145	H	0.919227	-0.828231	0.228238
H146	H	1.021220	-0.874616	0.102209
H147	H	1.157653	-1.001353	0.129957
H148	H	1.192090	-1.081701	0.283736
H149	H	1.042724	-1.015933	0.473662
