data_functionalizedCrystal
_audit_creation_method	'MofGen! by Chris Wilmer'
_symmetry_space_group_name_H-M	'P1'
_symmetry_Int_Tables_number	1
_symmetry_cell_setting	triclinic
loop_
_symmetry_equiv_pos_as_xyz
  x,y,z
_cell_length_a	13.897448
_cell_length_b	19.805407
_cell_length_c	13.897441
_cell_angle_alpha	90.024326
_cell_angle_beta	89.969401
_cell_angle_gamma	89.983323
loop_
_atom_site_label
_atom_site_type_symbol
_atom_site_fract_x
_atom_site_fract_y
_atom_site_fract_z
Zn1	Zn	-0.384010	-1.034798	-0.545474
Zn2	Zn	-0.545332	-1.034724	-0.384175
Zn3	Zn	-0.384050	-0.921607	-0.384182
Zn4	Zn	-0.545262	-0.921594	-0.545418
O5	O	-0.464663	-0.978181	-0.464812
O6	O	-0.405423	-1.129505	-0.524098
O7	O	-0.523983	-1.019693	-0.249194
O8	O	-0.249063	-0.936658	-0.405604
O9	O	-0.523945	-1.129451	-0.405592
O10	O	-0.249034	-1.019820	-0.524104
O11	O	-0.405490	-0.936586	-0.249199
O12	O	-0.405422	-0.826888	-0.405550
O13	O	-0.523826	-0.936636	-0.680407
O14	O	-0.523864	-0.826879	-0.524009
O15	O	-0.405355	-1.019807	-0.680448
O16	O	-0.680304	-1.019681	-0.405538
O17	O	-0.680253	-0.936564	-0.524002
C18	C	-0.464641	-0.802325	-0.464774
C19	C	-0.464654	-0.727093	-0.464781
C20	C	-0.715278	-0.978131	-0.464784
C21	C	-0.822492	-0.978172	-0.464804
C22	C	-0.526419	-0.691761	-0.526362
C23	C	-0.526419	-0.621073	-0.526373
C24	C	-0.464658	-0.585717	-0.464797
C25	C	-0.402886	-0.621053	-0.403214
C26	C	-0.402882	-0.691741	-0.403209
C27	C	-0.402901	-0.335980	-0.403236
C28	C	-0.402911	-0.265288	-0.403244
C29	C	-0.526437	-0.265313	-0.526399
C30	C	-0.526433	-0.336000	-0.526394
C31	C	-0.464658	-0.371330	-0.464815
C32	C	-0.464658	-0.447978	-0.464805
C33	C	-0.464663	-0.509070	-0.464802
C34	C	-1.018787	-0.978243	-0.464865
C35	C	-0.909554	-0.978202	-0.464834
C36	C	-0.213070	-0.978249	-0.464861
C37	C	-0.105857	-0.978278	-0.464882
C38	C	-0.464578	-0.978229	-0.716405
C39	C	-0.464542	-0.978249	-0.823619
C40	C	-0.464681	-0.154723	-0.464841
C41	C	-0.464672	-0.229955	-0.464830
C42	C	-0.464477	-0.978268	-1.019914
C43	C	-0.464516	-0.978255	-0.910682
C44	C	-0.464679	-0.978172	-0.214198
C45	C	-0.464443	-0.978283	-0.106984
H46	H	-0.576715	-0.720543	-0.576500
F47	F	-0.337152	-0.373572	-0.337700
H48	H	-0.352596	-0.592261	-0.353083
H49	H	-0.576715	-0.592309	-0.576517
F50	F	-0.592170	-0.373624	-0.591927
H51	H	-0.576733	-0.236538	-0.576544
F52	F	-0.337173	-0.227661	-0.337705
F53	F	-0.337142	-0.729343	-0.337668
