data_functionalizedCrystal
_audit_creation_method	'MofGen! by Chris Wilmer'
_symmetry_space_group_name_H-M	'P1'
_symmetry_Int_Tables_number	1
_symmetry_cell_setting	triclinic
loop_
_symmetry_equiv_pos_as_xyz
  x,y,z
_cell_length_a	16.974885
_cell_length_b	15.072220
_cell_length_c	16.992695
_cell_angle_alpha	90.003194
_cell_angle_beta	92.976847
_cell_angle_gamma	86.353767
loop_
_atom_site_label
_atom_site_type_symbol
_atom_site_fract_x
_atom_site_fract_y
_atom_site_fract_z
O1	O	1.055447	-0.001932	-0.099901
O2	O	0.826048	0.014527	-0.112633
O3	O	0.939828	0.006356	0.007874
O4	O	0.941667	0.006238	-0.220409
O5	O	0.939813	-0.141208	0.007859
O6	O	0.826034	-0.133037	-0.112649
O7	O	1.055432	-0.149496	-0.099916
Zn8	Zn	0.940731	-0.164696	-0.106285
Zn9	Zn	0.940750	0.029726	-0.106265
O10	O	0.941653	-0.141326	-0.220424
C11	C	0.796552	-0.057140	-0.112157
C12	C	0.708685	-0.050836	-0.110707
C13	C	0.214090	-0.006656	-0.102516
C14	C	0.296650	-0.012591	-0.103879
C15	C	0.337914	-0.095997	-0.104574
C16	C	0.296614	-0.173472	-0.103899
C17	C	0.214055	-0.167536	-0.102530
C18	C	0.584826	-0.122375	-0.108663
C19	C	0.667391	-0.128305	-0.110034
C20	C	0.667422	0.032576	-0.110012
C21	C	0.584861	0.038505	-0.108649
C22	C	0.543568	-0.038971	-0.107969
N23	N	0.422304	-0.102065	-0.105970
N24	N	0.459180	-0.032901	-0.106568
N25	N	0.940723	-0.297384	-0.106298
C26	C	0.940737	-0.478382	-0.106280
C27	C	0.879844	-0.511679	-0.170738
C28	C	0.879610	-0.614488	-0.170562
C29	C	0.940750	-0.656587	-0.106264
C30	C	0.917893	-0.617610	-0.024376
C31	C	0.917443	-0.514720	-0.024764
C32	C	1.024640	-0.522289	-0.122971
C33	C	1.024209	-0.625123	-0.124820
C34	C	0.940759	-0.757301	-0.106249
C35	C	0.940726	-0.377668	-0.106289
C36	C	1.084928	-0.077828	-0.100392
C37	C	1.172795	-0.084126	-0.101843
C38	C	0.937455	-0.067256	0.037077
C39	C	0.930395	-0.066749	0.124113
N40	N	0.940763	0.162414	-0.106245
C41	C	0.944026	-0.067712	-0.249626
C42	C	0.951085	-0.068212	-0.336663
C43	C	0.998510	-0.071637	0.174428
C44	C	0.991872	-0.071152	0.256208
C45	C	0.917119	-0.065786	0.287670
C46	C	0.848999	-0.060895	0.237349
C47	C	0.855638	-0.061374	0.155571
C48	C	0.889604	-0.063800	0.531238
C49	C	0.882971	-0.063325	0.613022
C50	C	1.025844	-0.073580	0.631875
C51	C	1.032476	-0.074063	0.550095
C52	C	0.964357	-0.069168	0.499781
N53	N	0.910332	-0.065293	0.371262
N54	N	0.971144	-0.069654	0.416191
H55	H	0.893939	-0.640761	-0.231425
H56	H	0.180434	-0.230620	-0.101990
C57	C	0.168707	0.085097	-0.101750
N58	N	0.134528	0.154209	-0.101168
H59	H	0.959856	-0.492845	0.024655
C60	C	0.800733	-0.057414	0.647628
N61	N	0.738795	-0.052963	0.673693
H62	H	0.857234	-0.639042	-0.009341
C63	C	1.085937	-0.493769	-0.059476
N64	N	1.132100	-0.472281	-0.011650
H65	H	0.894004	-0.487967	-0.231808
C66	C	0.796341	-0.470809	-0.156497
N67	N	0.733447	-0.440029	-0.145765
H68	H	0.551270	0.106422	-0.108081
C69	C	0.342071	0.072632	-0.104608
N70	N	0.376283	0.136826	-0.105154
C71	C	0.814670	-0.058410	0.475902
N72	N	0.758225	-0.054347	0.434220
H73	H	0.701051	0.095652	-0.110565
H74	H	0.700985	-0.196228	-0.110606
C75	C	1.088811	-0.664431	-0.065522
N76	N	1.137467	-0.694036	-0.020851
C77	C	0.795638	-0.641733	-0.156116
N78	N	0.732387	-0.662253	-0.145233
H79	H	0.856105	-0.486346	-0.010090
C80	C	0.539413	-0.207601	-0.107940
N81	N	0.505205	-0.271798	-0.107402
C82	C	1.114710	-0.079968	0.515493
N83	N	1.176650	-0.084418	0.489431
C84	C	0.342005	-0.265219	-0.104697
N85	N	0.376191	-0.334325	-0.105313
H86	H	1.045400	-0.497841	-0.181424
H87	H	0.960868	-0.645119	0.024759
H88	H	0.800171	-0.057393	0.114604
H89	H	1.041434	-0.650748	-0.185068
H90	H	1.081303	-0.077564	0.672850
H91	H	1.059382	-0.076012	0.148819
H92	H	1.047338	-0.075135	0.297172
C93	C	0.766770	-0.055000	0.271960
N94	N	0.704833	-0.050566	0.298029
