data_functionalizedCrystal
_audit_creation_method	'MofGen! by Chris Wilmer'
_symmetry_space_group_name_H-M	'P1'
_symmetry_Int_Tables_number	1
_symmetry_cell_setting	triclinic
loop_
_symmetry_equiv_pos_as_xyz
  x,y,z
_cell_length_a	12.837943
_cell_length_b	15.995350
_cell_length_c	11.295483
_cell_angle_alpha	94.097343
_cell_angle_beta	85.461227
_cell_angle_gamma	89.160657
loop_
_atom_site_label
_atom_site_type_symbol
_atom_site_fract_x
_atom_site_fract_y
_atom_site_fract_z
O1	O	1.382434	0.212589	-0.098992
O2	O	1.080629	0.201836	-0.099000
O3	O	1.239781	0.085983	-0.098995
O4	O	1.223282	0.328442	-0.098997
O5	O	1.225803	0.096142	0.099056
O6	O	1.066650	0.211995	0.099051
O7	O	1.368455	0.222747	0.099058
Cu8	Cu	1.216276	0.218299	0.117138
Cu9	Cu	1.232808	0.206285	-0.117080
O10	O	1.209303	0.338600	0.099053
C11	C	1.035019	0.203283	0.000024
C12	C	0.919942	0.192449	0.000021
C13	C	0.678983	0.322688	0.000037
C14	C	0.570857	0.312513	0.000035
C15	C	0.595562	0.161925	0.000024
C16	C	0.703688	0.172100	0.000026
C17	C	0.745394	0.252484	0.000031
C18	C	0.853523	0.262658	0.000024
C19	C	0.878225	0.112072	0.000021
C20	C	0.770100	0.101896	0.000019
C21	C	1.232110	0.059813	0.000028
C22	C	1.230066	-0.033301	0.000021
C23	C	1.222721	-0.371634	0.000025
C24	C	1.109407	-0.333266	-0.000422
C25	C	1.111421	-0.236390	0.000025
C26	C	1.226364	-0.203783	0.000023
C27	C	1.274288	-0.234599	0.113118
C28	C	1.271434	-0.331457	0.113213
C29	C	1.289672	-0.343180	-0.112007
C30	C	1.289750	-0.246314	-0.113502
C31	C	1.228429	-0.108920	0.000025
C32	C	1.220659	-0.466496	0.000031
C33	C	1.414065	0.221301	0.000031
C34	C	1.529143	0.232134	0.000027
C35	C	1.216974	0.364770	0.000027
C36	C	1.219019	0.457884	0.000026
N37	N	1.204657	0.226748	0.281874
N38	N	1.244436	0.197830	-0.281816
C39	C	1.328081	0.136958	0.531167
C40	C	1.319308	0.143350	0.655831
C41	C	1.178331	0.245919	0.655866
C42	C	1.187105	0.239527	0.531203
C43	C	1.261983	0.185046	0.468858
C44	C	1.270762	0.178659	0.344192
C45	C	1.129781	0.281223	0.344230
C46	C	1.121007	0.287615	0.468893
H47	H	0.516788	0.369680	0.000043
C48	C	0.724217	0.013481	0.000008
H49	H	0.650310	0.017474	0.000000
H50	H	0.742140	-0.012253	0.069066
H51	H	0.751886	-0.019321	-0.069072
H52	H	0.887477	0.328111	0.000030
H53	H	1.117360	0.290270	0.706644
H54	H	1.254781	-0.226617	-0.197167
H55	H	0.932310	0.054906	0.000008
H56	H	1.331734	0.134300	0.293432
C57	C	1.038617	0.347515	0.537474
H58	H	1.000496	0.375228	0.482506
H59	H	1.072451	0.387860	0.586119
H60	H	0.992051	0.316398	0.586091
H61	H	1.354288	-0.356802	0.118343
H62	H	1.389057	0.092603	0.480405
C63	C	0.724864	0.411103	0.000032
H64	H	0.669825	0.451458	0.000037
H65	H	0.771406	0.414657	-0.069032
H66	H	0.761655	0.421746	0.069105
C67	C	0.549671	0.073513	0.000031
H68	H	0.475764	0.077512	0.000029
H69	H	0.567596	0.047786	0.069094
H70	H	0.577332	0.040700	-0.069044
C71	C	1.059770	-0.208343	-0.109482
H72	H	1.037360	-0.256189	-0.154640
H73	H	1.108823	-0.178862	-0.157336
H74	H	1.001236	-0.172685	-0.084020
C75	C	1.208292	-0.354726	0.227409
H76	H	1.205997	-0.414008	0.228476
H77	H	1.139196	-0.332339	0.229165
H78	H	1.240742	-0.332193	0.295043
C79	C	1.055926	-0.368811	-0.109972
H80	H	1.102219	-0.407373	-0.156419
H81	H	1.038367	-0.324287	-0.156547
H82	H	0.994201	-0.396723	-0.084530
C83	C	1.057069	0.334125	0.275693
H84	H	1.011226	0.367490	0.330682
H85	H	1.017342	0.298055	0.227064
H86	H	1.097791	0.369481	0.227062
C87	C	1.387961	-0.206120	0.118812
H88	H	1.407248	-0.175105	0.052109
H89	H	1.432983	-0.253874	0.117764
H90	H	1.393775	-0.171793	0.190072
C91	C	1.403639	-0.217007	-0.122731
H92	H	1.414071	-0.178282	-0.057173
H93	H	1.417514	-0.190664	-0.194914
H94	H	1.449601	-0.264002	-0.121770
C95	C	1.040787	-0.358997	0.108532
H96	H	1.080895	-0.393017	0.154295
H97	H	0.982950	-0.389636	0.082531
H98	H	1.016198	-0.310203	0.156005
C99	C	1.402634	-0.377138	-0.113049
H100	H	1.409010	-0.408507	-0.045580
H101	H	1.449292	-0.331612	-0.110569
H102	H	1.419279	-0.412264	-0.183633
C103	C	1.392018	0.090456	0.724368
H104	H	1.437871	0.057100	0.669378
H105	H	1.351308	0.055105	0.773009
H106	H	1.431750	0.126536	0.772986
H107	H	1.229518	-0.204999	0.197282
C108	C	1.043927	-0.197882	0.109737
H109	H	1.015177	-0.241454	0.154213
H110	H	0.988977	-0.164730	0.084525
H111	H	1.086001	-0.163716	0.158178
H112	H	1.258664	-0.371073	-0.197727
