data_functionalizedCrystal
_audit_creation_method	'MofGen! by Chris Wilmer'
_symmetry_space_group_name_H-M	'P1'
_symmetry_Int_Tables_number	1
_symmetry_cell_setting	triclinic
loop_
_symmetry_equiv_pos_as_xyz
  x,y,z
_cell_length_a	14.908520
_cell_length_b	19.121321
_cell_length_c	14.908308
_cell_angle_alpha	95.852910
_cell_angle_beta	96.360765
_cell_angle_gamma	90.745915
loop_
_atom_site_label
_atom_site_type_symbol
_atom_site_fract_x
_atom_site_fract_y
_atom_site_fract_z
Zn1	Zn	-0.443263	1.032249	-0.479047
Zn2	Zn	-0.585904	1.032169	-0.336422
Zn3	Zn	-0.428863	0.921995	-0.333422
Zn4	Zn	-0.588133	0.907587	-0.494190
O5	O	-0.511541	0.973500	-0.410770
O6	O	-0.467278	1.130518	-0.455046
O7	O	-0.558113	1.023551	-0.209053
O8	O	-0.304422	0.942684	-0.345146
O9	O	-0.572076	1.130460	-0.350260
O10	O	-0.315001	1.023687	-0.452137
O11	O	-0.442735	0.942607	-0.206848
O12	O	-0.444897	0.821804	-0.359830
O13	O	-0.575875	0.918127	-0.619153
O14	O	-0.561912	0.811218	-0.477946
O15	O	-0.469440	1.009716	-0.608028
O16	O	-0.712551	1.009580	-0.364943
O17	O	-0.714189	0.918050	-0.480855
C18	C	-0.502085	0.791028	-0.420206
C19	C	-0.498062	0.712964	-0.424265
C20	C	-0.472511	0.271451	-0.450004
C21	C	-0.476307	0.344800	-0.446186
C22	C	-0.532668	0.381444	-0.389620
C23	C	-0.585242	0.344735	-0.336877
C24	C	-0.581450	0.271386	-0.340700
C25	C	-0.546845	0.602906	-0.375345
C26	C	-0.550631	0.676260	-0.371523
C27	C	-0.441697	0.676320	-0.480834
C28	C	-0.437906	0.602971	-0.484649
C29	C	-0.490484	0.566268	-0.431909
C30	C	-0.536547	0.456419	-0.385714
C31	C	-0.486609	0.491294	-0.435821
C32	C	-0.746133	0.962261	-0.424887
C33	C	-0.846498	0.957515	-0.430953
C34	C	-1.033337	1.043996	-0.321741
C35	C	-1.127638	1.039540	-0.327438
C36	C	-1.129404	0.944150	-0.448046
C37	C	-1.035103	0.948606	-0.442349
C38	C	-0.987072	0.998530	-0.379194
C39	C	-0.892769	1.002983	-0.373494
C40	C	-0.894537	0.907597	-0.494106
C41	C	-0.988838	0.903141	-0.499802
C42	C	-0.276034	0.984802	-0.396618
C43	C	-0.175675	0.989618	-0.390587
C44	C	-0.524512	0.962323	-0.647433
C45	C	-0.530040	0.957560	-0.748285
C46	C	-0.521034	1.156684	-0.401299
C47	C	-0.525080	1.234747	-0.397262
C48	C	-0.429575	1.043980	-0.926211
C49	C	-0.434766	1.039507	-1.020970
C50	C	-0.545608	0.944138	-1.032563
C51	C	-0.540417	0.948611	-0.937804
C52	C	-0.482399	0.998535	-0.884631
C53	C	-0.477214	1.003010	-0.789871
C54	C	-0.588050	0.907639	-0.801465
C55	C	-0.593241	0.903166	-0.896224
C56	C	-0.498556	0.984677	-0.175022
C57	C	-0.492781	0.989589	-0.074149
H58	H	-0.631136	0.374576	-0.290823
O59	O	-1.035635	0.854666	-0.561068
C60	C	-1.181697	0.805551	-0.623332
C61	C	-1.128814	0.860473	-0.553895
H62	H	-1.257043	0.810237	-0.617570
H63	H	-1.159487	0.750542	-0.609144
H64	H	-1.167705	0.815248	-0.694740
H65	H	-1.142780	0.850842	-0.482461
H66	H	-1.151032	0.915464	-0.568162
H67	H	-0.856857	0.870574	-0.540885
O68	O	-0.986585	1.092520	-0.260510
C69	C	-0.884297	1.192982	-0.237059
C70	C	-0.937175	1.138061	-0.306501
H71	H	-0.844350	1.229826	-0.274217
H72	H	-0.835875	1.165133	-0.188593
H73	H	-0.933579	1.224677	-0.196953
H74	H	-0.887960	1.106350	-0.346670
H75	H	-0.985610	1.165953	-0.354905
O76	O	-0.431739	0.455787	-0.490712
C77	C	-0.279482	0.438577	-0.526904
C78	C	-0.341525	0.478859	-0.464692
H79	H	-0.206530	0.457205	-0.505877
H80	H	-0.300132	0.448812	-0.600260
H81	H	-0.285856	0.379850	-0.520591
H82	H	-0.335182	0.537597	-0.470925
H83	H	-0.320858	0.468565	-0.391361
O84	O	-0.591370	0.491905	-0.330747
C85	C	-0.698976	0.484118	-0.222684
C86	C	-0.636940	0.443839	-0.284906
H87	H	-0.735821	0.445275	-0.185591
H88	H	-0.750365	0.514215	-0.265283
H89	H	-0.656611	0.522695	-0.171066
H90	H	-0.679230	0.405226	-0.336535
H91	H	-0.585547	0.413789	-0.242248
O92	O	-0.373148	1.092495	-0.874689
C93	C	-0.263807	1.186652	-0.873188
C94	C	-0.327656	1.131730	-0.931643
H95	H	-0.227023	1.218398	-0.919212
H96	H	-0.212436	1.158803	-0.827674
H97	H	-0.304748	1.223448	-0.829395
H98	H	-0.286790	1.094918	-0.975491
H99	H	-0.379029	1.159624	-0.977099
O100	O	-0.846058	1.051383	-0.312055
C101	C	-0.733363	1.071736	-0.182674
C102	C	-0.786211	1.016845	-0.252183
H103	H	-0.684951	1.043834	-0.134261
H104	H	-0.782587	1.103461	-0.142523
H105	H	-0.693382	1.108560	-0.219828
H106	H	-0.826195	0.979976	-0.215101
H107	H	-0.736941	0.985172	-0.292331
O108	O	-0.420781	1.051522	-0.738351
C109	C	-0.311423	1.145666	-0.736860
C110	C	-0.375284	1.090749	-0.795310
H111	H	-0.274635	1.177406	-0.782887
H112	H	-0.260056	1.117813	-0.691346
H113	H	-0.352356	1.182468	-0.693066
H114	H	-0.334426	1.053931	-0.839158
H115	H	-0.426652	1.118648	-0.840765
H116	H	-0.391748	1.076512	-1.054820
H117	H	-1.165303	1.076564	-0.280655
H118	H	-1.168528	0.903509	-0.499469
H119	H	-0.592842	0.903493	-1.075872
O120	O	-0.383263	0.567401	-0.539735
C121	C	-0.346945	0.539832	-0.692688
C122	C	-0.408911	0.580135	-0.630413
H123	H	-0.367647	0.550125	-0.766012
H124	H	-0.353267	0.481090	-0.686443
H125	H	-0.273996	0.558483	-0.671695
H126	H	-0.481885	0.561543	-0.651365
H127	H	-0.402511	0.638870	-0.636666
H128	H	-0.640475	0.862518	-0.939529
O129	O	-0.605307	0.711968	-0.316593
C130	C	-0.659453	0.824938	-0.262299
C131	C	-0.597486	0.784587	-0.324529
H132	H	-0.653166	0.883656	-0.268709
H133	H	-0.638731	0.814770	-0.188931
H134	H	-0.732395	0.806248	-0.283238
H135	H	-0.524526	0.803253	-0.303672
H136	H	-0.618286	0.794755	-0.397882
O137	O	-0.639412	0.863587	-0.760976
C138	C	-0.755017	0.853340	-0.661865
C139	C	-0.696891	0.903305	-0.707642
H140	H	-0.801516	0.885432	-0.618750
H141	H	-0.709283	0.820709	-0.616848
H142	H	-0.797328	0.816880	-0.716169
H143	H	-0.654571	0.939808	-0.653401
H144	H	-0.742674	0.935887	-0.752678
O145	O	-0.417781	0.235752	-0.504875
C146	C	-0.363703	0.122782	-0.559259
C147	C	-0.425706	0.163122	-0.497059
H148	H	-0.370104	0.064052	-0.552975
H149	H	-0.290727	0.141386	-0.538318
H150	H	-0.384426	0.133046	-0.632590
H151	H	-0.405064	0.152876	-0.423710
H152	H	-0.498667	0.144512	-0.518077
H153	H	-0.624259	0.241502	-0.297754
H154	H	-0.398892	0.706212	-0.523773
O155	O	-0.425282	0.380367	-0.497547
C156	C	-0.391341	0.397666	-0.648167
C157	C	-0.449176	0.357326	-0.590105
H158	H	-0.410651	0.379063	-0.723011
H159	H	-0.316888	0.387459	-0.628790
H160	H	-0.403710	0.456384	-0.635678
H161	H	-0.436884	0.298596	-0.602563
H162	H	-0.523609	0.367591	-0.609492
H163	H	-0.589655	0.573032	-0.332398
