data_functionalizedCrystal
_audit_creation_method	'MofGen! by Chris Wilmer'
_symmetry_space_group_name_H-M	'P1'
_symmetry_Int_Tables_number	1
_symmetry_cell_setting	triclinic
loop_
_symmetry_equiv_pos_as_xyz
  x,y,z
_cell_length_a	16.120484
_cell_length_b	10.686154
_cell_length_c	10.686551
_cell_angle_alpha	89.693980
_cell_angle_beta	88.707809
_cell_angle_gamma	82.931688
loop_
_atom_site_label
_atom_site_type_symbol
_atom_site_fract_x
_atom_site_fract_y
_atom_site_fract_z
Zn1	Zn	-0.203197	-1.957921	-0.579114
Zn2	Zn	0.296803	-1.457921	-0.079114
Zn3	Zn	-0.354007	-1.931026	-0.381723
Zn4	Zn	0.145993	-1.431026	0.118277
Zn5	Zn	-0.224504	-1.730532	-0.387172
Zn6	Zn	0.275496	-1.230532	0.112828
Zn7	Zn	-0.352313	-1.737576	-0.607355
Zn8	Zn	0.147687	-1.237576	-0.107355
O9	O	-0.283505	-1.839264	-0.488841
O10	O	0.216495	-1.339264	0.011159
O11	O	-0.214994	-2.130477	-0.538830
O12	O	0.285006	-1.630477	-0.038830
O13	O	-0.346455	-1.890227	-0.207689
O14	O	0.153545	-1.390227	0.292311
O15	O	-0.105075	-1.769004	-0.403095
O16	O	0.394925	-1.269004	0.096905
O17	O	-0.325793	-2.110717	-0.393808
O18	O	0.174207	-1.610717	0.106192
O19	O	-0.089420	-1.936066	-0.544114
O20	O	0.410580	-1.436066	-0.044114
O21	O	-0.251310	-1.742925	-0.211692
O22	O	0.248690	-1.242925	0.288308
O23	O	-0.249667	-1.555344	-0.430479
O24	O	0.250333	-1.055344	0.069521
O25	O	-0.322906	-1.781008	-0.778365
O26	O	0.177094	-1.281008	-0.278365
O27	O	-0.343567	-1.560518	-0.592247
O28	O	0.156433	-1.060518	-0.092247
O29	O	-0.213351	-1.942895	-0.757617
O30	O	0.286649	-1.442895	-0.257617
O31	O	-0.470385	-1.897056	-0.421192
O32	O	0.029615	-1.397056	0.078808
O33	O	-0.469140	-1.754929	-0.586963
O34	O	0.030860	-1.254929	-0.086963
C35	C	-0.298746	-1.512264	-0.515019
C36	C	0.201254	-1.012264	-0.015019
C37	C	-0.305284	-1.372374	-0.526250
C38	C	0.194716	-0.872374	-0.026250
C39	C	-0.499993	-1.823875	-0.506575
C40	C	0.000007	-1.323875	-0.006575
C41	C	-0.592600	-1.817410	-0.514195
C42	C	-0.092600	-1.317410	-0.014195
C43	C	-0.762153	-1.805616	-0.528131
C44	C	-0.262153	-1.305616	-0.028131
C45	C	-0.804005	-1.873139	-0.449554
C46	C	-0.304005	-1.373139	0.050446
C47	C	-0.898350	-1.866577	-0.457308
C48	C	-0.398350	-1.366577	0.042692
C49	C	-0.667799	-1.812176	-0.520378
C50	C	-0.167799	-1.312176	-0.020378
C51	C	-0.066168	-1.854750	-0.471062
C52	C	0.433832	-1.354750	0.028938
C53	C	0.026448	-1.861349	-0.463485
C54	C	0.526448	-1.361349	0.036515
C55	C	-0.265562	-1.865738	-0.814570
C56	C	0.234438	-1.365738	-0.314570
C57	C	-0.257916	-1.877019	-0.953377
C58	C	0.242084	-1.377019	-0.453377
C59	C	-0.268198	-1.167540	-0.462552
C60	C	0.231802	-0.667540	0.037448
C61	C	-0.261656	-1.307432	-0.451327
C62	C	0.238344	-0.807432	0.048673
C63	C	-0.301315	-1.812970	-0.164368
C64	C	0.198685	-1.312970	0.335632
C65	C	-0.308715	-1.801949	-0.025523
C66	C	0.191285	-1.301949	0.474477
H67	H	-0.219302	-1.358852	-0.378590
H68	H	0.280698	-0.858852	0.121410
O69	O	-0.355753	-1.310840	-0.612998
O70	O	0.144247	-0.810840	-0.112998
C71	C	-0.351282	-1.180177	-0.605262
C72	C	0.148718	-0.680177	-0.105262
H73	H	-0.290007	-1.163585	-0.560664
H74	H	0.209993	-0.663585	-0.060664
H75	H	-0.354191	-1.137341	-0.703230
H76	H	0.145809	-0.637341	-0.203230
H77	H	-0.406033	-1.133946	-0.545642
H78	H	0.093967	-0.633946	-0.045642
H79	H	-0.358057	-1.729050	-0.981099
H80	H	0.141943	-1.229050	-0.481099
H81	H	-0.208576	-1.949931	-0.997806
H82	H	0.291424	-1.449931	-0.497806
H83	H	-0.768981	-1.935875	-0.376457
H84	H	-0.268981	-1.435875	0.123543
H85	H	-0.797174	-1.742883	-0.601219
H86	H	-0.297174	-1.242883	-0.101219
