data_functionalizedCrystal
_audit_creation_method	'MofGen! by Chris Wilmer'
_symmetry_space_group_name_H-M	'P1'
_symmetry_Int_Tables_number	1
_symmetry_cell_setting	triclinic
loop_
_symmetry_equiv_pos_as_xyz
  x,y,z
_cell_length_a	10.967819
_cell_length_b	10.967931
_cell_length_c	10.065875
_cell_angle_alpha	69.185355
_cell_angle_beta	69.228723
_cell_angle_gamma	92.751796
loop_
_atom_site_label
_atom_site_type_symbol
_atom_site_fract_x
_atom_site_fract_y
_atom_site_fract_z
O1	O	1.736913	-0.094991	-0.499662
O2	O	1.358343	-0.127219	-0.403047
O3	O	1.563715	0.078207	-0.499656
O4	O	1.531541	-0.300418	-0.403053
O5	O	1.524549	0.038883	-0.254209
O6	O	1.319177	-0.166543	-0.157600
O7	O	1.697747	-0.134316	-0.254214
Zn8	Zn	1.502243	-0.156673	-0.166937
Zn9	Zn	1.553847	-0.104861	-0.490325
O10	O	1.492375	-0.339742	-0.157606
C11	C	1.290422	-0.147506	-0.268808
C12	C	1.146393	-0.149353	-0.234500
C13	C	0.953618	-0.131724	-0.310919
C14	C	1.102480	-0.129807	-0.346372
C15	C	1.544751	0.106889	-0.388449
C16	C	1.546581	0.250940	-0.422763
C17	C	1.765668	-0.114028	-0.388457
C18	C	1.909699	-0.112179	-0.422775
N19	N	1.467035	-0.192032	0.053764
C20	C	1.528990	0.443671	-0.346354
C21	C	1.527103	0.294789	-0.310895
C22	C	1.511340	0.631576	-0.268813
C23	C	1.509514	0.487527	-0.234503
N24	N	1.589066	-0.069492	-0.711031
C25	C	1.541589	-0.117156	0.086401
C26	C	1.514501	-0.144379	0.256341
H27	H	0.881011	-0.149882	-0.188906
H28	H	1.509039	0.222119	-0.188878
H29	H	0.982303	-0.094035	-0.544783
Cl30	Cl	1.214563	-0.101789	-0.534759
Cl31	Cl	1.574485	0.363129	-0.611155
H32	H	1.547067	0.516348	-0.468367
H33	H	1.491451	0.414853	-0.112494
Cl34	Cl	1.670816	0.013218	-0.064691
Cl35	Cl	1.384977	-0.274470	0.407431
H36	H	1.672949	0.014777	0.191103
H37	H	1.073791	-0.167514	-0.112478
H38	H	1.383148	-0.276286	0.151632
