data_functionalizedCrystal
_audit_creation_method	'MofGen! by Chris Wilmer'
_symmetry_space_group_name_H-M	'P1'
_symmetry_Int_Tables_number	1
_symmetry_cell_setting	triclinic
loop_
_symmetry_equiv_pos_as_xyz
  x,y,z
_cell_length_a	12.759395
_cell_length_b	25.639239
_cell_length_c	12.759387
_cell_angle_alpha	90.036972
_cell_angle_beta	90.021028
_cell_angle_gamma	90.040046
loop_
_atom_site_label
_atom_site_type_symbol
_atom_site_fract_x
_atom_site_fract_y
_atom_site_fract_z
Zn1	Zn	1.606089	-0.208113	0.593975
Zn2	Zn	1.605904	-0.295558	0.418276
Zn3	Zn	1.430387	-0.208140	0.418310
Zn4	Zn	1.430304	-0.295520	0.593914
O5	O	1.518171	-0.251833	0.506118
O6	O	1.753086	-0.219717	0.570679
O7	O	1.582579	-0.283990	0.271259
O8	O	1.453807	-0.134971	0.441652
O9	O	1.752950	-0.283963	0.441594
O10	O	1.582894	-0.134951	0.570712
O11	O	1.453628	-0.219764	0.271284
O12	O	1.283355	-0.219726	0.441593
O13	O	1.453665	-0.283898	0.740943
O14	O	1.283294	-0.283924	0.570608
O15	O	1.582814	-0.219680	0.740988
O16	O	1.582499	-0.368719	0.441535
O17	O	1.453486	-0.368690	0.570575
C18	C	1.245204	-0.251825	0.506098
C19	C	1.128427	-0.251834	0.506114
C20	C	0.909134	-0.185054	0.640782
C21	C	0.964070	-0.151653	0.708086
C22	C	1.073792	-0.151644	0.708068
C23	C	1.128579	-0.185041	0.640741
C24	C	1.073642	-0.218442	0.573436
C25	C	0.963918	-0.218446	0.573460
C26	C	1.073490	-0.285235	0.438810
C27	C	0.963769	-0.285242	0.438821
C28	C	1.128278	-0.318631	0.371482
C29	C	1.073341	-0.352031	0.304171
C30	C	0.963612	-0.352038	0.304192
C31	C	0.908832	-0.318643	0.371517
C32	C	1.517992	-0.387675	0.506068
C33	C	1.518011	-0.445789	0.506081
C34	C	1.450982	-0.696981	0.573288
C35	C	1.450943	-0.642376	0.573276
O36	O	1.393780	-0.614138	0.630383
N37	N	1.518143	-0.615063	0.506136
C38	C	1.585395	-0.642357	0.439011
O39	O	1.642551	-0.614111	0.381903
C40	C	1.585438	-0.696961	0.439030
C41	C	1.518226	-0.724271	0.506167
C42	C	1.383776	-0.724291	0.640421
C43	C	1.383813	-0.778891	0.640431
C44	C	1.451057	-0.806182	0.573309
C45	C	1.518263	-0.778871	0.506177
C46	C	1.652694	-0.724254	0.371911
C47	C	1.652732	-0.778861	0.371936
C48	C	1.585520	-0.806171	0.439073
C49	C	1.585545	-0.860762	0.439066
N50	N	1.518345	-0.888075	0.506206
C51	C	1.451101	-0.860785	0.573328
C52	C	1.585300	-0.527687	0.438979
C53	C	1.585252	-0.473084	0.438955
C54	C	1.450801	-0.473107	0.573221
C55	C	1.450844	-0.527710	0.573240
C56	C	1.518099	-0.555000	0.506119
C57	C	1.451185	-0.975450	0.573344
C58	C	1.451225	-1.030055	0.573346
C59	C	1.585679	-1.030028	0.439084
C60	C	1.585635	-0.975427	0.439078
C61	C	1.518384	-0.948140	0.506217
O62	O	1.642682	-0.889035	0.381991
O63	O	1.393964	-0.889037	0.630436
C64	C	1.792205	-0.251841	0.506140
C65	C	1.908981	-0.251845	0.506149
C66	C	1.518251	-0.251781	0.780152
C67	C	1.518285	-0.251760	0.896929
C68	C	1.518380	-0.115460	0.506192
C69	C	1.518469	-0.057346	0.506224
C70	C	1.518153	-0.251846	0.233151
C71	C	1.518323	-0.251721	0.116375
C72	C	1.652776	-0.184894	0.896995
C73	C	1.720036	-0.151453	0.951889
C74	C	1.720062	-0.151434	1.061611
C75	C	1.652818	-0.184858	1.116441
C76	C	1.585557	-0.218299	1.061547
C77	C	1.585541	-0.218316	0.951823
C78	C	1.451062	-0.285161	1.061481
C79	C	1.451040	-0.285184	0.951759
C80	C	1.383818	-0.318585	1.116311
C81	C	1.316561	-0.352029	1.061417
C82	C	1.316540	-0.352048	0.951688
C83	C	1.383780	-0.318624	0.896865
H84	H	1.118522	-0.124447	0.762875
O85	O	1.246922	-0.185030	0.640709
H86	H	1.275919	-0.156191	0.698815
H87	H	1.640064	-0.549902	0.384313
O88	O	1.383835	-0.318563	1.234654
H89	H	1.404994	-0.357997	1.263564
H90	H	1.707425	-0.702025	0.317243
O91	O	0.790489	-0.318645	0.371538
H92	H	0.761488	-0.347478	0.313423
H93	H	1.261811	-0.379238	1.106068
H94	H	1.707504	-0.801077	0.317280
O95	O	1.243976	-0.388113	0.892496
H96	H	1.290925	-0.414730	0.842489
H97	H	0.918889	-0.379239	0.249389
O98	O	1.378264	-0.443664	0.645609
H99	H	1.331525	-0.471825	0.692293
H100	H	1.640355	-0.953191	0.384398
O101	O	0.790791	-0.185056	0.640786
H102	H	0.761816	-0.224506	0.661868
H103	H	1.117957	-0.379222	0.249364
O104	O	1.792599	-0.115357	1.120808
H105	H	1.745618	-0.088743	1.170791
H106	H	0.919451	-0.124463	0.762905
O107	O	1.792562	-0.115403	0.892754
H108	H	1.875005	-0.124373	0.913831
H109	H	1.217619	-0.318625	0.371479
O110	O	1.383764	-0.318653	0.778522
H111	H	1.304534	-0.308089	0.749576
H112	H	1.652772	-0.184911	0.807654
H113	H	1.396491	-1.052289	0.628019
H114	H	1.652836	-0.184835	1.205782
H115	H	1.396424	-0.953239	0.628016
H116	H	1.329080	-0.801122	0.695099
H117	H	1.329018	-0.702076	0.695084
O118	O	1.378361	-0.557166	0.645659
H119	H	1.331604	-0.529010	0.692329
H120	H	1.639970	-0.450852	0.384275
O121	O	1.658237	-1.059467	0.366720
H122	H	1.646984	-1.102023	0.378033
