data_functionalizedCrystal
_audit_creation_method	'MofGen! by Chris Wilmer'
_symmetry_space_group_name_H-M	'P1'
_symmetry_Int_Tables_number	1
_symmetry_cell_setting	triclinic
loop_
_symmetry_equiv_pos_as_xyz
  x,y,z
_cell_length_a	10.686220
_cell_length_b	18.101395
_cell_length_c	10.686551
_cell_angle_alpha	94.406456
_cell_angle_beta	89.691918
_cell_angle_gamma	94.412841
loop_
_atom_site_label
_atom_site_type_symbol
_atom_site_fract_x
_atom_site_fract_y
_atom_site_fract_z
Zn1	Zn	1.972201	-0.180552	0.562382
Zn2	Zn	1.955907	-0.314596	0.352620
Zn3	Zn	1.746310	-0.199497	0.368699
Zn4	Zn	1.762338	-0.313095	0.578398
O5	O	1.859189	-0.251935	0.465525
O6	O	2.145585	-0.191033	0.521125
O7	O	1.914577	-0.307884	0.179207
O8	O	1.776386	-0.093345	0.394418
O9	O	2.133614	-0.289514	0.367014
O10	O	1.942347	-0.079426	0.536716
O11	O	1.760587	-0.223322	0.191020
O12	O	1.572891	-0.221866	0.409948
O13	O	1.803703	-0.286956	0.751819
O14	O	1.584666	-0.305327	0.564013
O15	O	1.957888	-0.189578	0.740052
O16	O	1.930118	-0.418036	0.382544
O17	O	1.787904	-0.416933	0.548422
C18	C	1.533261	-0.265490	0.490464
C19	C	1.393831	-0.271305	0.501162
C20	C	1.859018	-0.444354	0.465501
C21	C	1.859063	-0.526665	0.465524
C22	C	1.859343	-0.825742	0.465570
C23	C	1.770109	-0.793732	0.570159
C24	C	1.769626	-0.708148	0.569891
C25	C	1.859204	-0.677366	0.465548
C26	C	1.813255	-0.716429	0.336079
C27	C	1.812677	-0.802072	0.336708
C28	C	1.994649	-0.786916	0.489270
C29	C	1.994091	-0.701157	0.492229
C30	C	1.859127	-0.593511	0.465527
C31	C	1.859417	-0.909597	0.465582
C32	C	2.186389	-0.238328	0.440489
C33	C	2.325822	-0.232529	0.429821
C34	C	1.884401	-0.235986	0.792725
C35	C	1.895145	-0.229190	0.932159
C36	C	1.859396	-0.058762	0.465574
C37	C	1.859485	0.023558	0.465595
C38	C	1.834147	-0.267765	0.139591
C39	C	1.823646	-0.274343	0.000140
H40	H	1.374265	-0.194883	0.360556
H41	H	1.964588	-0.185333	0.980633
H42	H	1.345381	-0.308959	0.570423
C43	C	1.636087	-0.687923	0.550196
C44	C	1.559743	-0.713111	0.647463
C45	C	1.436711	-0.694504	0.629346
H46	H	1.635138	-0.635502	0.550000
H47	H	1.605355	-0.710651	0.472124
H48	H	1.590467	-0.690380	0.725515
H49	H	1.560654	-0.765530	0.647676
H50	H	1.405979	-0.717231	0.551274
H51	H	1.435776	-0.642083	0.629148
H52	H	1.384895	-0.711596	0.695331
C53	C	1.680299	-0.835901	0.308417
C54	C	1.601594	-0.779188	0.290910
C55	C	1.479633	-0.810318	0.264865
H56	H	1.680897	-0.868448	0.234363
H57	H	1.650347	-0.862934	0.376699
H58	H	1.631538	-0.752167	0.222634
H59	H	1.600957	-0.746637	0.364950
H60	H	1.449681	-0.837351	0.333147
H61	H	1.480245	-0.842864	0.190813
H62	H	1.426214	-0.771843	0.252995
C63	C	1.809468	-0.672607	0.698427
C64	C	1.834207	-0.728175	0.777028
C65	C	1.870884	-0.695467	0.895458
H66	H	1.883032	-0.640369	0.690386
H67	H	1.743984	-0.644973	0.733497
H68	H	1.899686	-0.755797	0.741967
H69	H	1.760661	-0.760417	0.785106
H70	H	1.805399	-0.667833	0.930528
H71	H	1.944445	-0.663230	0.887405
H72	H	1.887663	-0.733165	0.948808
H73	H	1.799836	-0.808581	0.666812
H74	H	1.670643	-0.820464	0.555499
C75	C	1.894829	-0.830672	0.229871
C76	C	1.944769	-0.770834	0.165044
C77	C	2.020429	-0.797150	0.066605
H78	H	1.961276	-0.855282	0.262844
H79	H	1.845816	-0.864498	0.174081
H80	H	1.993780	-0.737021	0.220825
H81	H	1.878351	-0.746218	0.132043
H82	H	1.971416	-0.830976	0.010815
H83	H	2.086869	-0.821760	0.099589
H84	H	2.054314	-0.756556	0.022601
C85	C	2.047626	-0.807751	0.612370
C86	C	1.959696	-0.855877	0.669235
C87	C	2.008432	-0.875078	0.782649
H88	H	2.122717	-0.831763	0.596558
H89	H	2.065222	-0.764115	0.666556
H90	H	1.942116	-0.899506	0.615061
H91	H	1.884601	-0.831881	0.685077
H92	H	2.026028	-0.831442	0.836835
H93	H	2.083522	-0.899087	0.766825
H94	H	1.948775	-0.907728	0.821252
C95	C	2.040230	-0.666339	0.619233
C96	C	2.160515	-0.687995	0.641950
C97	C	2.203032	-0.655956	0.758956
H98	H	2.043148	-0.613746	0.619499
H99	H	1.984563	-0.682521	0.682938
H100	H	2.216168	-0.671808	0.578262
H101	H	2.157629	-0.740582	0.641710
H102	H	2.147365	-0.672139	0.822660
H103	H	2.205943	-0.603365	0.759211
H104	H	2.284644	-0.670650	0.774390
C105	C	2.088325	-0.672613	0.396828
C106	C	2.027228	-0.632775	0.311372
C107	C	2.113988	-0.606478	0.223452
H108	H	2.152440	-0.640978	0.438835
H109	H	2.124493	-0.713440	0.353129
H110	H	1.991079	-0.591953	0.355066
H111	H	1.963119	-0.664394	0.269335
H112	H	2.150156	-0.647305	0.179753
H113	H	2.178099	-0.574846	0.265470
H114	H	2.072544	-0.579451	0.165453
H115	H	1.754216	-0.318202	0.951671
H116	H	1.875757	-0.696831	0.256471
H117	H	2.061256	-0.807605	0.412970
H118	H	1.715034	-0.700458	0.314229
