data_functionalizedCrystal
_audit_creation_method	'MofGen! by Chris Wilmer'
_symmetry_space_group_name_H-M	'P1'
_symmetry_Int_Tables_number	1
_symmetry_cell_setting	triclinic
loop_
_symmetry_equiv_pos_as_xyz
  x,y,z
_cell_length_a	6.817900
_cell_length_b	11.102193
_cell_length_c	14.858340
_cell_angle_alpha	93.471917
_cell_angle_beta	104.519754
_cell_angle_gamma	108.604125
loop_
_atom_site_label
_atom_site_type_symbol
_atom_site_fract_x
_atom_site_fract_y
_atom_site_fract_z
V1	V	-4.064499	-0.176650	-0.289964
O2	O	-4.024433	0.007655	-0.284441
O3	O	-4.041592	-0.349465	-0.287984
O4	O	-4.020771	-0.174299	-0.416425
O5	O	-4.045398	-0.168724	-0.155110
V6	V	-4.544218	-0.154562	-0.273834
O7	O	-4.334101	-0.225103	-0.325346
O8	O	-4.724814	-0.106110	-0.238451
O9	O	-4.343919	0.018253	-0.275814
O10	O	-4.701681	-0.338867	-0.279357
O11	O	-4.680716	-0.162488	-0.408688
O12	O	-4.364740	-0.156913	-0.147372
C13	C	-3.892643	-0.391583	-0.283411
C14	C	-3.955232	-0.532864	-0.282635
C15	C	-3.866083	-0.168139	-0.447249
C16	C	-3.911782	-0.167360	-0.550632
C17	C	-3.980112	-0.761565	-0.110830
C18	C	-3.904343	-0.676798	-0.026028
C19	C	-3.845537	-0.544053	-0.026759
C20	C	-3.862498	-0.496074	-0.112301
C21	C	-3.938268	-0.580841	-0.197102
C22	C	-3.997076	-0.713588	-0.196362
C23	C	-4.031001	-0.617631	-0.367436
C24	C	-4.089822	-0.750377	-0.366708
C25	C	-4.047963	-0.569652	-0.452978
C26	C	-4.123748	-0.654421	-0.537782
C27	C	-4.182557	-0.787173	-0.537048
C28	C	-4.165592	-0.835145	-0.451510
C29	C	-3.948893	-0.166726	-0.634591
C30	C	-3.995464	-0.165925	-0.739920
C31	C	-4.032598	-0.165287	-0.823872
C32	C	-4.079175	-0.164488	-0.929208
C33	C	-4.156211	0.060364	-0.280384
C34	C	-4.072861	0.201644	-0.281166
C35	C	-4.182771	-0.163078	-0.116543
C36	C	-4.116309	-0.163850	-0.013159
H37	H	-4.028009	-0.869652	-0.110226
C38	C	-3.886180	-0.729144	0.066744
C39	C	-3.953945	-0.863541	0.049239
C40	C	-3.937260	-0.911802	0.134676
H41	H	-3.740314	-0.695822	0.104653
H42	H	-3.974802	-0.704053	0.098659
H43	H	-3.865324	-0.888621	0.017339
H44	H	-4.099812	-0.896898	0.011344
H45	H	-4.025881	-0.886710	0.166591
H46	H	-3.791391	-0.878470	0.172579
H47	H	-3.983254	-1.002994	0.122810
H48	H	-4.213477	-0.943231	-0.450903
H49	H	-4.137536	-0.615344	-0.607423
H50	H	-3.783824	-0.475033	0.042294
C51	C	-3.798626	-0.351911	-0.112902
C52	C	-3.728673	-0.287946	-0.020329
C53	C	-3.669842	-0.155143	-0.020849
H54	H	-3.685141	-0.324363	-0.141496
H55	H	-3.919683	-0.332761	-0.147445
H56	H	-3.607630	-0.307086	0.014201
H57	H	-3.842124	-0.315455	0.008282
H58	H	-3.790899	-0.135993	-0.055392
H59	H	-3.556363	-0.127609	-0.049446
H60	H	-3.622391	-0.111727	0.041959
C61	C	-3.984127	-0.425568	-0.453969
C62	C	-4.015150	-0.401696	-0.547028
C63	C	-3.956350	-0.268980	-0.547980
H64	H	-4.070875	-0.392750	-0.425714
H65	H	-3.836419	-0.384554	-0.419755
H66	H	-4.162832	-0.442694	-0.581229
H67	H	-3.928404	-0.434483	-0.575301
H68	H	-3.808643	-0.227966	-0.513766
H69	H	-4.043105	-0.236174	-0.519722
H70	H	-3.977372	-0.252765	-0.611118
C71	C	-4.265172	-0.879362	-0.629059
C72	C	-4.474588	-0.962783	-0.637985
C73	C	-4.550750	-1.047731	-0.722728
H74	H	-4.267057	-0.831939	-0.680184
H75	H	-4.172904	-0.927844	-0.629355
H76	H	-4.566833	-0.914307	-0.637697
H77	H	-4.472761	-1.010236	-0.586880
H78	H	-4.458482	-1.096212	-0.723024
H79	H	-4.552622	-1.000296	-0.773847
H80	H	-4.692838	-1.104349	-0.728792
