data_functionalizedCrystal
_audit_creation_method	'MofGen! by Chris Wilmer'
_symmetry_space_group_name_H-M	'P1'
_symmetry_Int_Tables_number	1
_symmetry_cell_setting	triclinic
loop_
_symmetry_equiv_pos_as_xyz
  x,y,z
_cell_length_a	27.732048
_cell_length_b	19.288872
_cell_length_c	18.366186
_cell_angle_alpha	90.008380
_cell_angle_beta	90.010100
_cell_angle_gamma	82.890963
loop_
_atom_site_label
_atom_site_type_symbol
_atom_site_fract_x
_atom_site_fract_y
_atom_site_fract_z
O1	O	0.060316	0.920973	0.060545
O2	O	0.068447	0.718663	0.060550
O3	O	-0.005996	0.826101	0.060534
O4	O	0.134759	0.813535	0.060562
O5	O	-0.005998	0.826083	-0.060566
O6	O	0.068445	0.718644	-0.060549
O7	O	0.060314	0.920955	-0.060554
Zn8	Zn	0.064379	0.819797	-0.079779
Zn9	Zn	0.064382	0.819821	0.079775
O10	O	0.134757	0.813516	-0.060538
C11	C	-0.024005	0.825828	-0.000018
C12	C	-0.077662	0.825034	-0.000024
C13	C	0.068183	0.692779	0.000001
C14	C	0.067396	0.615680	0.000003
C15	C	0.060577	0.946839	-0.000003
C16	C	0.061364	1.023937	0.000000
C17	C	-0.416300	0.883523	0.000012
C18	C	-0.617968	0.880575	0.000022
O19	O	-0.649061	0.934059	0.000053
N20	N	-0.637286	0.816869	0.000023
C21	C	-0.606182	0.753894	0.000026
O22	O	-0.627240	0.699640	0.000035
C23	C	-0.404515	0.756842	0.000021
C24	C	-0.385200	0.820553	0.000013
C25	C	-0.396985	0.947228	0.000005
C26	C	-0.346571	0.947964	-0.000002
C27	C	-0.315471	0.884995	-0.000001
C28	C	-0.334786	0.821289	0.000007
C29	C	-0.373412	0.693869	0.000030
C30	C	-0.322993	0.694611	0.000030
C31	C	-0.303679	0.758322	0.000022
C32	C	-0.253273	0.759056	0.000001
N33	N	-0.233955	0.822762	0.000000
C34	C	-0.265055	0.885732	-0.000001
C35	C	-0.712061	0.752351	0.000028
C36	C	-0.762478	0.751614	0.000028
C37	C	-0.774260	0.878295	0.000025
C38	C	-0.723843	0.879032	0.000020
C39	C	-0.692744	0.816058	0.000027
C40	C	-0.159181	0.887273	-0.000015
C41	C	-0.108762	0.888004	-0.000025
C42	C	-0.096984	0.761323	-0.000018
C43	C	-0.147398	0.760592	-0.000013
C44	C	-0.178496	0.823573	-0.000009
O45	O	-0.222151	0.705601	-0.000021
O46	O	-0.243987	0.939978	0.000007
C47	C	-0.466714	0.882787	0.000019
C48	C	-0.486029	0.819081	0.000026
C49	C	-0.454929	0.756111	0.000027
C50	C	-0.536445	0.818344	0.000026
C51	C	-0.567545	0.881313	0.000025
C52	C	-0.548227	0.945020	0.000024
C53	C	-0.497813	0.945756	0.000018
C54	C	-0.474247	0.692405	0.000028
C55	C	-0.524662	0.691674	0.000034
C56	C	-0.555761	0.754643	0.000033
C57	C	0.152766	0.813789	0.000016
C58	C	0.206423	0.814584	0.000027
N59	N	0.064377	0.819785	-0.188670
C60	C	0.067022	1.579475	0.066012
C61	C	0.066287	1.507031	0.066014
C62	C	0.065916	1.470799	0.000002
C63	C	0.066293	1.507013	-0.066016
C64	C	0.067033	1.579454	-0.066016
C65	C	0.036433	1.361649	-0.050579
C66	C	0.035690	1.289210	-0.050577
C67	C	0.063637	1.247367	-0.000002
C68	C	0.092320	1.277973	0.050582
C69	C	0.093060	1.350414	0.050583
C70	C	0.065114	1.392249	-0.000006
C71	C	0.062466	1.132610	0.066014
C72	C	0.061734	1.060165	0.066012
C73	C	0.061735	1.060149	-0.066019
C74	C	0.062472	1.132591	-0.066016
C75	C	0.062835	1.168818	0.000002
C76	C	0.093622	0.861590	-0.226759
C77	C	0.093621	0.861602	-0.302987
C78	C	0.064380	0.819795	-0.341123
C79	C	0.035128	0.777987	-0.303024
C80	C	0.035127	0.777982	-0.226798
C81	C	0.063156	0.757191	-0.461903
C82	C	0.063161	0.757194	-0.538128
C83	C	0.064381	0.819810	-0.576230
C84	C	0.065607	0.882424	-0.538098
C85	C	0.065606	0.882419	-0.461872
C86	C	0.064378	0.819796	-0.423777
C87	C	0.093627	0.861631	-0.696974
C88	C	0.093622	0.861644	-0.773204
C89	C	0.035132	0.778023	-0.773239
C90	C	0.035134	0.778017	-0.697011
C91	C	0.064384	0.819820	-0.658884
N92	N	0.064380	0.819838	0.188666
H93	H	-0.093039	0.939887	-0.000034
C94	C	0.002956	0.731987	-0.184898
N95	N	-0.021274	0.697341	-0.153338
C96	C	-0.168645	0.690507	-0.000008
N97	N	-0.184644	0.637718	0.000003
H98	H	0.066603	0.933412	-0.569120
C99	C	0.005685	1.407671	-0.106217
N100	N	-0.017473	1.442333	-0.148121
H101	H	-0.686744	0.701067	0.000033
C102	C	0.125793	0.907583	-0.184823
N103	N	0.150022	0.942227	-0.153235
H104	H	-0.708121	0.930911	0.000013
C105	C	0.066947	0.951294	-0.419930
N106	N	0.067954	1.003173	-0.388339
C107	C	0.124637	1.384072	0.106192
N108	N	0.148431	1.409421	0.148065
C109	C	0.125795	0.907592	-0.344894
N110	N	0.150029	0.942232	-0.376455
H111	H	0.011319	0.743949	-0.334079
C112	C	0.062875	1.172460	0.138635
N113	N	0.063184	1.202473	0.193333
C114	C	0.065873	1.467198	0.138632
N115	N	0.065559	1.437197	0.193328
H116	H	0.117436	0.895692	-0.804215
H117	H	-0.297674	0.643329	0.000037
H118	H	-0.184495	0.938558	-0.000009
C119	C	0.061321	1.020339	0.138632
N120	N	0.061008	0.990342	0.193331
C121	C	-0.394646	0.623781	0.000044
N122	N	-0.410639	0.570986	0.000057
C123	C	0.067421	1.619320	0.138635
N124	N	0.067720	1.649333	0.193335
C125	C	0.002965	0.732037	-0.815184
N126	N	-0.021265	0.697399	-0.846781
H127	H	0.062166	0.706210	-0.569169
C128	C	0.061328	1.020297	-0.138633
N129	N	0.061022	0.990277	-0.193328
C130	C	-0.325332	1.018052	-0.000003
N131	N	-0.309338	1.070845	-0.000001
C132	C	-0.476574	1.015844	0.000013
N133	N	-0.460581	1.068637	0.000012
C134	C	0.062877	1.172421	-0.138633
N135	N	0.063182	1.202420	-0.193331
H136	H	-0.778199	0.699734	0.000022
C137	C	0.002966	0.732020	-0.655112
N138	N	-0.021264	0.697373	-0.623553
C139	C	-0.582446	1.014287	0.000024
N140	N	-0.608222	1.066455	0.000029
C141	C	0.123067	1.231950	0.106215
N142	N	0.146226	1.197282	0.148116
C143	C	-0.808479	0.947562	0.000029
N144	N	-0.834254	0.999731	0.000039
C145	C	0.067440	1.619282	-0.138635
N146	N	0.067745	1.649282	-0.193332
C147	C	-0.062765	0.692060	-0.000012
N148	N	-0.036990	0.639890	-0.000000
H149	H	-0.540382	0.639789	0.000034
H150	H	0.062165	0.706197	-0.430886
H151	H	0.012332	1.264298	-0.091762
H152	H	-0.422301	0.998509	0.000006
H153	H	-0.448930	0.641126	0.000030
C154	C	0.065884	1.467156	-0.138629
N155	N	0.065578	1.437135	-0.193324
C156	C	0.125797	0.907622	-0.655031
N157	N	0.150028	0.942264	-0.623441
