data_functionalizedCrystal
_audit_creation_method	'MofGen! by Chris Wilmer'
_symmetry_space_group_name_H-M	'P1'
_symmetry_Int_Tables_number	1
_symmetry_cell_setting	triclinic
loop_
_symmetry_equiv_pos_as_xyz
  x,y,z
_cell_length_a	19.188905
_cell_length_b	18.266242
_cell_length_c	15.538191
_cell_angle_alpha	89.995390
_cell_angle_beta	114.796674
_cell_angle_gamma	90.016163
loop_
_atom_site_label
_atom_site_type_symbol
_atom_site_fract_x
_atom_site_fract_y
_atom_site_fract_z
O1	O	0.896618	0.060991	-0.117621
O2	O	0.689317	0.060964	-0.133494
O3	O	0.833320	0.060986	0.011743
O4	O	0.752615	0.060969	-0.262858
O5	O	0.833304	-0.060776	0.011750
O6	O	0.689301	-0.060798	-0.133487
O7	O	0.896601	-0.060771	-0.117613
Zn8	Zn	0.792949	-0.080117	-0.125549
Zn9	Zn	0.792970	0.080310	-0.125559
O10	O	0.752598	-0.060793	-0.262851
C11	C	0.663426	0.000080	-0.132980
C12	C	0.586305	0.000071	-0.131449
N13	N	0.792939	-0.189604	-0.125542
C14	C	0.550107	0.066445	-0.130718
C15	C	0.477647	0.066454	-0.129268
C16	C	0.441395	0.000085	-0.128532
C17	C	0.477600	-0.066298	-0.129269
C18	C	0.550055	-0.066305	-0.130727
N19	N	0.346422	-0.049303	-0.072574
N20	N	0.277594	-0.049292	-0.071186
C21	C	0.223092	0.000103	-0.124139
N22	N	0.240022	0.049498	-0.178520
N23	N	0.308859	0.049488	-0.179903
C24	C	0.362830	0.000086	-0.126951
C25	C	0.108324	0.066492	-0.121837
C26	C	0.035861	0.066499	-0.120394
C27	C	0.035819	-0.066256	-0.120384
C28	C	0.108277	-0.066260	-0.121837
C29	C	0.144527	0.000116	-0.122559
C30	C	0.856711	-0.227903	-0.061262
C31	C	0.856717	-0.304548	-0.061258
C32	C	0.792953	-0.342891	-0.125549
C33	C	0.729170	-0.304582	-0.189834
C34	C	0.729164	-0.227939	-0.189830
N35	N	0.762909	-0.463229	-0.209030
N36	N	0.762921	-0.536037	-0.209030
C37	C	0.792969	-0.573813	-0.125563
N38	N	0.823020	-0.536031	-0.042092
N39	N	0.823012	-0.463216	-0.042092
C40	C	0.792953	-0.425998	-0.125560
C41	C	0.856751	-0.695219	-0.061273
C42	C	0.856752	-0.771866	-0.061267
C43	C	0.729207	-0.771899	-0.189852
C44	C	0.729205	-0.695254	-0.189849
C45	C	0.792980	-0.656919	-0.125561
C46	C	0.922493	0.000115	-0.118127
C47	C	0.999614	0.000129	-0.119659
C48	C	0.841756	0.000109	0.046878
C49	C	0.866908	0.000119	0.151558
N50	N	0.792987	0.189797	-0.125558
C51	C	0.744163	0.000086	-0.297986
C52	C	0.719011	0.000080	-0.402666
C53	C	0.617032	0.000071	0.438289
C54	C	0.640684	0.000073	0.536655
C55	C	0.773718	0.000090	0.559662
C56	C	0.750077	0.000092	0.461296
C57	C	0.671734	0.000082	0.400617
C58	C	0.804779	0.000103	0.423624
C59	C	0.781140	0.000101	0.325266
C60	C	0.702800	0.000089	0.264581
C61	C	0.648095	0.000081	0.302259
C62	C	0.883122	0.000108	0.484305
C63	C	0.937824	0.000119	0.446633
C64	C	0.914185	0.000122	0.348274
C65	C	0.835845	0.000110	0.287588
C66	C	0.968890	0.000131	0.310595
C67	C	0.945251	0.000129	0.212238
C68	C	0.812206	0.000108	0.189231
H69	H	0.579617	0.120493	-0.131306
H70	H	0.448078	-0.120336	-0.128671
H71	H	0.677277	-0.664068	-0.242195
H72	H	0.908680	-0.664006	-0.008923
H73	H	0.748411	0.000106	0.139821
H74	H	0.006301	-0.120295	-0.119790
H75	H	0.553237	0.000069	0.388880
C76	C	0.926906	-0.813995	0.009442
H77	H	0.964887	-0.780184	0.047721
H78	H	0.911729	-0.843905	0.048616
H79	H	0.947393	-0.843881	-0.024394
C80	C	0.859890	0.000105	0.626413
H81	H	0.866135	0.000109	0.690388
H82	H	0.883348	-0.042349	0.615021
H83	H	0.883348	0.042579	0.615020
H84	H	0.579527	-0.120357	-0.131324
C85	C	0.148196	0.139501	-0.122649
H86	H	0.116251	0.179034	-0.122021
H87	H	0.195727	0.142266	-0.068239
H88	H	0.157193	0.142248	-0.178205
C89	C	0.676791	0.000087	0.156389
H90	H	0.622299	0.000074	0.125648
H91	H	0.696016	0.042550	0.138382
H92	H	0.696003	-0.042378	0.138386
C93	C	-0.003955	0.139514	-0.119584
H94	H	0.028017	0.179041	-0.120213
H95	H	-0.051485	0.142281	-0.173994
H96	H	-0.012950	0.142272	-0.064028
H97	H	0.137752	-0.120309	-0.122427
C98	C	0.926857	-0.185738	0.009462
H99	H	0.964835	-0.219530	0.047752
H100	H	0.947345	-0.155823	-0.024355
H101	H	0.911663	-0.155856	0.048638
C102	C	0.926870	-0.346686	0.009451
H103	H	0.964851	-0.312878	0.047735
H104	H	0.911689	-0.376598	0.048619
H105	H	0.947358	-0.376569	-0.024386
H106	H	0.677252	-0.335805	-0.242179
H107	H	0.677231	-0.196755	-0.242175
H108	H	1.001611	0.000124	0.496051
C109	C	0.659067	-0.814066	-0.260571
H110	H	0.668205	-0.865198	-0.251371
H111	H	0.615025	-0.801524	-0.250492
H112	H	0.650707	-0.801501	-0.323485
C113	C	0.561918	0.000076	0.235506
H114	H	0.532721	0.000069	0.272027
H115	H	0.549943	0.042536	0.196659
H116	H	0.549925	-0.042392	0.196660
H117	H	0.596133	0.000054	0.567322
C118	C	1.055062	0.000139	0.377348
H119	H	1.061305	0.000140	0.441322
H120	H	1.078515	-0.042317	0.365952
H121	H	1.078526	0.042611	0.365961
C122	C	1.005420	0.000142	0.170794
H123	H	1.055464	0.000155	0.221019
H124	H	0.998957	-0.042319	0.132903
H125	H	0.998967	0.042608	0.132903
H126	H	0.448168	0.120506	-0.128674
H127	H	0.902366	0.000116	0.564394
