data_functionalizedCrystal
_audit_creation_method	'MofGen! by Chris Wilmer'
_symmetry_space_group_name_H-M	'P1'
_symmetry_Int_Tables_number	1
_symmetry_cell_setting	triclinic
loop_
_symmetry_equiv_pos_as_xyz
  x,y,z
_cell_length_a	16.120490
_cell_length_b	16.120484
_cell_length_c	16.120297
_cell_angle_alpha	95.614431
_cell_angle_beta	90.129683
_cell_angle_gamma	90.164100
loop_
_atom_site_label
_atom_site_type_symbol
_atom_site_fract_x
_atom_site_fract_y
_atom_site_fract_z
Zn1	Zn	1.224990	-0.422331	-0.554787
Zn2	Zn	1.558323	-0.088997	-0.221453
Zn3	Zn	1.891657	0.244336	0.111880
Zn4	Zn	1.224886	-0.555015	-0.422092
Zn5	Zn	1.558219	-0.221681	-0.088758
Zn6	Zn	1.891552	0.111652	0.244575
Zn7	Zn	1.093729	-0.408239	-0.408032
Zn8	Zn	1.427062	-0.074906	-0.074699
Zn9	Zn	1.760396	0.258427	0.258634
Zn10	Zn	1.078882	-0.554239	-0.554027
Zn11	Zn	1.412216	-0.220906	-0.220694
Zn12	Zn	1.745549	0.112427	0.112639
O13	O	1.155622	-0.484956	-0.484735
O14	O	1.488955	-0.151623	-0.151401
O15	O	1.822288	0.181711	0.181932
O16	O	1.341012	-0.446153	-0.543386
O17	O	1.674346	-0.112820	-0.210053
O18	O	2.007679	0.220513	0.123280
O19	O	1.213657	-0.529972	-0.303594
O20	O	1.546990	-0.196639	0.029739
O21	O	1.880324	0.136695	0.363073
O22	O	1.117398	-0.293478	-0.421933
O23	O	1.450731	0.039855	-0.088600
O24	O	1.784065	0.373188	0.244733
O25	O	1.340936	-0.543636	-0.445896
O26	O	1.674269	-0.210303	-0.112562
O27	O	2.007602	0.123031	0.220771
O28	O	1.213835	-0.303831	-0.529753
O29	O	1.547168	0.029502	-0.196420
O30	O	1.880502	0.362835	0.136913
O31	O	1.117297	-0.422137	-0.293264
O32	O	1.450630	-0.088803	0.040069
O33	O	1.783963	0.244530	0.373402
O34	O	0.975724	-0.421385	-0.421197
O35	O	1.309057	-0.088051	-0.087864
O36	O	1.642390	0.245282	0.245470
O37	O	1.092094	-0.542314	-0.670761
O38	O	1.425428	-0.208981	-0.337428
O39	O	1.758761	0.124353	-0.004094
O40	O	0.964816	-0.528650	-0.528459
O41	O	1.298149	-0.195317	-0.195126
O42	O	1.631483	0.138016	0.138208
O43	O	1.199439	-0.445401	-0.671319
O44	O	1.532772	-0.112068	-0.337986
O45	O	1.866106	0.221265	-0.004652
O46	O	1.199261	-0.671542	-0.445159
O47	O	1.532594	-0.338209	-0.111826
O48	O	1.865928	-0.004876	0.221507
O49	O	1.091993	-0.670972	-0.542092
O50	O	1.425326	-0.337639	-0.208759
O51	O	1.758660	-0.004306	0.124575
C52	C	0.940183	-0.473405	-0.473221
C53	C	1.273516	-0.140072	-0.139887
C54	C	1.606849	0.193262	0.193446
C55	C	0.848015	-0.468484	-0.468316
C56	C	1.181348	-0.135151	-0.134982
C57	C	1.514682	0.198182	0.198351
C58	C	0.632820	-0.510474	-0.510179
C59	C	0.966154	-0.177140	-0.176845
C60	C	1.299487	0.156193	0.156488
C61	C	0.679267	-0.459508	-0.459359
C62	C	1.012601	-0.126175	-0.126026
C63	C	1.345934	0.207159	0.207307
C64	C	0.773167	-0.464504	-0.464344
C65	C	1.106501	-0.131171	-0.131011
C66	C	1.439834	0.202163	0.202323
C67	C	0.538912	-0.505479	-0.505195
C68	C	0.872245	-0.172146	-0.171862
C69	C	1.205579	0.161188	0.161471
C70	C	1.144026	-0.701500	-0.495088
C71	C	1.477359	-0.368167	-0.161755
C72	C	1.810693	-0.034834	0.171578
C73	C	1.139140	-0.794144	-0.499550
C74	C	1.472473	-0.460811	-0.166216
C75	C	1.805806	-0.127478	0.167117
C76	C	1.130223	-0.963767	-0.507712
C77	C	1.463556	-0.630434	-0.174379
C78	C	1.796889	-0.297100	0.158955
C79	C	1.181169	-1.005313	-0.461779
C80	C	1.514502	-0.671980	-0.128445
C81	C	1.847835	-0.338647	0.204888
C82	C	1.176207	-1.099697	-0.466320
C83	C	1.509541	-0.766364	-0.132987
C84	C	1.842874	-0.433030	0.200346
C85	C	1.135183	-0.869375	-0.503171
C86	C	1.468516	-0.536041	-0.169838
C87	C	1.801850	-0.202708	0.163495
C88	C	1.371902	-0.496553	-0.496294
C89	C	1.705235	-0.163220	-0.162961
C90	C	2.038569	0.170114	0.170373
C91	C	1.464068	-0.501495	-0.501220
C92	C	1.797401	-0.168162	-0.167887
C93	C	2.130734	0.165172	0.165447
C94	C	1.144122	-0.495343	-0.702127
C95	C	1.477456	-0.162010	-0.368794
C96	C	1.810789	0.171324	-0.035460
C97	C	1.139222	-0.499770	-0.794767
C98	C	1.472555	-0.166436	-0.461433
C99	C	1.805889	0.166897	-0.128100
C100	C	1.167284	-0.267568	-0.474360
C101	C	1.500618	0.065765	-0.141027
C102	C	1.833951	0.399098	0.192307
C103	C	1.172254	-0.174931	-0.469939
C104	C	1.505588	0.158403	-0.136605
C105	C	1.838921	0.491736	0.196728
C106	C	1.130245	-0.507831	-0.964378
C107	C	1.463579	-0.174497	-0.631045
C108	C	1.796912	0.158836	-0.297712
C109	C	1.181175	-0.461840	-1.005939
C110	C	1.514508	-0.128507	-0.672606
C111	C	1.847841	0.204826	-0.339273
C112	C	1.176180	-0.466326	-1.100317
C113	C	1.509514	-0.132992	-0.766984
C114	C	1.842847	0.200341	-0.433650
C115	C	1.135239	-0.503346	-0.869992
C116	C	1.468572	-0.170013	-0.536659
C117	C	1.801905	0.163320	-0.203325
C118	C	1.167128	-0.474552	-0.268187
C119	C	1.500461	-0.141218	0.065146
C120	C	1.833794	0.192115	0.398479
C121	C	1.172201	-0.469899	-0.175545
C122	C	1.505534	-0.136566	0.157788
C123	C	1.838868	0.196767	0.491121
H124	H	0.663575	-0.557856	-0.557426
H125	H	0.996908	-0.224522	-0.224092
H126	H	1.330241	0.108811	0.109241
C127	C	1.066284	-0.565575	-1.012054
C128	C	1.399617	-0.232242	-0.678720
C129	C	1.732951	0.101091	-0.345387
H130	H	1.034981	-0.593842	-0.973568
H131	H	1.368315	-0.260508	-0.640235
H132	H	1.701648	0.072825	-0.306902
H133	H	1.094300	-0.605168	-1.049451
H134	H	1.427633	-0.271834	-0.716118
H135	H	1.760966	0.061499	-0.382785
H136	H	1.030100	-0.533335	-1.042552
H137	H	1.363433	-0.200002	-0.709218
H138	H	1.696766	0.133332	-0.375885
H139	H	1.228511	-0.969997	-0.419042
H140	H	1.561844	-0.636664	-0.085709
H141	H	1.895178	-0.303331	0.247624
H142	H	1.082883	-0.999080	-0.550444
H143	H	1.416217	-0.665747	-0.217110
H144	H	1.749550	-0.332414	0.116223
H145	H	1.228527	-0.419097	-0.970641
H146	H	1.561860	-0.085764	-0.637308
H147	H	1.895194	0.247569	-0.303974
C148	C	0.637724	-0.395491	-0.395530
C149	C	0.971058	-0.062158	-0.062196
C150	C	1.304391	0.271175	0.271137
H151	H	0.579148	-0.400491	-0.400508
H152	H	0.912481	-0.067157	-0.067174
H153	H	1.245814	0.266176	0.266159
H154	H	0.654213	-0.340837	-0.405879
H155	H	0.987546	-0.007503	-0.072545
H156	H	1.320880	0.325830	0.260788
H157	H	0.654172	-0.405666	-0.340820
H158	H	0.987505	-0.072332	-0.007487
H159	H	1.320839	0.261001	0.325847
