data_functionalizedCrystal
_audit_creation_method	'MofGen! by Chris Wilmer'
_symmetry_space_group_name_H-M	'P1'
_symmetry_Int_Tables_number	1
_symmetry_cell_setting	triclinic
loop_
_symmetry_equiv_pos_as_xyz
  x,y,z
_cell_length_a	17.699083
_cell_length_b	17.699082
_cell_length_c	16.176319
_cell_angle_alpha	89.995130
_cell_angle_beta	90.001389
_cell_angle_gamma	96.717252
loop_
_atom_site_label
_atom_site_type_symbol
_atom_site_fract_x
_atom_site_fract_y
_atom_site_fract_z
O1	O	-1.004078	0.095713	-0.068627
O2	O	-0.504078	0.595713	0.431373
O3	O	-0.783700	0.108166	-0.068654
O4	O	-0.283700	0.608166	0.431346
O5	O	-0.900116	-0.008250	-0.068638
O6	O	-0.400116	0.491750	0.431362
O7	O	-0.887662	0.212129	-0.068643
O8	O	-0.387662	0.712129	0.431357
O9	O	-0.900100	-0.008257	0.068855
O10	O	-0.400100	0.491743	0.568855
O11	O	-0.783684	0.108158	0.068839
O12	O	-0.283684	0.608158	0.568839
O13	O	-1.004062	0.095706	0.068866
O14	O	-0.504062	0.595706	0.568866
Cu15	Cu	-0.893872	0.101931	0.081407
Cu16	Cu	-0.393872	0.601931	0.581407
Cu17	Cu	-0.893891	0.101940	-0.081195
Cu18	Cu	-0.393891	0.601940	0.418805
O19	O	-0.887646	0.212121	0.068851
O20	O	-0.387646	0.712121	0.568851
C21	C	-0.755495	0.107716	0.000089
C22	C	-0.255495	0.607716	0.500089
C23	C	-0.671477	0.106377	0.000079
C24	C	-0.171477	0.606377	0.500079
C25	C	-0.899662	-0.036451	0.000107
C26	C	-0.399662	0.463549	0.500107
C27	C	-0.898324	-0.120469	0.000102
C28	C	-0.398324	0.379531	0.500102
C29	C	-1.032267	0.096156	0.000121
C30	C	-0.532267	0.596156	0.500121
C31	C	-1.116285	0.097494	0.000126
C32	C	-0.616285	0.597494	0.500126
C33	C	-0.622856	0.174711	0.000078
C34	C	-0.122856	0.674711	0.500078
C35	C	-0.543912	0.173448	0.000089
C36	C	-0.043912	0.673448	0.500089
C37	C	-0.513592	0.103852	0.000095
C38	C	-0.013592	0.603852	0.500095
C39	C	-0.562219	0.035513	0.000098
C40	C	-0.062219	0.535513	0.500098
C41	C	-0.641161	0.036776	0.000093
C42	C	-0.141161	0.536776	0.500093
C43	C	-0.243856	0.030418	0.000119
C44	C	0.256144	0.530418	0.500119
C45	C	-0.164908	0.029160	0.000121
C46	C	0.335092	0.529160	0.500121
C47	C	-0.146607	0.167090	0.000114
C48	C	0.353393	0.667090	0.500114
C49	C	-0.225549	0.168353	0.000109
C50	C	0.274451	0.668353	0.500109
C51	C	-0.274170	0.100015	0.000117
C52	C	0.225830	0.600015	0.500117
C53	C	-0.359769	0.101384	0.000107
C54	C	0.140231	0.601384	0.500107
C55	C	-0.427994	0.102481	0.000099
C56	C	0.072006	0.602481	0.500099
N57	N	-0.893864	0.101925	0.195772
N58	N	-0.393864	0.601925	0.695772
C59	C	-0.888100	0.240322	0.000104
C60	C	-0.388100	0.740322	0.500104
C61	C	-0.889439	0.324340	0.000103
C62	C	-0.389439	0.824340	0.500103
C63	C	-0.890077	0.363813	-0.074846
C64	C	-0.390077	0.863813	0.425154
C65	C	-0.891344	0.442756	-0.074847
C66	C	-0.391344	0.942756	0.425153
C67	C	-0.891967	0.482225	0.000102
C68	C	-0.391967	0.982225	0.500102
C69	C	-0.891331	0.442746	0.075056
C70	C	-0.391331	0.942746	0.575056
C71	C	-0.890070	0.363804	0.075056
C72	C	-0.390070	0.863804	0.575056
C73	C	-0.896421	0.761110	0.075058
C74	C	-0.396421	1.261110	0.575058
C75	C	-0.897680	0.840057	0.075052
C76	C	-0.397680	1.340057	0.575052
C77	C	-0.897695	0.840062	-0.074845
C78	C	-0.397695	1.340062	0.425155
C79	C	-0.896433	0.761120	-0.074845
C80	C	-0.396433	1.261120	0.425155
C81	C	-0.895801	0.721647	0.000109
C82	C	-0.395801	1.221647	0.500109
C83	C	-0.894429	0.636048	0.000109
C84	C	-0.394429	1.136048	0.500109
C85	C	-0.893334	0.567823	0.000103
C86	C	-0.393334	1.067823	0.500103
N87	N	-0.893904	0.101941	-0.195560
N88	N	-0.393904	0.601941	0.304440
C89	C	-0.945428	0.050397	0.239043
C90	C	-0.445428	0.550397	0.739043
C91	C	-0.945432	0.050396	0.325590
C92	C	-0.445432	0.550396	0.825590
C93	C	-0.893875	0.101927	0.368865
C94	C	-0.393875	0.601927	0.868865
C95	C	-0.842305	0.153458	0.325588
C96	C	-0.342305	0.653458	0.825588
C97	C	-0.842298	0.153454	0.239042
C98	C	-0.342298	0.653454	0.739042
C99	C	-0.842331	0.153472	0.674616
C100	C	-0.342331	0.653472	1.174616
C101	C	-0.842343	0.153473	0.761168
C102	C	-0.342343	0.653473	1.261168
C103	C	-0.945465	0.050414	0.761164
C104	C	-0.445465	0.550414	1.261164
C105	C	-0.945458	0.050410	0.674619
C106	C	-0.445458	0.550410	1.174619
C107	C	-0.893886	0.101938	0.631349
C108	C	-0.393886	0.601938	1.131349
C109	C	-0.893881	0.101937	0.537505
C110	C	-0.393881	0.601937	1.037505
C111	C	-0.893882	0.101932	0.462707
C112	C	-0.393882	0.601932	0.962707
H113	H	-0.647536	0.231384	0.000073
H114	H	-0.147536	0.731384	0.500073
Br115	Br	-1.015435	-0.019522	0.615891
Br116	Br	-0.515435	0.480478	1.115891
Br117	Br	-0.707149	-0.055966	0.000102
Br118	Br	-0.207149	0.444034	0.500102
H119	H	-0.898184	0.872191	0.136087
H120	H	-0.398184	1.372191	0.636087
Br121	Br	-1.015409	-0.019537	0.180323
Br122	Br	-0.515409	0.480463	0.680323
Br123	Br	-0.892185	0.496309	0.176773
Br124	Br	-0.392185	0.996309	0.676773
Br125	Br	-0.477928	0.266191	0.000085
Br126	Br	0.022072	0.766191	0.500085
H127	H	-0.250231	0.225026	0.000101
H128	H	0.249769	0.725026	0.500101
H129	H	-0.889550	0.331666	0.136087
H130	H	-0.389550	0.831666	0.636087
Br131	Br	-1.015411	-0.019538	0.384318
Br132	Br	-0.515411	0.480462	0.884318
H133	H	-0.898211	0.872210	-0.135876
H134	H	-0.398211	1.372210	0.364124
H135	H	-0.987456	0.008455	0.796403
H136	H	-0.487456	0.508455	1.296403
H137	H	-0.107011	0.222734	0.000112
H138	H	0.392989	0.722734	0.500112
H139	H	-0.800356	0.195437	0.796400
H140	H	-0.300356	0.695437	1.296400
Br141	Br	-0.309831	-0.062327	0.000132
Br142	Br	0.190169	0.437673	0.500132
H143	H	-0.140225	-0.027517	0.000127
H144	H	0.359775	0.472483	0.500127
Br145	Br	-0.895582	0.707559	-0.176564
Br146	Br	-0.395582	1.207559	0.323436
H147	H	-0.800340	0.195428	0.639393
H148	H	-0.300340	0.695428	1.139393
H149	H	-0.800322	0.195413	0.360827
H150	H	-0.300322	0.695413	0.860827
H151	H	-0.800308	0.195412	0.203812
H152	H	-0.300308	0.695412	0.703812
Br153	Br	-0.521071	-0.058941	0.000114
Br154	Br	-0.021071	0.441059	0.500114
Br155	Br	-0.889222	0.310257	-0.176567
Br156	Br	-0.389222	0.810257	0.323433
H157	H	-0.895907	0.728980	0.136089
H158	H	-0.395907	1.228980	0.636089
Br159	Br	-0.892214	0.496323	-0.176567
Br160	Br	-0.392214	0.996323	0.323433
