data_functionalizedCrystal
_audit_creation_method	'MofGen! by Chris Wilmer'
_symmetry_space_group_name_H-M	'P1'
_symmetry_Int_Tables_number	1
_symmetry_cell_setting	triclinic
loop_
_symmetry_equiv_pos_as_xyz
  x,y,z
_cell_length_a	9.065215
_cell_length_b	9.065218
_cell_length_c	8.140239
_cell_angle_alpha	89.998670
_cell_angle_beta	89.999269
_cell_angle_gamma	85.015325
loop_
_atom_site_label
_atom_site_type_symbol
_atom_site_fract_x
_atom_site_fract_y
_atom_site_fract_z
O1	O	-1.960398	-0.216335	0.136579
O2	O	-1.460398	0.283665	0.636579
O3	O	-1.531112	-0.234085	0.136588
O4	O	-1.031112	0.265915	0.636588
O5	O	-1.754628	-0.010568	0.136580
O6	O	-1.254628	0.489432	0.636580
O7	O	-1.736882	-0.439853	0.136587
O8	O	-1.236882	0.060147	0.636587
O9	O	-1.754621	-0.010566	-0.136647
O10	O	-1.254621	0.489434	0.363353
O11	O	-1.531105	-0.234084	-0.136639
O12	O	-1.031105	0.265916	0.363361
O13	O	-1.960390	-0.216333	-0.136648
O14	O	-1.460390	0.283667	0.363352
Zn15	Zn	-1.745747	-0.225208	-0.180024
Zn16	Zn	-1.245747	0.274792	0.319976
Zn17	Zn	-1.745756	-0.225210	0.179964
Zn18	Zn	-1.245756	0.274790	0.679964
O19	O	-1.736874	-0.439851	-0.136640
O20	O	-1.236874	0.060149	0.363360
C21	C	-1.476122	-0.232380	-0.000025
C22	C	-0.976122	0.267620	0.499975
C23	C	-1.312279	-0.227282	-0.000021
C24	C	-0.812279	0.272718	0.499979
C25	C	-1.752919	0.044420	-0.000031
C26	C	-1.252919	0.544420	0.499969
C27	C	-1.747819	0.208263	-0.000023
C28	C	-1.247819	0.708263	0.499977
C29	C	-1.015381	-0.218039	-0.000031
C30	C	-0.515381	0.281961	0.499969
C31	C	-1.179224	-0.223136	-0.000021
C32	C	-0.679224	0.276864	0.499979
C33	C	-1.738584	-0.494838	-0.000026
C34	C	-1.238584	0.005162	0.499974
C35	C	-1.743683	-0.658681	-0.000023
C36	C	-1.243683	-0.158681	0.499977
N37	N	-1.745751	-0.225206	-0.425707
N38	N	-1.245751	0.274794	0.074293
N39	N	-1.745763	-0.225201	0.425647
N40	N	-1.245763	0.274799	0.925647
