data_functionalizedCrystal
_audit_creation_method	'MofGen! by Chris Wilmer'
_symmetry_space_group_name_H-M	'P1'
_symmetry_Int_Tables_number	1
_symmetry_cell_setting	triclinic
loop_
_symmetry_equiv_pos_as_xyz
  x,y,z
_cell_length_a	14.560438
_cell_length_b	14.560438
_cell_length_c	14.560438
_cell_angle_alpha	60.000905
_cell_angle_beta	90.001034
_cell_angle_gamma	60.000378
loop_
_atom_site_label
_atom_site_type_symbol
_atom_site_fract_x
_atom_site_fract_y
_atom_site_fract_z
Zr1	Zr	0.884752	1.005292	-0.120514
O2	O	0.738102	1.196892	-0.267158
O3	O	0.929707	0.813691	-0.075562
O4	O	0.929703	1.005295	-0.267163
O5	O	0.738110	1.005286	0.075584
O6	O	1.080841	1.005297	-0.267164
O7	O	0.738107	1.005288	-0.075557
O8	O	1.080849	0.662553	0.075575
O9	O	0.738102	1.348030	-0.267155
O10	O	1.061673	0.892501	-0.056388
O11	O	0.948884	0.892497	0.056407
O12	O	0.948878	1.118086	-0.169178
O13	O	0.836088	1.118082	-0.056382
Zr14	Zr	1.125806	1.005292	0.120537
Zr15	Zr	1.125800	1.005296	-0.120515
Zr16	Zr	0.884758	1.005288	0.120538
Zr17	Zr	0.884752	1.246339	-0.120509
Zr18	Zr	1.125805	0.764244	0.120532
O19	O	1.080850	1.196892	0.075585
O20	O	1.080841	1.196898	-0.267160
O21	O	0.738111	1.196887	0.075587
O22	O	1.272455	0.813691	0.267181
O23	O	1.272447	0.813697	-0.075564
O24	O	0.929716	0.813685	0.267183
O25	O	1.272447	1.005297	-0.075561
O26	O	1.080855	1.005288	0.267186
O27	O	0.929716	1.005286	0.267187
O28	O	1.272451	1.005295	0.075580
O29	O	0.929703	1.348034	-0.267156
O30	O	1.080854	0.662550	0.267179
O31	O	1.272455	0.662553	0.267178
O32	O	1.272450	0.662556	0.075573
O33	O	0.738107	1.348027	-0.075551
O34	O	0.929708	1.348030	-0.075552
O35	O	1.061679	0.892497	0.169201
O36	O	1.174469	0.892501	0.056405
O37	O	1.061674	1.118086	-0.056384
O38	O	0.948884	1.118082	0.056411
C39	C	1.005278	0.703778	0.000006
C40	C	1.005278	0.601447	0.000004
C41	C	1.064151	0.553373	-0.058874
C42	C	1.064155	0.457213	-0.058864
C43	C	0.946405	0.457215	0.058905
C44	C	0.946408	0.553366	0.058900
C45	C	0.703764	1.005287	0.000014
C46	C	0.601433	1.005285	0.000014
C47	C	0.612233	0.887534	0.058885
C48	C	0.516078	0.887540	0.058886
C49	C	0.398327	1.123059	-0.058864
C50	C	0.494481	1.123051	-0.058858
C51	C	1.306793	1.005297	0.000009
C52	C	1.409124	1.005299	0.000009
C53	C	1.005271	1.005297	-0.301508
C54	C	1.005268	1.005299	-0.403841
C55	C	1.005279	1.306806	0.000017
C56	C	1.005279	1.409137	0.000019
C57	C	0.946392	1.123049	-0.510792
C58	C	0.946405	1.123043	-0.606941
C59	C	1.064173	0.887525	-0.489174
C60	C	1.064166	0.887532	-0.393027
C61	C	1.005286	1.005287	0.301531
C62	C	1.005289	1.005285	0.403864
C63	C	1.306793	0.703783	0.000004
C64	C	1.409124	0.601454	0.000001
C65	C	1.005286	0.703773	0.301525
C66	C	1.005288	0.601440	0.403856
C67	C	1.306800	0.703778	0.301523
C68	C	1.409134	0.601447	0.403853
C69	C	0.703757	1.306806	-0.301500
C70	C	0.601424	1.409137	-0.403830
C71	C	0.703765	1.306800	0.000019
C72	C	0.601434	1.409130	0.000022
C73	C	1.005272	1.306811	-0.301502
C74	C	1.005269	1.409143	-0.403833
C75	C	1.398324	0.553377	-0.058875
C76	C	1.494478	0.457235	-0.058881
C77	C	1.612230	0.457253	0.058873
C78	C	1.516076	0.553399	0.058872
C79	C	1.064166	0.553362	0.510809
C80	C	1.064156	0.457219	0.606956
C81	C	0.946387	0.457236	0.489184
C82	C	0.946392	0.553384	0.393039
C83	C	1.516086	0.553371	0.393053
C84	C	1.612235	0.457229	0.489207
C85	C	1.494467	0.457242	0.606958
C86	C	1.398320	0.553390	0.510805
H87	H	1.112088	0.592516	-0.106829
H88	H	1.112124	0.791644	-0.480383
O89	O	0.526368	0.773273	0.116054
C90	C	0.418570	0.798524	0.103410
H91	H	0.354840	0.899725	0.081733
H92	H	0.394068	0.792949	0.032915
C93	C	0.498276	0.572636	0.240730
C94	C	0.420003	0.696929	0.214115
H95	H	0.499160	0.509965	0.309016
H96	H	0.570903	0.555622	0.249246
H97	H	0.477849	0.568009	0.181976
H98	H	0.440439	0.701560	0.272862
H99	H	0.347380	0.713942	0.205611
O100	O	1.121378	0.599958	0.521513
C101	C	1.173360	0.536883	0.636534
H102	H	1.127179	0.497259	0.687804
H103	H	1.264749	0.453379	0.664867
C104	C	1.225793	0.682979	0.591675
C105	C	1.169067	0.634321	0.654645
H106	H	1.223150	0.743080	0.602847
H107	H	1.190776	0.725471	0.514183
H108	H	1.301946	0.613381	0.615293
H109	H	1.092913	0.703916	0.631017
H110	H	1.204072	0.591843	0.732134
H111	H	1.311229	0.592537	0.519608
O112	O	1.294348	0.600168	-0.115970
C113	C	1.211792	0.695362	-0.103371
H114	H	1.249255	0.679579	-0.023850
H115	H	1.181712	0.795930	-0.179444
C116	C	1.065623	0.704199	-0.191936
C117	C	1.111634	0.684807	-0.094261
H118	H	1.003838	0.697694	-0.186321
H119	H	1.121242	0.640069	-0.200428
H120	H	1.040566	0.788006	-0.255320
H121	H	1.136703	0.600997	-0.030881
H122	H	1.056017	0.748924	-0.085757
H123	H	1.485677	0.418100	0.694048
O124	O	0.889172	1.237558	-0.521494
C125	C	0.837187	1.341486	-0.636514
H126	H	0.883375	1.306956	-0.687785
H127	H	0.745802	1.377691	-0.664849
C128	C	0.784730	1.495155	-0.591648
C129	C	0.841464	1.452748	-0.654619
H130	H	0.787362	1.563790	-0.602818
H131	H	0.819748	1.425139	-0.514157
H132	H	0.708580	1.525317	-0.615268
H133	H	0.917614	1.422572	-0.630990
H134	H	0.806458	1.522763	-0.732108
H135	H	0.898466	0.592506	0.106851
O136	O	1.716212	0.410446	0.478916
C137	C	1.798760	0.315271	0.586714
H138	H	1.761276	0.331050	0.650444
H139	H	1.828868	0.214693	0.611212
C140	C	1.944931	0.306475	0.507008
C141	C	1.898896	0.325863	0.585282
H142	H	2.006703	0.313003	0.506125
H143	H	1.889318	0.370593	0.434382
H144	H	1.970012	0.222660	0.527433
H145	H	1.873803	0.409682	0.564848
H146	H	1.954507	0.261759	0.657905
H147	H	1.112099	0.418079	0.694038
H148	H	1.524878	0.592547	0.106816
H149	H	0.485679	1.218944	-0.106795
H150	H	0.898474	0.418056	0.106854
H151	H	0.898463	1.218928	-0.694022
O152	O	0.889215	0.600273	0.289052
C153	C	0.901871	0.695419	0.206514
H154	H	0.923557	0.737460	0.243995
H155	H	0.972364	0.649422	0.176439
C156	C	0.764541	0.753061	0.060317
C157	C	0.791167	0.804704	0.106349
H158	H	0.696256	0.820471	-0.001473
H159	H	0.756017	0.688956	0.115923
H160	H	0.823294	0.714731	0.035264
H161	H	0.732422	0.843018	0.131414
H162	H	0.799678	0.868819	0.050745
H163	H	1.112096	0.418072	-0.106806
H164	H	0.699314	0.791641	0.106835
O165	O	1.483786	0.410632	-0.116088
C166	C	1.368769	0.473693	-0.168070
H167	H	1.317492	0.513308	-0.121887
H168	H	1.340430	0.557202	-0.259457
C169	C	1.413655	0.327599	-0.220513
C170	C	1.350677	0.376245	-0.163783
H171	H	1.402494	0.267492	-0.217874
H172	H	1.491145	0.285116	-0.185495
H173	H	1.390033	0.397201	-0.296664
H174	H	1.374310	0.306646	-0.087631
H175	H	1.273190	0.418714	-0.198788
H176	H	1.524896	0.592499	0.305972
H177	H	0.311237	1.218940	-0.106797
H178	H	1.112116	0.791640	-0.305936
H179	H	0.898438	0.418095	0.480391
H180	H	1.699320	0.418113	0.106806
