data_functionalizedCrystal
_audit_creation_method	'MofGen! by Chris Wilmer'
_symmetry_space_group_name_H-M	'P1'
_symmetry_Int_Tables_number	1
_symmetry_cell_setting	triclinic
loop_
_symmetry_equiv_pos_as_xyz
  x,y,z
_cell_length_a	6.817900
_cell_length_b	17.329528
_cell_length_c	17.110486
_cell_angle_alpha	92.675316
_cell_angle_beta	99.060439
_cell_angle_gamma	103.027692
loop_
_atom_site_label
_atom_site_type_symbol
_atom_site_fract_x
_atom_site_fract_y
_atom_site_fract_z
V1	V	-3.971147	-0.108505	-0.239566
O2	O	-3.965663	0.005455	-0.242383
O3	O	-3.917327	-0.215379	-0.230832
O4	O	-3.901098	-0.106731	-0.347286
O5	O	-3.982004	-0.103946	-0.125123
V6	V	-4.458282	-0.094887	-0.226740
O7	O	-4.224481	-0.138378	-0.267702
O8	O	-4.655145	-0.065014	-0.198604
O9	O	-4.288895	0.011987	-0.235474
O10	O	-4.581163	-0.208847	-0.223922
O11	O	-4.564822	-0.099446	-0.341183
O12	O	-4.305123	-0.096662	-0.119019
C13	C	-3.761710	-0.241436	-0.225222
C14	C	-3.798849	-0.328806	-0.218799
C15	C	-3.741008	-0.102843	-0.373770
C16	C	-3.764984	-0.102099	-0.461785
C17	C	-4.007496	-0.822382	-0.178804
C18	C	-3.972614	-0.740291	-0.184852
C19	C	-3.980205	-0.710410	-0.259607
C20	C	-4.022660	-0.762625	-0.328317
C21	C	-4.057526	-0.844714	-0.322268
C22	C	-3.876170	-0.463111	-0.281460
C23	C	-3.841306	-0.381015	-0.287504
C24	C	-3.791259	-0.358687	-0.144039
C25	C	-3.826140	-0.440779	-0.137996
C26	C	-3.868581	-0.492986	-0.206706
C27	C	-3.944557	-0.626500	-0.265791
C28	C	-3.904213	-0.576894	-0.200521
C29	C	-3.957335	-0.105672	-0.506907
C30	C	-3.979851	-0.104973	-0.589607
C31	C	-3.810015	-0.100706	-0.627183
C32	C	-3.617647	-0.097130	-0.582054
C33	C	-3.595131	-0.097824	-0.499356
C34	C	-3.868936	-0.098410	-0.876689
C35	C	-3.891468	-0.097719	-0.959394
C36	C	-4.253671	-0.105560	-0.966940
C37	C	-4.231140	-0.106258	-0.884240
C38	C	-4.038773	-0.102678	-0.839119
C39	C	-3.833026	-0.099993	-0.711715
C40	C	-4.015762	-0.103385	-0.754588
C41	C	-4.107854	0.038040	-0.241081
C42	C	-4.049952	0.125409	-0.247509
C43	C	-4.128557	-0.100552	-0.092532
C44	C	-4.083820	-0.101292	-0.004516
H45	H	-4.001320	-0.846704	-0.117931
H46	H	-4.410290	-0.108473	-1.003687
O47	O	-3.952273	-0.597439	-0.338395
C48	C	-4.113983	-0.521467	-0.431947
C49	C	-4.105507	-0.554350	-0.349714
H50	H	-4.237833	-0.486608	-0.441118
H51	H	-4.150452	-0.572851	-0.480059
H52	H	-3.959812	-0.480551	-0.435521
H53	H	-4.259628	-0.595255	-0.346062
H54	H	-4.068929	-0.502928	-0.301641
H55	H	-4.095641	-0.109152	-0.476320
H56	H	-3.438490	-0.094895	-0.462616
O57	O	-3.917074	-0.513845	-0.348171
C58	C	-3.813454	-0.615715	-0.421089
C59	C	-3.766855	-0.558278	-0.345508
H60	H	-3.692054	-0.651666	-0.418953
H61	H	-3.812802	-0.580296	-0.475583
H62	H	-3.970115	-0.657745	-0.424658
H63	H	-3.610190	-0.516235	-0.341862
H64	H	-3.767642	-0.593748	-0.291050
O65	O	-3.819000	-0.469939	-0.065444
C66	C	-3.850600	-0.586507	0.007453
C67	C	-3.858731	-0.553590	-0.074761
H68	H	-3.882674	-0.654142	-0.000051
H69	H	-3.970537	-0.567983	0.038794
H70	H	-3.692405	-0.561753	0.044489
H71	H	-4.016843	-0.578328	-0.111861
H72	H	-3.738683	-0.572108	-0.106041
H73	H	-3.756697	-0.316171	-0.088099
H74	H	-4.369443	-0.109731	-0.853652
H75	H	-3.847532	-0.356691	-0.348382
H76	H	-4.028825	-0.738289	-0.389184
H77	H	-4.092091	-0.887222	-0.378215
H78	H	-3.898023	-0.601227	-0.139656
O79	O	-4.166814	-0.108579	-0.633410
C80	C	-4.515727	-0.183421	-0.671348
C81	C	-4.304077	-0.179454	-0.621721
H82	H	-4.626773	-0.240711	-0.661901
H83	H	-4.502817	-0.182238	-0.736927
H84	H	-4.574311	-0.130212	-0.651910
H85	H	-4.245370	-0.232652	-0.641089
H86	H	-4.317111	-0.180599	-0.556152
H87	H	-3.753155	-0.094241	-0.989985
H88	H	-3.712315	-0.095523	-0.839963
H89	H	-3.694751	-0.096522	-0.742319
O90	O	-3.452768	-0.092881	-0.618635
C91	C	-3.235515	-0.019132	-0.701358
C92	C	-3.422307	-0.023853	-0.659989
H93	H	-3.210802	0.036681	-0.734789
H94	H	-3.263146	-0.073823	-0.744965
H95	H	-3.094210	-0.016735	-0.654890
H96	H	-3.563696	-0.026225	-0.706400
H97	H	-3.394501	0.030836	-0.616367
H98	H	-3.938051	-0.697785	-0.128905
H99	H	-4.154039	-0.106856	-0.723989
