data_functionalizedCrystal
_audit_creation_method	'MofGen! by Chris Wilmer'
_symmetry_space_group_name_H-M	'P1'
_symmetry_Int_Tables_number	1
_symmetry_cell_setting	triclinic
loop_
_symmetry_equiv_pos_as_xyz
  x,y,z
_cell_length_a	18.050591
_cell_length_b	25.639240
_cell_length_c	18.050582
_cell_angle_alpha	90.031820
_cell_angle_beta	90.020922
_cell_angle_gamma	90.028762
loop_
_atom_site_label
_atom_site_type_symbol
_atom_site_fract_x
_atom_site_fract_y
_atom_site_fract_z
Zn1	Zn	1.135269	-0.208240	0.419984
Zn2	Zn	1.135170	-0.295667	0.295774
Zn3	Zn	1.011088	-0.208242	0.295795
Zn4	Zn	1.011026	-0.295640	0.419909
O5	O	1.073138	-0.251947	0.357865
O6	O	1.239181	-0.219848	0.403529
O7	O	1.118695	-0.284083	0.191852
O8	O	1.027629	-0.135076	0.312309
O9	O	1.239108	-0.284081	0.312273
O10	O	1.118864	-0.135075	0.403550
O11	O	1.027532	-0.219851	0.191867
O12	O	0.907156	-0.219825	0.312236
O13	O	1.027523	-0.284034	0.523844
O14	O	0.907110	-0.284036	0.403423
O15	O	1.118804	-0.219821	0.523898
O16	O	1.118635	-0.368829	0.312200
O17	O	1.027427	-0.368809	0.403402
C18	C	0.880186	-0.251928	0.357824
C19	C	0.797641	-0.251932	0.357824
C20	C	0.598193	-0.216974	0.308351
C21	C	0.548768	-0.264661	0.290064
C22	C	0.646510	-0.251948	0.357858
C23	C	0.548854	-0.204277	0.376143
C24	C	0.500525	-0.251959	0.357889
C25	C	0.598172	-0.299660	0.339535
C26	C	0.598262	-0.239244	0.425646
C27	C	0.548859	-0.286965	0.407384
C28	C	0.730608	-0.251941	0.357838
C29	C	0.416429	-0.251971	0.357909
C30	C	1.073034	-0.387790	0.357807
C31	C	1.073057	-0.445904	0.357807
C32	C	1.120668	-0.806228	0.405460
C33	C	1.120690	-0.860832	0.405475
O34	O	1.161046	-0.889035	0.445932
N35	N	1.073241	-0.888186	0.357937
C36	C	1.025763	-0.860933	0.310386
O37	O	0.985405	-0.889214	0.269953
C38	C	1.025738	-0.806330	0.310375
C39	C	1.073195	-0.778979	0.357911
C40	C	1.168121	-0.778876	0.452993
C41	C	1.168100	-0.724275	0.452977
C42	C	1.120626	-0.697027	0.405428
C43	C	1.073173	-0.724378	0.357895
C44	C	0.978255	-0.779078	0.262828
C45	C	0.978234	-0.724471	0.262822
C46	C	1.025691	-0.697120	0.310358
C47	C	1.025679	-0.642529	0.310330
N48	N	1.073127	-0.615174	0.357868
C49	C	1.120601	-0.642423	0.405417
C50	C	1.025818	-0.975604	0.310413
C51	C	1.025846	-1.030206	0.310420
C52	C	1.120773	-1.030101	0.405510
C53	C	1.120748	-0.975498	0.405499
C54	C	1.073267	-0.948250	0.357951
C55	C	1.120553	-0.527758	0.405379
C56	C	1.120530	-0.473153	0.405356
C57	C	1.025601	-0.473263	0.310269
C58	C	1.025627	-0.527863	0.310288
C59	C	1.073105	-0.555110	0.357849
O60	O	0.985341	-0.614291	0.269896
O61	O	1.160944	-0.614136	0.445850
C62	C	1.266844	-0.251967	0.357907
C63	C	1.349390	-0.251976	0.357925
C64	C	1.073168	-0.251924	0.551571
C65	C	1.073180	-0.251914	0.634117
C66	C	1.073264	-0.115574	0.357940
C67	C	1.073318	-0.057460	0.357972
C68	C	1.073152	-0.251933	0.164913
C69	C	1.073284	-0.251795	0.082368
C70	C	1.023580	-0.286785	0.833538
C71	C	1.091333	-0.299569	0.882933
C72	C	1.073217	-0.251874	0.785247
C73	C	1.005500	-0.239076	0.882934
C74	C	1.073246	-0.251837	0.931232
C75	C	1.141006	-0.264683	0.833556
C76	C	1.055127	-0.204168	0.833551
C77	C	1.122927	-0.216933	0.882925
C78	C	1.073199	-0.251897	0.701149
C79	C	1.073272	-0.251814	1.015329
H80	H	0.620019	-0.228476	0.482942
N81	N	1.171962	-1.059487	0.456825
H82	H	1.225033	-1.049966	0.445361
H83	H	1.164712	-1.098220	0.449608
N84	N	0.974672	-1.059704	0.259138
H85	H	0.944599	-1.034151	0.229015
H86	H	0.940289	-1.082363	0.289334
N87	N	1.171769	-0.557133	0.456676
H88	H	1.206218	-0.579784	0.426541
H89	H	1.141531	-0.579756	0.491066
N90	N	1.219274	-0.694778	0.504258
H91	H	1.253707	-0.672118	0.474118
H92	H	1.249295	-0.720365	0.534371
N93	N	0.626899	-0.177838	0.252844
H94	H	0.583772	-0.160322	0.227332
H95	H	0.658443	-0.196322	0.214822
H96	H	1.206779	-0.801056	0.491717
N97	N	0.626737	-0.353083	0.318967
H98	H	0.608371	-0.379537	0.356118
H99	H	0.682686	-0.352700	0.319047
H100	H	0.527150	-0.163963	0.391570
N101	N	1.171932	-0.945999	0.456770
H102	H	1.202008	-0.971552	0.486890
H103	H	1.141670	-0.923346	0.491107
H104	H	1.159178	-0.450885	0.444065
H105	H	0.987155	-0.953421	0.271688
H106	H	0.939611	-0.801339	0.224119
N107	N	1.111623	-0.352988	0.911666
H108	H	1.069891	-0.366922	0.943236
H109	H	1.158235	-0.350448	0.942427
H110	H	0.527029	-0.275415	0.232751
H111	H	0.527335	-0.316580	0.449263
N112	N	1.034812	-0.150767	0.804783
H113	H	1.025112	-0.126579	0.847879
H114	H	0.988785	-0.153455	0.773176
N115	N	0.927019	-0.695083	0.211539
H116	H	0.896963	-0.720699	0.181430
H117	H	0.957260	-0.672429	0.177192
N118	N	0.974452	-0.557368	0.259010
H119	H	0.944377	-0.531818	0.228884
H120	H	0.940070	-0.580023	0.289213
N121	N	0.974404	-0.443868	0.258981
H122	H	0.981594	-0.405127	0.266190
H123	H	0.921360	-0.453433	0.270489
N124	N	0.968029	-0.325938	0.804806
H125	H	0.981806	-0.361952	0.822769
H126	H	0.968102	-0.325395	0.748861
H127	H	1.198302	-0.275538	0.811957
H128	H	1.164965	-0.187394	0.904472
H129	H	0.948221	-0.228267	0.904624
