data_functionalizedCrystal
_audit_creation_method	'MofGen! by Chris Wilmer'
_symmetry_space_group_name_H-M	'P1'
_symmetry_Int_Tables_number	1
_symmetry_cell_setting	triclinic
loop_
_symmetry_equiv_pos_as_xyz
  x,y,z
_cell_length_a	13.635800
_cell_length_b	27.923327
_cell_length_c	17.078481
_cell_angle_alpha	82.775307
_cell_angle_beta	99.306161
_cell_angle_gamma	81.039279
loop_
_atom_site_label
_atom_site_type_symbol
_atom_site_fract_x
_atom_site_fract_y
_atom_site_fract_z
V1	V	1.978723	-0.067011	0.247858
O2	O	1.984575	0.003337	0.242628
O3	O	1.943721	-0.132984	0.246655
O4	O	1.944425	-0.065929	0.355733
O5	O	1.983866	-0.064182	0.132795
V6	V	2.223245	-0.058603	0.234036
O7	O	2.103297	-0.085456	0.278178
O8	O	2.323771	-0.040158	0.203715
O9	O	2.146645	0.007370	0.235239
O10	O	2.276092	-0.128951	0.239265
O11	O	2.276802	-0.061432	0.349099
O12	O	2.145940	-0.059685	0.126161
V13	V	2.478723	-0.067011	0.247858
O14	O	2.484575	0.003337	0.242628
O15	O	2.443721	-0.132984	0.246655
O16	O	2.444425	-0.065929	0.355733
O17	O	2.483866	-0.064182	0.132795
V18	V	2.723245	-0.058603	0.234036
O19	O	2.603297	-0.085456	0.278178
O20	O	2.823771	-0.040158	0.203715
O21	O	2.646645	0.007370	0.235239
O22	O	2.776092	-0.128951	0.239265
O23	O	2.776802	-0.061432	0.349099
O24	O	2.645940	-0.059685	0.126161
C25	C	1.863920	-0.149069	0.242872
C26	C	1.875877	-0.203002	0.242607
C27	C	1.871181	-0.585694	0.236867
C28	C	1.826142	-0.382983	0.237797
O29	O	1.743554	-0.354678	0.234567
N30	N	1.910781	-0.360102	0.241891
C31	C	2.006688	-0.387903	0.245758
O32	O	2.077647	-0.363791	0.249269
C33	C	2.051727	-0.590613	0.244833
C34	C	1.967080	-0.613490	0.240731
C35	C	1.786541	-0.608571	0.232766
C36	C	1.797800	-0.659246	0.232529
C37	C	1.893699	-0.687042	0.236393
C38	C	1.978339	-0.664165	0.240494
C39	C	2.147634	-0.618413	0.248705
C40	C	2.158887	-0.669094	0.248476
C41	C	2.074239	-0.691972	0.244374
C42	C	2.085497	-0.742636	0.244121
N43	N	2.000858	-0.765517	0.240027
C44	C	1.904959	-0.737720	0.236163
C45	C	1.983036	-0.281476	0.246241
C46	C	1.971776	-0.230799	0.246471
C47	C	1.791230	-0.225883	0.238512
C48	C	1.802490	-0.276561	0.238277
C49	C	1.898396	-0.304357	0.242147
C50	C	1.928611	-0.844140	0.235666
C51	C	1.939878	-0.894818	0.235426
C52	C	2.120424	-0.899731	0.243389
C53	C	2.109157	-0.849056	0.243624
C54	C	2.013243	-0.821262	0.239765
O55	O	2.168053	-0.770972	0.247359
O56	O	1.834016	-0.761843	0.232670
C57	C	1.859921	-0.535019	0.237104
C58	C	1.944561	-0.512142	0.241205
C59	C	2.040460	-0.539939	0.245069
C60	C	1.933302	-0.461464	0.241434
C61	C	1.837402	-0.433668	0.237570
C62	C	1.752763	-0.456548	0.233477
C63	C	1.764022	-0.507223	0.233240
C64	C	2.125100	-0.517058	0.249162
C65	C	2.113833	-0.466383	0.249398
C66	C	2.017934	-0.438586	0.245534
C67	C	1.864818	-0.063533	0.382011
C68	C	1.877346	-0.063085	0.470202
C69	C	2.058116	0.023452	0.239020
C70	C	2.035778	0.077385	0.239290
C71	C	2.057218	-0.062083	0.099879
C72	C	2.034310	-0.062529	0.011687
C73	C	2.363920	-0.149069	0.242872
C74	C	2.375877	-0.203002	0.242607
C75	C	2.364818	-0.063533	0.382011
C76	C	2.377346	-0.063085	0.470202
C77	C	1.973501	-0.065296	0.515694
C78	C	1.985267	-0.064875	0.598559
C79	C	1.900876	-0.062246	0.635931
C80	C	1.804713	-0.060033	0.590433
C81	C	1.792948	-0.060451	0.507568
C82	C	1.926382	-0.060733	0.883324
C83	C	1.938155	-0.060317	0.966194
C84	C	2.118708	-0.065158	0.974315
C85	C	2.106935	-0.065579	0.891449
C86	C	2.010773	-0.063363	0.845957
N87	N	1.912901	-0.061817	0.720633
N88	N	1.998749	-0.063789	0.761256
C89	C	2.558116	0.023452	0.239020
C90	C	2.535778	0.077385	0.239290
C91	C	2.557218	-0.062083	0.099879
C92	C	2.534310	-0.062529	0.011687
C93	C	2.471772	-0.230802	0.246465
C94	C	2.483023	-0.281479	0.246228
C95	C	2.398377	-0.304356	0.242128
C96	C	2.302475	-0.276553	0.238272
C97	C	2.291226	-0.225877	0.238515
C98	C	2.473508	-0.065291	0.515680
C99	C	2.485292	-0.064864	0.598544
C100	C	2.400913	-0.062234	0.635930
C101	C	2.304743	-0.060025	0.590446
C102	C	2.292960	-0.060449	0.507582
C103	C	2.612377	0.105184	0.235434
C104	C	2.591397	0.155861	0.235674
C105	C	2.493819	0.178738	0.239776
C106	C	2.417214	0.150935	0.243630
C107	C	2.438193	0.100259	0.243384
C108	C	2.436457	-0.065153	-0.025679
C109	C	2.414916	-0.065566	-0.108546
C110	C	2.491231	-0.063358	-0.154045
C111	C	2.589091	-0.060731	-0.116674
C112	C	2.610629	-0.060315	-0.033810
H113	H	1.870944	-0.913443	0.232086
F114	F	2.214950	-0.057231	0.630248
H115	H	2.407551	-0.345620	0.241932
H116	H	2.233561	-0.295187	0.234934
H117	H	1.850511	-0.821516	0.232526
F118	F	2.716235	0.080847	0.231068
H119	H	2.690314	-0.058180	-0.003393
H120	H	1.869429	-0.058175	0.996620
H121	H	2.063564	-0.066673	0.635595
F122	F	2.189156	-0.196294	0.234402
F123	F	2.670304	-0.058385	-0.165108
H124	H	2.542225	-0.067435	0.485252
H125	H	2.375814	0.077628	0.246531
H126	H	2.042224	-0.067440	0.485273
H127	H	1.848087	-0.058947	0.846298
F128	F	2.587651	-0.067217	0.646937
F129	F	2.413470	-0.061784	0.724123
H130	H	2.653784	0.178492	0.232537
F131	F	1.714899	-0.057234	0.630209
H132	H	1.728869	-0.677867	0.229186
F133	F	2.196757	-0.068379	0.851682
H134	H	2.540705	-0.212182	0.249799
F135	F	1.690606	-0.058093	0.459152
H136	H	2.476750	0.220002	0.239976
F137	F	2.585096	-0.311060	0.250329
H138	H	2.214653	-0.058653	0.470561
F139	F	2.237730	-0.594076	0.253059
H140	H	2.337766	0.169569	0.246969
H141	H	2.374305	-0.066952	0.011356
H142	H	2.473682	-0.063703	-0.221517
F143	F	2.310762	-0.068365	-0.148303
H144	H	1.708446	-0.585945	0.229622
F145	F	1.689165	-0.196291	0.234403
F146	F	1.712397	-0.300904	0.233913
H147	H	2.197000	-0.066962	1.011363
H148	H	2.040704	-0.212175	0.249798
H149	H	2.236986	-0.691724	0.251630
F150	F	2.085117	-0.311054	0.250358
F151	F	2.199248	-0.824708	0.247992
H152	H	2.198504	-0.922372	0.246533
F153	F	1.673926	-0.531564	0.228872
H154	H	1.674676	-0.433907	0.230327
H155	H	2.182769	-0.447761	0.252732
H156	H	2.203193	-0.539685	0.252311
