data_functionalizedCrystal
_audit_creation_method	'MofGen! by Chris Wilmer'
_symmetry_space_group_name_H-M	'P1'
_symmetry_Int_Tables_number	1
_symmetry_cell_setting	triclinic
loop_
_symmetry_equiv_pos_as_xyz
  x,y,z
_cell_length_a	15.944499
_cell_length_b	15.944499
_cell_length_c	14.750779
_cell_angle_alpha	102.637720
_cell_angle_beta	77.362387
_cell_angle_gamma	83.477610
loop_
_atom_site_label
_atom_site_type_symbol
_atom_site_fract_x
_atom_site_fract_y
_atom_site_fract_z
O1	O	0.126366	1.096284	-0.079875
O2	O	0.139765	0.851728	-0.079863
O3	O	0.010787	0.980707	-0.079871
O4	O	0.255344	0.967306	-0.079867
O5	O	-0.025670	1.017167	0.079777
O6	O	0.103308	0.888189	0.079785
O7	O	0.089909	1.132744	0.079774
Zn8	Zn	0.090820	1.016256	0.105127
Zn9	Zn	0.138854	0.968217	-0.105216
O10	O	0.218887	1.003766	0.079781
C11	C	0.120988	0.838664	-0.000038
C12	C	0.119342	0.745417	-0.000033
C13	C	0.194279	0.453864	-0.000047
C14	C	0.173302	0.496923	-0.078764
C15	C	0.113370	0.409777	-0.000056
C16	C	0.137337	0.532856	0.078637
C17	C	0.116308	0.574688	-0.000043
C18	C	0.092386	0.451593	-0.078838
C19	C	0.056416	0.487536	0.078633
C20	C	0.035384	0.530573	-0.000103
C21	C	0.111681	0.314775	-0.000064
C22	C	0.117994	0.669687	-0.000042
C23	C	-0.038736	0.998388	-0.000049
C24	C	-0.131982	0.996741	-0.000056
C25	C	-0.423532	1.071675	-0.000054
C26	C	-0.380476	1.050701	0.078666
C27	C	-0.467620	0.990767	-0.000045
C28	C	-0.344539	1.014732	-0.078735
C29	C	-0.302710	0.993706	-0.000052
C30	C	-0.425807	0.969785	0.078740
C31	C	-0.389860	0.933811	-0.078731
C32	C	-0.346825	0.912782	0.000009
C33	C	-0.562621	0.989077	-0.000040
C34	C	-0.207712	0.995392	-0.000050
C35	C	0.268410	0.986085	-0.000042
C36	C	0.361658	0.987730	-0.000042
C37	C	0.108687	1.145808	-0.000054
C38	C	0.110334	1.239053	-0.000064
N39	N	0.058039	1.049047	0.248681
N40	N	0.171629	0.935433	-0.248770
C41	C	0.263147	0.843852	0.600511
C42	C	0.240181	0.866836	0.701009
C43	C	0.126013	0.981070	0.700965
C44	C	0.148966	0.958092	0.600465
C45	C	0.217535	0.889484	0.550246
C46	C	0.103354	1.003724	0.550200
C47	C	0.126309	0.980751	0.449709
C48	C	0.194876	0.912147	0.399483
C49	C	0.240489	0.866511	0.449755
C50	C	0.034790	1.072337	0.600421
C51	C	-0.010822	1.117968	0.550156
C52	C	0.012129	1.094992	0.449663
C53	C	0.080696	1.026388	0.399437
C54	C	-0.033485	1.140628	0.399391
C55	C	-0.010530	1.117655	0.298900
C56	C	0.103651	1.003415	0.298946
H57	H	-0.031814	0.563753	-0.000146
O58	O	-0.297821	1.039946	-0.166885
H59	H	-0.243904	0.986302	-0.210152
O60	O	0.289383	0.817608	0.755219
H61	H	0.319775	0.863422	0.800986
O62	O	-0.009014	0.481034	0.166786
H63	H	-0.059818	0.445021	0.144641
H64	H	0.159480	0.947541	0.258056
O65	O	-0.059741	1.166837	0.244665
H66	H	-0.013917	1.197190	0.198860
O67	O	-0.302859	0.823780	0.000073
H68	H	-0.233344	0.825513	-0.000550
H69	H	0.213568	0.893446	0.317657
H70	H	0.156376	0.568123	0.145184
H71	H	-0.375588	1.100122	0.145213
O72	O	-0.467733	1.160634	0.000035
H73	H	-0.464651	1.208966	0.065477
O74	O	0.314433	0.792492	0.395597
H75	H	0.289491	0.741216	0.349841
H76	H	0.261443	0.420505	-0.000122
O77	O	0.337102	0.769851	0.546332
H78	H	0.364968	0.741977	0.598165
O79	O	0.238756	0.503411	-0.166913
H80	H	0.304660	0.472427	-0.166750
O81	O	0.067252	0.404993	-0.167095
H82	H	0.066243	0.335637	-0.166427
O83	O	0.052056	1.055065	0.755130
H84	H	0.043752	1.063371	0.833453
O85	O	-0.396415	0.868408	-0.166877
H86	H	-0.363597	0.887231	-0.232128
H87	H	-0.460996	0.950806	0.145362
O88	O	0.010025	1.097124	0.708809
H89	H	-0.009510	1.040448	0.735329
O90	O	-0.084779	1.191964	0.604321
H91	H	-0.093083	1.200270	0.682644
O92	O	-0.107436	1.214628	0.453558
H93	H	-0.115735	1.222935	0.531880
