data_functionalizedCrystal
_audit_creation_method	'MofGen! by Chris Wilmer'
_symmetry_space_group_name_H-M	'P1'
_symmetry_Int_Tables_number	1
_symmetry_cell_setting	triclinic
loop_
_symmetry_equiv_pos_as_xyz
  x,y,z
_cell_length_a	8.497374
_cell_length_b	8.497365
_cell_length_c	19.805407
_cell_angle_alpha	89.964663
_cell_angle_beta	89.998906
_cell_angle_gamma	90.037770
loop_
_atom_site_label
_atom_site_type_symbol
_atom_site_fract_x
_atom_site_fract_y
_atom_site_fract_z
Zn1	Zn	0.627660	-0.892225	1.034960
Zn2	Zn	0.891603	-0.628490	1.034894
Zn3	Zn	0.627831	-0.628439	0.921744
Zn4	Zn	0.891392	-0.892209	0.921788
O5	O	0.759622	-0.760340	0.978346
O6	O	0.662689	-0.857268	1.129668
O7	O	0.856774	-0.407720	1.019838
O8	O	0.407046	-0.663416	0.936771
O9	O	0.856608	-0.663503	1.129619
O10	O	0.406920	-0.857218	1.019951
O11	O	0.662982	-0.407683	0.936707
O12	O	0.662776	-0.663400	0.827033
O13	O	0.856247	-1.112974	0.936847
O14	O	0.856413	-0.857191	0.827066
O15	O	0.662484	-1.112985	1.019994
O16	O	1.112338	-0.663488	1.019881
O17	O	1.112182	-0.857241	0.936783
C18	C	0.759591	-0.760289	0.802490
C19	C	0.759616	-0.760305	0.727258
C20	C	0.860595	-0.861049	0.691949
C21	C	0.860598	-0.861071	0.621261
C22	C	0.759629	-0.760340	0.585883
C23	C	0.658639	-0.659592	0.621197
C24	C	0.658629	-0.659579	0.691884
C25	C	0.658674	-0.659645	0.336124
C26	C	0.658695	-0.659662	0.265432
C27	C	0.860642	-0.861136	0.265500
C28	C	0.860633	-0.861123	0.336187
C29	C	0.759638	-0.760382	0.371496
C30	C	0.759634	-0.760361	0.448144
C31	C	0.759639	-0.760352	0.509236
C32	C	1.169501	-0.760363	0.978338
C33	C	1.348145	-0.760337	0.978356
C34	C	0.759793	-0.350460	0.978298
C35	C	0.759470	-0.171817	0.978394
C36	C	0.759653	-0.760393	1.154889
C37	C	0.759666	-0.760415	1.230121
H38	H	0.942826	-0.943105	0.592515
N39	N	0.969569	-0.969798	0.227414
H40	H	0.905530	-1.043015	0.198108
H41	H	1.033516	-1.033494	0.260594
H42	H	0.942821	-0.943070	0.720749
N43	N	0.549763	-0.550915	0.583044
H44	H	0.565106	-0.566192	0.532905
H45	H	0.574260	-0.438222	0.595377
N46	N	0.549783	-0.551012	0.227274
H47	H	0.565128	-0.566302	0.177137
H48	H	0.574242	-0.438306	0.239600
H49	H	0.942857	-0.943143	0.364988
H50	H	0.576450	-0.577603	0.364863
N51	N	0.549707	-0.550932	0.729972
H52	H	0.485744	-0.487121	0.696835
H53	H	0.613849	-0.477822	0.759282
