data_functionalizedCrystal
_audit_creation_method	'MofGen! by Chris Wilmer'
_symmetry_space_group_name_H-M	'P1'
_symmetry_Int_Tables_number	1
_symmetry_cell_setting	triclinic
loop_
_symmetry_equiv_pos_as_xyz
  x,y,z
_cell_length_a	17.699104
_cell_length_b	14.853559
_cell_length_c	16.176319
_cell_angle_alpha	89.995393
_cell_angle_beta	89.991696
_cell_angle_gamma	83.461486
loop_
_atom_site_label
_atom_site_type_symbol
_atom_site_fract_x
_atom_site_fract_y
_atom_site_fract_z
O1	O	1.004362	0.114098	-0.068759
O2	O	0.784024	0.128911	-0.068757
O3	O	0.900082	-0.009747	-0.068757
O4	O	0.888304	0.252756	-0.068759
O5	O	0.900066	-0.009756	0.068736
O6	O	0.784008	0.128902	0.068736
O7	O	1.004346	0.114089	0.068734
Cu8	Cu	0.894175	0.121495	0.081289
Cu9	Cu	0.894194	0.121506	-0.081312
O10	O	0.888288	0.252747	0.068734
C11	C	0.755818	0.128373	-0.000010
C12	C	0.671796	0.126771	-0.000009
C13	C	0.147111	0.199126	-0.000018
C14	C	0.226059	0.200626	-0.000021
C15	C	0.274467	0.119228	-0.000020
C16	C	0.243925	0.036326	-0.000025
C17	C	0.164978	0.034827	-0.000029
C18	C	0.562306	0.042368	-0.000012
C19	C	0.641257	0.043874	-0.000006
C20	C	0.623387	0.208167	-0.000004
C21	C	0.544440	0.206669	-0.000007
C22	C	0.513905	0.123767	-0.000017
C23	C	0.428301	0.122141	-0.000016
C24	C	0.360070	0.120853	-0.000015
C25	C	0.899541	-0.043338	-0.000012
C26	C	0.897946	-0.143416	-0.000017
C27	C	0.891185	-0.566562	-0.074964
C28	C	0.891167	-0.566567	0.074936
C29	C	0.892673	-0.472539	0.074937
C30	C	0.893433	-0.425518	-0.000014
C31	C	0.892688	-0.472525	-0.074966
C32	C	0.893410	-0.425523	0.149887
C33	C	0.894915	-0.331489	0.149891
C34	C	0.895681	-0.284468	0.074939
C35	C	0.894937	-0.331481	-0.000016
C36	C	0.895697	-0.284461	-0.074967
C37	C	0.894958	-0.331473	-0.149922
C38	C	0.893454	-0.425504	-0.149918
C39	C	0.897185	-0.190437	0.074934
C40	C	0.897201	-0.190424	-0.074968
C41	C	1.032552	0.114628	-0.000015
C42	C	1.116573	0.116230	-0.000021
C43	C	0.888828	0.286339	-0.000013
C44	C	0.890424	0.386417	-0.000013
N45	N	0.894168	0.121487	0.195655
N46	N	0.894208	0.121506	-0.195677
C47	C	0.945574	0.060114	0.238919
C48	C	0.945578	0.060114	0.325466
C49	C	0.894178	0.121490	0.368747
C50	C	0.842767	0.182866	0.325477
C51	C	0.842760	0.182862	0.238932
C52	C	0.842793	0.182883	0.674505
C53	C	0.842805	0.182884	0.761057
C54	C	0.945610	0.060134	0.761039
C55	C	0.945603	0.060130	0.674494
C56	C	0.894190	0.121502	0.631231
C57	C	0.894185	0.121502	0.537387
C58	C	0.894186	0.121496	0.462590
H59	H	0.648258	0.275671	0.000000
H60	H	0.107702	0.265410	-0.000012
C61	C	0.259068	0.290721	0.000029
C62	C	0.199777	0.361684	0.000056
C63	C	0.230154	0.444695	0.000113
H64	H	0.289488	0.294859	-0.047904
H65	H	0.289465	0.294762	0.047996
H66	H	0.169392	0.357644	-0.047906
H67	H	0.169351	0.357576	0.047986
H68	H	0.260552	0.448737	0.048080
H69	H	0.260574	0.448824	-0.047821
H70	H	0.189931	0.492854	0.000139
H71	H	0.680671	-0.022414	-0.000008
H72	H	0.890543	-0.604856	0.135958
H73	H	0.505029	0.272951	-0.000004
H74	H	0.987460	0.010155	0.639257
C75	C	0.786924	0.249359	0.372574
C76	C	0.740569	0.201400	0.422296
C77	C	0.689125	0.262626	0.465701
H78	H	0.756231	0.285937	0.334507
H79	H	0.814169	0.286840	0.406371
H80	H	0.713325	0.163936	0.388503
H81	H	0.771240	0.164826	0.460378
H82	H	0.716370	0.300106	0.499497
H83	H	0.658438	0.299200	0.427628
H84	H	0.657672	0.230095	0.499448
H85	H	0.537454	-0.025135	-0.000018
C86	C	1.001386	-0.006655	0.807908
C87	C	0.989037	-0.095229	0.786848
C88	C	1.040408	-0.156775	0.829998
H89	H	0.994082	0.002006	0.865663
H90	H	1.051920	0.003010	0.793696
H91	H	0.938515	-0.104890	0.801066
H92	H	0.996347	-0.103919	0.729101
H93	H	1.090942	-0.147110	0.815785
H94	H	1.033099	-0.148106	0.887750
H95	H	1.032041	-0.216880	0.815709
C96	C	0.895812	-0.280258	-0.231210
C97	C	0.897295	-0.187850	-0.215161
C98	C	0.898087	-0.140641	-0.290020
H99	H	0.851481	-0.288595	-0.262062
H100	H	0.939687	-0.302574	-0.262021
H101	H	0.853425	-0.165542	-0.184363
H102	H	0.941624	-0.179486	-0.184321
H103	H	0.941962	-0.162956	-0.320831
H104	H	0.853755	-0.148985	-0.320866
H105	H	0.899101	-0.077939	-0.279140
H106	H	0.283345	-0.029950	-0.000030
H107	H	0.140116	-0.032676	-0.000033
H108	H	0.897770	-0.152161	0.135962
H109	H	0.800947	0.232866	0.796295
C110	C	1.001414	-0.006626	0.192081
C111	C	1.046419	-0.060390	0.248498
C112	C	1.097860	-0.121894	0.205384
H113	H	1.033020	0.025652	0.158304
H114	H	0.974169	-0.044169	0.158349
H115	H	1.073663	-0.022852	0.282216
H116	H	1.014834	-0.092689	0.282277
H117	H	1.070615	-0.159437	0.171652
H118	H	1.129461	-0.089608	0.171609
H119	H	1.128397	-0.158385	0.243657
H120	H	0.987436	0.010139	0.360691
H121	H	0.800931	0.232856	0.639288
H122	H	0.897823	-0.152147	-0.136004
C123	C	0.892603	-0.476701	-0.231206
C124	C	0.891099	-0.569109	-0.215160
C125	C	0.890301	-0.616301	-0.290020
H126	H	0.936940	-0.468372	-0.262067
H127	H	0.848733	-0.454366	-0.262006
H128	H	0.934964	-0.591437	-0.184372
H129	H	0.846765	-0.577466	-0.184311
H130	H	0.846432	-0.593966	-0.320821
H131	H	0.934639	-0.607964	-0.320876
H132	H	0.889274	-0.679003	-0.279143
H133	H	0.890586	-0.604844	-0.135991
C134	C	0.786915	0.249600	0.192105
C135	C	0.741917	0.303369	0.248531
C136	C	0.690468	0.364865	0.205426
H137	H	0.755305	0.217315	0.158354
H138	H	0.814155	0.287139	0.158349
H139	H	0.714680	0.265834	0.282273
H140	H	0.773506	0.335674	0.282284
H141	H	0.717707	0.402405	0.171670
H142	H	0.658863	0.332573	0.171676
H143	H	0.659936	0.401360	0.243704
H144	H	0.892787	-0.463814	0.210908
C145	C	0.895765	-0.280622	0.231354
C146	C	0.894797	-0.341932	0.296991
C147	C	0.895595	-0.295107	0.372046
H148	H	0.852266	-0.236964	0.234593
H149	H	0.940473	-0.250940	0.234509
H150	H	0.850094	-0.371599	0.293837
H151	H	0.938292	-0.385592	0.293779
H152	H	0.940303	-0.265424	0.375201
H153	H	0.852095	-0.251450	0.375276
H154	H	0.894945	-0.336699	0.416590
