data_functionalizedCrystal
_audit_creation_method	'MofGen! by Chris Wilmer'
_symmetry_space_group_name_H-M	'P1'
_symmetry_Int_Tables_number	1
_symmetry_cell_setting	triclinic
loop_
_symmetry_equiv_pos_as_xyz
  x,y,z
_cell_length_a	19.188930
_cell_length_b	19.188933
_cell_length_c	16.053789
_cell_angle_alpha	92.894649
_cell_angle_beta	92.901023
_cell_angle_gamma	83.145175
loop_
_atom_site_label
_atom_site_type_symbol
_atom_site_fract_x
_atom_site_fract_y
_atom_site_fract_z
O1	O	0.089791	0.928761	0.069411
O2	O	0.101524	0.725450	0.069421
O3	O	-0.005999	0.832972	0.069399
O4	O	0.197314	0.821239	0.069433
O5	O	-0.011237	0.827727	-0.069461
O6	O	0.096286	0.720205	-0.069440
O7	O	0.084553	0.923516	-0.069449
Zn8	Zn	0.089588	0.821028	-0.091491
Zn9	Zn	0.096489	0.827938	0.091463
O10	O	0.192075	0.815994	-0.069427
C11	C	0.098525	0.696817	-0.000009
C12	C	0.097384	0.619313	-0.000006
C13	C	0.092093	0.068916	0.075676
C14	C	0.093161	0.141740	0.075680
C15	C	0.090844	0.175298	-0.000012
C16	C	0.087439	0.136028	-0.075714
C17	C	0.086364	0.063206	-0.075715
N18	N	0.130137	0.282190	-0.056347
N19	N	0.131160	0.351368	-0.056341
C20	C	0.094081	0.394707	-0.000013
N21	N	0.055950	0.366253	0.056320
N22	N	0.054930	0.297069	0.056316
C23	C	0.092009	0.254261	-0.000020
C24	C	0.098639	0.512933	0.075687
C25	C	0.099703	0.585759	0.075687
C26	C	0.093987	0.580045	-0.075709
C27	C	0.092917	0.507221	-0.075707
C28	C	0.095246	0.473669	-0.000007
C29	C	-0.034629	0.829970	-0.000033
C30	C	-0.112134	0.828829	-0.000040
C31	C	-0.157058	0.891919	-0.000047
C32	C	-0.229881	0.890848	-0.000033
C33	C	-0.257778	0.826682	-0.000030
C34	C	-0.212844	0.763583	-0.000019
C35	C	-0.140022	0.764657	-0.000024
N36	N	-0.367566	0.775850	-0.047285
N37	N	-0.436744	0.774835	-0.047282
C38	C	-0.477186	0.823445	-0.000013
N39	N	-0.445837	0.873119	0.047242
N40	N	-0.376653	0.874136	0.047235
C41	C	-0.336740	0.825511	-0.000024
C42	C	-0.601073	0.885378	-0.000004
C43	C	-0.673898	0.884304	0.000015
C44	C	-0.656859	0.757038	0.000021
C45	C	-0.584037	0.758114	0.000011
C46	C	-0.556148	0.822285	-0.000006
C47	C	0.220706	0.818997	0.000007
C48	C	0.298211	0.820138	0.000019
C49	C	0.087552	0.952150	-0.000018
C50	C	0.088693	1.029654	-0.000015
N51	N	0.084877	0.816317	-0.216352
C52	C	0.125473	0.856883	-0.260038
C53	C	0.122174	0.853597	-0.347445
C54	C	0.078281	0.809741	-0.391166
C55	C	0.037680	0.769173	-0.347474
C56	C	0.040977	0.772463	-0.260068
C57	C	0.063889	0.795377	-0.652578
C58	C	0.060598	0.792089	-0.739990
C59	C	0.145090	0.876514	-0.739955
C60	C	0.148386	0.879798	-0.652548
C61	C	0.107782	0.839233	-0.608864
N62	N	0.074909	0.806379	-0.480510
N63	N	0.111151	0.842598	-0.519521
N64	N	0.101194	0.832655	0.216324
H65	H	-0.134356	0.944173	-0.000058
O66	O	0.091700	0.612528	-0.149312
C67	C	0.088492	0.562250	-0.216122
H68	H	0.066465	0.514135	-0.193934
H69	H	0.052913	0.585829	-0.269067
H70	H	0.143500	0.546132	-0.239390
O71	O	-0.683909	0.694694	0.000173
C72	C	-0.658191	0.658956	0.072080
H73	H	-0.641252	0.698382	0.122341
H74	H	-0.701302	0.630297	0.096228
H75	H	-0.611226	0.619290	0.055819
O76	O	0.085098	0.168714	-0.149188
C77	C	0.025086	0.218750	-0.153731
H78	H	0.007575	0.234837	-0.088011
H79	H	0.038230	0.266929	-0.185765
H80	H	-0.019073	0.194945	-0.191090
O81	O	0.089712	0.468988	-0.149179
C82	C	0.149381	0.418610	-0.153714
H83	H	0.171861	0.407484	-0.087991
H84	H	0.133815	0.368012	-0.185747
H85	H	0.190717	0.439594	-0.191069
H86	H	0.030827	0.762347	-0.617022
O87	O	0.096597	0.179843	0.149230
C88	C	0.158526	0.155679	0.195283
H89	H	0.198803	0.128325	0.150990
H90	H	0.180831	0.202148	0.229610
H91	H	0.146020	0.117025	0.242488
O92	O	-0.273432	0.952200	-0.000080
C93	C	-0.233201	1.009069	-0.000071
H94	H	-0.179787	0.990189	-0.026358
H95	H	-0.261727	1.051734	-0.040393
H96	H	-0.225555	1.031271	0.066544
H97	H	0.093987	0.041603	0.137317
H98	H	0.161220	0.892592	-0.224447
O99	O	-0.717441	0.945657	-0.000028
C100	C	-0.677206	1.002523	-0.000024
H101	H	-0.623795	0.983639	-0.026317
H102	H	-0.705732	1.045190	-0.040344
H103	H	-0.669554	1.024725	0.066589
O104	O	0.083095	0.025164	-0.149320
C105	C	0.081256	0.070397	-0.216130
H106	H	0.104957	0.120189	-0.193938
H107	H	0.112837	0.042823	-0.269067
H108	H	0.024490	0.084757	-0.239411
O109	O	0.184594	0.915946	-0.782261
C110	C	0.224025	0.955375	-0.724928
H111	H	0.230522	0.928804	-0.662628
H112	H	0.277966	0.958590	-0.750171
H113	H	0.195473	1.010615	-0.715627
O114	O	0.100872	0.480451	0.149292
C115	C	0.104114	0.530723	0.216103
H116	H	0.081937	0.584753	0.193912
H117	H	0.071918	0.516213	0.269042
H118	H	0.161109	0.531855	0.239380
H119	H	0.102466	0.617726	0.137327
H120	H	-0.235562	0.711339	-0.000014
H121	H	0.024855	0.756372	-0.775585
H122	H	-0.103444	0.713279	-0.000018
H123	H	-0.578366	0.937631	-0.000014
O124	O	-0.540361	0.696850	0.000156
C125	C	-0.494991	0.696386	0.072060
H126	H	-0.519866	0.734071	0.122325
H127	H	-0.485718	0.641032	0.096203
H128	H	-0.442705	0.713679	0.055795
O129	O	0.161683	0.893023	-0.389751
C130	C	0.201121	0.932445	-0.332420
H131	H	0.207613	0.905875	-0.270118
H132	H	0.255064	0.935649	-0.357662
H133	H	0.172579	0.987689	-0.323120
H134	H	0.184126	0.915512	-0.616956
H135	H	0.001939	0.733467	-0.383078
H136	H	0.007919	0.739429	-0.224501
