data_functionalizedCrystal
_audit_creation_method	'MofGen! by Chris Wilmer'
_symmetry_space_group_name_H-M	'P1'
_symmetry_Int_Tables_number	1
_symmetry_cell_setting	triclinic
loop_
_symmetry_equiv_pos_as_xyz
  x,y,z
_cell_length_a	12.759401
_cell_length_b	12.759394
_cell_length_c	12.759393
_cell_angle_alpha	89.969195
_cell_angle_beta	89.982549
_cell_angle_gamma	90.012900
loop_
_atom_site_label
_atom_site_type_symbol
_atom_site_fract_x
_atom_site_fract_y
_atom_site_fract_z
Zn1	Zn	1.606250	-0.418229	-0.593990
Zn2	Zn	1.606150	-0.593949	-0.418313
Zn3	Zn	1.430555	-0.418281	-0.418330
Zn4	Zn	1.430543	-0.593864	-0.593955
O5	O	1.518375	-0.506081	-0.506147
O6	O	1.753258	-0.441552	-0.570695
O7	O	1.582821	-0.570704	-0.271294
O8	O	1.453908	-0.271253	-0.441653
O9	O	1.753185	-0.570653	-0.441626
O10	O	1.582991	-0.271215	-0.570710
O11	O	1.453812	-0.441641	-0.271306
O12	O	1.283533	-0.441559	-0.441618
O13	O	1.453888	-0.570508	-0.740981
O14	O	1.283524	-0.570559	-0.570649
O15	O	1.582979	-0.441470	-0.741007
O16	O	1.582809	-0.740959	-0.441591
O17	O	1.453791	-0.740896	-0.570634
C18	C	1.245407	-0.506056	-0.506132
C19	C	1.128631	-0.506071	-0.506151
C20	C	1.073800	-0.438975	-0.573461
C21	C	0.964076	-0.438995	-0.573468
C22	C	0.964023	-0.573216	-0.438851
C23	C	1.073745	-0.573190	-0.438840
C24	C	1.073829	-0.361487	-0.651185
C25	C	0.964105	-0.361507	-0.651192
C26	C	1.518316	-0.779048	-0.506130
C27	C	1.518387	-0.895825	-0.506157
C28	C	1.652700	-0.895627	-0.640646
C29	C	1.719889	-0.950389	-0.707897
C30	C	1.719952	-1.060110	-0.707920
C31	C	1.652815	-1.115073	-0.640686
C32	C	1.585626	-1.060311	-0.573434
C33	C	1.585573	-0.950587	-0.573416
C34	C	1.451310	-1.060509	-0.438953
C35	C	1.451251	-0.950787	-0.438923
C36	C	1.384173	-1.115471	-0.371718
C37	C	1.316988	-1.060710	-0.304459
C38	C	1.316929	-0.950981	-0.304439
C39	C	1.384062	-0.896026	-0.371671
C40	C	1.792408	-0.506106	-0.506162
C41	C	1.909185	-0.506117	-0.506169
C42	C	1.518443	-0.505974	-0.780180
C43	C	1.518472	-0.505928	-0.896957
C44	C	1.518462	-0.232047	-0.506187
C45	C	1.518499	-0.115271	-0.506205
C46	C	1.451326	-0.438713	-0.951831
C47	C	1.451357	-0.438682	-1.061556
C48	C	1.585691	-0.573084	-1.061522
C49	C	1.585653	-0.573119	-0.951799
C50	C	1.373772	-0.361114	-0.951852
C51	C	1.373804	-0.361083	-1.061576
C52	C	1.518367	-0.506112	-0.233180
C53	C	1.518542	-0.505861	-0.116404
H54	H	1.103595	-0.280084	-0.629530
N55	N	1.658073	-0.645621	-0.892617
H56	H	1.706761	-0.602948	-0.847100
H57	H	1.615266	-0.694302	-0.847145
H58	H	0.919322	-0.627862	-0.384049
H59	H	1.774549	-0.905629	-0.762641
H60	H	1.118384	-0.627816	-0.384019
H61	H	1.107894	-0.390719	-0.728423
H62	H	1.402935	-0.283836	-0.917835
H63	H	0.930063	-0.284180	-0.622191
N64	N	0.924690	-0.390506	-0.758924
H65	H	0.986242	-0.403440	-0.806993
H66	H	0.880679	-0.456130	-0.754058
N67	N	1.271422	-0.399658	-1.106660
H68	H	1.258022	-0.473761	-1.082215
H69	H	1.212533	-0.352760	-1.082239
N70	N	1.652647	-0.777285	-0.640606
H71	H	1.705373	-0.750777	-0.693397
H72	H	1.580519	-0.750972	-0.659825
N73	N	1.792423	-1.119169	-0.780459
H74	H	1.841155	-1.164686	-0.737809
H75	H	1.749654	-1.164630	-0.829108
N76	N	1.652887	-1.233414	-0.640701
H77	H	1.705639	-1.259765	-0.693504
H78	H	1.672221	-1.259782	-0.568609
N79	N	1.384255	-1.233813	-0.371728
H80	H	1.364935	-1.260222	-0.443787
H81	H	1.456372	-1.260094	-0.352424
N82	N	1.244583	-1.119987	-0.231950
H83	H	1.254815	-1.197804	-0.242173
H84	H	1.260968	-1.100855	-0.156925
H85	H	1.395620	-0.279701	-1.091372
N86	N	1.244454	-0.891919	-0.231907
H87	H	1.201937	-0.943390	-0.189323
H88	H	1.287216	-0.846400	-0.183306
N89	N	1.384007	-0.777684	-0.371639
H90	H	1.436732	-0.751180	-0.424434
H91	H	1.311879	-0.751373	-0.390860
N92	N	1.658142	-0.645557	-1.120673
H93	H	1.647975	-0.635340	-1.198509
H94	H	1.733178	-0.629226	-1.101500
N95	N	1.265966	-0.389960	-0.912395
H96	H	1.217886	-0.402816	-0.973929
H97	H	1.270672	-0.455596	-0.868372
