data_functionalizedCrystal
_audit_creation_method	'MofGen! by Chris Wilmer'
_symmetry_space_group_name_H-M	'P1'
_symmetry_Int_Tables_number	1
_symmetry_cell_setting	triclinic
loop_
_symmetry_equiv_pos_as_xyz
  x,y,z
_cell_length_a	15.944551
_cell_length_b	9.616153
_cell_length_c	10.540514
_cell_angle_alpha	90.000926
_cell_angle_beta	84.006949
_cell_angle_gamma	89.997625
loop_
_atom_site_label
_atom_site_type_symbol
_atom_site_fract_x
_atom_site_fract_y
_atom_site_fract_z
O1	O	1.115494	-0.115491	0.163709
O2	O	0.871063	-0.115524	0.183893
O3	O	0.998866	-0.115508	-0.010984
O4	O	0.987691	-0.115506	0.358586
O5	O	0.998848	0.115783	-0.010979
O6	O	0.871045	0.115767	0.183897
O7	O	1.115476	0.115801	0.163713
Zn8	Zn	0.993258	0.152507	0.173806
Zn9	Zn	0.993281	-0.152230	0.173800
O10	O	0.987673	0.115785	0.358590
C11	C	0.839755	0.000117	0.183057
C12	C	0.746494	0.000104	0.180545
N13	N	0.993248	0.360481	0.173809
N14	N	0.993297	-0.360204	0.173787
C15	C	0.530889	0.000130	0.053747
C16	C	0.470226	-0.113908	0.112626
C17	C	0.575742	0.000120	0.176001
C18	C	0.470231	0.114127	0.112659
C19	C	0.410803	0.000142	0.171602
C20	C	0.516306	-0.114012	0.234913
C21	C	0.516317	0.114125	0.234929
C22	C	0.455672	0.000059	0.293897
C23	C	0.670759	0.000107	0.178531
C24	C	0.315787	0.000146	0.169081
C25	C	1.146784	0.000156	0.164549
C26	C	1.240045	0.000160	0.167061
C27	C	0.998023	0.000134	-0.058274
C28	C	0.995530	0.000123	-0.199189
C29	C	0.924673	0.580843	0.277711
C30	C	0.924824	0.419675	0.278095
C31	C	1.081065	0.418943	0.202747
C32	C	1.080692	0.580161	0.203481
C33	C	0.974880	0.580389	0.040619
C34	C	0.972864	0.419162	0.041511
C35	C	1.086933	0.000139	-0.271140
C36	C	1.084369	0.000673	-0.417718
C37	C	0.945810	0.131949	-0.390846
C38	C	0.949022	0.132051	-0.244350
C39	C	0.947689	-0.130980	-0.243938
C40	C	0.946807	-0.132703	-0.390905
C41	C	0.988515	0.000140	0.405880
C42	C	0.991009	0.000141	0.546796
H43	H	0.449818	-0.210320	0.060916
C44	C	0.631398	-0.243176	0.306316
C45	C	0.543703	-0.244316	0.304652
H46	H	0.648312	-0.323625	0.349360
H47	H	0.647537	-0.162305	0.349452
H48	H	0.657818	-0.242849	0.221259
H49	H	0.517283	-0.244633	0.389710
H50	H	0.527556	-0.325208	0.261518
C51	C	1.015476	0.419469	-0.183803
C52	C	1.035862	0.364776	-0.067788
H53	H	1.054371	0.385885	-0.251277
H54	H	1.018201	0.518080	-0.181097
H55	H	0.960032	0.391512	-0.197724
H56	H	1.091304	0.392742	-0.053863
H57	H	1.033146	0.266143	-0.070494
C58	C	0.817935	-0.263635	-0.365117
C59	C	0.854951	-0.144031	-0.422338
H60	H	0.761229	-0.270630	-0.384540
H61	H	0.818895	-0.258088	-0.275311
H62	H	0.848570	-0.343302	-0.396711
H63	H	0.824319	-0.064362	-0.390737
H64	H	0.853985	-0.149566	-0.512163
H65	H	0.881879	0.137663	-0.195430
H66	H	0.423113	-0.000004	0.395462
C67	C	0.777173	0.415168	0.351640
C68	C	0.836728	0.366330	0.254855
H69	H	0.722782	0.382240	0.337303
H70	H	0.777223	0.513942	0.351420
H71	H	0.791119	0.382423	0.431836
H72	H	0.822786	0.399084	0.174659
H73	H	0.836676	0.267537	0.255063
C74	C	0.467085	0.363634	0.105648
C75	C	0.442692	0.244279	0.042838
H76	H	0.450081	0.443976	0.062539
H77	H	0.526626	0.364112	0.106056
H78	H	0.441079	0.363766	0.190943
H79	H	0.468703	0.244141	-0.042455
H80	H	0.383140	0.243801	0.042416
C81	C	0.814731	0.256687	-0.362825
C82	C	0.853242	0.138068	-0.419705
H83	H	0.757582	0.260455	-0.380637
H84	H	0.843579	0.337329	-0.396079
H85	H	0.816901	0.252710	-0.273177
H86	H	0.851077	0.142050	-0.509354
H87	H	0.824385	0.057406	-0.386456
H88	H	1.133378	0.380597	0.129070
H89	H	1.024915	0.618511	-0.036718
H90	H	0.908261	0.380952	0.019550
H91	H	1.119920	-0.093789	-0.460869
C92	C	1.086323	-0.207744	-0.144889
C93	C	1.136993	-0.127471	-0.233345
H94	H	1.117228	-0.286533	-0.121561
H95	H	1.037591	-0.237657	-0.181917
H96	H	1.069798	-0.153483	-0.071188
H97	H	1.153513	-0.181730	-0.307050
H98	H	1.185740	-0.097559	-0.196319
C99	C	1.217531	0.126406	-0.295757
C100	C	1.136248	0.127573	-0.231027
H101	H	1.247973	0.205079	-0.270988
H102	H	1.213873	0.129495	-0.385079
H103	H	1.245876	0.043858	-0.275085
H104	H	1.107900	0.210117	-0.251707
H105	H	1.139902	0.124496	-0.141686
C106	C	0.801804	0.708618	0.361387
C107	C	0.836304	0.633214	0.254835
H108	H	0.747244	0.740944	0.347264
H109	H	0.837073	0.785738	0.374641
H110	H	0.797685	0.650299	0.434514
H111	H	0.840429	0.691536	0.181709
H112	H	0.801026	0.556083	0.241566
H113	H	0.936357	0.621344	0.375977
H114	H	0.976807	0.230425	-0.433823
C115	C	1.181793	0.417442	0.356912
C116	C	1.103303	0.364435	0.332364
H117	H	1.195518	0.383785	0.436931
H118	H	1.179411	0.516123	0.358867
H119	H	1.223683	0.388346	0.291592
H120	H	1.061411	0.393541	0.397680
H121	H	1.105679	0.265734	0.330420
C122	C	1.199478	0.085894	-0.561793
C123	C	1.132164	0.128971	-0.474689
H124	H	1.228995	0.165101	-0.596950
H125	H	1.178414	0.033890	-0.628216
H126	H	1.236682	0.029492	-0.519276
H127	H	1.094955	0.185365	-0.517209
H128	H	1.153227	0.180998	-0.408256
H129	H	0.936662	0.381098	0.376919
C130	C	1.175746	0.711957	0.318781
C131	C	1.102443	0.630909	0.334586
H132	H	1.189177	0.743270	0.399724
H133	H	1.166754	0.789835	0.266450
H134	H	1.221024	0.657721	0.279468
H135	H	1.057163	0.685148	0.373890
H136	H	1.111430	0.553020	0.386938
H137	H	0.536746	0.210542	0.286596
H138	H	0.979839	-0.230217	-0.432353
H139	H	0.563624	-0.000011	-0.047714
C140	C	0.843456	-0.254335	-0.106499
C141	C	0.856677	-0.132733	-0.178901
H142	H	0.787270	-0.255411	-0.066352
H143	H	0.881791	-0.257012	-0.043358
H144	H	0.852328	-0.333052	-0.160692
H145	H	0.847811	-0.054016	-0.124706
H146	H	0.818331	-0.130043	-0.242050
H147	H	1.133393	0.619156	0.130773
H148	H	0.982018	0.230966	-0.216571
H149	H	0.912197	0.621117	0.012793
H150	H	0.978121	-0.230919	-0.212858
