data_functionalizedCrystal
_audit_creation_method	'MofGen! by Chris Wilmer'
_symmetry_space_group_name_H-M	'P1'
_symmetry_Int_Tables_number	1
_symmetry_cell_setting	triclinic
loop_
_symmetry_equiv_pos_as_xyz
  x,y,z
_cell_length_a	11.792254
_cell_length_b	14.472311
_cell_length_c	11.792241
_cell_angle_alpha	90.003432
_cell_angle_beta	95.803993
_cell_angle_gamma	90.006047
loop_
_atom_site_label
_atom_site_type_symbol
_atom_site_fract_x
_atom_site_fract_y
_atom_site_fract_z
O1	O	1.506904	0.076841	-0.155622
O2	O	1.840238	0.410174	0.177711
O3	O	2.173571	0.743507	0.511044
O4	O	1.176565	0.076843	-0.171640
O5	O	1.509898	0.410176	0.161693
O6	O	1.843232	0.743509	0.495027
O7	O	1.349751	0.076835	0.001539
O8	O	1.683084	0.410168	0.334872
O9	O	2.016418	0.743502	0.668206
O10	O	1.333718	0.076848	-0.328801
O11	O	1.667052	0.410181	0.004532
O12	O	2.000385	0.743515	0.337865
O13	O	1.349728	-0.076847	0.001516
O14	O	1.683061	0.256486	0.334850
O15	O	2.016395	0.589820	0.668183
O16	O	1.176542	-0.076839	-0.171663
O17	O	1.509875	0.256494	0.161670
O18	O	1.843209	0.589827	0.495004
O19	O	1.506881	-0.076841	-0.155645
O20	O	1.840214	0.256492	0.177688
O21	O	2.173548	0.589825	0.511022
Cu22	Cu	1.341709	-0.090873	-0.163656
Cu23	Cu	1.675043	0.242461	0.169677
Cu24	Cu	2.008376	0.575794	0.503011
Cu25	Cu	1.341737	0.090874	-0.163629
Cu26	Cu	1.675070	0.424207	0.169704
Cu27	Cu	2.008403	0.757541	0.503038
O28	O	1.333695	-0.076834	-0.328824
O29	O	1.667028	0.256499	0.004509
O30	O	2.000362	0.589833	0.337843
C31	C	1.134263	0.000002	-0.170642
C32	C	1.467596	0.333335	0.162691
C33	C	1.800929	0.666669	0.496024
C34	C	1.008250	0.000002	-0.167622
C35	C	1.341583	0.333336	0.165711
C36	C	1.674916	0.666669	0.499044
C37	C	0.905913	0.000006	-0.165168
C38	C	1.239247	0.333340	0.168165
C39	C	1.572580	0.666673	0.501498
C40	C	0.777527	0.000007	-0.162100
C41	C	1.110860	0.333340	0.171233
C42	C	1.444193	0.666673	0.504567
N43	N	1.341698	-0.218704	-0.163674
N44	N	1.675032	0.114630	0.169659
N45	N	2.008365	0.447963	0.502992
C46	C	1.341718	-0.407204	-0.163649
C47	C	1.675051	-0.073871	0.169684
C48	C	2.008385	0.259463	0.503017
C49	C	1.249034	-0.446430	-0.256280
C50	C	1.582368	-0.113097	0.077053
C51	C	1.915701	0.220237	0.410387
C52	C	1.248713	-0.553518	-0.256024
C53	C	1.582046	-0.220185	0.077309
C54	C	1.915380	0.113148	0.410643
C55	C	1.341737	-0.592795	-0.163627
C56	C	1.675070	-0.259462	0.169707
C57	C	2.008404	0.073872	0.503040
C58	C	1.315625	-0.553909	-0.044897
C59	C	1.648958	-0.220576	0.288436
C60	C	1.982292	0.112758	0.621770
C61	C	1.314948	-0.446788	-0.045453
C62	C	1.648281	-0.113455	0.287881
C63	C	1.981614	0.219879	0.621214
C64	C	1.460794	-0.446662	-0.188681
C65	C	1.794127	-0.113329	0.144653
C66	C	2.127460	0.220004	0.477986
C67	C	1.460024	-0.553791	-0.191353
C68	C	1.793357	-0.220458	0.141980
C69	C	2.126691	0.112876	0.475314
C70	C	1.341750	-0.697683	-0.163607
C71	C	1.675084	-0.364350	0.169727
C72	C	2.008417	-0.031016	0.503060
C73	C	1.341702	-0.302316	-0.163662
C74	C	1.675036	0.031018	0.169672
C75	C	2.008369	0.364351	0.503005
C76	C	1.549183	0.000001	-0.156643
C77	C	1.882517	0.333335	0.176691
C78	C	2.215850	0.666668	0.510024
C79	C	1.675196	0.000007	-0.159663
C80	C	2.008530	0.333340	0.173671
C81	C	2.341863	0.666673	0.507004
C82	C	1.348732	-0.000006	0.043819
C83	C	1.682066	0.333328	0.377152
C84	C	2.015399	0.666661	0.710485
C85	C	1.345718	-0.000005	0.169832
C86	C	1.679051	0.333329	0.503166
C87	C	2.012385	0.666662	0.836499
N88	N	1.341757	0.218705	-0.163602
N89	N	1.675090	0.552038	0.169731
N90	N	2.008423	0.885372	0.503065
C91	C	1.334714	0.000009	-0.371104
C92	C	1.668047	0.333342	-0.037770
C93	C	2.001380	0.666676	0.295563
C94	C	1.337728	0.000014	-0.497118
C95	C	1.671061	0.333347	-0.163784
C96	C	2.004395	0.666681	0.169549
C97	C	1.340175	0.000011	0.400545
C98	C	1.673508	0.333344	0.733878
C99	C	2.006842	0.666677	1.067212
C100	C	1.343255	0.000002	0.272160
C101	C	1.676588	0.333336	0.605493
C102	C	2.009921	0.666669	0.938826
H103	H	1.264303	-0.579811	-0.344241
H104	H	1.597636	-0.246478	-0.010908
H105	H	1.930970	0.086856	0.322425
H106	H	1.264366	-0.420678	-0.344796
H107	H	1.597700	-0.087344	-0.011463
H108	H	1.931033	0.245989	0.321871
H109	H	1.161174	-0.419530	-0.240386
H110	H	1.494507	-0.086196	0.092947
H111	H	1.827840	0.247137	0.426280
H112	H	1.228099	-0.421820	-0.023578
H113	H	1.561432	-0.088486	0.309756
H114	H	1.894766	0.244847	0.643089
H115	H	1.229779	-0.580761	-0.022506
H116	H	1.563112	-0.247428	0.310827
H117	H	1.896446	0.085906	0.644161
H118	H	1.160363	-0.579163	-0.239899
H119	H	1.493696	-0.245829	0.093434
H120	H	1.827029	0.087504	0.426767
H121	H	1.379874	-0.420837	0.025610
H122	H	1.713207	-0.087503	0.358944
H123	H	2.046541	0.245830	0.692277
H124	H	1.381334	-0.579347	0.025749
H125	H	1.714667	-0.246014	0.359082
H126	H	2.048001	0.087319	0.692415
F127	F	1.550952	-0.413497	-0.100409
F128	F	1.884285	-0.080164	0.232925
F129	F	2.217618	0.253169	0.566258
F130	F	1.493499	-0.411355	-0.299518
F131	F	1.826832	-0.078022	0.033816
F132	F	2.160165	0.255311	0.367149
H133	H	1.479822	-0.579192	-0.278711
H134	H	1.813155	-0.245858	0.054623
H135	H	2.146489	0.087475	0.387956
H136	H	1.532256	-0.580526	-0.128346
H137	H	1.865589	-0.247193	0.204987
H138	H	2.198923	0.086140	0.538320
