data_functionalizedCrystal
_audit_creation_method	'MofGen! by Chris Wilmer'
_symmetry_space_group_name_H-M	'P1'
_symmetry_Int_Tables_number	1
_symmetry_cell_setting	triclinic
loop_
_symmetry_equiv_pos_as_xyz
  x,y,z
_cell_length_a	18.050590
_cell_length_b	18.050589
_cell_length_c	12.594517
_cell_angle_alpha	89.997371
_cell_angle_beta	89.986082
_cell_angle_gamma	89.976137
loop_
_atom_site_label
_atom_site_type_symbol
_atom_site_fract_x
_atom_site_fract_y
_atom_site_fract_z
Zn1	Zn	1.135163	0.296034	0.601411
Zn2	Zn	1.135088	0.420184	0.423435
Zn3	Zn	1.011010	0.295989	0.423489
Zn4	Zn	1.010916	0.420163	0.601414
O5	O	1.073044	0.358093	0.512437
O6	O	1.239077	0.312530	0.577778
O7	O	1.118637	0.403699	0.274496
O8	O	1.027550	0.192070	0.447113
O9	O	1.239022	0.403743	0.447019
O10	O	1.118764	0.192104	0.577831
O11	O	1.027478	0.312453	0.274536
O12	O	0.907073	0.312433	0.447116
O13	O	1.027389	0.403707	0.750360
O14	O	0.907004	0.403664	0.577837
O15	O	1.118673	0.312510	0.750357
O16	O	1.118545	0.524106	0.447023
O17	O	1.027317	0.524091	0.577783
C18	C	0.880092	0.358042	0.512483
C19	C	0.797546	0.358038	0.512528
C20	C	1.072933	0.551045	0.512421
C21	C	1.072953	0.633590	0.512449
C22	C	0.598079	0.407791	0.583445
C23	C	0.548690	0.340081	0.609629
C24	C	0.646416	0.358080	0.512476
C25	C	0.548724	0.425828	0.486291
C26	C	0.500431	0.358126	0.512428
C27	C	0.598113	0.290333	0.538711
C28	C	0.598152	0.376126	0.415327
C29	C	0.548785	0.308370	0.441475
C30	C	0.730514	0.358054	0.512507
C31	C	0.416334	0.358143	0.512397
C32	C	1.023369	0.833060	0.583533
C33	C	1.005281	0.882472	0.486416
C34	C	1.073009	0.784721	0.512464
C35	C	1.091117	0.882390	0.609593
C36	C	1.073061	0.930706	0.512486
C37	C	1.054885	0.833046	0.415295
C38	C	1.140752	0.832960	0.538538
C39	C	1.122690	0.882350	0.441353
C40	C	1.072977	0.700623	0.512452
C41	C	1.073094	1.014802	0.512487
C42	C	1.266750	0.358144	0.512392
C43	C	1.349295	0.358166	0.512373
C44	C	1.073029	0.358112	0.790058
C45	C	1.073022	0.358120	0.908364
C46	C	1.073148	1.164387	0.512479
C47	C	1.073120	1.081841	0.512499
C48	C	1.023372	0.407715	0.977618
C49	C	1.091114	0.425894	1.048382
C50	C	1.005284	0.339959	1.048399
C51	C	1.140800	0.376335	0.977569
C52	C	1.054924	0.290368	0.977580
C53	C	1.122712	0.308522	1.048312
C54	C	1.073043	0.358096	1.235896
C55	C	1.073018	0.358106	1.117591
H56	H	0.619727	0.449757	0.643528
H57	H	0.527276	0.266301	0.381438
Cl58	Cl	1.187606	0.243760	1.095943
H59	H	0.527025	0.483103	0.464166
Cl60	Cl	0.631696	0.399688	0.288530
H61	H	0.948000	0.324605	1.079512
H62	H	1.039593	0.233094	0.946457
Cl63	Cl	0.515145	0.316536	0.736439
H64	H	1.039524	0.811461	0.333140
H65	H	0.981336	0.811416	0.643549
H66	H	0.619717	0.233042	0.560931
H67	H	0.948018	0.904237	0.464382
H68	H	1.164692	0.903856	0.381193
H69	H	1.198003	0.811197	0.560618
H70	H	1.198100	0.391754	0.946587
H71	H	0.981439	0.449694	0.946578
Cl72	Cl	1.114730	0.915857	0.736396
Cl73	Cl	1.114755	0.514345	1.096400
