data_functionalizedCrystal
_audit_creation_method	'MofGen! by Chris Wilmer'
_symmetry_space_group_name_H-M	'P1'
_symmetry_Int_Tables_number	1
_symmetry_cell_setting	triclinic
loop_
_symmetry_equiv_pos_as_xyz
  x,y,z
_cell_length_a	19.805407
_cell_length_b	12.759399
_cell_length_c	19.805399
_cell_angle_alpha	89.976347
_cell_angle_beta	89.980427
_cell_angle_gamma	90.015116
loop_
_atom_site_label
_atom_site_type_symbol
_atom_site_fract_x
_atom_site_fract_y
_atom_site_fract_z
Zn1	Zn	1.034789	-0.418291	-0.382738
Zn2	Zn	1.034726	-0.593984	-0.269558
Zn3	Zn	0.921603	-0.418320	-0.269563
Zn4	Zn	0.921589	-0.593928	-0.382704
O5	O	0.978177	-0.506131	-0.326141
O6	O	1.129497	-0.441608	-0.367736
O7	O	1.019700	-0.570717	-0.174842
O8	O	0.936650	-0.271295	-0.284592
O9	O	1.129451	-0.570689	-0.284583
O10	O	1.019807	-0.271273	-0.367741
O11	O	0.936589	-0.441657	-0.174845
O12	O	0.826885	-0.441603	-0.284559
O13	O	0.936626	-0.570594	-0.477425
O14	O	0.826875	-0.570622	-0.367684
O15	O	1.019793	-0.441554	-0.477450
O16	O	1.019686	-0.740998	-0.284551
O17	O	0.936565	-0.740957	-0.367679
C18	C	0.802321	-0.506110	-0.326119
C19	C	0.727089	-0.506127	-0.326126
C20	C	0.691757	-0.573408	-0.369339
C21	C	0.621069	-0.573410	-0.369348
C22	C	0.585713	-0.506135	-0.326141
C23	C	0.621050	-0.438847	-0.282926
C24	C	0.691737	-0.438840	-0.282920
C25	C	0.335977	-0.438870	-0.282948
C26	C	0.265285	-0.438884	-0.282956
C27	C	0.265308	-0.573440	-0.369376
C28	C	0.335995	-0.573433	-0.369370
C29	C	0.371326	-0.506141	-0.326158
C30	C	0.447974	-0.506139	-0.326149
C31	C	0.509066	-0.506143	-0.326146
C32	C	0.978135	-0.779098	-0.326125
C33	C	0.978180	-0.895875	-0.326141
C34	C	1.021510	-0.950723	-0.282906
C35	C	1.021554	-1.060447	-0.282928
C36	C	0.934930	-1.060465	-0.369424
C37	C	0.934891	-0.950743	-0.369405
C38	C	1.101446	-1.210321	-0.258846
C39	C	1.144771	-1.265173	-0.215599
C40	C	1.155188	-1.229620	-0.149559
C41	C	1.122271	-1.139217	-0.126751
C42	C	1.078942	-1.084370	-0.169994
C43	C	1.068537	-1.119922	-0.236044
C44	C	0.854997	-0.800867	-0.393480
C45	C	0.811663	-0.746018	-0.436720
C46	C	0.801239	-0.781569	-0.502762
C47	C	0.834144	-0.871976	-0.525567
C48	C	0.877478	-0.926825	-0.482327
C49	C	0.887903	-0.891266	-0.416286
C50	C	1.154720	-0.506152	-0.326163
C51	C	1.229952	-0.506160	-0.326173
C52	C	0.978215	-0.506064	-0.502684
C53	C	0.978231	-0.506036	-0.577916
C54	C	0.978237	-0.232097	-0.326171
C55	C	0.978263	-0.115321	-0.326184
C56	C	1.021537	-0.438842	-0.613274
C57	C	1.021544	-0.438811	-0.683962
C58	C	0.978248	-0.505981	-0.719291
C59	C	0.934937	-0.573179	-0.683928
C60	C	0.934927	-0.573203	-0.613241
C61	C	0.934975	-0.573081	-0.969002
C62	C	0.934990	-0.573054	-1.039694
C63	C	1.021592	-0.438689	-1.039723
C64	C	1.021582	-0.438713	-0.969036
C65	C	0.978269	-0.505906	-0.933679
C66	C	0.978261	-0.505937	-0.857030
C67	C	0.978259	-0.505957	-0.795938
C68	C	0.978178	-0.506121	-0.150285
C69	C	0.978293	-0.505853	-0.075053
H70	H	0.592258	-0.384066	-0.247749
C71	C	1.059997	-0.379081	-0.792334
C72	C	1.069138	-0.364935	-0.722829
H73	H	1.089375	-0.333460	-0.816327
H74	H	1.069897	-0.449655	-0.803915
H75	H	1.014520	-0.363703	-0.803897
H76	H	1.114615	-0.380320	-0.711264
H77	H	1.059243	-0.294345	-0.711242
C78	C	0.925510	-0.714438	-0.889501
C79	C	0.887365	-0.646945	-0.930149
H80	H	0.896113	-0.760036	-0.865513
H81	H	0.954993	-0.754614	-0.917075
H82	H	0.951285	-0.674433	-0.858338
H83	H	0.861594	-0.686951	-0.961315
H84	H	0.857870	-0.606766	-0.902573
C85	C	0.896455	-0.632898	-0.504867
C86	C	0.887324	-0.647065	-0.574372
H87	H	0.867060	-0.678492	-0.480873
H88	H	0.941920	-0.648289	-0.493293
H89	H	0.886563	-0.562306	-0.493298
H90	H	0.897220	-0.717656	-0.585941
H91	H	0.841848	-0.631682	-0.585951
H92	H	0.784874	-0.672399	-0.418148
H93	H	0.899730	-0.627754	-1.068457
H94	H	1.056841	-0.384020	-0.940274
C95	C	0.684619	-0.305849	-0.197485
C96	C	0.730577	-0.364892	-0.235413
H97	H	0.708597	-0.260200	-0.168153
H98	H	0.657069	-0.265722	-0.227020
H99	H	0.657028	-0.351587	-0.171550
H100	H	0.758164	-0.319154	-0.261352
H101	H	0.758138	-0.405023	-0.205874
C102	C	0.599359	-0.624862	-0.483899
C103	C	0.582237	-0.647384	-0.416843
H104	H	0.575390	-0.670541	-0.513220
H105	H	0.587779	-0.554307	-0.493890
H106	H	0.646519	-0.634482	-0.490066
H107	H	0.535077	-0.637757	-0.410675
H108	H	0.593812	-0.717956	-0.406850
C109	C	0.896522	-1.228670	-0.407855
C110	C	0.887341	-1.120779	-0.416971
H111	H	0.867137	-1.265901	-0.437205
H112	H	0.941993	-1.246579	-0.417809
H113	H	0.886649	-1.246699	-0.362369
H114	H	0.897219	-1.102749	-0.462456
H115	H	0.841860	-1.102862	-0.407021
C116	C	1.072072	-1.098728	-0.019527
C117	C	1.133717	-1.100147	-0.054152
H118	H	1.079141	-1.074613	0.025295
H119	H	1.041564	-1.053125	-0.042014
H120	H	1.053709	-1.167492	-0.018369
H121	H	1.152077	-1.031382	-0.055313
H122	H	1.164235	-1.145752	-0.031659
H123	H	1.092975	-1.239270	-0.312623
C124	C	0.328916	-0.706433	-0.454803
C125	C	0.374857	-0.647380	-0.416868
H126	H	0.352909	-0.752078	-0.484130
H127	H	0.301331	-0.746566	-0.425272
H128	H	0.301360	-0.660701	-0.480743
H129	H	0.402410	-0.693112	-0.390923
H130	H	0.402454	-0.607245	-0.446402
H131	H	0.899682	-0.627866	-0.712699
H132	H	1.056857	-0.383973	-1.068519
H133	H	1.056760	-0.906052	-0.247679
H134	H	0.720538	-0.628195	-0.404521
H135	H	0.904274	-1.000436	-0.500902
H136	H	0.236500	-0.384094	-0.247771
C137	C	0.156960	-0.633198	-0.407773
C138	C	0.226470	-0.647400	-0.416884
H139	H	0.132986	-0.678854	-0.437104
H140	H	0.145355	-0.648483	-0.362286
H141	H	0.145396	-0.562626	-0.417761
H142	H	0.238035	-0.717970	-0.406891
H143	H	0.238080	-0.632122	-0.462382
H144	H	0.364735	-0.384085	-0.247757
C145	C	1.107138	-0.306013	-0.620410
C146	C	1.069129	-0.365002	-0.574443
H147	H	1.136516	-0.260421	-0.596438
H148	H	1.133022	-0.351781	-0.647978
H149	H	1.077652	-0.265818	-0.647981
H150	H	1.098615	-0.405204	-0.546875
H151	H	1.043243	-0.319229	-0.546864
H152	H	1.171572	-1.338780	-0.234176
C153	C	0.751441	-0.771546	-0.613090
C154	C	0.753626	-0.721256	-0.550302
H155	H	0.722052	-0.734308	-0.642440
H156	H	0.795492	-0.773337	-0.632027
H157	H	0.735285	-0.841095	-0.607383
H158	H	0.769787	-0.651709	-0.556008
H159	H	0.709566	-0.719454	-0.531361
C160	C	0.884333	-0.912506	-0.632792
C161	C	0.822691	-0.911065	-0.598162
H162	H	0.877259	-0.936643	-0.677608
H163	H	0.902699	-0.843755	-0.633962
H164	H	0.914843	-0.958112	-0.610297
H165	H	0.792183	-0.865452	-0.620655
H166	H	0.804316	-0.979826	-0.596995
H167	H	1.052143	-1.010764	-0.151425
H168	H	0.863486	-0.771906	-0.339705
C169	C	1.229504	-1.376763	-0.135986
C170	C	1.202814	-1.289909	-0.102023
H171	H	1.258910	-1.413979	-0.106642
H172	H	1.193764	-1.421498	-0.149838
H173	H	1.253947	-1.353710	-0.174506
H174	H	1.178366	-1.312963	-0.063505
H175	H	1.238559	-1.245166	-0.088161
