data_functionalizedCrystal
_audit_creation_method	'MofGen! by Chris Wilmer'
_symmetry_space_group_name_H-M	'P1'
_symmetry_Int_Tables_number	1
_symmetry_cell_setting	triclinic
loop_
_symmetry_equiv_pos_as_xyz
  x,y,z
_cell_length_a	8.559649
_cell_length_b	8.597304
_cell_length_c	9.730223
_cell_angle_alpha	82.295717
_cell_angle_beta	89.996958
_cell_angle_gamma	77.624695
loop_
_atom_site_label
_atom_site_type_symbol
_atom_site_fract_x
_atom_site_fract_y
_atom_site_fract_z
O1	O	2.119295	-0.053143	-0.107975
O2	O	1.655355	0.027758	-0.117561
O3	O	1.896455	-0.242260	-0.085581
O4	O	1.878195	0.216875	-0.139954
O5	O	1.896439	-0.242265	0.142999
O6	O	1.655339	0.027753	0.111020
O7	O	2.119279	-0.053147	0.120605
Zn8	Zn	1.887307	-0.012698	0.152105
Zn9	Zn	1.887327	-0.012692	-0.149060
O10	O	1.878179	0.216870	0.088626
C11	C	1.595913	0.033886	-0.003997
C12	C	1.418818	0.052135	-0.006160
C13	C	1.894486	-0.300498	0.035602
C14	C	1.888622	-0.474018	0.056143
C15	C	2.178721	-0.059276	0.007039
C16	C	2.355816	-0.077525	0.009193
C17	C	1.880149	0.275108	-0.032561
C18	C	1.886012	0.448628	-0.053110
N19	N	1.887304	-0.012704	0.357642
N20	N	1.887343	-0.012699	-0.354596
C21	C	1.994100	-0.132228	0.443723
C22	C	1.994116	-0.132230	0.587606
C23	C	1.780535	0.106831	0.559312
C24	C	1.780512	0.106824	0.415433
H25	H	1.337265	0.177113	-0.020968
C26	C	1.894386	-0.301280	-0.193108
C27	C	1.888992	-0.461565	-0.200613
H28	H	1.896215	-0.245830	-0.284173
H29	H	1.802552	-0.251525	-0.147746
H30	H	1.988070	-0.297783	-0.142331
H31	H	1.795302	-0.465062	-0.251381
H32	H	1.980836	-0.511333	-0.245995
C33	C	2.210643	-0.192244	0.756494
C34	C	2.111512	-0.263609	0.682231
H35	H	2.283111	-0.273360	0.814917
H36	H	2.269009	-0.133929	0.693447
H37	H	2.147033	-0.121064	0.811502
H38	H	2.175120	-0.334781	0.627216
H39	H	2.053140	-0.321951	0.745287
H40	H	1.437360	-0.202495	0.023985
H41	H	1.886353	-0.540544	0.165407
C42	C	2.205203	-0.368539	0.486149
C43	C	2.111469	-0.263625	0.380200
H44	H	2.277652	-0.449666	0.446933
H45	H	2.263591	-0.310210	0.535340
H46	H	2.137930	-0.416912	0.548016
H47	H	2.178741	-0.215242	0.318338
H48	H	2.053076	-0.321961	0.330986
C49	C	1.564061	0.166859	0.714057
C50	C	1.663168	0.238218	0.622847
H51	H	1.491613	0.247978	0.753284
H52	H	1.505672	0.108546	0.664850
H53	H	1.627691	0.095677	0.785909
H54	H	1.599539	0.309392	0.550989
H55	H	1.721562	0.296558	0.672056
C56	C	1.569401	0.343147	0.401903
C57	C	1.663117	0.238219	0.320799
H58	H	1.496935	0.424261	0.343477
H59	H	1.511031	0.284824	0.464941
H60	H	1.636684	0.391535	0.452278
H61	H	1.595834	0.189821	0.270432
H62	H	1.721491	0.296550	0.257736
