data_functionalizedCrystal
_audit_creation_method	'MofGen! by Chris Wilmer'
_symmetry_space_group_name_H-M	'P1'
_symmetry_Int_Tables_number	1
_symmetry_cell_setting	triclinic
loop_
_symmetry_equiv_pos_as_xyz
  x,y,z
_cell_length_a	12.594517
_cell_length_b	18.050589
_cell_length_c	12.594509
_cell_angle_alpha	90.027696
_cell_angle_beta	90.021327
_cell_angle_gamma	90.028021
loop_
_atom_site_label
_atom_site_type_symbol
_atom_site_fract_x
_atom_site_fract_y
_atom_site_fract_z
Zn1	Zn	1.627177	-0.295641	0.601864
Zn2	Zn	1.627030	-0.419845	0.423887
Zn3	Zn	1.449181	-0.295673	0.423893
Zn4	Zn	1.449125	-0.419793	0.601817
O5	O	1.538128	-0.357738	0.512865
O6	O	1.776103	-0.312125	0.578272
O7	O	1.603400	-0.403408	0.274942
O8	O	1.472877	-0.191744	0.447523
O9	O	1.775995	-0.403377	0.447513
O10	O	1.603650	-0.191721	0.578278
O11	O	1.472735	-0.312179	0.274946
O12	O	1.300228	-0.312129	0.447478
O13	O	1.472782	-0.403289	0.750769
O14	O	1.300187	-0.403320	0.578198
O15	O	1.603596	-0.312075	0.750804
O16	O	1.603346	-0.523763	0.447468
O17	O	1.472640	-0.523725	0.578192
C18	C	1.261587	-0.357723	0.512834
C19	C	1.143282	-0.357735	0.512846
C20	C	1.074020	-0.308068	0.441883
C21	C	1.003188	-0.375810	0.415704
C22	C	1.003314	-0.290026	0.539043
C23	C	1.074008	-0.425512	0.486616
C24	C	1.074141	-0.339682	0.610001
C25	C	1.003341	-0.407471	0.583858
C26	C	1.538000	-0.550690	0.512848
C27	C	1.538042	-0.633236	0.512876
C28	C	1.467034	-0.832693	0.583939
C29	C	1.441086	-0.882138	0.486814
C30	C	1.538147	-0.784366	0.512889
C31	C	1.564147	-0.882003	0.610026
C32	C	1.538246	-0.930351	0.512911
C33	C	1.512147	-0.832724	0.415713
C34	C	1.635254	-0.832585	0.538990
C35	C	1.609343	-0.882007	0.441799
C36	C	1.538087	-0.700268	0.512878
C37	C	1.538306	-1.014448	0.512912
C38	C	1.815749	-0.357753	0.512897
C39	C	1.934055	-0.357760	0.512911
C40	C	1.538200	-0.357673	0.790486
C41	C	1.538230	-0.357645	0.908792
C42	C	1.538286	-0.164032	0.512906
C43	C	1.538354	-0.081487	0.512924
C44	C	1.538119	-0.357749	0.236324
C45	C	1.538294	-0.357568	0.118019
C46	C	1.467103	-0.407228	0.978026
C47	C	1.564218	-0.425374	1.048817
C48	C	1.441191	-0.339455	1.048800
C49	C	1.635396	-0.375826	0.978024
C50	C	1.512303	-0.289876	0.978001
C51	C	1.609485	-0.307996	1.048760
H52	H	1.105054	-0.266108	0.381797
C53	C	1.482366	-0.803613	0.304713
C54	C	1.560697	-0.754261	0.242998
C55	C	1.530917	-0.725151	0.132000
C56	C	1.422806	-0.745393	0.082718
C57	C	1.344468	-0.794748	0.144434
C58	C	1.374248	-0.823858	0.255431
H59	H	1.640733	-0.739274	0.279479
H60	H	1.588908	-0.688615	0.086314
H61	H	1.400760	-0.723843	0.000550
H62	H	1.264432	-0.809734	0.107952
H63	H	1.316257	-0.860394	0.301117
C64	C	0.961099	-0.396471	0.304747
C65	C	0.988980	-0.347862	0.208246
C66	C	0.946905	-0.368522	0.097286
C67	C	0.876950	-0.437791	0.082827
C68	C	0.849065	-0.486405	0.179331
C69	C	0.891140	-0.465745	0.290291
H70	H	1.040768	-0.296580	0.218947
H71	H	0.967547	-0.332534	0.025848
H72	H	0.845803	-0.453085	0.000688
H73	H	0.797277	-0.537687	0.168631
H74	H	0.870498	-0.501733	0.361730
H75	H	1.717511	-0.391245	0.947065
H76	H	1.104933	-0.482801	0.464394
C77	C	1.690870	-0.251312	1.090480
C78	C	1.809222	-0.259702	1.062291
C79	C	1.890611	-0.203026	1.104022
C80	C	1.853648	-0.137961	1.173941
C81	C	1.735290	-0.129568	1.202133
C82	C	1.653901	-0.186244	1.160403
H83	H	1.836590	-0.307869	1.010530
H84	H	1.978228	-0.209239	1.083151
H85	H	1.913896	-0.096006	1.204832
H86	H	1.707922	-0.081401	1.253895
H87	H	1.566285	-0.180031	1.181273
C88	C	1.482597	-0.212520	0.935937
C89	C	1.561409	-0.169259	0.866003
C90	C	1.531689	-0.091903	0.823937
C91	C	1.423157	-0.057807	0.851806
C92	C	1.344337	-0.101069	0.921744
C93	C	1.374057	-0.178425	0.963809
H94	H	1.641758	-0.194498	0.845370
H95	H	1.590037	-0.059878	0.772164
H96	H	1.401156	-0.000544	0.820666
H97	H	1.263989	-0.075829	0.942377
H98	H	1.315709	-0.210449	1.015582
C99	C	1.593810	-0.911248	0.720985
C100	C	1.524170	-0.891770	0.817507
C101	C	1.553822	-0.921012	0.928468
C102	C	1.653116	-0.969732	0.942907
C103	C	1.722763	-0.989212	0.846381
C104	C	1.693110	-0.959970	0.735420
H105	H	1.450661	-0.855702	0.806822
H106	H	1.502264	-0.906591	0.999922
H107	H	1.675066	-0.991379	1.025046
H108	H	1.796271	-1.025280	0.857067
H109	H	1.744668	-0.974391	0.663966
H110	H	0.972503	-0.449531	0.643897
H111	H	1.105330	-0.324376	0.692110
C112	C	1.385909	-0.463957	0.936056
C113	C	1.422876	-0.528194	0.864581
C114	C	1.341689	-0.584924	0.822609
C115	C	1.223536	-0.577417	0.852113
C116	C	1.186563	-0.513178	0.923592
C117	C	1.267750	-0.456448	0.965564
H118	H	1.510345	-0.533753	0.842737
H119	H	1.369059	-0.632477	0.769696
H120	H	1.163436	-0.619412	0.821043
H121	H	1.099094	-0.507619	0.945435
H122	H	1.240380	-0.408895	1.018477
H123	H	0.972205	-0.232762	0.561137
C124	C	1.385680	-0.803430	0.664992
C125	C	1.267282	-0.823028	0.652845
C126	C	1.185927	-0.793763	0.733891
C127	C	1.222969	-0.744900	0.827084
C128	C	1.341373	-0.725300	0.839235
C129	C	1.422729	-0.754565	0.758189
H130	H	1.239856	-0.859201	0.583854
H131	H	1.098276	-0.808273	0.724895
H132	H	1.162745	-0.723236	0.887079
H133	H	1.368800	-0.689126	0.908225
H134	H	1.510379	-0.740055	0.767185
C135	C	1.330206	-0.911545	0.456993
C136	C	1.239324	-0.856895	0.433575
C137	C	1.128441	-0.886298	0.403764
C138	C	1.108441	-0.970352	0.397370
C139	C	1.199325	-1.025008	0.420788
C140	C	1.310208	-0.995604	0.450599
H141	H	1.254127	-0.794669	0.438308
H142	H	1.061163	-0.845838	0.386428
H143	H	1.026359	-0.992118	0.375302
H144	H	1.184522	-1.087234	0.416055
H145	H	1.377486	-1.036065	0.467935
H146	H	1.669523	-0.903524	0.381655
C147	C	1.746103	-0.803152	0.568847
C148	C	1.794897	-0.822524	0.677465
C149	C	1.905746	-0.793089	0.707336
C150	C	1.967802	-0.744281	0.628589
C151	C	1.919008	-0.724906	0.519964
C152	C	1.808159	-0.754341	0.490093
H153	H	1.748960	-0.858657	0.735765
H154	H	1.941866	-0.807432	0.787748
H155	H	2.049859	-0.722492	0.650701
H156	H	1.964946	-0.688774	0.461664
H157	H	1.772039	-0.739998	0.409681
H158	H	1.586182	-0.482652	1.079923
H159	H	1.359099	-0.324102	1.079890
