data_functionalizedCrystal
_audit_creation_method	'MofGen! by Chris Wilmer'
_symmetry_space_group_name_H-M	'P1'
_symmetry_Int_Tables_number	1
_symmetry_cell_setting	triclinic
loop_
_symmetry_equiv_pos_as_xyz
  x,y,z
_cell_length_a	10.654545
_cell_length_b	10.489741
_cell_length_c	9.730223
_cell_angle_alpha	89.996458
_cell_angle_beta	89.997859
_cell_angle_gamma	84.511126
loop_
_atom_site_label
_atom_site_type_symbol
_atom_site_fract_x
_atom_site_fract_y
_atom_site_fract_z
O1	O	1.667925	0.179133	-0.114275
O2	O	1.302454	0.196209	-0.114281
O3	O	1.493506	0.002069	-0.114270
O4	O	1.476873	0.373273	-0.114287
O5	O	1.493496	0.002066	0.114310
O6	O	1.302444	0.196205	0.114299
O7	O	1.667915	0.179130	0.114305
Zn8	Zn	1.485178	0.187667	0.150594
Zn9	Zn	1.485191	0.187672	-0.150570
O10	O	1.476863	0.373270	0.114293
C11	C	1.255650	0.194955	0.000008
C12	C	1.116205	0.191207	0.000006
C13	C	1.050694	0.189441	0.124606
C14	C	0.919673	0.185899	0.124606
C15	C	0.919684	0.185894	-0.124604
C16	C	1.050704	0.189427	-0.124603
C17	C	1.492244	-0.045464	0.000019
C18	C	1.488486	-0.187091	0.000017
C19	C	1.366925	-0.255171	0.000005
C20	C	1.424345	-0.347323	0.112707
C21	C	1.424383	-0.347295	-0.112655
C22	C	1.545955	-0.277379	0.112812
C23	C	1.545977	-0.277340	-0.112651
C24	C	1.603484	-0.369466	0.000079
C25	C	1.714719	0.180384	0.000012
C26	C	1.854164	0.184132	0.000005
C27	C	1.478125	0.420802	0.000001
C28	C	1.481883	0.562430	-0.000005
N29	N	1.485178	0.187663	0.356130
N30	N	1.485201	0.187665	-0.356107
C31	C	1.569811	0.101731	0.571953
C32	C	1.569803	0.101732	0.428070
C33	C	1.400564	0.273607	0.428080
C34	C	1.400579	0.273611	0.571961
H35	H	0.866340	0.184461	0.226068
Cl36	Cl	0.837336	0.183626	-0.281247
Cl37	Cl	1.344930	-0.395167	0.259814
Cl38	Cl	1.676198	-0.006310	0.662377
Cl39	Cl	1.294210	0.381657	0.662409
H40	H	1.703521	-0.418940	0.000144
H41	H	1.104045	0.190862	-0.226073
Cl42	Cl	1.344946	-0.395092	-0.259754
Cl43	Cl	1.625329	-0.229441	-0.259765
H44	H	1.597341	-0.246574	0.208201
H45	H	1.266979	-0.205470	0.000117
H46	H	1.331665	0.343580	0.369498
Cl47	Cl	1.133034	0.191671	0.281257
Cl48	Cl	1.676177	-0.006302	0.337635
