data_functionalizedCrystal
_audit_creation_method	'MofGen! by Chris Wilmer'
_symmetry_space_group_name_H-M	'P1'
_symmetry_Int_Tables_number	1
_symmetry_cell_setting	triclinic
loop_
_symmetry_equiv_pos_as_xyz
  x,y,z
_cell_length_a	18.050591
_cell_length_b	17.077402
_cell_length_c	17.077396
_cell_angle_alpha	90.029784
_cell_angle_beta	89.974392
_cell_angle_gamma	89.981111
loop_
_atom_site_label
_atom_site_type_symbol
_atom_site_fract_x
_atom_site_fract_y
_atom_site_fract_z
Zn1	Zn	1.135354	0.312592	-0.443963
Zn2	Zn	1.635354	0.812592	0.056037
Zn3	Zn	1.135267	0.443867	-0.312694
Zn4	Zn	1.635267	0.943867	0.187306
Zn5	Zn	1.011163	0.312610	-0.312697
Zn6	Zn	1.511163	0.812610	0.187303
Zn7	Zn	1.011133	0.443810	-0.443904
Zn8	Zn	1.511133	0.943810	0.056096
O9	O	1.073229	0.378220	-0.378315
O10	O	1.573229	0.878220	0.121685
O11	O	1.239267	0.330022	-0.426574
O12	O	1.739267	0.830022	0.073426
O13	O	1.118780	0.426486	-0.202848
O14	O	1.618780	0.926486	0.297152
O15	O	1.027687	0.202760	-0.330136
O16	O	1.527687	0.702760	0.169864
O17	O	1.239203	0.426469	-0.330131
O18	O	1.739203	0.926469	0.169869
O19	O	1.118930	0.202747	-0.426577
O20	O	1.618930	0.702747	0.073423
O21	O	1.027602	0.330052	-0.202850
O22	O	1.527602	0.830052	0.297150
O23	O	0.907235	0.329998	-0.330079
O24	O	1.407235	0.829998	0.169921
O25	O	1.027636	0.426373	-0.553759
O26	O	1.527636	0.926373	-0.053759
O27	O	0.907213	0.426390	-0.426476
O28	O	1.407213	0.926390	0.073524
O29	O	1.118900	0.329967	-0.553803
O30	O	1.618900	0.829967	-0.053803
O31	O	1.118751	0.553706	-0.330074
O32	O	1.618751	1.053706	0.169926
O33	O	1.027550	0.553665	-0.426473
O34	O	1.527550	1.053665	0.073527
C35	C	0.880277	0.378190	-0.378271
C36	C	1.380277	0.878190	0.121729
C37	C	0.797732	0.378197	-0.378272
C38	C	1.297732	0.878197	0.121728
C39	C	1.073158	0.582167	-0.378284
C40	C	1.573158	1.082167	0.121716
C41	C	1.073195	0.669417	-0.378296
C42	C	1.573195	1.169417	0.121704
C43	C	1.073274	0.378162	-0.583059
C44	C	1.573274	0.878162	-0.083059
C45	C	1.073294	0.378137	-0.670309
C46	C	1.573294	0.878137	-0.170309
C47	C	0.598271	0.325718	-0.325972
C48	C	1.098271	0.825718	0.174028
C49	C	0.548857	0.397316	-0.306653
C50	C	1.048857	0.897316	0.193347
C51	C	0.646601	0.378221	-0.378307
C52	C	1.146601	0.878221	0.121693
C53	C	0.548934	0.306647	-0.397623
C54	C	1.048934	0.806647	0.102377
C55	C	0.500616	0.378237	-0.378340
C56	C	1.000616	0.878237	0.121660
C57	C	0.598273	0.449856	-0.358951
C58	C	1.098273	0.949856	0.141049
C59	C	0.598356	0.359140	-0.449955
C60	C	1.098356	0.859140	0.050045
C61	C	0.548963	0.430787	-0.430663
C62	C	1.048963	0.930787	0.069337
C63	C	0.730699	0.378210	-0.378286
C64	C	1.230699	0.878210	0.121714
C65	C	0.416520	0.378256	-0.378361
C66	C	0.916520	0.878256	0.121639
C67	C	1.266935	0.378249	-0.378359
C68	C	1.766935	0.878249	0.121641
C69	C	1.349481	0.378262	-0.378378
C70	C	1.849481	0.878262	0.121622
C71	C	1.073322	0.173475	-0.378364
C72	C	1.573322	0.673475	0.121636
C73	C	1.073361	0.086225	-0.378384
C74	C	1.573361	0.586225	0.121616
C75	C	1.120731	0.710403	-0.328155
C76	C	1.620731	1.210403	0.171845
C77	C	1.120768	0.792383	-0.328175
C78	C	1.620768	1.292383	0.171825
C79	C	1.073263	0.833377	-0.378333
C80	C	1.573263	1.333377	0.121667
C81	C	1.025725	0.792385	-0.428480
C82	C	1.525725	1.292385	0.071520
C83	C	1.025693	0.710406	-0.428463
C84	C	1.525693	1.210406	0.071537
C85	C	1.025794	0.963255	-0.428510
C86	C	1.525794	1.463255	0.071490
C87	C	1.025824	1.045240	-0.428525
C88	C	1.525824	1.545240	0.071475
C89	C	1.120869	1.045232	-0.328222
C90	C	1.620869	1.545232	0.171778
C91	C	1.120837	0.963253	-0.328205
C92	C	1.620837	1.463253	0.171795
C93	C	1.073297	0.922268	-0.378351
C94	C	1.573297	1.422268	0.121649
C95	C	1.120817	0.327934	-0.711323
C96	C	1.620817	0.827934	-0.211323
C97	C	1.120826	0.327908	-0.793304
C98	C	1.620826	0.827908	-0.293304
C99	C	1.073315	0.378089	-0.834269
C100	C	1.573315	0.878089	-0.334269
C101	C	1.025786	0.428294	-0.793249
C102	C	1.525786	0.928294	-0.293249
C103	C	1.025774	0.428316	-0.711270
C104	C	1.525774	0.928316	-0.211270
C105	C	1.025816	0.428247	-0.964119
C106	C	1.525816	0.928247	-0.464119
C107	C	1.025829	0.428227	-1.046104
C108	C	1.525829	0.928227	-0.546104
C109	C	1.120868	0.327840	-1.046153
C110	C	1.620868	0.827840	-0.546153
C111	C	1.120856	0.327861	-0.964174
C112	C	1.620856	0.827861	-0.464174
C113	C	1.073328	0.378067	-0.923160
C114	C	1.573328	0.878067	-0.423160
C115	C	1.073227	0.378221	-0.174367
C116	C	1.573227	0.878221	0.325633
C117	C	1.073352	0.378024	-0.087118
C118	C	1.573352	0.878024	0.412882
H119	H	0.619922	0.281365	-0.281665
H120	H	1.119922	0.781365	0.218335
H121	H	0.527115	0.413467	-0.246076
H122	H	1.027115	0.913467	0.253924
Cl123	Cl	0.631949	0.334171	-0.543456
Cl124	Cl	1.131949	0.834171	-0.043456
H125	H	0.987156	1.078614	-0.469383
H126	H	1.487156	1.578614	0.030617
H127	H	0.987068	0.469188	-0.677877
H128	H	1.487068	0.969188	-0.177877
Cl129	Cl	0.966055	0.491377	-0.844748
Cl130	Cl	1.466055	0.991377	-0.344748
Cl131	Cl	1.180533	0.843905	-0.265140
Cl132	Cl	1.680533	1.343905	0.234860
Cl133	Cl	0.966065	0.491363	-0.912559
Cl134	Cl	1.466065	0.991363	-0.412559
Cl135	Cl	0.966009	0.843920	-0.491540
Cl136	Cl	1.466009	1.343920	0.008460
H137	H	0.527449	0.475245	-0.474936
H138	H	1.027449	0.975245	0.025064
H139	H	0.619856	0.510410	-0.342560
H140	H	1.119856	1.010410	0.157440
Cl141	Cl	0.966030	0.911732	-0.491552
Cl142	Cl	1.466030	1.411732	0.008448
Cl143	Cl	1.180553	0.264850	-0.659833
Cl144	Cl	1.680553	0.764850	-0.159833
H145	H	1.159565	0.286959	-1.079551
H146	H	1.659565	0.786959	-0.579551
Cl147	Cl	0.515467	0.213187	-0.422826
Cl148	Cl	1.015467	0.713187	0.077174
Cl149	Cl	0.965933	0.658881	-0.491503
Cl150	Cl	1.465933	1.158881	0.008497
H151	H	1.159412	0.677031	-0.287308
H152	H	1.659412	1.177031	0.212692
Cl153	Cl	1.180589	0.264780	-0.912676
Cl154	Cl	1.680589	0.764780	-0.412676
H155	H	1.159526	0.287030	-0.826694
H156	H	1.659526	0.787030	-0.326694
Cl157	Cl	1.180557	0.911720	-0.265149
Cl158	Cl	1.680557	1.411720	0.234851
Cl159	Cl	0.966091	0.491304	-1.097601
Cl160	Cl	1.466091	0.991304	-0.597601
H161	H	1.159580	1.078607	-0.287394
H162	H	1.659580	1.578607	0.212606
