data_functionalizedCrystal
_audit_creation_method	'MofGen! by Chris Wilmer'
_symmetry_space_group_name_H-M	'P1'
_symmetry_Int_Tables_number	1
_symmetry_cell_setting	triclinic
loop_
_symmetry_equiv_pos_as_xyz
  x,y,z
_cell_length_a	13.032831
_cell_length_b	19.120904
_cell_length_c	13.032721
_cell_angle_alpha	99.259939
_cell_angle_beta	90.902885
_cell_angle_gamma	85.545341
loop_
_atom_site_label
_atom_site_type_symbol
_atom_site_fract_x
_atom_site_fract_y
_atom_site_fract_z
Zn1	Zn	1.479527	-0.577867	-0.640939
Zn2	Zn	1.464932	-0.473366	-0.807210
Zn3	Zn	1.316971	-0.444097	-0.611801
Zn4	Zn	1.285939	-0.574123	-0.790782
O5	O	1.386842	-0.517363	-0.712683
O6	O	1.620531	-0.577822	-0.682065
O7	O	1.452183	-0.371333	-0.775969
O8	O	1.357629	-0.451160	-0.471177
O9	O	1.609808	-0.501045	-0.804223
O10	O	1.477059	-0.549440	-0.492585
O11	O	1.343477	-0.349829	-0.632402
O12	O	1.169914	-0.447529	-0.616473
O13	O	1.304741	-0.672770	-0.776224
O14	O	1.147116	-0.543058	-0.747970
O15	O	1.446969	-0.675521	-0.666136
O16	O	1.422094	-0.497414	-0.949519
O17	O	1.290588	-0.571439	-0.937450
C18	C	1.121452	-0.491711	-0.677278
C19	C	1.007913	-0.480756	-0.662157
C20	C	1.374021	-0.700306	-0.722598
C21	C	1.368558	-0.778266	-0.726823
C22	C	0.946032	-0.523081	-0.720575
C23	C	0.828683	-0.511759	-0.704948
C24	C	1.440038	-0.816325	-0.671493
C25	C	1.434892	-0.889574	-0.675458
C26	C	1.358270	-0.924765	-0.734759
C27	C	1.286783	-0.886700	-0.790090
C28	C	1.291925	-0.813451	-0.786119
C29	C	1.339036	-1.145857	-0.749610
C30	C	1.333902	-1.219112	-0.753580
C31	C	1.482011	-1.221981	-0.638946
C32	C	1.487149	-1.148731	-0.634985
C33	C	1.415659	-1.110672	-0.690312
C34	C	1.353011	-0.999638	-0.738815
C35	C	1.420915	-1.035799	-0.686249
C36	C	1.653268	-0.543116	-0.748227
C37	C	1.766803	-0.554090	-0.763374
C38	C	1.351416	-0.537215	-0.980954
C39	C	1.336353	-0.545739	-1.095735
C40	C	1.399682	-0.335132	-0.702740
C41	C	1.405382	-0.257171	-0.698250
C42	C	1.394756	-0.512951	-1.152854
C43	C	1.379189	-0.521761	-1.271486
C44	C	1.422433	-0.497453	-0.443369
C45	C	1.437600	-0.488968	-0.328604
H46	H	0.979931	-0.567702	-0.782154
Cl47	Cl	0.955586	-0.411869	-0.567069
H48	H	0.800696	-0.598716	-0.824955
H49	H	0.794790	-0.467140	-0.643357
H50	H	1.493101	-0.920559	-0.630405
H51	H	1.499134	-0.454375	-1.289685
Cl52	Cl	1.571875	-1.269829	-0.569392
Cl53	Cl	1.536372	-0.772094	-0.596946
H54	H	1.549546	-1.120085	-0.586699
Cl55	Cl	1.237565	-1.263349	-0.828128
H56	H	1.224392	-0.915357	-0.838369
H57	H	1.280837	-1.114881	-0.794679
Cl58	Cl	1.202057	-0.765604	-0.855676
H59	H	1.483296	-1.007144	-0.637962
Cl60	Cl	1.256693	-1.043884	-0.813367
H61	H	1.274831	-0.580336	-1.134660
Cl62	Cl	1.489757	-0.459544	-1.092767
Cl63	Cl	1.284195	-0.575180	-1.331571
