data_functionalizedCrystal
_audit_creation_method	'MofGen! by Chris Wilmer'
_symmetry_space_group_name_H-M	'P1'
_symmetry_Int_Tables_number	1
_symmetry_cell_setting	triclinic
loop_
_symmetry_equiv_pos_as_xyz
  x,y,z
_cell_length_a	21.395362
_cell_length_b	21.395364
_cell_length_c	21.395355
_cell_angle_alpha	89.974702
_cell_angle_beta	89.979451
_cell_angle_gamma	90.046492
loop_
_atom_site_label
_atom_site_type_symbol
_atom_site_fract_x
_atom_site_fract_y
_atom_site_fract_z
Zn1	Zn	0.249232	-0.957863	0.354265
Zn2	Zn	0.353992	-0.957767	0.249484
Zn3	Zn	0.249263	-0.853078	0.249500
Zn4	Zn	0.354006	-0.853049	0.354223
O5	O	0.301623	-0.905439	0.301868
O6	O	0.263110	-1.045528	0.340376
O7	O	0.340106	-0.943852	0.161808
O8	O	0.161581	-0.867030	0.263422
O9	O	0.340076	-1.045458	0.263394
O10	O	0.161558	-0.944016	0.340393
O11	O	0.263162	-0.866938	0.161820
O12	O	0.263176	-0.765396	0.263381
O13	O	0.340101	-0.866981	0.441906
O14	O	0.340131	-0.765375	0.340320
O15	O	0.263124	-0.943987	0.441937
O16	O	0.441672	-0.943824	0.263353
O17	O	0.441682	-0.866888	0.340304
C18	C	0.301659	-0.742652	0.301848
C19	C	0.301689	-0.673011	0.301855
C20	C	0.261679	-0.640356	0.342001
C21	C	0.261664	-0.574921	0.342003
C22	C	0.301671	-0.542142	0.301864
C23	C	0.341683	-0.574804	0.261710
C24	C	0.341692	-0.640238	0.261706
C25	C	0.358098	-0.438419	0.296824
C26	C	0.358090	-0.372986	0.296833
C27	C	0.301642	-0.340322	0.301876
C28	C	0.245200	-0.373098	0.306923
C29	C	0.245210	-0.438532	0.306918
C30	C	0.301665	-0.471190	0.301865
C31	C	0.261613	-0.236715	0.342026
C32	C	0.261597	-0.171278	0.342023
C33	C	0.341622	-0.171163	0.261734
C34	C	0.341632	-0.236598	0.261734
C35	C	0.301629	-0.269370	0.301883
C36	C	0.464411	-0.905359	0.301836
C37	C	0.534052	-0.905382	0.301843
C38	C	0.138200	-0.905537	0.301914
C39	C	0.068558	-0.905579	0.301934
C40	C	0.566696	-0.945446	0.341950
C41	C	0.632132	-0.945468	0.341965
C42	C	0.664920	-0.905433	0.301863
C43	C	0.632268	-0.865362	0.261753
C44	C	0.566834	-0.865337	0.261743
C45	C	0.768622	-0.900556	0.245424
C46	C	0.834055	-0.900586	0.245432
C47	C	0.866741	-0.905507	0.301893
C48	C	0.833986	-0.910413	0.358346
C49	C	0.768552	-0.910387	0.358337
C50	C	0.735873	-0.905456	0.301869
C51	C	0.970338	-0.945597	0.342020
C52	C	1.035775	-0.945614	0.342036
C53	C	1.035909	-0.865512	0.261818
C54	C	0.970474	-0.865491	0.261807
C55	C	0.937692	-0.905537	0.301907
C56	C	0.301610	-0.905491	0.465291
C57	C	0.301605	-0.905514	0.534933
C58	C	0.301596	-0.068863	0.301885
C59	C	0.301604	-0.138504	0.301884
C60	C	0.301591	-0.905424	0.139080
C61	C	0.301419	-0.905523	0.069440
C62	C	0.261521	-0.945609	0.567663
C63	C	0.261494	-0.945608	0.633098
C64	C	0.301562	-0.905519	0.665801
C65	C	0.341649	-0.865415	0.633063
C66	C	0.341670	-0.865413	0.567629
C67	C	0.357979	-0.900543	0.769465
C68	C	0.357959	-0.900550	0.834898
C69	C	0.301496	-0.905522	0.867622
C70	C	0.245052	-0.910501	0.834905
C71	C	0.245073	-0.910498	0.769471
C72	C	0.301543	-0.905516	0.736753
C73	C	0.261380	-0.945619	0.971305
C74	C	0.261352	-0.945614	1.036742
C75	C	0.341512	-0.865424	1.036705
C76	C	0.341534	-0.865426	0.971269
C77	C	0.301469	-0.905527	0.938573
H78	H	0.229036	-0.263399	0.374714
C79	C	0.668051	-0.989539	0.386081
H80	H	0.711717	-0.983816	0.380345
H81	H	0.657283	-1.031637	0.376947
H82	H	0.657320	-0.980345	0.428173
H83	H	0.199115	-0.914550	0.742836
C84	C	0.420196	-0.474343	0.291281
H85	H	0.453808	-0.445453	0.288287
H86	H	0.419337	-0.499854	0.254964
H87	H	0.425755	-0.499879	0.327184
C88	C	0.870082	-0.895183	0.183340
H89	H	0.913733	-0.895908	0.191430
H90	H	0.859413	-0.857042	0.163277
H91	H	0.859333	-0.929274	0.157007
C92	C	0.385766	-0.821310	0.531621
H93	H	0.380038	-0.827049	0.487968
H94	H	0.427858	-0.830451	0.542348
H95	H	0.376596	-0.779215	0.542325
H96	H	0.228850	-0.978258	0.659753
H97	H	0.229104	-0.667036	0.374693
H98	H	0.658968	-0.832764	0.229102
C99	C	0.217659	-0.538994	0.386172
H100	H	0.193840	-0.567884	0.410086
H101	H	0.190318	-0.513477	0.362264
H102	H	0.241677	-0.513464	0.413427
C103	C	0.385650	-0.272519	0.217579
H104	H	0.409479	-0.243628	0.193677
H105	H	0.361648	-0.298056	0.190322
H106	H	0.412991	-0.298029	0.241500
H107	H	0.199235	-0.346504	0.311029
C108	C	0.869931	-0.915829	0.420456
H109	H	0.913593	-0.915135	0.412380
H110	H	0.859153	-0.953959	0.440523
H111	H	0.859233	-0.881725	0.446779
H112	H	1.062353	-0.978238	0.374699
H113	H	0.199253	-0.465216	0.311025
H114	H	0.229013	-0.144692	0.374714
C115	C	0.385632	-0.821325	0.935264
H116	H	0.409495	-0.797451	0.964110
H117	H	0.361678	-0.794040	0.909727
H118	H	0.412937	-0.845279	0.909748
C119	C	0.385692	-0.538751	0.217562
H120	H	0.379961	-0.495103	0.223320
H121	H	0.376464	-0.549459	0.175480
H122	H	0.427806	-0.549441	0.226659
C123	C	0.182977	-0.916378	0.870892
H124	H	0.191056	-0.915783	0.914548
H125	H	0.163212	-0.954632	0.860034
H126	H	0.156381	-0.882454	0.860305
H127	H	1.062605	-0.832911	0.229169
C128	C	0.385711	-0.676159	0.217548
H129	H	0.409539	-0.647268	0.193645
H130	H	0.361710	-0.701698	0.190292
H131	H	0.413052	-0.701667	0.241472
H132	H	0.540254	-0.832712	0.229083
C133	C	0.217446	-0.989713	0.531701
H134	H	0.193566	-1.013589	0.560570
H135	H	0.241415	-1.016997	0.506183
H136	H	0.190156	-0.965757	0.506169
C137	C	0.217307	-0.989721	0.935334
H138	H	0.223067	-0.983984	0.891675
H139	H	0.175208	-0.980578	0.946052
H140	H	0.226468	-1.031816	0.946077
H141	H	0.741884	-0.914380	0.404302
H142	H	0.540007	-0.978051	0.374603
C143	C	0.934275	-0.989625	0.386146
H144	H	0.963092	-1.013478	0.410046
H145	H	0.908723	-1.016932	0.362214
H146	H	0.908771	-0.965617	0.413415
H147	H	0.374196	-0.144475	0.229053
C148	C	0.420080	-0.894937	0.733474
H149	H	0.453688	-0.891941	0.762329
H150	H	0.419192	-0.858585	0.707984
H151	H	0.425671	-0.930797	0.707913
C152	C	0.385725	-0.821321	0.669033
H153	H	0.379977	-0.827069	0.712691
H154	H	0.376570	-0.779227	0.658295
H155	H	0.427826	-0.830470	0.658309
C156	C	0.217258	-0.989722	1.072745
H157	H	0.193406	-1.013606	1.043898
H158	H	0.189952	-0.965775	1.098261
H159	H	0.241218	-1.017007	1.098282
C160	C	0.420171	-0.336935	0.291286
H161	H	0.412083	-0.293287	0.292020
H162	H	0.440150	-0.347617	0.253105
H163	H	0.446578	-0.347654	0.325324
H164	H	0.943893	-0.832871	0.229146
C165	C	0.385590	-0.821330	1.072669
H166	H	0.379841	-0.827077	1.116328
H167	H	0.376439	-0.779236	1.061930
H168	H	0.427690	-0.830483	1.061947
H169	H	0.403919	-0.896500	0.861530
H170	H	0.742014	-0.896546	0.199444
