data_functionalizedCrystal
_audit_creation_method	'MofGen! by Chris Wilmer'
_symmetry_space_group_name_H-M	'P1'
_symmetry_Int_Tables_number	1
_symmetry_cell_setting	triclinic
loop_
_symmetry_equiv_pos_as_xyz
  x,y,z
_cell_length_a	16.120530
_cell_length_b	18.101395
_cell_length_c	18.101390
_cell_angle_alpha	90.031247
_cell_angle_beta	92.914658
_cell_angle_gamma	87.126665
loop_
_atom_site_label
_atom_site_type_symbol
_atom_site_fract_x
_atom_site_fract_y
_atom_site_fract_z
Zn1	Zn	1.274473	-0.352281	0.476079
Zn2	Zn	1.274359	-0.476133	0.352236
Zn3	Zn	1.135062	-0.346027	0.345980
Zn4	Zn	1.135003	-0.469795	0.469766
O5	O	1.204724	-0.411059	0.411015
O6	O	1.391122	-0.373980	0.464911
O7	O	1.255859	-0.458909	0.247772
O8	O	1.153628	-0.243227	0.363261
O9	O	1.391039	-0.464973	0.373924
O10	O	1.256052	-0.247822	0.458845
O11	O	1.153518	-0.363321	0.243175
O12	O	1.018390	-0.357176	0.357140
O13	O	1.153527	-0.454172	0.574237
O14	O	1.018346	-0.448108	0.448086
O15	O	1.255995	-0.367834	0.578875
O16	O	1.255801	-0.578922	0.367803
O17	O	1.153417	-0.574265	0.454152
C18	C	0.988118	-0.401276	0.401249
C19	C	0.895453	-0.397108	0.397089
C20	C	0.725793	-0.389482	0.389500
C21	C	0.684496	-0.432690	0.432584
C22	C	0.590092	-0.428447	0.428361
C23	C	0.820206	-0.393725	0.393722
C24	C	1.204613	-0.603465	0.410988
C25	C	1.204641	-0.685780	0.411005
C26	C	1.204824	-0.984879	0.411053
C27	C	1.140556	-0.950662	0.465530
C28	C	1.140251	-0.865030	0.465337
C29	C	1.204734	-0.836492	0.411030
C30	C	1.180950	-0.866577	0.331910
C31	C	1.180535	-0.952203	0.332235
C32	C	1.293017	-0.957199	0.435015
C33	C	1.292498	-0.871524	0.436703
C34	C	1.204684	-0.752631	0.411012
C35	C	1.204872	-1.068741	0.411066
C36	C	1.422176	-0.420881	0.420819
C37	C	1.514842	-0.425066	0.424997
C38	C	1.204767	-0.410994	0.604179
C39	C	1.204785	-0.410966	0.686494
C40	C	1.204859	-0.217903	0.411059
C41	C	1.204916	-0.135592	0.411078
C42	C	1.204730	-0.411073	0.218605
C43	C	1.204874	-0.410899	0.136298
C44	C	1.204815	-0.410944	0.837204
C45	C	1.269287	-0.356618	0.871476
C46	C	1.269556	-0.356785	0.957106
C47	C	1.204844	-0.410921	0.985588
C48	C	1.228345	-0.490093	0.955537
C49	C	1.228796	-0.489796	0.869912
C50	C	1.116685	-0.386769	0.864796
C51	C	1.117175	-0.385056	0.950469
C52	C	1.204859	-0.410913	1.069448
C53	C	1.204801	-0.410957	0.753344
H54	H	1.155131	-0.844633	0.523880
H55	H	1.183843	-0.531864	0.847134
H56	H	0.720042	-0.472867	0.472642
O57	O	1.356068	-0.378411	0.988156
H58	H	1.374864	-0.434480	0.968221
O59	O	1.355305	-0.378022	0.846868
H60	H	1.352338	-0.427186	0.810336
H61	H	1.068654	-0.426286	0.842343
O62	O	1.356528	-0.986883	0.382600
H63	H	1.405339	-1.021180	0.413916
O64	O	1.160008	-0.979120	0.543195
H65	H	1.223371	-0.963714	0.562180
O66	O	1.053664	-0.834071	0.443881
H67	H	1.009664	-0.852741	0.484381
H68	H	1.342914	-0.852388	0.400232
O69	O	1.168069	-0.545404	0.979754
H70	H	1.120611	-0.516984	1.013550
O71	O	0.678720	-0.336286	0.336418
H72	H	0.610884	-0.341278	0.341378
O73	O	1.250139	-0.279198	0.984106
H74	H	1.240474	-0.241219	0.935978
O75	O	1.088232	-0.311330	0.834935
H76	H	1.133267	-0.270154	0.854160
H77	H	1.075583	-0.969319	0.449530
O78	O	1.093683	-0.307854	0.976348
H79	H	1.084366	-0.270364	0.927812
O80	O	1.095141	-0.974912	0.305966
H81	H	1.054529	-0.924753	0.293154
O82	O	1.250087	-0.278803	0.843361
H83	H	1.303983	-0.259754	0.814069
H84	H	1.292046	-0.510351	0.979876
O85	O	1.239834	-0.982334	0.276345
H86	H	1.268675	-0.935738	0.249201
H87	H	1.226287	-0.848254	0.290040
O88	O	1.050215	-0.433240	0.975725
H89	H	1.048025	-0.430267	1.036847
H90	H	1.117164	-0.842316	0.311800
H91	H	1.314701	-0.979721	0.491934
O92	O	1.314117	-0.516259	0.847282
H93	H	1.328593	-0.573173	0.868607
O94	O	1.316275	-0.845609	0.513851
H95	H	1.265803	-0.807932	0.533833
