data_functionalizedCrystal
_audit_creation_method	'MofGen! by Chris Wilmer'
_symmetry_space_group_name_H-M	'P1'
_symmetry_Int_Tables_number	1
_symmetry_cell_setting	triclinic
loop_
_symmetry_equiv_pos_as_xyz
  x,y,z
_cell_length_a	11.892095
_cell_length_b	8.559649
_cell_length_c	8.559649
_cell_angle_alpha	69.778664
_cell_angle_beta	93.338211
_cell_angle_gamma	86.645434
loop_
_atom_site_label
_atom_site_type_symbol
_atom_site_fract_x
_atom_site_fract_y
_atom_site_fract_z
O1	O	-0.093986	-2.115211	0.043405
O2	O	-0.093990	-1.639726	-0.040377
O3	O	-0.093987	-1.919359	0.239256
O4	O	-0.093990	-1.835578	-0.236229
O5	O	0.094021	-1.942684	0.262527
O6	O	0.094017	-1.663050	-0.017107
O7	O	0.094022	-2.138536	0.066675
Zn8	Zn	0.123870	-1.904496	0.028479
Zn9	Zn	-0.123839	-1.873765	-0.002181
O10	O	0.094018	-1.858902	-0.212959
C11	C	0.000013	-1.591079	-0.035091
C12	C	0.000011	-1.411379	-0.053991
N13	N	-0.292893	-1.852794	-0.023093
C14	C	0.000015	-1.937370	0.311200
C15	C	0.000009	-1.956269	0.490899
C16	C	-0.529538	-2.071496	0.194935
C17	C	-0.647880	-2.056828	0.180328
C18	C	-0.647921	-1.808798	-0.066921
C19	C	-0.529579	-1.823466	-0.052314
C20	C	-0.470392	-1.954818	0.078620
C21	C	-0.352047	-1.969478	0.093234
C22	C	-0.352091	-1.721456	-0.154021
C23	C	-0.470433	-1.706788	-0.168629
N24	N	0.292924	-1.925481	0.049405
C25	C	0.000016	-2.187182	0.061389
C26	C	0.000010	-2.366881	0.080287
C27	C	0.000014	-1.840891	-0.284903
C28	C	0.000012	-1.821991	-0.464602
H29	H	-0.303858	-2.076428	0.199850
H30	H	0.000015	-1.692572	0.436020
H31	H	-0.303921	-1.626445	-0.248729
H32	H	0.000006	-1.466258	0.209706
O33	O	0.000018	-2.127722	0.622531
H34	H	0.000020	-2.116168	0.747755
H35	H	0.000004	-1.311990	-0.183419
H36	H	-0.696034	-2.151840	0.275041
O37	O	-0.465688	-2.213160	0.336144
H38	H	-0.526699	-2.291837	0.414569
O39	O	-0.711766	-1.667096	-0.208098
H40	H	-0.803993	-1.676488	-0.198689
O41	O	-0.534271	-1.565087	-0.309814
H42	H	-0.626499	-1.574471	-0.300418
