data_functionalizedCrystal
_audit_creation_method	'MofGen! by Chris Wilmer'
_symmetry_space_group_name_H-M	'P1'
_symmetry_Int_Tables_number	1
_symmetry_cell_setting	triclinic
loop_
_symmetry_equiv_pos_as_xyz
  x,y,z
_cell_length_a	19.851628
_cell_length_b	31.640172
_cell_length_c	19.851628
_cell_angle_alpha	60.003113
_cell_angle_beta	90.001806
_cell_angle_gamma	60.010614
loop_
_atom_site_label
_atom_site_type_symbol
_atom_site_fract_x
_atom_site_fract_y
_atom_site_fract_z
Zr1	Zr	0.649005	0.462627	-0.088423
O2	O	0.541473	0.550778	-0.195970
O3	O	0.681956	0.374466	-0.055456
O4	O	0.681979	0.462622	-0.195979
O5	O	0.541446	0.462630	0.055403
O6	O	0.792828	0.462630	-0.195985
O7	O	0.541450	0.462622	-0.055446
O8	O	0.792786	0.304934	0.055386
O9	O	0.541488	0.620326	-0.195969
O10	O	0.778750	0.410738	-0.041399
O11	O	0.696022	0.410738	0.041331
O12	O	0.696050	0.514531	-0.124117
O13	O	0.613322	0.514531	-0.041387
Zr14	Zr	0.825790	0.462654	0.088358
Zr15	Zr	0.825796	0.462641	-0.088433
Zr16	Zr	0.648999	0.462641	0.088368
Zr17	Zr	0.649029	0.573548	-0.088421
Zr18	Zr	0.825766	0.351733	0.088356
O19	O	0.792840	0.550815	0.055390
O20	O	0.792847	0.550797	-0.195984
O21	O	0.541466	0.550797	0.055404
O22	O	0.933322	0.374503	0.195904
O23	O	0.933330	0.374484	-0.055470
O24	O	0.681948	0.374484	0.195918
O25	O	0.933349	0.462651	-0.055468
O26	O	0.792816	0.462659	0.195914
O27	O	0.681967	0.462651	0.195920
O28	O	0.933346	0.462659	0.055381
O29	O	0.682014	0.620336	-0.195976
O30	O	0.792782	0.304945	0.195911
O31	O	0.933307	0.304955	0.195903
O32	O	0.933311	0.304945	0.055378
O33	O	0.541484	0.620336	-0.055443
O34	O	0.682009	0.620347	-0.055451
O35	O	0.778745	0.410750	0.124052
O36	O	0.861473	0.410750	0.041322
O37	O	0.778773	0.514543	-0.041397
O38	O	0.696045	0.514543	0.041333
C39	C	0.737367	0.323896	-0.000035
C40	C	0.737357	0.276808	-0.000036
C41	C	0.780597	-0.015234	-0.043209
C42	C	0.780614	-0.192230	-0.043209
O43	O	0.817370	-0.215135	-0.079906
N44	N	0.737430	-0.214359	-0.000026
C45	C	0.694243	-0.192239	0.043164
O46	O	0.657520	-0.215127	0.079900
C47	C	0.694232	-0.015247	0.043167
C48	C	0.737412	0.006884	-0.000025
C49	C	0.823774	0.006896	-0.086397
C50	C	0.823766	0.051145	-0.086400
C51	C	0.780580	0.073263	-0.043216
C52	C	0.737403	0.051132	-0.000028
C53	C	0.651050	0.006869	0.086362
C54	C	0.651053	0.051118	0.086360
C55	C	0.694233	0.073249	0.043168
C56	C	0.694209	0.117499	0.043153
N57	N	0.737393	0.139628	-0.000029
C58	C	0.780579	0.117510	-0.043214
C59	C	0.694251	-0.285162	0.043157
C60	C	0.694253	-0.329409	0.043155
C61	C	0.780625	-0.329397	-0.043216
C62	C	0.780618	-0.285146	-0.043218
C63	C	0.737435	-0.263033	-0.000025
C64	C	0.780558	0.210436	-0.043218
C65	C	0.780543	0.254690	-0.043221
C66	C	0.694174	0.254672	0.043154
C67	C	0.694185	0.210424	0.043153
C68	C	0.737383	0.188305	-0.000035
O69	O	0.657480	0.140426	0.079838
O70	O	0.817312	0.140396	-0.079930
C71	C	0.780606	-0.059483	-0.043206
C72	C	0.737428	-0.081613	-0.000018
C73	C	0.694243	-0.059496	0.043166
C74	C	0.737430	-0.125860	-0.000020
C75	C	0.780615	-0.147978	-0.043205
C76	C	0.823800	-0.125849	-0.086387
C77	C	0.823791	-0.081601	-0.086390
C78	C	0.651059	-0.081625	0.086349
C79	C	0.651070	-0.125873	0.086348
C80	C	0.694255	-0.147991	0.043163
C81	C	0.516259	0.462624	-0.000020
C82	C	0.441207	0.462619	-0.000016
C83	C	0.304932	0.406040	0.045075
C84	C	0.237489	0.434333	0.077771
C85	C	0.303775	0.462634	-0.000027
C86	C	0.237484	0.434338	-0.032694
C87	C	0.171026	0.462645	-0.000036
C88	C	0.237320	0.490927	0.032714
C89	C	0.237326	0.490924	-0.077794
C90	C	0.169870	0.519258	-0.045118
C91	C	0.380250	0.462626	-0.000019
C92	C	0.094549	0.462657	-0.000043
C93	C	0.958536	0.462657	-0.000045
C94	C	1.033589	0.462662	-0.000049
C95	C	0.737404	0.462624	-0.221171
C96	C	0.737407	0.462619	-0.296224
C97	C	0.737428	0.601385	-0.000030
C98	C	0.737438	0.648473	-0.000029
C99	C	0.782495	0.406040	-0.432488
C100	C	0.704717	0.434324	-0.499936
C101	C	0.737399	0.462634	-0.433655
C102	C	0.815161	0.434346	-0.499942
C103	C	0.737397	0.462645	-0.566404
C104	C	0.659575	0.490919	-0.500115
C105	C	0.770074	0.490932	-0.500110
C106	C	0.692250	0.519258	-0.567571
C107	C	0.737400	0.462626	-0.357180
C108	C	0.737387	0.462657	-0.642881
C109	C	0.737391	0.462657	0.221106
C110	C	0.737389	0.462662	0.296158
C111	C	0.958506	0.323913	-0.000048
C112	C	1.033548	0.276830	-0.000053
C113	C	0.737361	0.323913	0.221103
C114	C	0.737348	0.276830	0.296155
C115	C	0.958499	0.323929	0.221091
C116	C	1.033539	0.276851	0.296138
C117	C	0.516296	0.601352	-0.221157
C118	C	0.441256	0.648430	-0.296204
C119	C	0.516289	0.601368	-0.000018
C120	C	0.441247	0.648451	-0.000013
C121	C	0.737435	0.601368	-0.221169
C122	C	0.737447	0.648451	-0.296220
C123	C	1.025608	0.254712	-0.043242
C124	C	1.096111	0.210479	-0.043263
C125	C	1.174554	0.188361	-0.000090
C126	C	1.182492	0.210482	0.043101
C127	C	1.111989	0.254718	0.043117
C128	C	0.780522	0.254725	0.374587
C129	C	0.780507	0.210492	0.445112
C130	C	0.737322	0.188361	0.437205
C131	C	0.694143	0.210469	0.358765
C132	C	0.694153	0.254705	0.288241
C133	C	1.111969	0.254743	0.288197
C134	C	1.182484	0.210515	0.358706
C135	C	1.174566	0.188393	0.437154
C136	C	1.096128	0.210505	0.445094
C137	C	1.025615	0.254736	0.374586
C138	C	0.362826	0.670543	-0.288263
C139	C	0.292312	0.714785	-0.358771
C140	C	0.300229	0.736910	-0.437220
C141	C	0.378667	0.714794	-0.445159
C142	C	0.449180	0.670556	-0.374652
C143	C	0.449187	0.670573	0.043169
C144	C	0.378684	0.714819	0.043171
C145	C	0.300242	0.736939	-0.000005
C146	C	0.292303	0.714815	-0.043192
C147	C	0.362806	0.670574	-0.043198
C148	C	0.780641	0.670569	-0.288286
C149	C	0.780669	0.714802	-0.358798
C150	C	0.737498	0.736921	-0.437244
C151	C	0.694303	0.714799	-0.445177
C152	C	0.694280	0.670564	-0.374665
H153	H	0.858930	0.069160	-0.121568
C154	C	0.828015	0.186174	0.531389
C155	C	0.781729	0.192265	0.591753
C156	C	0.829238	0.167948	0.678028
C157	C	0.923032	0.137538	0.703938
C158	C	0.969323	0.131445	0.643573
C159	C	0.921815	0.155763	0.557298
H160	H	0.712293	0.214777	0.572574
H161	H	0.794970	0.172458	0.722714
H162	H	0.958200	0.119537	0.767803
H163	H	1.038760	0.108933	0.662752
H164	H	0.956083	0.151252	0.512612
C165	C	0.387428	0.739144	0.090687
C166	C	0.350821	0.733066	0.160740
C167	C	0.359566	0.757389	0.208256
C168	C	0.404919	0.787789	0.185720
C169	C	0.441529	0.793868	0.115664
C170	C	0.432783	0.769546	0.068147
H171	H	0.317246	0.710560	0.177425
H172	H	0.332465	0.752888	0.260117
H173	H	0.411393	0.805794	0.220895
H174	H	0.475104	0.816374	0.098978
H175	H	0.459884	0.774046	0.016287
C176	C	0.091876	0.583955	-0.096640
C177	C	0.005918	0.595981	-0.106768
C178	C	-0.072077	0.660676	-0.158285
C179	C	-0.064114	0.713345	-0.199675
C180	C	0.021847	0.701320	-0.189549
C181	C	0.099842	0.636625	-0.138031
H182	H	0.000021	0.556991	-0.076127
H183	H	-0.135711	0.669577	-0.165781
H184	H	-0.121851	0.761236	-0.237812
H185	H	0.027744	0.740310	-0.220189
H186	H	0.163476	0.627724	-0.130535
H187	H	0.238036	0.514819	-0.143543
H188	H	0.858953	-0.063585	-0.121561
C189	C	0.828023	0.279068	0.383300
C190	C	0.828043	0.327728	0.305738
C191	C	0.875540	0.352071	0.314460
C192	C	0.923017	0.327755	0.400742
C193	C	0.922998	0.279092	0.478310
C194	C	0.875501	0.254749	0.469588
H195	H	0.792896	0.345730	0.241861
H196	H	0.875553	0.388094	0.257038
H197	H	0.958177	0.345775	0.407198
H198	H	0.958145	0.261089	0.542187
H199	H	0.875488	0.218726	0.527010
H200	H	0.880927	0.410421	-0.500598
H201	H	1.118466	0.272720	0.078291
H202	H	0.659085	-0.267161	0.078333
H203	H	0.513052	0.652566	0.078333
C204	C	0.646648	0.186116	0.350077
C205	C	0.669201	0.155684	0.304773
C206	C	0.621713	0.131326	0.296089
C207	C	0.551671	0.137399	0.332710
C208	C	0.529115	0.167832	0.378018
C209	C	0.576603	0.192191	0.386701
H210	H	0.721053	0.151187	0.277661
H211	H	0.638411	0.108797	0.262550
H212	H	0.516518	0.119367	0.326282
H213	H	0.477263	0.172329	0.405130
H214	H	0.559905	0.214719	0.420241
H215	H	0.615889	-0.011144	0.121534
H216	H	0.737320	0.152341	0.494636
H217	H	0.658998	0.272696	0.224381
C218	C	0.646815	0.739137	-0.531472
C219	C	0.669345	0.696568	-0.557428
C220	C	0.621854	0.720911	-0.643726
C221	C	0.551832	0.787822	-0.704068
C222	C	0.529298	0.830394	-0.678113
C223	C	0.576790	0.806052	-0.591815
H224	H	0.721182	0.647033	-0.512759
H225	H	0.638535	0.689395	-0.662940
H226	H	0.516676	0.805841	-0.767950
H227	H	0.477461	0.879929	-0.722782
H228	H	0.560108	0.837568	-0.572601
C229	C	1.120692	0.279074	0.201910
C230	C	1.206973	0.254752	0.193192
C231	C	1.215704	0.279082	0.106907
C232	C	1.138155	0.327734	0.029340
C233	C	1.051868	0.352059	0.038054
C234	C	1.043137	0.327729	0.124340
H235	H	1.264385	0.218734	0.250615
H236	H	1.279580	0.261075	0.100456
H237	H	1.144618	0.345745	-0.034534
H238	H	0.994456	0.388077	-0.019368
H239	H	0.979261	0.345736	0.130790
H240	H	0.615886	0.069122	0.121533
H241	H	0.513039	0.652552	-0.381127
C242	C	0.939327	0.279040	-0.090742
C243	C	0.930611	0.254709	-0.138253
C244	C	0.844333	0.279036	-0.185761
C245	C	0.766771	0.327694	-0.185758
C246	C	0.775484	0.352028	-0.138245
C247	C	0.861762	0.327701	-0.090737
H248	H	0.988029	0.218686	-0.138257
H249	H	0.837883	0.261022	-0.220934
H250	H	0.702902	0.345703	-0.220926
H251	H	0.718066	0.388051	-0.138240
H252	H	0.868212	0.345715	-0.055564
H253	H	1.246345	0.192516	0.352227
H254	H	0.242806	0.772931	-0.494625
H255	H	1.231989	0.152378	0.494559
H256	H	1.089694	0.192487	0.508976
H257	H	0.362754	0.358186	0.083265
C258	C	0.737523	0.785584	-0.514803
C259	C	0.690037	0.809921	-0.601096
C260	C	0.690063	0.858585	-0.678651
C261	C	0.737575	0.882913	-0.669913
C262	C	0.785064	0.858576	-0.583616
C263	C	0.785037	0.809911	-0.506061
H264	H	0.654864	0.791912	-0.607567
H265	H	0.654909	0.876601	-0.742533
H266	H	0.737594	0.918937	-0.727324
H267	H	0.820237	0.876584	-0.577145
H268	H	0.820192	0.791896	-0.442179
C269	C	0.828178	0.739134	-0.350059
C270	C	0.921964	0.696555	-0.304719
C271	C	0.969472	0.720886	-0.295976
C272	C	0.923195	0.787795	-0.332574
C273	C	0.829404	0.830378	-0.377917
C274	C	0.781896	0.806047	-0.386659
H275	H	0.956226	0.647021	-0.277624
H276	H	1.038903	0.689363	-0.262410
H277	H	0.958364	0.805806	-0.326103
H278	H	0.795142	0.879912	-0.405012
H279	H	0.712465	0.837570	-0.420226
H280	H	0.236819	0.410404	-0.060319
H281	H	0.659013	0.192411	0.078312
C282	C	0.236559	0.402026	0.166608
C283	C	0.306942	0.335896	0.231445
C284	C	0.306017	0.303585	0.320282
C285	C	0.234710	0.337405	0.344281
C286	C	0.164322	0.403540	0.279441
C287	C	0.165246	0.435850	0.190605
H288	H	0.359733	0.310857	0.213681
H289	H	0.358124	0.254628	0.368280
H290	H	0.234025	0.313487	0.410043
H291	H	0.111531	0.428579	0.297205
H292	H	0.113140	0.484808	0.142607
C293	C	0.354103	0.646212	-0.201975
C294	C	0.431652	0.597551	-0.124408
C295	C	0.422921	0.573226	-0.038122
C296	C	0.336640	0.597561	-0.029405
C297	C	0.259085	0.646225	-0.106975
C298	C	0.267816	0.670551	-0.193260
H299	H	0.495528	0.579534	-0.130858
H300	H	0.480333	0.537201	0.019300
H301	H	0.330177	0.579554	0.034468
H302	H	0.195209	0.664242	-0.100524
H303	H	0.210404	0.706575	-0.250683
H304	H	1.231955	0.152341	-0.000109
H305	H	0.242841	0.772963	0.000007
H306	H	1.089632	0.192473	-0.078433
H307	H	0.228451	0.732784	-0.352291
C308	C	0.646666	0.279010	0.090650
C309	C	0.646664	0.327684	0.090642
C310	C	0.599158	0.352022	0.138141
C311	C	0.551655	0.327687	0.185648
C312	C	0.551656	0.279011	0.185657
C313	C	0.599161	0.254673	0.138159
H314	H	0.681830	0.345701	0.055473
H315	H	0.599158	0.388055	0.138134
H316	H	0.516488	0.345703	0.220809
H317	H	0.516489	0.260994	0.220826
H318	H	0.599161	0.218639	0.138166
H319	H	0.237924	0.514833	0.060414
H320	H	0.659103	0.652561	-0.381137
C321	C	0.206012	0.739146	-0.090672
C322	C	0.145666	0.806055	-0.160709
C323	C	0.059371	0.830383	-0.208181
C324	C	0.033423	0.787803	-0.185616
C325	C	0.093771	0.720890	-0.115576
C326	C	0.180065	0.696562	-0.068104
H327	H	0.164873	0.837579	-0.177416
H328	H	0.014698	0.879916	-0.260029
H329	H	-0.030457	0.805812	-0.220758
H330	H	0.074563	0.689367	-0.098869
H331	H	0.224738	0.647029	-0.016256
H332	H	0.858960	-0.143863	-0.121553
C333	C	1.268784	0.186140	0.090598
C334	C	1.329149	0.192214	0.044300
C335	C	1.415443	0.167865	0.091804
C336	C	1.441372	0.137443	0.185606
C337	C	1.381005	0.131369	0.231910
C338	C	1.294711	0.155717	0.184406
H339	H	1.309956	0.214735	-0.025143
H340	H	1.460131	0.172362	0.057526
H341	H	1.505252	0.119419	0.220771
H342	H	1.400198	0.108847	0.301352
H343	H	1.250024	0.151220	0.218683
H344	H	0.815704	0.272709	-0.078396
H345	H	0.961757	0.272730	0.381063
H346	H	0.654059	0.567151	-0.625308
H347	H	0.820566	0.358188	-0.374655
C348	C	0.807441	0.523221	-0.499147
C349	C	0.838683	0.549128	-0.569517
C350	C	0.876062	0.581411	-0.568546
C351	C	0.882197	0.587786	-0.497206
C352	C	0.850953	0.561878	-0.426831
C353	C	0.813575	0.529595	-0.427801
H354	H	0.834142	0.544410	-0.622332
H355	H	0.899190	0.600590	-0.620643
H356	H	0.909867	0.611683	-0.496488
H357	H	0.855494	0.566596	-0.374016
H358	H	0.790447	0.510416	-0.375704
H359	H	0.385103	0.732814	-0.509040
H360	H	0.356330	0.652563	-0.078360
H361	H	0.815796	0.652567	-0.224418
C362	C	0.667369	0.402012	-0.500852
C363	C	0.707921	0.335881	-0.430453
C364	C	0.670577	0.303565	-0.431361
C365	C	0.592680	0.337380	-0.502669
C366	C	0.552123	0.403514	-0.573074
C367	C	0.589467	0.435830	-0.572166
H368	H	0.765589	0.310846	-0.377661
H369	H	0.700600	0.254608	-0.379242
H370	H	0.565035	0.313458	-0.503341
H371	H	0.494455	0.428549	-0.625865
H372	H	0.559444	0.484787	-0.624285
C373	C	0.570689	0.523202	-0.499310
C374	C	0.554269	0.529140	-0.427648
C375	C	0.465386	0.561421	-0.426840
C376	C	0.392923	0.587765	-0.497694
C377	C	0.409342	0.581828	-0.569361
C378	C	0.498225	0.549547	-0.570169
H379	H	0.607911	0.509638	-0.375193
H380	H	0.453232	0.565816	-0.373787
H381	H	0.327127	0.611661	-0.497095
H382	H	0.355699	0.601330	-0.621815
H383	H	0.510379	0.545152	-0.623222
H384	H	0.858945	-0.011110	-0.121562
C385	C	0.646745	-0.353744	0.090658
C386	C	0.599247	-0.329411	0.138161
C387	C	0.551742	-0.353748	0.185670
C388	C	0.551735	-0.402417	0.185677
C389	C	0.599234	-0.426754	0.138172
C390	C	0.646739	-0.402417	0.090663
H391	H	0.599251	-0.293380	0.138158
H392	H	0.516580	-0.335732	0.220836
H393	H	0.516569	-0.420433	0.220846
H394	H	0.599230	-0.462784	0.138175
H395	H	0.681902	-0.420433	0.055497
H396	H	0.815779	-0.267130	-0.078388
H397	H	0.815734	0.192431	-0.078384
C398	C	0.603550	-0.057301	0.133857
C399	C	0.649826	-0.063371	0.203913
C400	C	0.602311	-0.039049	0.251424
C401	C	0.508521	-0.008658	0.228878
C402	C	0.462241	-0.002587	0.158819
C403	C	0.509755	-0.026909	0.111308
H404	H	0.719259	-0.085870	0.220606
H405	H	0.636571	-0.043544	0.303286
H406	H	0.473348	0.009346	0.264048
H407	H	0.392807	0.019911	0.142126
H408	H	0.475495	-0.022414	0.059446
H409	H	0.615899	-0.143885	0.121517
H410	H	0.815787	-0.347412	-0.078380
