data_functionalizedCrystal
_audit_creation_method	'MofGen! by Chris Wilmer'
_symmetry_space_group_name_H-M	'P1'
_symmetry_Int_Tables_number	1
_symmetry_cell_setting	triclinic
loop_
_symmetry_equiv_pos_as_xyz
  x,y,z
_cell_length_a	10.723023
_cell_length_b	10.723023
_cell_length_c	9.798715
_cell_angle_alpha	89.998183
_cell_angle_beta	89.996770
_cell_angle_gamma	84.467548
loop_
_atom_site_label
_atom_site_type_symbol
_atom_site_fract_x
_atom_site_fract_y
_atom_site_fract_z
O1	O	1.657187	0.175020	-0.113473
O2	O	1.294035	0.191774	-0.113478
O3	O	1.483988	0.001821	-0.113471
O4	O	1.467234	0.364973	-0.113480
O5	O	1.483974	0.001820	0.113511
O6	O	1.294021	0.191774	0.113504
O7	O	1.657173	0.175019	0.113509
Zn8	Zn	1.475595	0.183396	0.149545
Zn9	Zn	1.475613	0.183397	-0.149514
O10	O	1.467220	0.364973	0.113502
C11	C	1.247528	0.190555	0.000012
C12	C	1.108974	0.186908	0.000010
C13	C	1.047194	0.185281	0.117593
C14	C	0.903991	0.181512	0.117593
C15	C	1.482762	-0.044679	0.000018
C16	C	1.479115	-0.183233	0.000013
C17	C	1.477481	-0.245012	0.117594
C18	C	1.473712	-0.388215	0.117592
C19	C	1.703680	0.176239	0.000016
C20	C	1.842234	0.179886	0.000009
C21	C	1.468446	0.411473	0.000010
C22	C	1.472093	0.550027	0.000006
N23	N	1.475591	0.183395	0.353645
N24	N	1.475627	0.183388	-0.353613
C25	C	1.555347	0.103288	0.421425
C26	C	1.555367	0.103283	0.578587
H27	H	0.895354	0.181292	-0.100663
C28	C	1.477234	-0.254990	-0.135992
C29	C	1.583052	-0.357770	-0.169896
C30	C	1.581172	-0.429523	-0.305906
C31	C	1.473474	-0.398497	-0.408011
C32	C	1.367648	-0.295712	-0.374108
C33	C	1.369528	-0.223959	-0.238099
H34	H	1.662784	-0.380742	-0.094310
H35	H	1.659512	-0.505612	-0.331002
H36	H	1.472082	-0.451613	-0.508693
H37	H	1.287916	-0.272740	-0.449695
H38	H	1.291188	-0.147871	-0.213003
H39	H	1.623611	0.034702	0.363105
H40	H	1.055848	0.185506	-0.100656
C41	C	1.118935	0.187194	0.253603
C42	C	1.114391	0.078571	0.355732
C43	C	1.186120	0.080495	0.491752
C44	C	1.262394	0.191042	0.525642
C45	C	1.266941	0.299673	0.423511
C46	C	1.195212	0.297749	0.287491
H47	H	1.057926	-0.003270	0.330647
H48	H	1.182754	0.000078	0.567356
H49	H	1.315492	0.192466	0.626332
H50	H	1.323406	0.381514	0.448596
H51	H	1.198578	0.378166	0.211887
C52	C	1.479361	-0.173251	0.253597
C53	C	1.373543	-0.070471	0.287498
C54	C	1.375422	0.001287	0.423504
C55	C	1.483120	-0.029736	0.525610
C56	C	1.588947	-0.132521	0.491712
C57	C	1.587067	-0.204279	0.355706
H58	H	1.293811	-0.047501	0.211910
H59	H	1.297082	0.077376	0.448597
H60	H	1.484512	0.023384	0.626291
H61	H	1.668678	-0.155491	0.567300
H62	H	1.665407	-0.280368	0.330613
H63	H	0.850862	0.180120	0.218260
C64	C	1.647619	0.010625	0.657320
C65	C	1.647547	0.010793	0.814476
C66	C	1.739802	-0.081868	0.893211
C67	C	1.832128	-0.174697	0.814790
C68	C	1.832203	-0.174868	0.657625
C69	C	1.739948	-0.082207	0.578890
H70	H	1.579199	0.079513	0.872536
H71	H	1.739746	-0.081741	1.009556
H72	H	1.900421	-0.243290	0.873074
H73	H	1.900552	-0.243588	0.599565
H74	H	1.740004	-0.082334	0.462545
C75	C	1.383372	0.276050	0.567663
C76	C	1.241180	0.272411	0.586379
C77	C	1.148925	0.365072	0.507644
C78	C	1.198862	0.461372	0.410193
C79	C	1.341062	0.465015	0.391472
C80	C	1.433316	0.372354	0.470207
H81	H	1.204207	0.201120	0.658523
H82	H	1.043660	0.362375	0.521503
H83	H	1.130570	0.529966	0.351908
H84	H	1.378034	0.536306	0.319329
H85	H	1.538582	0.375051	0.456349
H86	H	1.407319	0.251971	0.411967
H87	H	1.473488	-0.396852	-0.100665
H88	H	1.472299	-0.441342	0.218257
