data_functionalizedCrystal
_audit_creation_method	'MofGen! by Chris Wilmer'
_symmetry_space_group_name_H-M	'P1'
_symmetry_Int_Tables_number	1
_symmetry_cell_setting	triclinic
loop_
_symmetry_equiv_pos_as_xyz
  x,y,z
_cell_length_a	16.974800
_cell_length_b	16.974813
_cell_length_c	16.053802
_cell_angle_alpha	91.087450
_cell_angle_beta	88.925812
_cell_angle_gamma	83.627081
loop_
_atom_site_label
_atom_site_type_symbol
_atom_site_fract_x
_atom_site_fract_y
_atom_site_fract_z
O1	O	1.049294	0.100467	0.005291
O2	O	0.819858	0.112532	0.021616
O3	O	0.940601	-0.008219	0.005291
O4	O	0.928550	0.221219	0.021616
O5	O	0.933955	-0.001600	-0.132671
O6	O	0.813212	0.119151	-0.116346
O7	O	1.042647	0.107086	-0.132671
Zn8	Zn	0.926874	0.114170	-0.146413
Zn9	Zn	0.935631	0.105449	0.035358
O10	O	0.921904	0.227838	-0.116347
C11	C	0.787171	0.115262	-0.045419
C12	C	0.699674	0.113524	-0.039622
C13	C	0.654950	0.116314	-0.112104
C14	C	0.572739	0.114668	-0.106660
C15	C	0.535254	0.110239	-0.028733
C16	C	0.579984	0.107446	0.043754
C17	C	0.662194	0.109086	0.038309
C18	C	0.289772	0.104942	-0.004384
C19	C	0.207556	0.103305	0.001056
C20	C	0.200317	0.110525	-0.149359
C21	C	0.282528	0.112169	-0.154797
C22	C	0.327252	0.109373	-0.082310
N23	N	0.451221	0.108559	-0.023167
N24	N	0.411284	0.111047	-0.087878
C25	C	0.936696	-0.034274	-0.065634
C26	C	0.934953	-0.121771	-0.071426
C27	C	0.937759	-0.166481	0.001056
C28	C	0.936116	-0.248693	-0.004388
C29	C	0.931673	-0.286195	-0.082315
C30	C	0.928864	-0.241479	-0.154802
C31	C	0.930502	-0.159267	-0.149357
C32	C	0.926382	-0.531683	-0.106664
C33	C	0.924747	-0.613900	-0.112104
C34	C	0.931997	-0.621109	0.038310
C35	C	0.933639	-0.538897	0.043748
C36	C	0.930826	-0.494187	-0.028738
N37	N	0.929996	-0.370229	-0.087882
N38	N	0.932498	-0.410154	-0.023170
C39	C	1.075335	0.104357	-0.065634
C40	C	1.162832	0.106095	-0.071426
C41	C	0.925809	0.253893	-0.045420
C42	C	0.927553	0.341390	-0.039623
N43	N	0.920904	0.120121	-0.270468
C44	C	0.972299	0.068760	-0.321108
C45	C	0.968130	0.072930	-0.407951
C46	C	0.912569	0.128466	-0.444152
C47	C	0.861169	0.179830	-0.393505
C48	C	0.865335	0.175655	-0.306664
C49	C	0.894373	0.146680	-0.703101
C50	C	0.890212	0.150853	-0.789948
C51	C	0.997173	0.043951	-0.804388
C52	C	1.001337	0.039784	-0.717544
C53	C	0.949934	0.091145	-0.666905
N54	N	0.908308	0.132732	-0.532920
N55	N	0.954192	0.086875	-0.578140
N56	N	0.941608	0.099491	0.159411
H57	H	0.536330	0.116927	-0.165683
O58	O	1.055083	-0.014229	-0.682147
C59	C	1.166851	-0.036038	-0.591829
C60	C	1.106242	0.025325	-0.632005
H61	H	1.208218	-0.004084	-0.551267
H62	H	1.202964	-0.072271	-0.642708
H63	H	1.134198	-0.077199	-0.551721
H64	H	1.138831	0.066537	-0.672106
H65	H	1.070131	0.061500	-0.581085
H66	H	1.039023	0.002135	-0.845626
H67	H	0.163894	0.112801	-0.208373
H68	H	0.549457	0.103834	0.107203
O69	O	0.836159	0.204819	-0.824980
C70	C	0.730521	0.310425	-0.801499
C71	C	0.791683	0.249340	-0.761716
H72	H	0.694557	0.346448	-0.750369
H73	H	0.689085	0.278273	-0.841782
H74	H	0.762686	0.351815	-0.841807
H75	H	0.759585	0.207934	-0.721368
H76	H	0.833116	0.281544	-0.721482
H77	H	1.017546	0.023539	-0.291639
O78	O	0.934741	-0.664423	0.108801
C79	C	0.941997	-0.662882	0.258573
C80	C	0.938931	-0.613740	0.178803
H81	H	0.945369	-0.621923	0.315192
H82	H	0.996525	-0.708643	0.255662
H83	H	0.886304	-0.694461	0.263921
H84	H	0.994584	-0.582111	0.173406
H85	H	0.884368	-0.568026	0.181748
H86	H	0.852519	0.188502	-0.661877
H87	H	1.009980	0.031107	-0.449182
O88	O	0.807266	0.233755	-0.428804
C89	C	0.753416	0.287537	-0.556185
C90	C	0.814509	0.226439	-0.516322
H91	H	0.759240	0.281632	-0.626949
H92	H	0.764634	0.349891	-0.535592
H93	H	0.691100	0.276283	-0.535516
H94	H	0.876849	0.237620	-0.536972
H95	H	0.803221	0.164106	-0.536913
O96	O	0.815376	0.225632	-0.257591
C97	C	0.708815	0.332073	-0.252428
C98	C	0.765362	0.275536	-0.308099
H99	H	0.668353	0.372423	-0.293241
H100	H	0.744830	0.369639	-0.211411
H101	H	0.671359	0.295967	-0.211408
H102	H	0.802830	0.311579	-0.349170
H103	H	0.729299	0.237968	-0.349061
O104	O	0.705692	0.106242	0.108684
C105	C	0.811529	0.035710	0.184604
C106	C	0.762318	0.038830	0.104870
H107	H	0.857333	-0.018778	0.181539
H108	H	0.770659	0.032213	0.241262
H109	H	0.843063	0.091429	0.190014
H110	H	0.730778	-0.016875	0.099380
H111	H	0.803227	0.042367	0.048252
H112	H	0.685464	0.119927	-0.175560
O113	O	0.924588	-0.278035	-0.230437
C114	C	0.918818	-0.401484	-0.305487
C115	C	0.923676	-0.360189	-0.219776
H116	H	0.918063	-0.467909	-0.296895
H117	H	0.972472	-0.390694	-0.345720
H118	H	0.862262	-0.376402	-0.337298
H119	H	0.980198	-0.385245	-0.187893
H120	H	0.869982	-0.370975	-0.179603
H121	H	0.941381	-0.135955	0.064512
O122	O	0.318818	0.116438	-0.230564
C123	C	0.302953	0.123481	-0.379176
C124	C	0.261757	0.118622	-0.293425
H125	H	0.256835	0.125265	-0.430020
H126	H	0.348338	0.069313	-0.389750
H127	H	0.334185	0.179523	-0.381231
H128	H	0.230480	0.062614	-0.291308
H129	H	0.216415	0.172829	-0.282886
H130	H	0.938404	-0.285093	0.054634
H131	H	0.326177	0.102662	0.054639
O132	O	0.171270	0.098971	0.076822
C133	C	0.187112	0.092043	0.225443
C134	C	0.228310	0.096923	0.139696
H135	H	0.233209	0.090403	0.276301
H136	H	0.155920	0.035978	0.227605
H137	H	0.141691	0.146197	0.235905
H138	H	0.273767	0.042810	0.129179
H139	H	0.259450	0.153021	0.137576
H140	H	0.921125	-0.644431	-0.175565
O141	O	0.937720	-0.502415	0.119451
C142	C	0.875239	-0.405191	0.218113
C143	C	0.870604	-0.446398	0.132325
H144	H	0.820975	-0.359904	0.228556
H145	H	0.931212	-0.373861	0.220423
H146	H	0.876940	-0.451349	0.268901
H147	H	0.868873	-0.400290	0.081488
H148	H	0.814639	-0.477744	0.130086
H149	H	0.928206	-0.122864	-0.208378
H150	H	0.924107	-0.495292	-0.165689
