data_functionalizedCrystal
_audit_creation_method	'MofGen! by Chris Wilmer'
_symmetry_space_group_name_H-M	'P1'
_symmetry_Int_Tables_number	1
_symmetry_cell_setting	triclinic
loop_
_symmetry_equiv_pos_as_xyz
  x,y,z
_cell_length_a	23.532407
_cell_length_b	23.532357
_cell_length_c	9.130313
_cell_angle_alpha	89.989961
_cell_angle_beta	90.001817
_cell_angle_gamma	82.838485
loop_
_atom_site_label
_atom_site_type_symbol
_atom_site_fract_x
_atom_site_fract_y
_atom_site_fract_z
O1	O	0.755246	0.069136	-0.121634
O2	O	0.589381	0.079140	-0.121680
O3	O	0.677330	-0.008796	-0.121625
O4	O	0.667297	0.157072	-0.121688
O5	O	0.677324	-0.008798	0.121974
O6	O	0.589375	0.079137	0.121919
O7	O	0.755240	0.069134	0.121965
Cu8	Cu	0.672307	0.074135	0.144185
Cu9	Cu	0.672314	0.074138	-0.143899
O10	O	0.667291	0.157069	0.121911
C11	C	0.568162	0.078884	0.000115
C12	C	0.504945	0.078118	0.000099
C13	C	0.105834	0.125353	0.000147
C14	C	0.046434	0.124641	0.000156
O15	O	0.009681	0.168428	0.000193
N16	N	0.023817	0.072364	0.000174
C17	C	0.060604	0.020794	0.000197
O18	O	0.035912	-0.023737	0.000214
C19	C	0.120003	0.021506	0.000198
C20	C	0.142616	0.073787	0.000166
C21	C	0.128448	0.177629	0.000116
C22	C	0.187844	0.178341	0.000104
C23	C	0.224626	0.126775	0.000123
C24	C	0.202012	0.074498	0.000154
C25	C	0.156788	-0.030063	0.000231
C26	C	0.216191	-0.029346	0.000234
C27	C	0.238804	0.022935	0.000202
C28	C	0.298190	0.023644	0.000160
N29	N	0.320807	0.075922	0.000143
C30	C	0.284025	0.127487	0.000124
C31	C	-0.064139	0.019303	0.000197
C32	C	-0.123536	0.018590	0.000185
C33	C	-0.137702	0.122437	0.000147
C34	C	-0.078303	0.123149	0.000148
C35	C	-0.041522	0.071580	0.000179
C36	C	0.408761	0.128977	0.000098
C37	C	0.468163	0.129684	0.000080
C38	C	0.482324	0.025836	0.000125
C39	C	0.422927	0.025130	0.000136
C40	C	0.386147	0.076704	0.000127
O41	O	0.334977	-0.020120	0.000130
O42	O	0.308725	0.172011	0.000127
C43	C	0.677076	-0.030013	0.000179
C44	C	0.676322	-0.093232	0.000192
C45	C	0.671588	-0.485242	-0.132674
C46	C	0.670871	-0.544641	-0.132682
O47	O	0.670484	-0.575357	-0.245612
N48	N	0.670512	-0.574354	0.000101
C49	C	0.670865	-0.544663	0.132902
O50	O	0.670493	-0.575390	0.245845
C51	C	0.671578	-0.485264	0.132909
C52	C	0.671943	-0.455556	0.000117
C53	C	0.671952	-0.455533	-0.265456
C54	C	0.672671	-0.396138	-0.265446
C55	C	0.673025	-0.366452	-0.132656
C56	C	0.672661	-0.396160	0.000126
C57	C	0.671926	-0.455574	0.265709
C58	C	0.672639	-0.396171	0.265704
C59	C	0.673004	-0.366462	0.132912
C60	C	0.673733	-0.307079	0.132926
N61	N	0.674092	-0.277366	0.000142
C62	C	0.673738	-0.307053	-0.132649
C63	C	0.669366	-0.669405	0.132877
C64	C	0.668657	-0.728803	0.132872
C65	C	0.668662	-0.728777	-0.132713
C66	C	0.669375	-0.669378	-0.132706
C67	C	0.669725	-0.639692	0.000094
C68	C	0.675247	-0.182318	-0.132620
C69	C	0.675968	-0.122918	-0.132599
C70	C	0.675959	-0.122949	0.132986
C71	C	0.675242	-0.182344	0.132966
C72	C	0.674883	-0.212027	0.000151
O73	O	0.674119	-0.276326	0.245797
O74	O	0.674102	-0.276317	-0.245572
C75	C	0.776459	0.069390	0.000168
C76	C	0.839676	0.070156	0.000174
C77	C	0.667545	0.178287	0.000103
C78	C	0.668300	0.241506	0.000080
N79	N	0.672306	0.074133	0.346807
N80	N	0.672320	0.074136	-0.346522
C81	C	0.711263	0.035211	0.423483
C82	C	0.711269	0.035211	0.576820
C83	C	0.633359	0.113060	0.576792
C84	C	0.633351	0.113057	0.423457
H85	H	0.378821	0.170974	0.000095
O86	O	-0.056408	0.173971	-0.000069
C87	C	-0.050329	0.262934	-0.126351
C88	C	-0.075169	0.205402	-0.126274
H89	H	-0.065478	0.288358	-0.228393
H90	H	-0.065522	0.288436	-0.024487
H91	H	-0.001557	0.254580	-0.126272
H92	H	-0.123941	0.213705	-0.126405
H93	H	-0.059931	0.179918	-0.228129
O94	O	0.672878	-0.367293	0.394669
C95	C	0.624349	-0.293482	0.548747
C96	C	0.624001	-0.326150	0.402664
H97	H	0.584843	-0.260202	0.555245
H98	H	0.623929	-0.324889	0.643709
H99	H	0.664564	-0.271143	0.555390
H100	H	0.583792	-0.348490	0.395878
H101	H	0.624451	-0.294716	0.307771
H102	H	0.674950	-0.206535	0.241096
H103	H	0.742990	0.003517	0.639245
O104	O	-0.173496	0.172493	-0.000057
C105	C	-0.248768	0.231969	-0.126313
C106	C	-0.208274	0.175259	-0.126244
H107	H	-0.276888	0.234229	-0.228340
H108	H	-0.276967	0.234234	-0.024434
H109	H	-0.222393	0.269450	-0.126258
H110	H	-0.234603	0.137746	-0.126351
H111	H	-0.180072	0.173044	-0.228114
O112	O	0.595444	0.150813	0.651191
C113	C	0.496226	0.184707	0.698054
C114	C	0.539102	0.141909	0.613735
H115	H	0.450664	0.177531	0.667779
H116	H	0.502875	0.178024	0.820834
H117	H	0.503403	0.230282	0.667894
H118	H	0.531950	0.096317	0.643772
H119	H	0.532442	0.148642	0.490975
H120	H	0.486571	0.172259	0.000053
O121	O	0.669791	-0.640520	0.261797
C122	C	0.719960	-0.580245	0.416019
C123	C	0.719546	-0.612916	0.269954
H124	H	0.760189	-0.557929	0.422675
H125	H	0.680460	-0.546962	0.422690
H126	H	0.719554	-0.611698	0.510883
H127	H	0.719972	-0.581507	0.175006
H128	H	0.759042	-0.646207	0.263411
H129	H	0.742982	0.003517	0.361078
O130	O	0.676198	-0.094061	0.261928
C131	C	0.627657	-0.020236	0.415944
C132	C	0.627317	-0.052921	0.269885
H133	H	0.588148	0.013042	0.422411
H134	H	0.627236	-0.051633	0.510929
H135	H	0.667870	0.002107	0.422578
H136	H	0.587112	-0.075266	0.263108
H137	H	0.627769	-0.021498	0.174969
H138	H	0.601625	0.144752	0.361024
H139	H	0.098505	0.219623	0.000106
O140	O	0.209711	0.229177	0.000156
C141	C	0.189369	0.332102	0.000052
C142	C	0.164534	0.274568	0.000019
H143	H	0.152856	0.368816	-0.000090
H144	H	0.216803	0.335071	0.102023
H145	H	0.216842	0.335010	-0.101869
H146	H	0.137036	0.271621	0.101871
H147	H	0.137133	0.271624	-0.102019
O148	O	0.669620	-0.640538	-0.261746
C149	C	0.620504	-0.615669	-0.488794
C150	C	0.620154	-0.648338	-0.342683
H151	H	0.580522	-0.621974	-0.554286
H152	H	0.621035	-0.568101	-0.466105
H153	H	0.660245	-0.632782	-0.554205
H154	H	0.580420	-0.631273	-0.277199
H155	H	0.619653	-0.695902	-0.365475
O156	O	-0.145404	-0.032246	0.000264
C157	C	-0.125068	-0.135172	0.000211
C158	C	-0.100230	-0.077639	0.000146
H159	H	-0.088557	-0.171887	0.000085
H160	H	-0.152497	-0.138146	0.102187
H161	H	-0.152546	-0.138072	-0.101705
H162	H	-0.072726	-0.074701	0.101993
H163	H	-0.072833	-0.074690	-0.101897
O164	O	0.668403	-0.757701	0.261824
C165	C	0.716899	-0.831540	0.415948
C166	C	0.717274	-0.798851	0.269873
H167	H	0.756401	-0.864825	0.422491
H168	H	0.717310	-0.800148	0.510918
H169	H	0.676680	-0.853874	0.422535
H170	H	0.757487	-0.776515	0.263143
H171	H	0.716834	-0.830270	0.174973
O172	O	-0.028353	-0.030758	0.000007
C173	C	0.046897	-0.090244	-0.126236
C174	C	0.006417	-0.033525	-0.126186
H175	H	0.075011	-0.092504	-0.228267
H176	H	0.075104	-0.092524	-0.024362
H177	H	0.020512	-0.127716	-0.126156
H178	H	0.032757	0.003980	-0.126318
H179	H	-0.021791	-0.031295	-0.228051
H180	H	0.138388	-0.072635	0.000259
O181	O	0.671653	-0.484468	0.394656
C182	C	0.720117	-0.558312	0.548820
C183	C	0.720518	-0.525624	0.402748
H184	H	0.759615	-0.591602	0.555396
H185	H	0.720518	-0.526920	0.643793
H186	H	0.679893	-0.580640	0.555365
H187	H	0.760735	-0.503294	0.396060
H188	H	0.720087	-0.557042	0.307845
O189	O	0.518001	-0.024290	0.000338
C190	C	0.548321	-0.112809	0.126635
C191	C	0.507875	-0.056069	0.126548
H192	H	0.540157	-0.138513	0.228680
H193	H	0.540131	-0.138597	0.024774
H194	H	0.594654	-0.103303	0.126555
H195	H	0.461528	-0.065523	0.126678
H196	H	0.516115	-0.030298	0.228399
O197	O	0.251897	-0.079457	-0.000003
C198	C	0.282147	-0.168013	-0.126124
C199	C	0.241688	-0.111280	-0.126048
H200	H	0.273899	-0.193763	-0.228005
H201	H	0.328498	-0.158562	-0.126232
H202	H	0.273968	-0.193733	-0.024118
H203	H	0.249816	-0.085532	-0.228037
H204	H	0.195351	-0.120771	-0.125865
O205	O	0.400928	-0.025639	-0.000103
C206	C	0.342049	-0.086696	-0.126199
C207	C	0.366931	-0.029187	-0.126148
H208	H	0.314547	-0.089578	-0.228079
H209	H	0.378520	-0.123453	-0.126288
H210	H	0.314626	-0.089616	-0.024193
H211	H	0.394347	-0.026210	-0.228137
H212	H	0.330433	0.007543	-0.125982
O213	O	0.674916	-0.211061	-0.261764
C214	C	0.674943	-0.204743	-0.525184
C215	C	0.675335	-0.172124	-0.379037
H216	H	0.675269	-0.173275	-0.620037
H217	H	0.714474	-0.237984	-0.531951
H218	H	0.634749	-0.227119	-0.531750
H219	H	0.715501	-0.149714	-0.372373
H220	H	0.635777	-0.138915	-0.372332
H221	H	0.676266	-0.098732	-0.240739
O222	O	0.673063	-0.367235	-0.394363
C223	C	0.723062	-0.306765	-0.548493
C224	C	0.722737	-0.339501	-0.402478
H225	H	0.763213	-0.284324	-0.555088
H226	H	0.722696	-0.338137	-0.643520
H227	H	0.683490	-0.273564	-0.554923
H228	H	0.762303	-0.372702	-0.395904
H229	H	0.723074	-0.308095	-0.307520
H230	H	0.668372	-0.752958	-0.240839
H231	H	0.671662	-0.479697	-0.373596
