data_functionalizedCrystal
_audit_creation_method	'MofGen! by Chris Wilmer'
_symmetry_space_group_name_H-M	'P1'
_symmetry_Int_Tables_number	1
_symmetry_cell_setting	triclinic
loop_
_symmetry_equiv_pos_as_xyz
  x,y,z
_cell_length_a	17.038272
_cell_length_b	17.038272
_cell_length_c	16.098538
_cell_angle_alpha	87.079695
_cell_angle_beta	87.066048
_cell_angle_gamma	88.888444
loop_
_atom_site_label
_atom_site_type_symbol
_atom_site_fract_x
_atom_site_fract_y
_atom_site_fract_z
O1	O	1.052036	-0.167263	-0.069224
O2	O	1.385369	0.166071	0.264109
O3	O	1.718703	0.499404	0.597442
O4	O	0.824225	-0.164554	-0.069233
O5	O	1.157558	0.168779	0.264100
O6	O	1.490892	0.502112	0.597433
O7	O	0.936776	-0.052003	-0.069222
O8	O	1.270110	0.281330	0.264111
O9	O	1.603443	0.614664	0.597444
O10	O	0.939485	-0.279814	-0.069235
O11	O	1.272818	0.053519	0.264098
O12	O	1.606151	0.386853	0.597431
O13	O	0.930200	-0.058550	0.069290
O14	O	1.263533	0.274783	0.402623
O15	O	1.596866	0.608117	0.735957
O16	O	0.817648	-0.171101	0.069279
O17	O	1.150982	0.162232	0.402612
O18	O	1.484315	0.495565	0.735946
O19	O	1.045459	-0.173810	0.069288
O20	O	1.378793	0.159524	0.402621
O21	O	1.712126	0.492857	0.735955
Zn22	Zn	0.930510	-0.173495	0.091275
Zn23	Zn	1.263843	0.159838	0.424609
Zn24	Zn	1.597176	0.493172	0.757942
Zn25	Zn	0.939175	-0.164869	-0.091221
Zn26	Zn	1.272508	0.168464	0.242113
Zn27	Zn	1.605841	0.501798	0.575446
O28	O	0.932908	-0.286361	0.069277
O29	O	1.266241	0.046972	0.402610
O30	O	1.599575	0.380306	0.735944
C31	C	0.791644	-0.165365	0.000022
C32	C	1.124977	0.167969	0.333355
C33	C	1.458311	0.501302	0.666688
C34	C	0.704361	-0.158017	0.000019
C35	C	1.037694	0.175317	0.333352
C36	C	1.371027	0.508650	0.666685
C37	C	0.931025	-0.025984	0.000034
C38	C	1.264358	0.307350	0.333367
C39	C	1.597692	0.640683	0.666700
C40	C	0.923677	0.061300	0.000033
C41	C	1.257010	0.394633	0.333367
C42	C	1.590344	0.727967	0.666700
C43	C	1.078040	-0.172999	0.000031
C44	C	1.411374	0.160334	0.333364
C45	C	1.744707	0.493668	0.666698
C46	C	1.165324	-0.180347	0.000029
C47	C	1.498657	0.152986	0.333362
C48	C	1.831991	0.486320	0.666695
C49	C	1.210933	-0.112883	0.000030
C50	C	1.544267	0.220450	0.333363
C51	C	1.877600	0.553783	0.666697
C52	C	1.292945	-0.119792	0.000033
C53	C	1.626278	0.213541	0.333366
C54	C	1.959612	0.546874	0.666699
C55	C	1.329346	-0.194165	0.000028
C56	C	1.662680	0.139168	0.333361
C57	C	1.996013	0.472501	0.666695
C58	C	1.283731	-0.261634	0.000030
C59	C	1.617064	0.071699	0.333363
C60	C	1.950398	0.405033	0.666696
C61	C	1.201721	-0.254725	0.000033
C62	C	1.535054	0.078609	0.333366
C63	C	1.868387	0.411942	0.666700
C64	C	1.576735	-0.218576	0.000023
C65	C	1.910068	0.114758	0.333357
C66	C	2.243401	0.448091	0.666690
C67	C	1.658751	-0.225480	0.000018
C68	C	1.992085	0.107853	0.333351
C69	C	2.325418	0.441186	0.666684
C70	C	1.667960	-0.083638	0.000022
C71	C	2.001293	0.249696	0.333355
C72	C	2.334626	0.583029	0.666689
C73	C	1.585947	-0.076734	0.000020
C74	C	1.919281	0.256599	0.333354
C75	C	2.252614	0.589932	0.666687
C76	C	1.540339	-0.144203	0.000026
C77	C	1.873672	0.189130	0.333360
C78	C	2.207006	0.522463	0.666693
C79	C	1.413176	-0.201229	0.000028
C80	C	1.746509	0.132104	0.333361
C81	C	2.079842	0.465437	0.666695
C82	C	1.456511	-0.137139	0.000032
C83	C	1.789844	0.196194	0.333365
C84	C	2.123178	0.529527	0.666699
C85	C	0.938659	-0.312380	0.000019
C86	C	1.271993	0.020953	0.333353
C87	C	1.605326	0.354287	0.666686
C88	C	0.946008	-0.399663	0.000014
C89	C	1.279341	-0.066330	0.333348
C90	C	1.612674	0.267003	0.666681
N91	N	0.924602	-0.179382	0.215824
N92	N	1.257935	0.153951	0.549157
N93	N	1.591268	0.487285	0.882491
C94	C	0.991140	0.106909	0.000037
C95	C	1.324474	0.440242	0.333370
C96	C	1.657807	0.773576	0.666703
C97	C	0.984232	0.188921	0.000029
C98	C	1.317565	0.522255	0.333362
C99	C	1.650899	0.855588	0.666695
C100	C	0.909859	0.225323	0.000023
C101	C	1.243192	0.558656	0.333356
C102	C	1.576526	0.891989	0.666689
C103	C	0.842391	0.179708	0.000017
C104	C	1.175724	0.513041	0.333350
C105	C	1.509057	0.846374	0.666683
C106	C	0.849300	0.097697	0.000019
C107	C	1.182633	0.431030	0.333352
C108	C	1.515967	0.764364	0.666686
C109	C	0.885449	0.472711	0.000010
C110	C	1.218782	0.806044	0.333344
C111	C	1.552116	1.139378	0.666677
C112	C	0.878544	0.554728	0.000011
C113	C	1.211878	0.888061	0.333344
C114	C	1.545211	1.221394	0.666677
C115	C	1.020386	0.563936	0.000021
C116	C	1.353720	0.897269	0.333354
C117	C	1.687053	1.230602	0.666688
C118	C	1.027289	0.481923	0.000028
C119	C	1.360623	0.815256	0.333361
C120	C	1.693956	1.148590	0.666695
C121	C	0.959821	0.436315	0.000018
C122	C	1.293154	0.769649	0.333351
C123	C	1.626488	1.102982	0.666684
C124	C	0.902795	0.309152	0.000017
C125	C	1.236129	0.642485	0.333350
C126	C	1.569462	0.975819	0.666684
C127	C	0.966886	0.352488	0.000017
C128	C	1.300219	0.685821	0.333351
C129	C	1.633552	1.019154	0.666684
N130	N	0.945088	-0.158976	-0.215769
N131	N	1.278422	0.174357	0.117564
N132	N	1.611755	0.507691	0.450897
C133	C	0.972393	-0.131630	0.259414
C134	C	1.305726	0.201703	0.592747
C135	C	1.639060	0.535037	0.926080
C136	C	0.968268	-0.135756	0.346602
C137	C	1.301601	0.197577	0.679936
C138	C	1.634935	0.530911	1.013269
C139	C	0.916355	-0.187639	0.390199
C140	C	1.249689	0.145695	0.723533
C141	C	1.583022	0.479028	1.056866
C142	C	0.868559	-0.235392	0.346604
C143	C	1.201892	0.097941	0.679937
C144	C	1.535226	0.431274	1.013270
C145	C	0.872680	-0.231262	0.259417
C146	C	1.206014	0.102072	0.592750
C147	C	1.539347	0.435405	0.926083
C148	C	0.901413	-0.202599	0.653448
C149	C	1.234747	0.130734	0.986781
C150	C	1.568080	0.464067	1.320115
C151	C	0.897297	-0.206728	0.740641
C152	C	1.230630	0.126605	1.073974
C153	C	1.563964	0.459939	1.407308
C154	C	0.997006	-0.107090	0.740634
C155	C	1.330339	0.226243	1.073967
C156	C	1.663672	0.559577	1.407300
C157	C	1.001126	-0.102967	0.653445
C158	C	1.334459	0.230366	0.986778
C159	C	1.667793	0.563699	1.320112
C160	C	0.953327	-0.150718	0.609857
C161	C	1.286660	0.182615	0.943190
C162	C	1.619993	0.515948	1.276523
C163	C	0.912139	-0.191859	0.479320
C164	C	1.245473	0.141474	0.812654
C165	C	1.578806	0.474807	1.145987
C166	C	0.957539	-0.146493	0.520738
C167	C	1.290872	0.186840	0.854071
C168	C	1.624206	0.520174	1.187404
H169	H	1.181302	-0.052321	0.000028
H170	H	1.514635	0.281013	0.333362
H171	H	1.847969	0.614346	0.666695
H172	H	1.051703	0.077277	0.000046
H173	H	1.385036	0.410610	0.333380
H174	H	1.718369	0.743944	0.666713
Cl175	Cl	0.832030	-0.271960	0.795443
Cl176	Cl	1.165363	0.061374	1.128777
Cl177	Cl	1.498697	0.394707	1.462110
H178	H	1.035921	-0.068213	0.776131
H179	H	1.369254	0.265121	1.109464
H180	H	1.702588	0.598454	1.442798
Cl181	Cl	0.846880	-0.257084	0.534132
Cl182	Cl	1.180214	0.076249	0.867465
Cl183	Cl	1.513547	0.409582	1.200799
Cl184	Cl	1.037662	-0.066406	0.204615
Cl185	Cl	1.370996	0.266927	0.537948
Cl186	Cl	1.704329	0.600260	0.871282
H187	H	1.087851	0.452291	0.000033
H188	H	1.421185	0.785624	0.333366
H189	H	1.754518	1.118958	0.666700
H190	H	0.862495	-0.241481	0.617965
H191	H	1.195828	0.091852	0.951299
H192	H	1.529161	0.425185	1.284632
H193	H	1.313375	-0.322191	0.000031
H194	H	1.646709	0.011143	0.333364
H195	H	1.980042	0.344476	0.666698
H196	H	0.999804	-0.104247	0.485238
H197	H	1.333137	0.229086	0.818572
H198	H	1.666470	0.562419	1.151905
Cl199	Cl	1.105198	0.621275	0.000031
Cl200	Cl	1.438531	0.954609	0.333365
Cl201	Cl	1.771865	1.287942	0.666698
Cl202	Cl	1.410748	-0.043645	0.000042
Cl203	Cl	1.744081	0.289688	0.333375
Cl204	Cl	2.077414	0.623022	0.666708
Cl205	Cl	0.803292	-0.300614	0.401410
Cl206	Cl	1.136625	0.032720	0.734743
Cl207	Cl	1.469959	0.366053	1.068076
Cl208	Cl	0.800631	0.415387	-0.000005
Cl209	Cl	1.133964	0.748720	0.333329
Cl210	Cl	1.467297	1.082053	0.666662
Cl211	Cl	1.350279	-0.034977	0.000039
Cl212	Cl	1.683612	0.298357	0.333372
Cl213	Cl	2.016946	0.631690	0.666706
H214	H	1.539610	-0.273514	0.000024
H215	H	1.872943	0.059819	0.333357
H216	H	2.206277	0.393153	0.666691
Cl217	Cl	0.812594	-0.291293	0.204619
Cl218	Cl	1.145927	0.042040	0.537952
Cl219	Cl	1.479260	0.375374	0.871286
Cl220	Cl	0.785039	0.600488	0.000009
Cl221	Cl	1.118373	0.933821	0.333342
Cl222	Cl	1.451706	1.267154	0.666675
Cl223	Cl	1.458945	-0.294724	0.000013
Cl224	Cl	1.792278	0.038609	0.333346
Cl225	Cl	2.125611	0.371943	0.666679
Cl226	Cl	1.704512	-0.318985	0.000013
Cl227	Cl	2.037845	0.014348	0.333346
Cl228	Cl	2.371178	0.347682	0.666680
H229	H	1.027441	0.322847	0.000004
H230	H	1.360774	0.656180	0.333337
H231	H	1.694107	0.989514	0.666670
Cl232	Cl	1.028349	-0.075723	0.401402
Cl233	Cl	1.361682	0.257610	0.734736
Cl234	Cl	1.695015	0.590943	1.068069
Cl235	Cl	1.540193	0.016768	-0.000004
Cl236	Cl	1.873527	0.350102	0.333329
Cl237	Cl	2.206860	0.683435	0.666663
H238	H	0.842240	0.338799	0.000014
H239	H	1.175574	0.672133	0.333348
H240	H	1.508907	1.005466	0.666681
Cl241	Cl	1.725300	0.001174	0.000021
Cl242	Cl	2.058633	0.334508	0.333355
Cl243	Cl	2.391966	0.667841	0.666688
Cl244	Cl	1.069048	0.246255	0.000035
Cl245	Cl	1.402381	0.579588	0.333369
Cl246	Cl	1.735714	0.912922	0.666702
Cl247	Cl	1.066389	-0.037744	0.598637
Cl248	Cl	1.399723	0.295589	0.931970
Cl249	Cl	1.733056	0.628923	1.265304
H250	H	0.781834	0.209352	0.000007
H251	H	1.115168	0.542686	0.333340
H252	H	1.448501	0.876019	0.666674
H253	H	1.164586	-0.309661	0.000035
H254	H	1.497919	0.023672	0.333368
H255	H	1.831253	0.357006	0.666702
H256	H	0.794364	0.060563	0.000016
H257	H	1.127697	0.393896	0.333349
H258	H	1.461031	0.727229	0.666683
