data_functionalizedCrystal
_audit_creation_method	'MofGen! by Chris Wilmer'
_symmetry_space_group_name_H-M	'P1'
_symmetry_Int_Tables_number	1
_symmetry_cell_setting	triclinic
loop_
_symmetry_equiv_pos_as_xyz
  x,y,z
_cell_length_a	21.295418
_cell_length_b	25.639239
_cell_length_c	21.295411
_cell_angle_alpha	90.019526
_cell_angle_beta	90.043738
_cell_angle_gamma	90.054499
loop_
_atom_site_label
_atom_site_type_symbol
_atom_site_fract_x
_atom_site_fract_y
_atom_site_fract_z
Zn1	Zn	0.962320	-0.207990	0.356243
Zn2	Zn	1.212320	0.042010	0.606243
Zn3	Zn	1.462320	0.292010	0.856243
Zn4	Zn	1.712320	0.542010	1.106243
Zn5	Zn	0.962207	-0.295410	0.250972
Zn6	Zn	1.212207	-0.045410	0.500972
Zn7	Zn	1.462207	0.204590	0.750972
Zn8	Zn	1.712207	0.454590	1.000972
Zn9	Zn	0.857043	-0.208014	0.250953
Zn10	Zn	1.107043	0.041986	0.500953
Zn11	Zn	1.357043	0.291986	0.750953
Zn12	Zn	1.607043	0.541986	1.000953
Zn13	Zn	0.856998	-0.295420	0.356169
Zn14	Zn	1.106998	-0.045420	0.606169
Zn15	Zn	1.356998	0.204580	0.856169
Zn16	Zn	1.606998	0.454580	1.106169
O17	O	0.909642	-0.251708	0.303584
O18	O	1.159642	-0.001708	0.553584
O19	O	1.409642	0.248292	0.803584
O20	O	1.659642	0.498292	1.053584
O21	O	1.050395	-0.219572	0.342318
O22	O	1.300395	0.030428	0.592318
O23	O	1.550395	0.280428	0.842318
O24	O	1.800395	0.530428	1.092318
O25	O	0.948229	-0.283822	0.162880
O26	O	1.198229	-0.033822	0.412880
O27	O	1.448229	0.216178	0.662880
O28	O	1.698229	0.466178	0.912880
O29	O	0.871075	-0.134846	0.264943
O30	O	1.121075	0.115154	0.514943
O31	O	1.371075	0.365154	0.764943
O32	O	1.621075	0.615154	1.014943
O33	O	1.050312	-0.283799	0.264976
O34	O	1.300312	-0.033799	0.514976
O35	O	1.550312	0.216201	0.764976
O36	O	1.800312	0.466201	1.014976
O37	O	0.948421	-0.134828	0.342299
O38	O	1.198421	0.115172	0.592299
O39	O	1.448421	0.365172	0.842299
O40	O	1.698421	0.615172	1.092299
O41	O	0.870965	-0.219613	0.162866
O42	O	1.120965	0.030387	0.412866
O43	O	1.370965	0.280387	0.662866
O44	O	1.620965	0.530387	0.912866
O45	O	0.768948	-0.219623	0.264871
O46	O	1.018948	0.030377	0.514871
O47	O	1.268948	0.280377	0.764871
O48	O	1.518948	0.530377	1.014871
O49	O	0.870997	-0.283816	0.444268
O50	O	1.120997	-0.033816	0.694268
O51	O	1.370997	0.216184	0.944268
O52	O	1.620997	0.466184	1.194268
O53	O	0.768914	-0.283840	0.342172
O54	O	1.018914	-0.033840	0.592172
O55	O	1.268914	0.216160	0.842172
O56	O	1.518914	0.466160	1.092172
O57	O	0.948377	-0.219582	0.444322
O58	O	1.198377	0.030418	0.694322
O59	O	1.448377	0.280418	0.944322
O60	O	1.698377	0.530418	1.194322
O61	O	0.948185	-0.368576	0.264904
O62	O	1.198185	-0.118576	0.514904
O63	O	1.448185	0.131424	0.764904
O64	O	1.698185	0.381424	1.014904
O65	O	0.870888	-0.368584	0.342191
O66	O	1.120888	-0.118584	0.592191
O67	O	1.370888	0.131416	0.842191
O68	O	1.620888	0.381416	1.092191
C69	C	0.746090	-0.251736	0.303512
C70	C	0.996090	-0.001736	0.553512
C71	C	1.246090	0.248264	0.803512
C72	C	1.496090	0.498264	1.053512
C73	C	0.676122	-0.251760	0.303496
C74	C	0.926122	-0.001760	0.553496
C75	C	1.176122	0.248240	0.803496
C76	C	1.426122	0.498240	1.053496
C77	C	0.909536	-0.387551	0.303555
C78	C	1.159536	-0.137551	0.553555
C79	C	1.409536	0.112449	0.803555
C80	C	1.659536	0.362449	1.053555
C81	C	0.909548	-0.445665	0.303564
C82	C	1.159548	-0.195665	0.553564
C83	C	1.409548	0.054335	0.803564
C84	C	1.659548	0.304335	1.053564
C85	C	0.643255	-0.285242	0.343686
C86	C	0.893255	-0.035242	0.593686
C87	C	1.143255	0.214758	0.843686
C88	C	1.393255	0.464758	1.093686
C89	C	0.577512	-0.285229	0.343715
C90	C	0.827512	-0.035229	0.593715
C91	C	1.077512	0.214771	0.843715
C92	C	1.327512	0.464771	1.093715
C93	C	0.544640	-0.251740	0.303541
C94	C	0.794640	-0.001740	0.553541
C95	C	1.044640	0.248260	0.803541
C96	C	1.294640	0.498260	1.053541
C97	C	0.577515	-0.218252	0.263347
C98	C	0.827515	0.031748	0.513347
C99	C	1.077515	0.281748	0.763347
C100	C	1.327515	0.531748	1.013347
C101	C	0.643257	-0.218262	0.263325
C102	C	0.893257	0.031738	0.513325
C103	C	1.143257	0.281738	0.763325
C104	C	1.393257	0.531738	1.013325
N105	N	0.441365	-0.247648	0.248483
N106	N	0.691365	0.002352	0.498483
N107	N	0.941365	0.252352	0.748483
N108	N	1.191365	0.502352	0.998483
N109	N	0.378913	-0.247641	0.248506
N110	N	0.628913	0.002359	0.498506
N111	N	0.878913	0.252359	0.748506
N112	N	1.128913	0.502359	0.998506
C113	C	0.346565	-0.251707	0.303608
C114	C	0.596565	-0.001707	0.553608
C115	C	0.846565	0.248293	0.803608
C116	C	1.096565	0.498293	1.053608
N117	N	0.379028	-0.255789	0.358686
N118	N	0.629028	-0.005789	0.608686
N119	N	0.879028	0.244211	0.858686
N120	N	1.129028	0.494211	1.108686
N121	N	0.441485	-0.255799	0.358662
N122	N	0.691485	-0.005799	0.608662
N123	N	0.941485	0.244201	0.858662
N124	N	1.191485	0.494201	1.108662
C125	C	0.473354	-0.251725	0.303561
C126	C	0.723354	-0.001725	0.553561
C127	C	0.973354	0.248275	0.803561
C128	C	1.223354	0.498275	1.053561
C129	C	0.242412	-0.285176	0.343832
C130	C	0.492412	-0.035176	0.593832
C131	C	0.742412	0.214824	0.843832
C132	C	0.992412	0.464824	1.093832
C133	C	0.176668	-0.285160	0.343862
C134	C	0.426668	-0.035160	0.593862
C135	C	0.676668	0.214840	0.843862
C136	C	0.926668	0.464840	1.093862
C137	C	0.176673	-0.218185	0.263489
C138	C	0.426673	0.031815	0.513489
C139	C	0.676673	0.281815	0.763489
C140	C	0.926673	0.531815	1.013489
C141	C	0.242415	-0.218199	0.263465
C142	C	0.492415	0.031801	0.513465
C143	C	0.742415	0.281801	0.763465
C144	C	0.992415	0.531801	1.013465
C145	C	0.275281	-0.251697	0.303636
C146	C	0.525281	-0.001697	0.553636
C147	C	0.775281	0.248303	0.803636
C148	C	1.025281	0.498303	1.053636
C149	C	0.949996	-0.806011	0.263409
C150	C	1.199996	-0.556011	0.513409
C151	C	1.449996	-0.306011	0.763409
C152	C	1.699996	-0.056011	1.013409
C153	C	0.950020	-0.860616	0.263418
C154	C	1.200020	-0.610616	0.513418
C155	C	1.450020	-0.360616	0.763418
C156	C	1.700020	-0.110616	1.013418
O157	O	0.984300	-0.888838	0.229245
O158	O	1.234300	-0.638838	0.479245
O159	O	1.484300	-0.388838	0.729245
O160	O	1.734300	-0.138838	0.979245
N161	N	0.909753	-0.887947	0.303626
N162	N	1.159753	-0.637947	0.553626
N163	N	1.409753	-0.387947	0.803626
N164	N	1.659753	-0.137947	1.053626
C165	C	0.869463	-0.860672	0.343833
C166	C	1.119463	-0.610672	0.593833
C167	C	1.369463	-0.360672	0.843833
C168	C	1.619463	-0.110672	1.093833
O169	O	0.835215	-0.888934	0.378034
O170	O	1.085215	-0.638934	0.628034
O171	O	1.335215	-0.388934	0.878034
O172	O	1.585215	-0.138934	1.128034
C173	C	0.869442	-0.806069	0.343827
C174	C	1.119442	-0.556069	0.593827
C175	C	1.369442	-0.306069	0.843827
C176	C	1.619442	-0.056069	1.093827
C177	C	0.909708	-0.778740	0.303612
C178	C	1.159708	-0.528740	0.553612
C179	C	1.409708	-0.278740	0.803612
C180	C	1.659708	-0.028740	1.053612
C181	C	0.990259	-0.778683	0.223198
C182	C	1.240259	-0.528683	0.473198
C183	C	1.490259	-0.278683	0.723198
C184	C	1.740259	-0.028683	0.973198
C185	C	0.990233	-0.724082	0.223188
C186	C	1.240233	-0.474082	0.473188
C187	C	1.490233	-0.224082	0.723188
C188	C	1.740233	0.025918	0.973188
C189	C	0.949945	-0.696810	0.263391
C190	C	1.199945	-0.446810	0.513391
C191	C	1.449945	-0.196810	0.763391
C192	C	1.699945	0.053190	1.013391
C193	C	0.909682	-0.724139	0.303603
C194	C	1.159682	-0.474139	0.553603
C195	C	1.409682	-0.224139	0.803603
C196	C	1.659682	0.025861	1.053603
C197	C	0.829156	-0.778794	0.384037
C198	C	1.079156	-0.528794	0.634037
C199	C	1.329156	-0.278794	0.884037
C200	C	1.579156	-0.028794	1.134037
C201	C	0.829139	-0.724187	0.384028
C202	C	1.079139	-0.474187	0.634028
C203	C	1.329139	-0.224187	0.884028
C204	C	1.579139	0.025813	1.134028
C205	C	0.869404	-0.696858	0.343812
C206	C	1.119404	-0.446858	0.593812
C207	C	1.369404	-0.196858	0.843812
C208	C	1.619404	0.053142	1.093812
C209	C	0.869369	-0.642267	0.343796
C210	C	1.119369	-0.392267	0.593796
C211	C	1.369369	-0.142267	0.843796
C212	C	1.619369	0.107733	1.093796
N213	N	0.909636	-0.614935	0.303588
N214	N	1.159636	-0.364935	0.553588
N215	N	1.409636	-0.114935	0.803588
N216	N	1.659636	0.135065	1.053588
C217	C	0.949924	-0.642207	0.263385
C218	C	1.199924	-0.392207	0.513385
C219	C	1.449924	-0.142207	0.763385
C220	C	1.699924	0.107793	1.013385
C221	C	0.869510	-0.975343	0.343842
C222	C	1.119510	-0.725343	0.593842
C223	C	1.369510	-0.475343	0.843842
C224	C	1.619510	-0.225343	1.093842
C225	C	0.869527	-1.029945	0.343845
C226	C	1.119527	-0.779945	0.593845
C227	C	1.369527	-0.529945	0.843845
C228	C	1.619527	-0.279945	1.093845
C229	C	0.950086	-1.029885	0.263431
C230	C	1.200086	-0.779885	0.513431
C231	C	1.450086	-0.529885	0.763431
C232	C	1.700086	-0.279885	1.013431
C233	C	0.950065	-0.975282	0.263425
C234	C	1.200065	-0.725282	0.513425
C235	C	1.450065	-0.475282	0.763425
C236	C	1.700065	-0.225282	1.013425
C237	C	0.909778	-0.948011	0.303634
C238	C	1.159778	-0.698011	0.553634
C239	C	1.409778	-0.448011	0.803634
C240	C	1.659778	-0.198011	1.053634
C241	C	0.949868	-0.527542	0.263369
C242	C	1.199868	-0.277542	0.513369
C243	C	1.449868	-0.027542	0.763369
C244	C	1.699868	0.222458	1.013369
C245	C	0.949837	-0.472937	0.263361
C246	C	1.199837	-0.222937	0.513361
C247	C	1.449837	0.027063	0.763361
C248	C	1.699837	0.277063	1.013361
C249	C	0.869281	-0.473001	0.343778
C250	C	1.119281	-0.223001	0.593778
C251	C	1.369281	0.026999	0.843778
C252	C	1.619281	0.276999	1.093778
C253	C	0.869309	-0.527602	0.343783
C254	C	1.119309	-0.277602	0.593783
C255	C	1.369309	-0.027602	0.843783
C256	C	1.619309	0.222398	1.093783
C257	C	0.909607	-0.554871	0.303577
C258	C	1.159607	-0.304871	0.553577
C259	C	1.409607	-0.054871	0.803577
C260	C	1.659607	0.195129	1.053577
O261	O	0.835108	-0.614010	0.377953
O262	O	1.085108	-0.364010	0.627953
O263	O	1.335108	-0.114010	0.877953
O264	O	1.585108	0.135990	1.127953
O265	O	0.984172	-0.613939	0.229195
O266	O	1.234172	-0.363939	0.479195
O267	O	1.484172	-0.113939	0.729195
O268	O	1.734172	0.136061	0.979195
C269	C	1.073832	-0.251681	0.303657
C270	C	1.323832	-0.001681	0.553657
C271	C	1.573832	0.248319	0.803657
C272	C	1.823832	0.498319	1.053657
C273	C	1.143801	-0.251670	0.303688
C274	C	1.393801	-0.001670	0.553688
C275	C	1.643801	0.248330	0.803688
C276	C	1.893801	0.498330	1.053688
C277	C	0.909694	-0.251697	0.467774
C278	C	1.159694	-0.001697	0.717774
C279	C	1.409694	0.248303	0.967774
C280	C	1.659694	0.498303	1.217774
C281	C	0.909717	-0.251693	0.537743
C282	C	1.159717	-0.001693	0.787743
C283	C	1.409717	0.248307	1.037743
C284	C	1.659717	0.498307	1.287743
C285	C	0.909766	-0.115335	0.303627
C286	C	1.159766	0.134665	0.553627
C287	C	1.409766	0.384665	0.803627
C288	C	1.659766	0.634665	1.053627
C289	C	0.909818	-0.057221	0.303645
C290	C	1.159818	0.192779	0.553645
C291	C	1.409818	0.442779	0.803645
C292	C	1.659818	0.692779	1.053645
C293	C	0.909626	-0.251682	0.140032
C294	C	1.159626	-0.001682	0.390032
C295	C	1.409626	0.248318	0.640032
C296	C	1.659626	0.498318	0.890032
C297	C	0.909726	-0.251539	0.070065
C298	C	1.159726	-0.001539	0.320065
C299	C	1.409726	0.248461	0.570065
C300	C	1.659726	0.498461	0.820065
C301	C	0.950007	-0.218244	0.570639
C302	C	1.200007	0.031756	0.820639
C303	C	1.450007	0.281756	1.070639
C304	C	1.700007	0.531756	1.320639
C305	C	0.950006	-0.218221	0.636381
C306	C	1.200006	0.031779	0.886381
C307	C	1.450006	0.281779	1.136381
C308	C	1.700006	0.531779	1.386381
C309	C	0.909721	-0.251657	0.669225
C310	C	1.159721	-0.001657	0.919225
C311	C	1.409721	0.248343	1.169225
C312	C	1.659721	0.498343	1.419225
C313	C	0.869424	-0.285108	0.636321
C314	C	1.119424	-0.035108	0.886321
C315	C	1.369424	0.214892	1.136321
C316	C	1.619424	0.464892	1.386321
C317	C	0.869421	-0.285126	0.570580
C318	C	1.119421	-0.035126	0.820580
C319	C	1.369421	0.214874	1.070580
C320	C	1.619421	0.464874	1.320580
N321	N	0.904857	-0.297396	0.772441
N322	N	1.154857	-0.047396	1.022441
N323	N	1.404857	0.202604	1.272441
N324	N	1.654857	0.452604	1.522441
N325	N	0.904863	-0.297377	0.834892
N326	N	1.154863	-0.047377	1.084892
N327	N	1.404863	0.202623	1.334892
N328	N	1.654863	0.452623	1.584892
C329	C	0.909725	-0.251604	0.867300
C330	C	1.159725	-0.001604	1.117300
C331	C	1.409725	0.248396	1.367300
C332	C	1.659725	0.498396	1.617300
N333	N	0.914594	-0.205848	0.834897
N334	N	1.164594	0.044152	1.084897
N335	N	1.414594	0.294152	1.334897
N336	N	1.664594	0.544152	1.584897
N337	N	0.914591	-0.205867	0.772440
N338	N	1.164591	0.044133	1.022440
N339	N	1.414591	0.294133	1.272440
N340	N	1.664591	0.544133	1.522440
C341	C	0.909719	-0.251641	0.740511
C342	C	1.159719	-0.001641	0.990511
C343	C	1.409719	0.248359	1.240511
C344	C	1.659719	0.498359	1.490511
C345	C	0.950017	-0.218128	0.971482
C346	C	1.200017	0.031872	1.221482
C347	C	1.450017	0.281872	1.471482
C348	C	1.700017	0.531872	1.721482
C349	C	0.950011	-0.218104	1.037225
C350	C	1.200011	0.031896	1.287225
C351	C	1.450011	0.281896	1.537225
C352	C	1.700011	0.531896	1.787225
C353	C	0.869433	-0.284995	1.037164
C354	C	1.119433	-0.034995	1.287164
C355	C	1.369433	0.215005	1.537164
C356	C	1.619433	0.465005	1.787164
C357	C	0.869435	-0.285014	0.971422
C358	C	1.119435	-0.035014	1.221422
C359	C	1.369435	0.214986	1.471422
C360	C	1.619435	0.464986	1.721422
C361	C	0.909730	-0.251581	0.938584
C362	C	1.159730	-0.001581	1.188584
C363	C	1.409730	0.248419	1.438584
C364	C	1.659730	0.498419	1.688584
H365	H	0.670010	-0.312519	0.376398
H366	H	0.920010	-0.062519	0.626398
H367	H	1.170010	0.187481	0.876398
H368	H	1.420010	0.437481	1.126398
H369	H	0.982813	-0.190981	0.663170
H370	H	1.232813	0.059019	0.913170
H371	H	1.482813	0.309019	1.163170
H372	H	1.732813	0.559019	1.413170
H373	H	1.023023	-0.701834	0.190444
H374	H	1.273023	-0.451834	0.440444
H375	H	1.523023	-0.201834	0.690444
H376	H	1.773023	0.048166	0.940444
Cl377	Cl	0.818639	-0.438707	0.394319
Cl378	Cl	1.068639	-0.188707	0.644319
Cl379	Cl	1.318639	0.061293	0.894319
Cl380	Cl	1.568639	0.311293	1.144319
H381	H	0.269176	-0.190937	0.230734
H382	H	0.519176	0.059063	0.480734
H383	H	0.769176	0.309063	0.730734
H384	H	1.019176	0.559063	0.980734
H385	H	0.836609	-0.312363	0.543796
H386	H	1.086609	-0.062363	0.793796
H387	H	1.336609	0.187637	1.043796
H388	H	1.586609	0.437637	1.293796
Cl389	Cl	1.000460	-0.438584	0.212801
Cl390	Cl	1.250460	-0.188584	0.462801
Cl391	Cl	1.500460	0.061416	0.712801
Cl392	Cl	1.750460	0.311416	0.962801
H393	H	0.982824	-0.190902	0.944744
H394	H	1.232824	0.059098	1.194744
H395	H	1.482824	0.309098	1.444744
H396	H	1.732824	0.559098	1.694744
Cl397	Cl	0.135348	-0.327252	0.394396
Cl398	Cl	0.385348	-0.077252	0.644396
Cl399	Cl	0.635348	0.172748	0.894396
Cl400	Cl	0.885348	0.422748	1.144396
Cl401	Cl	1.000677	-0.176059	1.078581
Cl402	Cl	1.250677	0.073941	1.328581
Cl403	Cl	1.500677	0.323941	1.578581
Cl404	Cl	1.750677	0.573941	1.828581
Cl405	Cl	1.040914	-0.812957	0.172650
Cl406	Cl	1.290914	-0.562957	0.422650
Cl407	Cl	1.540914	-0.312957	0.672650
Cl408	Cl	1.790914	-0.062957	0.922650
Cl409	Cl	0.283732	-0.327285	0.394336
Cl410	Cl	0.533732	-0.077285	0.644336
Cl411	Cl	0.783732	0.172715	0.894336
Cl412	Cl	1.033732	0.422715	1.144336
Cl413	Cl	0.536184	-0.327324	0.394244
Cl414	Cl	0.786184	-0.077324	0.644244
Cl415	Cl	1.036184	0.172676	0.894244
Cl416	Cl	1.286184	0.422676	1.144244
Cl417	Cl	0.818778	-0.327138	0.677610
Cl418	Cl	1.068778	-0.077138	0.927610
Cl419	Cl	1.318778	0.172862	1.177610
Cl420	Cl	1.568778	0.422862	1.427610
Cl421	Cl	0.536191	-0.176148	0.212846
Cl422	Cl	0.786191	0.073852	0.462846
Cl423	Cl	1.036191	0.323852	0.712846
Cl424	Cl	1.286191	0.573852	0.962846
Cl425	Cl	0.818853	-0.941065	0.394391
Cl426	Cl	1.068853	-0.691065	0.644391
Cl427	Cl	1.318853	-0.441065	0.894391
Cl428	Cl	1.568853	-0.191065	1.144391
Cl429	Cl	0.818898	-1.064294	0.394397
Cl430	Cl	1.068898	-0.814294	0.644397
Cl431	Cl	1.318898	-0.564294	0.894397
Cl432	Cl	1.568898	-0.314294	1.144397
Cl433	Cl	0.818783	-0.327024	1.078447
Cl434	Cl	1.068783	-0.077024	1.328447
Cl435	Cl	1.318783	0.172976	1.578447
Cl436	Cl	1.568783	0.422976	1.828447
H437	H	0.149909	-0.190915	0.230781
H438	H	0.399909	0.059085	0.480781
H439	H	0.649909	0.309085	0.730781
H440	H	0.899909	0.559085	0.980781
H441	H	0.836630	-0.312254	0.944637
H442	H	1.086630	-0.062254	1.194637
H443	H	1.336630	0.187746	1.444637
H444	H	1.586630	0.437746	1.694637
H445	H	0.796364	-0.801036	0.416781
H446	H	1.046364	-0.551036	0.666781
H447	H	1.296364	-0.301036	0.916781
H448	H	1.546364	-0.051036	1.166781
H449	H	0.670017	-0.190995	0.230596
H450	H	0.920017	0.059005	0.480596
H451	H	1.170017	0.309005	0.730596
H452	H	1.420017	0.559005	0.980596
H453	H	0.982684	-0.549738	0.230630
H454	H	1.232684	-0.299738	0.480630
H455	H	1.482684	-0.049738	0.730630
H456	H	1.732684	0.200262	0.980630
Cl457	Cl	1.000733	-1.064180	0.212889
Cl458	Cl	1.250733	-0.814180	0.462889
Cl459	Cl	1.500733	-0.564180	0.712889
Cl460	Cl	1.750733	-0.314180	0.962889
Cl461	Cl	1.000687	-0.940931	0.212868
Cl462	Cl	1.250687	-0.690931	0.462868
Cl463	Cl	1.500687	-0.440931	0.712868
Cl464	Cl	1.750687	-0.190931	0.962868
H465	H	0.982818	-0.191020	0.543907
H466	H	1.232818	0.058980	0.793907
H467	H	1.482818	0.308980	1.043907
H468	H	1.732818	0.558980	1.293907
Cl469	Cl	0.778489	-0.689907	0.434581
Cl470	Cl	1.028489	-0.439907	0.684581
Cl471	Cl	1.278489	-0.189907	0.934581
Cl472	Cl	1.528489	0.060093	1.184581
H473	H	0.836524	-0.549854	0.376532
H474	H	1.086524	-0.299854	0.626532
H475	H	1.336524	-0.049854	0.876532
H476	H	1.586524	0.200146	1.126532
