data_functionalizedCrystal
_audit_creation_method	'MofGen! by Chris Wilmer'
_symmetry_space_group_name_H-M	'P1'
_symmetry_Int_Tables_number	1
_symmetry_cell_setting	triclinic
loop_
_symmetry_equiv_pos_as_xyz
  x,y,z
_cell_length_a	18.050591
_cell_length_b	10.686285
_cell_length_c	10.685880
_cell_angle_alpha	89.638885
_cell_angle_beta	85.597800
_cell_angle_gamma	85.627138
loop_
_atom_site_label
_atom_site_type_symbol
_atom_site_fract_x
_atom_site_fract_y
_atom_site_fract_z
Zn1	Zn	1.190769	-0.553863	-0.671306
Zn2	Zn	1.189262	-0.747600	-0.445478
Zn3	Zn	1.056378	-0.537836	-0.461524
Zn4	Zn	1.075322	-0.763559	-0.655174
O5	O	1.127933	-0.650714	-0.558370
O6	O	1.294497	-0.579591	-0.641385
O7	O	1.163075	-0.706388	-0.272053
O8	O	1.066908	-0.364416	-0.502819
O9	O	1.293389	-0.721929	-0.475470
O10	O	1.165645	-0.376191	-0.656945
O11	O	1.065446	-0.552275	-0.283842
O12	O	0.954963	-0.567750	-0.487176
O13	O	1.099195	-0.749128	-0.832867
O14	O	0.968881	-0.733587	-0.629450
O15	O	1.184014	-0.595065	-0.844719
O16	O	1.181444	-0.925262	-0.459828
O17	O	1.097733	-0.936987	-0.613891
C18	C	1.141502	-0.976644	-0.533395
C19	C	1.147377	-1.116081	-0.522752
C20	C	0.934975	-0.650662	-0.558305
C21	C	0.852430	-0.650672	-0.558304
C22	C	0.645395	-0.560407	-0.481136
C23	C	0.599268	-0.672467	-0.441512
C24	C	0.701304	-0.650715	-0.558358
C25	C	0.600350	-0.538695	-0.597975
C26	C	0.555322	-0.650745	-0.558408
C27	C	0.656264	-0.762830	-0.518670
C28	C	0.657350	-0.628985	-0.675192
C29	C	0.611251	-0.741126	-0.635606
C30	C	0.785400	-0.650695	-0.558326
C31	C	0.471229	-0.650778	-0.558439
C32	C	1.321644	-0.650767	-0.558437
C33	C	1.404192	-0.650790	-0.558466
C34	C	1.143886	-0.675665	-0.885585
C35	C	1.150684	-0.686297	-1.025024
C36	C	1.114332	-0.323514	-0.583471
C37	C	1.108536	-0.184080	-0.594168
C38	C	1.112080	-0.625770	-0.232436
C39	C	1.105411	-0.614784	-0.093025
H40	H	1.070789	-1.135625	-0.663454
C41	C	1.209424	-0.778706	-1.089474
C42	C	1.280233	-0.749029	-1.059773
C43	C	1.334360	-0.834136	-1.119106
H44	H	1.206467	-0.773888	-1.177763
H45	H	1.201070	-0.861394	-1.061558
H46	H	1.288584	-0.666362	-1.087696
H47	H	1.283214	-0.753856	-0.971495
H48	H	1.326007	-0.916824	-1.091190
H49	H	1.331397	-0.829311	-1.207393
H50	H	1.382410	-0.814019	-1.098954
C51	C	1.197608	-1.180631	-0.430166
C52	C	1.174127	-1.139489	-0.308393
C53	C	1.220375	-1.198948	-0.223080
H54	H	1.247525	-1.160607	-0.450072
H55	H	1.194980	-1.268908	-0.434979
H56	H	1.176762	-1.051232	-0.303584
H57	H	1.124217	-1.159514	-0.288448
H58	H	1.217748	-1.287225	-0.227893
H59	H	1.270290	-1.178919	-0.242997
H60	H	1.204446	-1.171050	-0.140446
H61	H	0.660635	-0.484108	-0.415749
H62	H	0.573899	-0.690870	-0.342728
C63	C	0.688876	-0.889085	-0.473831
C64	C	0.766387	-0.887567	-0.474249
C65	C	0.796454	-1.003841	-0.432933
H66	H	0.677048	-0.953364	-0.528270
H67	H	0.668527	-0.904699	-0.391063
H68	H	0.786729	-0.871968	-0.557003
H69	H	0.778236	-0.823313	-0.419806
H70	H	0.776105	-1.019455	-0.350166
H71	H	0.784622	-1.068111	-0.487377
H72	H	0.849048	-1.002823	-0.433200
C73	C	0.591150	-0.843263	-0.722521
C74	C	0.619674	-0.960271	-0.680508
C75	C	0.601161	-1.054391	-0.760526
H76	H	0.611905	-0.828662	-0.805236
H77	H	0.538480	-0.842352	-0.722566
H78	H	0.672333	-0.961180	-0.680476
H79	H	0.598923	-0.974913	-0.597804
H80	H	0.548491	-1.053480	-0.760571
H81	H	0.621917	-1.039778	-0.843236
H82	H	0.620506	-1.133793	-0.732024
C83	C	0.691149	-0.604143	-0.806850
C84	C	0.662738	-0.486660	-0.847833
C85	C	0.693865	-0.463711	-0.969104
H86	H	0.678913	-0.667379	-0.862137
H87	H	0.743779	-0.605012	-0.806020
H88	H	0.610120	-0.485801	-0.848672
H89	H	0.674973	-0.423399	-0.792581
H90	H	0.746495	-0.464580	-0.968274
H91	H	0.681626	-0.526954	-1.024380
H92	H	0.674598	-0.383993	-0.996922
H93	H	0.575856	-0.443957	-0.631418
C94	C	1.046858	-0.522327	-1.028193
C95	C	1.051540	-0.529776	-0.898143
C96	C	0.997618	-0.444611	-0.838372
H97	H	0.998713	-0.542194	-1.048042
H98	H	1.055259	-0.439624	-1.056004
H99	H	1.043133	-0.612460	-0.870341
H100	H	1.099672	-0.509897	-0.878257
H101	H	1.006019	-0.361908	-0.866183
H102	H	0.949477	-0.464485	-0.858231
H103	H	1.000792	-0.449645	-0.750128
