data_functionalizedCrystal
_audit_creation_method	'MofGen! by Chris Wilmer'
_symmetry_space_group_name_H-M	'P1'
_symmetry_Int_Tables_number	1
_symmetry_cell_setting	triclinic
loop_
_symmetry_equiv_pos_as_xyz
  x,y,z
_cell_length_a	19.805407
_cell_length_b	19.121063
_cell_length_c	19.805398
_cell_angle_alpha	92.412609
_cell_angle_beta	89.984135
_cell_angle_gamma	92.469032
loop_
_atom_site_label
_atom_site_type_symbol
_atom_site_fract_x
_atom_site_fract_y
_atom_site_fract_z
Zn1	Zn	1.023208	-0.279643	-0.394203
Zn2	Zn	1.523208	0.220357	0.105797
Zn3	Zn	1.018299	-0.397092	-0.285838
Zn4	Zn	1.518299	0.102908	0.214162
Zn5	Zn	0.910029	-0.279658	-0.281029
Zn6	Zn	1.410029	0.220342	0.218971
Zn7	Zn	0.905156	-0.397058	-0.398984
Zn8	Zn	1.405156	0.102942	0.101016
O9	O	0.964173	-0.338363	-0.340013
O10	O	1.464173	0.161637	0.159987
O11	O	1.117273	-0.295230	-0.379841
O12	O	1.617273	0.204770	0.120159
O13	O	1.003921	-0.381535	-0.190484
O14	O	1.503921	0.118465	0.309516
O15	O	0.929136	-0.181372	-0.292028
O16	O	1.429136	0.318628	0.207972
O17	O	1.113666	-0.381519	-0.300225
O18	O	1.613666	0.118481	0.199775
O19	O	1.012288	-0.181360	-0.375177
O20	O	1.512288	0.318640	0.124823
O21	O	0.924376	-0.295257	-0.186951
O22	O	1.424376	0.204743	0.313049
O23	O	0.814666	-0.295224	-0.296663
O24	O	1.314666	0.204776	0.203337
O25	O	0.920831	-0.381461	-0.493065
O26	O	1.420831	0.118539	0.006935
O27	O	0.811086	-0.381477	-0.383324
O28	O	1.311086	0.118523	0.116676
O29	O	1.007563	-0.295197	-0.489553
O30	O	1.507563	0.204803	0.010447
O31	O	0.999196	-0.495372	-0.304861
O32	O	1.499196	0.004628	0.195139
O33	O	0.916071	-0.495347	-0.387988
O34	O	1.416071	0.004653	0.112012
C35	C	0.788317	-0.338349	-0.339991
C36	C	1.288317	0.161651	0.160009
C37	C	0.713085	-0.338360	-0.339998
C38	C	1.213085	0.161640	0.160002
C39	C	0.675891	-0.383340	-0.385055
C40	C	1.175891	0.116660	0.114945
C41	C	0.605203	-0.383341	-0.385065
C42	C	1.105203	0.116659	0.114935
C43	C	0.571709	-0.338366	-0.340013
C44	C	1.071709	0.161634	0.159987
C45	C	0.608908	-0.293381	-0.294954
C46	C	1.108908	0.206619	0.205046
C47	C	0.679595	-0.293377	-0.294949
C48	C	1.179595	0.206623	0.205051
C49	C	0.323834	-0.293397	-0.294977
C50	C	0.823834	0.206603	0.205023
C51	C	0.253141	-0.293406	-0.294985
C52	C	0.753141	0.206594	0.205015
C53	C	0.249442	-0.383361	-0.385094
C54	C	0.749442	0.116639	0.114906
C55	C	0.320129	-0.383356	-0.385088
C56	C	0.820129	0.116644	0.114912
C57	C	0.357322	-0.338370	-0.340031
C58	C	0.857322	0.161630	0.159969
C59	C	0.433970	-0.338368	-0.340022
C60	C	0.933970	0.161632	0.159978
C61	C	0.495062	-0.338371	-0.340019
C62	C	0.995062	0.161629	0.159981
C63	C	0.956590	-0.520844	-0.347480
C64	C	1.456590	-0.020844	0.152520
C65	C	0.953408	-0.598910	-0.350696
C66	C	1.453408	-0.098910	0.149304
C67	C	0.995226	-0.635575	-0.308963
C68	C	1.495226	-0.135575	0.191037
C69	C	0.992237	-0.708927	-0.311993
C70	C	1.492237	-0.208927	0.188007
C71	C	0.947427	-0.745612	-0.356752
C72	C	1.447427	-0.245612	0.143248
C73	C	0.905608	-0.708941	-0.398489
C74	C	1.405608	-0.208941	0.101511
C75	C	0.908600	-0.635591	-0.395463
C76	C	1.408600	-0.135591	0.104537
C77	C	0.936228	-0.967082	-0.368056
C78	C	1.436228	-0.467082	0.131944
C79	C	0.933237	-1.040437	-0.371078
C80	C	1.433237	-0.540437	0.128922
C81	C	1.019868	-1.040418	-0.284582
C82	C	1.519868	-0.540418	0.215418
C83	C	1.022854	-0.967066	-0.281557
C84	C	1.522854	-0.467066	0.218443
C85	C	0.981037	-0.930402	-0.323296
C86	C	1.481037	-0.430402	0.176704
C87	C	0.944370	-0.820589	-0.359848
C88	C	1.444370	-0.320589	0.140152
C89	C	0.984098	-0.855427	-0.320203
C90	C	1.484098	-0.355427	0.179797
C91	C	1.140715	-0.338377	-0.340036
C92	C	1.640715	0.161623	0.159964
C93	C	1.215947	-0.338383	-0.340046
C94	C	1.715947	0.161617	0.159954
C95	C	0.964201	-0.338324	-0.516555
C96	C	1.464201	0.161676	-0.016555
C97	C	0.964213	-0.338307	-0.591786
C98	C	1.464213	0.161693	-0.091786
C99	C	0.971803	-0.155169	-0.332533
C100	C	1.471803	0.344831	0.167467
C101	C	0.975055	-0.077103	-0.329345
C102	C	1.475055	0.422897	0.170655
C103	C	1.009461	-0.293265	-1.051744
C104	C	1.509461	0.206735	-0.551744
C105	C	1.009450	-0.293286	-0.981057
C106	C	1.509450	0.206714	-0.481057
C107	C	0.964286	-0.338209	-0.947544
C108	C	1.464286	0.161791	-0.447544
C109	C	0.919136	-0.383119	-0.984722
C110	C	1.419136	0.116881	-0.484722
C111	C	0.919152	-0.383100	-1.055409
C112	C	1.419152	0.116900	-0.555409
C113	C	0.919074	-0.383195	-0.699652
C114	C	1.419074	0.116805	-0.199652
C115	C	0.919061	-0.383209	-0.628961
C116	C	1.419061	0.116791	-0.128961
C117	C	1.009372	-0.293381	-0.625300
C118	C	1.509372	0.206619	-0.125300
C119	C	1.009388	-0.293363	-0.695987
C120	C	1.509388	0.206637	-0.195987
C121	C	0.964240	-0.338274	-0.733159
C122	C	1.464240	0.161726	-0.233159
C123	C	0.964254	-0.338251	-0.809807
C124	C	1.464254	0.161749	-0.309807
C125	C	0.964269	-0.338229	-0.870897
C126	C	1.464269	0.161771	-0.370897
C127	C	0.964186	-0.338351	-0.164157
C128	C	1.464186	0.161649	0.335843
C129	C	0.964313	-0.338169	-0.088918
C130	C	1.464313	0.161831	0.411082
H131	H	0.581632	-0.256759	-0.258276
H132	H	1.081632	0.243241	0.241724
Cl133	Cl	1.079199	-0.920954	-0.225295
Cl134	Cl	1.579199	-0.420954	0.274705
Cl135	Cl	0.862393	-0.439556	-1.102142
Cl136	Cl	1.362393	0.060444	-0.602142
Cl137	Cl	0.717991	-0.439887	-0.441692
Cl138	Cl	1.217991	0.060113	0.058308
Cl139	Cl	1.066234	-0.236779	-1.093868
Cl140	Cl	1.566234	0.263221	-0.593868
Cl141	Cl	0.849279	-0.755059	-0.454763
Cl142	Cl	1.349279	-0.255059	0.045237
H143	H	1.046215	-0.256722	-0.950793
H144	H	1.546215	0.243278	-0.450793
Cl145	Cl	0.888038	-0.866713	-0.416114
Cl146	Cl	1.388038	-0.366713	0.083886
Cl147	Cl	1.066173	-0.236893	-0.738114
Cl148	Cl	1.566173	0.263107	-0.238114
Cl149	Cl	0.862281	-0.439689	-0.586831
Cl150	Cl	1.362281	0.060311	-0.086831
H151	H	0.709877	-0.256747	-0.258262
H152	H	1.209877	0.243253	0.241738
Cl153	Cl	1.066129	-0.236918	-0.578565
Cl154	Cl	1.566129	0.263082	-0.078565
Cl155	Cl	0.862320	-0.439659	-0.746374
Cl156	Cl	1.362320	0.060341	-0.246374
H157	H	0.882367	-0.419699	-0.957431
H158	H	1.382367	0.080301	-0.457431
H159	H	1.053914	-1.070278	-0.250600
H160	H	1.553914	-0.570278	0.249400
Cl161	Cl	1.044813	-0.755017	-0.259528
Cl162	Cl	1.544813	-0.255017	0.240472
H163	H	1.031712	-0.605711	-0.272513
H164	H	1.531712	-0.105711	0.227487
H165	H	0.874549	-0.605739	-0.429447
H166	H	1.374549	-0.105739	0.070553
Cl167	Cl	0.876892	-1.086555	-0.427342
Cl168	Cl	1.376892	-0.586555	0.072658
H169	H	0.902178	-0.937236	-0.402041
H170	H	1.402178	-0.437236	0.097959
H171	H	0.574923	-0.419968	-0.421754
H172	H	1.074923	0.080032	0.078246
Cl173	Cl	0.362232	-0.439901	-0.441724
Cl174	Cl	0.862232	0.060099	0.058276
H175	H	0.225873	-0.256778	-0.258299
H176	H	0.725873	0.243222	0.241701
Cl177	Cl	0.202681	-0.439916	-0.441738
Cl178	Cl	0.702681	0.060084	0.058262
Cl179	Cl	0.370581	-0.236840	-0.238336
Cl180	Cl	0.870581	0.263160	0.261664
Cl181	Cl	1.040432	-0.809308	-0.263939
Cl182	Cl	1.540432	-0.309308	0.236061
