data_functionalizedCrystal
_audit_creation_method	'MofGen! by Chris Wilmer'
_symmetry_space_group_name_H-M	'P1'
_symmetry_Int_Tables_number	1
_symmetry_cell_setting	triclinic
loop_
_symmetry_equiv_pos_as_xyz
  x,y,z
_cell_length_a	14.519731
_cell_length_b	14.519731
_cell_length_c	11.295483
_cell_angle_alpha	94.102025
_cell_angle_beta	85.886642
_cell_angle_gamma	83.688853
loop_
_atom_site_label
_atom_site_type_symbol
_atom_site_fract_x
_atom_site_fract_y
_atom_site_fract_z
O1	O	1.230066	0.114783	-0.099030
O2	O	1.730066	0.614783	0.400970
O3	O	0.961593	0.128999	-0.099032
O4	O	1.461593	0.628999	0.400968
O5	O	1.102937	-0.012345	-0.099020
O6	O	1.602937	0.487655	0.400980
O7	O	1.088722	0.256127	-0.099042
O8	O	1.588722	0.756127	0.400958
O9	O	1.090522	0.000051	0.099029
O10	O	1.590522	0.500051	0.599029
O11	O	0.949179	0.141395	0.099018
O12	O	1.449179	0.641395	0.599018
O13	O	1.217652	0.127179	0.099020
O14	O	1.717652	0.627179	0.599020
Cu15	Cu	1.082282	0.135418	0.117102
Cu16	Cu	1.582282	0.635418	0.617102
Cu17	Cu	1.096963	0.120759	-0.117115
Cu18	Cu	1.596963	0.620759	0.382885
O19	O	1.076308	0.268523	0.099008
O20	O	1.576308	0.768523	0.599008
C21	C	0.921026	0.134531	-0.000008
C22	C	1.421026	0.634531	0.499992
C23	C	0.818646	0.132535	-0.000008
C24	C	1.318646	0.632535	0.499992
C25	C	0.735502	0.130912	-0.000013
C26	C	1.235502	0.630912	0.499987
C27	C	0.631193	0.128886	-0.000013
C28	C	1.131193	0.628886	0.499987
C29	C	0.548054	0.127277	-0.000013
C30	C	1.048054	0.627277	0.499987
C31	C	0.443739	0.125251	-0.000015
C32	C	0.943739	0.625251	0.499985
C33	C	1.096063	-0.040506	0.000005
C34	C	1.596063	0.459494	0.500005
C35	C	1.094067	-0.142887	0.000006
C36	C	1.594067	0.357113	0.500006
C37	C	1.092446	-0.226031	0.000003
C38	C	1.592446	0.273969	0.500003
C39	C	1.090420	-0.330341	-0.000006
C40	C	1.590420	0.169659	0.499994
C41	C	1.088812	-0.413480	-0.000014
C42	C	1.588812	0.086520	0.499986
C43	C	1.086786	-0.517796	-0.000021
C44	C	1.586786	-0.017796	0.499979
C45	C	1.258218	0.121647	-0.000008
C46	C	1.758218	0.621647	0.499992
C47	C	1.360599	0.123643	-0.000015
C48	C	1.860599	0.623643	0.499985
C49	C	1.083181	0.296684	-0.000020
C50	C	1.583181	0.796684	0.499980
C51	C	1.085178	0.399064	-0.000029
C52	C	1.585178	0.899064	0.499971
N53	N	1.071962	0.145728	0.281838
N54	N	1.571962	0.645728	0.781838
N55	N	1.107290	0.110442	-0.281850
N56	N	1.607290	0.610442	0.218150
C57	C	1.181576	0.036175	0.531136
C58	C	1.681576	0.536175	1.031136
C59	C	1.173784	0.043973	0.655799
C60	C	1.673784	0.543973	1.155799
C61	C	1.048582	0.169116	0.655829
C62	C	1.548582	0.669116	1.155829
C63	C	1.056374	0.161319	0.531166
C64	C	1.556374	0.661319	1.031166
C65	C	1.122874	0.094847	0.468824
C66	C	1.622874	0.594847	0.968824
C67	C	1.130670	0.087054	0.344159
C68	C	1.630670	0.587054	0.844159
C69	C	1.005464	0.212192	0.344190
C70	C	1.505464	0.712192	0.844190
C71	C	0.997672	0.219990	0.468853
C72	C	1.497672	0.719990	0.968853
H73	H	1.184820	0.032932	0.293401
H74	H	1.684820	0.532932	0.793401
H75	H	0.943527	0.274108	0.519626
H76	H	1.443527	0.774108	1.019626
C77	C	1.315830	0.007717	0.390946
C78	C	1.815830	0.507717	0.890946
C79	C	1.254697	-0.036870	0.462620
C80	C	1.754697	0.463130	0.962620
H81	H	1.360982	-0.037376	0.348660
H82	H	1.860982	0.462624	0.848660
H83	H	1.281982	0.041519	0.335984
H84	H	1.781982	0.541519	0.835984
H85	H	1.345997	0.049236	0.439592
H86	H	1.845997	0.549236	0.939592
H87	H	1.224525	-0.078384	0.413973
H88	H	1.724525	0.421616	0.913973
H89	H	1.288549	-0.070687	0.517588
H90	H	1.788549	0.429313	1.017588
C91	C	0.880925	0.336682	0.356747
C92	C	1.380925	0.836682	0.856747
C93	C	0.940934	0.276692	0.275695
C94	C	1.440934	0.776692	0.775695
H95	H	0.841095	0.376505	0.314458
H96	H	1.341095	0.876505	0.814458
H97	H	0.844646	0.301260	0.405373
H98	H	1.344646	0.801260	0.905373
H99	H	0.916340	0.372976	0.405364
H100	H	1.416340	0.872976	0.905364
H101	H	0.905519	0.240393	0.227083
H102	H	1.405519	0.740393	0.727083
H103	H	0.977216	0.312118	0.227048
H104	H	1.477216	0.812118	0.727048
C105	C	1.298323	-0.080507	0.643243
C106	C	1.798323	0.419493	1.143243
C107	C	1.238312	-0.020519	0.724294
C108	C	1.738312	0.479481	1.224294
H109	H	1.338162	-0.120320	0.685532
H110	H	1.838162	0.379680	1.185532
H111	H	1.262916	-0.116803	0.594635
H112	H	1.762916	0.383197	1.094635
H113	H	1.334599	-0.045076	0.594606
H114	H	1.834599	0.454924	1.094606
H115	H	1.202030	-0.055950	0.772925
H116	H	1.702030	0.444050	1.272925
H117	H	1.273722	0.015781	0.772922
H118	H	1.773722	0.515781	1.272922
C119	C	0.886626	0.225288	0.694273
C120	C	1.386626	0.725288	1.194273
C121	C	0.975480	0.242163	0.724379
C122	C	1.475480	0.742163	1.224379
H123	H	0.841495	0.270378	0.736603
H124	H	1.341495	0.770378	1.236603
H125	H	0.882867	0.229060	0.611124
H126	H	1.382867	0.729060	1.111124
H127	H	0.875251	0.164983	0.714696
H128	H	1.375251	0.664983	1.214696
H129	H	0.986858	0.302465	0.703947
H130	H	1.486858	0.802465	1.203947
H131	H	0.979242	0.238399	0.807547
H132	H	1.479242	0.738399	1.307547
