data_functionalizedCrystal
_audit_creation_method	'MofGen! by Chris Wilmer'
_symmetry_space_group_name_H-M	'P1'
_symmetry_Int_Tables_number	1
_symmetry_cell_setting	triclinic
loop_
_symmetry_equiv_pos_as_xyz
  x,y,z
_cell_length_a	15.995300
_cell_length_b	14.853569
_cell_length_c	14.472310
_cell_angle_alpha	89.997037
_cell_angle_beta	90.014612
_cell_angle_gamma	83.553686
loop_
_atom_site_label
_atom_site_type_symbol
_atom_site_fract_x
_atom_site_fract_y
_atom_site_fract_z
O1	O	1.111158	0.115984	0.076866
O2	O	0.867394	0.130381	0.076860
O3	O	0.995787	-0.008057	0.076867
O4	O	0.982766	0.254422	0.076860
O5	O	0.995754	-0.008049	-0.076815
O6	O	0.867361	0.130389	-0.076822
O7	O	1.111125	0.115992	-0.076816
Cu8	Cu	0.989240	0.123192	-0.090851
Cu9	Cu	0.989279	0.123182	0.090896
O10	O	0.982732	0.254430	-0.076822
C11	C	0.836181	0.129798	0.000018
C12	C	0.743227	0.128038	0.000016
C13	C	0.573040	0.124787	0.000023
C14	C	0.525689	0.223358	0.000018
C15	C	0.428999	0.221559	0.000370
C16	C	0.405479	0.121587	0.000029
C17	C	0.446574	0.072678	0.087617
C18	C	0.543210	0.075172	0.087688
C19	C	0.543450	0.073722	-0.087083
C20	C	0.446505	0.073731	-0.088232
C21	C	0.310782	0.119773	0.000036
C22	C	0.667738	0.126597	0.000023
C23	C	0.995180	-0.041641	0.000028
C24	C	0.993411	-0.141722	0.000037
C25	C	1.142338	0.116575	0.000028
C26	C	1.235293	0.118336	0.000036
C27	C	0.983339	0.288014	0.000018
C28	C	0.985108	0.388095	0.000016
N29	N	0.989219	0.123198	-0.218682
C30	C	1.062206	0.424353	0.000015
C31	C	0.909672	0.445877	0.000021
C32	C	0.911331	0.539909	0.000024
C33	C	0.988429	0.576167	0.000024
C34	C	1.063868	0.518393	0.000020
C35	C	0.835894	0.597690	0.000037
C36	C	0.837550	0.691728	0.000040
C37	C	0.914649	0.727987	0.000033
C38	C	0.990090	0.670207	0.000029
C39	C	1.067188	0.706464	0.000028
C40	C	1.142631	0.648686	0.000018
C41	C	1.140966	0.554652	0.000013
C42	C	0.916313	0.822021	0.000037
C43	C	1.068850	0.800504	0.000034
C44	C	0.989278	0.123178	-0.592773
C45	C	0.920347	0.197006	-0.553611
C46	C	0.920506	0.197275	-0.446523
C47	C	0.989248	0.123188	-0.407182
C48	C	1.076638	0.143717	-0.446018
C49	C	1.076251	0.144241	-0.553139
C50	C	0.971598	0.028603	-0.553301
C51	C	0.969595	0.029234	-0.446173
C52	C	0.989236	0.123192	-0.302294
C53	C	0.989295	0.123177	-0.697661
N54	N	0.989307	0.123169	0.218726
H55	H	0.419193	0.109447	-0.153030
H56	H	0.418242	0.106202	0.153044
H57	H	0.855181	0.184979	-0.579400
H58	H	0.855551	0.185046	-0.420268
H59	H	1.129163	0.091374	-0.420532
H60	H	1.092571	0.211903	-0.419182
H61	H	1.202388	0.507601	0.000005
H62	H	0.545357	0.262377	0.062732
H63	H	0.575400	0.002790	0.091433
O64	O	1.152007	0.839611	0.000043
H65	H	1.204182	0.783635	0.000044
O66	O	1.031762	-0.046959	-0.410715
H67	H	1.065337	-0.082015	-0.469951
H68	H	0.909251	0.008859	-0.580369
O69	O	0.427785	-0.024625	0.091625
H70	H	0.388861	-0.039190	0.031089
H71	H	0.905309	0.013655	-0.420792
H72	H	1.205404	0.678219	0.000035
O73	O	1.038170	-0.044179	-0.586850
H74	H	1.083636	-0.013204	-0.631421
O75	O	1.096865	0.235599	-0.586237
H76	H	1.107011	0.278991	-0.525731
O77	O	0.756182	0.754038	0.000031
H78	H	0.719300	0.741142	0.062664
O79	O	0.391326	0.272468	-0.082773
H80	H	0.442164	0.298600	-0.123593
H81	H	0.563974	0.106178	-0.153491
H82	H	0.431081	0.000844	-0.093777
H83	H	1.129153	0.092589	-0.579043
H84	H	0.544213	0.262974	-0.062782
H85	H	0.401210	0.259818	0.063521
H86	H	0.561585	0.110414	0.153408
O87	O	0.935106	0.289454	-0.589243
H88	H	0.991324	0.283050	-0.634723
H89	H	0.575146	0.001047	-0.087923
O90	O	0.935481	0.290235	-0.412556
H91	H	0.942646	0.335171	-0.472642
O92	O	1.143575	0.362045	0.000000
H93	H	1.129473	0.290564	-0.000002
H94	H	0.846902	0.416350	0.000029
H95	H	0.773125	0.568161	0.000044
H96	H	0.854889	0.869060	0.000050
