data_functionalizedCrystal
_audit_creation_method	'MofGen! by Chris Wilmer'
_symmetry_space_group_name_H-M	'P1'
_symmetry_Int_Tables_number	1
_symmetry_cell_setting	triclinic
loop_
_symmetry_equiv_pos_as_xyz
  x,y,z
_cell_length_a	14.044220
_cell_length_b	16.992695
_cell_length_c	16.053802
_cell_angle_alpha	87.258926
_cell_angle_beta	87.184754
_cell_angle_gamma	88.071450
loop_
_atom_site_label
_atom_site_type_symbol
_atom_site_fract_x
_atom_site_fract_y
_atom_site_fract_z
O1	O	1.275871	-0.187006	-0.069429
O2	O	0.999383	-0.180148	-0.069431
O3	O	1.136518	-0.069357	-0.069423
O4	O	1.138736	-0.297797	-0.069437
O5	O	1.128968	-0.075428	0.069435
O6	O	0.991832	-0.186218	0.069427
O7	O	1.268321	-0.193076	0.069429
Zn8	Zn	1.128878	-0.190611	0.091475
Zn9	Zn	1.138826	-0.182613	-0.091477
O10	O	1.131185	-0.303867	0.069422
C11	C	1.129891	-0.042980	0.000006
C12	C	1.121383	0.044659	0.000005
C13	C	0.960066	-0.180181	-0.000002
C14	C	0.854162	-0.171227	-0.000003
C15	C	1.307638	-0.193043	-0.000001
C16	C	1.413542	-0.201997	-0.000006
C17	C	1.607444	-0.218367	-0.000006
C18	C	1.660266	-0.154861	-0.000003
C19	C	1.768160	-0.163969	-0.000003
C20	C	1.499540	-0.209259	-0.000006
C21	C	1.137812	-0.330244	-0.000009
C22	C	1.146321	-0.417883	-0.000014
N23	N	1.122095	-0.196070	0.216335
C24	C	1.203479	0.089157	0.000007
C25	C	1.195479	0.171504	-0.000001
C26	C	1.105381	0.209350	-0.000005
C27	C	1.023279	0.164846	-0.000009
C28	C	1.031280	0.082501	-0.000007
C29	C	1.072220	0.455268	-0.000016
C30	C	1.064225	0.537619	-0.000016
C31	C	1.236426	0.544271	-0.000010
C32	C	1.244419	0.461924	-0.000003
C33	C	1.162317	0.417427	-0.000011
N34	N	1.097202	0.293522	-0.000010
N35	N	1.170497	0.333258	-0.000012
N36	N	1.145615	-0.177148	-0.216337
C37	C	1.180471	-0.148948	0.260032
C38	C	1.175736	-0.152775	0.347439
C39	C	1.112630	-0.203728	0.391147
C40	C	1.054248	-0.250852	0.347443
C41	C	1.058979	-0.247020	0.260038
C42	C	1.091964	-0.220441	0.652555
C43	C	1.087240	-0.224270	0.739966
C44	C	1.208727	-0.126192	0.739956
C45	C	1.213456	-0.122369	0.652549
C46	C	1.155071	-0.169489	0.608853
N47	N	1.107791	-0.207642	0.480490
N48	N	1.159906	-0.165570	0.519511
H49	H	1.624461	-0.093648	-0.000060
Br50	Br	1.366701	0.410568	-0.000025
Br51	Br	1.287959	-0.062244	0.799260
H52	H	1.276846	0.058349	0.000015
Br53	Br	1.667123	-0.320382	-0.000018
Br54	Br	1.012731	-0.284390	0.593258
H55	H	1.262331	0.207731	0.000002
H56	H	1.303269	0.580509	-0.000005
H57	H	1.223269	-0.114404	0.383017
H58	H	0.990852	0.568430	-0.000005
H59	H	1.005366	0.419049	-0.000023
Br60	Br	0.979745	-0.310969	0.200735
Br61	Br	1.266127	-0.079800	0.200724
H62	H	1.002861	-0.292336	0.383035
H63	H	0.949919	0.195668	-0.000017
Br64	Br	1.299104	-0.053221	0.593230
Br65	Br	0.919859	0.022110	-0.000015
H66	H	1.035848	-0.265765	0.775549
