data_functionalizedCrystal
_audit_creation_method	'MofGen! by Chris Wilmer'
_symmetry_space_group_name_H-M	'P1'
_symmetry_Int_Tables_number	1
_symmetry_cell_setting	triclinic
loop_
_symmetry_equiv_pos_as_xyz
  x,y,z
_cell_length_a	19.288840
_cell_length_b	17.019294
_cell_length_c	18.366186
_cell_angle_alpha	86.114787
_cell_angle_beta	89.983729
_cell_angle_gamma	83.259949
loop_
_atom_site_label
_atom_site_type_symbol
_atom_site_fract_x
_atom_site_fract_y
_atom_site_fract_z
O1	O	0.921538	0.098312	-0.066834
O2	O	0.719298	0.111608	-0.067643
O3	O	0.826059	-0.009894	-0.060034
O4	O	0.814777	0.219813	-0.074442
O5	O	0.826041	-0.009900	0.061065
O6	O	0.719280	0.111602	0.053457
O7	O	0.921520	0.098306	0.054265
Zn8	Zn	0.820397	0.104953	0.073089
Zn9	Zn	0.820421	0.104961	-0.086466
O10	O	0.814759	0.219808	0.046657
C11	C	0.693412	0.111180	-0.007063
C12	C	0.616305	0.109906	-0.006973
C13	C	0.580110	0.109297	-0.072948
C14	C	0.507661	0.108091	-0.072881
C15	C	0.471411	0.107478	-0.006835
C16	C	0.507614	0.108091	0.059148
C17	C	0.580061	0.109305	0.059079
C18	C	0.361991	0.059347	0.046745
C19	C	0.289546	0.058128	0.046812
C20	C	0.247961	0.103737	-0.006619
C21	C	0.278831	0.150554	-0.060129
C22	C	0.351278	0.151768	-0.060198
C23	C	0.392855	0.106162	-0.006753
C24	C	0.133209	0.101821	-0.072526
C25	C	0.060758	0.100620	-0.072457
C26	C	0.060713	0.100612	0.059575
C27	C	0.133162	0.101821	0.059503
C28	C	0.169406	0.102422	-0.006549
C29	C	0.825622	-0.039284	0.002357
C30	C	0.824338	-0.126850	0.007846
C31	C	0.823746	-0.167981	-0.055586
C32	C	0.822536	-0.250258	-0.050427
C33	C	0.821921	-0.291403	0.018165
C34	C	0.822511	-0.250266	0.081603
C35	C	0.823717	-0.167990	0.076443
C36	C	0.818275	-0.539823	0.037048
C37	C	0.817071	-0.622105	0.042203
C38	C	0.817095	-0.622091	-0.089827
C39	C	0.818305	-0.539814	-0.094981
C40	C	0.818891	-0.498684	-0.031544
C41	C	0.820686	-0.375503	0.023441
C42	C	0.820121	-0.414584	-0.036820
C43	C	0.947406	0.098734	-0.006316
C44	C	1.024513	0.100008	-0.006410
C45	C	0.815196	0.249198	-0.015736
C46	C	0.816480	0.336764	-0.021229
N47	N	0.820386	0.104947	0.181980
N48	N	0.820438	0.104960	-0.195357
C49	C	0.867675	0.051173	0.223448
C50	C	0.867679	0.051169	0.299676
C51	C	0.820401	0.104954	0.334432
C52	C	0.773103	0.158732	0.292955
C53	C	0.773095	0.158729	0.216729
C54	C	0.811230	0.176830	0.450685
C55	C	0.811243	0.176834	0.526910
C56	C	0.820421	0.104964	0.569539
C57	C	0.829601	0.033085	0.535935
C58	C	0.829594	0.033082	0.459709
C59	C	0.820404	0.104963	0.417087
C60	C	0.867718	0.051181	0.693662
C61	C	0.867717	0.051176	0.769892
C62	C	0.773144	0.158746	0.763170
C63	C	0.773141	0.158744	0.686942
C64	C	0.820432	0.104962	0.652193
H65	H	0.264418	0.020003	0.090379
O66	O	0.722122	0.216755	0.330441
H67	H	0.689236	0.254150	0.288796
H68	H	0.478185	0.107596	-0.126608
H69	H	0.031199	0.100118	0.113351
H70	H	0.734647	0.202535	0.791468
O71	O	0.384576	0.202269	-0.117898
H72	H	0.343493	0.233788	-0.155040
O73	O	0.172200	0.102488	0.130666
H74	H	0.164543	0.048503	0.165713
O75	O	0.722094	0.216736	0.171995
H76	H	0.689220	0.254140	0.208966
O77	O	0.801321	0.254360	0.404720
H78	H	0.754045	0.256314	0.369898
H79	H	0.816616	-0.655588	-0.141474
H80	H	0.162719	0.102318	-0.126311
H81	H	0.244973	0.187696	-0.103635
O82	O	0.021717	0.099935	-0.143617
H83	H	0.059096	0.100539	-0.189555
O84	O	0.406843	0.010147	0.104374
H85	H	0.373210	-0.022622	0.141584
H86	H	0.820616	-0.381080	-0.092668
H87	H	0.822057	-0.283743	-0.102081
O88	O	0.816415	-0.666475	0.116195
H89	H	0.863193	-0.711151	0.122149
O90	O	0.619100	0.109973	0.130243
H91	H	0.611442	0.055987	0.165289
H92	H	0.906189	0.007378	0.333445
H93	H	0.818766	-0.506347	0.088703
H94	H	0.822007	-0.283772	0.137452
O95	O	0.619202	0.109955	-0.144187
H96	H	0.581856	0.109336	-0.190054
H97	H	0.478095	0.107594	0.112924
H98	H	0.906224	0.007382	0.803656
H99	H	0.818806	-0.506320	-0.150837
H100	H	0.837067	-0.025444	0.432351
O101	O	0.824362	-0.123629	0.144862
H102	H	0.777589	-0.078946	0.145228
O103	O	0.824403	-0.123603	-0.129569
H104	H	0.823779	-0.166029	-0.172810
O105	O	0.820044	-0.419893	0.097419
H106	H	0.772181	-0.450186	0.102484
H107	H	0.906180	0.007379	0.195157
O108	O	0.839496	-0.044442	0.581900
H109	H	0.837949	-0.032369	0.640551
H110	H	0.906222	0.007386	0.665369
H111	H	0.734637	0.202535	0.653176
H112	H	0.803772	0.235362	0.554264
