data_functionalizedCrystal
_audit_creation_method	'MofGen! by Chris Wilmer'
_symmetry_space_group_name_H-M	'P1'
_symmetry_Int_Tables_number	1
_symmetry_cell_setting	triclinic
loop_
_symmetry_equiv_pos_as_xyz
  x,y,z
_cell_length_a	19.188930
_cell_length_b	19.188940
_cell_length_c	17.666332
_cell_angle_alpha	90.008948
_cell_angle_beta	89.994760
_cell_angle_gamma	96.853253
loop_
_atom_site_label
_atom_site_type_symbol
_atom_site_fract_x
_atom_site_fract_y
_atom_site_fract_z
O1	O	0.926134	-0.087173	-0.063192
O2	O	1.426134	0.412827	0.436808
O3	O	0.722823	-0.098907	-0.063141
O4	O	1.222823	0.401093	0.436859
O5	O	0.830342	0.008615	-0.063162
O6	O	1.330342	0.508615	0.436838
O7	O	0.818615	-0.194695	-0.063171
O8	O	1.318615	0.305305	0.436829
O9	O	0.830361	0.008630	0.062735
O10	O	1.330361	0.508630	0.562735
O11	O	0.722842	-0.098893	0.062756
O12	O	1.222842	0.401107	0.562756
O13	O	0.926152	-0.087158	0.062704
O14	O	1.426152	0.412842	0.562704
Cu15	Cu	0.824499	-0.093024	0.074226
Cu16	Cu	1.324499	0.406976	0.574226
Cu17	Cu	0.824477	-0.093041	-0.074662
Cu18	Cu	1.324477	0.406959	0.425338
O19	O	0.818633	-0.194681	0.062726
O20	O	1.318633	0.305319	0.562726
C21	C	0.696821	-0.098520	-0.000186
C22	C	1.196821	0.401480	0.499814
C23	C	0.619317	-0.097379	-0.000166
C24	C	1.119317	0.402621	0.499834
N25	N	0.824462	-0.093048	-0.179381
N26	N	1.324462	0.406952	0.320619
C27	C	0.829970	0.034633	-0.000214
C28	C	1.329970	0.534633	0.499786
C29	C	0.828827	0.112138	-0.000214
C30	C	1.328827	0.612138	0.499786
C31	C	0.574395	-0.160470	-0.000180
C32	C	1.074395	0.339530	0.499820
C33	C	0.501571	-0.159398	-0.000188
C34	C	1.001571	0.340602	0.499812
C35	C	0.473672	-0.095232	-0.000197
C36	C	0.973672	0.404768	0.499803
C37	C	0.518604	-0.032133	-0.000179
C38	C	1.018604	0.467867	0.499821
C39	C	0.591426	-0.033207	-0.000163
C40	C	1.091426	0.466793	0.499837
N41	N	0.365684	-0.046190	-0.043074
N42	N	0.865684	0.453810	0.456926
N43	N	0.296505	-0.045175	-0.043091
N44	N	0.796505	0.454825	0.456909
C45	C	0.254264	-0.091994	-0.000244
C46	C	0.754264	0.408006	0.499756
N47	N	0.283812	-0.139878	0.042611
N48	N	0.783812	0.360122	0.542611
N49	N	0.352997	-0.140895	0.042625
N50	N	0.852997	0.359105	0.542625
C51	C	0.394710	-0.094061	-0.000214
C52	C	0.894710	0.405939	0.499786
C53	C	0.130377	-0.153927	-0.000266
C54	C	0.630377	0.346073	0.499734
C55	C	0.057552	-0.152853	-0.000270
C56	C	0.557552	0.347147	0.499730
C57	C	0.074587	-0.025586	-0.000267
C58	C	0.574587	0.474414	0.499733
C59	C	0.147410	-0.026662	-0.000256
C60	C	0.647410	0.473338	0.499744
C61	C	0.175301	-0.090835	-0.000259
C62	C	0.675301	0.409165	0.499741
C63	C	0.952154	-0.087546	-0.000252
C64	C	1.452154	0.412454	0.499748
C65	C	1.029659	-0.088686	-0.000277
C66	C	1.529659	0.411314	0.499723
C67	C	0.819005	-0.220699	-0.000224
C68	C	1.319005	0.279301	0.499776
C69	C	0.820148	-0.298203	-0.000229
C70	C	1.320148	0.201797	0.499771
C71	C	0.820703	0.665405	0.068397
C72	C	1.320703	1.165405	0.568397
C73	C	0.821769	0.592580	0.068401
C74	C	1.321769	1.092580	0.568401
C75	C	0.822296	0.556153	-0.000225
C76	C	1.322296	1.056153	0.499775
C77	C	0.821738	0.592554	-0.068860
C78	C	1.321738	1.092554	0.431140
C79	C	0.820664	0.665376	-0.068862
C80	C	1.320664	1.165376	0.431138
N81	N	0.863704	0.447123	-0.051315
N82	N	1.363704	0.947123	0.448685
N83	N	0.864726	0.377945	-0.051308
N84	N	1.364726	0.877945	0.448692
C85	C	0.825529	0.336744	-0.000223
C86	C	1.325529	0.836744	0.499777
N87	N	0.785282	0.367334	0.050867
N88	N	1.285282	0.867334	0.550867
N89	N	0.784263	0.436519	0.050862
N90	N	1.284263	0.936519	0.550862
C91	C	0.823460	0.477189	-0.000231
C92	C	1.323460	0.977189	0.499769
C93	C	0.827239	0.221386	0.068411
C94	C	1.327239	0.721386	0.568411
C95	C	0.828302	0.148560	0.068412
C96	C	1.328302	0.648560	0.568412
C97	C	0.828277	0.148536	-0.068850
C98	C	1.328277	0.648536	0.431150
C99	C	0.827208	0.221360	-0.068849
C100	C	1.327208	0.721360	0.431151
C101	C	0.826692	0.257781	-0.000216
C102	C	1.326692	0.757781	0.499784
C103	C	0.866592	-0.135371	-0.219009
C104	C	1.366592	0.364629	0.280991
C105	C	0.866596	-0.135372	-0.298256
C106	C	1.366596	0.364628	0.201744
C107	C	0.824479	-0.093036	-0.337873
C108	C	1.324479	0.406964	0.162127
C109	C	0.782340	-0.050710	-0.298237
C110	C	1.282340	0.449290	0.201763
C111	C	0.782332	-0.050716	-0.218991
C112	C	1.282332	0.449284	0.281009
N113	N	0.822923	-0.031849	-0.462282
N114	N	1.322923	0.468151	0.037718
N115	N	0.822935	-0.031845	-0.537563
N116	N	1.322935	0.468155	-0.037563
C117	C	0.824501	-0.093017	-0.576637
C118	C	1.324501	0.406983	-0.076637
N119	N	0.826068	-0.154194	-0.537588
N120	N	1.326068	0.345806	-0.037588
N121	N	0.826060	-0.154197	-0.462300
N122	N	1.326060	0.345803	0.037700
C123	C	0.824483	-0.093026	-0.423803
C124	C	1.324483	0.406974	0.076197
C125	C	0.866638	-0.135345	-0.702194
C126	C	1.366638	0.364655	-0.202194
C127	C	0.866638	-0.135347	-0.781443
C128	C	1.366638	0.364653	-0.281443
C129	C	0.782386	-0.050679	-0.781422
C130	C	1.282386	0.449321	-0.281422
C131	C	0.782382	-0.050683	-0.702175
C132	C	1.282382	0.449317	-0.202175
C133	C	0.824512	-0.093015	-0.662565
C134	C	1.324512	0.406985	-0.162565
N135	N	0.824519	-0.093012	0.178945
N136	N	1.324519	0.406988	0.678945
H137	H	0.597098	-0.212724	-0.000184
H138	H	1.097098	0.287276	0.499816
C139	C	0.822318	0.552487	-0.144349
C140	C	1.322318	1.052487	0.355651
C141	C	0.823504	0.472386	-0.144351
C142	C	1.323504	0.972386	0.355649
C143	C	0.824080	0.432320	-0.219843
C144	C	1.324080	0.932320	0.280157
C145	C	0.823470	0.472355	-0.295334
C146	C	1.323470	0.972355	0.204666
C147	C	0.822285	0.552461	-0.295335
C148	C	1.322285	1.052461	0.204665
C149	C	0.821708	0.592527	-0.219843
C150	C	1.321708	1.092527	0.280157
H151	H	0.823955	0.442746	-0.088465
H152	H	1.323955	0.942746	0.411535
H153	H	0.824958	0.373021	-0.219842
H154	H	1.324958	0.873021	0.280158
H155	H	0.823897	0.442696	-0.351218
H156	H	1.323897	0.942696	0.148782
H157	H	0.821834	0.582101	-0.351220
H158	H	1.321834	1.082101	0.148780
H159	H	0.820831	0.651826	-0.219844
H160	H	1.320831	1.151826	0.280156
H161	H	0.748047	-0.016241	-0.330498
H162	H	1.248047	0.483759	0.169502
H163	H	0.828751	0.118930	0.124298
H164	H	1.328751	0.618930	0.624298
C165	C	0.912981	-0.181910	-0.825037
C166	C	1.412981	0.318090	-0.325037
C167	C	0.959319	-0.228471	-0.781464
C168	C	1.459319	0.271529	-0.281464
C169	C	1.005662	-0.275034	-0.825058
C170	C	1.505662	0.224966	-0.325058
C171	C	1.005668	-0.275037	-0.912226
C172	C	1.505668	0.224963	-0.412226
C173	C	0.959328	-0.228474	-0.955804
C174	C	1.459328	0.271526	-0.455804
C175	C	0.912985	-0.181910	-0.912209
C176	C	1.412985	0.318090	-0.412209
H177	H	0.959317	-0.228470	-0.716933
H178	H	1.459317	0.271530	-0.216933
H179	H	1.039966	-0.309503	-0.792798
H180	H	1.539966	0.190497	-0.292798
H181	H	1.039974	-0.309506	-0.944497
H182	H	1.539974	0.190494	-0.444497
H183	H	0.959331	-0.228475	-1.020335
H184	H	1.459331	0.271525	-0.520335
H185	H	0.878681	-0.147442	-0.944469
H186	H	1.378681	0.352558	-0.444469
H187	H	0.495884	0.020111	-0.000196
H188	H	0.995884	0.520111	0.499804
H189	H	0.900940	-0.169818	-0.669942
H190	H	1.400940	0.330182	-0.169942
H191	H	0.464989	-0.210776	-0.000198
H192	H	0.964989	0.289224	0.499802
C193	C	0.828853	0.108473	-0.144339
C194	C	1.328853	0.608473	0.355661
C195	C	0.768078	0.110363	-0.200937
C196	C	1.268078	0.610363	0.299063
C197	C	0.768649	0.070295	-0.276428
C198	C	1.268649	0.570295	0.223572
C199	C	0.829995	0.028337	-0.295323
C200	C	1.329995	0.528337	0.204677
C201	C	0.890774	0.026446	-0.238724
C202	C	1.390774	0.526446	0.261276
C203	C	0.890203	0.066514	-0.163232
C204	C	1.390203	0.566514	0.336768
H205	H	0.722662	0.141424	-0.186951
H206	H	1.222662	0.641424	0.313049
H207	H	0.723656	0.071696	-0.318326
H208	H	1.223656	0.571696	0.181674
H209	H	0.830418	-0.001323	-0.351206
H210	H	1.330418	0.498677	0.148794
H211	H	0.936190	-0.004615	-0.252710
H212	H	1.436190	0.495385	0.247290
H213	H	0.935196	0.065113	-0.121335
H214	H	1.435196	0.565113	0.378665
H215	H	0.628002	0.018171	-0.000151
H216	H	1.128002	0.518171	0.499849
H217	H	0.748079	-0.016216	-0.669910
H218	H	1.248079	0.483784	-0.169910
H219	H	0.900896	-0.169843	-0.186764
H220	H	1.400896	0.330157	0.313236
C221	C	0.912948	-0.181924	-0.341859
C222	C	1.412948	0.318076	0.158141
C223	C	0.959290	-0.228485	-0.298291
C224	C	1.459290	0.271515	0.201709
C225	C	1.005644	-0.275034	-0.341890
C226	C	1.505644	0.224966	0.158110
C227	C	1.005656	-0.275023	-0.429058
C228	C	1.505656	0.224977	0.070942
C229	C	0.959312	-0.228461	-0.472631
C230	C	1.459312	0.271539	0.027369
C231	C	0.912958	-0.181911	-0.429031
C232	C	1.412958	0.318089	0.070969
H233	H	0.959283	-0.228495	-0.233760
H234	H	1.459283	0.271505	0.266240
H235	H	1.039951	-0.309503	-0.309635
H236	H	1.539951	0.190497	0.190365
H237	H	1.039970	-0.309482	-0.461333
H238	H	1.539970	0.190518	0.038667
H239	H	0.959320	-0.228451	-0.537162
H240	H	1.459320	0.271549	-0.037162
H241	H	0.878652	-0.147443	-0.461287
H242	H	1.378652	0.352557	0.038713
C243	C	0.161063	-0.224513	-0.000258
C244	C	0.661063	0.275487	0.499742
C245	C	0.111646	-0.293915	-0.000261
C246	C	0.611646	0.206085	0.499739
C247	C	0.142329	-0.364502	-0.000252
C248	C	0.642329	0.135498	0.499748
C249	C	0.222430	-0.365686	-0.000241
C250	C	0.722430	0.134314	0.499759
C251	C	0.271853	-0.296281	-0.000238
C252	C	0.771853	0.203719	0.499762
C253	C	0.241169	-0.225695	-0.000247
C254	C	0.741169	0.274305	0.499753
H255	H	0.052346	-0.293041	-0.000269
H256	H	0.552346	0.206959	0.499731
H257	H	0.105743	-0.415879	-0.000254
H258	H	0.605743	0.084121	0.499746
H259	H	0.245144	-0.417938	-0.000235
H260	H	0.745144	0.082062	0.499765
H261	H	0.331153	-0.297156	-0.000230
H262	H	0.831153	0.202844	0.499770
H263	H	0.277755	-0.174317	-0.000245
H264	H	0.777755	0.325683	0.499755
C265	C	0.826609	0.261396	-0.144341
C266	C	1.326609	0.761396	0.355659
C267	C	0.887362	0.259483	-0.200973
C268	C	1.387362	0.759483	0.299027
C269	C	0.886761	0.299518	-0.276469
C270	C	1.386761	0.799518	0.223531
C271	C	0.825406	0.341465	-0.295333
C272	C	1.325406	0.841465	0.204667
C273	C	0.764648	0.343380	-0.238699
C274	C	1.264648	0.843380	0.261301
C275	C	0.765249	0.303345	-0.163203
C276	C	1.265249	0.803345	0.336797
H277	H	0.932785	0.228430	-0.187010
H278	H	1.432785	0.728430	0.312990
H279	H	0.931739	0.298100	-0.318393
H280	H	1.431739	0.798100	0.181607
H281	H	0.824962	0.371101	-0.351220
H282	H	1.324962	0.871101	0.148780
H283	H	0.719226	0.374433	-0.252662
H284	H	1.219226	0.874433	0.247338
H285	H	0.720272	0.304762	-0.121279
H286	H	1.220272	0.804762	0.378721
C287	C	0.043909	0.044999	-0.000275
C288	C	0.543909	0.544999	0.499725
C289	C	-0.003827	0.063246	0.065090
C290	C	0.496173	0.563246	0.565090
C291	C	-0.034507	0.133834	0.065086
C292	C	0.465493	0.633834	0.565086
C293	C	-0.017451	0.186175	-0.000284
C294	C	0.482549	0.686175	0.499716
C295	C	0.030287	0.167929	-0.065655
C296	C	0.530287	0.667929	0.434345
C297	C	0.060968	0.097341	-0.065650
C298	C	0.560968	0.597341	0.434350
H299	H	-0.016455	0.024499	0.113485
H300	H	0.483545	0.524499	0.613485
H301	H	-0.069847	0.147341	0.113478
H302	H	0.430153	0.647341	0.613478
H303	H	-0.040163	0.238429	-0.000288
H304	H	0.459837	0.738429	0.499712
H305	H	0.042915	0.206676	-0.114050
H306	H	0.542915	0.706676	0.385950
H307	H	0.096307	0.083835	-0.114042
H308	H	0.596307	0.583835	0.385958
C309	C	0.196829	0.042739	-0.000253
C310	C	0.696829	0.542739	0.499747
C311	C	0.166147	0.113322	-0.000264
C312	C	0.666147	0.613322	0.499736
C313	C	0.215566	0.182728	-0.000258
C314	C	0.715566	0.682728	0.499742
C315	C	0.295668	0.181550	-0.000242
C316	C	0.795668	0.681550	0.499758
C317	C	0.326355	0.110964	-0.000231
C318	C	0.826355	0.610964	0.499769
C319	C	0.276935	0.041559	-0.000236
C320	C	0.776935	0.541559	0.499764
H321	H	0.106847	0.114197	-0.000276
H322	H	0.606847	0.614197	0.499724
H323	H	0.192849	0.234980	-0.000267
H324	H	0.692849	0.734980	0.499733
H325	H	0.332251	0.232928	-0.000238
H326	H	0.832251	0.732928	0.499762
H327	H	0.385655	0.110090	-0.000219
H328	H	0.885655	0.610090	0.499781
H329	H	0.299652	-0.010693	-0.000228
H330	H	0.799652	0.489307	0.499772
C331	C	0.820151	0.705457	0.143898
C332	C	1.320151	1.205457	0.643898
C333	C	0.759712	0.687342	0.200555
C334	C	1.259712	1.187342	0.700555
C335	C	0.759169	0.727392	0.276060
C336	C	1.259169	1.227392	0.776060
C337	C	0.819065	0.785557	0.294909
C338	C	1.319065	1.285557	0.794909
C339	C	0.879508	0.803675	0.238250
C340	C	1.379508	1.303675	0.738250
C341	C	0.880051	0.763625	0.162745
C342	C	1.380051	1.263625	0.662745
H343	H	0.715369	0.644283	0.186604
H344	H	1.215369	1.144283	0.686604
H345	H	0.714425	0.713980	0.318003
H346	H	1.214425	1.213980	0.818003
H347	H	0.818663	0.815204	0.350802
H348	H	1.318663	1.315204	0.850802
H349	H	0.923851	0.846734	0.252201
H350	H	1.423851	1.346734	0.752201
H351	H	0.924795	0.777037	0.120803
H352	H	1.424795	1.277037	0.620803
C353	C	0.735990	-0.004153	-0.175396
C354	C	1.235990	0.495847	0.324604
C355	C	0.689657	0.042414	-0.218966
C356	C	1.189657	0.542414	0.281034
C357	C	0.643316	0.088979	-0.175370
C358	C	1.143316	0.588979	0.324630
C359	C	0.643308	0.088976	-0.088202
C360	C	1.143308	0.588976	0.411798
C361	C	0.689643	0.042407	-0.044626
C362	C	1.189643	0.542407	0.455374
C363	C	0.735984	-0.004158	-0.088223
C364	C	1.235984	0.495842	0.411777
H365	H	0.689661	0.042418	-0.283497
H366	H	1.189661	0.542418	0.216503
H367	H	0.609016	0.123453	-0.207628
H368	H	1.109016	0.623453	0.292372
H369	H	0.609004	0.123446	-0.055929
H370	H	1.109004	0.623446	0.444071
H371	H	0.689639	0.042403	0.019905
H372	H	1.189639	0.542403	0.519905
H373	H	0.770284	-0.038631	-0.055965
H374	H	1.270284	0.461369	0.444035
C375	C	0.822380	0.552537	0.143893
C376	C	1.322380	1.052537	0.643893
C377	C	0.821810	0.592598	0.219384
C378	C	1.321810	1.092598	0.719384
C379	C	0.822421	0.552558	0.294876
C380	C	1.322421	1.052558	0.794876
C381	C	0.823601	0.472456	0.294876
C382	C	1.323601	0.972456	0.794876
C383	C	0.824171	0.432390	0.219382
C384	C	1.324171	0.932390	0.719382
C385	C	0.823561	0.472431	0.143890
C386	C	1.323561	0.972431	0.643890
H387	H	0.820937	0.651898	0.219387
H388	H	1.320937	1.151898	0.719387
H389	H	0.821999	0.582217	0.350762
H390	H	1.321999	1.082217	0.850762
H391	H	0.824053	0.442815	0.350760
H392	H	1.324053	0.942815	0.850760
H393	H	0.825045	0.373090	0.219379
H394	H	1.325045	0.873090	0.719379
H395	H	0.823983	0.442771	0.088004
H396	H	1.323983	0.942771	0.588004
C397	C	0.736054	-0.004109	-0.824990
C398	C	1.236054	0.495891	-0.324990
C399	C	0.769909	0.052802	-0.879455
C400	C	1.269909	0.552802	-0.379455
C401	C	0.723573	0.099372	-0.923026
C402	C	1.223573	0.599372	-0.423026
C403	C	0.643381	0.089030	-0.912131
C404	C	1.143381	0.589030	-0.412131
C405	C	0.609521	0.032117	-0.857663
C406	C	1.109521	0.532117	-0.357663
C407	C	0.655858	-0.014453	-0.814092
C408	C	1.155858	0.485547	-0.314092
H409	H	0.829276	0.060460	-0.887523
H410	H	1.329276	0.560460	-0.387523
H411	H	0.748638	0.141503	-0.963347
H412	H	1.248638	0.641503	-0.463347
H413	H	0.609080	0.123504	-0.944385
H414	H	1.109080	0.623504	-0.444385
H415	H	0.550155	0.024459	-0.849596
H416	H	1.050155	0.524459	-0.349596
H417	H	0.630793	-0.056584	-0.773771
H418	H	1.130793	0.443416	-0.273771
C419	C	0.820061	0.705412	-0.144355
C420	C	1.320061	1.205412	0.355645
C421	C	0.879937	0.763582	-0.163247
C422	C	1.379937	1.263582	0.336753
C423	C	0.879336	0.803620	-0.238741
C424	C	1.379336	1.303620	0.261259
C425	C	0.818860	0.785488	-0.295343
C426	C	1.318860	1.285488	0.204657
C427	C	0.758980	0.727316	-0.276452
C428	C	1.258980	1.227316	0.223548
C429	C	0.759580	0.687278	-0.200958
C430	C	1.259580	1.187278	0.299042
H431	H	0.924709	0.777006	-0.121345
H432	H	1.424709	1.277006	0.378655
H433	H	0.923664	0.846683	-0.252725
H434	H	1.423664	1.346683	0.247275
H435	H	0.818416	0.815127	-0.351228
H436	H	1.318416	1.315127	0.148772
H437	H	0.714208	0.713892	-0.318354
H438	H	1.214208	1.213892	0.181646
H439	H	0.715253	0.644215	-0.186974
H440	H	1.215253	1.144215	0.313026
H441	H	0.020977	-0.204231	-0.000277
H442	H	0.520977	0.295769	0.499723
H443	H	0.826814	0.251041	0.124296
H444	H	1.326814	0.751041	0.624296
