data_functionalizedCrystal
_audit_creation_method	'MofGen! by Chris Wilmer'
_symmetry_space_group_name_H-M	'P1'
_symmetry_Int_Tables_number	1
_symmetry_cell_setting	triclinic
loop_
_symmetry_equiv_pos_as_xyz
  x,y,z
_cell_length_a	8.597366
_cell_length_b	8.597304
_cell_length_c	7.540329
_cell_angle_alpha	82.296522
_cell_angle_beta	97.699001
_cell_angle_gamma	86.359176
loop_
_atom_site_label
_atom_site_type_symbol
_atom_site_fract_x
_atom_site_fract_y
_atom_site_fract_z
O1	O	2.085994	0.234288	0.135480
O2	O	1.629344	0.252265	0.062951
O3	O	1.866655	0.014948	0.135482
O4	O	1.848682	0.471606	0.062950
O5	O	1.866641	0.014944	0.430445
O6	O	1.629329	0.252262	0.357914
O7	O	2.085979	0.234285	0.430443
Cu8	Cu	1.857653	0.243273	0.421111
Cu9	Cu	1.857670	0.243277	0.072283
O10	O	1.848668	0.471602	0.357913
C11	C	1.570836	0.250334	0.201788
C12	C	1.396524	0.244564	0.176032
C13	C	1.864718	-0.043555	0.291604
C14	C	1.858947	-0.217870	0.317350
C15	C	2.144487	0.236216	0.291603
C16	C	2.318799	0.241986	0.317347
C17	C	1.850605	0.530105	0.201786
C18	C	1.856376	0.704420	0.176029
N19	N	1.857652	0.243270	0.666460
N20	N	1.857683	0.243268	-0.173062
H21	H	1.858586	-0.228753	0.035331
H22	H	1.856714	-0.284702	0.458053
H23	H	1.329715	0.242346	0.035334
O24	O	1.398460	0.244344	0.485299
C25	C	1.374199	0.107442	0.600403
H26	H	1.340055	0.011172	0.515877
H27	H	1.275680	0.134951	0.681527
C28	C	1.568840	0.169020	0.834550
C29	C	1.526917	0.050775	0.730733
H30	H	1.663040	0.134068	0.914950
H31	H	1.585182	0.261257	0.757006
H32	H	1.486729	0.191933	0.902137
H33	H	1.609019	0.027878	0.663132
H34	H	1.510593	-0.041468	0.808269
