data_functionalizedCrystal
_audit_creation_method	'MofGen! by Chris Wilmer'
_symmetry_space_group_name_H-M	'P1'
_symmetry_Int_Tables_number	1
_symmetry_cell_setting	triclinic
loop_
_symmetry_equiv_pos_as_xyz
  x,y,z
_cell_length_a	11.169417
_cell_length_b	12.645330
_cell_length_c	11.169409
_cell_angle_alpha	89.967722
_cell_angle_beta	89.980176
_cell_angle_gamma	90.018570
loop_
_atom_site_label
_atom_site_type_symbol
_atom_site_fract_x
_atom_site_fract_y
_atom_site_fract_z
Zn1	Zn	1.834901	-0.421929	-0.678543
Zn2	Zn	1.834765	-0.599240	-0.477860
Zn3	Zn	1.634187	-0.421993	-0.477878
Zn4	Zn	1.634169	-0.599153	-0.678505
O5	O	1.734505	-0.510579	-0.578197
O6	O	2.002833	-0.445458	-0.651931
O7	O	1.808108	-0.575791	-0.309913
O8	O	1.660877	-0.273637	-0.504519
O9	O	2.002732	-0.575728	-0.504490
O10	O	1.808341	-0.273590	-0.651948
O11	O	1.660745	-0.445569	-0.309925
O12	O	1.466235	-0.445485	-0.504483
O13	O	1.660846	-0.575581	-0.846460
O14	O	1.466221	-0.575644	-0.651883
O15	O	1.808323	-0.445375	-0.846488
O16	O	1.808090	-0.747575	-0.504453
O17	O	1.660713	-0.747512	-0.651866
C18	C	1.422681	-0.510563	-0.578181
C19	C	1.289281	-0.510581	-0.578203
C20	C	1.734418	-0.786008	-0.578180
C21	C	1.734490	-0.903838	-0.578213
C22	C	1.642158	-1.071407	-0.671236
C23	C	1.641685	-0.948847	-0.670937
C24	C	1.700247	-0.948447	-0.451730
C25	C	1.699683	-1.071046	-0.452295
C26	C	1.861631	-1.070922	-0.610646
C27	C	1.860852	-0.948315	-0.613412
C28	C	2.047548	-0.510596	-0.578213
C29	C	2.180948	-0.510603	-0.578220
C30	C	1.734597	-0.510461	-0.891239
C31	C	1.734637	-0.510411	-1.024639
C32	C	1.734626	-0.234073	-0.578240
C33	C	1.734677	-0.116243	-0.578258
C34	C	1.734483	-0.510619	-0.266372
C35	C	1.734676	-0.510371	-0.132972
H36	H	1.663110	-0.918682	-0.764723
H37	H	1.663386	-1.100807	-0.765330
H38	H	1.548628	-1.102311	-0.650053
H39	H	1.886676	-0.919154	-0.706497
O40	O	1.590586	-0.912070	-0.418546
C41	C	1.504365	-0.944968	-0.502847
H42	H	1.538467	-1.017910	-0.552134
H43	H	1.417256	-0.965012	-0.454683
H44	H	1.487650	-0.878588	-0.569890
H45	H	1.933414	-0.917671	-0.550623
H46	H	1.606879	-1.099742	-0.424857
O47	O	1.776432	-1.106412	-0.366682
C48	C	1.739345	-1.068946	-0.253738
H49	H	1.639724	-1.049549	-0.256671
H50	H	1.756256	-1.132357	-0.183158
H51	H	1.792066	-0.994638	-0.230054
O52	O	1.529325	-0.914095	-0.645472
C53	C	1.448982	-0.951661	-0.733016
H54	H	1.487884	-1.025255	-0.777249
H55	H	1.359882	-0.972266	-0.688977
H56	H	1.434212	-0.887841	-0.803611
O57	O	1.777922	-0.913668	-0.366675
C58	C	1.714846	-0.855719	-0.279231
H59	H	1.616717	-0.880529	-0.279805
H60	H	1.754961	-0.872130	-0.187244
H61	H	1.721856	-0.767643	-0.299934
H62	H	1.892868	-1.101755	-0.701309
H63	H	1.930560	-1.099917	-0.542926
