data_functionalizedCrystal
_audit_creation_method	'MofGen! by Chris Wilmer'
_symmetry_space_group_name_H-M	'P1'
_symmetry_Int_Tables_number	1
_symmetry_cell_setting	triclinic
loop_
_symmetry_equiv_pos_as_xyz
  x,y,z
_cell_length_a	12.594517
_cell_length_b	12.594516
_cell_length_c	12.594509
_cell_angle_alpha	90.026199
_cell_angle_beta	89.978673
_cell_angle_gamma	89.984147
loop_
_atom_site_label
_atom_site_type_symbol
_atom_site_fract_x
_atom_site_fract_y
_atom_site_fract_z
Zn1	Zn	1.627267	0.423716	-0.601875
Zn2	Zn	1.627158	0.601726	-0.423903
Zn3	Zn	1.449271	0.423761	-0.423904
Zn4	Zn	1.449253	0.601652	-0.601833
O5	O	1.538237	0.512714	-0.512879
O6	O	1.776198	0.447341	-0.578284
O7	O	1.603522	0.578169	-0.274957
O8	O	1.472936	0.274809	-0.447530
O9	O	1.776118	0.578124	-0.447528
O10	O	1.603709	0.274776	-0.578285
O11	O	1.472830	0.447419	-0.274958
O12	O	1.300323	0.447347	-0.447489
O13	O	1.472905	0.577998	-0.750784
O14	O	1.300310	0.578042	-0.578213
O15	O	1.603691	0.447269	-0.750815
O16	O	1.603505	0.750662	-0.447488
O17	O	1.472799	0.750608	-0.578212
C18	C	1.538167	0.789255	-0.512868
C19	C	1.538235	0.907560	-0.512899
C20	C	1.261696	0.512692	-0.512847
C21	C	1.143391	0.512709	-0.512859
C22	C	1.538308	0.512620	-0.790500
C23	C	1.538339	0.512581	-0.908805
C24	C	1.074114	0.441526	-0.441894
C25	C	1.003303	0.538615	-0.415718
C26	C	1.003403	0.415668	-0.539054
C27	C	1.074138	0.609849	-0.486632
C28	C	1.074244	0.486836	-0.610013
C29	C	1.003465	0.583991	-0.583874
C30	C	1.815858	0.512736	-0.512911
C31	C	1.934163	0.512745	-0.512924
C32	C	1.538336	0.235093	-0.512912
C33	C	1.538378	0.116787	-0.512927
C34	C	1.467137	0.976822	-0.583950
C35	C	1.441204	1.047688	-0.486827
C36	C	1.564265	1.047494	-0.610039
C37	C	1.512250	0.976867	-0.415725
C38	C	1.635357	0.976667	-0.539002
C39	C	1.609460	1.047500	-0.441812
C40	C	1.467227	0.583644	-0.978042
C41	C	1.564347	0.609650	-1.048833
C42	C	1.441294	0.486510	-1.048813
C43	C	1.635510	0.538638	-0.978038
C44	C	1.512391	0.415453	-0.978012
C45	C	1.609579	0.441422	-1.048772
C46	C	1.538227	0.512730	-0.236338
C47	C	1.538403	0.512470	-0.118033
H48	H	1.105135	0.381389	-0.381807
C49	C	1.594042	0.720544	-1.090873
C50	C	1.524441	0.817160	-1.062970
C51	C	1.554126	0.928055	-1.105008
C52	C	1.653412	0.942335	-1.174949
C53	C	1.723020	0.845716	-1.202855
C54	C	1.693335	0.734820	-1.160817
H55	H	1.450937	0.806593	-1.011193
H56	H	1.502597	0.999579	-1.084349
H57	H	1.675387	1.024426	-1.206067
H58	H	1.796524	0.856283	-1.254633
H59	H	1.744864	0.663297	-1.181476
C60	C	1.330335	1.089838	-0.457006
C61	C	1.233669	1.061982	-0.526469
C62	C	1.122799	1.104129	-0.496656
C63	C	1.108593	1.174131	-0.397379
C64	C	1.205261	1.201991	-0.327910
C65	C	1.316132	1.159844	-0.357723
H66	H	1.244182	1.010159	-0.599964
H67	H	1.051238	1.083505	-0.548082
H68	H	1.026520	1.205331	-0.375310
H69	H	1.194748	1.253814	-0.254414
H70	H	1.387692	1.180468	-0.306297
H71	H	0.972276	0.333597	-0.561146
C72	C	1.593937	1.089408	-0.721000
C73	C	1.524291	1.061492	-0.817521
C74	C	1.553952	1.103403	-0.928483
C75	C	1.653260	1.173228	-0.942923
C76	C	1.722913	1.201147	-0.846399
C77	C	1.693252	1.159237	-0.735437
H78	H	1.450771	1.009800	-0.806834
H79	H	1.502390	1.082735	-0.999937
H80	H	1.675217	1.204253	-1.025064
H81	H	1.796433	1.252840	-0.857086
H82	H	1.744814	1.179905	-0.663983
C83	C	1.330389	0.456774	-1.090810
C84	C	1.310349	0.450326	-1.211249
C85	C	1.199442	0.420602	-1.253241
C86	C	1.108576	0.397325	-1.174793
C87	C	1.128614	0.403773	-1.054347
C88	C	1.239521	0.433497	-1.012355
H89	H	1.377616	0.467558	-1.269327
H90	H	1.184610	0.415829	-1.342404
H91	H	1.026477	0.375321	-1.205878
H92	H	1.061347	0.386541	-0.996269
H93	H	1.254353	0.438270	-0.923192
H94	H	1.490197	0.945972	-0.333563
H95	H	0.972144	0.560522	-0.333584
H96	H	1.669813	0.381279	-1.079632
C97	C	1.115927	0.720768	-0.456600
C98	C	1.236334	0.741232	-0.450969
C99	C	1.278125	0.852147	-0.420932
C100	C	1.199510	0.942598	-0.396527
C101	C	1.079096	0.922136	-0.402157
C102	C	1.037305	0.811221	-0.432194
H103	H	1.294536	0.674272	-0.469036
H104	H	1.367264	0.867293	-0.416765
H105	H	1.230446	1.024704	-0.374292
H106	H	1.020894	0.989096	-0.384090
H107	H	0.948166	0.796075	-0.436361
C108	C	0.961814	0.665420	-0.664988
C109	C	0.990006	0.783765	-0.652792
C110	C	0.948355	0.865196	-0.733903
C111	C	0.878512	0.828280	-0.827209
C112	C	0.850316	0.709929	-0.839409
C113	C	0.891968	0.628499	-0.758298
H114	H	1.041711	0.811097	-0.583718
H115	H	0.969228	0.952807	-0.724871
H116	H	0.847679	0.888560	-0.887252
H117	H	0.798611	0.682597	-0.908483
H118	H	0.871095	0.540887	-0.767330
C119	C	1.690757	1.089181	-0.360562
C120	C	1.756262	1.010484	-0.293773
C121	C	1.837547	1.052171	-0.212517
C122	C	1.853329	1.172554	-0.198051
C123	C	1.787822	1.251257	-0.264843
C124	C	1.706537	1.209571	-0.346098
H125	H	1.744581	0.921363	-0.304480
H126	H	1.886039	0.993909	-0.163074
H127	H	1.913501	1.203412	-0.137901
H128	H	1.799503	1.340379	-0.254136
H129	H	1.658045	1.267833	-0.395541
H130	H	1.717406	0.945451	-0.561104
H131	H	1.406905	0.945788	-0.643949
C132	C	1.386050	0.664948	-0.936074
C133	C	1.423037	0.757012	-0.864601
C134	C	1.341867	0.838318	-0.822631
C135	C	1.223711	0.827560	-0.852134
C136	C	1.186719	0.735493	-0.923611
C137	C	1.267889	0.654187	-0.965581
H138	H	1.510508	0.764979	-0.842757
H139	H	1.369252	0.906473	-0.769719
H140	H	1.163625	0.887748	-0.821066
H141	H	1.099248	0.727525	-0.945454
H142	H	1.240504	0.586032	-1.018493
H143	H	1.105429	0.464899	-0.692122
H144	H	1.717631	0.560736	-0.947080
H145	H	1.490382	0.333385	-0.946881
