data_functionalizedCrystal
_audit_creation_method	'MofGen! by Chris Wilmer'
_symmetry_space_group_name_H-M	'P1'
_symmetry_Int_Tables_number	1
_symmetry_cell_setting	triclinic
loop_
_symmetry_equiv_pos_as_xyz
  x,y,z
_cell_length_a	16.625548
_cell_length_b	12.645330
_cell_length_c	16.625539
_cell_angle_alpha	90.024521
_cell_angle_beta	90.017055
_cell_angle_gamma	90.013714
loop_
_atom_site_label
_atom_site_type_symbol
_atom_site_fract_x
_atom_site_fract_y
_atom_site_fract_z
Zn1	Zn	1.232708	-0.422027	0.455920
Zn2	Zn	1.482708	-0.172027	0.705920
Zn3	Zn	1.732708	0.077973	0.955920
Zn4	Zn	1.982708	0.327973	1.205920
Zn5	Zn	1.232642	-0.599307	0.321092
Zn6	Zn	1.482642	-0.349307	0.571092
Zn7	Zn	1.732642	-0.099307	0.821092
Zn8	Zn	1.982642	0.150693	1.071092
Zn9	Zn	1.097878	-0.422061	0.321101
Zn10	Zn	1.347878	-0.172061	0.571101
Zn11	Zn	1.597878	0.077939	0.821101
Zn12	Zn	1.847878	0.327939	1.071101
Zn13	Zn	1.097863	-0.599252	0.455882
Zn14	Zn	1.347863	-0.349252	0.705882
Zn15	Zn	1.597863	-0.099252	0.955882
Zn16	Zn	1.847863	0.150748	1.205882
O17	O	1.165273	-0.510662	0.388499
O18	O	1.415273	-0.260662	0.638499
O19	O	1.665273	-0.010662	0.888499
O20	O	1.915273	0.239338	1.138499
O21	O	1.345531	-0.445552	0.438047
O22	O	1.595531	-0.195552	0.688047
O23	O	1.845531	0.054448	0.938047
O24	O	2.095531	0.304448	1.188047
O25	O	1.214744	-0.575833	0.208261
O26	O	1.464744	-0.325833	0.458261
O27	O	1.714744	-0.075833	0.708261
O28	O	1.964744	0.174167	0.958261
O29	O	1.115797	-0.273709	0.339004
O30	O	1.365797	-0.023709	0.589004
O31	O	1.615797	0.226291	0.839004
O32	O	1.865797	0.476291	1.089004
O33	O	1.345483	-0.575799	0.338990
O34	O	1.595483	-0.325799	0.588990
O35	O	1.845483	-0.075799	0.838990
O36	O	2.095483	0.174201	1.088990
O37	O	1.214856	-0.273684	0.438056
O38	O	1.464856	-0.023684	0.688056
O39	O	1.714856	0.226316	0.938056
O40	O	1.964856	0.476316	1.188056
O41	O	1.115733	-0.445611	0.208267
O42	O	1.365733	-0.195611	0.458267
O43	O	1.615733	0.054389	0.708267
O44	O	1.865733	0.304389	0.958267
O45	O	0.985043	-0.445557	0.338967
O46	O	1.235043	-0.195557	0.588967
O47	O	1.485043	0.054443	0.838967
O48	O	1.735043	0.304443	1.088967
O49	O	1.115772	-0.575705	0.568719
O50	O	1.365772	-0.325705	0.818719
O51	O	1.615772	-0.075705	1.068719
O52	O	1.865772	0.174295	1.318719
O53	O	0.985032	-0.575739	0.437990
O54	O	1.235032	-0.325739	0.687990
O55	O	1.485032	-0.075739	0.937990
O56	O	1.735032	0.174261	1.187990
O57	O	1.214841	-0.445498	0.568747
O58	O	1.464841	-0.195498	0.818747
O59	O	1.714841	0.054502	1.068747
O60	O	1.964841	0.304502	1.318747
O61	O	1.214730	-0.747647	0.338952
O62	O	1.464730	-0.497647	0.588952
O63	O	1.714730	-0.247647	0.838952
O64	O	1.964730	0.002353	1.088952
O65	O	1.115708	-0.747606	0.437982
O66	O	1.365708	-0.497606	0.687982
O67	O	1.615708	-0.247606	0.937982
O68	O	1.865708	0.002394	1.187982
C69	C	0.955782	-0.510647	0.388476
C70	C	1.205782	-0.260647	0.638476
C71	C	1.455782	-0.010647	0.888476
C72	C	1.705782	0.239353	1.138476
C73	C	0.866161	-0.510666	0.388486
C74	C	1.116161	-0.260666	0.638486
C75	C	1.366161	-0.010666	0.888486
C76	C	1.616161	0.239334	1.138486
C77	C	0.537985	-0.510673	0.388520
C78	C	0.787985	-0.260673	0.638520
C79	C	1.037985	-0.010673	0.888520
C80	C	1.287985	0.239327	1.138520
C81	C	0.629293	-0.510668	0.388508
C82	C	0.879293	-0.260668	0.638508
C83	C	1.129293	-0.010668	0.888508
C84	C	1.379293	0.239332	1.138508
C85	C	0.702070	-0.510670	0.388502
C86	C	0.952070	-0.260670	0.638502
C87	C	1.202070	-0.010670	0.888502
C88	C	1.452070	0.239330	1.138502
C89	C	0.793384	-0.510664	0.388491
C90	C	1.043384	-0.260664	0.638491
C91	C	1.293384	-0.010664	0.888491
C92	C	1.543384	0.239336	1.138491
C93	C	1.165232	-0.786091	0.388480
C94	C	1.415232	-0.536091	0.638480
C95	C	1.665232	-0.286091	0.888480
C96	C	1.915232	-0.036091	1.138480
C97	C	1.165289	-0.903921	0.388498
C98	C	1.415289	-0.653921	0.638498
C99	C	1.665289	-0.403921	0.888498
C100	C	1.915289	-0.153921	1.138498
C101	C	1.227483	-1.071467	0.326072
C102	C	1.477483	-0.821467	0.576072
C103	C	1.727483	-0.571467	0.826072
C104	C	1.977483	-0.321467	1.076072
C105	C	1.227686	-0.948906	0.326225
C106	C	1.477686	-0.698906	0.576225
C107	C	1.727686	-0.448906	0.826225
C108	C	1.977686	-0.198906	1.076225
C109	C	1.188327	-0.948308	0.473491
C110	C	1.438327	-0.698308	0.723491
C111	C	1.688327	-0.448308	0.973491
C112	C	1.938327	-0.198308	1.223491
C113	C	1.188820	-1.070906	0.473160
C114	C	1.438820	-0.820906	0.723160
C115	C	1.688820	-0.570906	0.973160
C116	C	1.938820	-0.320906	1.223160
C117	C	1.080032	-1.071250	0.366769
C118	C	1.330032	-0.821250	0.616769
C119	C	1.580032	-0.571250	0.866769
C120	C	1.830032	-0.321250	1.116769
C121	C	1.080440	-0.948645	0.364863
C122	C	1.330440	-0.698645	0.614863
C123	C	1.580440	-0.448645	0.864863
C124	C	1.830440	-0.198645	1.114863
C125	C	1.375581	-0.510678	0.388522
C126	C	1.625581	-0.260678	0.638522
C127	C	1.875581	-0.010678	0.888522
C128	C	2.125581	0.239322	1.138522
C129	C	1.465203	-0.510685	0.388532
C130	C	1.715203	-0.260685	0.638532
C131	C	1.965203	-0.010685	0.888532
C132	C	2.215203	0.239315	1.138532
C133	C	1.165312	-0.510592	0.598808
C134	C	1.415312	-0.260592	0.848808
C135	C	1.665312	-0.010592	1.098808
C136	C	1.915312	0.239408	1.348808
C137	C	1.165329	-0.510562	0.688429
C138	C	1.415329	-0.260562	0.938429
C139	C	1.665329	-0.010562	1.188429
C140	C	1.915329	0.239438	1.438429
C141	C	1.165335	-0.234156	0.388535
C142	C	1.415335	0.015844	0.638535
C143	C	1.665335	0.265844	0.888535
C144	C	1.915335	0.515844	1.138535
C145	C	1.165362	-0.116326	0.388551
C146	C	1.415362	0.133674	0.638551
C147	C	1.665362	0.383674	0.888551
C148	C	1.915362	0.633674	1.138551
C149	C	1.165280	-0.510655	0.179008
C150	C	1.415280	-0.260655	0.429008
C151	C	1.665280	-0.010655	0.679008
C152	C	1.915280	0.239345	0.929008
C153	C	1.165419	-0.510386	0.089387
C154	C	1.415419	-0.260386	0.339387
C155	C	1.665419	-0.010386	0.589387
C156	C	1.915419	0.239614	0.839387
C157	C	1.165342	-0.510539	0.761211
C158	C	1.415342	-0.260539	1.011211
C159	C	1.665342	-0.010539	1.261211
C160	C	1.915342	0.239461	1.511211
C161	C	1.165361	-0.510499	0.852520
C162	C	1.415361	-0.260499	1.102520
C163	C	1.665361	-0.010499	1.352520
C164	C	1.915361	0.239501	1.602520
C165	C	1.165380	-0.510462	0.925296
C166	C	1.415380	-0.260462	1.175296
C167	C	1.665380	-0.010462	1.425296
C168	C	1.915380	0.239538	1.675296
C169	C	1.165400	-0.510423	1.016611
C170	C	1.415400	-0.260423	1.266611
C171	C	1.665400	-0.010423	1.516611
C172	C	1.915400	0.239577	1.766611
H173	H	1.213272	-0.918900	0.263205
H174	H	1.463272	-0.668900	0.513205
H175	H	1.713272	-0.418900	0.763205
H176	H	1.963272	-0.168900	1.013205
H177	H	1.251192	-1.099418	0.491610
H178	H	1.501192	-0.849418	0.741610
H179	H	1.751192	-0.599418	0.991610
H180	H	2.001192	-0.349418	1.241610
H181	H	1.213250	-1.101016	0.262867
H182	H	1.463250	-0.851016	0.512867
H183	H	1.713250	-0.601016	0.762867
H184	H	1.963250	-0.351016	1.012867
H185	H	1.290887	-0.919498	0.340632
H186	H	1.540887	-0.669498	0.590632
H187	H	1.790887	-0.419498	0.840632
H188	H	2.040887	-0.169498	1.090632
H189	H	1.290345	-1.102196	0.340318
H190	H	1.540345	-0.852196	0.590318
H191	H	1.790345	-0.602196	0.840318
H192	H	2.040345	-0.352196	1.090318
H193	H	1.249994	-0.917519	0.492249
H194	H	1.499994	-0.667519	0.742249
H195	H	1.749994	-0.417519	0.992249
H196	H	1.999994	-0.167519	1.242249
H197	H	1.144457	-0.919166	0.521290
H198	H	1.394457	-0.669166	0.771290
H199	H	1.644457	-0.419166	1.021290
H200	H	1.894457	-0.169166	1.271290
C201	C	1.130357	-1.110993	0.538201
C202	C	1.380357	-0.860993	0.788201
C203	C	1.630357	-0.610993	1.038201
C204	C	1.880357	-0.360993	1.288201
N205	N	1.086330	-1.141183	0.587194
N206	N	1.336330	-0.891183	0.837194
N207	N	1.586330	-0.641183	1.087194
N208	N	1.836330	-0.391183	1.337194
H209	H	1.063069	-0.919645	0.302316
H210	H	1.313069	-0.669645	0.552316
H211	H	1.563069	-0.419645	0.802316
H212	H	1.813069	-0.169645	1.052316
H213	H	1.059080	-1.102256	0.305872
H214	H	1.309080	-0.852256	0.555872
H215	H	1.559080	-0.602256	0.805872
H216	H	1.809080	-0.352256	1.055872
H217	H	1.031658	-0.918034	0.407033
H218	H	1.281658	-0.668034	0.657033
H219	H	1.531658	-0.418034	0.907033
H220	H	1.781658	-0.168034	1.157033
H221	H	1.033746	-1.100261	0.412275
H222	H	1.283746	-0.850261	0.662275
H223	H	1.533746	-0.600261	0.912275
H224	H	1.783746	-0.350261	1.162275
