data_functionalizedCrystal
_audit_creation_method	'MofGen! by Chris Wilmer'
_symmetry_space_group_name_H-M	'P1'
_symmetry_Int_Tables_number	1
_symmetry_cell_setting	triclinic
loop_
_symmetry_equiv_pos_as_xyz
  x,y,z
_cell_length_a	16.959455
_cell_length_b	18.050589
_cell_length_c	16.959447
_cell_angle_alpha	89.973357
_cell_angle_beta	89.979626
_cell_angle_gamma	90.025241
loop_
_atom_site_label
_atom_site_type_symbol
_atom_site_fract_x
_atom_site_fract_y
_atom_site_fract_z
Zn1	Zn	1.208339	-0.295704	-0.447057
Zn2	Zn	1.208243	-0.419905	-0.314886
Zn3	Zn	1.076168	-0.295727	-0.314880
Zn4	Zn	1.076113	-0.419850	-0.447011
O5	O	1.142216	-0.357797	-0.380959
O6	O	1.318937	-0.312193	-0.429546
O7	O	1.190705	-0.403466	-0.204275
O8	O	1.093763	-0.191800	-0.332430
O9	O	1.318866	-0.403443	-0.332441
O10	O	1.190869	-0.191782	-0.429539
O11	O	1.093670	-0.312233	-0.204270
O12	O	0.965549	-0.312179	-0.332386
O13	O	1.093671	-0.403349	-0.557628
O14	O	0.965510	-0.403372	-0.429462
O15	O	1.190817	-0.312139	-0.557661
O16	O	1.190653	-0.523823	-0.332397
O17	O	1.093578	-0.523782	-0.429468
C18	C	0.936849	-0.357772	-0.380919
C19	C	0.848993	-0.357780	-0.380920
C20	C	0.477470	-0.405264	-0.330370
C21	C	0.477565	-0.310391	-0.431643
C22	C	0.560111	-0.310379	-0.431624
C23	C	0.601340	-0.357811	-0.380978
C24	C	0.560023	-0.405254	-0.330351
C25	C	0.601433	-0.262941	-0.482255
C26	C	0.683984	-0.262928	-0.482239
C27	C	0.725215	-0.310356	-0.431588
C28	C	0.683893	-0.357801	-0.380959
C29	C	0.725123	-0.405233	-0.330313
C30	C	0.683803	-0.452675	-0.279679
C31	C	0.601254	-0.452683	-0.279701
C32	C	0.807764	-0.310348	-0.431566
C33	C	0.807676	-0.405224	-0.330294
C34	C	1.142120	-0.550749	-0.380945
C35	C	1.142152	-0.633295	-0.380966
C36	C	1.089414	-0.832750	-0.433735
C37	C	1.070151	-0.882193	-0.361606
C38	C	1.142229	-0.784425	-0.380977
C39	C	1.161531	-0.882064	-0.453114
C40	C	1.142303	-0.930410	-0.380993
C41	C	1.122929	-0.832781	-0.308809
C42	C	1.214342	-0.832647	-0.400366
C43	C	1.195106	-0.882068	-0.328187
C44	C	1.142185	-0.700327	-0.380968
C45	C	1.142347	-1.014506	-0.380993
C46	C	1.348384	-0.357821	-0.380999
C47	C	1.436240	-0.357832	-0.381016
C48	C	1.142249	-0.357735	-0.587127
C49	C	1.142263	-0.357709	-0.674983
C50	C	1.142333	-0.164091	-0.380989
C51	C	1.142383	-0.081545	-0.381002
C52	C	1.091778	-0.405119	-1.046444
C53	C	1.192936	-0.310142	-1.046474
C54	C	1.192915	-0.310158	-0.963928
C55	C	1.142326	-0.357656	-0.922637
C56	C	1.091757	-0.405138	-0.963891
C57	C	1.243489	-0.262682	-0.922668
C58	C	1.243470	-0.262696	-0.840117
C59	C	1.192876	-0.310191	-0.798824
C60	C	1.142305	-0.357674	-0.840083
C61	C	1.091715	-0.405173	-0.798791
C62	C	1.041139	-0.452653	-0.840049
C63	C	1.041162	-0.452633	-0.922598
C64	C	1.192852	-0.310211	-0.716275
C65	C	1.091694	-0.405191	-0.716238
C66	C	1.142228	-0.357804	-0.175592
C67	C	1.142368	-0.357621	-0.087736
H68	H	0.567604	-0.491307	-0.238477
C69	C	1.299093	-0.210466	-0.794737
H70	H	1.291838	-0.217280	-0.739660
H71	H	1.287558	-0.160565	-0.808280
H72	H	1.352202	-0.221342	-0.808265
H73	H	1.050598	-0.443775	-1.080040
C74	C	1.255486	-0.911146	-0.267862
H75	H	1.294128	-0.940070	-0.294244
H76	H	1.229275	-0.940823	-0.229715
H77	H	1.280315	-0.870480	-0.242417
C78	C	0.987816	-0.911598	-0.339451
H79	H	0.991449	-0.940570	-0.292813
H80	H	0.967996	-0.941292	-0.381218
H81	H	0.953208	-0.871066	-0.330643
H82	H	0.567858	-0.224330	-0.523493
H83	H	0.717620	-0.224297	-0.523467
C84	C	1.296658	-0.803220	-0.422541
H85	H	1.316897	-0.774275	-0.380374
H86	H	1.292843	-0.773494	-0.468616
H87	H	1.331023	-0.843740	-0.432307
H88	H	0.841239	-0.443846	-0.289048
H89	H	0.717382	-0.491298	-0.238447
H90	H	1.044685	-0.811095	-0.478288
H91	H	0.999952	-0.491329	-0.806419
C92	C	0.853212	-0.258171	-0.487257
H93	H	0.816835	-0.229923	-0.517422
H94	H	0.885428	-0.286617	-0.521635
H95	H	0.885405	-0.225767	-0.457069
H96	H	1.177827	-0.903712	-0.514113
C97	C	1.036055	-0.457451	-0.670823
H98	H	1.005947	-0.485729	-0.707219
H99	H	1.001623	-0.429057	-0.638614
H100	H	1.066280	-0.489822	-0.638626
H101	H	1.234129	-0.271475	-1.080099
H102	H	0.999989	-0.491291	-0.956197
H103	H	0.443823	-0.443888	-0.289143
C104	C	1.299122	-0.210429	-0.968088
H105	H	1.291880	-0.217210	-1.023160
H106	H	1.352225	-0.221298	-0.954573
H107	H	1.287567	-0.160533	-0.954563
H108	H	0.443991	-0.271779	-0.472881
C109	C	1.100810	-0.803663	-0.226384
H110	H	1.100890	-0.751033	-0.226889
H111	H	1.138115	-0.820942	-0.188881
H112	H	1.049765	-0.821041	-0.212540
C113	C	1.248479	-0.257993	-0.670891
H114	H	1.241224	-0.264809	-0.615814
H115	H	1.236952	-0.208089	-0.684432
H116	H	1.301586	-0.268876	-0.684422
