data_functionalizedCrystal
_audit_creation_method	'MofGen! by Chris Wilmer'
_symmetry_space_group_name_H-M	'P1'
_symmetry_Int_Tables_number	1
_symmetry_cell_setting	triclinic
loop_
_symmetry_equiv_pos_as_xyz
  x,y,z
_cell_length_a	14.971506
_cell_length_b	17.666332
_cell_length_c	14.971506
_cell_angle_alpha	90.005633
_cell_angle_beta	83.622388
_cell_angle_gamma	90.009655
loop_
_atom_site_label
_atom_site_type_symbol
_atom_site_fract_x
_atom_site_fract_y
_atom_site_fract_z
O1	O	1.186948	0.062952	0.116649
O2	O	0.926551	0.062952	0.130589
O3	O	1.063720	0.062949	-0.006579
O4	O	1.049780	0.062956	0.253817
O5	O	1.063696	-0.062948	-0.006587
O6	O	0.926527	-0.062944	0.130582
O7	O	1.186924	-0.062945	0.116642
Cu8	Cu	1.056723	-0.074440	0.123611
Cu9	Cu	1.056752	0.074448	0.123620
O10	O	1.049756	-0.062941	0.253810
C11	C	0.893215	0.000004	0.129959
C12	C	0.793919	0.000004	0.128081
N13	N	1.056710	-0.179159	0.123604
C14	C	0.355641	0.000014	0.201498
C15	C	0.448942	0.000017	0.203256
C16	C	0.506156	0.000012	0.122664
C17	C	0.470065	0.000011	0.040310
C18	C	0.376767	0.000013	0.038553
C19	C	0.664529	0.000004	0.043976
C20	C	0.757834	0.000001	0.045733
C21	C	0.736704	0.000009	0.208679
C22	C	0.643405	0.000011	0.206922
C23	C	0.607321	0.000008	0.124568
C24	C	1.117468	-0.218771	0.062896
C25	C	1.117473	-0.298018	0.062892
C26	C	1.056729	-0.337651	0.123611
C27	C	0.995960	-0.298031	0.184324
C28	C	0.995950	-0.218784	0.184321
N29	N	1.045434	-0.462068	0.202743
N30	N	1.045448	-0.537348	0.202744
C31	C	1.056752	-0.576415	0.123624
N32	N	1.068060	-0.537358	0.044501
N33	N	1.068050	-0.462071	0.044501
C34	C	1.056732	-0.423580	0.123621
C35	C	1.117519	-0.701956	0.062906
C36	C	1.117518	-0.781205	0.062900
C37	C	0.996009	-0.781216	0.184340
C38	C	0.996006	-0.701968	0.184338
C39	C	1.056766	-0.662343	0.123622
C40	C	1.220260	0.000006	0.117272
C41	C	1.319557	0.000010	0.119150
C42	C	1.063081	0.000001	-0.039907
C43	C	1.061203	0.000004	-0.139204
N44	N	1.056773	0.179167	0.123619
C45	C	1.050394	0.000008	0.287138
C46	C	1.052272	0.000011	0.386434
C47	C	0.978855	0.000003	0.824712
C48	C	0.977097	-0.000000	0.731411
C49	C	1.057689	0.000003	0.674197
C50	C	1.140044	0.000001	0.710288
C51	C	1.141800	-0.000001	0.803586
C52	C	1.136377	0.000008	0.515824
C53	C	1.134620	0.000012	0.422519
C54	C	0.971674	0.000009	0.443649
C55	C	0.973431	0.000006	0.536948
C56	C	1.055785	0.000006	0.573032
H57	H	0.309063	0.000012	0.267126
H58	H	0.347389	0.000011	-0.028503
Br59	Br	1.199975	-0.648177	-0.019497
Br60	Br	0.835482	-0.000002	-0.063643
H61	H	1.205662	-0.000001	0.663696
H62	H	1.166992	-0.813457	0.013460
Br63	Br	0.859907	0.000006	0.394680
H64	H	1.203439	0.000005	0.545200
Br65	Br	0.865334	-0.000002	0.682443
H66	H	0.478317	0.000027	0.270312
H67	H	0.913228	0.000004	0.871290
Br68	Br	1.199922	-0.164993	-0.019505
Br69	Br	0.565757	0.000012	0.316298
H70	H	0.766087	0.000010	0.275735
H71	H	1.208856	-0.000002	0.832964
H72	H	0.946547	-0.813485	0.233776
Br73	Br	0.615558	-0.000003	-0.067792
Br74	Br	0.913548	-0.648204	0.266734
Br75	Br	0.547712	0.000007	-0.069066
H76	H	1.166951	-0.330276	0.013454
H77	H	1.200245	0.000018	0.375937
H78	H	0.946499	-0.330304	0.233761
H79	H	0.907806	0.000010	0.583530
H80	H	0.946473	-0.186532	0.233758
