data_functionalizedCrystal
_audit_creation_method	'MofGen! by Chris Wilmer'
_symmetry_space_group_name_H-M	'P1'
_symmetry_Int_Tables_number	1
_symmetry_cell_setting	triclinic
loop_
_symmetry_equiv_pos_as_xyz
  x,y,z
_cell_length_a	11.792241
_cell_length_b	16.974800
_cell_length_c	15.455313
_cell_angle_alpha	83.673507
_cell_angle_beta	92.692471
_cell_angle_gamma	83.790885
loop_
_atom_site_label
_atom_site_type_symbol
_atom_site_fract_x
_atom_site_fract_y
_atom_site_fract_z
O1	O	0.144465	1.049844	-0.001592
O2	O	0.164025	0.818941	0.014624
O3	O	-0.011012	0.939996	0.006116
O4	O	0.319501	0.928789	0.006916
O5	O	-0.020991	0.946911	-0.138632
O6	O	0.154046	0.825856	-0.130124
O7	O	0.134485	1.056759	-0.146341
Cu8	Cu	0.143354	0.941939	-0.151449
Cu9	Cu	0.155156	0.933761	0.019733
O10	O	0.309522	0.935704	-0.137833
C11	C	0.158480	0.792837	-0.055674
C12	C	0.156811	0.704756	-0.049488
C13	C	0.150584	0.667149	-0.125486
C14	C	0.148998	0.584388	-0.119676
C15	C	0.153646	0.539236	-0.037867
C16	C	0.159870	0.576848	0.038136
C17	C	0.161448	0.659608	0.032326
C18	C	0.149502	0.291316	-0.012028
C19	C	0.147927	0.208551	-0.006223
C20	C	0.137052	0.216097	-0.164036
C21	C	0.138638	0.298857	-0.169839
C22	C	0.144856	0.336463	-0.093836
N23	N	0.152029	0.454641	-0.031927
N24	N	0.146465	0.421058	-0.099777
C25	C	-0.058281	0.942750	-0.066208
C26	C	-0.184263	0.940643	-0.066059
C27	C	-0.414915	0.936768	-0.065773
C28	C	-0.286563	0.938921	-0.065932
C29	C	0.356792	0.932950	-0.065506
C30	C	0.482774	0.935057	-0.065649
C31	C	0.140031	1.082863	-0.076041
C32	C	0.141700	1.170944	-0.082221
N33	N	0.163448	0.928010	0.140132
N34	N	0.135053	0.947696	-0.271849
C35	C	0.089229	0.979538	0.181905
C36	C	0.095498	0.975187	0.273019
C37	C	0.175982	0.919303	0.322358
C38	C	0.250209	0.867773	0.280579
C39	C	0.243945	0.872129	0.189467
C40	C	0.203016	0.900522	0.595260
C41	C	0.209273	0.896169	0.686378
C42	C	0.054562	1.003583	0.678811
C43	C	0.048300	1.007931	0.587698
C44	C	0.122532	0.956404	0.545926
N45	N	0.182389	0.914853	0.415491
N46	N	0.116129	0.960858	0.452795
H47	H	0.146808	0.703906	-0.192103
H48	H	0.166521	0.690226	0.094212
C49	C	0.153036	0.158880	0.083768
H50	H	0.151219	0.104205	0.076340
H51	H	0.089346	0.176658	0.114829
H52	H	0.221717	0.165125	0.115647
H53	H	0.035063	1.017145	0.307029
H54	H	-0.005873	1.045535	0.712830
H55	H	0.023686	1.025040	0.141738
C56	C	0.156354	0.332672	0.071573
H57	H	0.158910	0.293924	0.121125
H58	H	0.091015	0.370568	0.072184
H59	H	0.223386	0.359029	0.072994
H60	H	0.163647	0.540079	0.104747
H61	H	-0.017236	1.053435	0.547527
H62	H	0.131988	0.185469	-0.225914
C63	C	0.133552	0.348518	-0.259829
H64	H	0.129617	0.314267	-0.304260
H65	H	0.200133	0.375180	-0.264951
H66	H	0.067761	0.386736	-0.265799
C67	C	0.297816	0.834700	0.740650
H68	H	0.341137	0.804641	0.702724
H69	H	0.259523	0.799862	0.778513
H70	H	0.347427	0.861682	0.774188
C71	C	0.284690	0.843860	0.549321
H72	H	0.333518	0.809956	0.591758
H73	H	0.329412	0.874247	0.511786
H74	H	0.241531	0.812411	0.516086
H75	H	0.304384	0.830170	0.155457
C76	C	0.142158	0.543023	-0.203274
H77	H	0.139631	0.581767	-0.252828
H78	H	0.075135	0.516665	-0.204703
H79	H	0.207506	0.505126	-0.203874
C80	C	0.338736	0.806301	0.334851
H81	H	0.331830	0.811080	0.395097
H82	H	0.413451	0.815847	0.319313
H83	H	0.325524	0.754042	0.323631
