data_functionalizedCrystal
_audit_creation_method	'MofGen! by Chris Wilmer'
_symmetry_space_group_name_H-M	'P1'
_symmetry_Int_Tables_number	1
_symmetry_cell_setting	triclinic
loop_
_symmetry_equiv_pos_as_xyz
  x,y,z
_cell_length_a	25.639243
_cell_length_b	25.639240
_cell_length_c	17.640968
_cell_angle_alpha	78.760674
_cell_angle_beta	78.773277
_cell_angle_gamma	90.035481
loop_
_atom_site_label
_atom_site_type_symbol
_atom_site_fract_x
_atom_site_fract_y
_atom_site_fract_z
Zn1	Zn	0.859076	-0.148332	-0.446972
Zn2	Zn	1.359076	0.351668	0.053028
Zn3	Zn	0.841311	-0.253452	-0.314759
Zn4	Zn	1.341311	0.246548	0.185241
Zn5	Zn	0.753959	-0.166033	-0.314789
Zn6	Zn	1.253959	0.333967	0.185211
Zn7	Zn	0.771597	-0.235752	-0.446901
Zn8	Zn	1.271597	0.264248	0.053099
O9	O	0.806486	-0.200892	-0.380855
O10	O	1.306486	0.299108	0.119145
O11	O	0.929887	-0.162276	-0.429451
O12	O	1.429887	0.337724	0.070549
O13	O	0.814908	-0.256672	-0.204142
O14	O	1.314908	0.243328	0.295858
O15	O	0.767956	-0.090514	-0.332366
O16	O	1.267956	0.409486	0.167634
O17	O	0.916835	-0.239508	-0.332314
O18	O	1.416835	0.260492	0.167686
O19	O	0.845185	-0.077509	-0.429481
O20	O	1.345185	0.422491	0.070519
O21	O	0.750730	-0.192445	-0.204164
O22	O	1.250730	0.307555	0.295836
O23	O	0.683131	-0.175281	-0.332297
O24	O	1.183131	0.324719	0.167703
O25	O	0.798018	-0.209339	-0.557531
O26	O	1.298018	0.290661	-0.057531
O27	O	0.696090	-0.226504	-0.429359
O28	O	1.196090	0.273496	0.070641
O29	O	0.862288	-0.145112	-0.557584
O30	O	1.362288	0.354888	-0.057584
O31	O	0.832010	-0.324275	-0.332245
O32	O	1.332010	0.175725	0.167755
O33	O	0.780792	-0.311271	-0.429329
O34	O	1.280792	0.188729	0.070671
C35	C	0.670639	-0.200893	-0.380824
C36	C	1.170639	0.299107	0.119176
C37	C	0.612526	-0.200903	-0.380829
C38	C	1.112526	0.299097	0.119171
C39	C	0.258968	-0.160719	-0.431519
C40	C	0.758968	0.339281	0.068481
C41	C	0.204364	-0.160718	-0.431524
C42	C	0.704364	0.339282	0.068476
O43	O	0.181909	-0.126547	-0.474583
O44	O	0.681909	0.373453	0.025417
N45	N	0.170250	-0.200888	-0.380877
N46	N	0.670250	0.299112	0.119123
C47	C	0.190740	-0.241058	-0.330217
C48	C	0.690740	0.258942	0.169783
O49	O	0.156709	-0.275226	-0.287138
O50	O	0.656709	0.224774	0.212862
C51	C	0.245343	-0.241057	-0.330208
C52	C	0.745343	0.258943	0.169792
C53	C	0.279456	-0.200887	-0.380864
C54	C	0.779456	0.299113	0.119136
C55	C	0.293081	-0.120552	-0.482169
C56	C	0.793081	0.379448	0.017831
C57	C	0.347681	-0.120554	-0.482165
C58	C	0.847681	0.379446	0.017835
C59	C	0.368168	-0.160723	-0.431511
C60	C	0.868168	0.339277	0.068489
C61	C	0.334056	-0.200889	-0.380860
C62	C	0.834056	0.299111	0.119140
C63	C	0.265832	-0.281225	-0.279545
C64	C	0.765832	0.218775	0.220455
C65	C	0.320438	-0.281220	-0.279540
C66	C	0.820438	0.218780	0.220460
C67	C	0.354551	-0.241050	-0.330196
C68	C	0.854551	0.258950	0.169804
C69	C	0.409143	-0.241059	-0.330201
C70	C	0.909143	0.258941	0.169799
N71	N	0.443258	-0.200890	-0.380848
N72	N	0.943258	0.299110	0.119152
C73	C	0.422770	-0.160721	-0.431502
C74	C	0.922770	0.339279	0.068498
C75	C	0.076073	-0.241058	-0.330237
C76	C	0.576073	0.258942	0.169763
C77	C	0.021472	-0.241062	-0.330249
C78	C	0.521472	0.258938	0.169751
C79	C	0.035099	-0.160721	-0.431555
C80	C	0.535099	0.339279	0.068445
C81	C	0.089702	-0.160719	-0.431546
C82	C	0.589702	0.339281	0.068454
C83	C	0.110187	-0.200888	-0.380884
C84	C	0.610187	0.299112	0.119116
C85	C	0.537434	-0.160728	-0.431490
C86	C	1.037434	0.339272	0.068510
C87	C	0.592038	-0.160735	-0.431484
C88	C	1.092038	0.339265	0.068516
C89	C	0.578406	-0.241074	-0.330176
C90	C	1.078406	0.258926	0.169824
C91	C	0.523806	-0.241070	-0.330184
C92	C	1.023806	0.258930	0.169816
C93	C	0.503322	-0.200892	-0.380844
C94	C	1.003322	0.299108	0.119156
O95	O	0.431636	-0.275212	-0.287162
O96	O	0.931636	0.224788	0.212838
O97	O	0.456806	-0.126556	-0.474567
O98	O	0.956806	0.373444	0.025433
C99	C	0.806404	-0.336743	-0.380793
C100	C	1.306404	0.163257	0.119207
C101	C	0.806420	-0.394857	-0.380793
C102	C	1.306420	0.105143	0.119207
C103	C	0.846728	-0.748389	-0.431514
C104	C	1.346728	-0.248389	0.068486
C105	C	0.846746	-0.802992	-0.431530
C106	C	1.346746	-0.302992	0.068470
O107	O	0.880920	-0.825429	-0.474591
O108	O	1.380920	-0.325429	0.025409
N109	N	0.806569	-0.837121	-0.380932
N110	N	1.306569	-0.337121	0.119068
C111	C	0.766369	-0.816645	-0.330320
C112	C	1.266369	-0.316645	0.169680
O113	O	0.732197	-0.850689	-0.287284
O114	O	1.232197	-0.350689	0.212716
C115	C	0.766350	-0.762043	-0.330308
C116	C	1.266350	-0.262043	0.169692
C117	C	0.806532	-0.727917	-0.380904
C118	C	1.306532	-0.227917	0.119096
C119	C	0.886907	-0.714264	-0.482106
C120	C	1.386907	-0.214264	0.017894
C121	C	0.886890	-0.659665	-0.482089
C122	C	1.386890	-0.159665	0.017911
C123	C	0.846694	-0.639193	-0.431479
C124	C	1.346694	-0.139193	0.068521
C125	C	0.806515	-0.673319	-0.380887
C126	C	1.306515	-0.173319	0.119113
C127	C	0.726148	-0.741568	-0.279701
C128	C	1.226148	-0.241568	0.220299
C129	C	0.726132	-0.686962	-0.279694
C130	C	1.226132	-0.186962	0.220306
C131	C	0.766314	-0.652835	-0.330290
C132	C	1.266314	-0.152835	0.169710
C133	C	0.766302	-0.598248	-0.330260
C134	C	1.266302	-0.098248	0.169740
N135	N	0.806478	-0.564119	-0.380858
N136	N	1.306478	-0.064119	0.119142
C137	C	0.846674	-0.584591	-0.431468
C138	C	1.346674	-0.084591	0.068532
C139	C	0.766412	-0.931312	-0.330349
C140	C	1.266412	-0.431312	0.169651
C141	C	0.766433	-0.985913	-0.330356
C142	C	1.266433	-0.485913	0.169644
C143	C	0.846809	-0.972256	-0.431567
C144	C	1.346809	-0.472256	0.068433
C145	C	0.846790	-0.917654	-0.431556
C146	C	1.346790	-0.417654	0.068444
C147	C	0.806589	-0.897182	-0.380947
C148	C	1.306589	-0.397182	0.119053
C149	C	0.846636	-0.469932	-0.431427
C150	C	1.346636	0.030068	0.068573
C151	C	0.846616	-0.415330	-0.431403
C152	C	1.346616	0.084670	0.068597
C153	C	0.766238	-0.428991	-0.330195
C154	C	1.266238	0.071009	0.169805
C155	C	0.766259	-0.483589	-0.330216
C156	C	1.266259	0.016411	0.169784
C157	C	0.806460	-0.504057	-0.380838
C158	C	1.306460	-0.004057	0.119162
O159	O	0.732143	-0.575773	-0.287223
O160	O	1.232143	-0.075773	0.212777
O161	O	0.880837	-0.550541	-0.474504
O162	O	1.380837	-0.050541	0.025496
C163	C	0.942863	-0.200892	-0.380887
C164	C	1.442863	0.299108	0.119113
C165	C	1.000979	-0.200892	-0.380901
C166	C	1.500979	0.299108	0.119099
C167	C	0.834102	-0.173277	-0.587042
C168	C	1.334102	0.326723	-0.087042
C169	C	0.845871	-0.161509	-0.674907
C170	C	1.345871	0.338491	-0.174907
C171	C	0.806585	-0.064509	-0.380935
C172	C	1.306585	0.435491	0.119065
C173	C	0.806627	-0.006390	-0.380969
C174	C	1.306627	0.493610	0.119031
C175	C	0.717284	-0.290008	-0.963746
C176	C	1.217284	0.209992	-0.463746
C177	C	0.728353	-0.278943	-1.046308
C178	C	1.228353	0.221057	-0.546308
C179	C	0.795272	-0.212070	-1.046352
C180	C	1.295272	0.287930	-0.546352
C181	C	0.784207	-0.223127	-0.963788
C182	C	1.284207	0.276873	-0.463788
C183	C	0.745213	-0.262097	-0.922492
C184	C	1.245213	0.237903	-0.422492
C185	C	0.812136	-0.195215	-0.922534
C186	C	1.312136	0.304785	-0.422534
C187	C	0.801073	-0.206274	-0.839978
C188	C	1.301073	0.293726	-0.339978
C189	C	0.762082	-0.245243	-0.798675
C190	C	1.262082	0.254757	-0.298675
C191	C	0.734150	-0.273155	-0.839935
C192	C	1.234150	0.226845	-0.339935
C193	C	0.851132	-0.156248	-0.963832
C194	C	1.351132	0.343752	-0.463832
C195	C	0.879061	-0.128337	-0.922578
C196	C	1.379061	0.371663	-0.422578
C197	C	0.867996	-0.139392	-0.840020
C198	C	1.367996	0.360608	-0.340020
C199	C	0.829005	-0.178362	-0.798718
C200	C	1.329005	0.321638	-0.298718
C201	C	0.895928	-0.111480	-0.798760
C202	C	1.395928	0.388520	-0.298760
C203	C	0.884865	-0.122539	-0.716204
C204	C	1.384865	0.377461	-0.216204
C205	C	0.817942	-0.189420	-0.716161
C206	C	1.317942	0.310580	-0.216161
C207	C	0.779007	-0.228362	-0.175471
C208	C	1.279007	0.271638	0.324529
C209	C	0.767340	-0.239983	-0.087606
C210	C	1.267340	0.260017	0.412394
H211	H	0.496031	-0.273784	-0.288946
H212	H	0.996031	0.226216	0.211054
C213	C	0.938822	-0.068617	-0.844194
C214	C	1.438822	0.431383	-0.344194
C215	C	0.987459	-0.083678	-0.900936
C216	C	1.487459	0.416322	-0.400936
C217	C	1.030354	-0.040814	-0.946369
C218	C	1.530354	0.459186	-0.446369
C219	C	1.024612	0.017109	-0.935059
C220	C	1.524612	0.517109	-0.435059
C221	C	0.975972	0.032172	-0.878314
C222	C	1.475972	0.532172	-0.378314
C223	C	0.933077	-0.010691	-0.832881
C224	C	1.433077	0.489309	-0.332881
H225	H	0.991712	-0.126558	-0.909311
H226	H	1.491712	0.373442	-0.409311
H227	H	1.066361	-0.051965	-0.988376
H228	H	1.566361	0.448035	-0.488376
H229	H	1.056365	0.048839	-0.968691
H230	H	1.556365	0.548839	-0.468691
H231	H	0.971719	0.075053	-0.869939
H232	H	1.471719	0.575053	-0.369939
H233	H	0.897071	0.000460	-0.790874
H234	H	1.397071	0.500460	-0.290874
C235	C	0.681910	-0.664444	-0.224020
C236	C	1.181910	-0.164444	0.275980
C237	C	0.674190	-0.684018	-0.134163
C238	C	1.174190	-0.184018	0.365837
C239	C	0.629970	-0.661502	-0.078489
C240	C	1.129970	-0.161502	0.421511
C241	C	0.593470	-0.619410	-0.112672
C242	C	1.093470	-0.119410	0.387328
C243	C	0.601188	-0.599833	-0.202533
C244	C	1.101188	-0.099833	0.297467
C245	C	0.645409	-0.622350	-0.258208
C246	C	1.145409	-0.122350	0.241792
H247	H	0.701211	-0.715179	-0.108855
H248	H	1.201211	-0.215179	0.391145
H249	H	0.624256	-0.675994	-0.011967
H250	H	1.124256	-0.175994	0.488033
H251	H	0.560735	-0.602742	-0.071458
H252	H	1.060735	-0.102742	0.428542
H253	H	0.574168	-0.568673	-0.227841
H254	H	1.074168	-0.068673	0.272159
H255	H	0.651123	-0.607858	-0.324729
H256	H	1.151123	-0.107858	0.175271
H257	H	0.910812	-0.096609	-0.956213
H258	H	1.410812	0.403391	-0.456213
H259	H	0.733676	-0.914648	-0.289131
H260	H	1.233676	-0.414648	0.210869
C261	C	0.915583	-0.091837	-0.670816
C262	C	1.415583	0.408163	-0.170816
C263	C	0.912877	-0.030875	-0.682191
C264	C	1.412877	0.469125	-0.182191
C265	C	0.943597	-0.000175	-0.636801
C266	C	1.443597	0.499825	-0.136801
C267	C	0.977024	-0.030436	-0.580037
C268	C	1.477024	0.469564	-0.080037
C269	C	0.979731	-0.091402	-0.568659
C270	C	1.479731	0.408598	-0.068659
C271	C	0.949011	-0.122102	-0.614049
C272	C	1.449011	0.377898	-0.114049
H273	H	0.888131	-0.008471	-0.724213
H274	H	1.388131	0.491529	-0.224213
H275	H	0.941593	0.044956	-0.645224
H276	H	1.441593	0.544956	-0.145224
H277	H	0.999765	-0.007710	-0.546437
H278	H	1.499765	0.492290	-0.046437
H279	H	1.004477	-0.113806	-0.526636
H280	H	1.504477	0.386194	-0.026636
H281	H	0.951016	-0.167232	-0.605626
H282	H	1.451016	0.332768	-0.105626
H283	H	0.860140	-0.147247	-1.031055
H284	H	1.360140	0.352753	-0.531055
H285	H	0.619812	-0.128023	-0.472737
H286	H	1.119812	0.371977	0.027263
H287	H	0.018409	-0.128012	-0.472799
H288	H	0.518409	0.371988	0.027201
H289	H	0.693427	-0.769345	-0.238500
H290	H	1.193427	-0.269345	0.261500
C291	C	0.514906	-0.116536	-0.487220
C292	C	1.014906	0.383464	0.012780
C293	C	0.534464	-0.108866	-0.577070
C294	C	1.034464	0.391134	-0.077070
C295	C	0.511937	-0.064677	-0.632803
C296	C	1.011937	0.435323	-0.132803
C297	C	0.469852	-0.028156	-0.598685
C298	C	0.969852	0.471844	-0.098685
C299	C	0.450292	-0.035824	-0.508830
C300	C	0.950292	0.464176	-0.008830
C301	C	0.472819	-0.080014	-0.453097
C302	C	0.972819	0.419986	0.046903
H303	H	0.565620	-0.135902	-0.602330
H304	H	1.065620	0.364098	-0.102330
H305	H	0.526417	-0.059001	-0.699319
H306	H	1.026417	0.440999	-0.199319
H307	H	0.453176	0.004556	-0.639941
H308	H	0.953176	0.504556	-0.139941
H309	H	0.419135	-0.008789	-0.483569
H310	H	0.919135	0.491211	0.016431
H311	H	0.458339	-0.085690	-0.386580
H312	H	0.958339	0.414310	0.113420
C313	C	0.228314	-0.325409	-0.223817
C314	C	0.728314	0.174591	0.276183
C315	C	0.195326	-0.361931	-0.257934
C316	C	0.695326	0.138069	0.242066
C317	C	0.157808	-0.406117	-0.202200
C318	C	0.657808	0.093883	0.297800
C319	C	0.153279	-0.413780	-0.112349
C320	C	0.653279	0.086220	0.387651
C321	C	0.186268	-0.377257	-0.078227
C322	C	0.686268	0.122743	0.421773
C323	C	0.223786	-0.333072	-0.133961
C324	C	0.723786	0.166928	0.366039
H325	H	0.198678	-0.356259	-0.324451
H326	H	0.698678	0.143741	0.175549
H327	H	0.133387	-0.433154	-0.227460
H328	H	0.633387	0.066846	0.272540
H329	H	0.125506	-0.446489	-0.071092
H330	H	0.625506	0.053511	0.428908
H331	H	0.182916	-0.382929	-0.011710
H332	H	0.682916	0.117071	0.488290
H333	H	0.248207	-0.306035	-0.108701
H334	H	0.748207	0.193965	0.391299
C335	C	0.270553	-0.076364	-0.537901
C336	C	0.770553	0.423636	-0.037901
C337	C	0.290120	-0.068697	-0.627749
C338	C	0.790120	0.431303	-0.127749
C339	C	0.267600	-0.024508	-0.683491
C340	C	0.767600	0.475492	-0.183491
C341	C	0.225512	0.012015	-0.649385
C342	C	0.725512	0.512015	-0.149385
C343	C	0.205943	0.004349	-0.559532
C344	C	0.705943	0.504349	-0.059532
C345	C	0.228464	-0.039840	-0.503790
C346	C	0.728464	0.460160	-0.003790
H347	H	0.321278	-0.095735	-0.653001
H348	H	0.821278	0.404265	-0.153001
H349	H	0.282086	-0.018834	-0.750007
H350	H	0.782086	0.481166	-0.250007
H351	H	0.208841	0.044726	-0.690649
H352	H	0.708841	0.544726	-0.190649
H353	H	0.174786	0.031387	-0.534280
H354	H	0.674786	0.531387	-0.034280
H355	H	0.213977	-0.045514	-0.437275
H356	H	0.713977	0.454486	0.062725
H357	H	0.337114	-0.313930	-0.238282
H358	H	0.837114	0.186070	0.261718
C359	C	0.600949	-0.285257	-0.274456
C360	C	1.100949	0.214743	0.225544
C361	C	0.661010	-0.285252	-0.274453
C362	C	1.161010	0.214748	0.225547
C363	C	0.683554	-0.329433	-0.218728
C364	C	1.183554	0.170567	0.281272
C365	C	0.646037	-0.373620	-0.163007
C366	C	1.146037	0.126380	0.336993
C367	C	0.585972	-0.373627	-0.163008
C368	C	1.085972	0.126373	0.336992
C369	C	0.563428	-0.329446	-0.218732
C370	C	1.063428	0.170554	0.281268
H371	H	0.688786	-0.252540	-0.315703
H372	H	1.188786	0.247460	0.184297
H373	H	0.728018	-0.329427	-0.218728
H374	H	1.228018	0.170573	0.281272
H375	H	0.662725	-0.406325	-0.121756
H376	H	1.162725	0.093675	0.378244
H377	H	0.558196	-0.406338	-0.121757
H378	H	1.058196	0.093662	0.378243
H379	H	0.518964	-0.329452	-0.218733
H380	H	1.018964	0.170548	0.281267
H381	H	0.879339	-0.387545	-0.472604
H382	H	1.379339	0.112455	0.027396
C383	C	0.838164	-0.169203	-1.091781
C384	C	1.338164	0.330797	-0.591781
C385	C	0.832416	-0.111282	-1.080461
C386	C	1.332416	0.388718	-0.580461
C387	C	0.875308	-0.068414	-1.125887
C388	C	1.375308	0.431586	-0.625887
C389	C	0.923948	-0.083467	-1.182632
C390	C	1.423948	0.416533	-0.682632
C391	C	0.929699	-0.141391	-1.193954
C392	C	1.429699	0.358609	-0.693954
C393	C	0.886807	-0.184259	-1.148529
C394	C	1.386807	0.315741	-0.648529
H395	H	0.796408	-0.100136	-1.038453
H396	H	1.296408	0.399864	-0.538453
H397	H	0.871051	-0.025535	-1.117505
H398	H	1.371051	0.474465	-0.617505
H399	H	0.955700	-0.051733	-1.216259
H400	H	1.455700	0.448267	-0.716259
H401	H	0.965707	-0.152536	-1.235963
H402	H	1.465707	0.347464	-0.735963
H403	H	0.891064	-0.227138	-1.156910
H404	H	1.391064	0.272862	-0.656910
H405	H	0.092748	-0.273773	-0.288983
H406	H	0.592748	0.226227	0.211017
H407	H	0.733716	-1.013696	-0.289147
H408	H	1.233716	-0.513696	0.210853
C409	C	-0.016048	-0.285253	-0.274533
C410	C	0.483952	0.214747	0.225467
C411	C	-0.020580	-0.292928	-0.184681
C412	C	0.479420	0.207072	0.315319
C413	C	-0.058098	-0.337119	-0.128960
C414	C	0.441902	0.162881	0.371040
C415	C	-0.091083	-0.373635	-0.163091
C416	C	0.408917	0.126365	0.336909
C417	C	-0.086552	-0.365961	-0.252948
C418	C	0.413448	0.134039	0.247052
C419	C	-0.049034	-0.321770	-0.308669
C420	C	0.450966	0.178230	0.191331
H421	H	0.003839	-0.265896	-0.159410
H422	H	0.503839	0.234104	0.340590
H423	H	-0.061452	-0.342800	-0.062441
H424	H	0.438548	0.157200	0.437559
H425	H	-0.118856	-0.406348	-0.121843
H426	H	0.381144	0.093652	0.378157
H427	H	-0.110971	-0.392993	-0.278219
H428	H	0.389029	0.107007	0.221781
H429	H	-0.045680	-0.316090	-0.375188
H430	H	0.454320	0.183910	0.124812
H431	H	0.879368	-0.486589	-0.472654
H432	H	1.379368	0.013411	0.027346
C433	C	0.931086	-0.622131	-0.537760
C434	C	1.431086	-0.122131	-0.037760
C435	C	0.989679	-0.630443	-0.531413
C436	C	1.489679	-0.130443	-0.031413
C437	C	1.033876	-0.592913	-0.587092
C438	C	1.533876	-0.092913	-0.087092
C439	C	1.019480	-0.547072	-0.649118
C440	C	1.519480	-0.047072	-0.149118
C441	C	0.960885	-0.538759	-0.655468
C442	C	1.460885	-0.038759	-0.155468
C443	C	0.916687	-0.576288	-0.599788
C444	C	1.416687	-0.076288	-0.099788
H445	H	1.000339	-0.664379	-0.485495
H446	H	1.500339	-0.164379	0.014505
H447	H	1.077253	-0.599067	-0.582392
H448	H	1.577253	-0.099067	-0.082392
H449	H	1.052198	-0.519290	-0.690335
H450	H	1.552198	-0.019290	-0.190335
H451	H	0.950225	-0.504822	-0.701385
H452	H	1.450225	-0.004822	-0.201385
H453	H	0.873311	-0.570134	-0.604489
H454	H	1.373311	-0.070134	-0.104489
H455	H	0.117473	-0.128009	-0.472793
H456	H	0.617473	0.371991	0.027207
C457	C	0.691261	-0.316032	-0.794511
C458	C	1.191261	0.183968	-0.294511
C459	C	0.706295	-0.364686	-0.737747
C460	C	1.206295	0.135314	-0.237747
C461	C	0.663413	-0.407565	-0.692328
C462	C	1.163413	0.092435	-0.192328
C463	C	0.605497	-0.401791	-0.703671
C464	C	1.105497	0.098209	-0.203671
C465	C	0.590460	-0.353135	-0.760437
C466	C	1.090460	0.146865	-0.260437
C467	C	0.633342	-0.310255	-0.805857
C468	C	1.133342	0.189745	-0.305857
H469	H	0.749170	-0.368962	-0.729348
H470	H	1.249170	0.131038	-0.229348
H471	H	0.674544	-0.443584	-0.650306
H472	H	1.174544	0.056416	-0.150306
H473	H	0.573753	-0.433533	-0.670049
H474	H	1.073753	0.066467	-0.170049
H475	H	0.547585	-0.348858	-0.768837
H476	H	1.047585	0.151142	-0.268837
H477	H	0.622211	-0.274237	-0.847879
H478	H	1.122211	0.225763	-0.347879
H479	H	0.685518	-0.321729	-0.930120
H480	H	1.185518	0.178271	-0.430120
H481	H	0.919640	-0.730925	-0.523324
H482	H	1.419640	-0.230925	-0.023324
H483	H	0.879509	-0.889871	-0.472756
H484	H	1.379509	-0.389871	0.027244
H485	H	0.733543	-0.511377	-0.289010
H486	H	1.233543	-0.011377	0.210990
H487	H	0.786176	-0.221141	-0.682535
H488	H	1.286176	0.278859	-0.182535
C489	C	0.749908	-0.257409	-0.707862
C490	C	1.249908	0.242591	-0.207862
C491	C	0.730393	-0.213247	-0.662482
C492	C	1.230393	0.286753	-0.162482
C493	C	0.718218	-0.225412	-0.571668
C494	C	1.218218	0.274588	-0.071668
C495	C	0.725558	-0.281741	-0.526235
C496	C	1.225558	0.218259	-0.026235
C497	C	0.745074	-0.325907	-0.571615
C498	C	1.245074	0.174093	-0.071615
C499	C	0.757249	-0.313741	-0.662428
C500	C	1.257249	0.186259	-0.162428
H501	H	0.724958	-0.171546	-0.696114
H502	H	1.224958	0.328454	-0.196114
H503	H	0.703770	-0.192717	-0.538076
H504	H	1.203770	0.307283	-0.038076
H505	H	0.716545	-0.290746	-0.459010
H506	H	1.216545	0.209254	0.040990
H507	H	0.750508	-0.367608	-0.537983
H508	H	1.250508	0.132392	-0.037983
H509	H	0.771696	-0.346436	-0.696021
H510	H	1.271696	0.153564	-0.196021
H511	H	0.705607	-0.301675	-1.079894
H512	H	1.205607	0.198325	-0.579894
H513	H	0.375451	-0.087843	-0.523413
H514	H	0.875451	0.412157	-0.023413
H515	H	0.879538	-0.988934	-0.472778
H516	H	1.379538	-0.488934	0.027222
H517	H	0.733512	-0.412314	-0.288987
H518	H	1.233512	0.087686	0.211013
