data_functionalizedCrystal
_audit_creation_method	'MofGen! by Chris Wilmer'
_symmetry_space_group_name_H-M	'P1'
_symmetry_Int_Tables_number	1
_symmetry_cell_setting	triclinic
loop_
_symmetry_equiv_pos_as_xyz
  x,y,z
_cell_length_a	19.805407
_cell_length_b	19.077692
_cell_length_c	19.805399
_cell_angle_alpha	87.728486
_cell_angle_beta	90.019573
_cell_angle_gamma	87.730708
loop_
_atom_site_label
_atom_site_type_symbol
_atom_site_fract_x
_atom_site_fract_y
_atom_site_fract_z
Zn1	Zn	1.045551	-0.280198	0.393551
Zn2	Zn	1.295551	-0.030198	0.643551
Zn3	Zn	1.545551	0.219802	0.893551
Zn4	Zn	1.795551	0.469802	1.143551
Zn5	Zn	1.050008	-0.397889	0.284912
Zn6	Zn	1.300008	-0.147889	0.534912
Zn7	Zn	1.550008	0.102111	0.784912
Zn8	Zn	1.800008	0.352111	1.034912
Zn9	Zn	0.932366	-0.280218	0.280376
Zn10	Zn	1.182366	-0.030218	0.530376
Zn11	Zn	1.432366	0.219782	0.780376
Zn12	Zn	1.682366	0.469782	1.030376
Zn13	Zn	0.936870	-0.397852	0.398057
Zn14	Zn	1.186870	-0.147852	0.648057
Zn15	Zn	1.436870	0.102148	0.898057
Zn16	Zn	1.686870	0.352148	1.148057
O17	O	0.991199	-0.339039	0.339224
O18	O	1.241199	-0.089039	0.589224
O19	O	1.491199	0.160961	0.839224
O20	O	1.741199	0.410961	1.089224
O21	O	1.140859	-0.295818	0.379152
O22	O	1.390859	-0.045818	0.629152
O23	O	1.640859	0.204182	0.879152
O24	O	1.890859	0.454182	1.129152
O25	O	1.034383	-0.382303	0.189594
O26	O	1.284383	-0.132303	0.439594
O27	O	1.534383	0.117697	0.689594
O28	O	1.784383	0.367697	0.939594
O29	O	0.943630	-0.181731	0.291605
O30	O	1.193630	0.068269	0.541605
O31	O	1.443630	0.318269	0.791605
O32	O	1.693630	0.568269	1.041605
O33	O	1.144134	-0.382285	0.299335
O34	O	1.394134	-0.132285	0.549335
O35	O	1.644134	0.117715	0.799335
O36	O	1.894134	0.367715	1.049335
O37	O	1.026786	-0.181717	0.374754
O38	O	1.276786	0.068283	0.624754
O39	O	1.526786	0.318283	0.874754
O40	O	1.776786	0.568283	1.124754
O41	O	0.947952	-0.295851	0.186262
O42	O	1.197952	-0.045851	0.436262
O43	O	1.447952	0.204149	0.686262
O44	O	1.697952	0.454149	0.936262
O45	O	0.838247	-0.295814	0.295974
O46	O	1.088247	-0.045814	0.545974
O47	O	1.338247	0.204186	0.795974
O48	O	1.588247	0.454186	1.045974
O49	O	0.951306	-0.382221	0.492175
O50	O	1.201306	-0.132221	0.742175
O51	O	1.451306	0.117779	0.992175
O52	O	1.701306	0.367779	1.242175
O53	O	0.841556	-0.382240	0.382434
O54	O	1.091556	-0.132240	0.632434
O55	O	1.341556	0.117760	0.882434
O56	O	1.591556	0.367760	1.132434
O57	O	1.031153	-0.295781	0.488864
O58	O	1.281153	-0.045781	0.738864
O59	O	1.531153	0.204219	0.988864
O60	O	1.781153	0.454219	1.238864
O61	O	1.038751	-0.496368	0.303705
O62	O	1.288751	-0.246368	0.553705
O63	O	1.538751	0.003632	0.803705
O64	O	1.788751	0.253632	1.053705
O65	O	0.955628	-0.496341	0.386832
O66	O	1.205628	-0.246341	0.636832
O67	O	1.455628	0.003659	0.886832
O68	O	1.705628	0.253659	1.136832
C69	C	0.815342	-0.339026	0.339201
C70	C	1.065342	-0.089026	0.589201
C71	C	1.315342	0.160974	0.839201
C72	C	1.565342	0.410974	1.089201
C73	C	0.740111	-0.339037	0.339209
C74	C	0.990111	-0.089037	0.589209
C75	C	1.240111	0.160963	0.839209
C76	C	1.490111	0.410963	1.089209
C77	C	0.706510	-0.384106	0.384161
C78	C	0.956510	-0.134106	0.634161
C79	C	1.206510	0.115894	0.884161
C80	C	1.456510	0.365894	1.134161
C81	C	0.635821	-0.384107	0.384170
C82	C	0.885821	-0.134107	0.634170
C83	C	1.135821	0.115893	0.884170
C84	C	1.385821	0.365893	1.134170
C85	C	0.598735	-0.339042	0.339224
C86	C	0.848735	-0.089042	0.589224
C87	C	1.098735	0.160958	0.839224
C88	C	1.348735	0.410958	1.089224
C89	C	0.632341	-0.293968	0.294270
C90	C	0.882341	-0.043968	0.544270
C91	C	1.132341	0.206032	0.794270
C92	C	1.382341	0.456032	1.044270
C93	C	0.703028	-0.293964	0.294264
C94	C	0.953028	-0.043964	0.544264
C95	C	1.203028	0.206036	0.794264
C96	C	1.453028	0.456036	1.044264
C97	C	0.347268	-0.293984	0.294293
C98	C	0.597268	-0.043984	0.544293
C99	C	0.847268	0.206016	0.794293
C100	C	1.097268	0.456016	1.044293
C101	C	0.276576	-0.293993	0.294301
C102	C	0.526576	-0.043993	0.544301
C103	C	0.776576	0.206007	0.794301
C104	C	1.026576	0.456007	1.044301
C105	C	0.280062	-0.384127	0.384199
C106	C	0.530062	-0.134127	0.634199
C107	C	0.780062	0.115873	0.884199
C108	C	1.030062	0.365873	1.134199
C109	C	0.350749	-0.384123	0.384193
C110	C	0.600749	-0.134123	0.634193
C111	C	0.850749	0.115877	0.884193
C112	C	1.100749	0.365877	1.134193
C113	C	0.384348	-0.339046	0.339242
C114	C	0.634348	-0.089046	0.589242
C115	C	0.884348	0.160954	0.839242
C116	C	1.134348	0.410954	1.089242
C117	C	0.460996	-0.339045	0.339233
C118	C	0.710996	-0.089045	0.589233
C119	C	0.960996	0.160955	0.839233
C120	C	1.210996	0.410955	1.089233
C121	C	0.522088	-0.339047	0.339229
C122	C	0.772088	-0.089047	0.589229
C123	C	1.022088	0.160953	0.839229
C124	C	1.272088	0.410953	1.089229
C125	C	0.998180	-0.521890	0.346264
C126	C	1.248180	-0.271890	0.596264
C127	C	1.498180	-0.021890	0.846264
C128	C	1.748180	0.228110	1.096264
C129	C	1.001229	-0.600115	0.349299
C130	C	1.251229	-0.350115	0.599299
C131	C	1.501229	-0.100115	0.849299
C132	C	1.751229	0.149885	1.099299
C133	C	0.959405	-0.636935	0.307405
C134	C	1.209405	-0.386935	0.557405
C135	C	1.459405	-0.136935	0.807405
C136	C	1.709405	0.113065	1.057405
C137	C	0.962277	-0.710435	0.310260
C138	C	1.212277	-0.460435	0.560260
C139	C	1.462277	-0.210435	0.810260
C140	C	1.712277	0.039565	1.060260
C141	C	1.006969	-0.747114	0.355012
C142	C	1.256969	-0.497114	0.605012
C143	C	1.506969	-0.247114	0.855012
C144	C	1.756969	0.002886	1.105012
C145	C	1.048797	-0.710289	0.396907
C146	C	1.298797	-0.460289	0.646907
C147	C	1.548797	-0.210289	0.896907
C148	C	1.798797	0.039711	1.146907
C149	C	1.045928	-0.636790	0.394049
C150	C	1.295928	-0.386790	0.644049
C151	C	1.545928	-0.136790	0.894049
C152	C	1.795928	0.113210	1.144049
C153	C	1.020189	-0.966925	0.368202
C154	C	1.270189	-0.716925	0.618202
C155	C	1.520189	-0.466925	0.868202
C156	C	1.770189	-0.216925	1.118202
C157	C	1.023053	-1.040429	0.371059
C158	C	1.273053	-0.790429	0.621059
C159	C	1.523053	-0.540429	0.871059
C160	C	1.773053	-0.290429	1.121059
C161	C	0.936534	-1.040571	0.284410
C162	C	1.186534	-0.790571	0.534410
C163	C	1.436534	-0.540571	0.784410
C164	C	1.686534	-0.290571	1.034410
C165	C	0.933666	-0.967070	0.281559
C166	C	1.183666	-0.717070	0.531559
C167	C	1.433666	-0.467070	0.781559
C168	C	1.683666	-0.217070	1.031559
C169	C	0.975497	-0.930251	0.323452
C170	C	1.225497	-0.680251	0.573452
C171	C	1.475497	-0.430251	0.823452
C172	C	1.725497	-0.180251	1.073452
N173	N	1.009903	-0.822243	0.357932
N174	N	1.259903	-0.572243	0.607932
N175	N	1.509903	-0.322243	0.857932
N176	N	1.759903	-0.072243	1.107932
N177	N	0.972565	-0.855124	0.320528
N178	N	1.222565	-0.605124	0.570528
N179	N	1.472565	-0.355124	0.820528
N180	N	1.722565	-0.105124	1.070528
C181	C	1.167742	-0.339053	0.339247
C182	C	1.417742	-0.089053	0.589247
C183	C	1.667742	0.160947	0.839247
C184	C	1.917742	0.410947	1.089247
C185	C	1.242974	-0.339059	0.339257
C186	C	1.492974	-0.089059	0.589257
C187	C	1.742974	0.160941	0.839257
C188	C	1.992974	0.410941	1.089257
C189	C	0.991235	-0.338995	0.515765
C190	C	1.241235	-0.088995	0.765765
C191	C	1.491235	0.161005	1.015765
C192	C	1.741235	0.411005	1.265765
C193	C	0.991250	-0.338976	0.590996
C194	C	1.241250	-0.088976	0.840996
C195	C	1.491250	0.161024	1.090996
C196	C	1.741250	0.411024	1.340996
C197	C	0.984208	-0.155474	0.332171
C198	C	1.234208	0.094526	0.582171
C199	C	1.484208	0.344526	0.832171
C200	C	1.734208	0.594526	1.082171
C201	C	0.981230	-0.077249	0.329165
C202	C	1.231230	0.172751	0.579165
C203	C	1.481230	0.422751	0.829165
C204	C	1.731230	0.672751	1.079165
C205	C	0.991200	-0.339032	0.163368
C206	C	1.241200	-0.089032	0.413368
C207	C	1.491200	0.160968	0.663368
C208	C	1.741200	0.410968	0.913368
C209	C	0.991308	-0.338853	0.088129
C210	C	1.241308	-0.088853	0.338129
C211	C	1.491308	0.161147	0.588129
C212	C	1.741308	0.411147	0.838129
C213	C	1.032828	-0.293965	0.624617
C214	C	1.282828	-0.043965	0.874617
C215	C	1.532828	0.206035	1.124617
C216	C	1.782828	0.456035	1.374617
C217	C	1.032834	-0.293944	0.695305
C218	C	1.282834	-0.043944	0.945305
C219	C	1.532834	0.206056	1.195305
C220	C	1.782834	0.456056	1.445305
C221	C	0.991266	-0.338939	0.732370
C222	C	1.241266	-0.088939	0.982370
C223	C	1.491266	0.161061	1.232370
C224	C	1.741266	0.411061	1.482370
C225	C	0.949684	-0.383952	0.698744
C226	C	1.199684	-0.133952	0.948744
C227	C	1.449684	0.116048	1.198744
C228	C	1.699684	0.366048	1.448744
C229	C	0.949675	-0.383969	0.628058
C230	C	1.199675	-0.133969	0.878058
C231	C	1.449675	0.116031	1.128058
C232	C	1.699675	0.366031	1.378058
C233	C	0.949720	-0.383887	0.983815
C234	C	1.199720	-0.133887	1.233815
C235	C	1.449720	0.116113	1.483815
C236	C	1.699720	0.366113	1.733815
C237	C	0.949733	-0.383868	1.054507
C238	C	1.199733	-0.133868	1.304507
C239	C	1.449733	0.116132	1.554507
C240	C	1.699733	0.366132	1.804507
C241	C	1.032879	-0.293862	1.051063
C242	C	1.282879	-0.043862	1.301063
C243	C	1.532879	0.206138	1.551063
C244	C	1.782879	0.456138	1.801063
C245	C	1.032870	-0.293879	0.980376
C246	C	1.282870	-0.043879	1.230376
C247	C	1.532870	0.206121	1.480376
C248	C	1.782870	0.456121	1.730376
C249	C	0.991285	-0.338889	0.946756
C250	C	1.241285	-0.088889	1.196756
C251	C	1.491285	0.161111	1.446756
C252	C	1.741285	0.411111	1.696756
C253	C	0.991278	-0.338910	0.870108
C254	C	1.241278	-0.088910	1.120108
C255	C	1.491278	0.161090	1.370108
C256	C	1.741278	0.411090	1.620108
C257	C	0.991276	-0.338923	0.809017
C258	C	1.241276	-0.088923	1.059017
C259	C	1.491276	0.161077	1.309017
C260	C	1.741276	0.411077	1.559017
H261	H	0.736701	-0.420806	0.420759
H262	H	0.986701	-0.170806	0.670759
H263	H	1.236701	0.079194	0.920759
H264	H	1.486701	0.329194	1.170759
Cl265	Cl	1.085131	-0.237314	0.933784
Cl266	Cl	1.335131	0.012686	1.183784
Cl267	Cl	1.585131	0.262686	1.433784
Cl268	Cl	1.835131	0.512686	1.683784
H269	H	0.923010	-0.607076	0.270967
H270	H	1.173010	-0.357076	0.520967
H271	H	1.423010	-0.107076	0.770967
H272	H	1.673010	0.142924	1.020967
H273	H	0.380941	-0.420822	0.420791
H274	H	0.630941	-0.170822	0.670791
H275	H	0.880941	0.079178	0.920791
H276	H	1.130941	0.329178	1.170791
H277	H	0.915811	-0.420614	0.600684
H278	H	1.165811	-0.170614	0.850684
H279	H	1.415811	0.079386	1.100684
H280	H	1.665811	0.329386	1.350684
H281	H	0.602140	-0.257272	0.257676
H282	H	0.852140	-0.007272	0.507676
H283	H	1.102140	0.242728	0.757676
H284	H	1.352140	0.492728	1.007676
H285	H	0.915881	-0.420510	1.084684
H286	H	1.165881	-0.170510	1.334684
H287	H	1.415881	0.079490	1.584684
H288	H	1.665881	0.329490	1.834684
Cl289	Cl	1.085155	-0.237274	1.093332
Cl290	Cl	1.335155	0.012726	1.343332
Cl291	Cl	1.585155	0.262726	1.593332
Cl292	Cl	1.835155	0.512726	1.843332
H293	H	0.897275	-0.937208	0.245118
H294	H	1.147275	-0.687208	0.495118
H295	H	1.397275	-0.437208	0.745118
H296	H	1.647275	-0.187208	0.995118
Cl297	Cl	1.072772	-0.920648	0.420872
Cl298	Cl	1.322772	-0.670648	0.670872
Cl299	Cl	1.572772	-0.420648	0.920872
Cl300	Cl	1.822772	-0.170648	1.170872
Cl301	Cl	1.104984	-0.756399	0.453164
Cl302	Cl	1.354984	-0.506399	0.703164
Cl303	Cl	1.604984	-0.256399	0.953164
Cl304	Cl	1.854984	-0.006399	1.203164
H305	H	0.928221	-0.740411	0.276144
H306	H	1.178221	-0.490411	0.526144
H307	H	1.428221	-0.240411	0.776144
H308	H	1.678221	0.009589	1.026144
H309	H	0.902478	-1.070557	0.250303
H310	H	1.152478	-0.820557	0.500303
H311	H	1.402478	-0.570557	0.750303
H312	H	1.652478	-0.320557	1.000303
Cl313	Cl	1.079248	-1.086538	0.427316
Cl314	Cl	1.329248	-0.836538	0.677316
Cl315	Cl	1.579248	-0.586538	0.927316
Cl316	Cl	1.829248	-0.336538	1.177316
H317	H	0.915869	-0.420547	0.956451
H318	H	1.165869	-0.170547	1.206451
H319	H	1.415869	0.079453	1.456451
H320	H	1.665869	0.329453	1.706451
H321	H	0.252697	-0.420828	0.420803
H322	H	0.502697	-0.170828	0.670803
H323	H	0.752697	0.079172	0.920803
H324	H	1.002697	0.329172	1.170803
H325	H	1.079986	-0.606811	0.428162
H326	H	1.329986	-0.356811	0.678162
H327	H	1.579986	-0.106811	0.928162
H328	H	1.829986	0.143189	1.178162
H329	H	0.374616	-0.257285	0.257685
H330	H	0.624616	-0.007285	0.507685
H331	H	0.874616	0.242715	0.757685
H332	H	1.124616	0.492715	1.007685
H333	H	0.730384	-0.257260	0.257663
H334	H	0.980384	-0.007260	0.507663
H335	H	1.230384	0.242740	0.757663
H336	H	1.480384	0.492740	1.007663
Cl337	Cl	1.085092	-0.237400	0.578028
Cl338	Cl	1.335092	0.012600	0.828028
Cl339	Cl	1.585092	0.262600	1.078028
Cl340	Cl	1.835092	0.512600	1.328028
H341	H	0.608467	-0.420808	0.420774
H342	H	0.858467	-0.170808	0.670774
H343	H	1.108467	0.079192	0.920774
H344	H	1.358467	0.329192	1.170774
Cl345	Cl	1.085136	-0.237387	0.737570
Cl346	Cl	1.335136	0.012613	0.987570
Cl347	Cl	1.585136	0.262613	1.237570
Cl348	Cl	1.835136	0.512613	1.487570
H349	H	0.246382	-0.257291	0.257700
H350	H	0.496382	-0.007291	0.507700
H351	H	0.746382	0.242709	0.757700
H352	H	0.996382	0.492709	1.007700
Cl353	Cl	0.897424	-0.440515	0.745341
Cl354	Cl	1.147424	-0.190515	0.995341
Cl355	Cl	1.397424	0.059485	1.245341
Cl356	Cl	1.647424	0.309485	1.495341
