data_functionalizedCrystal
_audit_creation_method	'MofGen! by Chris Wilmer'
_symmetry_space_group_name_H-M	'P1'
_symmetry_Int_Tables_number	1
_symmetry_cell_setting	triclinic
loop_
_symmetry_equiv_pos_as_xyz
  x,y,z
_cell_length_a	10.654543
_cell_length_b	9.130313
_cell_length_c	10.654550
_cell_angle_alpha	90.001126
_cell_angle_beta	95.516448
_cell_angle_gamma	90.004406
loop_
_atom_site_label
_atom_site_type_symbol
_atom_site_fract_x
_atom_site_fract_y
_atom_site_fract_z
O1	O	-1.667839	0.121641	0.176353
O2	O	-1.167839	0.621641	0.676353
O3	O	-1.302359	0.121679	0.193168
O4	O	-0.802359	0.621679	0.693168
O5	O	-1.493502	0.121650	0.002021
O6	O	-0.993502	0.621650	0.502021
O7	O	-1.476696	0.121670	0.367500
O8	O	-0.976696	0.621670	0.867500
O9	O	-1.493500	-0.121949	0.002026
O10	O	-0.993500	0.378051	0.502026
O11	O	-1.302357	-0.121920	0.193173
O12	O	-0.802357	0.378080	0.693173
O13	O	-1.667837	-0.121957	0.176358
O14	O	-1.167837	0.378043	0.676358
Cu15	Cu	-1.485097	-0.144181	0.184766
Cu16	Cu	-0.985097	0.355819	0.684766
Cu17	Cu	-1.485099	0.143903	0.184760
Cu18	Cu	-0.985099	0.643903	0.684760
O19	O	-1.476694	-0.121929	0.367505
O20	O	-0.976694	0.378071	0.867505
C21	C	-1.255560	-0.000116	0.191938
C22	C	-0.755560	0.499884	0.691938
C23	C	-1.116116	-0.000102	0.188249
C24	C	-0.616116	0.499898	0.688249
C25	C	-1.036631	-0.000098	0.300793
C26	C	-0.536631	0.499902	0.800793
C27	C	-0.905609	-0.000120	0.297319
C28	C	-0.405609	0.499880	0.797319
C29	C	-0.933573	-0.000144	0.068749
C30	C	-0.433573	0.499856	0.568749
C31	C	-1.064591	-0.000132	0.072224
C32	C	-0.564591	0.499868	0.572224
N33	N	-1.485104	-0.346804	0.184770
N34	N	-0.985104	0.153196	0.684770
C35	C	-1.569764	-0.423469	0.100159
C36	C	-1.069764	0.076531	0.600159
C37	C	-1.569760	-0.576805	0.100144
C38	C	-1.069760	-0.076805	0.600144
C39	C	-1.400433	-0.576799	0.269361
C40	C	-0.900433	-0.076799	0.769361
C41	C	-1.400431	-0.423465	0.269369
C42	C	-0.900431	0.076535	0.769369
C43	C	-1.654436	-0.346807	0.015559
C44	C	-1.154436	0.153193	0.515559
C45	C	-1.739104	-0.423472	-0.069058
C46	C	-1.239104	0.076528	0.430942
C47	C	-1.739101	-0.576809	-0.069073
C48	C	-1.239101	-0.076809	0.430927
C49	C	-1.654429	-0.653481	0.015529
C50	C	-1.154429	-0.153481	0.515529
C51	C	-0.714635	-0.000152	0.177595
C52	C	-0.214635	0.499848	0.677595
C53	C	-0.854077	-0.000135	0.181301
C54	C	-0.354077	0.499865	0.681301
C55	C	-1.492267	-0.000148	-0.044774
C56	C	-0.992267	0.499852	0.455226
C57	C	-1.488575	-0.000146	-0.184217
C58	C	-0.988575	0.499854	0.315783
N59	N	-1.485102	0.346525	0.184747
N60	N	-0.985102	0.846525	0.684747
C61	C	-1.601117	-0.000157	-0.263706
C62	C	-1.101117	0.499843	0.236294
C63	C	-1.597641	-0.000139	-0.394726
C64	C	-1.097641	0.499861	0.105274
C65	C	-1.369070	-0.000105	-0.366758
C66	C	-0.869070	0.499895	0.133242
C67	C	-1.372548	-0.000112	-0.235740
C68	C	-0.872548	0.499888	0.264260
C69	C	-1.477929	-0.000127	0.414301
C70	C	-0.977929	0.499873	0.914301
C71	C	-1.481621	-0.000120	0.553744
C72	C	-0.981621	0.499880	1.053744
H73	H	-1.129313	-0.000140	-0.019428
H74	H	-0.629313	0.499860	0.480572
H75	H	-1.274605	-0.000080	-0.408724
H76	H	-0.774605	0.499920	0.091276
Cl77	Cl	-1.654450	-0.154042	0.015578
Cl78	Cl	-1.154450	0.345958	0.515578
H79	H	-1.808034	-0.361038	-0.137945
H80	H	-1.308034	0.138962	0.362055
Cl81	Cl	-1.231055	-0.000086	-0.135803
Cl82	Cl	-0.731055	0.499914	0.364197
Cl83	Cl	-0.868788	-0.000172	-0.077103
Cl84	Cl	-0.368788	0.499828	0.422897
Cl85	Cl	-1.654421	-0.846249	0.015493
Cl86	Cl	-1.154421	-0.346249	0.515493
H87	H	-1.331498	-0.639236	0.338242
H88	H	-0.831498	-0.139236	0.838242
Cl89	Cl	-1.101401	-0.000069	0.446652
Cl90	Cl	-0.601401	0.499931	0.946652
H91	H	-1.331492	-0.361044	0.338266
H92	H	-0.831492	0.138956	0.838266
Cl93	Cl	-1.845527	-0.673186	-0.175455
Cl94	Cl	-1.345527	-0.173186	0.324545
Cl95	Cl	-1.746979	-0.000195	-0.198939
Cl96	Cl	-1.246979	0.499805	0.301061
Cl97	Cl	-1.739129	-0.000149	-0.494650
Cl98	Cl	-1.239129	0.499851	0.005350
H99	H	-0.840896	-0.000119	0.388964
H100	H	-0.340896	0.499881	0.888964
