data_functionalizedCrystal
_audit_creation_method	'MofGen! by Chris Wilmer'
_symmetry_space_group_name_H-M	'P1'
_symmetry_Int_Tables_number	1
_symmetry_cell_setting	triclinic
loop_
_symmetry_equiv_pos_as_xyz
  x,y,z
_cell_length_a	18.050589
_cell_length_b	19.077241
_cell_length_c	19.077579
_cell_angle_alpha	94.520309
_cell_angle_beta	87.679655
_cell_angle_gamma	87.679727
loop_
_atom_site_label
_atom_site_type_symbol
_atom_site_fract_x
_atom_site_fract_y
_atom_site_fract_z
Zn1	Zn	-0.230687	-1.093725	-0.442018
Zn2	Zn	0.269313	-0.593725	0.057982
Zn3	Zn	-0.360081	-1.088903	-0.324135
Zn4	Zn	0.139919	-0.588903	0.175865
Zn5	Zn	-0.241092	-0.971106	-0.319397
Zn6	Zn	0.258908	-0.471106	0.180603
Zn7	Zn	-0.360029	-0.975793	-0.437239
Zn8	Zn	0.139971	-0.475793	0.062761
O9	O	-0.297972	-1.032382	-0.380697
O10	O	0.202028	-0.532382	0.119303
O11	O	-0.243519	-1.191739	-0.430363
O12	O	0.256481	-0.691739	0.069637
O13	O	-0.348673	-1.069297	-0.224855
O14	O	0.151327	-0.569297	0.275145
O15	O	-0.135784	-0.987428	-0.335680
O16	O	0.364216	-0.487428	0.164320
O17	O	-0.338584	-1.188196	-0.343756
O18	O	0.161416	-0.688196	0.156244
O19	O	-0.128139	-1.077516	-0.425769
O20	O	0.371861	-0.577516	0.074231
O21	O	-0.261252	-0.982752	-0.221374
O22	O	0.238748	-0.482752	0.278626
O23	O	-0.261201	-0.873074	-0.331046
O24	O	0.238799	-0.373074	0.168954
O25	O	-0.338495	-0.995416	-0.536524
O26	O	0.161505	-0.495416	-0.036524
O27	O	-0.348584	-0.876518	-0.417624
O28	O	0.151416	-0.376518	0.082376
O29	O	-0.243468	-1.082061	-0.540035
O30	O	0.256532	-0.582061	-0.040035
O31	O	-0.464002	-1.073842	-0.339122
O32	O	0.035998	-0.573842	0.160878
O33	O	-0.463964	-0.990740	-0.422219
O34	O	0.036036	-0.490740	0.077781
C35	C	-0.306017	-0.849216	-0.373302
C36	C	0.193983	-0.349216	0.126698
C37	C	-0.309475	-0.770858	-0.370156
C38	C	0.190525	-0.270858	0.129844
C39	C	-0.261677	-0.735893	-0.413838
C40	C	0.238323	-0.235893	0.086162
C41	C	-0.264923	-0.662267	-0.410875
C42	C	0.235077	-0.162267	0.089125
C43	C	-0.315972	-0.623607	-0.364233
C44	C	0.184028	-0.123607	0.135767
C45	C	-0.363773	-0.658577	-0.320546
C46	C	0.136227	-0.158577	0.179454
C47	C	-0.360522	-0.732202	-0.323506
C48	C	0.139478	-0.232202	0.176494
C49	C	-0.330990	-0.403215	-0.350535
C50	C	0.169010	0.096785	0.149465
C51	C	-0.334239	-0.329585	-0.347580
C52	C	0.165761	0.170415	0.152420
C53	C	-0.235388	-0.333280	-0.437909
C54	C	0.264612	0.166720	0.062091
C55	C	-0.232145	-0.406906	-0.440868
C56	C	0.267855	0.093094	0.059132
C57	C	-0.279943	-0.441869	-0.397178
C58	C	0.220057	0.058131	0.102822
N59	N	-0.319293	-0.548349	-0.361205
N60	N	0.180707	-0.048349	0.138795
N61	N	-0.276617	-0.517126	-0.400203
N62	N	0.223383	-0.017126	0.099797
C63	C	-0.490929	-1.032296	-0.380682
C64	C	0.009071	-0.532296	0.119318
C65	C	-0.573472	-1.032325	-0.380702
C66	C	-0.073472	-0.532325	0.119298
C67	C	-0.772928	-0.987180	-0.425875
C68	C	-0.272928	-0.487180	0.074125
C69	C	-0.825959	-0.967415	-0.360855
C70	C	-0.325959	-0.467415	0.139145
C71	C	-0.724599	-1.032394	-0.380714
C72	C	-0.224599	-0.532394	0.119286
C73	C	-0.818648	-1.052195	-0.445743
C74	C	-0.318648	-0.552195	0.054257
C75	C	-0.870581	-1.032461	-0.380731
C76	C	-0.370581	-0.532461	0.119269
C77	C	-0.776546	-1.012594	-0.315658
C78	C	-0.276546	-0.512594	0.184342
C79	C	-0.769227	-1.097406	-0.400590
C80	C	-0.269227	-0.597406	0.099410
C81	C	-0.822237	-1.077663	-0.335527
C82	C	-0.322237	-0.577663	0.164473
C83	C	-0.640503	-1.032355	-0.380705
C84	C	-0.140503	-0.532355	0.119295
C85	C	-0.954676	-1.032500	-0.380733
C86	C	-0.454676	-0.532500	0.119267
C87	C	-0.104261	-1.032487	-0.380729
C88	C	0.395739	-0.532487	0.119271
C89	C	-0.021713	-1.032532	-0.380742
C90	C	0.478287	-0.532532	0.119258
C91	C	-0.289815	-1.039799	-0.564574
C92	C	0.210185	-0.539799	-0.064574
C93	C	-0.286339	-1.042960	-0.642932
C94	C	0.213661	-0.542960	-0.142932
C95	C	-0.289893	-0.216262	-0.388116
C96	C	0.210107	0.283738	0.111884
C97	C	-0.286440	-0.294620	-0.391263
C98	C	0.213560	0.205380	0.108737
C99	C	-0.261463	-1.065632	-1.084199
C100	C	0.238537	-0.565632	-0.584199
C101	C	-0.264733	-1.062658	-1.010573
C102	C	0.235267	-0.562658	-0.510573
C103	C	-0.315839	-1.016056	-0.971936
C104	C	0.184161	-0.516056	-0.471936
C105	C	-0.363684	-0.972431	-1.006928
C106	C	0.136316	-0.472431	-0.506928
C107	C	-0.360417	-0.975409	-1.080552
C108	C	0.139583	-0.475409	-0.580552
C109	C	-0.330917	-1.002314	-0.751548
C110	C	0.169083	-0.502314	-0.251548
C111	C	-0.334179	-0.999337	-0.677918
C112	C	0.165821	-0.499337	-0.177918
C113	C	-0.235228	-1.089565	-0.681569
C114	C	0.264772	-0.589565	-0.181569
C115	C	-0.231963	-1.092537	-0.755194
C116	C	0.268037	-0.592537	-0.255194
C117	C	-0.279811	-1.048914	-0.790180
C118	C	0.220189	-0.548914	-0.290180
N119	N	-0.319181	-1.013013	-0.896679
N120	N	0.180819	-0.513013	-0.396679
N121	N	-0.276472	-1.051961	-0.865436
N122	N	0.223528	-0.551961	-0.365436
C123	C	-0.306042	-1.025033	-0.197537
C124	C	0.193958	-0.525033	0.302463
C125	C	-0.309303	-1.022009	-0.119186
C126	C	0.190697	-0.522009	0.380814
H127	H	-0.375812	-0.298110	-0.309598
H128	H	0.124188	0.201890	0.190402
H129	H	-0.843753	-1.115926	-0.297297
H130	H	-0.343753	-0.615926	0.202703
C131	C	-0.431709	-0.910489	-0.681703
C132	C	0.068291	-0.410489	-0.181703
C133	C	-0.390387	-0.948136	-0.635448
C134	C	0.109613	-0.448136	-0.135448
H135	H	-0.466416	-0.878892	-0.655482
H136	H	0.033584	-0.378892	-0.155482
H137	H	-0.399275	-0.884679	-0.709325
H138	H	0.100725	-0.384679	-0.209325
H139	H	-0.457469	-0.942367	-0.711664
H140	H	0.042531	-0.442367	-0.211664
H141	H	-0.364622	-0.916258	-0.605490
H142	H	0.135378	-0.416258	-0.105490
H143	H	-0.422826	-0.973948	-0.607813
H144	H	0.077174	-0.473948	-0.107813
H145	H	-0.369911	-0.431673	-0.314961
H146	H	0.130089	0.068327	0.185039
C147	C	-0.427598	-0.995821	-0.833901
C148	C	0.072402	-0.495821	-0.333901
C149	C	-0.383522	-0.954367	-0.789989
C150	C	0.116478	-0.454367	-0.289989
H151	H	-0.460081	-0.966219	-0.857628
H152	H	0.039919	-0.466219	-0.357628
H153	H	-0.396698	-1.023986	-0.867454
H154	H	0.103302	-0.523986	-0.367454
H155	H	-0.455914	-1.025362	-0.806398
H156	H	0.044086	-0.525362	-0.306398
H157	H	-0.355201	-0.924829	-0.817493
H158	H	0.144799	-0.424829	-0.317493
H159	H	-0.414425	-0.926189	-0.756431
H160	H	0.085575	-0.426189	-0.256431
H161	H	-0.744412	-1.152341	-0.417418
H162	H	-0.244412	-0.652341	0.082582
H163	H	-0.219842	-1.103576	-1.115652
H164	H	0.280158	-0.603576	-0.615652
C165	C	-0.212804	-0.850393	-0.458489
C166	C	0.287196	-0.350393	0.041511
C167	C	-0.205564	-0.778386	-0.465111
C168	C	0.294436	-0.278386	0.034889
H169	H	-0.178163	-0.876624	-0.490146
H170	H	0.321837	-0.376624	0.009854
H171	H	-0.203424	-0.860542	-0.411631
H172	H	0.296576	-0.360542	0.088369
H173	H	-0.261736	-0.862851	-0.469211
H174	H	0.238264	-0.362851	0.030789
H175	H	-0.156634	-0.765928	-0.454383
H176	H	0.343366	-0.265928	0.045617
H177	H	-0.214939	-0.768233	-0.511979
H178	H	0.285061	-0.268233	-0.011979
C179	C	-0.883901	-1.135919	-0.517796
C180	C	-0.383901	-0.635919	-0.017796
C181	C	-0.843778	-1.074771	-0.519971
C182	C	-0.343778	-0.574771	-0.019971
H183	H	-0.899417	-1.149849	-0.563622
H184	H	-0.399417	-0.649849	-0.063622
H185	H	-0.853313	-1.172473	-0.501672
H186	H	-0.353313	-0.672473	-0.001672
H187	H	-0.926192	-1.126901	-0.486628
H188	H	-0.426192	-0.626901	0.013372
H189	H	-0.801484	-1.083792	-0.551135
H190	H	-0.301484	-0.583792	-0.051135
H191	H	-0.874367	-1.038209	-0.536105
H192	H	-0.374367	-0.538209	-0.036105
C193	C	-0.166589	-1.152133	-1.021576
C194	C	0.333411	-0.652133	-0.521576
C195	C	-0.212142	-1.110606	-0.972116
C196	C	0.287858	-0.610606	-0.472116
H197	H	-0.134118	-1.181732	-0.997833
H198	H	0.365882	-0.681732	-0.497833
H199	H	-0.196488	-1.180242	-1.051372
H200	H	0.303512	-0.680242	-0.551372
H201	H	-0.138259	-1.122585	-1.049060
H202	H	0.361741	-0.622585	-0.549060
H203	H	-0.240477	-1.140154	-0.944635
H204	H	0.259523	-0.640154	-0.444635
H205	H	-0.182240	-1.082495	-0.942308
H206	H	0.317760	-0.582495	-0.442308
H207	H	-0.190350	-1.130488	-0.786648
H208	H	0.309650	-0.630488	-0.286648
C209	C	-0.412652	-0.544076	-0.275905
C210	C	0.087348	-0.044076	0.224095
C211	C	-0.419888	-0.616083	-0.269276
C212	C	0.080112	-0.116083	0.230724
H213	H	-0.447301	-0.517846	-0.244256
H214	H	0.052699	-0.017846	0.255744
H215	H	-0.363730	-0.531614	-0.265182
H216	H	0.136270	-0.031614	0.234818
H217	H	-0.422031	-0.533934	-0.322772
H218	H	0.077969	-0.033934	0.177228
H219	H	-0.410503	-0.626226	-0.222410
H220	H	0.089497	-0.126226	0.277590
H221	H	-0.468822	-0.628550	-0.279994
H222	H	0.031178	-0.128550	0.220006
H223	H	-0.758026	-0.995810	-0.260653
H224	H	-0.258026	-0.495810	0.239347
H225	H	-0.226002	-0.633802	-0.446448
H226	H	0.273998	-0.133802	0.053552
H227	H	-0.196275	-1.125081	-0.653076
H228	H	0.303725	-0.625081	-0.153076
C229	C	-0.697189	-0.972157	-0.529550
C230	C	-0.197189	-0.472157	-0.029550
C231	C	-0.743699	-0.935486	-0.477356
C232	C	-0.243699	-0.435486	0.022644
H233	H	-0.679149	-0.940243	-0.561331
H234	H	-0.179149	-0.440243	-0.061331
H235	H	-0.656578	-0.994068	-0.508313
H236	H	-0.156578	-0.494068	-0.008313
H237	H	-0.724304	-1.007025	-0.554410
H238	H	-0.224304	-0.507025	-0.054410
H239	H	-0.716582	-0.900622	-0.452491
H240	H	-0.216582	-0.400622	0.047509
H241	H	-0.784316	-0.913565	-0.498594
H242	H	-0.284316	-0.413565	0.001406
C243	C	-0.491959	-0.937126	-0.982847
C244	C	0.008041	-0.437126	-0.482847
C245	C	-0.419870	-0.921219	-0.964452
C246	C	0.080130	-0.421219	-0.464452
H247	H	-0.526646	-0.905514	-0.956619
H248	H	-0.026646	-0.405514	-0.456619
H249	H	-0.496859	-0.932646	-1.031694
H250	H	0.003141	-0.432646	-0.531694
H251	H	-0.501264	-0.984005	-0.972691
H252	H	-0.001264	-0.484005	-0.472691
H253	H	-0.410562	-0.874341	-0.974613
H254	H	0.089438	-0.374341	-0.474613
H255	H	-0.414967	-0.925692	-0.915594
H256	H	0.085033	-0.425692	-0.415594
C257	C	-0.134747	-0.403160	-0.529842
C258	C	0.365253	0.096840	-0.029842
C259	C	-0.176021	-0.449399	-0.492129
C260	C	0.323979	0.050601	0.007871
H261	H	-0.100095	-0.429394	-0.561485
H262	H	0.399905	0.070606	-0.061485
H263	H	-0.167219	-0.375528	-0.555606
H264	H	0.332781	0.124472	-0.055606
H265	H	-0.108925	-0.373205	-0.498009
H266	H	0.391075	0.126795	0.001991
H267	H	-0.201848	-0.479350	-0.523962
H268	H	0.298152	0.020650	-0.023962
H269	H	-0.143545	-0.477042	-0.466364
H270	H	0.356455	0.022958	0.033636
H271	H	-0.399374	-0.939887	-1.109037
H272	H	0.100626	-0.439887	-0.609037
H273	H	-0.850776	-0.912468	-0.344058
H274	H	-0.350776	-0.412468	0.155942
C275	C	-0.196472	-0.222060	-0.473477
C276	C	0.303528	0.277940	0.026523
C277	C	-0.182845	-0.294846	-0.485924
C278	C	0.317155	0.205154	0.014076
H279	H	-0.164027	-0.198334	-0.503118
H280	H	0.335973	0.301666	-0.003118
H281	H	-0.246459	-0.210395	-0.483233
H282	H	0.253541	0.289605	0.016767
H283	H	-0.188160	-0.208086	-0.425641
H284	H	0.311840	0.291914	0.074359
H285	H	-0.191162	-0.308821	-0.533759
H286	H	0.308838	0.191179	-0.033759
H287	H	-0.132846	-0.306516	-0.476174
H288	H	0.367154	0.193484	0.023826
H289	H	-0.399444	-0.760669	-0.287934
H290	H	0.100556	-0.260669	0.212066
