data_functionalizedCrystal
_audit_creation_method	'MofGen! by Chris Wilmer'
_symmetry_space_group_name_H-M	'P1'
_symmetry_Int_Tables_number	1
_symmetry_cell_setting	triclinic
loop_
_symmetry_equiv_pos_as_xyz
  x,y,z
_cell_length_a	16.109302
_cell_length_b	12.503567
_cell_length_c	16.109301
_cell_angle_alpha	86.482070
_cell_angle_beta	96.538369
_cell_angle_gamma	86.475616
loop_
_atom_site_label
_atom_site_type_symbol
_atom_site_fract_x
_atom_site_fract_y
_atom_site_fract_z
O1	O	1.107936	-0.089373	-0.102059
O2	O	1.607936	0.410627	0.397941
O3	O	0.865874	-0.089365	-0.115358
O4	O	1.365874	0.410635	0.384642
O5	O	0.993554	-0.089358	0.012322
O6	O	1.493554	0.410642	0.512322
O7	O	0.980256	-0.089379	-0.229739
O8	O	1.480256	0.410621	0.270261
O9	O	0.983940	0.089284	0.002709
O10	O	1.483940	0.589284	0.502709
O11	O	0.856259	0.089277	-0.124971
O12	O	1.356259	0.589277	0.375029
O13	O	1.098322	0.089269	-0.111672
O14	O	1.598322	0.589269	0.388328
Cu15	Cu	0.976413	0.105585	-0.119199
Cu16	Cu	1.476413	0.605585	0.380801
Cu17	Cu	0.987783	-0.105680	-0.107831
Cu18	Cu	1.487783	0.394320	0.392169
O19	O	0.970641	0.089263	-0.239351
O20	O	1.470641	0.589263	0.260649
C21	C	0.830092	-0.000042	-0.119626
C22	C	1.330092	0.499958	0.380374
C23	C	0.737796	-0.000039	-0.118010
C24	C	1.237796	0.499961	0.381990
N25	N	0.968422	0.254177	-0.127194
N26	N	1.468422	0.754177	0.372806
C27	C	0.520215	0.097328	-0.119515
C28	C	1.020215	0.597328	0.380485
C29	C	0.433495	0.097325	-0.117988
C30	C	0.933495	0.597325	0.382012
C31	C	0.443988	-0.097441	-0.107512
C32	C	0.943988	0.402559	0.392488
C33	C	0.530707	-0.097436	-0.109033
C34	C	1.030707	0.402564	0.390967
C35	C	0.568817	-0.000048	-0.115039
C36	C	1.068817	0.499952	0.384961
C37	C	0.395378	-0.000056	-0.111991
C38	C	0.895378	0.499944	0.388009
C39	C	0.301353	-0.000061	-0.110335
C40	C	0.801353	0.499939	0.389665
C41	C	0.662849	-0.000043	-0.116693
C42	C	1.162849	0.499957	0.383307
C43	C	1.007526	0.526612	-0.088076
C44	C	1.507526	1.026612	0.411924
C45	C	0.956674	0.473286	-0.138955
C46	C	1.456674	0.973286	0.361045
C47	C	0.963212	0.351362	-0.132409
C48	C	1.463212	0.851362	0.367591
C49	C	1.000989	0.648547	-0.094620
C50	C	1.500989	1.148547	0.405380
C51	C	1.134104	-0.000055	-0.107404
C52	C	1.634104	0.499945	0.392596
C53	C	1.226400	-0.000066	-0.109019
C54	C	1.726400	0.499934	0.390981
C55	C	0.988208	-0.000036	0.038490
C56	C	1.488208	0.499964	0.538490
C57	C	0.986593	-0.000035	0.130786
C58	C	1.486593	0.499965	0.630786
N59	N	0.995775	0.745728	-0.099839
N60	N	1.495775	1.245728	0.400161
C61	C	0.975987	-0.000061	-0.265520
C62	C	1.475987	0.499939	0.234480
C63	C	0.977603	-0.000070	-0.357815
C64	C	1.477603	0.499930	0.142185
C65	C	1.058601	-0.000054	0.353059
C66	C	1.558601	0.499946	0.853059
C67	C	1.057078	-0.000063	0.439780
C68	C	1.557078	0.499937	0.939780
C69	C	0.905589	-0.000054	0.419905
C70	C	1.405589	0.499946	0.919905
C71	C	0.907114	-0.000053	0.333187
C72	C	1.407114	0.499947	0.833187
C73	C	0.983622	-0.000047	0.299766
C74	C	1.483622	0.499953	0.799766
C75	C	0.980574	-0.000057	0.473205
C76	C	1.480574	0.499943	0.973205
C77	C	0.978921	-0.000067	0.567232
C78	C	1.478921	0.499933	1.067232
C79	C	0.985275	-0.000040	0.205733
C80	C	1.485275	0.499960	0.705733
H81	H	0.551242	0.176628	-0.124405
H82	H	1.051242	0.676628	0.375595
O83	O	0.380985	0.202291	-0.122877
O84	O	0.880985	0.702291	0.377123
H85	H	0.402459	0.249089	-0.069079
H86	H	0.902459	0.749089	0.430921
O87	O	0.402882	-0.202478	-0.101047
O88	O	0.902882	0.297522	0.398953
H89	H	0.334414	-0.186124	-0.100751
H90	H	0.834414	0.313876	0.399249
H91	H	0.843298	-0.000056	0.447127
H92	H	1.343298	0.499944	0.947127
H93	H	0.570281	-0.176736	-0.105385
H94	H	1.070281	0.323264	0.394615
H95	H	0.908228	0.519199	-0.187430
H96	H	1.408228	1.019199	0.312570
O97	O	1.071681	0.465810	-0.023850
O98	O	1.571681	0.965810	0.476150
H99	H	1.066807	0.378201	-0.028720
H100	H	1.566807	0.878201	0.471280
H101	H	1.120900	-0.000052	0.325851
H102	H	1.620900	0.499948	0.825851
H103	H	0.846053	-0.000050	0.289793
H104	H	1.346053	0.499950	0.789793
O105	O	1.137947	-0.000057	0.497263
O106	O	1.637947	0.499943	0.997263
H107	H	1.191400	-0.000042	0.459450
H108	H	1.691400	0.499958	0.959450
