data_functionalizedCrystal
_audit_creation_method	'MofGen! by Chris Wilmer'
_symmetry_space_group_name_H-M	'P1'
_symmetry_Int_Tables_number	1
_symmetry_cell_setting	triclinic
loop_
_symmetry_equiv_pos_as_xyz
  x,y,z
_cell_length_a	11.026607
_cell_length_b	9.616153
_cell_length_c	10.908878
_cell_angle_alpha	90.005681
_cell_angle_beta	84.335404
_cell_angle_gamma	90.001087
loop_
_atom_site_label
_atom_site_type_symbol
_atom_site_fract_x
_atom_site_fract_y
_atom_site_fract_z
O1	O	1.506478	0.115644	0.513763
O2	O	2.006478	0.615644	1.013763
O3	O	1.164978	0.115646	0.455261
O4	O	1.664978	0.615646	0.955261
O5	O	1.380998	0.115640	0.308045
O6	O	1.880998	0.615640	0.808045
O7	O	1.290458	0.115651	0.660980
O8	O	1.790458	0.615651	1.160980
O9	O	1.380994	-0.115652	0.308030
O10	O	1.880994	0.384348	0.808030
O11	O	1.164974	-0.115645	0.455247
O12	O	1.664974	0.384355	0.955247
O13	O	1.506474	-0.115647	0.513748
O14	O	2.006474	0.384353	1.013748
Zn15	Zn	1.335723	-0.152369	0.484495
Zn16	Zn	1.835723	0.347631	0.984495
Zn17	Zn	1.335729	0.152368	0.484515
Zn18	Zn	1.835729	0.652368	0.984515
O19	O	1.290454	-0.115641	0.660965
O20	O	1.790454	0.384359	1.160965
C21	C	1.121943	0.000001	0.444461
C22	C	1.621943	0.500001	0.944461
C23	C	0.993722	0.000001	0.412288
C24	C	1.493722	0.500001	0.912288
C25	C	0.901989	0.000005	0.501123
C26	C	1.401989	0.500005	1.001123
C27	C	0.769465	0.000006	0.467873
C28	C	1.269465	0.500006	0.967873
N29	N	1.335728	-0.360343	0.484483
N30	N	1.835728	0.139657	0.984483
C31	C	1.451566	-0.580674	0.406155
C32	C	1.951566	-0.080674	0.906155
C33	C	1.451389	-0.419506	0.405719
C34	C	1.951389	0.080494	0.905719
C35	C	1.220408	-0.418874	0.428562
C36	C	1.720408	0.081126	0.928562
C37	C	1.221119	-0.580092	0.427990
C38	C	1.721119	-0.080092	0.927990
C39	C	1.334074	-0.580214	0.618846
C40	C	1.834074	-0.080214	1.118846
C41	C	1.336992	-0.418985	0.618611
C42	C	1.836992	0.081015	1.118611
C43	C	1.549509	0.000001	0.524548
C44	C	2.049509	0.500001	1.024548
C45	C	1.677730	0.000009	0.556721
C46	C	2.177730	0.500009	1.056721
C47	C	1.389458	-0.000005	0.262152
C48	C	1.889458	0.499995	0.762152
C49	C	1.414656	0.000000	0.125424
C50	C	1.914656	0.500000	0.625424
N51	N	1.335735	0.360342	0.484519
N52	N	1.835735	0.860342	0.984519
C53	C	1.322712	0.000003	0.055162
C54	C	1.822712	0.500003	0.555162
C55	C	1.348753	0.000008	-0.086154
C56	C	1.848753	0.500008	0.413846
C57	C	1.281995	0.000006	0.706858
C58	C	1.781995	0.500006	1.206858
C59	C	1.256796	0.000011	0.843586
C60	C	1.756796	0.500011	1.343586
H61	H	0.921564	0.000000	0.601794
H62	H	1.421564	0.500000	1.101794
H63	H	1.158792	-0.000002	-0.111956
H64	H	1.658792	0.499998	0.388044
H65	H	0.749896	0.000038	0.367196
H66	H	1.249896	0.500038	0.867196
H67	H	0.697297	0.000003	0.657399
H68	H	1.197297	0.500003	1.157399
H69	H	0.974146	0.000034	0.311618
H70	H	1.474146	0.500034	0.811618
H71	H	1.537946	-0.379931	0.443153
H72	H	2.037946	0.120069	0.943153
H73	H	1.224716	-0.000005	0.099627
H74	H	1.724716	0.499995	0.599627
H75	H	1.446756	0.000003	-0.130614
H76	H	1.946756	0.500003	0.369386
H77	H	1.538479	-0.619434	0.443394
H78	H	2.038479	-0.119434	0.943394
H79	H	1.455425	-0.621207	0.307643
H80	H	1.955425	-0.121207	0.807643
H81	H	1.512652	-0.000005	0.080959
H82	H	2.012652	0.499995	0.580959
H83	H	1.218633	-0.617712	0.329171
H84	H	1.718633	-0.117712	0.829171
H85	H	1.455130	-0.380955	0.306609
H86	H	1.955130	0.119045	0.806609
H87	H	1.133672	-0.619113	0.481442
H88	H	1.633672	-0.119113	0.981442
H89	H	1.414972	-0.620862	0.665677
H90	H	1.914972	-0.120862	1.165677
H91	H	1.133214	-0.380554	0.482941
H92	H	1.633214	0.119446	0.982941
H93	H	1.217179	-0.378514	0.330686
H94	H	1.717179	0.121486	0.830686
H95	H	1.256109	-0.378709	0.681815
H96	H	1.756109	0.121291	1.181815
H97	H	1.421695	-0.380730	0.660397
H98	H	1.921695	0.119270	1.160397
H99	H	1.249305	-0.618366	0.677493
H100	H	1.749305	-0.118366	1.177493
