data_functionalizedCrystal
_audit_creation_method	'MofGen! by Chris Wilmer'
_symmetry_space_group_name_H-M	'P1'
_symmetry_Int_Tables_number	1
_symmetry_cell_setting	triclinic
loop_
_symmetry_equiv_pos_as_xyz
  x,y,z
_cell_length_a	12.759401
_cell_length_b	12.759400
_cell_length_c	21.395355
_cell_angle_alpha	89.986153
_cell_angle_beta	89.977704
_cell_angle_gamma	90.014696
loop_
_atom_site_label
_atom_site_type_symbol
_atom_site_fract_x
_atom_site_fract_y
_atom_site_fract_z
Zn1	Zn	1.606285	-0.418388	-0.354244
Zn2	Zn	1.606171	-0.594052	-0.249475
Zn3	Zn	1.430578	-0.418388	-0.249485
Zn4	Zn	1.430576	-0.594025	-0.354219
O5	O	1.518402	-0.506213	-0.301856
O6	O	1.753291	-0.441701	-0.340352
O7	O	1.582831	-0.570761	-0.161798
O8	O	1.453935	-0.271367	-0.263396
O9	O	1.753207	-0.570761	-0.263379
O10	O	1.583026	-0.271367	-0.340362
O11	O	1.453824	-0.441702	-0.161806
O12	O	1.283557	-0.441675	-0.263372
O13	O	1.453931	-0.570715	-0.441901
O14	O	1.283555	-0.570715	-0.340320
O15	O	1.583024	-0.441675	-0.441919
O16	O	1.582829	-0.741070	-0.263355
O17	O	1.453820	-0.741050	-0.340310
C18	C	1.245435	-0.506193	-0.301845
C19	C	1.128658	-0.506210	-0.301855
C20	C	0.964098	-0.573520	-0.341869
C21	C	1.073822	-0.573506	-0.341859
C22	C	1.073765	-0.438930	-0.261853
C23	C	0.964043	-0.438950	-0.261861
C24	C	0.909268	-0.640814	-0.381881
C25	C	0.964153	-0.708095	-0.421882
C26	C	1.073877	-0.708082	-0.421872
C27	C	1.128716	-0.640786	-0.381861
C28	C	1.518340	-0.779181	-0.301843
C29	C	1.518410	-0.895957	-0.301858
C30	C	1.585659	-0.950795	-0.261832
C31	C	1.585724	-1.060519	-0.261851
C32	C	1.451280	-1.060558	-0.341925
C33	C	1.451222	-0.950836	-0.341908
C34	C	1.652847	-0.895916	-0.221782
C35	C	1.720101	-0.950753	-0.181752
C36	C	1.720166	-1.060477	-0.181771
C37	C	1.652976	-1.115364	-0.221821
C38	C	1.792436	-0.506234	-0.301867
C39	C	1.909212	-0.506243	-0.301872
C40	C	1.518490	-0.506192	-0.465279
C41	C	1.518527	-0.506183	-0.534920
C42	C	1.518494	-0.232180	-0.301883
C43	C	1.518533	-0.115403	-0.301894
C44	C	1.585743	-0.438989	-0.567644
C45	C	1.585741	-0.438944	-0.633079
C46	C	1.518535	-0.506111	-0.665789
C47	C	1.451306	-0.573310	-0.633057
C48	C	1.451302	-0.573346	-0.567623
C49	C	1.510218	-0.600710	-0.769459
C50	C	1.510229	-0.600676	-0.834892
C51	C	1.518542	-0.506000	-0.867610
C52	C	1.526864	-0.411355	-0.834886
C53	C	1.526860	-0.411391	-0.769452
C54	C	1.518531	-0.506080	-0.736741
C55	C	1.585759	-0.438752	-0.971286
C56	C	1.585751	-0.438705	-1.036723
C57	C	1.451321	-0.573080	-1.036699
C58	C	1.451324	-0.573118	-0.971264
C59	C	1.518549	-0.505955	-0.938561
C60	C	1.518376	-0.506159	-0.139068
C61	C	1.518542	-0.505872	-0.069427
H62	H	0.919497	-0.762890	-0.454454
H63	H	1.503168	-0.677787	-0.742826
O64	O	1.651091	-0.373569	-1.068584
C65	C	1.718940	-0.433368	-1.106446
H66	H	1.681858	-0.512979	-1.116243
H67	H	1.733025	-0.390547	-1.152461
H68	H	1.796799	-0.444931	-1.081252
H69	H	1.396462	-0.906187	-0.374502
H70	H	1.640474	-0.384221	-0.659728
O71	O	1.386157	-1.113988	-0.380853
C72	C	1.445974	-1.177357	-0.421371
H73	H	1.525621	-1.193748	-0.399317
H74	H	1.403215	-1.254542	-0.429755
H75	H	1.457455	-1.135027	-0.467804
H76	H	1.774811	-0.906059	-0.149148
O77	O	0.802683	-0.640991	-0.381952
C78	C	0.766054	-0.714788	-0.425855
H79	H	0.829281	-0.776188	-0.434563
H80	H	0.692623	-0.754616	-0.406919
H81	H	0.746639	-0.673237	-0.471584
H82	H	1.118423	-0.384140	-0.229279
O83	O	1.386002	-0.638496	-0.939569
C84	C	1.326661	-0.697751	-0.982468
H85	H	1.369696	-0.701371	-1.029121
H86	H	1.315420	-0.780537	-0.963563
H87	H	1.246883	-0.659263	-0.989410
O88	O	1.127033	-0.773472	-0.460783
C89	C	1.055105	-0.832886	-0.496085
H90	H	0.976898	-0.789869	-0.498302
H91	H	1.086848	-0.844207	-0.545437
H92	H	1.043406	-0.912626	-0.473062
O93	O	0.910610	-0.373534	-0.223100
C94	C	0.847203	-0.305761	-0.258852
H95	H	0.830802	-0.342943	-0.306295
H96	H	0.770026	-0.291622	-0.233352
H97	H	0.889507	-0.227917	-0.265817
H98	H	1.652799	-0.806573	-0.221760
O99	O	1.785669	-1.113600	-0.142923
C100	C	1.890337	-1.086663	-0.156693
H101	H	1.892401	-1.006986	-0.180781
H102	H	1.937495	-1.082864	-0.111505
H103	H	1.925753	-1.148357	-0.188928
H104	H	1.218060	-0.640787	-0.381852
O105	O	1.652849	-1.221951	-0.221838
C106	C	1.552199	-1.258708	-0.205686
H107	H	1.491636	-1.195520	-0.216348
H108	H	1.533545	-1.332105	-0.233949
H109	H	1.550027	-1.278223	-0.153700
H110	H	1.640481	-0.384298	-0.541021
O111	O	1.534896	-0.319363	-0.737761
C112	C	1.542262	-0.235788	-0.780663
H113	H	1.506958	-0.260629	-0.827303
H114	H	1.497658	-0.165184	-0.761742
H115	H	1.628125	-0.213970	-0.787636
H116	H	1.533635	-0.334261	-0.861523
H117	H	1.396583	-0.627995	-0.659694
H118	H	1.640492	-0.384058	-0.944658
H119	H	1.396590	-0.627759	-1.063331
O120	O	1.502283	-0.692693	-0.866603
C121	C	1.587164	-0.758156	-0.850637
H122	H	1.619505	-0.733882	-0.803135
H123	H	1.559326	-0.842979	-0.848390
H124	H	1.651297	-0.750542	-0.887476
O125	O	1.385979	-0.638728	-0.535929
C126	C	1.326637	-0.697984	-0.578827
H127	H	1.369665	-0.701594	-0.625483
H128	H	1.315407	-0.780773	-0.559925
H129	H	1.246855	-0.659503	-0.585762
