data_functionalizedCrystal
_audit_creation_method	'MofGen! by Chris Wilmer'
_symmetry_space_group_name_H-M	'P1'
_symmetry_Int_Tables_number	1
_symmetry_cell_setting	triclinic
loop_
_symmetry_equiv_pos_as_xyz
  x,y,z
_cell_length_a	26.809956
_cell_length_b	14.044220
_cell_length_c	14.044220
_cell_angle_alpha	93.188878
_cell_angle_beta	90.003850
_cell_angle_gamma	89.995344
loop_
_atom_site_label
_atom_site_type_symbol
_atom_site_fract_x
_atom_site_fract_y
_atom_site_fract_z
O1	O	0.041429	-1.277174	-0.230155
O2	O	0.541429	-0.777174	0.269845
O3	O	0.041441	-1.000503	-0.221849
O4	O	0.541441	-0.500503	0.278151
O5	O	0.041430	-1.134686	-0.087666
O6	O	0.541430	-0.634686	0.412334
O7	O	0.041440	-1.142991	-0.364338
O8	O	0.541440	-0.642991	0.135662
O9	O	-0.041529	-1.134660	-0.087686
O10	O	0.458471	-0.634660	0.412314
O11	O	-0.041518	-1.000477	-0.221869
O12	O	0.458482	-0.500477	0.278131
O13	O	-0.041531	-1.277149	-0.230175
O14	O	0.458469	-0.777149	0.269825
Zn15	Zn	-0.054696	-1.138809	-0.226025
Zn16	Zn	0.445304	-0.638809	0.273975
Zn17	Zn	0.054606	-1.138843	-0.225999
Zn18	Zn	0.554606	-0.638843	0.274001
O19	O	-0.041520	-1.142966	-0.364358
O20	O	0.458480	-0.642966	0.135642
C21	C	-0.000037	-0.964868	-0.218223
C22	C	0.499963	-0.464868	0.281777
C23	C	-0.000032	-0.858725	-0.207379
C24	C	0.499968	-0.358725	0.292621
N25	N	-0.129292	-1.138792	-0.226043
N26	N	0.370708	-0.638792	0.273957
C27	C	-0.000050	-1.131037	-0.052054
C28	C	0.499950	-0.631037	0.447946
C29	C	-0.000050	-1.120193	0.054088
C30	C	0.499950	-0.620193	0.554088
C31	C	-0.473923	-1.198252	-0.166598
C32	C	0.026077	-0.698252	0.333402
C33	C	-0.682801	-1.198273	-0.166585
C34	C	-0.182801	-0.698273	0.333415
O35	O	-0.709809	-1.248790	-0.116045
O36	O	-0.209809	-0.748790	0.383955
N37	N	-0.708919	-1.138846	-0.225978
N38	N	-0.208919	-0.638846	0.274022
C39	C	-0.682815	-1.079405	-0.285374
C40	C	-0.182815	-0.579405	0.214626
O41	O	-0.709823	-1.028852	-0.335884
O42	O	-0.209823	-0.528852	0.164116
C43	C	-0.473938	-1.079379	-0.285381
C44	C	0.026062	-0.579379	0.214619
C45	C	-0.447822	-1.138817	-0.225991
C46	C	0.052178	-0.638817	0.274009
C47	C	-0.447807	-1.257684	-0.107212
C48	C	0.052193	-0.757684	0.392788
C49	C	-0.395591	-1.257682	-0.107220
C50	C	0.104409	-0.757682	0.392780
C51	C	-0.369490	-1.198248	-0.166613
C52	C	0.130510	-0.698248	0.333387
C53	C	-0.395606	-1.138815	-0.225999
C54	C	0.104394	-0.638815	0.274001
C55	C	-0.447835	-1.019933	-0.344771
C56	C	0.052165	-0.519933	0.155229
C57	C	-0.395613	-1.019931	-0.344766
C58	C	0.104387	-0.519931	0.155234
C59	C	-0.369497	-1.079369	-0.285376
C60	C	0.130503	-0.579369	0.214624
C61	C	-0.317289	-1.079378	-0.285399
C62	C	0.182711	-0.579378	0.214601
N63	N	-0.291171	-1.138805	-0.226006
N64	N	0.208829	-0.638805	0.273994
C65	C	-0.317271	-1.198240	-0.166613
C66	C	0.182729	-0.698240	0.333387
C67	C	-0.792478	-1.079424	-0.285367
C68	C	-0.292478	-0.579424	0.214633
C69	C	-0.844697	-1.079431	-0.285367
C70	C	-0.344697	-0.579431	0.214633
C71	C	-0.844679	-1.198299	-0.166577
C72	C	-0.344679	-0.698299	0.333423
C73	C	-0.792459	-1.198296	-0.166583
C74	C	-0.292459	-0.698296	0.333417
C75	C	-0.766360	-1.138851	-0.225974
C76	C	-0.266360	-0.638851	0.274026
C77	C	-0.207613	-1.198232	-0.166634
C78	C	0.292387	-0.698232	0.333366
C79	C	-0.155392	-1.198227	-0.166650
C80	C	0.344608	-0.698227	0.333350
C81	C	-0.155415	-1.079356	-0.285436
C82	C	0.344585	-0.579356	0.214564
C83	C	-0.207631	-1.079364	-0.285424
C84	C	0.292369	-0.579364	0.214576
C85	C	-0.233729	-1.138805	-0.226016
C86	C	0.266271	-0.638805	0.273984
O87	O	-0.290249	-1.028881	-0.335905
O88	O	0.209751	-0.528881	0.164095
O89	O	-0.290254	-1.248770	-0.116096
O90	O	0.209746	-0.748770	0.383904
C91	C	-0.526139	-1.198254	-0.166590
C92	C	-0.026139	-0.698254	0.333410
C93	C	-0.552255	-1.138822	-0.225976
C94	C	-0.052255	-0.638822	0.274024
C95	C	-0.526155	-1.079387	-0.285369
C96	C	-0.026155	-0.579387	0.214631
C97	C	-0.604474	-1.138829	-0.225976
C98	C	-0.104474	-0.638829	0.274024
C99	C	-0.630574	-1.198264	-0.166582
C100	C	-0.130574	-0.698264	0.333418
C101	C	-0.604456	-1.257691	-0.107190
C102	C	-0.104456	-0.757691	0.392810
C103	C	-0.552240	-1.257689	-0.107197
C104	C	-0.052240	-0.757689	0.392803
C105	C	-0.552273	-1.019960	-0.344762
C106	C	-0.052273	-0.519960	0.155238
C107	C	-0.604489	-1.019967	-0.344750
C108	C	-0.104489	-0.519967	0.155250
C109	C	-0.630590	-1.079402	-0.285357
C110	C	-0.130590	-0.579402	0.214643
N111	N	0.129202	-1.138866	-0.225974
N112	N	0.629202	-0.638866	0.274026
C113	C	-0.000052	-1.312783	-0.233800
C114	C	0.499948	-0.812783	0.266200
C115	C	-0.000053	-1.418926	-0.244645
C116	C	0.499947	-0.918926	0.255355
C117	C	-0.000043	-0.664388	-0.187553
C118	C	0.499957	-0.164388	0.312447
C119	C	-0.000042	-0.613258	-0.264467
C120	C	0.499958	-0.113258	0.235533
C121	C	-0.000048	-0.505122	-0.253435
C122	C	0.499952	-0.005122	0.246565
C123	C	-0.000037	-0.772534	-0.198583
C124	C	0.499963	-0.272534	0.301417
C125	C	-0.000039	-1.146614	-0.399969
C126	C	0.499961	-0.646614	0.100031
C127	C	-0.000036	-1.157459	-0.506112
C128	C	0.499964	-0.657459	-0.006112
C129	C	-0.000042	-1.100366	0.248426
C130	C	0.499958	-0.600366	0.748426
C131	C	-0.000044	-1.177281	0.299556
C132	C	0.499956	-0.677281	0.799556
C133	C	-0.000039	-1.166249	0.407692
C134	C	0.499961	-0.666249	0.907692
C135	C	-0.000046	-1.111397	0.140280
C136	C	0.499954	-0.611397	0.640280
H137	H	-0.134131	-1.246632	-0.118288
H138	H	0.365869	-0.746632	0.381712
C139	C	-0.000055	-1.277433	0.248979
C140	C	0.499945	-0.777433	0.748979
N141	N	-0.000067	-1.352864	0.210881
N142	N	0.499933	-0.852864	0.710881
H143	H	-0.374365	-0.971521	-0.393128
H144	H	0.125635	-0.471521	0.106872
C145	C	-0.000044	-1.000222	0.299003
C146	C	0.499956	-0.500222	0.799003
N147	N	-0.000049	-0.924793	0.337108
N148	N	0.499951	-0.424793	0.837108
H149	H	-0.625749	-0.971568	-0.393121
H150	H	-0.125749	-0.471568	0.106879
C151	C	-0.000045	-0.613811	-0.087408
C152	C	0.499955	-0.113811	0.412592
N153	N	-0.000044	-0.575706	-0.011979
N154	N	0.499956	-0.075706	0.488021
C155	C	-0.126694	-1.013978	-0.350762
C156	C	0.373306	-0.513978	0.149238
N157	N	-0.105061	-0.964728	-0.399960
N158	N	0.394939	-0.464728	0.100040
H159	H	-0.530980	-1.306089	-0.058836
H160	H	-0.030980	-0.806089	0.441164
H161	H	-0.000037	-0.650697	-0.338600
H162	H	0.499963	-0.150697	0.161400
H163	H	-0.374330	-1.306079	-0.058857
H164	H	0.125670	-0.806079	0.441143
C165	C	-0.236314	-1.263622	-0.101284
C166	C	0.263686	-0.763622	0.398716
N167	N	-0.257930	-1.312879	-0.052067
N168	N	0.242070	-0.812879	0.447933
H169	H	-0.771199	-1.246695	-0.118222
H170	H	-0.271199	-0.746695	0.381778
C171	C	-0.476509	-1.323065	-0.041861
C172	C	0.023491	-0.823065	0.458139
N173	N	-0.498125	-1.372317	0.007364
N174	N	0.001875	-0.872317	0.507364
C175	C	-0.873419	-1.014052	-0.350708
C176	C	-0.373419	-0.514052	0.149292
N177	N	-0.895050	-0.964801	-0.399919
N178	N	-0.395050	-0.464801	0.100081
C179	C	-0.873399	-1.263672	-0.101238
C180	C	-0.373399	-0.763672	0.398762
N181	N	-0.895034	-1.312902	-0.052022
N182	N	-0.395034	-0.812902	0.447978
H183	H	-0.771231	-1.031016	-0.333733
H184	H	-0.271231	-0.531016	0.166267
H185	H	-0.228895	-1.030974	-0.333795
H186	H	0.271105	-0.530974	0.166205
C187	C	-0.476551	-0.954538	-0.410098
C188	C	0.023449	-0.454538	0.089902
N189	N	-0.498179	-0.905274	-0.459302
N190	N	0.001821	-0.405274	0.040698
H191	H	-0.531026	-0.971559	-0.393126
H192	H	-0.031026	-0.471559	0.106874
H193	H	-0.625716	-1.306089	-0.058833
H194	H	-0.125716	-0.806089	0.441167
