data_functionalizedCrystal
_audit_creation_method	'MofGen! by Chris Wilmer'
_symmetry_space_group_name_H-M	'P1'
_symmetry_Int_Tables_number	1
_symmetry_cell_setting	triclinic
loop_
_symmetry_equiv_pos_as_xyz
  x,y,z
_cell_length_a	10.686285
_cell_length_b	18.101398
_cell_length_c	10.686551
_cell_angle_alpha	94.392576
_cell_angle_beta	99.084519
_cell_angle_gamma	85.630091
loop_
_atom_site_label
_atom_site_type_symbol
_atom_site_fract_x
_atom_site_fract_y
_atom_site_fract_z
Zn1	Zn	-0.450241	1.183116	0.678883
Zn2	Zn	-0.678821	1.183057	0.450381
Zn3	Zn	-0.466586	1.050446	0.466659
Zn4	Zn	-0.662431	1.068098	0.662597
O5	O	-0.564520	1.121179	0.564630
O6	O	-0.480582	1.286742	0.648576
O7	O	-0.664368	1.158053	0.274911
O8	O	-0.286795	1.060682	0.508440
O9	O	-0.648518	1.286698	0.480696
O10	O	-0.274786	1.158155	0.664360
O11	O	-0.508440	1.060624	0.286870
O12	O	-0.492547	0.949153	0.492647
O13	O	-0.620584	1.090768	0.842387
O14	O	-0.636433	0.962122	0.636601
O15	O	-0.464689	1.175271	0.854352
O16	O	-0.854270	1.175169	0.464903
O17	O	-0.842228	1.090710	0.620817
C18	C	-0.564486	0.928767	0.564624
C19	C	-0.564499	0.846454	0.564649
C20	C	-0.564523	0.695747	0.564645
C21	C	-0.655215	0.672578	0.655054
C22	C	-0.655635	0.586964	0.654734
C23	C	-0.564546	0.547365	0.564644
C24	C	-0.610536	0.574337	0.427978
C25	C	-0.611192	0.660035	0.428491
C26	C	-0.427688	0.660065	0.609751
C27	C	-0.428196	0.574568	0.612644
C28	C	-0.564558	0.463506	0.564635
C29	C	-0.564515	0.779606	0.564645
C30	C	-0.894303	1.134870	0.539354
C31	C	-1.035382	1.140796	0.528584
C32	C	-0.233447	1.107456	0.590032
C33	C	-0.092364	1.101608	0.600857
C34	C	-0.538985	1.134995	0.895715
C35	C	-0.528103	1.140883	1.036803
C36	C	-0.564555	1.314343	0.564637
C37	C	-0.564570	1.396658	0.564640
C38	C	-0.589864	1.107455	0.234840
C39	C	-0.600388	1.101696	0.093780
H40	H	-0.546953	0.547971	0.358319
H41	H	-1.094534	1.178877	0.458453
F42	F	-0.740302	0.549931	0.379127
H43	H	-0.393693	0.557251	0.713273
H44	H	-0.670603	1.063645	1.034623
H45	H	-0.457892	1.178942	1.095966
H46	H	-0.711504	0.682852	0.391542
F47	F	-0.334128	0.538812	0.534006
H48	H	-0.548511	0.674770	0.358267
F49	F	-0.616469	0.703763	0.787439
F50	F	-0.616558	0.563704	0.786745
F51	F	-0.787907	0.564315	0.614606
F52	F	-0.786709	0.704827	0.615328
H53	H	-0.387696	0.684323	0.708265
F54	F	-0.339212	0.678686	0.523853
F55	F	-1.015059	1.051829	0.692509
