data_functionalizedCrystal
_audit_creation_method	'MofGen! by Chris Wilmer'
_symmetry_space_group_name_H-M	'P1'
_symmetry_Int_Tables_number	1
_symmetry_cell_setting	triclinic
loop_
_symmetry_equiv_pos_as_xyz
  x,y,z
_cell_length_a	23.096457
_cell_length_b	20.919151
_cell_length_c	20.919356
_cell_angle_alpha	60.189941
_cell_angle_beta	93.151007
_cell_angle_gamma	58.213384
loop_
_atom_site_label
_atom_site_type_symbol
_atom_site_fract_x
_atom_site_fract_y
_atom_site_fract_z
Zr1	Zr	0.514557	0.741727	-0.125048
O2	O	0.409574	0.883103	-0.235090
O3	O	0.551899	0.600353	-0.085893
O4	O	0.537805	0.741728	-0.227274
O5	O	0.428917	0.741728	0.011649
O6	O	0.633087	0.741725	-0.227276
O7	O	0.423668	0.741729	-0.093708
O8	O	0.658299	0.488832	0.025629
O9	O	0.403705	0.994620	-0.241257
O10	O	0.632700	0.658499	-0.075745
O11	O	0.565509	0.658500	0.002883
O12	O	0.548915	0.824950	-0.163575
O13	O	0.481724	0.824951	-0.084947
Zr14	Zr	0.674893	0.741721	0.042981
Zr15	Zr	0.666521	0.741723	-0.125051
Zr16	Zr	0.522929	0.741725	0.042985
Zr17	Zr	0.505197	0.919584	-0.134884
Zr18	Zr	0.684252	0.563864	0.052817
O19	O	0.637551	0.883094	0.003826
O20	O	0.625647	0.883097	-0.235095
O21	O	0.421477	0.883100	0.003831
O22	O	0.779876	0.600344	0.153023
O23	O	0.767972	0.600347	-0.085897
O24	O	0.563802	0.600350	0.153028
O25	O	0.760533	0.741720	-0.093716
O26	O	0.651645	0.741720	0.145208
O27	O	0.556363	0.741723	0.145210
O28	O	0.765782	0.741718	0.011642
O29	O	0.524496	0.994617	-0.241260
O30	O	0.664953	0.488830	0.159193
O31	O	0.785745	0.488827	0.159190
O32	O	0.779090	0.488829	0.025627
O33	O	0.410360	0.994619	-0.107693
O34	O	0.531151	0.994615	-0.107696
O35	O	0.640535	0.658497	0.081509
O36	O	0.707725	0.658496	0.002880
O37	O	0.623941	0.824947	-0.084950
O38	O	0.556750	0.824948	-0.006321
C39	C	0.606432	0.519252	-0.028730
C40	C	0.610406	0.443747	-0.024555
C41	C	0.553652	0.469734	-0.084045
C42	C	0.557385	0.398803	-0.080150
C43	C	0.617870	0.301885	-0.016761
C44	C	0.674630	0.275898	0.042733
C45	C	0.670898	0.346829	0.038834
C46	C	0.632072	0.084644	-0.001917
C47	C	0.635798	0.013713	0.001979
C48	C	0.518554	0.136624	-0.120906
C49	C	0.514825	0.207550	-0.124796
C50	C	0.571586	0.181557	-0.065305
C51	C	0.621687	0.229380	-0.012776
C52	C	0.567772	0.254062	-0.069294
C53	C	0.404641	0.741729	-0.041029
C54	C	0.340128	0.741731	-0.041028
C55	C	0.306933	0.741739	-0.099074
C56	C	0.246321	0.741730	-0.099073
C57	C	0.218897	0.741733	-0.041033
C58	C	0.252103	0.741719	0.017023
C59	C	0.312718	0.741719	0.017026
N60	N	0.098565	0.795988	-0.026462
N61	N	0.040982	0.795991	-0.026470
C62	C	0.036267	0.741733	-0.041037
N63	N	0.091305	0.687485	-0.055613
N64	N	0.148891	0.687486	-0.055609
C65	C	0.153170	0.741733	-0.041030
C66	C	-0.062650	0.741730	-0.099086
C67	C	-0.123259	0.741715	-0.099080
C68	C	-0.117481	0.741715	0.017013
C69	C	-0.056868	0.741720	0.017010
C70	C	-0.029458	0.741732	-0.041044
C71	C	0.784809	0.741718	-0.041037
C72	C	0.849322	0.741717	-0.041039
C73	C	0.584253	0.741726	-0.251216
C74	C	0.580699	0.741727	-0.322551
C75	C	0.583017	0.964195	-0.053336
C76	C	0.579044	1.039700	-0.057512
C77	C	0.557933	0.741719	-0.725996
C78	C	0.561281	0.741715	-0.658968
C79	C	0.615445	0.741719	-0.625465
C80	C	0.666268	0.741717	-0.658989
C81	C	0.662923	0.741714	-0.726012
C82	C	0.628176	0.741722	-0.423097
C83	C	0.631517	0.741728	-0.356071
C84	C	0.526530	0.741725	-0.356054
C85	C	0.523186	0.741727	-0.423081
C86	C	0.574012	0.741720	-0.456596
C87	C	0.618868	0.741718	-0.556954
C88	C	0.570592	0.741714	-0.525102
C89	C	0.605197	0.741721	0.169150
C90	C	0.608751	0.741720	0.240484
C91	C	0.796516	0.519247	-0.028734
C92	C	0.865003	0.443740	-0.024560
C93	C	0.616904	0.519249	0.181453
C94	C	0.624431	0.443743	0.256963
C95	C	0.806988	0.519244	0.181449
C96	C	0.879029	0.443736	0.256957
C97	C	0.382461	0.964204	-0.263515
C98	C	0.310421	1.039711	-0.339024
C99	C	0.392933	0.964201	-0.053332
C100	C	0.324447	1.039707	-0.057506
C101	C	0.572546	0.964198	-0.263519
C102	C	0.565018	1.039704	-0.339029
C103	C	0.858002	0.408283	-0.063649
C104	C	0.922345	0.337346	-0.059743
C105	C	0.993688	0.301863	-0.016743
C106	C	1.000688	0.337327	0.022346
C107	C	0.936345	0.408267	0.018435
C108	C	0.667129	0.408283	0.333472
C109	C	0.674199	0.337348	0.404427
C110	C	0.638575	0.301868	0.398872
C111	C	0.595872	0.337335	0.322355
C112	C	0.588798	0.408274	0.251401
C113	C	0.947939	0.408277	0.251373
C114	C	1.015633	0.337339	0.322315
C115	C	1.014416	0.301858	0.398839
C116	C	0.945498	0.337324	0.404421
C117	C	0.877805	0.408265	0.333480
C118	C	0.241510	1.075179	-0.333440
C119	C	0.173815	1.146139	-0.404383
C120	C	0.175032	1.181624	-0.480907
C121	C	0.243950	1.146153	-0.486489
C122	C	0.311643	1.075200	-0.415548
C123	C	0.331447	1.075172	-0.018425
C124	C	0.267102	1.146128	-0.022351
C125	C	0.195758	1.181614	-0.065353
C126	C	0.188759	1.146146	-0.104439
C127	C	0.253103	1.075196	-0.100518
C128	C	0.600652	1.075161	-0.333448
C129	C	0.593594	1.146097	-0.404390
C130	C	0.550897	1.181580	-0.480914
C131	C	0.515263	1.146116	-0.486493
C132	C	0.522325	1.075176	-0.415551
H133	H	0.685054	-0.065206	0.053602
C134	C	0.779530	0.447307	-0.110953
H135	H	0.742205	0.494632	-0.107685
H136	H	0.770067	0.474989	-0.166480
H137	H	0.777904	0.396372	-0.087867
C138	C	0.944056	0.447252	0.061447
H139	H	0.995764	0.415947	0.087620
H140	H	0.916668	0.514232	0.022332
H141	H	0.924510	0.435605	0.100940
H142	H	0.696140	0.437163	0.338010
C143	C	0.337091	0.741736	-0.162921
H144	H	0.377944	0.741739	-0.154610
H145	H	0.353946	0.686153	-0.157440
H146	H	0.297989	0.797329	-0.216104
H147	H	0.708975	0.308479	0.466723
H148	H	0.367751	1.046322	-0.420103
H149	H	0.272816	1.174994	0.009482
H150	H	0.821699	0.437127	0.338038
C151	C	0.240156	1.036169	-0.249274
H152	H	0.189415	1.067473	-0.256121
H153	H	0.267165	0.969190	-0.217710
H154	H	0.263038	1.047803	-0.222071
H155	H	0.644341	0.244105	0.456653
H156	H	1.069542	0.244093	0.456597
C157	C	0.468292	1.185162	-0.570672
H158	H	0.469186	1.232497	-0.612117
H159	H	0.488997	1.134246	-0.573753
H160	H	0.417704	1.212856	-0.578084
H161	H	0.662968	0.741724	-0.529672
H162	H	0.511170	0.419971	-0.128593
H163	H	0.519902	0.741714	-0.631676
H164	H	1.046074	0.244098	-0.013564
C165	C	0.541837	0.447268	0.167244
H166	H	0.542718	0.494603	0.125776
H167	H	0.562560	0.396325	0.164197
H168	H	0.491251	0.474949	0.159838
C169	C	0.914633	0.298338	-0.102733
H170	H	0.862928	0.329622	-0.128887
H171	H	0.934177	0.309969	-0.142227
H172	H	0.942027	0.231354	-0.063599
C173	C	0.110280	1.185180	-0.151730
H174	H	0.072968	1.232505	-0.148455
H175	H	0.100801	1.212862	-0.207261
H176	H	0.108649	1.134248	-0.128634
C177	C	0.483115	1.036193	-0.421702
H178	H	0.456670	1.067497	-0.477439
H179	H	0.519882	0.969212	-0.393562
H180	H	0.448585	1.047840	-0.397913
H181	H	0.117706	1.175008	-0.399822
C182	C	0.511028	0.741684	-0.561936
H183	H	0.481244	0.741672	-0.532370
H184	H	0.479558	0.797257	-0.617416
H185	H	0.535542	0.686082	-0.558733
H186	H	-0.029841	0.741719	0.064274
H187	H	0.518528	0.332975	-0.120907
H188	H	0.717113	0.325663	0.087277
H189	H	0.566869	0.308437	0.317844
H190	H	0.485151	0.741729	-0.328759
C191	C	0.245279	1.185185	-0.570668
H192	H	0.195091	1.232513	-0.612111
H193	H	0.268714	1.212864	-0.578094
H194	H	0.272842	1.134253	-0.573736
C195	C	1.079169	0.298281	0.069649
H196	H	1.116481	0.250946	0.066384
H197	H	1.080812	0.349198	0.046578
H198	H	1.088636	0.270588	0.125183
H199	H	0.247393	1.046323	-0.132340
C200	C	0.949288	0.447300	0.167204
H201	H	0.899107	0.494625	0.125746
H202	H	0.972721	0.474979	0.159795
H203	H	0.976865	0.396364	0.164142
C204	C	-0.032486	0.741723	-0.162931
H205	H	-0.060931	0.741709	-0.197493
H206	H	-0.036938	0.797306	-0.194677
H207	H	0.019023	0.686130	-0.136003
H208	H	0.119906	1.239399	-0.538666
H209	H	0.389534	1.046285	0.016597
H210	H	0.143372	1.239386	-0.068539
H211	H	0.465581	0.286463	-0.176426
C212	C	0.543127	1.259620	-0.558943
H213	H	0.570461	1.275657	-0.544652
H214	H	0.562712	1.236377	-0.587987
H215	H	0.491411	1.314983	-0.592323
H216	H	0.635419	1.046282	-0.271145
H217	H	0.675626	0.741732	-0.328797
C218	C	0.632785	1.185106	-0.398239
H219	H	0.659211	1.153823	-0.342503
H220	H	0.667314	1.173475	-0.422024
H221	H	0.595998	1.252090	-0.426384
H222	H	1.071742	0.308469	0.317755
H223	H	0.504391	0.548647	-0.135656
H224	H	0.472343	0.157776	-0.169341
H225	H	0.678291	0.063469	0.046524
H226	H	0.723881	0.196980	0.094343
C227	C	0.944170	0.298280	0.488600
H228	H	0.994358	0.250943	0.530044
H229	H	0.916599	0.349196	0.491682
H230	H	0.920743	0.270587	0.496014
H231	H	0.513824	0.741722	-0.753272
H232	H	0.219288	0.741736	-0.146343
C233	C	0.221937	0.741727	0.080863
H234	H	0.181076	0.741739	0.072543
H235	H	0.261034	0.686143	0.134044
H236	H	0.205076	0.797318	0.075377
C237	C	0.688212	0.122772	0.056958
H238	H	0.721482	0.117447	0.091834
H239	H	0.669659	0.092547	0.087282
H240	H	0.714546	0.092555	0.034774
H241	H	0.710373	0.741714	-0.631704
C242	C	0.349228	0.741722	0.080874
H243	H	0.324215	0.741727	0.115439
H244	H	0.400975	0.686142	0.112617
H245	H	0.345005	0.797317	0.053949
H246	H	0.669559	0.741719	-0.450381
H247	H	-0.139806	0.741711	0.064273
C248	C	-0.159775	0.741725	-0.162935
H249	H	-0.134772	0.741742	-0.197512
H250	H	-0.155562	0.686141	-0.136025
H251	H	-0.211524	0.797317	-0.194677
H252	H	0.704305	0.741713	-0.753302
C253	C	0.463584	0.741767	-0.459952
H254	H	0.433794	0.741773	-0.430392
H255	H	0.432129	0.797364	-0.515425
H256	H	0.488056	0.686189	-0.456781
