data_functionalizedCrystal
_audit_creation_method	'MofGen! by Chris Wilmer'
_symmetry_space_group_name_H-M	'P1'
_symmetry_Int_Tables_number	1
_symmetry_cell_setting	triclinic
loop_
_symmetry_equiv_pos_as_xyz
  x,y,z
_cell_length_a	10.967926
_cell_length_b	11.026644
_cell_length_c	9.482900
_cell_angle_alpha	78.598751
_cell_angle_beta	92.549900
_cell_angle_gamma	83.620415
loop_
_atom_site_label
_atom_site_type_symbol
_atom_site_fract_x
_atom_site_fract_y
_atom_site_fract_z
O1	O	1.656937	-0.216440	0.294232
O2	O	2.156937	0.283560	0.794232
O3	O	1.308304	-0.219129	0.206886
O4	O	1.808304	0.280871	0.706886
O5	O	1.453729	-0.039754	0.243321
O6	O	1.953729	0.460246	0.743321
O7	O	1.511512	-0.395814	0.257797
O8	O	2.011512	0.104186	0.757797
O9	O	1.424223	-0.076343	0.477721
O10	O	1.924223	0.423657	0.977721
O11	O	1.278798	-0.255717	0.441286
O12	O	1.778798	0.244283	0.941286
O13	O	1.627431	-0.253029	0.528632
O14	O	2.127431	0.246971	1.028632
Cu15	Cu	1.450420	-0.257714	0.506361
Cu16	Cu	1.950420	0.242286	1.006361
Cu17	Cu	1.485314	-0.214444	0.229156
Cu18	Cu	1.985314	0.285556	0.729156
O19	O	1.482006	-0.432403	0.492197
O20	O	1.982006	0.067597	0.992197
C21	C	1.248224	-0.234463	0.312729
C22	C	1.748224	0.265537	0.812729
C23	C	1.113163	-0.225627	0.278891
C24	C	1.613163	0.274373	0.778891
C25	C	1.037664	-0.240642	0.385231
C26	C	1.537664	0.259358	0.885231
C27	C	0.898071	-0.231511	0.350260
C28	C	1.398071	0.268489	0.850260
C29	C	1.428316	-0.012329	0.357848
C30	C	1.928316	0.487671	0.857848
C31	C	1.396538	0.123901	0.349877
C32	C	1.896538	0.623901	0.849877
C33	C	1.687510	-0.237694	0.422785
C34	C	2.187510	0.262306	0.922785
C35	C	1.822572	-0.246528	0.456615
C36	C	2.322572	0.253472	0.956615
C37	C	1.451454	0.334321	0.363640
C38	C	1.951454	0.834321	0.863640
C39	C	1.484301	0.193522	0.371867
C40	C	1.984301	0.693522	0.871867
N41	N	1.425886	-0.288147	0.701335
N42	N	1.925886	0.211853	1.201335
C43	C	1.507420	0.540173	0.377667
C44	C	2.007420	1.040173	0.877667
C45	C	1.539204	0.403945	0.385627
C46	C	2.039204	0.903945	0.885627
N47	N	1.509856	-0.184001	0.034185
N48	N	2.009856	0.315999	0.534185
C49	C	1.478068	-0.223413	0.786608
C50	C	1.978068	0.276587	1.286608
C51	C	1.457666	-0.248744	0.948914
C52	C	1.957666	0.251256	1.448914
H53	H	1.074456	-0.206009	0.161960
H54	H	1.574456	0.293991	0.661960
H55	H	1.569633	-0.109817	0.987038
H56	H	2.069633	0.390183	1.487038
H57	H	1.297088	0.168525	0.324956
H58	H	1.797088	0.668525	0.824956
H59	H	1.537842	-0.149234	0.739456
H60	H	2.037842	0.350766	1.239456
C61	C	0.845806	-0.205018	0.192283
C62	C	1.345806	0.294982	0.692283
H63	H	0.911275	-0.196776	0.130101
H64	H	1.411275	0.303224	0.630101
H65	H	0.803141	-0.271978	0.176195
H66	H	1.303141	0.228022	0.676195
H67	H	0.790770	-0.129937	0.173087
H68	H	1.290770	0.370063	0.673087
C69	C	0.874841	-0.273029	0.614590
C70	C	1.374841	0.226971	1.114590
H71	H	0.961806	-0.275699	0.617375
H72	H	1.461806	0.224301	1.117375
H73	H	0.841301	-0.208860	0.660380
H74	H	1.341301	0.291140	1.160380
H75	H	0.853677	-0.350899	0.663470
H76	H	1.353677	0.149101	1.163470
H77	H	1.352010	0.378953	0.338719
H78	H	1.852010	0.878953	0.838719
C79	C	1.345131	-0.388353	0.765022
C80	C	1.845131	0.111647	1.265022
H81	H	1.342020	-0.392239	0.865757
H82	H	1.842020	0.107761	1.365757
H83	H	1.264368	-0.367627	0.719934
H84	H	1.764368	0.132373	1.219934
H85	H	1.379203	-0.467028	0.748683
H86	H	1.879203	0.032972	1.248683
H87	H	1.638654	0.359322	0.410490
H88	H	2.138654	0.859322	0.910490
C89	C	1.618649	0.133247	0.405532
C90	C	2.118649	0.633247	0.905532
H91	H	1.623101	0.046520	0.406656
H92	H	2.123101	0.546520	0.906656
H93	H	1.668157	0.170770	0.333622
H94	H	2.168157	0.670770	0.833622
H95	H	1.647564	0.145248	0.497110
H96	H	2.147564	0.645248	0.997110
H97	H	1.076370	-0.260250	0.502162
H98	H	1.576370	0.239750	1.002162
C99	C	1.376907	-0.348955	1.012594
C100	C	1.876907	0.151045	1.512594
H101	H	1.373796	-0.352841	1.113330
H102	H	1.873796	0.147159	1.613330
H103	H	1.296144	-0.328229	0.967506
H104	H	1.796144	0.171771	1.467506
H105	H	1.410979	-0.427630	0.996255
H106	H	1.910979	0.072370	1.496255
