data_functionalizedCrystal
_audit_creation_method	'MofGen! by Chris Wilmer'
_symmetry_space_group_name_H-M	'P1'
_symmetry_Int_Tables_number	1
_symmetry_cell_setting	triclinic
loop_
_symmetry_equiv_pos_as_xyz
  x,y,z
_cell_length_a	23.532361
_cell_length_b	23.532407
_cell_length_c	16.776229
_cell_angle_alpha	89.988688
_cell_angle_beta	89.997131
_cell_angle_gamma	82.839173
loop_
_atom_site_label
_atom_site_type_symbol
_atom_site_fract_x
_atom_site_fract_y
_atom_site_fract_z
O1	O	0.755279	0.069010	-0.066216
O2	O	1.088612	0.402343	0.267117
O3	O	1.421945	0.735676	0.600450
O4	O	0.589412	0.079041	-0.066237
O5	O	0.922745	0.412374	0.267097
O6	O	1.256078	0.745707	0.600430
O7	O	0.677347	-0.008907	-0.066211
O8	O	1.010680	0.324426	0.267122
O9	O	1.344014	0.657759	0.600455
O10	O	0.667343	0.156958	-0.066242
O11	O	1.000677	0.490291	0.267092
O12	O	1.334010	0.823625	0.600425
O13	O	0.677335	-0.008913	0.066365
O14	O	1.010669	0.324421	0.399699
O15	O	1.344002	0.657754	0.733032
O16	O	0.589400	0.079035	0.066340
O17	O	0.922733	0.412369	0.399673
O18	O	1.256067	0.745702	0.733007
O19	O	0.755267	0.069005	0.066360
O20	O	1.088600	0.402338	0.399694
O21	O	1.421934	0.735671	0.733027
Zn22	Zn	0.672332	0.074019	0.087399
Zn23	Zn	1.005665	0.407352	0.420733
Zn24	Zn	1.338998	0.740686	0.754066
Zn25	Zn	0.672347	0.074026	-0.087276
Zn26	Zn	1.005680	0.407359	0.246058
Zn27	Zn	1.339014	0.740693	0.579391
O28	O	0.667332	0.156953	0.066335
O29	O	1.000665	0.490286	0.399668
O30	O	1.333999	0.823619	0.733002
C31	C	0.568189	0.078787	0.000049
C32	C	0.901523	0.412120	0.333383
C33	C	1.234856	0.745454	0.666716
C34	C	0.504971	0.078032	0.000042
C35	C	0.838304	0.411365	0.333376
C36	C	1.171637	0.744698	0.666709
C37	C	0.231733	0.074731	-0.072220
C38	C	0.565067	0.408064	0.261113
C39	C	0.898400	0.741398	0.594447
C40	C	0.291133	0.075446	-0.072222
C41	C	0.624466	0.408779	0.261111
C42	C	0.957800	0.742113	0.594445
O43	O	0.321864	0.075799	-0.133681
O44	O	0.655198	0.409132	0.199652
O45	O	0.988531	0.742465	0.532985
N46	N	0.320832	0.075804	0.000046
N47	N	0.654166	0.409138	0.333379
N48	N	0.987499	0.742471	0.666712
C49	C	0.291130	0.075442	0.072320
C50	C	0.624463	0.408775	0.405654
C51	C	0.957796	0.742108	0.738987
O52	O	0.321846	0.075812	0.133789
O53	O	0.655179	0.409145	0.467123
O54	O	0.988512	0.742478	0.800456
C55	C	0.231732	0.074723	0.072322
C56	C	0.565065	0.408056	0.405655
C57	C	0.898398	0.741389	0.738988
C58	C	0.202035	0.074370	0.000049
C59	C	0.535368	0.407704	0.333382
C60	C	0.868701	0.741037	0.666716
C61	C	0.202036	0.074378	-0.144486
C62	C	0.535370	0.407711	0.188847
C63	C	0.868703	0.741045	0.522180
C64	C	0.142641	0.073664	-0.144484
C65	C	0.475974	0.406998	0.188849
C66	C	0.809307	0.740331	0.522183
C67	C	0.112942	0.073303	-0.072215
C68	C	0.446275	0.406637	0.261118
C69	C	0.779608	0.739970	0.594452
C70	C	0.142639	0.073657	0.000051
C71	C	0.475972	0.406990	0.333385
C72	C	0.809305	0.740323	0.666718
C73	C	0.202031	0.074356	0.144595
C74	C	0.535364	0.407689	0.477929
C75	C	0.868697	0.741023	0.811262
C76	C	0.142629	0.073637	0.144590
C77	C	0.475962	0.406970	0.477924
C78	C	0.809295	0.740303	0.811257
C79	C	0.112931	0.073284	0.072318
C80	C	0.446265	0.406618	0.405651
C81	C	0.779598	0.739951	0.738984
C82	C	0.053544	0.072582	0.072323
C83	C	0.386878	0.405915	0.405656
C84	C	0.720211	0.739249	0.738989
N85	N	0.023845	0.072224	0.000055
N86	N	0.357178	0.405557	0.333388
N87	N	0.690512	0.738890	0.666722
C88	C	0.053544	0.072584	-0.072214
C89	C	0.386877	0.405918	0.261120
C90	C	0.720210	0.739251	0.594453
C91	C	0.415870	0.076951	0.072312
C92	C	0.749203	0.410284	0.405645
C93	C	1.082537	0.743617	0.738979
C94	C	0.475266	0.077674	0.072312
C95	C	0.808600	0.411007	0.405645
C96	C	1.141933	0.744341	0.738978
C97	C	0.475266	0.077677	-0.072231
C98	C	0.808599	0.411010	0.261103
C99	C	1.141932	0.744344	0.594436
C100	C	0.415868	0.076958	-0.072230
C101	C	0.749201	0.410291	0.261104
C102	C	1.082534	0.743625	0.594437
C103	C	0.386171	0.076593	0.000044
C104	C	0.719504	0.409926	0.333378
C105	C	1.052837	0.743259	0.666711
C106	C	-0.071192	0.071086	-0.072203
C107	C	0.262141	0.404419	0.261130
C108	C	0.595475	0.737753	0.594463
C109	C	-0.130593	0.070374	-0.072195
C110	C	0.202740	0.403708	0.261139
C111	C	0.536073	0.737041	0.594472
C112	C	-0.130587	0.070368	0.072347
C113	C	0.202746	0.403702	0.405681
C114	C	0.536080	0.737035	0.739014
C115	C	-0.071191	0.071083	0.072339
C116	C	0.262142	0.404416	0.405673
C117	C	0.595475	0.737749	0.739006
C118	C	-0.041495	0.071440	0.000057
C119	C	0.291838	0.404773	0.333391
C120	C	0.625172	0.738106	0.666724
O121	O	0.022776	0.072227	0.133751
O122	O	0.356109	0.405560	0.467084
O123	O	0.689442	0.738893	0.800417
O124	O	0.022821	0.072207	-0.133673
O125	O	0.356155	0.405540	0.199661
O126	O	0.689488	0.738874	0.532994
C127	C	0.677086	-0.030126	0.000079
C128	C	1.010420	0.303207	0.333412
C129	C	1.343753	0.636541	0.666746
C130	C	0.676320	-0.093343	0.000085
C131	C	1.009654	0.239991	0.333418
C132	C	1.342987	0.573324	0.666752
C133	C	0.723555	-0.492454	0.000047
C134	C	1.056888	-0.159120	0.333380
C135	C	1.390222	0.174213	0.666714
C136	C	0.722844	-0.551854	0.000041
C137	C	1.056177	-0.218521	0.333374
C138	C	1.389510	0.114813	0.666708
O139	O	0.766630	-0.588606	0.000017
O140	O	1.099964	-0.255272	0.333350
O141	O	1.433297	0.078061	0.666684
N142	N	0.670566	-0.574471	0.000035
N143	N	1.003899	-0.241138	0.333369
N144	N	1.337233	0.092195	0.666702
C145	C	0.618997	-0.537685	0.000027
C146	C	0.952330	-0.204352	0.333361
C147	C	1.285663	0.128982	0.666694
O148	O	0.574465	-0.562377	0.000021
O149	O	0.907799	-0.229044	0.333355
O150	O	1.241132	0.104289	0.666688
C151	C	0.619709	-0.478286	0.000028
C152	C	0.953042	-0.144953	0.333361
C153	C	1.286375	0.188381	0.666695
C154	C	0.671990	-0.455672	0.000042
C155	C	1.005323	-0.122339	0.333375
C156	C	1.338656	0.210994	0.666708
C157	C	0.775832	-0.469839	0.000060
C158	C	1.109165	-0.136506	0.333393
C159	C	1.442498	0.196827	0.666727
C160	C	0.776543	-0.410443	0.000068
C161	C	1.109876	-0.077110	0.333401
C162	C	1.443210	0.256223	0.666734
C163	C	0.724977	-0.373662	0.000062
C164	C	1.058311	-0.040328	0.333396
C165	C	1.391644	0.293005	0.666729
C166	C	0.672701	-0.396276	0.000049
C167	C	1.006034	-0.062943	0.333383
C168	C	1.339367	0.270390	0.666716
C169	C	0.568140	-0.441501	0.000014
C170	C	0.901473	-0.108168	0.333348
C171	C	1.234807	0.225166	0.666681
C172	C	0.568857	-0.382099	0.000014
C173	C	0.902190	-0.048765	0.333348
C174	C	1.235523	0.284568	0.666681
C175	C	0.621137	-0.359485	0.000028
C176	C	0.954471	-0.026151	0.333361
C177	C	1.287804	0.307182	0.666695
C178	C	0.621847	-0.300099	0.000052
C179	C	0.955180	0.033235	0.333385
C180	C	1.288513	0.366568	0.666718
N181	N	0.674124	-0.277481	0.000057
N182	N	1.007457	0.055852	0.333391
N183	N	1.340791	0.389185	0.666724
C184	C	0.725690	-0.314263	0.000063
C185	C	1.059023	0.019071	0.333396
C186	C	1.392356	0.352404	0.666729
C187	C	0.617505	-0.662427	0.000025
C188	C	0.950839	-0.329094	0.333358
C189	C	1.284172	0.004239	0.666692
C190	C	0.616793	-0.721825	0.000030
C191	C	0.950126	-0.388492	0.333364
C192	C	1.283459	-0.055158	0.666697
C193	C	0.720640	-0.735990	0.000042
C194	C	1.053973	-0.402657	0.333376
C195	C	1.387306	-0.069323	0.666709
C196	C	0.721352	-0.676591	0.000043
C197	C	1.054685	-0.343258	0.333376
C198	C	1.388018	-0.009924	0.666710
C199	C	0.669783	-0.639810	0.000031
C200	C	1.003116	-0.306477	0.333364
C201	C	1.336449	0.026857	0.666698
C202	C	0.727179	-0.189526	0.000080
C203	C	1.060513	0.143807	0.333413
C204	C	1.393846	0.477140	0.666746
C205	C	0.727886	-0.130124	0.000090
C206	C	1.061219	0.203209	0.333424
C207	C	1.394553	0.536542	0.666757
C208	C	0.624039	-0.115965	0.000074
C209	C	0.957372	0.217369	0.333408
C210	C	1.290706	0.550702	0.666741
C211	C	0.623332	-0.175361	0.000067
C212	C	0.956665	0.157972	0.333401
C213	C	1.289999	0.491305	0.666734
C214	C	0.674907	-0.212141	0.000067
C215	C	1.008240	0.121192	0.333401
C216	C	1.341574	0.454525	0.666734
O217	O	0.578083	-0.263312	0.000072
O218	O	0.911416	0.070021	0.333406
O219	O	1.244749	0.403355	0.666739
O220	O	0.770214	-0.289562	0.000059
O221	O	1.103547	0.043771	0.333392
O222	O	1.436880	0.377104	0.666725
C223	C	0.776489	0.069258	0.000073
C224	C	1.109823	0.402592	0.333406
C225	C	1.443156	0.735925	0.666739
C226	C	0.839708	0.070014	0.000074
C227	C	1.173041	0.403347	0.333408
C228	C	1.506375	0.736680	0.666741
C229	C	0.667592	0.178171	0.000043
C230	C	1.000926	0.511505	0.333376
C231	C	1.334259	0.844838	0.666710
C232	C	0.668358	0.241388	0.000032
C233	C	1.001692	0.574721	0.333365
C234	C	1.335025	0.908055	0.666698
N235	N	0.672325	0.074014	0.206611
N236	N	1.005659	0.407347	0.539944
N237	N	1.338992	0.740681	0.873277
N238	N	0.672358	0.074027	-0.206487
N239	N	1.005691	0.407360	0.126846
N240	N	1.339024	0.740693	0.460180
C241	C	0.711275	0.035086	0.248339
C242	C	1.044608	0.368420	0.581672
C243	C	1.377942	0.701753	0.915006
C244	C	0.711278	0.035086	0.331791
C245	C	1.044611	0.368419	0.665125
C246	C	1.377945	0.701753	0.998458
C247	C	0.672334	0.074016	0.373514
C248	C	1.005667	0.407350	0.706847
C249	C	1.339001	0.740683	1.040180
C250	C	0.633380	0.112946	0.331779
C251	C	0.966714	0.446279	0.665113
C252	C	1.300047	0.779612	0.998446
C253	C	0.633375	0.112943	0.248329
C254	C	0.966708	0.446276	0.581662
C255	C	1.300042	0.779610	0.914995
C256	C	0.633401	0.112957	0.668327
C257	C	0.966734	0.446290	1.001660
C258	C	1.300068	0.779623	1.334993
C259	C	0.633411	0.112957	0.751783
C260	C	0.966744	0.446291	1.085116
C261	C	1.300077	0.779624	1.418450
C262	C	0.711304	0.035100	0.751789
C263	C	1.044637	0.368433	1.085122
C264	C	1.377971	0.701766	1.418456
C265	C	0.711299	0.035097	0.668338
C266	C	1.044632	0.368430	1.001672
C267	C	1.377965	0.701764	1.335005
C268	C	0.672343	0.074024	0.626612
C269	C	1.005677	0.407358	0.959945
C270	C	1.339010	0.740691	1.293278
C271	C	0.672340	0.074024	0.536123
C272	C	1.005673	0.407357	0.869457
C273	C	1.339006	0.740690	1.202790
C274	C	0.672340	0.074020	0.464000
C275	C	1.005673	0.407353	0.797334
C276	C	1.339007	0.740687	1.130667
H277	H	-0.154779	0.070077	0.131187
H278	H	0.178554	0.403410	0.464520
H279	H	0.511888	0.736743	0.797854
O280	O	0.591410	0.154959	0.796780
O281	O	0.924743	0.488292	1.130113
O282	O	1.258077	0.821625	1.463446
H283	H	0.547051	0.147936	0.780789
H284	H	0.880385	0.481270	1.114122
H285	H	1.213718	0.814603	1.447455
H286	H	0.601683	0.144653	0.634359
H287	H	0.935017	0.477987	0.967692
H288	H	1.268350	0.811320	1.301026
H289	H	0.770461	-0.111716	0.000104
H290	H	1.103794	0.221617	0.333437
H291	H	1.437128	0.554951	0.666770
H292	H	0.817825	-0.499782	0.000062
H293	H	1.151158	-0.166448	0.333395
H294	H	1.484492	0.166885	0.666728
O295	O	0.110563	0.073528	0.222547
O296	O	0.443896	0.406861	0.555880
O297	O	0.777230	0.740194	0.889214
H298	H	0.064256	0.073071	0.210413
H299	H	0.397589	0.406404	0.543747
H300	H	0.730923	0.739737	0.877080
H301	H	0.819115	-0.392037	0.000076
H302	H	1.152449	-0.058704	0.333409
H303	H	1.485782	0.274630	0.666742
O304	O	0.560402	-0.746209	0.000026
O305	O	0.893735	-0.412876	0.333359
O306	O	1.227069	-0.079542	0.666693
H307	H	0.557585	-0.772937	0.054063
H308	H	0.890918	-0.439603	0.387397
H309	H	1.224251	-0.106270	0.720730
O310	O	0.591377	0.154939	0.376774
O311	O	0.924710	0.488272	0.710107
O312	O	1.258044	0.821606	1.043441
H313	H	0.597928	0.148407	0.441813
H314	H	0.931262	0.481740	0.775147
H315	H	1.264595	0.815073	1.108480
O316	O	0.561878	-0.622761	0.000031
O317	O	0.895211	-0.289428	0.333364
O318	O	1.228544	0.043905	0.666697
H319	H	0.559711	-0.595354	-0.054006
H320	H	0.893044	-0.262020	0.279327
H321	H	1.226377	0.071313	0.612660
H322	H	0.525567	-0.459902	-0.000002
H323	H	0.858901	-0.126569	0.333332
H324	H	1.192234	0.206764	0.666665
O325	O	0.777742	-0.652207	0.000046
O326	O	1.111076	-0.318874	0.333379
O327	O	1.444409	0.014460	0.666713
H328	H	0.780555	-0.625494	0.054083
H329	H	1.113888	-0.292160	0.387417
H330	H	1.447221	0.041173	0.720750
O331	O	0.507304	0.078062	-0.150182
O332	O	0.840638	0.411396	0.183151
O333	O	1.173971	0.744729	0.516485
H334	H	0.501201	0.039104	-0.184828
H335	H	0.834535	0.372438	0.148505
H336	H	1.167868	0.705771	0.481839
O337	O	0.753296	-0.006896	0.623335
O338	O	1.086630	0.326437	0.956668
O339	O	1.419963	0.659770	1.290001
H340	H	0.797655	0.000119	0.639338
H341	H	1.130988	0.333453	0.972671
H342	H	1.464321	0.666786	1.306004
O343	O	0.110618	0.073279	-0.222439
O344	O	0.443952	0.406612	0.110895
O345	O	0.777285	0.739946	0.444228
H346	H	0.064323	0.072724	-0.210309
H347	H	0.397656	0.406057	0.123024
H348	H	0.730990	0.739391	0.456357
O349	O	0.513232	-0.342431	0.000005
O350	O	0.846565	-0.009097	0.333339
O351	O	1.179898	0.324236	0.666672
H352	H	0.522505	-0.297326	0.000006
H353	H	0.855838	0.036007	0.333340
H354	H	1.189171	0.369341	0.666673
O355	O	0.566946	-0.199758	0.000055
O356	O	0.900279	0.133575	0.333388
O357	O	1.233613	0.466908	0.666722
H358	H	0.531209	-0.164200	0.000049
H359	H	0.864543	0.169133	0.333382
H360	H	1.197876	0.502467	0.666716
H361	H	0.762627	-0.765949	0.000044
H362	H	1.095960	-0.432615	0.333377
H363	H	1.429294	-0.099282	0.666710
H364	H	0.743022	0.003401	0.785772
H365	H	1.076355	0.336735	1.119105
H366	H	1.409689	0.670068	1.452439
H367	H	0.391693	0.076661	0.131170
H368	H	0.725027	0.409994	0.464503
H369	H	1.058360	0.743327	0.797837
O370	O	0.753289	-0.006902	0.376795
O371	O	1.086623	0.326431	0.710128
O372	O	1.419956	0.659765	1.043461
H373	H	0.746747	-0.000367	0.441833
H374	H	1.080080	0.332966	0.775166
H375	H	1.413414	0.666300	1.108499
H376	H	0.226200	0.074641	0.203447
H377	H	0.559533	0.407975	0.536781
H378	H	0.892867	0.741308	0.870114
H379	H	-0.047012	0.071381	0.131189
H380	H	0.286321	0.404714	0.464523
H381	H	0.619654	0.738048	0.797856
H382	H	0.391692	0.076671	-0.131080
H383	H	0.725026	0.410004	0.202253
H384	H	1.058359	0.743338	0.535586
H385	H	0.769176	-0.219466	0.000076
H386	H	1.102510	0.113867	0.333410
H387	H	1.435843	0.447201	0.666743
O388	O	0.591368	0.154931	0.203315
O389	O	0.924702	0.488265	0.536649
O390	O	1.258035	0.821598	0.869982
H391	H	0.564293	0.182007	0.246346
H392	H	0.897626	0.515340	0.579679
H393	H	1.230959	0.848673	0.913012
H394	H	-0.154770	0.070089	-0.131050
H395	H	0.178563	0.403422	0.202283
H396	H	0.511896	0.736756	0.535617
O397	O	0.568423	-0.076289	0.000067
O398	O	0.901756	0.257045	0.333401
O399	O	1.235089	0.590378	0.666734
H400	H	0.577706	-0.031187	0.000066
H401	H	0.911039	0.302146	0.333399
H402	H	1.244373	0.635479	0.666732
H403	H	-0.047020	0.071377	-0.131062
H404	H	0.286313	0.404711	0.202271
H405	H	0.619646	0.738044	0.535605
O406	O	0.753277	-0.006905	0.203339
O407	O	1.086610	0.326428	0.536672
O408	O	1.419944	0.659762	0.870006
H409	H	0.780357	-0.033978	0.246379
H410	H	1.113690	0.299355	0.579712
H411	H	1.447023	0.632689	0.913046
O412	O	0.234060	0.074765	-0.222444
O413	O	0.567393	0.408098	0.110890
O414	O	0.900727	0.741431	0.444223
H415	H	0.280355	0.075319	-0.210320
H416	H	0.613689	0.408653	0.123014
H417	H	0.947022	0.741986	0.456347
O418	O	0.507293	0.078073	0.150262
O419	O	0.840626	0.411406	0.483595
O420	O	1.173959	0.744740	0.816928
H421	H	0.476656	0.077703	0.200510
H422	H	0.809989	0.411036	0.533844
H423	H	1.143323	0.744370	0.867177
