data_functionalizedCrystal
_audit_creation_method	'MofGen! by Chris Wilmer'
_symmetry_space_group_name_H-M	'P1'
_symmetry_Int_Tables_number	1
_symmetry_cell_setting	triclinic
loop_
_symmetry_equiv_pos_as_xyz
  x,y,z
_cell_length_a	16.109302
_cell_length_b	10.723023
_cell_length_c	14.586319
_cell_angle_alpha	89.997215
_cell_angle_beta	89.994552
_cell_angle_gamma	83.964664
loop_
_atom_site_label
_atom_site_type_symbol
_atom_site_fract_x
_atom_site_fract_y
_atom_site_fract_z
O1	O	1.104074	0.160395	-0.076280
O2	O	0.862129	0.180355	-0.076272
O3	O	0.988683	-0.011275	-0.076272
O4	O	0.977521	0.352025	-0.076279
O5	O	0.988674	-0.011278	0.076209
O6	O	0.862121	0.180352	0.076209
O7	O	1.104065	0.160392	0.076201
Cu8	Cu	0.983092	0.170372	0.090128
Cu9	Cu	0.983102	0.170375	-0.090199
O10	O	0.977512	0.352022	0.076201
C11	C	0.831145	0.179545	-0.000031
C12	C	0.738836	0.177120	-0.000028
C13	C	0.526457	0.171513	0.083080
C14	C	0.439724	0.169221	0.083077
C15	C	0.439744	0.169231	-0.083166
C16	C	0.526476	0.171513	-0.083162
C17	C	0.569830	0.172660	-0.000036
C18	C	0.396364	0.168087	-0.000043
C19	C	0.302324	0.165602	-0.000047
C20	C	0.663877	0.175143	-0.000031
C21	C	0.987866	-0.057766	-0.000033
C22	C	0.985436	-0.196288	-0.000036
C23	C	0.984358	-0.258038	-0.079026
C24	C	0.981846	-0.401208	-0.079031
C25	C	1.135049	0.161202	-0.000042
C26	C	1.227359	0.163627	-0.000051
C27	C	0.978328	0.398512	-0.000040
C28	C	0.980758	0.537035	-0.000043
N29	N	0.983091	0.170369	0.216959
N30	N	0.983110	0.170368	-0.217030
C31	C	1.039147	0.085543	0.451966
C32	C	1.039150	0.085540	0.547947
C33	C	0.927048	0.255198	0.547957
C34	C	0.927042	0.255194	0.451977
C35	C	0.983096	0.170368	0.403984
C36	C	0.983105	0.170369	0.595945
C37	C	0.983107	0.170366	0.700012
C38	C	0.983093	0.170369	0.299910
H39	H	0.561792	0.172444	-0.150849
H40	H	1.084789	0.016471	0.412892
H41	H	0.404434	0.168298	-0.150844
H42	H	0.985290	-0.204911	-0.146650
H43	H	0.984495	-0.249413	0.067588
H44	H	0.980923	-0.454312	-0.146658
H45	H	0.981690	-0.409871	0.067587
C46	C	1.149963	-0.082144	0.538290
C47	C	1.100766	-0.007697	0.600688
H48	H	1.188007	-0.139702	0.570853
H49	H	1.115102	-0.127045	0.500865
H50	H	1.180157	-0.030172	0.500846
H51	H	1.070568	-0.059669	0.638128
H52	H	1.135632	0.037207	0.638130
C53	C	0.333429	0.273837	0.179512
C54	C	0.392043	0.167956	0.174438
H55	H	0.303990	0.273045	0.235915
H56	H	0.361335	0.347441	0.176067
H57	H	0.295200	0.272817	0.130002
H58	H	0.430275	0.168980	0.223945
H59	H	0.364135	0.094333	0.177893
C60	C	0.877287	0.330546	0.695092
C61	C	0.865443	0.348447	0.600714
H62	H	0.839258	0.388125	0.727658
H63	H	0.867781	0.247275	0.710825
H64	H	0.932854	0.344121	0.710798
H65	H	0.809877	0.334863	0.585006
H66	H	0.874943	0.431738	0.584974
H67	H	0.881394	0.324269	0.412908
H68	H	0.561753	0.172447	0.150767
