data_functionalizedCrystal
_audit_creation_method	'MofGen! by Chris Wilmer'
_symmetry_space_group_name_H-M	'P1'
_symmetry_Int_Tables_number	1
_symmetry_cell_setting	triclinic
loop_
_symmetry_equiv_pos_as_xyz
  x,y,z
_cell_length_a	17.699104
_cell_length_b	10.540539
_cell_length_c	16.776229
_cell_angle_alpha	89.991754
_cell_angle_beta	89.994702
_cell_angle_gamma	96.091496
loop_
_atom_site_label
_atom_site_type_symbol
_atom_site_fract_x
_atom_site_fract_y
_atom_site_fract_z
O1	O	-1.005111	0.160623	0.066316
O2	O	-0.784870	0.181480	0.066310
O3	O	-0.900015	-0.013746	0.066312
O4	O	-0.889966	0.355849	0.066314
O5	O	-0.900004	-0.013712	-0.066264
O6	O	-0.784859	0.181514	-0.066266
O7	O	-1.005100	0.160657	-0.066260
Zn8	Zn	-0.894978	0.171091	-0.087313
Zn9	Zn	-0.894992	0.171046	0.087363
O10	O	-0.889955	0.355883	-0.066262
C11	C	-0.756663	0.180745	0.000021
C12	C	-0.672631	0.178489	0.000019
C13	C	-0.899256	-0.061019	0.000025
C14	C	-0.897001	-0.201926	0.000030
C15	C	-0.148423	0.280363	0.000020
C16	C	-0.227380	0.282475	0.000024
C17	C	-0.275252	0.167870	0.000024
C18	C	-0.244164	0.051145	0.000028
C19	C	-0.165208	0.049035	0.000030
C20	C	-0.562585	0.059653	0.000020
C21	C	-0.641546	0.061773	0.000016
C22	C	-0.624757	0.293093	0.000014
C23	C	-0.545801	0.290983	0.000016
C24	C	-0.514720	0.174259	0.000025
C25	C	-0.429105	0.171971	0.000022
C26	C	-0.360866	0.170157	0.000020
C27	C	-0.810603	-0.383783	0.000325
C28	C	-0.812889	-0.237207	0.000027
C29	C	-0.937474	-0.264299	-0.075677
C30	C	-0.934603	-0.410791	-0.075741
C31	C	-0.936326	-0.411380	0.075024
C32	C	-0.937101	-0.264412	0.076025
C33	C	-0.033307	0.161392	0.000026
C34	C	-0.117339	0.163648	0.000022
C35	C	-0.890714	0.403156	0.000026
C36	C	-0.892969	0.544063	0.000027
N37	N	-0.894974	0.171121	-0.206524
C38	C	-0.848685	0.094121	-0.751697
C39	C	-0.848683	0.094132	-0.668245
C40	C	-0.894995	0.171035	-0.626523
C41	C	-0.941317	0.247924	-0.668258
C42	C	-0.941323	0.247905	-0.751709
C43	C	-0.941298	0.247999	-0.331711
C44	C	-0.941288	0.248014	-0.248254
C45	C	-0.848658	0.094225	-0.248247
C46	C	-0.848664	0.094206	-0.331698
C47	C	-0.894989	0.171089	-0.373425
C48	C	-0.894991	0.171075	-0.463914
C49	C	-0.894989	0.171057	-0.536037
N50	N	-0.895002	0.171006	0.206574
H51	H	-0.252684	0.377516	0.000029
H52	H	-0.979003	0.310642	-0.214287
O53	O	-0.771043	-0.419205	-0.063995
C54	C	-0.661334	-0.514167	-0.110999
C55	C	-0.706066	-0.474135	-0.038087
H56	H	-0.608783	-0.558562	-0.090078
H57	H	-0.698853	-0.586797	-0.147760
H58	H	-0.643225	-0.426683	-0.149145
H59	H	-0.724183	-0.561542	0.000119
H60	H	-0.668520	-0.401462	-0.001385
H61	H	-0.109450	0.373688	0.000014
H62	H	-0.283148	-0.042168	0.000033
O63	O	-1.008838	-0.468885	0.075743
C64	C	-1.129316	-0.493636	0.143973
C65	C	-1.047226	-0.428394	0.143254
H66	H	-1.160371	-0.460945	0.198559
H67	H	-1.159963	-0.466797	0.087649
H68	H	-1.128366	-0.601550	0.146268
H69	H	-1.048106	-0.320470	0.140988
H70	H	-1.016612	-0.455337	0.199575
O71	O	-0.986418	0.322483	-0.627768
C72	C	-1.114051	0.371868	-0.602261
C73	C	-1.063066	0.287314	-0.648147
H74	H	-1.176030	0.343482	-0.618733
H75	H	-1.106157	0.358670	-0.535438
H76	H	-1.097699	0.476122	-0.618683
H77	H	-1.079386	0.183029	-0.631791
H78	H	-1.070967	0.300622	-0.714958
H79	H	-0.909108	-0.442453	0.132404
H80	H	-0.650073	0.388135	0.000010
H81	H	-0.680523	-0.031558	0.000018
H82	H	-0.810949	0.031588	-0.365664
H83	H	-0.810940	0.031619	-0.214263
O84	O	-0.803675	0.019298	-0.792100
C85	C	-0.711765	-0.133192	-0.783277
C86	C	-0.762713	-0.048533	-0.737425
H87	H	-0.678622	-0.188035	-0.739093
H88	H	-0.748578	-0.203463	-0.822307
H89	H	-0.670335	-0.070671	-0.822385
H90	H	-0.804151	-0.110952	-0.698274
H91	H	-0.725853	0.021746	-0.698446
H92	H	-0.979019	0.310602	-0.365675
O93	O	-0.532524	-0.053838	-0.000017
C94	C	-0.557516	-0.283060	0.000020
C95	C	-0.591664	-0.154616	0.000047
H96	H	-0.605314	-0.364573	0.000088
H97	H	-0.520990	-0.289903	-0.055475
H98	H	-0.520952	-0.289788	0.055491
H99	H	-0.628262	-0.147802	-0.055387
H100	H	-0.628146	-0.147828	0.055579
H101	H	-0.777381	-0.411794	0.054615
O102	O	-0.803626	0.019649	-0.627633
C103	C	-0.701328	0.012616	-0.533501
C104	C	-0.752328	0.097106	-0.579422
H105	H	-0.659831	0.075207	-0.494524
H106	H	-0.738100	-0.057560	-0.494351
H107	H	-0.668261	-0.042355	-0.577683
H108	H	-0.785404	0.152158	-0.535298
H109	H	-0.715515	0.167201	-0.618584
H110	H	-0.139901	-0.046007	0.000034
O111	O	-0.774632	-0.186886	-0.064889
C112	C	-0.702989	-0.228256	-0.182475
C113	C	-0.746304	-0.285413	-0.108994
H114	H	-0.680060	-0.307885	-0.218145
H115	H	-0.743095	-0.177370	-0.221441
H116	H	-0.653695	-0.157172	-0.162202
H117	H	-0.795598	-0.356549	-0.129195
H118	H	-0.706148	-0.336219	-0.070044
H119	H	-0.979039	0.310513	-0.785683
H120	H	-0.781042	-0.194039	0.054296
H121	H	-0.904683	-0.438433	-0.132335
H122	H	-0.995096	-0.459858	-0.079174
O123	O	-1.011206	-0.239191	-0.079003
C124	C	-1.142698	-0.326192	-0.081812
C125	C	-1.059231	-0.354808	-0.078027
H126	H	-1.181549	-0.419649	-0.081042
H127	H	-1.155867	-0.265793	-0.028217
H128	H	-1.152465	-0.271937	-0.139045
H129	H	-1.049405	-0.409103	-0.020829
H130	H	-1.046103	-0.415150	-0.131662
O131	O	-0.499331	0.402345	0.000159
C132	C	-0.460870	0.599427	0.068826
C133	C	-0.513526	0.473342	0.068768
H134	H	-0.472339	0.656875	0.124282
H135	H	-0.399084	0.577946	0.068879
H136	H	-0.472242	0.656843	0.013318
H137	H	-0.502222	0.415863	0.124266
H138	H	-0.575295	0.494912	0.068673
O139	O	-0.904032	-0.212962	-0.142973
C140	C	-0.903010	-0.211822	-0.286605
C141	C	-0.940970	-0.270043	-0.210459
H142	H	-0.932848	-0.257967	-0.341186
H143	H	-0.907418	-0.104712	-0.287613
H144	H	-0.840616	-0.229745	-0.287381
H145	H	-1.003376	-0.252216	-0.209632
H146	H	-0.936501	-0.377135	-0.209481
O147	O	-0.901950	-0.214919	0.142902
C148	C	-0.914389	-0.099647	0.265417
C149	C	-0.954295	-0.155678	0.189725
H150	H	-0.956688	-0.051714	0.303286
H151	H	-0.891675	-0.179419	0.301152
H152	H	-0.865237	-0.026245	0.247814
H153	H	-1.003477	-0.229064	0.207257
H154	H	-0.976955	-0.075836	0.154009
H155	H	-0.998426	-0.241306	0.080598
