data_functionalizedCrystal
_audit_creation_method	'MofGen! by Chris Wilmer'
_symmetry_space_group_name_H-M	'P1'
_symmetry_Int_Tables_number	1
_symmetry_cell_setting	triclinic
loop_
_symmetry_equiv_pos_as_xyz
  x,y,z
_cell_length_a	20.919309
_cell_length_b	20.919151
_cell_length_c	21.606444
_cell_angle_alpha	58.203098
_cell_angle_beta	89.997904
_cell_angle_gamma	55.760852
loop_
_atom_site_label
_atom_site_type_symbol
_atom_site_fract_x
_atom_site_fract_y
_atom_site_fract_z
Zr1	Zr	0.602055	0.692071	-0.095549
O2	O	0.487028	0.842936	-0.206773
O3	O	0.642969	0.547323	-0.055974
O4	O	0.634819	0.689371	-0.192997
O5	O	0.495177	0.700886	0.032103
O6	O	0.744970	0.680283	-0.188363
O7	O	0.495178	0.700888	-0.069750
O8	O	0.759548	0.426185	0.056745
O9	O	0.480599	0.954984	-0.213005
O10	O	0.735794	0.597812	-0.042257
O11	O	0.653589	0.604593	0.030296
O12	O	0.643994	0.771836	-0.131030
O13	O	0.561789	0.778616	-0.058477
Zr14	Zr	0.777733	0.677573	0.074286
Zr15	Zr	0.777733	0.677577	-0.088159
Zr16	Zr	0.602054	0.692067	0.066895
Zr17	Zr	0.591802	0.870774	-0.105490
Zr18	Zr	0.787986	0.498871	0.084226
O19	O	0.736819	0.822322	0.034711
O20	O	0.736820	0.822328	-0.196264
O21	O	0.487027	0.842930	0.024202
O22	O	0.892759	0.526708	0.185509
O23	O	0.892761	0.526714	-0.045466
O24	O	0.642968	0.547317	0.175000
O25	O	0.884610	0.668759	-0.053367
O26	O	0.744968	0.680274	0.171733
O27	O	0.634817	0.689362	0.167099
O28	O	0.884610	0.668756	0.048486
O29	O	0.620240	0.943463	-0.207131
O30	O	0.759548	0.426182	0.185867
O31	O	0.899188	0.414661	0.191742
O32	O	0.899189	0.414664	0.062620
O33	O	0.480599	0.954980	-0.083884
O34	O	0.620239	0.943460	-0.078009
O35	O	0.735793	0.597809	0.109766
O36	O	0.817998	0.591028	0.037213
O37	O	0.726198	0.765052	-0.051560
O38	O	0.643994	0.771832	0.020994
C39	C	0.702719	0.461293	0.001802
C40	C	0.707072	0.385429	0.006022
C41	C	0.644889	0.416545	-0.054107
C42	C	0.648981	0.345276	-0.050170
C43	C	0.715253	0.242891	0.013901
C44	C	0.777443	0.211774	0.074033
C45	C	0.773354	0.283042	0.070092
C46	C	0.730816	0.024367	0.028905
C47	C	0.734899	-0.046901	0.032844
C48	C	0.606437	0.086606	-0.091361
C49	C	0.602351	0.157870	-0.095294
C50	C	0.664543	0.126747	-0.035164
C51	C	0.719436	0.170041	0.017929
C52	C	0.660363	0.199596	-0.039195
C53	C	0.470147	0.702952	-0.019877
C54	C	0.395567	0.709105	-0.023014
C55	C	0.408446	0.621160	0.021846
C56	C	0.338367	0.626947	0.018896
C57	C	0.255410	0.720681	-0.028920
C58	C	0.242533	0.808633	-0.073782
C59	C	0.312611	0.802845	-0.070826
C60	C	0.041422	0.742703	-0.040156
C61	C	-0.028658	0.748485	-0.043110
C62	C	0.067181	0.566798	0.049569
C63	C	0.137256	0.561018	0.052516
C64	C	0.124373	0.648970	0.007658
C65	C	0.183777	0.726599	-0.031938
C66	C	0.196006	0.643051	0.010681
C67	C	0.909641	0.666692	-0.001387
C68	C	0.984221	0.660539	0.001750
C69	C	0.689895	0.684828	-0.213825
C70	C	0.689895	0.684829	-0.282787
C71	C	0.677068	0.908352	-0.023066
C72	C	0.672715	0.984216	-0.027285
C73	C	0.750578	0.679825	-0.312632
C74	C	0.750581	0.679818	-0.377425
C75	C	0.689897	0.684823	-0.412374
C76	C	0.629211	0.689825	-0.382523
C77	C	0.629212	0.689824	-0.317728
C78	C	0.629204	0.689824	-0.643833
C79	C	0.629205	0.689827	-0.708634
C80	C	0.750572	0.679818	-0.703530
C81	C	0.750574	0.679817	-0.638735
C82	C	0.689891	0.684814	-0.608887
C83	C	0.689890	0.684820	-0.538630
C84	C	0.689893	0.684824	-0.482633
C85	C	0.689893	0.684817	0.192561
C86	C	0.689892	0.684815	0.261523
C87	C	0.922466	0.443163	0.011047
C88	C	1.001399	0.361146	0.018404
C89	C	0.702718	0.461287	0.204995
C90	C	0.707071	0.385422	0.278176
C91	C	0.922465	0.443157	0.214239
C92	C	1.001398	0.361139	0.290559
C93	C	0.457323	0.926487	-0.235503
C94	C	0.378390	1.008506	-0.311823
C95	C	0.457322	0.926482	-0.032310
C96	C	0.378389	1.008499	-0.039668
C97	C	0.677069	0.908357	-0.226259
C98	C	0.672717	0.984223	-0.299440
C99	C	0.995557	0.326171	-0.019630
C100	C	1.069716	0.249117	-0.012733
C101	C	1.149716	0.207035	0.032203
C102	C	1.155556	0.242018	0.070238
C103	C	1.081398	0.319074	0.063336
C104	C	0.752025	0.346253	0.354033
C105	C	0.756111	0.274979	0.422800
C106	C	0.715248	0.242870	0.415710
C107	C	0.670288	0.282046	0.339845
C108	C	0.666198	0.353324	0.271079
C109	C	1.081383	0.319082	0.288527
C110	C	1.155554	0.242026	0.360231
C111	C	1.149739	0.207023	0.433965
C112	C	1.069746	0.249088	0.435995
C113	C	0.995576	0.326147	0.364292
C114	C	0.298404	1.050571	-0.309792
C115	C	0.224232	1.127649	-0.381496
C116	C	0.230046	1.162656	-0.455231
C117	C	0.310040	1.120587	-0.457260
C118	C	0.384211	1.043515	-0.385557
C119	C	0.384230	1.043481	-0.001641
C120	C	0.310070	1.120554	-0.008557
C121	C	0.230070	1.162639	-0.053496
C122	C	0.224231	1.127653	-0.091528
C123	C	0.298389	1.050587	-0.084616
C124	C	0.713590	1.016309	-0.292324
C125	C	0.709516	1.087582	-0.361079
C126	C	0.664565	1.126773	-0.436949
C127	C	0.623691	1.094681	-0.444063
C128	C	0.627770	1.023403	-0.375309
H129	H	0.548397	0.241234	-0.147477
H130	H	0.629594	0.385206	0.209316
Cl131	Cl	0.802743	0.041326	0.098475
Cl132	Cl	0.300293	0.525219	0.070797
H133	H	0.930424	0.360433	-0.056232
H134	H	0.475990	0.544831	0.060786
Cl135	Cl	0.851534	0.243921	0.145683
Cl136	Cl	0.083369	0.456237	0.105963
H137	H	1.086166	0.347541	0.094314
H138	H	0.116226	0.802917	-0.070869
Cl139	Cl	0.618924	0.241668	0.330946
Cl140	Cl	1.088715	0.363075	0.195841
Cl141	Cl	0.354563	0.516382	0.075303
Cl142	Cl	0.552924	0.696110	-0.426455
Cl143	Cl	0.123652	1.180566	-0.148016
Cl144	Cl	1.062355	0.205152	-0.060550
Cl145	Cl	-0.132950	0.866330	-0.103234
H146	H	0.030921	0.814320	-0.076697
Cl147	Cl	0.136849	1.259521	-0.062175
Cl148	Cl	0.803405	0.386600	0.362967
H149	H	0.792724	0.243090	0.484566
Cl150	Cl	0.826863	0.673530	-0.594803
H151	H	0.204800	0.484690	0.091438
Cl152	Cl	0.138243	0.926471	-0.133888
H153	H	0.302119	0.874459	-0.107347
Cl154	Cl	1.256107	0.189156	0.357661
Cl155	Cl	0.895027	0.379004	0.366860
Cl156	Cl	1.242936	0.110161	0.040874
Cl157	Cl	0.826868	0.673539	-0.268706
H158	H	0.449364	1.009222	0.034958
Cl159	Cl	0.567174	1.143970	-0.539450
Cl160	Cl	0.123679	1.180517	-0.378927
Cl161	Cl	0.720400	0.153260	0.502168
H162	H	1.210140	0.144276	0.492345
Cl163	Cl	0.484762	0.990635	-0.388124
Cl164	Cl	0.760900	1.127918	-0.352117
Cl165	Cl	0.136794	1.259547	-0.545367
Cl166	Cl	0.317336	1.164603	-0.549962
H167	H	1.065024	0.220577	0.496039
Cl168	Cl	0.291072	1.006579	-0.217106
Cl169	Cl	0.770107	0.967053	-0.196952
Cl170	Cl	0.317432	1.164515	0.039264
H171	H	0.293621	1.022107	-0.115581
Cl172	Cl	0.659442	1.216383	-0.523377
Cl173	Cl	0.576371	0.983086	-0.384270
H174	H	0.781457	-0.000986	0.077867
H175	H	0.799986	0.675744	-0.727837
Cl176	Cl	0.561568	0.545256	-0.134655
Cl177	Cl	0.528260	0.125723	-0.166949
Cl178	Cl	0.818221	-0.175619	0.113394
Cl179	Cl	0.570801	0.384402	-0.125762
H180	H	0.831406	0.128405	0.126198
H181	H	0.799994	0.675741	-0.401724
Cl182	Cl	0.577054	0.328307	-0.119740
H183	H	0.579787	0.693902	-0.737089
H184	H	0.579799	0.693898	-0.293428
Cl185	Cl	0.552916	0.696112	-0.606317
Cl186	Cl	1.256134	0.189099	0.126731
