data_functionalizedCrystal
_audit_creation_method	'MofGen! by Chris Wilmer'
_symmetry_space_group_name_H-M	'P1'
_symmetry_Int_Tables_number	1
_symmetry_cell_setting	triclinic
loop_
_symmetry_equiv_pos_as_xyz
  x,y,z
_cell_length_a	21.295420
_cell_length_b	25.639240
_cell_length_c	21.295411
_cell_angle_alpha	89.966217
_cell_angle_beta	89.983421
_cell_angle_gamma	90.031008
loop_
_atom_site_label
_atom_site_type_symbol
_atom_site_fract_x
_atom_site_fract_y
_atom_site_fract_z
Zn1	Zn	0.962295	-0.208198	-0.355891
Zn2	Zn	0.962208	-0.295629	-0.250608
Zn3	Zn	0.857033	-0.208207	-0.250636
Zn4	Zn	0.856984	-0.295602	-0.355839
O5	O	0.909630	-0.251909	-0.303244
O6	O	1.050373	-0.219804	-0.341935
O7	O	0.948241	-0.284047	-0.162522
O8	O	0.871054	-0.135040	-0.264633
O9	O	1.050309	-0.284039	-0.264584
O10	O	0.948389	-0.135034	-0.341963
O11	O	0.870969	-0.219818	-0.162543
O12	O	0.768937	-0.219792	-0.264582
O13	O	0.870969	-0.283993	-0.443935
O14	O	0.768901	-0.284001	-0.341874
O15	O	0.948341	-0.219778	-0.443974
O16	O	0.948193	-0.368791	-0.264533
O17	O	0.870885	-0.368771	-0.341846
C18	C	0.746078	-0.251895	-0.303225
C19	C	0.676110	-0.251901	-0.303233
C20	C	0.176650	-0.285404	-0.343450
C21	C	0.242392	-0.285404	-0.343444
C22	C	0.275271	-0.251921	-0.303263
C23	C	0.242401	-0.218444	-0.263075
C24	C	0.176660	-0.218449	-0.263078
N25	N	0.378514	-0.206142	-0.298536
N26	N	0.440966	-0.206139	-0.298536
C27	C	0.473346	-0.251906	-0.303250
N28	N	0.440915	-0.297677	-0.307976
N29	N	0.378457	-0.297679	-0.307978
C30	C	0.346556	-0.251913	-0.303255
C31	C	0.577493	-0.285383	-0.343425
C32	C	0.643236	-0.285384	-0.343414
C33	C	0.643244	-0.218420	-0.263049
C34	C	0.577502	-0.218423	-0.263057
C35	C	0.544630	-0.251905	-0.303248
C36	C	0.909541	-0.387752	-0.303194
C37	C	0.909561	-0.445866	-0.303194
C38	C	0.949919	-0.806187	-0.343582
C39	C	0.949937	-0.860791	-0.343595
O40	O	0.984145	-0.888992	-0.377884
N41	N	0.909717	-0.888148	-0.303304
C42	C	0.869472	-0.860898	-0.263003
O43	O	0.835263	-0.889181	-0.228734
C44	C	0.869451	-0.806294	-0.262994
C45	C	0.909678	-0.778940	-0.303282
C46	C	0.990142	-0.778833	-0.383868
C47	C	0.990124	-0.724232	-0.383854
C48	C	0.949883	-0.696986	-0.343555
C49	C	0.909660	-0.724340	-0.303269
C50	C	0.829202	-0.779045	-0.222696
C51	C	0.829184	-0.724438	-0.222691
C52	C	0.869411	-0.697084	-0.262979
C53	C	0.869401	-0.642493	-0.262955
N54	N	0.909620	-0.615136	-0.303246
C55	C	0.949862	-0.642383	-0.343546
C56	C	0.869519	-0.975568	-0.263026
C57	C	0.869543	-1.030171	-0.263031
C58	C	0.950007	-1.030060	-0.343625
C59	C	0.949986	-0.975457	-0.343615
C60	C	0.909739	-0.948212	-0.303317
C61	C	0.949821	-0.527717	-0.343513
C62	C	0.949802	-0.473112	-0.343494
C63	C	0.869335	-0.473227	-0.262903
C64	C	0.869357	-0.527828	-0.262920
C65	C	0.909602	-0.555072	-0.303230
O66	O	0.835208	-0.614257	-0.228686
O67	O	0.984059	-0.614093	-0.377814
C68	C	1.073820	-0.251924	-0.303262
C69	C	1.143788	-0.251930	-0.303270
C70	C	0.909659	-0.251881	-0.467434
C71	C	0.909671	-0.251869	-0.537402
C72	C	0.909736	-0.115536	-0.303307
C73	C	0.909782	-0.057422	-0.303334
C74	C	0.949977	-0.285205	-1.036850
C75	C	0.949966	-0.285221	-0.971107
C76	C	0.909731	-0.251788	-0.938242
C77	C	0.869493	-0.218344	-0.971124
C78	C	0.869501	-0.218332	-1.036865
N79	N	0.904925	-0.206040	-0.835041
N80	N	0.904921	-0.206053	-0.772590
C81	C	0.909703	-0.251823	-0.740167
N82	N	0.914502	-0.297581	-0.772555
N83	N	0.914509	-0.297567	-0.835012
C84	C	0.909717	-0.251797	-0.866956
C85	C	0.949923	-0.285285	-0.636007
C86	C	0.949907	-0.285303	-0.570263
C87	C	0.869438	-0.218421	-0.570281
C88	C	0.869451	-0.218408	-0.636024
C89	C	0.909696	-0.251839	-0.668883
C90	C	0.909637	-0.251899	-0.139692
C91	C	0.909747	-0.251764	-0.069724
H92	H	0.982561	-0.450842	-0.376302
H93	H	0.836606	-0.550101	-0.230109
H94	H	0.836733	-0.191123	-0.944361
H95	H	0.982664	-0.312539	-0.543498
H96	H	0.982692	-0.312508	-0.662762
H97	H	0.149905	-0.191189	-0.230358
C98	C	0.825251	-0.181542	-1.073029
H99	H	0.801288	-0.161629	-1.044042
H100	H	0.797814	-0.201534	-1.098665
H101	H	0.849357	-0.158755	-1.098684
H102	H	0.269175	-0.191183	-0.230359
C103	C	0.825298	-1.060257	-0.218712
H104	H	0.831071	-1.096680	-0.224484
H105	H	0.782996	-1.051327	-0.227884
H106	H	0.834539	-1.051328	-0.176421
H107	H	0.836677	-0.191200	-0.543523
H108	H	0.836573	-0.451035	-0.230090
H109	H	0.982735	-0.312447	-0.944336
H110	H	0.796446	-0.801307	-0.189888
H111	H	0.836693	-0.191174	-0.662790
H112	H	0.269153	-0.312663	-0.376166
C113	C	0.140494	-0.322256	-0.387630
H114	H	0.169485	-0.342201	-0.411548
H115	H	0.114854	-0.302308	-0.415112
H116	H	0.114843	-0.345009	-0.363472
H117	H	0.796408	-0.702257	-0.189875
H118	H	0.550746	-0.191163	-0.230339
H119	H	0.669991	-0.312647	-0.376132
C120	C	0.541331	-0.322180	-0.387669
H121	H	0.570321	-0.342112	-0.411606
H122	H	0.515729	-0.302179	-0.415131
H123	H	0.515642	-0.344949	-0.363575
H124	H	0.982747	-0.312429	-1.063599
C125	C	1.034372	-0.694150	-0.428175
H126	H	1.058334	-0.718204	-0.452177
H127	H	1.061810	-0.672845	-0.404119
H128	H	1.010266	-0.672850	-0.455582
H129	H	0.982588	-0.549893	-0.376342
C130	C	0.679403	-0.181588	-0.218852
H131	H	0.723263	-0.186377	-0.224606
H132	H	0.668609	-0.189193	-0.176540
H133	H	0.668651	-0.146468	-0.228151
C134	C	1.034415	-0.808796	-0.428198
H135	H	1.058366	-0.784677	-0.452182
H136	H	1.010335	-0.830100	-0.455613
H137	H	1.061871	-0.830088	-0.404142
C138	C	0.994224	-0.945372	-0.387943
H139	H	1.018187	-0.969425	-0.411948
H140	H	1.021662	-0.924062	-0.363896
H141	H	0.970109	-0.924078	-0.415348
C142	C	0.994269	-1.060038	-0.387958
H143	H	0.988512	-1.096475	-0.382194
H144	H	1.036568	-1.051069	-0.378787
H145	H	0.985020	-1.051072	-0.430245
H146	H	0.836746	-0.953388	-0.230205
