data_functionalizedCrystal
_audit_creation_method	'MofGen! by Chris Wilmer'
_symmetry_space_group_name_H-M	'P1'
_symmetry_Int_Tables_number	1
_symmetry_cell_setting	triclinic
loop_
_symmetry_equiv_pos_as_xyz
  x,y,z
_cell_length_a	15.712078
_cell_length_b	15.538191
_cell_length_c	16.776229
_cell_angle_alpha	89.995703
_cell_angle_beta	89.984862
_cell_angle_gamma	83.426622
loop_
_atom_site_label
_atom_site_type_symbol
_atom_site_fract_x
_atom_site_fract_y
_atom_site_fract_z
O1	O	1.000641	0.466182	-0.066424
O2	O	1.500641	0.966182	0.433576
O3	O	0.769289	0.401467	-0.066392
O4	O	1.269289	0.901467	0.433608
O5	O	0.930000	0.312211	-0.066418
O6	O	1.430000	0.812211	0.433582
O7	O	0.839931	0.555438	-0.066398
O8	O	1.339931	1.055438	0.433602
O9	O	0.929986	0.312197	0.066159
O10	O	1.429986	0.812197	0.566159
O11	O	0.769276	0.401453	0.066185
O12	O	1.269276	0.901453	0.566185
O13	O	1.000628	0.466168	0.066152
O14	O	1.500628	0.966168	0.566152
Zn15	Zn	0.884950	0.433809	0.087218
Zn16	Zn	1.384950	0.933809	0.587218
Zn17	Zn	0.884967	0.433826	-0.087457
Zn18	Zn	1.384967	0.933826	0.412543
O19	O	0.839917	0.555424	0.066179
O20	O	1.339917	1.055424	0.566179
C21	C	0.740397	0.390888	-0.000099
C22	C	1.240397	0.890888	0.499901
C23	C	0.654328	0.359376	-0.000088
C24	C	1.154328	0.859376	0.499912
C25	C	0.203291	0.626921	-0.000120
C26	C	0.703291	1.126921	0.499880
C27	C	0.122426	0.597291	-0.000142
C28	C	0.622426	1.097291	0.499858
C29	C	0.189623	0.448823	-0.000157
C30	C	0.689623	0.948823	0.499843
C31	C	0.270496	0.478440	-0.000138
C32	C	0.770496	0.978440	0.499862
C33	C	0.277322	0.567490	-0.000119
C34	C	0.777322	1.067490	0.499881
C35	C	0.344527	0.419010	-0.000137
C36	C	0.844527	0.919010	0.499863
C37	C	0.425392	0.448625	-0.000115
C38	C	0.925392	0.948625	0.499885
C39	C	0.432227	0.537671	-0.000093
C40	C	0.932227	1.037671	0.499907
C41	C	0.358188	0.597106	-0.000097
C42	C	0.858188	1.097106	0.499903
C43	C	0.337698	0.329960	-0.000151
C44	C	0.837698	0.829960	0.499849
C45	C	0.411729	0.270529	-0.000150
C46	C	0.911729	0.770529	0.499850
C47	C	0.492597	0.300145	-0.000133
C48	C	0.992597	0.800145	0.499867
C49	C	0.499432	0.389191	-0.000111
C50	C	0.999432	0.889191	0.499889
C51	C	0.566636	0.240710	-0.000129
C52	C	1.066636	0.740710	0.499871
C53	C	0.647502	0.270326	-0.000107
C54	C	1.147502	0.770326	0.499893
C55	C	0.580297	0.418806	-0.000089
C56	C	1.080297	0.918806	0.499911
C57	C	0.939417	0.280355	-0.000134
C58	C	1.439417	0.780355	0.499866
C59	C	0.967487	0.185453	-0.000146
C60	C	1.467487	0.685453	0.499854
C61	C	0.688621	-0.198417	-0.000089
C62	C	1.188621	0.301583	0.499911
C63	C	0.715016	-0.287589	-0.000091
C64	C	1.215016	0.212411	0.499909
C65	C	0.863485	-0.258879	-0.000112
C66	C	1.363485	0.241121	0.499888
C67	C	0.837102	-0.169703	-0.000114
C68	C	1.337102	0.330297	0.499886
C69	C	0.749668	-0.139480	-0.000102
C70	C	1.249668	0.360520	0.499898
C71	C	0.898149	-0.110766	-0.000127
C72	C	1.398149	0.389234	0.499873
C73	C	0.871768	-0.021598	-0.000125
C74	C	1.371768	0.478402	0.499875
C75	C	0.784339	0.008633	-0.000110
C76	C	1.284339	0.508633	0.499890
C77	C	0.723287	-0.050312	-0.000100
C78	C	1.223287	0.449688	0.499900
C79	C	0.985582	-0.140991	-0.000134
C80	C	1.485582	0.359009	0.499866
C81	C	1.046630	-0.082053	-0.000147
C82	C	1.546630	0.417947	0.499853
C83	C	1.020249	0.007117	-0.000150
C84	C	1.520249	0.507117	0.499850
C85	C	0.932820	0.037347	-0.000135
C86	C	1.432820	0.537347	0.499865
C87	C	1.081301	0.066061	-0.000160
C88	C	1.581301	0.566061	0.499840
C89	C	1.054920	0.155229	-0.000158
C90	C	1.554920	0.655229	0.499842
C91	C	0.906439	0.126515	-0.000133
C92	C	1.406439	0.626515	0.499867
C93	C	1.029521	0.476747	-0.000142
C94	C	1.529521	0.976747	0.499858
C95	C	1.115589	0.508259	-0.000159
C96	C	1.615589	1.008259	0.499841
C97	C	0.830500	0.587280	-0.000107
C98	C	1.330500	1.087280	0.499893
C99	C	0.802431	0.682182	-0.000101
C100	C	1.302431	1.182182	0.499899
N101	N	0.884944	0.433798	0.206429
N102	N	1.384944	0.933798	0.706429
N103	N	0.884982	0.433833	-0.206668
N104	N	1.384982	0.933833	0.293332
C105	C	0.956115	0.394305	0.248135
C106	C	1.456115	0.894305	0.748135
C107	C	0.956119	0.394305	0.331587
C108	C	1.456119	0.894305	0.831587
C109	C	0.884954	0.433805	0.373332
C110	C	1.384954	0.933805	0.873332
C111	C	0.813777	0.473299	0.331621
C112	C	1.313777	0.973299	0.831621
C113	C	0.813770	0.473293	0.248170
C114	C	1.313770	0.973293	0.748170
C115	C	0.813799	0.473326	0.668168
C116	C	1.313799	0.973326	1.168168
C117	C	0.813812	0.473332	0.751625
C118	C	1.313812	0.973332	1.251625
C119	C	0.956149	0.394339	0.751585
C120	C	1.456149	0.894339	1.251585
C121	C	0.956142	0.394332	0.668134
C122	C	1.456142	0.894332	1.168134
C123	C	0.884963	0.433822	0.626430
C124	C	1.384963	0.933822	1.126430
C125	C	0.884959	0.433819	0.535942
C126	C	1.384959	0.933819	1.035942
C127	C	0.884961	0.433814	0.463819
C128	C	1.384961	0.933814	0.963819
H129	H	0.707781	0.221931	-0.000108
H130	H	1.207781	0.721931	0.499892
Cl131	Cl	0.366776	0.709057	-0.000083
Cl132	Cl	0.866776	1.209057	0.499917
Cl133	Cl	1.045611	0.344677	0.615657
Cl134	Cl	1.545611	0.844677	1.115657
H135	H	0.835242	0.151124	-0.000129
H136	H	1.335242	0.651124	0.499871
Cl137	Cl	0.533887	0.574905	-0.000029
Cl138	Cl	1.033887	1.074905	0.499971
H139	H	0.762861	0.081240	-0.000104
H140	H	1.262861	0.581240	0.499896
H141	H	1.014072	0.362146	0.365543
H142	H	1.514072	0.862146	0.865543
Cl143	Cl	0.613369	-0.012310	-0.000092
Cl144	Cl	1.113369	0.487690	0.499908
H145	H	0.184052	0.376318	-0.000163
H146	H	0.684052	0.876318	0.499837
Cl147	Cl	0.724340	0.522991	0.804104
Cl148	Cl	1.224340	1.022991	1.304104
H149	H	0.617424	-0.173808	-0.000085
H150	H	1.117424	0.326192	0.499915
H151	H	1.014105	0.362180	0.785549
H152	H	1.514105	0.862180	1.285549
H153	H	0.755829	0.505457	0.365615
H154	H	1.255829	1.005457	0.865615
H155	H	0.208848	0.699434	-0.000103
H156	H	0.708848	1.199434	0.499897
H157	H	1.117818	-0.106674	-0.000154
H158	H	1.617818	0.393326	0.499846
Cl159	Cl	0.724292	0.522940	0.195741
Cl160	Cl	1.224292	1.022940	0.695741
H161	H	1.007059	-0.213598	-0.000143
H162	H	1.507059	0.286402	0.499857
H163	H	0.062147	0.645693	-0.000140
H164	H	0.562147	1.145693	0.499860
H165	H	1.152489	0.041440	-0.000163
H166	H	1.652489	0.541440	0.499837
Cl167	Cl	0.638259	-0.361681	-0.000070
Cl168	Cl	1.138259	0.138319	0.499930
Cl169	Cl	0.973396	-0.296883	-0.000122
Cl170	Cl	1.473396	0.203117	0.499878
H171	H	0.755844	0.505482	0.634219
H172	H	1.255844	1.005482	1.134219
Cl173	Cl	0.588885	0.530757	-0.000075
Cl174	Cl	1.088885	1.030757	0.499925
Cl175	Cl	0.236037	0.292729	-0.000171
Cl176	Cl	0.736037	0.792729	0.499829
Cl177	Cl	0.558041	0.128766	-0.000142
Cl178	Cl	1.058041	0.628766	0.499858
Cl179	Cl	0.403137	0.158585	-0.000172
Cl180	Cl	0.903137	0.658585	0.499828
Cl181	Cl	1.131666	0.229327	-0.000159
Cl182	Cl	1.631666	0.729327	0.499841
Cl183	Cl	1.045588	0.344650	0.195664
Cl184	Cl	1.545588	0.844650	0.695664
