data_functionalizedCrystal
_audit_creation_method	'MofGen! by Chris Wilmer'
_symmetry_space_group_name_H-M	'P1'
_symmetry_Int_Tables_number	1
_symmetry_cell_setting	triclinic
loop_
_symmetry_equiv_pos_as_xyz
  x,y,z
_cell_length_a	17.077404
_cell_length_b	18.050590
_cell_length_c	17.077396
_cell_angle_alpha	90.029775
_cell_angle_beta	90.019501
_cell_angle_gamma	90.018777
loop_
_atom_site_label
_atom_site_type_symbol
_atom_site_fract_x
_atom_site_fract_y
_atom_site_fract_z
Zn1	Zn	1.200078	-0.295655	0.443836
Zn2	Zn	1.700078	0.204345	0.943836
Zn3	Zn	1.199995	-0.419852	0.312567
Zn4	Zn	1.699995	0.080148	0.812567
Zn5	Zn	1.068810	-0.295681	0.312584
Zn6	Zn	1.568810	0.204319	0.812584
Zn7	Zn	1.068788	-0.419808	0.443790
Zn8	Zn	1.568788	0.080192	0.943790
O9	O	1.134418	-0.357749	0.378194
O10	O	1.634418	0.142251	0.878194
O11	O	1.309914	-0.312138	0.426434
O12	O	1.809914	0.187862	0.926434
O13	O	1.182568	-0.403410	0.202722
O14	O	1.682568	0.096590	0.702722
O15	O	1.086267	-0.191753	0.330021
O16	O	1.586267	0.308247	0.830021
O17	O	1.309853	-0.403385	0.329992
O18	O	1.809853	0.096615	0.829992
O19	O	1.182709	-0.191734	0.426451
O20	O	1.682709	0.308266	0.926451
O21	O	1.086187	-0.312182	0.202734
O22	O	1.586187	0.187818	0.702734
O23	O	0.958960	-0.312139	0.329977
O24	O	1.458960	0.187861	0.829977
O25	O	1.086229	-0.403310	0.553643
O26	O	1.586229	0.096690	1.053643
O27	O	0.958944	-0.403335	0.426374
O28	O	1.458944	0.096665	0.926374
O29	O	1.182688	-0.312095	0.553677
O30	O	1.682688	0.187905	1.053677
O31	O	1.182546	-0.523771	0.329948
O32	O	1.682546	-0.023771	0.829948
O33	O	1.086149	-0.523739	0.426357
O34	O	1.586149	-0.023739	0.926357
C35	C	0.930470	-0.357736	0.378172
C36	C	1.430470	0.142264	0.878172
C37	C	0.843220	-0.357748	0.378182
C38	C	1.343220	0.142252	0.878182
C39	C	0.802242	-0.405305	0.428295
C40	C	1.302242	0.094695	0.928295
C41	C	0.720262	-0.405307	0.428308
C42	C	1.220262	0.094693	0.928308
C43	C	0.679261	-0.357754	0.378202
C44	C	1.179261	0.142246	0.878202
C45	C	0.720245	-0.310192	0.328087
C46	C	1.220245	0.189808	0.828087
C47	C	0.802224	-0.310187	0.328079
C48	C	1.302224	0.189813	0.828079
C49	C	0.549375	-0.310206	0.328106
C50	C	1.049375	0.189794	0.828106
C51	C	0.467390	-0.310212	0.328112
C52	C	0.967390	0.189788	0.828112
C53	C	0.467413	-0.405326	0.428335
C54	C	0.967413	0.094674	0.928335
C55	C	0.549392	-0.405321	0.428327
C56	C	1.049392	0.094679	0.928327
C57	C	0.590370	-0.357760	0.378210
C58	C	1.090370	0.142240	0.878210
C59	C	1.134358	-0.550701	0.378163
C60	C	1.634358	-0.050701	0.878163
C61	C	1.134404	-0.633247	0.378176
C62	C	1.634404	-0.133247	0.878176
C63	C	1.186934	-0.832688	0.325821
C64	C	1.686934	-0.332688	0.825821
C65	C	1.206108	-0.882019	0.397464
C66	C	1.706108	-0.382019	0.897464
C67	C	1.134448	-0.784377	0.378207
C68	C	1.634448	-0.284377	0.878207
C69	C	1.115353	-0.882128	0.306596
C70	C	1.615353	-0.382128	0.806596
C71	C	1.134493	-0.930362	0.378231
C72	C	1.634493	-0.430362	0.878231
C73	C	1.153660	-0.832621	0.449887
C74	C	1.653660	-0.332621	0.949887
C75	C	1.062871	-0.832726	0.358971
C76	C	1.562871	-0.332726	0.858971
C77	C	1.082019	-0.882034	0.430663
C78	C	1.582019	-0.382034	0.930663
C79	C	1.134424	-0.700279	0.378192
C80	C	1.634424	-0.200279	0.878192
C81	C	1.134516	-1.014459	0.378254
C82	C	1.634516	-0.514459	0.878254
C83	C	1.339162	-0.357763	0.378216
C84	C	1.839162	0.142237	0.878216
C85	C	1.426412	-0.357769	0.378226
C86	C	1.926412	0.142231	0.878226
C87	C	1.134465	-0.357694	0.582938
C88	C	1.634465	0.142306	1.082938
C89	C	1.134486	-0.357671	0.670188
C90	C	1.634486	0.142329	1.170188
C91	C	1.134500	-0.164043	0.378243
C92	C	1.634500	0.335957	0.878243
C93	C	1.134535	-0.081498	0.378263
C94	C	1.634535	0.418502	0.878263
C95	C	1.134416	-0.357750	0.174246
C96	C	1.634416	0.142250	0.674246
C97	C	1.134548	-0.357564	0.086997
C98	C	1.634548	0.142436	0.586997
C99	C	1.184713	-0.310172	0.711197
C100	C	1.684713	0.189828	1.211197
C101	C	1.184723	-0.310147	0.793178
C102	C	1.684723	0.189853	1.293178
C103	C	1.134508	-0.357626	0.834148
C104	C	1.634508	0.142374	1.334148
C105	C	1.084275	-0.405127	0.793133
C106	C	1.584275	0.094873	1.293133
C107	C	1.084262	-0.405148	0.711154
C108	C	1.584262	0.094852	1.211154
C109	C	1.084306	-0.405083	0.964003
C110	C	1.584306	0.094917	1.464003
C111	C	1.084320	-0.405064	1.045988
C112	C	1.584320	0.094936	1.545988
C113	C	1.184767	-0.310082	1.046027
C114	C	1.684767	0.189918	1.546027
C115	C	1.184754	-0.310102	0.964048
C116	C	1.684754	0.189898	1.464048
C117	C	1.134522	-0.357605	0.923039
C118	C	1.634522	0.142395	1.423039
H119	H	0.582772	-0.444047	0.469122
H120	H	1.082772	0.055953	0.969122
N121	N	1.175179	-0.803950	0.530143
N122	N	1.675179	-0.303950	1.030143
H123	H	1.135818	-0.822321	0.569768
H124	H	1.635818	-0.322321	1.069768
H125	H	1.175065	-0.748002	0.529563
H126	H	1.675065	-0.248002	1.029563
N127	N	0.982688	-0.804016	0.337378
N128	N	1.482688	-0.304016	0.837378
H129	H	0.968293	-0.821993	0.283237
H130	H	1.468293	-0.321993	0.783237
H131	H	0.983203	-0.748070	0.338082
H132	H	1.483203	-0.248070	0.838082
N133	N	1.093932	-0.910919	0.226362
N134	N	1.593932	-0.410919	0.726362
H135	H	1.040237	-0.892213	0.211418
H136	H	1.540237	-0.392213	0.711418
H137	H	1.093653	-0.966865	0.227133
H138	H	1.593653	-0.466865	0.727133
N139	N	0.676024	-0.258908	0.274039
N140	N	1.176024	0.241092	0.774039
H141	H	0.714425	-0.228779	0.242292
H142	H	1.214425	0.271221	0.742292
H143	H	0.642031	-0.224580	0.306058
H144	H	1.142031	0.275420	0.806058
H145	H	1.225625	-0.271470	0.826563
H146	H	1.725625	0.228530	1.326563
H147	H	1.225607	-0.271511	0.677845
H148	H	1.725607	0.228489	1.177845
N149	N	0.846456	-0.456598	0.482339
N150	N	1.346456	0.043402	0.982339
H151	H	0.880496	-0.426461	0.518769
H152	H	1.380496	0.073539	1.018769
H153	H	0.880398	-0.490965	0.450314
H154	H	1.380398	0.009035	0.950314
H155	H	1.231334	-0.811021	0.281566
H156	H	1.731334	-0.311021	0.781566
H157	H	0.434044	-0.444050	0.469144
H158	H	0.934044	0.055950	0.969144
N159	N	1.238919	-0.258900	0.919855
N160	N	1.738919	0.241100	1.419855
H161	H	1.270743	-0.228803	0.958272
H162	H	1.770743	0.271197	1.458272
H163	H	1.206975	-0.224539	0.885844
H164	H	1.706975	0.275461	1.385844
N165	N	1.238950	-0.258847	1.090252
N166	N	1.738950	0.241153	1.590252
H167	H	1.231338	-0.266035	1.148402
H168	H	1.731338	0.233965	1.648402
H169	H	1.226758	-0.205810	1.075932
H170	H	1.726758	0.294190	1.575932
N171	N	0.423164	-0.258925	0.274072
N172	N	0.923164	0.241075	0.774072
H173	H	0.461562	-0.228789	0.242326
H174	H	0.961562	0.271211	0.742326
H175	H	0.389172	-0.224603	0.306099
H176	H	0.889172	0.275397	0.806099
N177	N	1.030162	-0.456272	1.090180
N178	N	1.530162	0.043728	1.590180
H179	H	0.998333	-0.486364	1.051764
H180	H	1.498333	0.013636	1.551764
H181	H	0.993859	-0.426026	1.124198
H182	H	1.493859	0.073974	1.624198
N183	N	0.593575	-0.258905	0.274056
N184	N	1.093575	0.241095	0.774056
H185	H	0.555163	-0.228783	0.242313
H186	H	1.055163	0.271217	0.742313
H187	H	0.627565	-0.289090	0.237670
H188	H	1.127565	0.210910	0.737670
N189	N	1.030124	-0.456313	0.919770
N190	N	1.530124	0.043687	1.419770
H191	H	0.998317	-0.486390	0.958162
H192	H	1.498317	0.013610	1.458162
H193	H	1.062058	-0.490691	0.885752
H194	H	1.562058	0.009309	1.385752
N195	N	1.023238	-0.910545	0.489416
N196	N	1.523238	-0.410545	0.989416
H197	H	1.037776	-0.892432	0.543469
H198	H	1.537776	-0.392432	1.043469
H199	H	1.023264	-0.966493	0.488725
H200	H	1.523264	-0.466493	0.988725
H201	H	0.835587	-0.271457	0.287275
H202	H	1.335587	0.228543	0.787275
N203	N	1.030117	-0.456331	0.837332
N204	N	1.530117	0.043669	1.337332
H205	H	1.042279	-0.509400	0.823057
H206	H	1.542279	-0.009400	1.323057
H207	H	0.974054	-0.444732	0.823047
H208	H	1.474054	0.055268	1.323047
N209	N	1.030080	-0.456377	0.666927
N210	N	1.530080	0.043623	1.166927
H211	H	1.042247	-0.509438	0.681180
H212	H	1.542247	-0.009438	1.181180
H213	H	1.037709	-0.449123	0.608791
H214	H	1.537709	0.050877	1.108791
N215	N	0.676063	-0.456611	0.482347
N216	N	1.176063	0.043389	0.982347
H217	H	0.714476	-0.486741	0.514079
H218	H	1.214476	0.013259	1.014079
H219	H	0.642031	-0.490936	0.450319
H220	H	1.142031	0.009064	0.950319
H221	H	1.266659	-0.903674	0.413749
H222	H	1.766659	-0.403674	0.913749
