data_functionalizedCrystal
_audit_creation_method	'MofGen! by Chris Wilmer'
_symmetry_space_group_name_H-M	'P1'
_symmetry_Int_Tables_number	1
_symmetry_cell_setting	triclinic
loop_
_symmetry_equiv_pos_as_xyz
  x,y,z
_cell_length_a	6.817900
_cell_length_b	17.078472
_cell_length_c	16.306216
_cell_angle_alpha	96.262363
_cell_angle_beta	103.467292
_cell_angle_gamma	99.306020
loop_
_atom_site_label
_atom_site_type_symbol
_atom_site_fract_x
_atom_site_fract_y
_atom_site_fract_z
V1	V	-4.005470	-0.110388	-0.262941
O2	O	-4.014824	0.004666	-0.258023
O3	O	-3.936516	-0.218266	-0.261059
O4	O	-3.957189	-0.108970	-0.377656
O5	O	-3.994009	-0.105387	-0.140617
V6	V	-4.491746	-0.096593	-0.248320
O7	O	-4.260690	-0.140648	-0.295012
O8	O	-4.686723	-0.066333	-0.216248
O9	O	-4.337492	0.011286	-0.250202
O10	O	-4.599788	-0.211646	-0.253238
O11	O	-4.620603	-0.101594	-0.370643
O12	O	-4.316820	-0.098011	-0.133604
C13	C	-3.776513	-0.244556	-0.256889
C14	C	-3.801423	-0.332749	-0.256115
C15	C	-3.802882	-0.105137	-0.405620
C16	C	-3.844554	-0.104691	-0.499400
C17	C	-3.994459	-0.378234	-0.259956
C18	C	-4.017855	-0.461102	-0.259233
C19	C	-3.848210	-0.498483	-0.254664
C20	C	-3.655160	-0.452993	-0.250825
C21	C	-3.631769	-0.370127	-0.251553
C22	C	-3.898724	-0.745881	-0.252039
C23	C	-3.922129	-0.828752	-0.251308
C24	C	-4.284824	-0.836855	-0.259718
C25	C	-4.261414	-0.753987	-0.260441
C26	C	-4.068369	-0.708505	-0.256607
N27	N	-3.872119	-0.583187	-0.253922
N28	N	-4.044466	-0.623804	-0.257354
C29	C	-3.995815	-0.103093	-0.840154
C30	C	-4.199235	-0.108356	-0.809701
C31	C	-4.155935	-0.108514	-0.712110
C32	C	-3.920774	-0.103886	-0.671102
C33	C	-3.800012	-0.025198	-0.691369
C34	C	-3.844732	-0.024708	-0.788968
C35	C	-3.895336	-0.176239	-0.813980
C36	C	-3.856475	-0.177791	-0.716662
C37	C	-3.878352	-0.104332	-0.575560
C38	C	-4.038229	-0.102642	-0.935694
C39	C	-4.160837	0.037571	-0.254369
C40	C	-4.115165	0.125764	-0.255149
C41	C	-4.134468	-0.101846	-0.105636
C42	C	-4.072035	-0.102288	-0.011855
H43	H	-4.132603	-0.347803	-0.263668
O44	O	-3.472182	-0.493309	-0.245898
H45	H	-3.409141	-0.484073	-0.301786
H46	H	-3.474582	-0.333095	-0.248429
O47	O	-3.933211	0.048580	-0.809116
H48	H	-3.831915	0.086600	-0.839643
O49	O	-4.226067	-0.510152	-0.263372
H50	H	-4.273811	-0.556701	-0.321005
H51	H	-3.946014	-0.235965	-0.704695
H52	H	-3.997364	-0.235369	-0.849778
H53	H	-4.211647	-0.055830	-0.681784
H54	H	-4.250520	-0.165075	-0.699198
H55	H	-3.744082	-0.173008	-0.833143
H56	H	-4.315515	-0.164729	-0.844219
H57	H	-3.693164	-0.017618	-0.808199
H58	H	-3.741536	-0.708858	-0.248912
O59	O	-3.858553	0.047510	-0.649000
H60	H	-3.719663	0.085696	-0.604048
O61	O	-4.444408	-0.713674	-0.265412
H62	H	-4.582583	-0.759228	-0.267983
H63	H	-3.783982	-0.859187	-0.247607
H64	H	-3.687359	-0.179006	-0.689251
O65	O	-4.300938	-0.038761	-0.832990
H66	H	-4.207231	-0.000437	-0.866157
O67	O	-4.493024	-0.885914	-0.263853
H68	H	-4.603887	-0.880558	-0.323764
H69	H	-3.627470	-0.018949	-0.663885
