data_functionalizedCrystal
_audit_creation_method	'MofGen! by Chris Wilmer'
_symmetry_space_group_name_H-M	'P1'
_symmetry_Int_Tables_number	1
_symmetry_cell_setting	triclinic
loop_
_symmetry_equiv_pos_as_xyz
  x,y,z
_cell_length_a	12.837943
_cell_length_b	12.996460
_cell_length_c	12.837942
_cell_angle_alpha	89.994579
_cell_angle_beta	85.171060
_cell_angle_gamma	90.004257
loop_
_atom_site_label
_atom_site_type_symbol
_atom_site_fract_x
_atom_site_fract_y
_atom_site_fract_z
O1	O	1.402337	0.085548	-0.272142
O2	O	1.902337	0.585548	0.227858
O3	O	1.099204	0.085554	-0.258699
O4	O	1.599204	0.585554	0.241301
O5	O	1.244049	0.085544	-0.113854
O6	O	1.744049	0.585544	0.386146
O7	O	1.257492	0.085557	-0.416988
O8	O	1.757492	0.585557	0.083012
O9	O	1.244031	-0.085589	-0.113844
O10	O	1.744031	0.414411	0.386156
O11	O	1.099186	-0.085580	-0.258689
O12	O	1.599186	0.414420	0.241311
O13	O	1.402320	-0.085586	-0.272132
O14	O	1.902320	0.414414	0.227868
Cu15	Cu	1.250751	-0.101209	-0.265409
Cu16	Cu	1.750751	0.398791	0.234591
Cu17	Cu	1.250772	0.101176	-0.265422
Cu18	Cu	1.750772	0.601176	0.234578
O19	O	1.257475	-0.085577	-0.416977
O20	O	1.757475	0.414423	0.083023
C21	C	1.060126	-0.000013	-0.254153
C22	C	1.560126	0.499987	0.245847
C23	C	0.943711	-0.000010	-0.240608
C24	C	1.443711	0.499990	0.259392
N25	N	1.250744	-0.243556	-0.265401
N26	N	1.750744	0.256444	0.234599
C27	C	0.718837	-0.000018	-0.403437
C28	C	1.218837	0.499982	0.096563
C29	C	0.609454	-0.000017	-0.390716
C30	C	1.109454	0.499983	0.109284
C31	C	0.615562	-0.000014	-0.202445
C32	C	1.115562	0.499986	0.297555
C33	C	0.724944	-0.000015	-0.215166
C34	C	1.224944	0.499985	0.284834
C35	C	0.776578	-0.000016	-0.315666
C36	C	1.276578	0.499984	0.184334
C37	C	0.885962	-0.000010	-0.328386
C38	C	1.385962	0.499990	0.171614
C39	C	0.892067	-0.000014	-0.140116
C40	C	1.392067	0.499986	0.359884
C41	C	0.782685	-0.000013	-0.127395
C42	C	1.282685	0.499987	0.372605
C43	C	1.250771	-0.663370	-0.265423
C44	C	1.750771	-0.163370	0.234577
C45	C	1.250761	-0.546565	-0.265420
C46	C	1.750761	-0.046565	0.234580
C47	C	1.250758	-0.453467	-0.265413
C48	C	1.750758	0.046533	0.234587
C49	C	1.250747	-0.336654	-0.265408
C50	C	1.750747	0.163346	0.234592
C51	C	1.441398	-0.000018	-0.276679
C52	C	1.941398	0.499982	0.223321
C53	C	1.557813	-0.000013	-0.290223
C54	C	2.057813	0.499987	0.209777
C55	C	1.239499	-0.000022	-0.074780
C56	C	1.739499	0.499978	0.425220
C57	C	1.225954	-0.000020	0.041635
C58	C	1.725954	0.499980	0.541635
N59	N	1.250787	0.243524	-0.265423
N60	N	1.750787	0.743524	0.234577
C61	C	1.262025	-0.000008	-0.456051
C62	C	1.762025	0.499992	0.043949
C63	C	1.275569	-0.000004	-0.572467
C64	C	1.775569	0.499996	-0.072467
C65	C	1.388784	-0.000002	0.266510
C66	C	1.888784	0.499998	0.766510
C67	C	1.376062	0.000000	0.375892
C68	C	1.876062	0.500000	0.875892
C69	C	1.187791	-0.000007	0.369785
C70	C	1.687791	0.499993	0.869785
C71	C	1.200513	-0.000009	0.260402
C72	C	1.700513	0.499991	0.760402
C73	C	1.301012	-0.000008	0.208769
C74	C	1.801012	0.499992	0.708769
C75	C	1.313732	-0.000017	0.099384
C76	C	1.813732	0.499983	0.599384
C77	C	1.125462	-0.000017	0.093279
C78	C	1.625462	0.499983	0.593279
C79	C	1.112741	-0.000015	0.202661
C80	C	1.612741	0.499985	0.702661
H81	H	0.760878	-0.000017	-0.485268
H82	H	1.260878	0.499983	0.014732
N83	N	1.079403	0.000004	0.425484
N84	N	1.579403	0.500004	0.925484
H85	H	1.084668	0.000010	0.503538
H86	H	1.584668	0.500010	1.003538
H87	H	1.040513	-0.063440	0.405047
H88	H	1.540513	0.436560	0.905047
H89	H	0.928000	-0.000012	-0.410218
H90	H	1.428000	0.499988	0.089782
N91	N	1.422124	-0.000023	0.043692
N92	N	1.922124	0.499977	0.543692
H93	H	1.461067	0.063420	0.064052
H94	H	1.961067	0.563420	0.564052
H95	H	1.416778	-0.000068	-0.034347
H96	H	1.916778	0.499932	0.465653
N97	N	0.559862	-0.000042	-0.094057
N98	N	1.059862	0.499958	0.405943
H99	H	0.481808	-0.000052	-0.099322
H100	H	0.981808	0.499948	0.400678
H101	H	0.580306	0.063394	-0.055164
H102	H	1.080306	0.563394	0.444836
N103	N	0.954344	-0.000001	-0.045439
N104	N	1.454344	0.499999	0.454561
H105	H	1.031473	0.000003	-0.068744
H106	H	1.531473	0.500003	0.431256
H107	H	0.936557	-0.063439	-0.002097
H108	H	1.436557	0.436561	0.497903
N109	N	1.497171	-0.000017	0.210810
N110	N	1.997171	0.499983	0.710810
H111	H	1.550846	-0.000018	0.263988
H112	H	2.050846	0.499982	0.763988
H113	H	1.506560	0.063423	0.165550
H114	H	2.006560	0.563423	0.665550
H115	H	1.030917	-0.000011	0.244717
H116	H	1.530917	0.499989	0.744717
H117	H	1.447536	0.000008	0.422901
H118	H	1.947536	0.500008	0.922901
N119	N	0.547157	-0.000018	-0.485371
N120	N	1.047157	0.499982	0.014629
H121	H	0.501635	-0.063459	-0.484268
H122	H	1.001635	0.436541	0.015732
H123	H	0.596521	0.000019	-0.550922
H124	H	1.096521	0.500019	-0.050922
N125	N	1.030790	-0.000027	0.030996
N126	N	1.530790	0.499973	0.530996
H127	H	1.031872	0.063409	-0.014533
H128	H	1.531872	0.563409	0.485467
H129	H	0.965248	-0.000068	0.080374
H130	H	1.465248	0.499932	0.580374
H131	H	0.740630	-0.000024	-0.045571
H132	H	1.240630	0.499976	0.454429
