data_functionalizedCrystal
_audit_creation_method	'MofGen! by Chris Wilmer'
_symmetry_space_group_name_H-M	'P1'
_symmetry_Int_Tables_number	1
_symmetry_cell_setting	triclinic
loop_
_symmetry_equiv_pos_as_xyz
  x,y,z
_cell_length_a	12.827893
_cell_length_b	18.050589
_cell_length_c	12.827885
_cell_angle_alpha	90.029551
_cell_angle_beta	90.019462
_cell_angle_gamma	90.028191
loop_
_atom_site_label
_atom_site_type_symbol
_atom_site_fract_x
_atom_site_fract_y
_atom_site_fract_z
Zn1	Zn	1.597578	-0.295624	0.590850
Zn2	Zn	2.097578	0.204376	1.090850
Zn3	Zn	1.597433	-0.419832	0.416111
Zn4	Zn	2.097433	0.080168	0.916111
Zn5	Zn	1.422819	-0.295660	0.416124
Zn6	Zn	1.922819	0.204340	0.916124
Zn7	Zn	1.422766	-0.419777	0.590811
Zn8	Zn	1.922766	0.080223	1.090811
O9	O	1.510149	-0.357723	0.503474
O10	O	2.010149	0.142277	1.003474
O11	O	1.743795	-0.312109	0.567682
O12	O	2.243795	0.187891	1.067682
O13	O	1.574231	-0.403399	0.269877
O14	O	2.074231	0.096601	0.769877
O15	O	1.446085	-0.191731	0.439323
O16	O	1.946085	0.308269	0.939323
O17	O	1.743688	-0.403364	0.439302
O18	O	2.243688	0.096636	0.939302
O19	O	1.574479	-0.191704	0.567694
O20	O	2.074479	0.308296	1.067694
O21	O	1.445943	-0.312170	0.269886
O22	O	1.945943	0.187830	0.769886
O23	O	1.276576	-0.312117	0.439286
O24	O	1.776576	0.187883	0.939286
O25	O	1.445994	-0.403269	0.737053
O26	O	1.945994	0.096731	1.237053
O27	O	1.276537	-0.403304	0.567628
O28	O	1.776537	0.096696	1.067628
O29	O	1.574428	-0.312055	0.737081
O30	O	2.074428	0.187945	1.237081
O31	O	1.574180	-0.523749	0.439264
O32	O	2.074180	-0.023749	0.939264
O33	O	1.445853	-0.523709	0.567615
O34	O	1.945853	-0.023709	1.067615
C35	C	1.238639	-0.357709	0.503454
C36	C	1.738639	0.142291	1.003454
C37	C	1.122486	-0.357721	0.503471
C38	C	1.622486	0.142279	1.003471
C39	C	1.070710	-0.402914	0.566880
C40	C	1.570710	0.097086	1.066880
C41	C	0.950659	-0.402927	0.566899
C42	C	1.450659	0.097073	1.066899
C43	C	1.510023	-0.550675	0.503457
C44	C	2.010023	-0.050675	1.003457
C45	C	1.510065	-0.633221	0.503484
C46	C	2.010065	-0.133221	1.003484
C47	C	1.440349	-0.832677	0.573257
C48	C	1.940349	-0.332677	1.073257
C49	C	1.414872	-0.882124	0.477900
C50	C	1.914872	-0.382124	0.977900
C51	C	1.510167	-0.784351	0.503498
C52	C	2.010167	-0.284351	1.003498
C53	C	1.535696	-0.881986	0.598866
C54	C	2.035696	-0.381986	1.098866
C55	C	1.510264	-0.930337	0.503520
C56	C	2.010264	-0.430337	1.003520
C57	C	1.484640	-0.832712	0.408091
C58	C	1.984640	-0.332712	0.908091
C59	C	1.605508	-0.832569	0.529120
C60	C	2.105508	-0.332569	1.029120
C61	C	1.580067	-0.881994	0.433698
C62	C	2.080067	-0.381994	0.933698
C63	C	1.510109	-0.700253	0.503487
C64	C	2.010109	-0.200253	1.003487
C65	C	1.510323	-1.014433	0.503520
C66	C	2.010323	-0.514433	1.003520
C67	C	1.782719	-0.357738	0.503495
C68	C	2.282719	0.142262	1.003495
C69	C	1.898872	-0.357745	0.503504
C70	C	2.398872	0.142255	1.003504
C71	C	1.510221	-0.357652	0.776045
C72	C	2.010221	0.142348	1.276045
C73	C	1.510252	-0.357622	0.892198
C74	C	2.010252	0.142378	1.392198
C75	C	1.510304	-0.164018	0.503515
C76	C	2.010304	0.335982	1.003515
C77	C	1.510370	-0.081472	0.503532
C78	C	2.010370	0.418528	1.003532
C79	C	1.510137	-0.357741	0.231964
C80	C	2.010137	0.142259	0.731964
C81	C	1.510309	-0.357562	0.115812
C82	C	2.010309	0.142438	0.615812
C83	C	1.573770	-0.402713	1.064022
C84	C	2.073770	0.097287	1.564022
C85	C	1.573740	-0.402746	0.943972
C86	C	2.073740	0.097254	1.443972
H87	H	0.943392	-0.319054	0.449210
H88	H	1.443392	0.180946	0.949210
H89	H	1.077937	-0.319036	0.449201
H90	H	1.577937	0.180964	0.949201
Br91	Br	1.341803	-0.796581	0.671448
Br92	Br	1.841803	-0.296581	1.171448
Br93	Br	1.664309	-0.467173	0.869747
Br94	Br	2.164309	0.032827	1.369747
Br95	Br	1.280558	-0.918400	0.441779
Br96	Br	1.780558	-0.418400	0.941779
H97	H	0.906133	-0.441621	0.621183
H98	H	1.406133	0.058379	1.121183
Br99	Br	1.144950	-0.467392	0.657343
Br100	Br	1.644950	0.032608	1.157343
Br101	Br	1.664358	-0.467114	1.138244
Br102	Br	2.164358	0.032886	1.638244
H103	H	1.557249	-0.903630	0.679509
H104	H	2.057249	-0.403630	1.179509
Br105	Br	1.739788	-0.796263	0.565283
Br106	Br	2.239788	-0.296263	1.065283
Br107	Br	1.448566	-0.796791	0.273640
Br108	Br	1.948566	-0.296791	0.773640
H109	H	1.455953	-0.318932	1.071274
H110	H	1.955953	0.181068	1.571274
H111	H	1.639152	-0.903512	0.374645
H112	H	2.139152	-0.403512	0.874645
H113	H	1.455923	-0.318960	0.936729
H114	H	1.955923	0.181040	1.436729
