data_functionalizedCrystal
_audit_creation_method	'MofGen! by Chris Wilmer'
_symmetry_space_group_name_H-M	'P1'
_symmetry_Int_Tables_number	1
_symmetry_cell_setting	triclinic
loop_
_symmetry_equiv_pos_as_xyz
  x,y,z
_cell_length_a	19.077105
_cell_length_b	16.120484
_cell_length_c	19.076919
_cell_angle_alpha	95.046610
_cell_angle_beta	90.076224
_cell_angle_gamma	90.738523
loop_
_atom_site_label
_atom_site_type_symbol
_atom_site_fract_x
_atom_site_fract_y
_atom_site_fract_z
Zn1	Zn	1.040337	-0.403262	-0.456942
Zn2	Zn	1.039017	-0.537287	-0.344927
Zn3	Zn	0.928051	-0.392095	-0.334278
Zn4	Zn	0.916861	-0.536784	-0.457659
O5	O	0.981066	-0.467357	-0.398451
O6	O	1.138276	-0.425924	-0.446240
O7	O	1.028428	-0.513564	-0.245000
O8	O	0.948182	-0.276934	-0.345793
O9	O	1.137306	-0.524392	-0.363943
O10	O	1.030678	-0.285138	-0.435913
O11	O	0.946902	-0.406892	-0.237176
O12	O	0.828452	-0.406405	-0.346488
O13	O	0.929109	-0.523535	-0.556078
O14	O	0.820230	-0.512707	-0.437136
O15	O	1.019827	-0.425436	-0.555551
O16	O	1.017576	-0.653863	-0.364638
O17	O	0.927829	-0.653494	-0.447462
C18	C	0.798901	-0.458290	-0.390734
C19	C	0.720969	-0.454433	-0.387451
C20	C	0.680093	-0.508043	-0.433036
C21	C	0.606867	-0.504408	-0.429953
C22	C	0.574519	-0.447165	-0.381281
C23	C	0.615400	-0.393548	-0.335694
C24	C	0.688624	-0.397180	-0.338781
C25	C	0.355979	-0.430354	-0.367000
C26	C	0.282749	-0.426728	-0.363916
C27	C	0.274222	-0.537586	-0.458176
C28	C	0.347448	-0.541217	-0.461255
C29	C	0.388323	-0.487598	-0.415670
N30	N	0.499670	-0.443449	-0.378128
N31	N	0.463169	-0.491310	-0.418828
C32	C	0.971363	-0.683924	-0.407299
C33	C	0.967276	-0.776577	-0.411111
C34	C	0.959816	-0.946215	-0.418084
C35	C	1.002442	-0.987665	-0.378836
C36	C	0.998291	-1.082058	-0.382716
C37	C	0.963966	-0.851814	-0.414205
C38	C	1.163943	-0.476459	-0.406199
C39	C	1.241874	-0.480338	-0.409501
C40	C	0.973367	-0.475675	-0.582072
C41	C	0.970086	-0.479220	-0.660321
C42	C	0.990826	-0.249946	-0.389585
C43	C	0.994984	-0.157298	-0.385807
C44	C	1.015774	-0.429813	-0.696809
C45	C	1.012683	-0.433140	-0.770331
C46	C	0.963906	-0.485879	-0.807364
C47	C	0.918214	-0.535288	-0.770871
C48	C	0.921302	-0.531956	-0.697350
C49	C	0.949602	-0.501317	-1.027278
C50	C	0.946518	-0.504647	-1.100804
C51	C	1.040987	-0.402498	-1.100259
C52	C	1.044074	-0.399174	-1.026737
C53	C	0.998378	-0.448580	-0.990250
N54	N	0.960747	-0.489283	-0.882516
N55	N	1.001535	-0.445171	-0.915099
C56	C	0.988779	-0.459013	-0.215544
C57	C	0.992206	-0.455240	-0.137292
H58	H	0.589056	-0.346936	-0.296068
H59	H	0.884091	-0.572180	-0.667641
C60	C	0.400391	-0.372053	-0.317621
C61	C	0.443138	-0.322578	-0.357147
C62	C	0.484058	-0.268853	-0.311681
H63	H	0.428876	-0.403813	-0.289394
H64	H	0.370663	-0.337396	-0.288201
H65	H	0.472863	-0.357230	-0.386555
H66	H	0.414672	-0.290800	-0.385372
H67	H	0.454330	-0.234196	-0.282260
H68	H	0.512538	-0.300620	-0.283456
H69	H	0.513061	-0.235272	-0.338492
C70	C	0.732885	-0.338938	-0.289200
C71	C	0.688885	-0.288046	-0.245899
C72	C	0.729631	-0.234388	-0.200210
H73	H	0.761958	-0.305230	-0.315819
H74	H	0.761292	-0.370774	-0.260948
H75	H	0.660489	-0.256212	-0.274148
H76	H	0.659811	-0.321731	-0.219265
H77	H	0.758039	-0.266224	-0.171958
H78	H	0.758703	-0.200686	-0.226835
H79	H	0.699783	-0.199857	-0.170821
C80	C	1.055183	-0.940311	-0.330155
C81	C	1.048847	-0.854743	-0.335913
C82	C	1.097408	-0.811090	-0.291072
H83	H	1.101277	-0.957177	-0.343007
H84	H	1.046317	-0.951869	-0.282972
H85	H	1.057717	-0.843190	-0.383086
H86	H	1.002763	-0.837852	-0.323055
H87	H	1.088543	-0.822648	-0.243889
H88	H	1.143499	-0.827963	-0.303928
H89	H	1.093112	-0.753027	-0.294968
C90	C	0.865144	-0.592438	-0.811029
C91	C	0.797338	-0.570010	-0.789475
C92	C	0.748433	-0.622635	-0.826457
H93	H	0.873302	-0.648434	-0.801723
H94	H	0.869801	-0.587341	-0.860046
H95	H	0.792684	-0.575115	-0.740469
H96	H	0.789158	-0.514023	-0.798781
H97	H	0.753090	-0.617538	-0.875475
H98	H	0.756598	-0.678627	-0.817149
H99	H	0.702422	-0.607420	-0.811843
C100	C	1.062172	-0.379381	-0.809968
C101	C	1.023096	-0.325870	-0.848290
C102	C	1.068661	-0.276319	-0.884801
H103	H	1.090104	-0.413983	-0.841304
H104	H	1.091650	-0.347450	-0.777397
H105	H	0.993630	-0.357798	-0.880857
H106	H	0.995165	-0.291251	-0.816971
H107	H	1.098139	-0.244388	-0.852230
H108	H	1.096590	-0.310928	-0.916133
H109	H	1.042154	-0.240001	-0.910802
C110	C	0.907020	-0.993563	-0.466697
C111	C	0.913333	-1.079127	-0.460904
C112	C	0.864702	-1.122780	-0.505665
H113	H	0.915816	-0.982064	-0.513898
H114	H	0.860948	-0.976640	-0.453779
H115	H	0.959395	-1.096045	-0.473827
H116	H	0.904531	-1.090651	-0.413713
H117	H	0.818630	-1.105856	-0.492746
H118	H	0.873502	-1.111274	-0.552863
H119	H	0.868974	-1.180839	-0.501736
H120	H	0.573589	-0.548064	-0.467073
C121	C	0.715080	-0.570223	-0.485954
C122	C	0.663606	-0.616377	-0.525229
C123	C	0.695807	-0.673655	-0.573994
H124	H	0.743143	-0.606765	-0.461744
H125	H	0.743770	-0.541220	-0.516613
H126	H	0.634928	-0.645378	-0.494574
H127	H	0.635540	-0.579857	-0.549455
H128	H	0.724497	-0.644653	-0.604653
H129	H	0.723869	-0.710192	-0.549777
H130	H	0.660887	-0.704973	-0.600652
H131	H	1.055495	-0.386870	-0.666662
C132	C	1.090507	-0.348887	-1.139999
C133	C	1.077354	-0.363072	-1.212311
C134	C	1.122952	-0.313687	-1.248940
H135	H	1.137602	-0.362834	-1.130531
H136	H	1.083255	-0.291809	-1.125269
H137	H	1.084611	-0.420137	-1.227036
H138	H	1.030267	-0.349120	-1.221801
H139	H	1.115700	-0.256610	-1.234210
H140	H	1.170044	-0.327639	-1.239465
H141	H	1.114029	-0.323300	-1.298006
H142	H	1.083794	-0.356231	-0.996590
H143	H	0.373781	-0.587832	-0.500887
H144	H	0.240934	-0.581239	-0.495289
C145	C	0.893594	-0.562037	-1.140935
C146	C	0.905888	-0.644459	-1.127050
C147	C	0.857148	-0.697344	-1.164001
H148	H	0.898256	-0.557054	-1.189959
H149	H	0.847525	-0.546991	-1.126381
H150	H	0.951946	-0.659500	-1.141608
H151	H	0.901221	-0.649468	-1.078033
H152	H	0.811078	-0.682298	-1.149447
H153	H	0.861813	-0.692354	-1.213023
H154	H	0.865479	-0.753272	-1.154580
C155	C	0.247758	-0.364486	-0.311046
C156	C	0.299226	-0.318290	-0.271797
C157	C	0.267018	-0.260943	-0.223096
H158	H	0.219056	-0.393411	-0.280357
H159	H	0.219706	-0.327983	-0.335326
H160	H	0.327266	-0.354787	-0.247518
H161	H	0.327931	-0.289346	-0.302467
H162	H	0.238967	-0.224440	-0.247376
H163	H	0.238317	-0.289876	-0.192412
H164	H	0.301934	-0.229587	-0.196464
H165	H	0.912403	-0.541559	-0.997580
