data_functionalizedCrystal
_audit_creation_method	'MofGen! by Chris Wilmer'
_symmetry_space_group_name_H-M	'P1'
_symmetry_Int_Tables_number	1
_symmetry_cell_setting	triclinic
loop_
_symmetry_equiv_pos_as_xyz
  x,y,z
_cell_length_a	23.532407
_cell_length_b	23.532407
_cell_length_c	14.421503
_cell_angle_alpha	90.006857
_cell_angle_beta	89.987551
_cell_angle_gamma	82.848713
loop_
_atom_site_label
_atom_site_type_symbol
_atom_site_fract_x
_atom_site_fract_y
_atom_site_fract_z
O1	O	0.755250	0.069131	0.077013
O2	O	1.255250	0.569131	0.577013
O3	O	0.589387	0.079134	0.077042
O4	O	1.089387	0.579134	0.577042
O5	O	0.677320	-0.008799	0.077001
O6	O	1.177320	0.491201	0.577001
O7	O	0.667317	0.157064	0.077055
O8	O	1.167317	0.657064	0.577055
O9	O	0.677331	-0.008794	-0.077223
O10	O	1.177331	0.491206	0.422777
O11	O	0.589398	0.079139	-0.077181
O12	O	1.089398	0.579139	0.422819
O13	O	0.755261	0.069136	-0.077211
O14	O	1.255261	0.569136	0.422789
Cu15	Cu	0.672330	0.074138	-0.091278
Cu16	Cu	1.172330	0.574138	0.408722
Cu17	Cu	0.672318	0.074132	0.091109
Cu18	Cu	1.172318	0.574132	0.591109
O19	O	0.667328	0.157070	-0.077169
O20	O	1.167328	0.657070	0.422831
C21	C	0.568176	0.078882	-0.000066
C22	C	1.068176	0.578882	0.499934
C23	C	0.504959	0.078116	-0.000056
C24	C	1.004959	0.578116	0.499944
C25	C	0.677071	-0.030013	-0.000116
C26	C	1.177071	0.469987	0.499884
C27	C	0.676305	-0.093230	-0.000130
C28	C	1.176305	0.406770	0.499870
C29	C	0.621110	-0.359397	-0.000062
C30	C	1.121110	0.140603	0.499938
C31	C	0.621821	-0.299997	-0.000069
C32	C	1.121821	0.200003	0.499931
O33	O	0.578035	-0.263252	-0.000032
O34	O	1.078035	0.236748	0.499968
N35	N	0.674097	-0.277371	-0.000089
N36	N	1.174097	0.222629	0.499911
C37	C	0.725666	-0.314148	-0.000092
C38	C	1.225666	0.185852	0.499908
O39	O	0.770196	-0.289449	-0.000109
O40	O	1.270196	0.210551	0.499891
C41	C	0.724954	-0.373547	-0.000079
C42	C	1.224954	0.126453	0.499921
C43	C	0.672674	-0.396170	-0.000068
C44	C	1.172674	0.103830	0.499932
C45	C	0.568834	-0.382020	-0.000050
C46	C	1.068834	0.117980	0.499950
C47	C	0.568123	-0.441417	-0.000045
C48	C	1.068123	0.058583	0.499955
C49	C	0.619687	-0.478189	-0.000051
C50	C	1.119687	0.021811	0.499949
C51	C	0.671963	-0.455566	-0.000062
C52	C	1.171963	0.044434	0.499938
C53	C	0.776521	-0.410324	-0.000075
C54	C	1.276521	0.089676	0.499925
C55	C	0.775805	-0.469726	-0.000061
C56	C	1.275805	0.030274	0.499939
C57	C	0.723525	-0.492349	-0.000050
C58	C	1.223525	0.007651	0.499950
C59	C	0.722816	-0.551735	-0.000063
C60	C	1.222816	-0.051735	0.499937
N61	N	0.670539	-0.574361	-0.000043
N62	N	1.170539	-0.074361	0.499957
C63	C	0.618975	-0.537589	-0.000037
C64	C	1.118975	-0.037589	0.499963
C65	C	0.727157	-0.189406	-0.000120
C66	C	1.227157	0.310594	0.499880
C67	C	0.727870	-0.130008	-0.000141
C68	C	1.227870	0.369992	0.499859
C69	C	0.624025	-0.115860	-0.000115
C70	C	1.124025	0.384140	0.499885
C71	C	0.623313	-0.175260	-0.000102
C72	C	1.123313	0.324740	0.499898
C73	C	0.674881	-0.212032	-0.000100
C74	C	1.174881	0.287968	0.499900
C75	C	0.617486	-0.662325	-0.000026
C76	C	1.117486	-0.162325	0.499974
C77	C	0.616779	-0.721727	-0.000024
C78	C	1.116779	-0.221727	0.499976
C79	C	0.720623	-0.735869	-0.000045
C80	C	1.220623	-0.235869	0.499955
C81	C	0.721330	-0.676473	-0.000051
C82	C	1.221330	-0.176473	0.499949
C83	C	0.669757	-0.639701	-0.000039
C84	C	1.169757	-0.139701	0.499961
O85	O	0.766579	-0.588514	-0.000096
O86	O	1.266579	-0.088514	0.499904
O87	O	0.574452	-0.562296	-0.000008
O88	O	1.074452	-0.062296	0.499992
C89	C	0.105856	0.125350	-0.000082
C90	C	0.605856	0.625350	0.499918
C91	C	0.046456	0.124638	-0.000088
C92	C	0.546456	0.624638	0.499912
O93	O	0.009712	0.168424	-0.000108
O94	O	0.509712	0.668424	0.499892
N95	N	0.023830	0.072362	-0.000104
N96	N	0.523830	0.572362	0.499896
C97	C	0.060607	0.020794	-0.000123
C98	C	0.560607	0.520794	0.499877
O99	O	0.035908	-0.023737	-0.000137
O100	O	0.535908	0.476263	0.499863
C101	C	0.120007	0.021506	-0.000123
C102	C	0.620007	0.521506	0.499877
C103	C	0.142629	0.073785	-0.000099
C104	C	0.642629	0.573785	0.499901
C105	C	0.128480	0.177625	-0.000059
C106	C	0.628480	0.677625	0.499941
C107	C	0.187876	0.178336	-0.000051
C108	C	0.687876	0.678336	0.499949
C109	C	0.224649	0.126772	-0.000067
C110	C	0.724649	0.626772	0.499933
C111	C	0.202025	0.074496	-0.000091
C112	C	0.702025	0.574496	0.499909
C113	C	0.156783	-0.030062	-0.000149
C114	C	0.656783	0.469938	0.499851
C115	C	0.216185	-0.029345	-0.000150
C116	C	0.716185	0.470655	0.499850
C117	C	0.238808	0.022934	-0.000126
C118	C	0.738808	0.522934	0.499874
C119	C	0.298194	0.023643	-0.000100
C120	C	0.798194	0.523643	0.499900
N121	N	0.320821	0.075920	-0.000084
N122	N	0.820821	0.575920	0.499916
C123	C	0.284048	0.127484	-0.000068
C124	C	0.784048	0.627484	0.499932
C125	C	-0.064135	0.019302	-0.000123
C126	C	0.435865	0.519302	0.499877
C127	C	-0.123533	0.018589	-0.000115
C128	C	0.376467	0.518589	0.499885
C129	C	-0.137680	0.122434	-0.000083
C130	C	0.362320	0.622434	0.499917
C131	C	-0.078281	0.123146	-0.000084
C132	C	0.421719	0.623146	0.499916
C133	C	-0.041509	0.071578	-0.000107
C134	C	0.458491	0.571578	0.499893
C135	C	0.408784	0.128974	-0.000051
C136	C	0.908784	0.628974	0.499949
C137	C	0.468186	0.129680	-0.000040
C138	C	0.968186	0.629680	0.499960
C139	C	0.482329	0.025836	-0.000077
C140	C	0.982329	0.525836	0.499923
C141	C	0.422932	0.025129	-0.000084
C142	C	0.922932	0.525129	0.499916
C143	C	0.386161	0.076702	-0.000074
C144	C	0.886161	0.576702	0.499926
O145	O	0.334974	-0.020119	-0.000084
O146	O	0.834974	0.479881	0.499916
O147	O	0.308756	0.172007	-0.000066
O148	O	0.808756	0.672007	0.499934
C149	C	0.776472	0.069388	-0.000100
C150	C	1.276472	0.569388	0.499900
C151	C	0.839689	0.070154	-0.000104
C152	C	1.339689	0.570154	0.499896
C153	C	0.667577	0.178283	-0.000050
C154	C	1.167577	0.678283	0.499950
C155	C	0.668343	0.241500	-0.000031
C156	C	1.168343	0.741500	0.499969
N157	N	0.672343	0.074143	-0.219559
N158	N	1.172343	0.574143	0.280441
C159	C	0.713012	0.033473	-0.469207
C160	C	1.213012	0.533473	0.030793
C161	C	0.661614	0.022704	-0.530999
C162	C	1.161614	0.522704	-0.030999
C163	C	0.672331	0.074136	-0.408720
C164	C	1.172331	0.574136	0.091280
C165	C	0.723718	0.084872	-0.531022
C166	C	1.223718	0.584872	-0.031022
C167	C	0.672323	0.074128	-0.591442
C168	C	1.172323	0.574128	-0.091442
C169	C	0.620906	0.063341	-0.469152
C170	C	1.120906	0.563341	0.030848
C171	C	0.683044	0.125531	-0.469169
C172	C	1.183044	0.625531	0.030831
C173	C	0.631608	0.114784	-0.530933
C174	C	1.131608	0.614784	-0.030933
C175	C	0.672336	0.074139	-0.303459
C176	C	1.172336	0.574139	0.196541
C177	C	0.672312	0.074125	-0.696701
C178	C	1.172312	0.574125	-0.196701
N179	N	0.672309	0.074123	0.219391
N180	N	1.172309	0.574123	0.719391
H181	H	0.574205	-0.740143	-0.000020
H182	H	1.074205	-0.240143	0.499980
H183	H	0.098544	0.219617	-0.000049
H184	H	0.598544	0.719617	0.499951
Cl185	Cl	0.840637	-0.515951	-0.000056
Cl186	Cl	1.340637	-0.015951	0.499944
Cl187	Cl	0.578432	0.167874	-0.572519
Cl188	Cl	1.078432	0.667874	-0.072519
Cl189	Cl	0.502396	-0.469847	-0.000020
Cl190	Cl	1.002396	0.030153	0.499980
Cl191	Cl	0.790815	0.098897	-0.572987
Cl192	Cl	1.290815	0.598897	-0.072987
H193	H	0.770441	-0.111594	-0.000164
H194	H	1.270441	0.388406	0.499836
H195	H	0.652545	-0.020763	-0.558158
H196	H	1.152545	0.479237	-0.058158
H197	H	0.246123	-0.071339	-0.000171
H198	H	0.746123	0.428661	0.499829
H199	H	0.575489	-0.632392	-0.000016
H200	H	1.075489	-0.132392	0.499984
H201	H	0.580742	-0.193674	-0.000097
H202	H	1.080742	0.306326	0.499903
H203	H	-0.059866	0.165717	-0.000069
H204	H	0.440134	0.665717	0.499931
Cl205	Cl	0.528568	-0.038984	-0.000102
Cl206	Cl	1.028568	0.461016	0.499898
H207	H	0.692129	0.168985	-0.441990
H208	H	1.192129	0.668985	0.058010
H209	H	-0.141947	-0.023982	-0.000121
H210	H	0.358053	0.476018	0.499879
H211	H	0.577436	0.054207	-0.442089
H212	H	1.077436	0.554207	0.057911
H213	H	0.763901	-0.658053	-0.000073
H214	H	1.263901	-0.158053	0.499927
Cl215	Cl	-0.183920	0.187258	-0.000068
Cl216	Cl	0.316080	0.687258	0.499932
H217	H	-0.034198	-0.022693	-0.000134
H218	H	0.465802	0.477307	0.499866
Cl219	Cl	0.766073	-0.019644	-0.427356
Cl220	Cl	1.266073	0.480356	0.072644
H221	H	0.526842	-0.352085	-0.000042
H222	H	1.026842	0.147915	0.499958
H223	H	0.486602	0.172255	-0.000019
H224	H	0.986602	0.672255	0.499981
Cl225	Cl	0.791992	-0.235629	-0.000130
Cl226	Cl	1.291992	0.264371	0.499870
Cl227	Cl	0.394491	-0.040595	-0.000119
Cl228	Cl	0.894491	0.459405	0.499881
H229	H	0.762606	-0.765820	-0.000054
H230	H	1.262606	-0.265820	0.499946
H231	H	0.819093	-0.391915	-0.000083
H232	H	1.319093	0.108085	0.499917
Cl233	Cl	0.362567	0.193810	-0.000038
Cl234	Cl	0.862567	0.693810	0.499962
Cl235	Cl	0.216306	0.244063	-0.000027
Cl236	Cl	0.716306	0.744063	0.499973
H237	H	0.582038	-0.085909	-0.000111
H238	H	1.082038	0.414091	0.499889
H239	H	0.138374	-0.072634	-0.000170
H240	H	0.638374	0.427366	0.499830
