data_functionalizedCrystal
_audit_creation_method	'MofGen! by Chris Wilmer'
_symmetry_space_group_name_H-M	'P1'
_symmetry_Int_Tables_number	1
_symmetry_cell_setting	triclinic
loop_
_symmetry_equiv_pos_as_xyz
  x,y,z
_cell_length_a	16.625547
_cell_length_b	21.295417
_cell_length_c	16.625539
_cell_angle_alpha	90.033373
_cell_angle_beta	90.024822
_cell_angle_gamma	90.030443
loop_
_atom_site_label
_atom_site_type_symbol
_atom_site_fract_x
_atom_site_fract_y
_atom_site_fract_z
Zn1	Zn	1.232635	-0.250609	0.455972
Zn2	Zn	1.232520	-0.355882	0.321128
Zn3	Zn	1.097797	-0.250631	0.321143
Zn4	Zn	1.097749	-0.355844	0.455908
O5	O	1.165175	-0.303242	0.388538
O6	O	1.345452	-0.264581	0.438106
O7	O	1.214620	-0.341946	0.208297
O8	O	1.115753	-0.162539	0.339062
O9	O	1.345367	-0.341925	0.339036
O10	O	1.214818	-0.162523	0.438121
O11	O	1.115640	-0.264618	0.208308
O12	O	0.984958	-0.264581	0.338999
O13	O	1.115670	-0.341859	0.568749
O14	O	0.984923	-0.341881	0.438010
O15	O	1.214771	-0.264544	0.568796
O16	O	1.214573	-0.443967	0.338973
O17	O	1.115558	-0.443939	0.437995
C18	C	0.955684	-0.303229	0.388500
C19	C	0.866063	-0.303239	0.388502
C20	C	0.793281	-0.303241	0.388512
C21	C	0.701972	-0.303244	0.388533
C22	C	0.629196	-0.303250	0.388553
C23	C	0.537882	-0.303254	0.388572
C24	C	1.165070	-0.466793	0.388493
C25	C	1.165098	-0.536761	0.388501
C26	C	1.216701	-0.569622	0.336993
C27	C	1.216739	-0.635364	0.337011
C28	C	1.165159	-0.668244	0.388529
C29	C	1.113552	-0.635376	0.440047
C30	C	1.113522	-0.569634	0.440033
N31	N	1.094624	-0.771510	0.394663
N32	N	1.094656	-0.833961	0.394671
C33	C	1.165250	-0.866319	0.388575
N34	N	1.235813	-0.833866	0.382454
N35	N	1.235780	-0.771408	0.382441
C36	C	1.165187	-0.739529	0.388550
C37	C	1.216898	-0.970465	0.337084
C38	C	1.216937	-1.036208	0.337108
C39	C	1.113743	-1.036218	0.440139
C40	C	1.113712	-0.970476	0.440120
C41	C	1.165288	-0.937603	0.388588
C42	C	1.375484	-0.303254	0.388576
C43	C	1.465105	-0.303260	0.388593
C44	C	1.165228	-0.303195	0.598847
C45	C	1.165250	-0.303175	0.688468
C46	C	1.165303	-0.139051	0.388600
C47	C	1.165358	-0.069083	0.388627
C48	C	1.165169	-0.303243	0.179047
C49	C	1.165303	-0.303086	0.089426
C50	C	1.165287	-0.303104	1.016644
C51	C	1.165275	-0.303126	0.925335
C52	C	1.165269	-0.303140	0.852559
C53	C	1.165256	-0.303161	0.761244
H54	H	1.258764	-0.662124	0.295067
C55	C	1.056750	-0.533484	0.496691
C56	C	0.993445	-0.488356	0.461677
C57	C	0.936671	-0.452205	0.518334
C58	C	0.943202	-0.461182	0.610006
C59	C	1.006510	-0.506313	0.645024
C60	C	1.063284	-0.542464	0.588367
H61	H	0.988607	-0.481708	0.393812
H62	H	0.889806	-0.418796	0.492411
H63	H	0.901175	-0.434421	0.651947
H64	H	1.011348	-0.512961	0.712889
H65	H	1.110149	-0.575873	0.614291
H66	H	1.071557	-0.662150	0.481994
C67	C	1.273710	-1.072357	0.280449
C68	C	1.330440	-1.036195	0.223771
C69	C	1.387214	-1.072345	0.167114
C70	C	1.387259	-1.144658	0.167134
C71	C	1.330527	-1.180825	0.223814
C72	C	1.273752	-1.144674	0.280472
H73	H	1.330408	-0.982661	0.223754
H74	H	1.429211	-1.045572	0.125155
H75	H	1.429287	-1.171418	0.125193
H76	H	1.330558	-1.234358	0.223831
H77	H	1.231755	-1.171448	0.322430
H78	H	1.258897	-0.943698	0.295126
C79	C	1.057002	-1.072378	0.496808
C80	C	1.057031	-1.144690	0.496826
C81	C	1.000289	-1.180853	0.553498
C82	C	0.943518	-1.144703	0.610153
C83	C	0.943487	-1.072386	0.610138
C84	C	1.000229	-1.036223	0.553465
H85	H	1.099058	-1.171454	0.454885
H86	H	1.000312	-1.234387	0.553510
H87	H	0.901514	-1.171473	0.652105
H88	H	0.901460	-1.045622	0.652079
H89	H	1.000206	-0.982690	0.553454
H90	H	1.071688	-0.943719	0.482059
H91	H	1.258700	-0.542859	0.295035
