data_functionalizedCrystal
_audit_creation_method	'MofGen! by Chris Wilmer'
_symmetry_space_group_name_H-M	'P1'
_symmetry_Int_Tables_number	1
_symmetry_cell_setting	triclinic
loop_
_symmetry_equiv_pos_as_xyz
  x,y,z
_cell_length_a	16.959455
_cell_length_b	29.839131
_cell_length_c	16.959447
_cell_angle_alpha	89.966085
_cell_angle_beta	89.985678
_cell_angle_gamma	90.038367
loop_
_atom_site_label
_atom_site_type_symbol
_atom_site_fract_x
_atom_site_fract_y
_atom_site_fract_z
Zn1	Zn	1.208267	-0.178881	-0.446889
Zn2	Zn	1.208140	-0.254014	-0.314702
Zn3	Zn	1.076095	-0.178895	-0.314726
Zn4	Zn	1.076010	-0.253981	-0.446841
O5	O	1.142128	-0.216443	-0.380790
O6	O	1.318861	-0.188856	-0.429364
O7	O	1.190606	-0.244070	-0.204094
O8	O	1.093716	-0.116026	-0.332288
O9	O	1.318767	-0.244056	-0.332247
O10	O	1.190822	-0.116016	-0.429388
O11	O	1.093593	-0.188880	-0.204112
O12	O	0.965473	-0.188847	-0.332242
O13	O	1.093572	-0.243999	-0.557458
O14	O	0.965411	-0.244012	-0.429305
O15	O	1.190740	-0.188823	-0.557493
O16	O	1.190524	-0.316877	-0.332200
O17	O	1.093449	-0.316852	-0.429282
C18	C	0.936762	-0.216428	-0.380771
C19	C	0.848905	-0.216433	-0.380782
C20	C	0.477437	-0.187695	-0.330354
C21	C	0.477421	-0.245228	-0.431270
C22	C	0.559967	-0.245221	-0.431265
C23	C	0.601252	-0.216452	-0.380803
C24	C	0.559991	-0.187688	-0.330346
C25	C	0.601235	-0.273987	-0.481716
C26	C	0.683786	-0.273982	-0.481713
C27	C	0.725072	-0.245210	-0.431254
C28	C	0.683806	-0.216445	-0.380795
C29	C	0.725090	-0.187676	-0.330333
C30	C	0.683826	-0.158908	-0.279878
C31	C	0.601277	-0.158916	-0.279887
C32	C	0.807620	-0.245202	-0.431245
C33	C	0.807644	-0.187669	-0.330325
C34	C	1.141985	-0.333165	-0.380750
C35	C	1.141996	-0.383100	-0.380760
C36	C	1.192767	-0.692743	-0.330313
C37	C	1.192864	-0.880416	-0.330344
O38	O	1.235918	-0.904681	-0.287422
N39	N	1.142292	-0.903885	-0.380849
C40	C	1.091695	-0.880432	-0.431354
O41	O	1.048688	-0.904700	-0.474319
C42	C	1.091602	-0.692760	-0.431327
C43	C	1.142172	-0.669294	-0.380812
C44	C	1.243333	-0.669277	-0.279803
C45	C	1.243305	-0.622362	-0.279793
C46	C	1.192711	-0.598913	-0.330293
C47	C	1.142144	-0.622379	-0.380802
C48	C	1.041010	-0.669308	-0.481835
C49	C	1.040992	-0.622387	-0.481826
C50	C	1.091563	-0.598921	-0.431311
C51	C	1.091522	-0.552014	-0.431292
N52	N	1.142094	-0.528545	-0.380786
C53	C	1.192689	-0.551995	-0.330287
C54	C	1.091746	-0.978963	-0.431364
C55	C	1.091768	-1.025881	-0.431370
C56	C	1.192939	-1.025862	-0.330360
C57	C	1.192912	-0.978943	-0.330351
C58	C	1.142319	-0.955494	-0.380858
C59	C	1.192626	-0.453469	-0.330268
C60	C	1.192591	-0.406549	-0.330260
C61	C	1.091424	-0.406572	-0.431273
C62	C	1.091455	-0.453488	-0.431278
C63	C	1.142063	-0.476935	-0.380773
O64	O	1.048497	-0.527720	-0.474197
O65	O	1.235702	-0.527719	-0.287341
C66	C	1.192795	-0.739659	-0.330323
C67	C	1.142228	-0.763125	-0.380833
C68	C	1.091633	-0.739675	-0.431332
C69	C	1.142250	-0.810043	-0.380839
C70	C	1.192845	-0.833492	-0.330339
C71	C	1.243417	-0.810024	-0.279834
C72	C	1.243389	-0.763108	-0.279824
C73	C	1.041061	-0.763144	-0.481838
C74	C	1.041092	-0.810059	-0.481843
C75	C	1.091687	-0.833509	-0.431344
C76	C	1.348296	-0.216458	-0.380808
C77	C	1.436153	-0.216465	-0.380816
C78	C	1.142161	-0.216406	-0.586958
C79	C	1.142175	-0.216390	-0.674814
C80	C	1.142293	-0.099264	-0.380846
C81	C	1.142363	-0.049330	-0.380870
C82	C	1.091678	-0.245070	-1.046274
C83	C	1.192860	-0.187615	-1.046306
C84	C	1.192839	-0.187625	-0.963760
C85	C	1.142238	-0.216358	-0.922468
C86	C	1.091657	-0.245081	-0.963721
C87	C	1.243424	-0.158905	-0.922501
C88	C	1.243406	-0.158914	-0.839950
C89	C	1.192800	-0.187645	-0.798656
C90	C	1.142217	-0.216369	-0.839914
C91	C	1.091615	-0.245102	-0.798621
C92	C	1.041028	-0.273824	-0.839878
C93	C	1.041051	-0.273812	-0.922426
C94	C	1.192776	-0.187657	-0.716107
C95	C	1.091594	-0.245113	-0.716068
C96	C	1.142141	-0.216447	-0.175423
C97	C	1.142280	-0.216337	-0.087567
H98	H	0.443803	-0.268653	-0.472350
H99	H	0.999905	-0.829161	-0.522978
H100	H	1.050279	-0.472595	-0.472414
H101	H	0.567615	-0.297413	-0.522794
C102	C	0.852566	-0.156506	-0.275489
C103	C	0.899927	-0.181904	-0.224751
C104	C	0.941329	-0.153212	-0.174233
H105	H	0.816258	-0.139365	-0.245368
H106	H	0.884846	-0.136958	-0.305763
H107	H	0.867650	-0.201444	-0.194479
H108	H	0.936250	-0.199044	-0.254850
H109	H	0.973609	-0.133665	-0.204507
H110	H	0.905015	-0.136073	-0.144117
H111	H	0.973473	-0.170440	-0.139806
H112	H	1.233837	-0.472554	-0.289144
H113	H	0.999826	-0.688406	-0.522966
H114	H	0.567672	-0.135496	-0.238808
C115	C	0.728441	-0.305228	-0.536582
C116	C	0.674616	-0.330416	-0.580788
C117	C	0.715724	-0.359199	-0.631351
H118	H	0.760621	-0.324819	-0.506371
H119	H	0.760651	-0.288073	-0.571118
H120	H	0.642420	-0.347571	-0.546257
H121	H	0.642434	-0.310838	-0.611015
H122	H	0.747934	-0.342044	-0.665887
H123	H	0.747903	-0.378787	-0.601134
H124	H	0.679211	-0.376290	-0.661356
H125	H	0.999868	-0.297198	-0.956025
H126	H	0.717450	-0.135486	-0.238788
C127	C	1.298254	-0.835472	-0.224885
C128	C	1.281092	-0.824122	-0.146650
C129	C	1.331585	-0.847566	-0.096020
H130	H	1.351380	-0.827772	-0.236399
H131	H	1.291008	-0.866778	-0.232088
H132	H	1.288345	-0.792824	-0.139450
H133	H	1.227975	-0.831823	-0.135110
H134	H	1.324339	-0.878872	-0.103223
H135	H	1.384708	-0.839864	-0.107542
H136	H	1.319943	-0.839872	-0.042932
C137	C	1.036843	-0.276236	-1.091204
C138	C	1.047699	-0.270085	-1.172336
C139	C	0.997206	-0.298792	-1.213750
H140	H	0.983709	-0.269688	-1.077771
H141	H	1.048374	-0.306434	-1.077704
H142	H	1.036162	-0.239895	-1.185831
H143	H	1.100822	-0.276637	-1.185793
H144	H	1.008736	-0.328990	-1.200249
H145	H	0.944075	-0.292241	-1.200310
H146	H	1.004569	-0.294626	-1.268802
H147	H	0.443836	-0.164272	-0.289277
H148	H	1.234135	-1.044962	-0.289242
H149	H	1.284626	-0.135515	-0.956128
C150	C	0.852524	-0.276359	-0.486063
C151	C	0.899970	-0.250955	-0.536793
C152	C	0.941354	-0.279642	-0.587299
H153	H	0.816205	-0.293506	-0.516190
H154	H	0.884745	-0.295900	-0.455779
H155	H	0.867751	-0.231421	-0.567074
H156	H	0.936303	-0.233809	-0.506688
H157	H	0.973575	-0.299184	-0.557015
H158	H	0.905029	-0.296788	-0.617421
H159	H	0.973555	-0.262411	-0.621720
C160	C	1.247587	-0.381153	-0.275385
C161	C	1.291916	-0.411735	-0.231180
C162	C	1.342592	-0.388359	-0.180631
H163	H	1.217452	-0.362880	-0.240842
H164	H	1.282040	-0.362829	-0.305630
H165	H	1.257467	-0.430053	-0.200937
H166	H	1.322066	-0.430009	-0.265703
H167	H	1.377046	-0.370035	-0.210877
H168	H	1.312451	-0.370087	-0.146093
H169	H	1.372680	-0.409105	-0.150638
C170	C	0.985968	-0.305000	-0.795147
C171	C	0.907777	-0.295221	-0.815236
C172	C	0.857040	-0.323936	-0.774053
H173	H	0.993098	-0.300925	-0.740063
H174	H	0.997455	-0.335190	-0.808682
H175	H	0.896294	-0.265039	-0.801696
H176	H	0.900622	-0.299299	-0.870313
H177	H	0.868527	-0.354126	-0.787587
H178	H	0.864176	-0.319859	-0.718971
H179	H	0.803982	-0.317308	-0.787683
H180	H	1.284597	-0.135526	-0.806366
H181	H	1.284538	-0.688365	-0.238680
H182	H	1.284486	-0.603259	-0.238662
C183	C	1.247907	-0.953549	-0.275480
C184	C	1.292227	-0.984133	-0.231271
C185	C	1.342907	-0.960759	-0.180721
H186	H	1.217775	-0.935273	-0.240939
H187	H	1.282365	-0.935227	-0.305725
H188	H	1.257773	-1.002447	-0.201028
H189	H	1.322376	-1.002410	-0.265791
H190	H	1.377365	-0.942437	-0.210967
H191	H	1.312768	-0.942484	-0.146186
H192	H	1.372989	-0.981506	-0.150725
C193	C	1.247724	-0.156428	-0.671457
C194	C	1.292033	-0.131257	-0.725288
C195	C	1.342653	-0.102477	-0.684186
H196	H	1.282198	-0.173571	-0.639239
H197	H	1.217525	-0.136829	-0.639286
H198	H	1.322229	-0.150853	-0.757445
H199	H	1.257579	-0.114105	-0.757508
H200	H	1.312455	-0.082879	-0.652015
H201	H	1.377123	-0.119624	-0.651969
H202	H	1.372718	-0.085393	-0.720703
H203	H	1.050582	-1.044983	-0.472496
H204	H	1.234062	-0.164225	-1.079932
C205	C	0.986107	-0.596985	-0.536793
C206	C	1.003269	-0.608368	-0.615014
C207	C	0.952719	-0.584982	-0.665669
H208	H	0.993282	-0.565675	-0.529664
H209	H	0.932996	-0.604719	-0.525230
H210	H	1.056367	-0.600631	-0.626572
H211	H	0.996089	-0.639674	-0.622167
H212	H	0.899608	-0.592715	-0.654106
H213	H	0.959898	-0.553672	-0.658533
H214	H	0.964351	-0.592704	-0.718746
C215	C	1.036718	-0.953589	-0.486228
C216	C	0.992423	-0.984189	-0.530436
C217	C	0.941711	-0.960834	-0.580972
H218	H	1.066825	-0.935255	-0.520769
H219	H	1.002245	-0.935328	-0.455973
H220	H	1.026891	-1.002443	-0.560688
H221	H	0.962299	-1.002525	-0.495915
H222	H	0.907238	-0.942572	-0.550718
H223	H	0.971825	-0.942500	-0.615509
H224	H	0.911645	-0.981592	-0.610968
C225	C	1.036549	-0.381162	-0.486233
C226	C	1.053716	-0.392542	-0.564454
C227	C	1.003182	-0.369146	-0.615111
H228	H	1.043737	-0.349853	-0.479097
H229	H	0.983433	-0.388889	-0.474679
H230	H	1.106819	-0.384812	-0.576004
H231	H	1.046524	-0.423847	-0.571615
H232	H	0.950067	-0.376873	-0.603556
H233	H	1.010374	-0.337838	-0.607968
H234	H	1.014818	-0.376867	-0.668189
H235	H	1.284568	-0.744006	-0.238690
C236	C	0.986034	-0.737770	-0.536694
C237	C	0.941741	-0.768370	-0.580906
C238	C	0.891027	-0.745014	-0.631439
H239	H	1.016139	-0.719433	-0.571234
H240	H	0.951559	-0.719511	-0.506437
H241	H	0.976212	-0.786621	-0.611161
H242	H	0.911620	-0.786708	-0.546387
H243	H	0.856552	-0.726755	-0.601182
H244	H	0.921138	-0.726678	-0.665973
H245	H	0.860963	-0.765772	-0.661438
H246	H	1.050381	-0.268507	-0.682453
