data_functionalizedCrystal
_audit_creation_method	'MofGen! by Chris Wilmer'
_symmetry_space_group_name_H-M	'P1'
_symmetry_Int_Tables_number	1
_symmetry_cell_setting	triclinic
loop_
_symmetry_equiv_pos_as_xyz
  x,y,z
_cell_length_a	10.686220
_cell_length_b	14.909383
_cell_length_c	10.686551
_cell_angle_alpha	88.639017
_cell_angle_beta	90.308082
_cell_angle_gamma	90.858813
loop_
_atom_site_label
_atom_site_type_symbol
_atom_site_fract_x
_atom_site_fract_y
_atom_site_fract_z
Zn1	Zn	1.991087	-0.218000	-0.578554
Zn2	Zn	1.988814	-0.379846	-0.380798
Zn3	Zn	1.767178	-0.240874	-0.386568
Zn4	Zn	1.795088	-0.378034	-0.606441
O5	O	1.885542	-0.304188	-0.488090
O6	O	2.165567	-0.230655	-0.538235
O7	O	1.946782	-0.371742	-0.206784
O8	O	1.786150	-0.112705	-0.402778
O9	O	2.163897	-0.349562	-0.392945
O10	O	1.950655	-0.095900	-0.543830
O11	O	1.783947	-0.269640	-0.211023
O12	O	1.596098	-0.267883	-0.429820
O13	O	1.833719	-0.346474	-0.777521
O14	O	1.616604	-0.368654	-0.591360
O15	O	1.977719	-0.228898	-0.757032
O16	O	1.973845	-0.504740	-0.419987
O17	O	1.831516	-0.503409	-0.585766
C18	C	1.561032	-0.320555	-0.514243
C19	C	1.422210	-0.327576	-0.525463
C20	C	1.905498	-0.536517	-0.505301
C21	C	1.914153	-0.635900	-0.512696
C22	C	1.759253	-0.840306	-0.379558
C23	C	1.767381	-0.933685	-0.386503
C24	C	1.938541	-0.916041	-0.533524
C25	C	1.930414	-0.822661	-0.526579
C26	C	1.840765	-0.784797	-0.449595
C27	C	1.832633	-0.691416	-0.442657
C28	C	2.003798	-0.673773	-0.589670
C29	C	2.011926	-0.767153	-0.596615
C30	C	2.211318	-0.287759	-0.461836
C31	C	2.350145	-0.280758	-0.450648
C32	C	1.909086	-0.284932	-0.813862
C33	C	1.919119	-0.276726	-0.952687
C34	C	1.865543	-0.070949	-0.470837
C35	C	1.857021	0.028444	-0.463485
C36	C	1.862155	-0.323302	-0.163575
C37	C	1.852343	-0.331244	-0.024713
H38	H	1.394650	-0.235304	-0.378011
O39	O	1.996304	-0.213456	-1.005880
C40	C	1.925636	-0.154892	-1.082832
H41	H	1.823976	-0.156635	-1.050962
H42	H	1.965019	-0.083702	-1.075703
H43	H	1.930770	-0.176982	-1.184055
O44	O	1.369323	-0.381880	-0.612156
C45	C	1.464197	-0.423978	-0.679487
H46	H	1.553782	-0.425393	-0.621118
H47	H	1.433428	-0.495556	-0.700895
H48	H	1.482097	-0.385028	-0.770892
H49	H	1.759633	-0.660588	-0.379977
O50	O	2.025444	-0.952885	-0.608447
C51	C	1.964770	-1.005774	-0.698767
H52	H	1.864507	-0.982190	-0.712238
H53	H	2.016892	-0.998847	-0.791372
H54	H	1.963850	-1.079050	-0.665730
H55	H	1.686250	-0.809476	-0.316884
O56	O	1.688064	-0.987477	-0.318432
C57	C	1.607223	-0.934028	-0.248974
H58	H	1.600757	-0.864650	-0.295528
H59	H	1.510211	-0.966829	-0.245506
H60	H	1.645327	-0.927386	-0.149724
O61	O	2.098831	-0.803986	-0.671547
C62	C	2.038163	-0.856870	-0.761877
H63	H	1.937894	-0.833295	-0.775336
H64	H	2.090279	-0.849926	-0.854484
H65	H	2.037260	-0.930149	-0.728857
O66	O	2.082924	-0.619722	-0.657587
C67	C	2.056505	-0.529182	-0.634983
H68	H	2.007614	-0.524234	-0.540902
H69	H	2.147574	-0.488404	-0.633363
H70	H	1.992966	-0.501695	-0.712404
O71	O	1.775148	-0.394462	-0.971434
C72	C	1.845830	-0.453051	-0.894533
H73	H	1.936393	-0.417871	-0.865160
H74	H	1.789432	-0.472961	-0.807720
H75	H	1.868819	-0.515695	-0.948533
