data_functionalizedCrystal
_audit_creation_method	'MofGen! by Chris Wilmer'
_symmetry_space_group_name_H-M	'P1'
_symmetry_Int_Tables_number	1
_symmetry_cell_setting	triclinic
loop_
_symmetry_equiv_pos_as_xyz
  x,y,z
_cell_length_a	10.489741
_cell_length_b	10.654550
_cell_length_c	9.130313
_cell_angle_alpha	89.998741
_cell_angle_beta	89.998961
_cell_angle_gamma	95.487948
loop_
_atom_site_label
_atom_site_type_symbol
_atom_site_fract_x
_atom_site_fract_y
_atom_site_fract_z
O1	O	-1.693967	0.177189	0.121694
O2	O	-1.322763	0.193821	0.121715
O3	O	-1.516900	0.002770	0.121710
O4	O	-1.499830	0.368240	0.121699
O5	O	-1.516885	0.002770	-0.121889
O6	O	-1.322749	0.193821	-0.121884
O7	O	-1.693952	0.177189	-0.121905
Cu8	Cu	-1.508349	0.185505	-0.144137
Cu9	Cu	-1.508366	0.185505	0.143947
O10	O	-1.499816	0.368241	-0.121900
C11	C	-1.275225	0.192565	-0.000082
C12	C	-1.133597	0.188807	-0.000073
C13	C	-1.741491	0.178445	-0.000106
C14	C	-1.883118	0.182204	-0.000105
C15	C	-1.515639	-0.044029	-0.000085
C16	C	-1.511889	-0.183474	-0.000071
C17	C	-1.065516	0.067246	-0.000083
C18	C	-0.973369	0.124670	0.120019
C19	C	-0.973388	0.124699	-0.120150
C20	C	-1.043315	0.246281	0.120129
C21	C	-1.043344	0.246293	-0.120149
C22	C	-0.951224	0.303805	-0.000017
C23	C	-1.501076	0.415039	-0.000102
C24	C	-1.504826	0.554484	-0.000107
N25	N	-1.508346	0.185505	-0.346760
C26	C	-1.390522	0.633916	-0.000097
C27	C	-1.394053	0.764939	-0.000073
C28	C	-1.626203	0.737084	-0.000076
C29	C	-1.622670	0.606064	-0.000089
C30	C	-1.586381	0.262423	-0.423413
C31	C	-1.586401	0.262416	-0.576750
C32	C	-1.430342	0.108569	-0.576766
C33	C	-1.430329	0.108570	-0.423432
N34	N	-1.508379	0.185496	0.346569
H35	H	-1.115254	-0.032684	0.000070
F36	F	-1.347308	0.026701	-0.658379
H37	H	-1.300974	0.829608	-0.000063
H38	H	-1.074359	0.297686	-0.221696
F39	F	-0.932924	0.057445	-0.252869
H40	H	-0.901752	0.403841	0.000045
H41	H	-1.294566	0.591924	-0.000116
F42	F	-1.751614	0.791991	-0.000062
H43	H	-1.366782	0.045927	-0.361019
H44	H	-1.715757	0.541387	-0.000092
F45	F	-1.669421	0.344296	-0.341818
H46	H	-1.649947	0.325049	-0.639155
H47	H	-1.074125	0.297676	0.221780
F48	F	-0.932873	0.057445	0.252746
