data_functionalizedCrystal
_audit_creation_method	'MofGen! by Chris Wilmer'
_symmetry_space_group_name_H-M	'P1'
_symmetry_Int_Tables_number	1
_symmetry_cell_setting	triclinic
loop_
_symmetry_equiv_pos_as_xyz
  x,y,z
_cell_length_a	10.654550
_cell_length_b	14.519709
_cell_length_c	9.730223
_cell_angle_alpha	89.994652
_cell_angle_beta	89.999957
_cell_angle_gamma	84.082538
loop_
_atom_site_label
_atom_site_type_symbol
_atom_site_fract_x
_atom_site_fract_y
_atom_site_fract_z
O1	O	1.666594	0.129532	-0.114191
O2	O	1.300996	0.141873	-0.114216
O3	O	1.493488	0.001514	-0.114190
O4	O	1.474102	0.269891	-0.114216
O5	O	1.493476	0.001511	0.114390
O6	O	1.300984	0.141869	0.114364
O7	O	1.666581	0.129528	0.114389
Zn8	Zn	1.483781	0.135698	0.150669
Zn9	Zn	1.483797	0.135703	-0.150495
O10	O	1.474089	0.269887	0.114363
C11	C	1.254201	0.140965	0.000071
C12	C	1.114784	0.138254	0.000061
C13	C	1.034504	0.220895	0.000057
C14	C	0.903507	0.218342	0.000081
C15	C	0.933084	0.050500	0.000108
C16	C	1.064078	0.053054	0.000094
C17	C	1.492579	-0.032852	0.000100
C18	C	1.489871	-0.135247	0.000100
C19	C	1.479904	-0.510195	0.000064
C20	C	1.482672	-0.405872	0.000075
C21	C	1.484887	-0.322724	0.000083
C22	C	1.487656	-0.218395	0.000091
C23	C	1.713377	0.130436	0.000099
C24	C	1.852794	0.133147	0.000100
C25	C	1.474999	0.304253	0.000070
C26	C	1.477706	0.406649	0.000061
N27	N	1.483779	0.135694	0.356205
N28	N	1.483809	0.135700	-0.356032
C29	C	1.569043	0.073570	0.428142
C30	C	1.569056	0.073570	0.572025
C31	C	1.398535	0.197827	0.572021
C32	C	1.398518	0.197822	0.428140
H33	H	0.838147	0.285637	0.000081
H34	H	1.129446	-0.014247	0.000101
C35	C	0.745412	-0.027941	0.000128
C36	C	0.877343	-0.043149	0.000126
H37	H	0.711005	-0.085758	0.000127
H38	H	0.717881	0.006113	0.079832
H39	H	0.717876	0.006124	-0.079591
H40	H	0.904879	-0.077208	0.079849
H41	H	0.904886	-0.077217	-0.079587
H42	H	1.638466	0.022980	0.369576
C43	C	1.229969	0.320639	0.557564
C44	C	1.304820	0.266117	0.651096
H45	H	1.172108	0.362794	0.606382
H46	H	1.282302	0.354172	0.501435
H47	H	1.184719	0.281925	0.501457
H48	H	1.350078	0.304830	0.707196
H49	H	1.252480	0.232582	0.707248
C50	C	0.992106	0.386542	0.000050
C51	C	1.090241	0.314545	0.000040
H52	H	1.026516	0.444358	0.000051
H53	H	0.941625	0.382057	-0.079651
H54	H	0.941635	0.382044	0.079772
H55	H	1.140707	0.319039	-0.079687
H56	H	1.140743	0.319032	0.079749
C57	C	1.737615	-0.049242	0.557568
C58	C	1.662786	0.005285	0.651099
H59	H	1.795486	-0.091397	0.606387
H60	H	1.685268	-0.082776	0.501467
H61	H	1.782854	-0.010532	0.501433
H62	H	1.617539	-0.033426	0.707227
H63	H	1.715140	0.038821	0.707224
H64	H	1.329079	0.248411	0.369565
