data_functionalizedCrystal
_audit_creation_method	'MofGen! by Chris Wilmer'
_symmetry_space_group_name_H-M	'P1'
_symmetry_Int_Tables_number	1
_symmetry_cell_setting	triclinic
loop_
_symmetry_equiv_pos_as_xyz
  x,y,z
_cell_length_a	13.448316
_cell_length_b	14.971486
_cell_length_c	14.971486
_cell_angle_alpha	83.614129
_cell_angle_beta	90.007486
_cell_angle_gamma	89.999610
loop_
_atom_site_label
_atom_site_type_symbol
_atom_site_fract_x
_atom_site_fract_y
_atom_site_fract_z
O1	O	0.082651	1.186940	0.116566
O2	O	0.415984	1.520274	0.449900
O3	O	0.749318	1.853607	0.783233
O4	O	0.082662	0.926540	0.130525
O5	O	0.415995	1.259873	0.463859
O6	O	0.749329	1.593207	0.797192
O7	O	0.082649	1.063720	-0.006654
O8	O	0.415982	1.397053	0.326679
O9	O	0.749316	1.730386	0.660012
O10	O	0.082664	1.049761	0.253746
O11	O	0.415997	1.383094	0.587079
O12	O	0.749331	1.716427	0.920413
O13	O	-0.082735	1.063717	-0.006666
O14	O	0.250599	1.397050	0.326667
O15	O	0.583932	1.730383	0.660001
O16	O	-0.082722	0.926537	0.130513
O17	O	0.250612	1.259870	0.463847
O18	O	0.583945	1.593204	0.797180
O19	O	-0.082733	1.186937	0.116555
O20	O	0.250600	1.520271	0.449888
O21	O	0.583934	1.853604	0.783221
Cu22	Cu	-0.097828	1.056737	0.123533
Cu23	Cu	0.235505	1.390070	0.456866
Cu24	Cu	0.568838	1.723404	0.790200
Cu25	Cu	0.097757	1.056740	0.123547
Cu26	Cu	0.431091	1.390074	0.456880
Cu27	Cu	0.764424	1.723407	0.790214
O28	O	-0.082720	1.049758	0.253734
O29	O	0.250613	1.383091	0.587067
O30	O	0.583947	1.716424	0.920401
C31	C	-0.000028	0.893214	0.129895
C32	C	0.333305	1.226547	0.463228
C33	C	0.666638	1.559881	0.796562
C34	C	-0.000024	0.793917	0.128024
C35	C	0.333309	1.127250	0.461358
C36	C	0.666642	1.460583	0.794691
N37	N	-0.235392	1.056741	0.123523
N38	N	0.097941	1.390074	0.456856
N39	N	0.431274	1.723408	0.790189
N40	N	0.235322	1.056744	0.123550
N41	N	0.568655	1.390077	0.456884
N42	N	0.901988	1.723410	0.790217
C43	C	-0.000042	1.063094	-0.039985
C44	C	0.333291	1.396427	0.293348
C45	C	0.666624	1.729761	0.626682
C46	C	-0.000042	1.061223	-0.139282
C47	C	0.333292	1.394556	0.194051
C48	C	0.666625	1.727890	0.527385
C49	C	0.287356	1.117600	0.062927
C50	C	0.620690	1.450933	0.396260
C51	C	0.954023	1.784267	0.729594
C52	C	0.391460	1.117604	0.062924
C53	C	0.724793	1.450937	0.396258
C54	C	1.058126	1.784270	0.729591
C55	C	0.443526	1.056746	0.123542
C56	C	0.776860	1.390079	0.456875
C57	C	1.110193	1.723413	0.790208
C58	C	0.391484	0.995887	0.184171
C59	C	0.724818	1.329220	0.517505
C60	C	1.058151	1.662553	0.850838
C61	C	0.287383	0.995888	0.184177
C62	C	0.620716	1.329221	0.517511
C63	C	0.954050	1.662555	0.850844
C64	C	0.608464	0.995887	0.184153
C65	C	0.941798	1.329220	0.517486
C66	C	1.275131	1.662554	0.850820
C67	C	0.712573	0.995884	0.184146
C68	C	1.045906	1.329218	0.517479
C69	C	1.379240	1.662551	0.850813
C70	C	0.712541	1.117603	0.062900
C71	C	1.045874	1.450936	0.396233
C72	C	1.379208	1.784270	0.729567
C73	C	0.608440	1.117604	0.062906
C74	C	0.941773	1.450937	0.396239
C75	C	1.275106	1.784271	0.729573
C76	C	0.556405	1.056743	0.123535
C77	C	0.889738	1.390077	0.456868
C78	C	1.223072	1.723410	0.790201
C79	C	-0.000040	1.220263	0.117185
C80	C	0.333293	1.553597	0.450518
C81	C	0.666626	1.886930	0.783851
C82	C	-0.000038	1.319561	0.119056
C83	C	0.333296	1.652894	0.452389
C84	C	0.666629	1.986227	0.785722
C85	C	-0.000039	1.376786	0.038466
C86	C	0.333294	1.710119	0.371800
C87	C	0.666628	2.043453	0.705133
C88	C	-0.000042	1.470085	0.040229
C89	C	0.333291	1.803419	0.373563
C90	C	0.666624	2.136752	0.706896
C91	C	-0.000037	1.506158	0.122583
C92	C	0.333296	1.839491	0.455916
C93	C	0.666629	2.172824	0.789249
C94	C	-0.000039	1.448925	0.203178
C95	C	0.333294	1.782258	0.536511
C96	C	0.666628	2.115592	0.869845
C97	C	-0.000043	1.355627	0.201414
C98	C	0.333290	1.688961	0.534747
C99	C	0.666624	2.022294	0.868081
C100	C	-0.000029	1.643387	0.206849
C101	C	0.333304	1.976721	0.540182
C102	C	0.666638	2.310054	0.873516
C103	C	-0.000023	1.736692	0.208614
C104	C	0.333310	2.070025	0.541947
C105	C	0.666643	2.403358	0.875280
C106	C	-0.000028	1.757845	0.045664
C107	C	0.333305	2.091179	0.378998
C108	C	0.666638	2.424512	0.712331
C109	C	-0.000032	1.664548	0.043900
C110	C	0.333301	1.997881	0.377234
C111	C	0.666635	2.331214	0.710567
C112	C	-0.000032	1.607322	0.124496
C113	C	0.333301	1.940655	0.457830
C114	C	0.666635	2.273988	0.791163
C115	C	-0.000046	1.141812	-0.196507
C116	C	0.333288	1.475146	0.136826
C117	C	0.666621	1.808479	0.470159
C118	C	-0.000036	1.140049	-0.289807
C119	C	0.333298	1.473383	0.043527
C120	C	0.666631	1.806716	0.376860
C121	C	-0.000028	1.057696	-0.325879
C122	C	0.333305	1.391029	0.007454
C123	C	0.666638	1.724363	0.340788
C124	C	-0.000021	0.977101	-0.268646
C125	C	0.333312	1.310434	0.064687
C126	C	0.666645	1.643767	0.398020
C127	C	-0.000024	0.978865	-0.175349
C128	C	0.333309	1.312198	0.157985
C129	C	0.666642	1.645531	0.491318
C130	C	-0.000018	0.973430	-0.463109
C131	C	0.333316	1.306763	-0.129776
C132	C	0.666649	1.640096	0.203558
C133	C	-0.000016	0.971665	-0.556413
C134	C	0.333317	1.304998	-0.223080
C135	C	0.666650	1.638332	0.110254
C136	C	-0.000029	1.134614	-0.577567
C137	C	0.333304	1.467947	-0.244233
C138	C	0.666638	1.801281	0.089100
C139	C	-0.000032	1.136378	-0.484269
C140	C	0.333302	1.469712	-0.150936
C141	C	0.666635	1.803045	0.182397
C142	C	-0.000027	1.055782	-0.427043
C143	C	0.333307	1.389116	-0.093710
C144	C	0.666640	1.722449	0.239624
C145	C	-0.000026	1.050384	0.287065
C146	C	0.333307	1.383717	0.620398
C147	C	0.666640	1.717050	0.953731
C148	C	-0.000021	1.052254	0.386362
C149	C	0.333313	1.385588	0.719695
C150	C	0.666646	1.718921	1.053028
H151	H	0.244970	1.167154	0.013562
H152	H	0.578304	1.500487	0.346895
H153	H	0.911637	1.833820	0.680228
F154	F	-0.000037	1.224028	-0.445880
F155	F	0.333296	1.557361	-0.112547
F156	F	0.666630	1.890694	0.220786
H157	H	0.566101	0.946331	0.233526
H158	H	0.899434	1.279664	0.566860
H159	H	1.232768	1.612997	0.900193
F160	F	-0.000010	0.887650	-0.402206
F161	F	0.333324	1.220983	-0.068873
F162	F	0.666657	1.554316	0.264461
H163	H	-0.000047	1.516675	-0.025395
H164	H	0.333286	1.850008	0.307939
H165	H	0.666619	2.183342	0.641272
F166	F	-0.000010	0.884016	-0.594802
F167	F	0.333323	1.217349	-0.261468
F168	F	0.666657	1.550682	0.071865
H169	H	-0.000045	1.309035	0.267038
H170	H	0.333288	1.642368	0.600372
H171	H	0.666621	1.975701	0.933705
F172	F	0.767979	0.931112	0.248665
F173	F	1.101312	1.264446	0.581998
F174	F	1.434646	1.597779	0.915331
F175	F	-0.000017	0.893090	-0.114445
F176	F	0.333317	1.226424	0.218888
F177	F	0.666650	1.559757	0.552222
F178	F	0.446839	1.182375	-0.001596
F179	F	0.780172	1.515708	0.331737
F180	F	1.113506	1.849042	0.665070
F181	F	0.553026	1.182369	-0.001614
F182	F	0.886359	1.515703	0.331720
F183	F	1.219692	1.849036	0.665053
H184	H	0.754914	1.167158	0.013534
H185	H	1.088247	1.500491	0.346868
H186	H	1.421580	1.833824	0.680201
F187	F	-0.000063	1.229465	-0.158125
F188	F	0.333270	1.562799	0.175208
F189	F	0.666604	1.896132	0.508541
F190	F	0.446898	0.931121	0.248690
F191	F	0.780232	1.264454	0.582023
F192	F	1.113565	1.597787	0.915357
F193	F	0.232005	0.931118	0.248704
F194	F	0.565339	1.264452	0.582037
F195	F	0.898672	1.597785	0.915371
F196	F	-0.000030	1.220391	-0.638472
F197	F	0.333303	1.553724	-0.305139
F198	F	0.666637	1.887058	0.028195
F199	F	-0.000040	1.338404	-0.049187
F200	F	0.333294	1.671737	0.284147
F201	F	0.666627	2.005071	0.617480
H202	H	-0.000009	0.910047	-0.298024
H203	H	0.333324	1.243380	0.035310
H204	H	0.666657	1.576714	0.368643
H205	H	-0.000041	1.205673	-0.336396
H206	H	0.333292	1.539007	-0.003063
H207	H	0.666626	1.872340	0.330270
F208	F	-0.000018	1.626159	-0.043749
F209	F	0.333316	1.959492	0.289584
F210	F	0.666649	2.292826	0.622918
H211	H	-0.000026	1.804444	-0.019960
H212	H	0.333308	2.137777	0.313374
H213	H	0.666641	2.471111	0.646707
F214	F	-0.000024	1.775080	0.296263
F215	F	0.333310	2.108414	0.629596
F216	F	0.666643	2.441747	0.962930
H217	H	-0.000036	1.596796	0.272479
H218	H	0.333297	1.930129	0.605812
H219	H	0.666631	2.263462	0.939146
H220	H	-0.000041	1.478302	0.270232
H221	H	0.333292	1.811636	0.603565
H222	H	0.666625	2.144969	0.936898
