data_functionalizedCrystal
_audit_creation_method	'MofGen! by Chris Wilmer'
_symmetry_space_group_name_H-M	'P1'
_symmetry_Int_Tables_number	1
_symmetry_cell_setting	triclinic
loop_
_symmetry_equiv_pos_as_xyz
  x,y,z
_cell_length_a	18.050589
_cell_length_b	19.805407
_cell_length_c	19.805399
_cell_angle_alpha	90.016510
_cell_angle_beta	89.976299
_cell_angle_gamma	89.975629
loop_
_atom_site_label
_atom_site_type_symbol
_atom_site_fract_x
_atom_site_fract_y
_atom_site_fract_z
Zn1	Zn	-0.295743	-1.034709	-0.382738
Zn2	Zn	-0.419938	-1.034626	-0.269560
Zn3	Zn	-0.295758	-0.921529	-0.269563
Zn4	Zn	-0.419887	-0.921484	-0.382707
O5	O	-0.357831	-0.978087	-0.326142
O6	O	-0.312232	-1.129415	-0.367736
O7	O	-0.403493	-1.019607	-0.174844
O8	O	-0.191831	-0.936597	-0.284590
O9	O	-0.403478	-1.129353	-0.284585
O10	O	-0.191820	-1.019750	-0.367739
O11	O	-0.312258	-0.936516	-0.174846
O12	O	-0.312209	-0.826807	-0.284560
O13	O	-0.403391	-0.936519	-0.477428
O14	O	-0.403406	-0.826773	-0.367687
O15	O	-0.312183	-1.019706	-0.477450
O16	O	-0.523856	-1.019563	-0.284555
O17	O	-0.523818	-0.936438	-0.367684
C18	C	-0.357804	-0.802231	-0.326121
C19	C	-0.357810	-0.726999	-0.326128
C20	C	-0.550783	-0.978005	-0.326131
C21	C	-0.633329	-0.978032	-0.326149
C22	C	-0.310382	-0.691687	-0.369490
C23	C	-0.310384	-0.620999	-0.369491
C24	C	-0.357819	-0.585623	-0.326133
C25	C	-0.405250	-0.620940	-0.282767
C26	C	-0.405243	-0.691627	-0.282763
C27	C	-0.405277	-0.335867	-0.282780
C28	C	-0.405281	-0.265175	-0.282789
C29	C	-0.310418	-0.265238	-0.369509
C30	C	-0.310411	-0.335926	-0.369505
C31	C	-0.357839	-0.371236	-0.326136
C32	C	-0.357835	-0.447884	-0.326135
C33	C	-0.357828	-0.508976	-0.326137
C34	C	-0.832787	-0.932873	-0.371338
C35	C	-0.882226	-0.916378	-0.309575
C36	C	-0.784460	-0.978099	-0.326157
C37	C	-0.882102	-0.994627	-0.387928
C38	C	-0.930445	-0.978162	-0.326171
C39	C	-0.832812	-0.961571	-0.264362
C40	C	-0.832683	-1.039849	-0.342756
C41	C	-0.882100	-1.023377	-0.280950
C42	C	-0.700361	-0.978061	-0.326150
C43	C	-1.014541	-0.978200	-0.326172
C44	C	-0.164126	-0.978187	-0.326168
C45	C	-0.081580	-0.978230	-0.326179
C46	C	-0.357780	-0.978117	-0.502685
C47	C	-0.357758	-0.978129	-0.577917
C48	C	-0.357854	-0.154630	-0.326157
C49	C	-0.357849	-0.229862	-0.326148
C50	C	-0.310248	-0.934876	-0.613262
C51	C	-0.310233	-0.934885	-0.683950
C52	C	-0.357726	-0.978152	-0.719292
C53	C	-0.405241	-1.021407	-0.683943
C54	C	-0.405259	-1.021394	-0.613255
C55	C	-0.405172	-1.021461	-0.969016
C56	C	-0.405149	-1.021472	-1.039708
C57	C	-0.310146	-0.934952	-1.039711
C58	C	-0.310164	-0.934939	-0.969024
C59	C	-0.357682	-0.978191	-0.933680
C60	C	-0.357698	-0.978180	-0.857031
C61	C	-0.357706	-0.978167	-0.795940
C62	C	-0.357829	-0.978096	-0.150286
C63	C	-0.357642	-0.978215	-0.075054
H64	H	-0.271757	-0.720485	-0.404799
C65	C	-0.216620	-0.628162	-0.455218
C66	C	-0.258251	-0.582184	-0.417158
H67	H	-0.184437	-0.604198	-0.484648
H68	H	-0.188170	-0.655732	-0.425773
H69	H	-0.249023	-0.655731	-0.481054
H70	H	-0.225849	-0.554619	-0.391318
H71	H	-0.286704	-0.554603	-0.446607
C72	C	-0.447416	-0.156786	-0.244294
C73	C	-0.457424	-0.226287	-0.235125
H74	H	-0.479609	-0.132780	-0.214873
H75	H	-0.397510	-0.145218	-0.234469
H76	H	-0.458354	-0.145226	-0.289757
H77	H	-0.446480	-0.237848	-0.189662
H78	H	-0.507341	-0.237860	-0.244945
C79	C	-0.415426	-0.771081	-0.191695
C80	C	-0.457380	-0.730443	-0.235098
H81	H	-0.447613	-0.795039	-0.162265
H82	H	-0.387182	-0.802263	-0.217516
H83	H	-0.383037	-0.743498	-0.165860
H84	H	-0.489765	-0.758026	-0.260937
H85	H	-0.485636	-0.699258	-0.209274
C86	C	-0.210528	-0.415459	-0.379057
C87	C	-0.258271	-0.374812	-0.417164
H88	H	-0.178340	-0.439468	-0.408480
H89	H	-0.182083	-0.387881	-0.349620
H90	H	-0.238784	-0.446603	-0.353234
H91	H	-0.230014	-0.343665	-0.442983
H92	H	-0.286718	-0.402393	-0.446613
C93	C	-0.447296	-1.059916	-1.148067
C94	C	-0.457355	-1.069035	-1.078559
H95	H	-0.479520	-1.089283	-1.172051
H96	H	-0.458155	-1.014441	-1.159643
H97	H	-0.397393	-1.069851	-1.159648
H98	H	-0.507258	-1.059095	-1.066978
H99	H	-0.446502	-1.114521	-1.066979
H100	H	-0.903617	-1.061650	-0.242704
H101	H	-0.271457	-0.899732	-1.068496
C102	C	-0.828112	-1.127463	-0.426461
C103	C	-0.803277	-1.110287	-0.361730
H104	H	-0.809952	-1.170947	-0.438181
H105	H	-0.880726	-1.127900	-0.427008
H106	H	-0.810489	-1.095197	-0.458097
H107	H	-0.820905	-1.142551	-0.330093
H108	H	-0.750652	-1.109856	-0.361178
H109	H	-0.443941	-1.056621	-0.584479
C110	C	-0.954310	-0.850512	-0.231764
C111	C	-0.911608	-0.845921	-0.290623
H112	H	-0.972443	-0.807014	-0.220067
H113	H	-0.994833	-0.880144	-0.239304
H114	H	-0.924607	-0.867483	-0.196002
H115	H	-0.941312	-0.828955	-0.326387
H116	H	-0.871079	-0.816279	-0.283087
C117	C	-0.274411	-0.243524	-0.484181
C118	C	-0.258280	-0.226422	-0.417178
H119	H	-0.242228	-0.219558	-0.513610
H120	H	-0.267618	-0.290679	-0.490380
H121	H	-0.324326	-0.231922	-0.493998
H122	H	-0.208366	-0.238029	-0.407360
H123	H	-0.265066	-0.179256	-0.410977
C124	C	-0.499062	-1.107000	-0.976124
C125	C	-0.457390	-1.069015	-0.930172
H126	H	-0.531294	-1.136364	-0.952140
H127	H	-0.527461	-1.077502	-1.003682
H128	H	-0.466688	-1.132903	-1.003706
H129	H	-0.489763	-1.043109	-0.902593
H130	H	-0.428988	-1.098517	-0.902603
C131	C	-0.273982	-0.820342	-0.947250
C132	C	-0.257961	-0.887377	-0.930175
H133	H	-0.241757	-0.790978	-0.923263
H134	H	-0.267167	-0.814164	-0.994401
H135	H	-0.323884	-0.810419	-0.935654
H136	H	-0.208060	-0.897301	-0.941776
H137	H	-0.264770	-0.893558	-0.883013
H138	H	-0.443896	-0.364608	-0.247467
H139	H	-0.271569	-0.899647	-0.584491
H140	H	-0.443869	-0.592132	-0.247460
H141	H	-0.443914	-1.056632	-0.712724
H142	H	-0.271548	-0.899661	-0.712725
H143	H	-0.811133	-0.894571	-0.409492
H144	H	-0.811250	-0.947555	-0.212115
C145	C	-0.886431	-0.966008	-0.505654
C146	C	-0.911329	-1.013472	-0.458438
H147	H	-0.904470	-0.977642	-0.549185
H148	H	-0.904127	-0.922481	-0.493559
H149	H	-0.833809	-0.965720	-0.506246
H150	H	-0.963952	-1.013756	-0.457843
H151	H	-0.893637	-1.057011	-0.470536
