data_functionalizedCrystal
_audit_creation_method	'MofGen! by Chris Wilmer'
_symmetry_space_group_name_H-M	'P1'
_symmetry_Int_Tables_number	1
_symmetry_cell_setting	triclinic
loop_
_symmetry_equiv_pos_as_xyz
  x,y,z
_cell_length_a	16.120484
_cell_length_b	16.120566
_cell_length_c	16.120297
_cell_angle_alpha	89.874982
_cell_angle_beta	95.614431
_cell_angle_gamma	89.831930
loop_
_atom_site_label
_atom_site_type_symbol
_atom_site_fract_x
_atom_site_fract_y
_atom_site_fract_z
Zn1	Zn	-0.422255	-1.224984	-0.554879
Zn2	Zn	-0.554939	-1.224880	-0.422184
Zn3	Zn	-0.408172	-1.093724	-0.408115
Zn4	Zn	-0.554173	-1.078877	-0.554109
O5	O	-0.484885	-1.155616	-0.484822
O6	O	-0.446070	-1.341006	-0.543487
O7	O	-0.529897	-1.213651	-0.303685
O8	O	-0.293409	-1.117393	-0.422018
O9	O	-0.543553	-1.340929	-0.445997
O10	O	-0.303756	-1.213829	-0.529845
O11	O	-0.422067	-1.117292	-0.293349
O12	O	-0.421324	-0.975719	-0.421271
O13	O	-0.542247	-1.092089	-0.670843
O14	O	-0.528591	-0.964811	-0.528532
O15	O	-0.445327	-1.199433	-0.671409
O16	O	-0.671468	-1.199255	-0.445250
O17	O	-0.670905	-1.091988	-0.542174
C18	C	-0.473347	-0.940178	-0.473291
C19	C	-0.468432	-0.848011	-0.468379
C20	C	-0.459439	-0.679260	-0.459418
C21	C	-0.510402	-0.632809	-0.510236
C22	C	-0.505398	-0.538910	-0.505249
C23	C	-0.464442	-0.773167	-0.464403
C24	C	-0.701429	-1.144021	-0.495174
C25	C	-0.794074	-1.139134	-0.499635
C26	C	-0.963697	-1.130217	-0.507797
C27	C	-1.005240	-1.181163	-0.461868
C28	C	-1.099624	-1.176202	-0.466409
C29	C	-0.869304	-1.135178	-0.503257
C30	C	-0.267496	-1.167279	-0.474448
C31	C	-0.174858	-1.172249	-0.470027
C32	C	-0.495272	-1.144117	-0.702213
C33	C	-0.499699	-1.139216	-0.794853
C34	C	-0.496470	-0.371896	-0.496384
C35	C	-0.501412	-0.464063	-0.501277
C36	C	-0.507761	-1.130240	-0.964463
C37	C	-0.461767	-1.181169	-1.006028
C38	C	-0.466253	-1.176175	-1.100406
C39	C	-0.503276	-1.135233	-0.870078
C40	C	-0.474480	-1.167122	-0.268275
C41	C	-0.469827	-1.172196	-0.175634
H42	H	-0.412055	-0.648509	-0.412169
C43	C	-0.573625	-0.673651	-0.573321
C44	C	-0.619650	-0.612338	-0.619237
C45	C	-0.677892	-0.649934	-0.677361
H46	H	-0.610204	-0.707175	-0.544962
H47	H	-0.545328	-0.707213	-0.609974
H48	H	-0.647946	-0.578790	-0.582590
H49	H	-0.583095	-0.578810	-0.647615
H50	H	-0.649594	-0.683495	-0.714014
H51	H	-0.714464	-0.683456	-0.648994
H52	H	-0.709121	-0.608339	-0.708527
H53	H	-0.969921	-1.228505	-0.419135
H54	H	-0.999013	-1.082878	-0.550525
H55	H	-0.419021	-1.228521	-0.970734
H56	H	-0.550503	-1.082892	-0.999756
