data_functionalizedCrystal
_audit_creation_method	'MofGen! by Chris Wilmer'
_symmetry_space_group_name_H-M	'P1'
_symmetry_Int_Tables_number	1
_symmetry_cell_setting	triclinic
loop_
_symmetry_equiv_pos_as_xyz
  x,y,z
_cell_length_a	14.446369
_cell_length_b	14.446369
_cell_length_c	17.052862
_cell_angle_alpha	90.000505
_cell_angle_beta	70.264414
_cell_angle_gamma	59.996355
loop_
_atom_site_label
_atom_site_type_symbol
_atom_site_fract_x
_atom_site_fract_y
_atom_site_fract_z
Zr1	Zr	0.980717	0.907969	-0.091228
O2	O	1.134311	0.779920	-0.202256
O3	O	0.799713	0.947228	-0.057191
O4	O	0.941182	0.973049	-0.202250
O5	O	1.033586	0.733725	0.057227
O6	O	0.941175	1.125385	-0.202245
O7	O	0.992842	0.754100	-0.057197
O8	O	0.688114	1.079197	0.057238
O9	O	1.286648	0.779913	-0.202257
O10	O	0.884309	1.077652	-0.042672
O11	O	0.914721	0.948760	0.042718
O12	O	1.081282	0.979160	-0.128070
O13	O	1.111694	0.850268	-0.042680
Zr14	Zr	1.045688	1.118433	0.091272
Zr15	Zr	0.980706	1.150927	-0.091221
Zr16	Zr	1.045698	0.875474	0.091266
Zr17	Zr	1.223676	0.907958	-0.091229
Zr18	Zr	0.802728	1.118444	0.091274
O19	O	1.226691	1.079173	0.057235
O20	O	1.134296	1.125376	-0.202246
O21	O	1.226707	0.733717	0.057226
O22	O	0.892093	1.246481	0.202301
O23	O	0.799698	1.292685	-0.057181
O24	O	0.892109	0.901025	0.202291
O25	O	0.992818	1.292676	-0.057182
O26	O	1.085222	1.053353	0.202294
O27	O	1.085229	0.901016	0.202290
O28	O	1.033562	1.272302	0.057242
O29	O	1.286639	0.973033	-0.202251
O30	O	0.739765	1.053368	0.202296
O31	O	0.739757	1.246488	0.202302
O32	O	0.688105	1.272317	0.057244
O33	O	1.338299	0.754084	-0.057199
O34	O	1.338291	0.947204	-0.057194
O35	O	0.945122	1.047241	0.128115
O36	O	0.914711	1.176134	0.042724
O37	O	1.111684	1.077642	-0.042673
O38	O	1.142095	0.948750	0.042717
C39	C	0.709297	1.013214	0.000024
C40	C	0.606154	1.013219	0.000025
C41	C	0.547688	1.094515	-0.053840
C42	C	0.440666	1.094232	-0.054130
C43	C	0.533075	0.896562	-0.038983
C44	C	0.640307	0.897048	-0.039388
C45	C	0.512417	1.047535	0.092922
C46	C	0.403903	1.050034	0.092779
C47	C	1.013216	0.709296	0.000014
C48	C	1.013221	0.606154	0.000011
C49	C	1.137533	0.397320	-0.053578
C50	C	1.137522	0.504606	-0.053879
C51	C	0.928000	0.609828	-0.039273
C52	C	0.928770	0.502129	-0.039666
C53	C	0.973040	0.479879	0.092953
C54	C	0.975690	0.585874	0.092806
C55	C	1.317107	1.013187	0.000021
C56	C	1.420250	1.013182	0.000020
C57	C	0.931920	1.053847	-0.228249
C58	C	0.904334	1.067641	-0.305722
C59	C	1.013189	1.317105	0.000031
C60	C	1.013184	1.420248	0.000034
C61	C	1.237854	0.900863	-0.702418
C62	C	1.263776	0.887895	-0.629629
C63	C	1.173918	0.932831	-0.548649
C64	C	1.058133	0.990736	-0.540464
C65	C	1.032207	1.003697	-0.613259
C66	C	0.968272	1.035665	-0.459491
C67	C	0.852486	1.093570	-0.451306
C68	C	0.826566	1.106530	-0.524095
C69	C	0.916424	1.061594	-0.605075
C70	C	0.994197	1.022704	-0.386696
C71	C	0.788551	1.125539	-0.297538
C72	C	0.762628	1.138506	-0.370326
C73	C	1.094484	0.972555	0.228294
C74	C	1.122071	0.958760	0.305767
C75	C	0.709283	1.317119	0.000032
C76	C	0.606136	1.420266	0.000036
C77	C	0.790579	0.972568	0.228295
C78	C	0.715023	0.958778	0.305769
C79	C	0.790565	1.276473	0.228304
C80	C	0.715004	1.365825	0.305780
C81	C	1.235839	0.749928	-0.228259
C82	C	1.311400	0.660576	-0.305736
C83	C	1.317121	0.709283	0.000012
C84	C	1.420268	0.606135	0.000009
C85	C	1.235825	1.053833	-0.228251
C86	C	1.311382	1.067623	-0.305724
C87	C	0.695413	1.003707	0.386735
C88	C	0.624436	0.990744	0.459537
C89	C	0.573063	0.932858	0.451371
C90	C	0.592680	0.887924	0.370396
C91	C	0.663662	0.900880	0.297596
C92	C	0.663646	1.475076	0.297591
C93	C	0.592659	1.559043	0.370382
C94	C	0.573026	1.533755	0.451361
C95	C	0.624394	1.424493	0.459548
C96	C	0.695386	1.340529	0.386758
C97	C	1.362771	0.551325	-0.297546
C98	C	1.433787	0.467359	-0.370337
C99	C	1.453425	0.492646	-0.451316
C100	C	1.402051	0.601908	-0.459503
C101	C	1.331043	0.685872	-0.386713
C102	C	1.362733	1.125516	-0.297531
C103	C	1.433716	1.138494	-0.370318
C104	C	1.453352	1.093573	-0.451299
C105	C	1.401992	1.035678	-0.459491
C106	C	1.331004	1.022707	-0.386704
C107	C	0.478889	1.629100	0.053619
C108	C	0.585927	1.521809	0.053924
C109	C	0.493264	1.416605	0.039320
C110	C	0.386019	1.524310	0.039709
C111	C	0.513777	1.546543	-0.092911
C112	C	0.622309	1.440542	-0.092761
H113	H	0.706839	0.868530	-0.107739
Cl114	Cl	1.498353	0.330011	-0.360025
H115	H	0.737235	1.050842	0.393401
Cl116	Cl	0.483773	1.639324	0.542861
Cl117	Cl	0.377908	1.695254	0.158811
Cl118	Cl	0.617075	1.211294	-0.360047
Cl119	Cl	0.681007	1.179307	-0.513803
H120	H	1.346759	1.162098	-0.231599
Cl121	Cl	0.599699	1.392721	0.561357
Cl122	Cl	0.967151	0.631736	-0.143840
Cl123	Cl	0.969350	0.443185	-0.145234
Cl124	Cl	0.453444	1.515200	-0.154872
H125	H	1.203163	0.338693	-0.027360
H126	H	1.511158	1.104142	-0.510560
Cl127	Cl	1.139751	0.949914	-0.396994
H128	H	1.417991	0.999106	-0.525435
H129	H	1.169295	0.354464	-0.121708
Cl130	Cl	1.266466	0.949910	-0.397020
H131	H	0.515267	0.922316	0.510656
Cl132	Cl	0.599787	1.047246	0.561323
Cl133	Cl	1.071992	0.577030	0.138129
H134	H	0.343060	1.504161	0.003181
H135	H	0.886425	0.657326	0.136112
Cl136	Cl	0.709415	1.531500	0.013184
Cl137	Cl	0.785540	0.720455	0.018109
Cl138	Cl	0.555575	0.851897	-0.143501
H139	H	0.360737	1.180556	-0.027994
H140	H	0.506793	1.687724	0.027402
H141	H	1.358049	0.840750	-0.636300
H142	H	0.572867	1.512063	0.122469
H143	H	1.311004	0.864276	-0.768354
Cl144	Cl	0.786370	0.533242	0.016709
H145	H	1.418050	0.622485	-0.525445
H146	H	1.475529	1.185634	-0.363632
H147	H	0.683121	0.834141	-0.002681
H148	H	0.319607	1.562486	0.108084
H149	H	0.715381	1.162125	-0.231601
Cl150	Cl	0.759937	1.203186	0.397068
Cl151	Cl	0.507179	1.305981	-0.018058
H152	H	0.895325	1.072151	-0.664349
Cl153	Cl	0.528085	0.815158	0.360144
Cl154	Cl	0.688296	0.844397	0.195813
H155	H	0.478821	1.402414	0.107047
H156	H	0.541661	1.602402	-0.125728
Cl157	Cl	1.061929	0.393617	0.143625
Cl158	Cl	1.542695	0.387077	-0.542816
Cl159	Cl	1.266459	0.823216	-0.397023
H160	H	0.679617	1.495686	0.231661
H161	H	1.346786	0.530715	-0.231616
H162	H	0.550840	1.648003	0.363700
H163	H	0.702349	1.446284	-0.122106
H164	H	0.639020	1.369092	-0.136064
H165	H	0.613226	1.071678	-0.121961
Cl166	Cl	0.461035	1.058545	-0.159933
Cl167	Cl	0.518930	0.800164	0.018702
Cl168	Cl	0.504643	1.228218	-0.013695
Cl169	Cl	0.469393	1.176979	0.143274
Cl170	Cl	0.280367	1.182573	0.137777
H171	H	1.169346	0.514362	-0.122423
H172	H	0.387083	0.995493	0.136256
H173	H	0.881666	0.500176	0.133087
H174	H	1.195031	0.922269	-0.489384
H175	H	0.551334	0.988379	0.133238
H176	H	1.203005	0.498188	-0.027733
