data_functionalizedCrystal
_audit_creation_method	'MofGen! by Chris Wilmer'
_symmetry_space_group_name_H-M	'P1'
_symmetry_Int_Tables_number	1
_symmetry_cell_setting	triclinic
loop_
_symmetry_equiv_pos_as_xyz
  x,y,z
_cell_length_a	15.995300
_cell_length_b	14.519731
_cell_length_c	15.072220
_cell_angle_alpha	89.997664
_cell_angle_beta	90.007385
_cell_angle_gamma	83.580330
loop_
_atom_site_label
_atom_site_type_symbol
_atom_site_fract_x
_atom_site_fract_y
_atom_site_fract_z
O1	O	1.111200	0.118640	0.073817
O2	O	0.867442	0.133367	0.073812
O3	O	0.995775	-0.008247	0.073807
O4	O	0.982868	0.260254	0.073822
O5	O	0.995758	-0.008229	-0.073759
O6	O	0.867426	0.133385	-0.073753
O7	O	1.111184	0.118658	-0.073748
Zn8	Zn	0.989302	0.126024	-0.097180
Zn9	Zn	0.989324	0.126001	0.097244
O10	O	0.982851	0.260272	-0.073743
C11	C	0.836238	0.132776	0.000029
C12	C	0.743282	0.130975	0.000026
C13	C	0.573094	0.127649	0.000033
C14	C	0.525786	0.228481	0.000037
C15	C	0.429096	0.226642	0.000374
C16	C	0.405532	0.124376	0.000039
C17	C	0.446596	0.074339	0.084136
C18	C	0.543233	0.076891	0.084205
C19	C	0.543491	0.075418	-0.083610
C20	C	0.446547	0.075428	-0.084713
C21	C	0.310834	0.122521	0.000045
C22	C	0.667793	0.129501	0.000033
C23	C	0.995162	-0.042596	0.000024
C24	C	0.993350	-0.144972	0.000023
C25	C	1.142389	0.119249	0.000037
C26	C	1.235344	0.121050	0.000045
C27	C	0.991877	-0.228114	0.000025
C28	C	0.990037	-0.332419	0.000032
C29	C	0.988577	-0.415555	0.000038
C30	C	0.986737	-0.519866	0.000043
C31	C	0.983464	0.294621	0.000042
C32	C	0.985277	0.396997	0.000048
N33	N	0.989294	0.126040	-0.229869
C34	C	0.989309	0.126018	-0.410866
C35	C	0.920630	0.201766	-0.448532
C36	C	0.920394	0.201559	-0.551358
C37	C	0.989324	0.125999	-0.589070
C38	C	0.970448	0.029661	-0.551734
C39	C	0.969946	0.030117	-0.448876
C40	C	1.077075	0.145740	-0.448751
C41	C	1.076499	0.147915	-0.551616
C42	C	0.989334	0.125982	-0.689784
C43	C	0.989297	0.126029	-0.310153
N44	N	0.989339	0.125978	0.229932
H45	H	0.401316	0.265774	0.061015
F46	F	0.584891	-0.021746	-0.084684
F47	F	1.100841	0.235631	-0.414847
F48	F	0.567264	0.124004	0.166690
F49	F	0.835974	0.185485	-0.414773
F50	F	0.835268	0.185033	-0.583550
F51	F	1.095228	0.240551	-0.583508
F52	F	0.585268	-0.019886	0.088891
F53	F	0.935031	0.295673	-0.416207
F54	F	0.550442	0.281654	-0.078469
F55	F	0.886291	0.007478	-0.417540
F56	F	1.146423	0.080509	-0.585167
F57	F	0.391960	0.278036	-0.078400
F58	F	0.426341	-0.022025	-0.091688
F59	F	1.143877	0.073548	-0.416905
F60	F	0.428014	-0.023878	0.087913
H61	H	0.545464	0.268392	0.060258
F62	F	0.935046	0.295146	-0.584358
F63	F	1.032854	-0.045796	-0.416303
H64	H	1.019155	-0.028083	-0.576159
H65	H	0.907189	0.011912	-0.577519
F66	F	0.570345	0.118818	-0.166953
F67	F	0.410878	0.123185	-0.166037
F68	F	0.409641	0.119219	0.166256
