data_functionalizedCrystal
_audit_creation_method	'MofGen! by Chris Wilmer'
_symmetry_space_group_name_H-M	'P1'
_symmetry_Int_Tables_number	1
_symmetry_cell_setting	triclinic
loop_
_symmetry_equiv_pos_as_xyz
  x,y,z
_cell_length_a	12.759395
_cell_length_b	16.625545
_cell_length_c	12.759387
_cell_angle_alpha	89.965573
_cell_angle_beta	89.982262
_cell_angle_gamma	90.025403
loop_
_atom_site_label
_atom_site_type_symbol
_atom_site_fract_x
_atom_site_fract_y
_atom_site_fract_z
Zn1	Zn	1.606172	-0.320953	-0.593957
Zn2	Zn	1.606034	-0.455811	-0.418270
Zn3	Zn	1.430475	-0.320996	-0.418297
Zn4	Zn	1.430429	-0.455747	-0.593912
O5	O	1.518278	-0.388377	-0.506109
O6	O	1.753175	-0.338851	-0.570659
O7	O	1.582708	-0.437972	-0.271252
O8	O	1.453859	-0.208158	-0.441629
O9	O	1.753074	-0.437931	-0.441582
O10	O	1.582942	-0.208127	-0.570685
O11	O	1.453725	-0.338924	-0.271272
O12	O	1.283448	-0.338862	-0.441585
O13	O	1.453780	-0.437822	-0.740939
O14	O	1.283414	-0.437863	-0.570609
O15	O	1.582897	-0.338789	-0.740972
O16	O	1.582663	-0.568635	-0.441539
O17	O	1.453647	-0.568588	-0.570583
C18	C	1.245310	-0.388361	-0.506096
C19	C	1.128533	-0.388374	-0.506115
C20	C	1.128619	-0.285369	-0.640740
C21	C	1.073801	-0.233876	-0.708061
C22	C	0.964080	-0.233890	-0.708074
C23	C	0.909174	-0.285401	-0.640757
C24	C	0.963991	-0.336894	-0.573436
C25	C	1.073716	-0.336876	-0.573432
C26	C	0.963906	-0.439893	-0.438808
C27	C	1.073627	-0.439884	-0.438798
C28	C	0.908999	-0.491404	-0.371490
C29	C	0.963817	-0.542902	-0.304173
C30	C	1.073545	-0.542886	-0.304164
C31	C	1.128445	-0.491377	-0.371477
C32	C	1.518163	-0.597868	-0.506076
C33	C	1.518211	-0.687489	-0.506097
C34	C	1.518252	-0.760271	-0.506118
C35	C	1.518313	-0.851580	-0.506141
C36	C	1.518367	-0.924356	-0.506154
C37	C	1.518427	-1.015670	-0.506176
C38	C	1.792311	-0.388394	-0.506122
C39	C	1.909088	-0.388401	-0.506128
C40	C	1.518349	-0.388294	-0.780142
C41	C	1.518379	-0.388258	-0.896919
C42	C	1.518421	-0.178068	-0.506165
C43	C	1.518482	-0.088447	-0.506189
C44	C	1.384079	-0.285112	-0.896959
C45	C	1.316947	-0.233523	-0.951840
C46	C	1.316979	-0.233494	-1.061561
C47	C	1.384147	-0.285061	-1.116405
C48	C	1.451278	-0.336650	-1.061524
C49	C	1.451241	-0.336672	-0.951800
C50	C	1.585571	-0.439799	-1.061484
C51	C	1.585547	-0.439825	-0.951763
C52	C	1.652739	-0.491366	-1.116328
C53	C	1.719877	-0.542952	-1.061447
C54	C	1.719844	-0.542979	-0.951719
C55	C	1.652678	-0.491414	-0.896882
C56	C	1.518267	-0.388402	-0.233141
C57	C	1.518440	-0.388210	-0.116365
H58	H	0.919104	-0.584835	-0.249365
C59	C	1.243132	-0.176744	-1.121932
N60	N	1.187512	-0.133998	-1.167403
C61	C	1.652766	-0.491337	-1.237025
N62	N	1.652789	-0.491315	-1.327935
C63	C	1.133836	-0.599533	-0.230104
N64	N	1.179244	-0.642202	-0.174321
C65	C	1.249142	-0.491353	-0.371471
N66	N	1.340052	-0.491330	-0.371466
C67	C	1.793702	-0.599727	-0.891359
N68	N	1.849337	-0.642468	-0.845899
H69	H	1.118518	-0.191936	-0.762867
C70	C	0.788477	-0.285407	-0.640767
N71	N	0.697566	-0.285413	-0.640774
C72	C	1.384045	-0.285134	-0.776262
N73	N	1.384016	-0.285150	-0.685352
C74	C	1.243077	-0.176794	-0.891504
N75	N	1.187442	-0.134062	-0.846062
C76	C	1.384165	-0.285036	-1.237102
N77	N	1.384178	-0.285018	-1.328012
C78	C	1.793575	-0.599806	-1.121781
N79	N	1.849023	-0.642677	-1.167229
H80	H	1.652648	-0.491428	-0.807541
C81	C	0.903779	-0.177247	-0.782130
N82	N	0.858360	-0.134583	-0.837910
H83	H	0.819658	-0.491410	-0.371503
H84	H	1.217960	-0.285348	-0.640731
