data_functionalizedCrystal
_audit_creation_method	'MofGen! by Chris Wilmer'
_symmetry_space_group_name_H-M	'P1'
_symmetry_Int_Tables_number	1
_symmetry_cell_setting	triclinic
loop_
_symmetry_equiv_pos_as_xyz
  x,y,z
_cell_length_a	16.959454
_cell_length_b	16.959455
_cell_length_c	17.077396
_cell_angle_alpha	89.981150
_cell_angle_beta	89.975265
_cell_angle_gamma	90.019503
loop_
_atom_site_label
_atom_site_type_symbol
_atom_site_fract_x
_atom_site_fract_y
_atom_site_fract_z
Zn1	Zn	-0.314694	1.208416	-0.443850
Zn2	Zn	-0.446881	1.208329	-0.312592
Zn3	Zn	-0.314720	1.076235	-0.312599
Zn4	Zn	-0.446833	1.076209	-0.443817
O5	O	-0.380782	1.142297	-0.378214
O6	O	-0.332238	1.319015	-0.426449
O7	O	-0.429381	1.190781	-0.202746
O8	O	-0.204105	1.093816	-0.330026
O9	O	-0.429356	1.318951	-0.330014
O10	O	-0.204086	1.190929	-0.426455
O11	O	-0.332282	1.093732	-0.202751
O12	O	-0.332235	0.965621	-0.329995
O13	O	-0.429273	1.093772	-0.553668
O14	O	-0.429298	0.965602	-0.426400
O15	O	-0.332191	1.190904	-0.553692
O16	O	-0.557486	1.190756	-0.329983
O17	O	-0.557450	1.093688	-0.426393
C18	C	-0.380765	0.936931	-0.378195
C19	C	-0.380776	0.849075	-0.378205
C20	C	-0.431269	0.807765	-0.327925
C21	C	-0.330290	0.807830	-0.428492
C22	C	-0.330296	0.725284	-0.428501
C23	C	-0.380789	0.683975	-0.378221
C24	C	-0.431275	0.725212	-0.327931
C25	C	-0.279805	0.684041	-0.478784
C26	C	-0.279808	0.601490	-0.478795
C27	C	-0.330306	0.560180	-0.428518
C28	C	-0.380795	0.601422	-0.378227
C29	C	-0.431288	0.560112	-0.327947
C30	C	-0.481781	0.601353	-0.277659
C31	C	-0.481773	0.683901	-0.277654
C32	C	-0.330314	0.477631	-0.428523
C33	C	-0.431294	0.477559	-0.327953
C34	C	-0.586148	1.142231	-0.378201
C35	C	-0.674005	1.142275	-0.378222
C36	C	-1.045492	1.091828	-0.428410
C37	C	-1.045469	1.192987	-0.328099
C38	C	-0.962923	1.192960	-0.328092
C39	C	-0.921658	1.142364	-0.378243
C40	C	-0.962938	1.091797	-0.428403
C41	C	-0.921636	1.243521	-0.277928
C42	C	-0.839085	1.243495	-0.277918
C43	C	-0.797819	1.192903	-0.328074
C44	C	-0.839104	1.142334	-0.378236
C45	C	-0.797839	1.091738	-0.428388
C46	C	-0.839123	1.041172	-0.478554
C47	C	-0.921671	1.041205	-0.478559
C48	C	-0.715270	1.192871	-0.328070
C49	C	-0.715285	1.091707	-0.428381
C50	C	-0.174614	1.142385	-0.378245
C51	C	-0.086757	1.142423	-0.378258
C52	C	-0.380724	1.142345	-0.582959
C53	C	-0.380699	1.142366	-0.670209
C54	C	-0.380800	1.348466	-0.378234
C55	C	-0.380807	1.436322	-0.378243
C56	C	-0.330144	1.192944	-0.711212
C57	C	-0.330118	1.192953	-0.793193
C58	C	-0.380651	1.142388	-0.834168
C59	C	-0.431208	1.091804	-0.793159
C60	C	-0.431229	1.091791	-0.711180
C61	C	-0.431160	1.091836	-0.964029
C62	C	-0.431140	1.091850	-1.046013
C63	C	-0.330048	1.192998	-1.046042
C64	C	-0.330070	1.192985	-0.964063
C65	C	-0.380628	1.142402	-0.923059
C66	C	-0.380783	1.142295	-0.174267
C67	C	-0.380585	1.142428	-0.087017
H68	H	-0.289177	0.841469	-0.469424
H69	H	-0.289197	0.444057	-0.469461
O70	O	-0.225355	0.557010	-0.533034
H71	H	-0.190248	0.599605	-0.567998
H72	H	-1.079072	1.234175	-0.287263
H73	H	-0.472388	1.050597	-0.677795
H74	H	-0.955292	1.000036	-0.519401
H75	H	-0.681660	1.234037	-0.287221
H76	H	-0.472415	0.443931	-0.287011
H77	H	-0.681692	1.050509	-0.469224
O78	O	-0.794617	0.986596	-0.532645
H79	H	-0.756961	1.021935	-0.572611
O80	O	-0.536239	0.556796	-0.223426
H81	H	-0.527757	0.492468	-0.231883
H82	H	-1.079109	1.050660	-0.469256
O83	O	-0.225342	0.728592	-0.533009
H84	H	-0.233828	0.792921	-0.524561
O85	O	-0.536220	0.728379	-0.223408
H86	H	-0.527722	0.792719	-0.231843
H87	H	-0.472350	1.050630	-0.826527
O88	O	-0.966139	1.298118	-0.223865
H89	H	-1.030476	1.289661	-0.232317
O90	O	-0.275509	1.247548	-1.090265
H91	H	-0.310879	1.287747	-1.127625
O92	O	-0.794558	1.298039	-0.223823
H93	H	-0.837122	1.333230	-0.188957
O94	O	-0.485634	1.037306	-1.090213
H95	H	-0.520784	1.002120	-1.047930
H96	H	-0.288996	1.234123	-0.677856
H97	H	-0.472318	1.050633	-0.930646
H98	H	-0.288926	1.234165	-0.930703
O99	O	-0.485724	0.852237	-0.273681
H100	H	-0.477237	0.916579	-0.282117
O101	O	-0.275596	1.247510	-0.837422
H102	H	-0.240470	1.282677	-0.795156
