data_functionalizedCrystal
_audit_creation_method	'MofGen! by Chris Wilmer'
_symmetry_space_group_name_H-M	'P1'
_symmetry_Int_Tables_number	1
_symmetry_cell_setting	triclinic
loop_
_symmetry_equiv_pos_as_xyz
  x,y,z
_cell_length_a	18.050591
_cell_length_b	18.050589
_cell_length_c	16.625539
_cell_angle_alpha	89.975176
_cell_angle_beta	89.973401
_cell_angle_gamma	90.024227
loop_
_atom_site_label
_atom_site_type_symbol
_atom_site_fract_x
_atom_site_fract_y
_atom_site_fract_z
Zn1	Zn	1.135334	-0.295737	-0.456059
Zn2	Zn	1.635334	0.204263	0.043941
Zn3	Zn	1.135233	-0.419935	-0.321234
Zn4	Zn	1.635233	0.080065	0.178766
Zn5	Zn	1.011141	-0.295755	-0.321225
Zn6	Zn	1.511141	0.204245	0.178775
Zn7	Zn	1.011101	-0.419881	-0.456010
Zn8	Zn	1.511101	0.080119	0.043990
O9	O	1.073202	-0.357827	-0.388632
O10	O	1.573202	0.142173	0.111368
O11	O	1.239245	-0.312227	-0.438198
O12	O	1.739245	0.187773	0.061802
O13	O	1.118746	-0.403492	-0.208400
O14	O	1.618746	0.096508	0.291600
O15	O	1.027675	-0.191828	-0.339128
O16	O	1.527675	0.308172	0.160872
O17	O	1.239171	-0.403475	-0.339143
O18	O	1.739171	0.096525	0.160857
O19	O	1.118919	-0.191815	-0.438189
O20	O	1.618919	0.308185	0.061811
O21	O	1.027576	-0.312257	-0.208394
O22	O	1.527576	0.187743	0.291606
O23	O	0.907211	-0.312205	-0.339080
O24	O	1.407211	0.187795	0.160920
O25	O	1.027607	-0.403384	-0.568849
O26	O	1.527607	0.096616	-0.068849
O27	O	0.907182	-0.403400	-0.438106
O28	O	1.407182	0.096600	0.061894
O29	O	1.118880	-0.312175	-0.568884
O30	O	1.618880	0.187825	-0.068884
O31	O	1.118707	-0.523852	-0.339096
O32	O	1.618707	-0.023852	0.160904
O33	O	1.027508	-0.523813	-0.438115
O34	O	1.527508	-0.023813	0.061885
C35	C	0.880250	-0.357799	-0.388587
C36	C	1.380250	0.142201	0.111413
C37	C	0.797704	-0.357805	-0.388587
C38	C	1.297704	0.142195	0.111413
C39	C	1.073113	-0.550779	-0.388618
C40	C	1.573113	-0.050779	0.111382
C41	C	1.073142	-0.633325	-0.388640
C42	C	1.573142	-0.133325	0.111360
C43	C	0.598248	-0.308156	-0.334861
C44	C	1.098248	0.191844	0.165139
C45	C	0.548827	-0.375894	-0.315024
C46	C	1.048827	0.124106	0.184976
C47	C	0.646574	-0.357828	-0.388624
C48	C	1.146574	0.142172	0.111376
C49	C	0.548914	-0.290113	-0.408459
C50	C	1.048914	0.209887	0.091541
C51	C	0.500589	-0.357844	-0.388657
C52	C	1.000589	0.142156	0.111343
C53	C	0.598240	-0.425601	-0.368748
C54	C	1.098240	0.074399	0.131252
C55	C	0.598331	-0.339775	-0.462217
C56	C	1.098331	0.160225	0.037783
C57	C	0.548932	-0.407560	-0.442408
C58	C	1.048932	0.092440	0.057592
C59	C	0.730672	-0.357818	-0.388602
C60	C	1.230672	0.142182	0.111398
C61	C	0.416492	-0.357861	-0.388679
C62	C	0.916492	0.142139	0.111321
C63	C	1.023597	-0.832781	-0.442467
C64	C	1.523597	-0.332781	0.057533
C65	C	1.005493	-0.882222	-0.368889
C66	C	1.505493	-0.382222	0.131111
C67	C	1.073215	-0.784455	-0.388650
C68	C	1.573215	-0.284455	0.111350
C69	C	1.091356	-0.882096	-0.462237
C70	C	1.591356	-0.382096	0.037763
C71	C	1.073284	-0.930440	-0.388667
C72	C	1.573284	-0.430440	0.111333
C73	C	1.055075	-0.832809	-0.315033
C74	C	1.555075	-0.332809	0.184967
C75	C	1.140970	-0.832679	-0.408430
C76	C	1.640970	-0.332679	0.091570
C77	C	1.122891	-0.882097	-0.334801
C78	C	1.622891	-0.382097	0.165199
C79	C	1.073173	-0.700357	-0.388642
C80	C	1.573173	-0.200357	0.111358
C81	C	1.073326	-1.014537	-0.388667
C82	C	1.573326	-0.514537	0.111333
C83	C	1.266908	-0.357855	-0.388677
C84	C	1.766908	0.142145	0.111323
C85	C	1.349454	-0.357867	-0.388696
C86	C	1.849454	0.142133	0.111304
C87	C	1.073251	-0.357772	-0.598941
C88	C	1.573251	0.142228	-0.098941
C89	C	1.073271	-0.357748	-0.688562
C90	C	1.573271	0.142252	-0.188562
C91	C	1.073313	-0.164121	-0.388663
C92	C	1.573313	0.335879	0.111337
C93	C	1.073359	-0.081576	-0.388676
C94	C	1.573359	0.418424	0.111324
C95	C	1.073305	-0.357665	-1.016738
C96	C	1.573305	0.142335	-0.516738
C97	C	1.073294	-0.357690	-0.925429
C98	C	1.573294	0.142310	-0.425429
C99	C	1.073289	-0.357707	-0.852653
C100	C	1.573289	0.142293	-0.352653
C101	C	1.073276	-0.357731	-0.761338
C102	C	1.573276	0.142269	-0.261338
C103	C	1.073197	-0.357828	-0.179141
C104	C	1.573197	0.142172	0.320859
C105	C	1.073320	-0.357643	-0.089520
C106	C	1.573320	0.142357	0.410480
H107	H	0.619902	-0.266195	-0.289346
H108	H	1.119902	0.233805	0.210654
H109	H	0.527208	-0.232849	-0.425193
H110	H	1.027208	0.267151	0.074807
H111	H	1.164881	-0.903615	-0.289244
H112	H	1.664881	-0.403615	0.210756
C113	C	0.966828	-0.803519	-0.503860
C114	C	1.466828	-0.303519	-0.003860
N115	N	0.924068	-0.781476	-0.550097
N116	N	1.424068	-0.281476	-0.050097
H117	H	0.619817	-0.482890	-0.351917
H118	H	1.119817	0.017110	0.148083
C119	C	0.519854	-0.464382	-0.503845
C120	C	1.019854	0.035618	-0.003845
N121	N	0.497950	-0.507183	-0.550115
N122	N	0.997950	-0.007183	-0.050115
C123	C	0.928125	-0.911621	-0.346291
C124	C	1.428125	-0.411621	0.153709
N125	N	0.869850	-0.933762	-0.329275
N126	N	1.369850	-0.433762	0.170725
H127	H	1.039692	-0.811248	-0.252792
H128	H	1.539692	-0.311248	0.247208
H129	H	0.620093	-0.324474	-0.524420
H130	H	1.120093	0.175526	-0.024420
C131	C	1.218310	-0.803245	-0.431066
C132	C	1.718310	-0.303245	0.068934
N133	N	1.276561	-0.781070	-0.448127
N134	N	1.776561	-0.281070	0.051873
H135	H	0.527083	-0.391175	-0.252802
H136	H	1.027083	0.108825	0.247198
C137	C	1.112049	-0.911345	-0.546299
C138	C	1.612049	-0.411345	-0.046299
N139	N	1.127629	-0.933372	-0.609616
N140	N	1.627629	-0.433372	-0.109616
