data_functionalizedCrystal
_audit_creation_method	'MofGen! by Chris Wilmer'
_symmetry_space_group_name_H-M	'P1'
_symmetry_Int_Tables_number	1
_symmetry_cell_setting	triclinic
loop_
_symmetry_equiv_pos_as_xyz
  x,y,z
_cell_length_a	17.000383
_cell_length_b	17.019370
_cell_length_c	16.776229
_cell_angle_alpha	93.871574
_cell_angle_beta	89.989541
_cell_angle_gamma	79.506877
loop_
_atom_site_label
_atom_site_type_symbol
_atom_site_fract_x
_atom_site_fract_y
_atom_site_fract_z
O1	O	1.056070	0.028438	-0.064392
O2	O	0.824306	0.057068	-0.062417
O3	O	0.946654	-0.072526	-0.071309
O4	O	0.933722	0.158032	-0.055499
O5	O	0.946638	-0.072533	0.061267
O6	O	0.824289	0.057061	0.070159
O7	O	1.056054	0.028432	0.068185
Zn8	Zn	0.940169	0.042746	0.090221
Zn9	Zn	0.940191	0.042754	-0.084453
O10	O	0.933706	0.158026	0.077077
C11	C	0.794642	0.058602	0.003978
C12	C	0.706278	0.063174	0.004296
C13	C	0.206028	0.092697	0.006291
C14	C	0.289056	0.088395	0.005996
C15	C	0.340136	0.013720	0.000882
C16	C	0.308184	-0.056657	-0.003947
C17	C	0.225158	-0.052354	-0.003658
C18	C	0.591301	-0.002900	-0.000244
C19	C	0.674332	-0.007198	-0.000530
C20	C	0.655198	0.137855	0.009412
C21	C	0.572171	0.142151	0.009705
C22	C	0.540226	0.071774	0.004872
C23	C	0.425004	0.009321	0.000583
C24	C	0.455360	0.076174	0.005165
C25	C	0.946156	-0.101884	-0.007036
C26	C	0.944686	-0.189351	-0.013038
C27	C	0.943984	-0.230454	0.056405
C28	C	0.942608	-0.312639	0.050758
C29	C	0.941927	-0.353719	-0.024333
C30	C	0.942631	-0.312612	-0.093782
C31	C	0.944013	-0.230429	-0.088134
C32	C	0.937760	-0.601859	-0.045002
C33	C	0.936376	-0.684047	-0.050644
C34	C	0.936354	-0.684069	0.093897
C35	C	0.937731	-0.601884	0.099538
C36	C	0.938439	-0.560784	0.030089
C37	C	0.940518	-0.437726	-0.030107
C38	C	0.939854	-0.476780	0.035864
C39	C	1.085718	0.026897	0.001788
C40	C	1.174081	0.022325	0.001465
C41	C	0.934204	0.187384	0.012802
C42	C	0.935674	0.274850	0.018799
N43	N	0.940160	0.042739	0.209432
N44	N	0.940206	0.042754	-0.203665
C45	C	0.994353	-0.014624	0.247213
C46	C	0.994357	-0.014625	0.330665
C47	C	0.940172	0.042741	0.376335
C48	C	0.885974	0.100107	0.338549
C49	C	0.885967	0.100104	0.255098
C50	C	0.886003	0.100121	0.675097
C51	C	0.886016	0.100121	0.758553
C52	C	0.994394	-0.014609	0.750664
C53	C	0.994386	-0.014612	0.667213
C54	C	0.940185	0.042751	0.629434
C55	C	0.940180	0.042751	0.538945
C56	C	0.940181	0.042746	0.466822
H57	H	0.199149	-0.109659	-0.007590
H58	H	0.938302	-0.568445	0.160685
H59	H	0.841889	0.146838	0.795737
H60	H	0.939962	-0.471182	-0.091247
Br61	Br	1.067900	-0.092478	0.185241
H62	H	0.841837	0.146814	0.224338
Br63	Br	0.136712	0.194047	0.013242
H64	H	0.841852	0.146814	0.375738
H65	H	0.841872	0.146829	0.644343
H66	H	0.942082	-0.346067	-0.154923
H67	H	0.349780	-0.117459	-0.008116
Br68	Br	1.067953	-0.092462	0.801940
Br69	Br	0.547958	-0.098413	-0.006826
H70	H	0.530586	0.202960	0.013868
H71	H	0.935813	-0.717491	-0.111796
Br72	Br	0.698555	0.233362	0.015966
Br73	Br	0.935393	-0.739851	0.188143
Br74	Br	1.067902	-0.092479	0.381942
Br75	Br	0.743656	-0.108549	-0.007470
Br76	Br	0.944973	-0.174647	-0.182383
Br77	Br	0.332408	0.183905	0.012539
Br78	Br	0.944901	-0.174708	0.158320
Br79	Br	0.938719	-0.546091	-0.139255
H80	H	0.413767	0.136974	0.009326
H81	H	0.466602	-0.051480	-0.003578
Br82	Br	1.067929	-0.092464	0.605235
H83	H	0.942040	-0.346102	0.107307
H84	H	0.940413	-0.443330	0.097003
