data_functionalizedCrystal
_audit_creation_method	'MofGen! by Chris Wilmer'
_symmetry_space_group_name_H-M	'P1'
_symmetry_Int_Tables_number	1
_symmetry_cell_setting	triclinic
loop_
_symmetry_equiv_pos_as_xyz
  x,y,z
_cell_length_a	17.699077
_cell_length_b	17.699092
_cell_length_c	16.776229
_cell_angle_alpha	89.995030
_cell_angle_beta	89.993415
_cell_angle_gamma	83.283472
loop_
_atom_site_label
_atom_site_type_symbol
_atom_site_fract_x
_atom_site_fract_y
_atom_site_fract_z
O1	O	1.004084	0.095691	-0.066275
O2	O	1.504084	0.595691	0.433725
O3	O	0.783706	0.108148	-0.066278
O4	O	1.283706	0.608148	0.433722
O5	O	0.900118	-0.008269	-0.066274
O6	O	1.400118	0.491731	0.433726
O7	O	0.887672	0.212109	-0.066278
O8	O	1.387672	0.712109	0.433722
O9	O	0.900102	-0.008276	0.066302
O10	O	1.400102	0.491724	0.566302
O11	O	0.783690	0.108141	0.066298
O12	O	1.283690	0.608141	0.566298
O13	O	1.004069	0.095684	0.066302
O14	O	1.504069	0.595684	0.566302
Zn15	Zn	0.893877	0.101911	0.087349
Zn16	Zn	1.393877	0.601911	0.587349
Zn17	Zn	0.893897	0.101921	-0.087326
Zn18	Zn	1.393897	0.601921	0.412674
O19	O	0.887656	0.212101	0.066298
O20	O	1.387656	0.712101	0.566298
C21	C	0.755501	0.107699	0.000010
C22	C	1.255501	0.607699	0.500010
C23	C	0.671482	0.106362	0.000008
C24	C	1.171482	0.606362	0.500008
C25	C	0.632007	0.105729	0.072276
C26	C	1.132007	0.605729	0.572276
C27	C	0.553064	0.104460	0.072277
C28	C	1.053064	0.604460	0.572277
C29	C	0.513598	0.103831	0.000009
C30	C	1.013598	0.603831	0.500009
C31	C	0.553080	0.104463	-0.072265
C32	C	1.053080	0.604463	0.427735
C33	C	0.632021	0.105726	-0.072265
C34	C	1.132021	0.605726	0.427735
C35	C	0.234716	0.099370	-0.072266
C36	C	0.734716	0.599370	0.427734
C37	C	0.155768	0.098109	-0.072261
C38	C	0.655768	0.598109	0.427739
C39	C	0.155759	0.098104	0.072276
C40	C	0.655759	0.598104	0.572276
C41	C	0.234701	0.099367	0.072276
C42	C	0.734701	0.599367	0.572276
C43	C	0.274176	0.099994	0.000003
C44	C	0.774176	0.599994	0.500003
C45	C	0.359774	0.101368	0.000002
C46	C	0.859774	0.601368	0.500002
C47	C	0.428000	0.102463	0.000008
C48	C	0.928000	0.602463	0.500008
C49	C	0.899663	-0.036470	0.000013
C50	C	1.399663	0.463530	0.500013
C51	C	0.898322	-0.120487	0.000009
C52	C	1.398322	0.379513	0.500009
C53	C	0.897702	-0.159951	-0.072260
C54	C	1.397702	0.340049	0.427740
C55	C	0.896437	-0.238894	-0.072260
C56	C	1.396437	0.261106	0.427740
C57	C	0.895798	-0.278373	0.000008
C58	C	1.395798	0.221627	0.500008
C59	C	0.896415	-0.238903	0.072282
C60	C	1.396415	0.261097	0.572282
C61	C	0.897675	-0.159961	0.072282
C62	C	1.397675	0.340039	0.572282
C63	C	0.891335	-0.557268	0.072283
C64	C	1.391335	-0.057268	0.572283
C65	C	0.890078	-0.636216	0.072277
C66	C	1.390078	-0.136216	0.572277
C67	C	0.890097	-0.636201	-0.072260
C68	C	1.390097	-0.136201	0.427740
C69	C	0.891357	-0.557259	-0.072259
C70	C	1.391357	-0.057259	0.427741
C71	C	0.891970	-0.517796	0.000014
C72	C	1.391970	-0.017796	0.500014
C73	C	0.893341	-0.432197	0.000014
C74	C	1.393341	0.067803	0.500014
C75	C	0.894433	-0.363971	0.000008
C76	C	1.394433	0.136029	0.500008
C77	C	1.032274	0.096133	0.000012
C78	C	1.532274	0.596133	0.500012
C79	C	1.116292	0.097470	0.000009
C80	C	1.616292	0.597470	0.500009
C81	C	0.888111	0.240302	0.000009
C82	C	1.388111	0.740302	0.500009
C83	C	0.889452	0.324320	0.000008
C84	C	1.389452	0.824320	0.500008
N85	N	0.893869	0.101905	0.206561
N86	N	1.393869	0.601905	0.706561
N87	N	0.893912	0.101922	-0.206537
N88	N	1.393912	0.601922	0.293463
C89	C	0.945432	0.050376	0.248279
C90	C	1.445432	0.550376	0.748279
C91	C	0.945436	0.050375	0.331732
C92	C	1.445436	0.550375	0.831732
C93	C	0.893880	0.101907	0.373464
C94	C	1.393880	0.601907	0.873464
C95	C	0.842312	0.153438	0.331739
C96	C	1.342312	0.653438	0.831739
C97	C	0.842304	0.153435	0.248288
C98	C	1.342304	0.653435	0.748288
C99	C	0.842339	0.153453	0.668286
C100	C	1.342339	0.653453	1.168286
C101	C	0.842352	0.153454	0.751743
C102	C	1.342352	0.653454	1.251743
C103	C	0.945470	0.050394	0.751729
C104	C	1.445470	0.550394	1.251729
C105	C	0.945463	0.050390	0.668279
C106	C	1.445463	0.550390	1.168279
C107	C	0.893892	0.101918	0.626562
C108	C	1.393892	0.601918	1.126562
C109	C	0.893888	0.101917	0.536073
C110	C	1.393888	0.601917	1.036073
C111	C	0.893888	0.101913	0.463950
C112	C	1.393888	0.601913	0.963950
H113	H	0.520941	0.103946	-0.131107
H114	H	1.020941	0.603946	0.368893
N115	N	0.113196	0.097424	-0.150208
N116	N	0.613196	0.597424	0.349792
H117	H	0.120713	0.144540	-0.181813
H118	H	0.620713	0.644540	0.318187
H119	H	0.133177	0.050710	-0.181734
H120	H	0.633177	0.550710	0.318266
H121	H	0.800366	0.195420	0.785720
H122	H	1.300366	0.695420	1.285720
H123	H	0.664133	0.106247	0.131126
H124	H	1.164133	0.606247	0.631126
N125	N	0.786715	0.209023	0.623297
N126	N	1.286715	0.709023	1.123297
H127	H	0.754058	0.241668	0.662399
H128	H	1.254058	0.741668	1.162399
H129	H	0.815616	0.242449	0.588657
H130	H	1.315616	0.742449	1.088657
N131	N	1.001077	-0.005184	0.376717
N132	N	1.501077	0.494816	0.876717
H133	H	0.992485	-0.058899	0.362205
H134	H	1.492485	0.441101	0.862205
H135	H	1.054736	0.003561	0.362143
H136	H	1.554736	0.503561	0.862143
N137	N	0.895733	-0.281480	0.150230
N138	N	1.395733	0.218520	0.650230
H139	H	0.894848	-0.337480	0.139265
H140	H	1.394848	0.162520	0.639265
H141	H	0.942854	-0.273899	0.181781
H142	H	1.442854	0.226101	0.681781
N143	N	1.001061	-0.005195	0.623263
N144	N	1.501061	0.494805	1.123263
H145	H	1.034515	0.023682	0.588626
H146	H	1.534515	0.523682	1.088626
H147	H	1.033676	-0.037830	0.662403
H148	H	1.533676	0.462170	1.162403
H149	H	0.889555	-0.668357	0.131130
H150	H	1.389555	-0.168357	0.631130
N151	N	0.786698	0.209016	0.376745
N152	N	1.286698	0.709016	0.876745
H153	H	0.794527	0.201201	0.435942
H154	H	1.294527	0.701201	0.935942
H155	H	0.795337	0.262698	0.362148
H156	H	1.295337	0.762698	0.862148
N157	N	0.898380	-0.117345	-0.150191
N158	N	1.398380	0.382655	0.349809
H159	H	0.945058	-0.137284	-0.181803
H160	H	1.445058	0.362716	0.318197
H161	H	0.851228	-0.124862	-0.181719
H162	H	1.351228	0.375138	0.318281
H163	H	0.800316	0.195394	0.214322
H164	H	1.300316	0.695394	0.714322
N165	N	0.277288	0.100041	-0.150214
N166	N	0.777288	0.600041	0.349786
H167	H	0.240305	0.099451	-0.195993
H168	H	0.740305	0.599451	0.304007
H169	H	0.303823	0.147462	-0.153371
H170	H	0.803823	0.647462	0.346629
H171	H	0.266829	0.099883	0.131124
H172	H	0.766829	0.599883	0.631124
N173	N	1.001095	-0.005186	0.796724
N174	N	1.501095	0.494814	1.296724
H175	H	0.993278	0.002630	0.855922
H176	H	1.493278	0.502630	1.355922
H177	H	0.992455	-0.058870	0.782145
H178	H	1.492455	0.441130	1.282145
N179	N	0.892006	-0.514711	0.150231
N180	N	1.392006	-0.014711	0.650231
H181	H	0.891416	-0.551703	0.196010
H182	H	1.391416	-0.051703	0.696010
H183	H	0.939431	-0.488182	0.153377
H184	H	1.439431	0.011818	0.653377
N185	N	0.113188	0.097415	0.150234
N186	N	0.613188	0.597415	0.650234
H187	H	0.121552	0.144011	0.182300
H188	H	0.621552	0.644011	0.682300
H189	H	0.057075	0.097545	0.139216
H190	H	0.557075	0.597545	0.639216
N191	N	1.001026	-0.005221	0.203274
N192	N	1.501026	0.494779	0.703274
H193	H	0.993197	0.002592	0.144077
H194	H	1.493197	0.502592	0.644077
H195	H	1.054706	0.003443	0.217842
H196	H	1.554706	0.503443	0.717842
H197	H	0.520928	0.103932	0.131125
H198	H	1.020928	0.603932	0.631125
N199	N	0.674604	0.106403	-0.150211
N200	N	1.174604	0.606403	0.349789
H201	H	0.637625	0.105814	-0.195993
H202	H	1.137625	0.605814	0.304007
H203	H	0.701137	0.153827	-0.153364
H204	H	1.201137	0.653827	0.346636
H205	H	0.895936	-0.271022	-0.131109
H206	H	1.395936	0.228978	0.368891
H207	H	0.891881	-0.525120	-0.131108
H208	H	1.391881	-0.025120	0.368892
H209	H	0.889594	-0.668341	-0.131108
H210	H	1.389594	-0.168341	0.368892
N211	N	0.898355	-0.117397	0.150230
N212	N	1.398355	0.382603	0.650230
H213	H	0.899249	-0.061397	0.139265
H214	H	1.399249	0.438603	0.639265
H215	H	0.851231	-0.124976	0.181790
H216	H	1.351231	0.375024	0.681790
