data_functionalizedCrystal
_audit_creation_method	'MofGen! by Chris Wilmer'
_symmetry_space_group_name_H-M	'P1'
_symmetry_Int_Tables_number	1
_symmetry_cell_setting	triclinic
loop_
_symmetry_equiv_pos_as_xyz
  x,y,z
_cell_length_a	18.050591
_cell_length_b	21.295417
_cell_length_c	18.050582
_cell_angle_alpha	90.025708
_cell_angle_beta	90.010544
_cell_angle_gamma	90.028543
loop_
_atom_site_label
_atom_site_type_symbol
_atom_site_fract_x
_atom_site_fract_y
_atom_site_fract_z
Zn1	Zn	1.135285	-0.250669	0.419810
Zn2	Zn	1.635285	0.249331	0.919810
Zn3	Zn	1.135192	-0.355930	0.295613
Zn4	Zn	1.635192	0.144070	0.795613
Zn5	Zn	1.011104	-0.250676	0.295643
Zn6	Zn	1.511104	0.249324	0.795643
Zn7	Zn	1.011049	-0.355902	0.419771
Zn8	Zn	1.511049	0.144098	0.919771
O9	O	1.073157	-0.303294	0.357709
O10	O	1.573157	0.196706	0.857709
O11	O	1.239197	-0.264640	0.403338
O12	O	1.739197	0.235360	0.903338
O13	O	1.118716	-0.341983	0.191692
O14	O	1.618716	0.158017	0.691692
O15	O	1.027639	-0.162586	0.312143
O16	O	1.527639	0.337414	0.812143
O17	O	1.239129	-0.341975	0.312091
O18	O	1.739129	0.158025	0.812091
O19	O	1.118874	-0.162580	0.403368
O20	O	1.618874	0.337420	0.903368
O21	O	1.027549	-0.264654	0.191715
O22	O	1.527549	0.235346	0.691715
O23	O	0.907172	-0.264626	0.312105
O24	O	1.407172	0.235374	0.812105
O25	O	1.027545	-0.341927	0.523701
O26	O	1.527545	0.158073	1.023701
O27	O	0.907132	-0.341935	0.403301
O28	O	1.407132	0.158065	0.903301
O29	O	1.118820	-0.264613	0.523729
O30	O	1.618820	0.235387	1.023729
O31	O	1.118663	-0.444016	0.312054
O32	O	1.618663	0.055984	0.812054
O33	O	1.027455	-0.443995	0.403272
O34	O	1.527455	0.056005	0.903272
C35	C	0.880205	-0.303279	0.357703
C36	C	1.380205	0.196721	0.857703
C37	C	0.797660	-0.303287	0.357718
C38	C	1.297660	0.196713	0.857718
C39	C	1.073063	-0.466846	0.357672
C40	C	1.573063	0.033154	0.857672
C41	C	1.073090	-0.536814	0.357680
C42	C	1.573090	-0.036814	0.857680
C43	C	0.548833	-0.345415	0.407243
C44	C	1.048833	0.154585	0.907243
C45	C	0.598203	-0.360732	0.339456
C46	C	1.098203	0.139268	0.839456
C47	C	0.500539	-0.303307	0.357717
C48	C	1.000539	0.196693	0.857717
C49	C	0.598251	-0.288010	0.425500
C50	C	1.098251	0.211990	0.925500
C51	C	0.646524	-0.303299	0.357721
C52	C	1.146524	0.196701	0.857721
C53	C	0.548821	-0.318654	0.289894
C54	C	1.048821	0.181346	0.789894
C55	C	0.548866	-0.245905	0.375984
C56	C	1.048866	0.254095	0.875984
C57	C	0.598213	-0.261201	0.308150
C58	C	1.098213	0.238799	0.808150
C59	C	0.416441	-0.303314	0.357715
C60	C	0.916441	0.196686	0.857715
C61	C	0.730621	-0.303293	0.357715
C62	C	1.230621	0.196707	0.857715
C63	C	1.120569	-0.569620	0.405215
C64	C	1.620569	-0.069620	0.905215
C65	C	1.120595	-0.635363	0.405233
C66	C	1.620595	-0.135363	0.905233
C67	C	1.073151	-0.668296	0.357704
C68	C	1.573151	-0.168296	0.857704
C69	C	1.025662	-0.635482	0.310166
C70	C	1.525662	-0.135482	0.810166
C71	C	1.025632	-0.569741	0.310154
C72	C	1.525632	-0.069741	0.810154
N73	N	1.067546	-0.771554	0.292710
N74	N	1.567546	-0.271554	0.792710
N75	N	1.067579	-0.834005	0.292723
N76	N	1.567579	-0.334005	0.792723
C77	C	1.073237	-0.866371	0.357737
C78	C	1.573237	-0.366371	0.857737
N79	N	1.078875	-0.833927	0.422739
N80	N	1.578875	-0.333927	0.922739
N81	N	1.078846	-0.771469	0.422725
N82	N	1.578846	-0.271469	0.922725
C83	C	1.073178	-0.739582	0.357711
C84	C	1.573178	-0.239582	0.857711
C85	C	1.120747	-0.970463	0.405296
C86	C	1.620747	-0.470463	0.905296
C87	C	1.120768	-1.036207	0.405315
C88	C	1.620768	-0.536207	0.905315
C89	C	1.025839	-1.036325	0.310241
C90	C	1.525839	-0.536325	0.810241
C91	C	1.025814	-0.970582	0.310228
C92	C	1.525814	-0.470582	0.810228
C93	C	1.073272	-0.937655	0.357754
C94	C	1.573272	-0.437655	0.857754
C95	C	1.266863	-0.303310	0.357716
C96	C	1.766863	0.196690	0.857716
C97	C	1.349409	-0.303317	0.357718
C98	C	1.849409	0.196683	0.857718
C99	C	1.073187	-0.303266	0.551415
C100	C	1.573187	0.196734	1.051415
C101	C	1.073199	-0.303254	0.633961
C102	C	1.573199	0.196746	1.133961
C103	C	1.073273	-0.139104	0.357763
C104	C	1.573273	0.360896	0.857763
C105	C	1.073322	-0.069136	0.357786
C106	C	1.573322	0.430864	0.857786
C107	C	1.073171	-0.303277	0.164757
C108	C	1.573171	0.196723	0.664757
C109	C	1.073303	-0.303111	0.082212
C110	C	1.573303	0.196889	0.582212
C111	C	1.023601	-0.345241	0.833396
C112	C	1.523601	0.154759	1.333396
C113	C	1.091356	-0.360629	0.882781
C114	C	1.591356	0.139371	1.382781
C115	C	1.073236	-0.303206	0.785091
C116	C	1.573236	0.196794	1.285091
C117	C	1.005518	-0.287800	0.882788
C118	C	1.505518	0.212200	1.382788
C119	C	1.073265	-0.303161	0.931076
C120	C	1.573265	0.196839	1.431076
C121	C	1.141026	-0.318625	0.833389
C122	C	1.641026	0.181375	1.333389
C123	C	1.055142	-0.245770	0.833391
C124	C	1.555142	0.254230	1.333391
C125	C	1.122944	-0.261136	0.882754
C126	C	1.622944	0.238864	1.382754
C127	C	1.073218	-0.303234	0.700993
C128	C	1.573218	0.196766	1.200993
C129	C	1.073291	-0.303133	1.015173
C130	C	1.573291	0.196867	1.515173
H131	H	0.527152	-0.381055	0.449071
H132	H	1.027152	0.118945	0.949071
O133	O	0.626913	-0.425026	0.318976
O134	O	1.126913	0.074974	0.818976
H135	H	0.607139	-0.459901	0.360162
H136	H	1.107139	0.040099	0.860162
H137	H	0.527200	-0.331648	0.232556
H138	H	1.027200	0.168352	0.732556
H139	H	1.159431	-1.062917	0.444027
H140	H	1.659431	-0.562917	0.944027
H141	H	1.039801	-0.197230	0.811680
H142	H	1.539801	0.302770	1.311680
O143	O	0.626767	-0.214030	0.252617
O144	O	1.126767	0.285970	0.752617
H145	H	0.606865	-0.226875	0.196431
H146	H	1.106865	0.273125	0.696431
O147	O	1.178617	-0.214021	0.911283
O148	O	1.678617	0.285979	1.411283
H149	H	1.177900	-0.214044	0.972770
H150	H	1.677900	0.285956	1.472770
O151	O	0.974490	-0.671002	0.258903
O152	O	1.474490	-0.171002	0.758903
H153	H	0.941464	-0.637142	0.225850
H154	H	1.441464	-0.137142	0.725850
H155	H	0.948238	-0.274789	0.904487
H156	H	1.448238	0.225211	1.404487
H157	H	0.527177	-0.197379	0.391458
H158	H	1.027177	0.302621	0.891458
O159	O	0.974431	-0.534350	0.258873
O160	O	1.474431	-0.034350	0.758873
H161	H	0.941446	-0.568293	0.225820
H162	H	1.441446	-0.068293	0.725820
H163	H	1.159210	-0.542813	0.443915
H164	H	1.659210	-0.042813	0.943915
H165	H	0.619964	-0.275074	0.482822
H166	H	1.119964	0.224926	0.982822
O167	O	1.171812	-0.670760	0.456498
O168	O	1.671812	-0.170760	0.956498
H169	H	1.204810	-0.636819	0.489540
H170	H	1.704810	-0.136819	0.989540
H171	H	0.987204	-1.063138	0.271546
H172	H	1.487204	-0.563138	0.771546
O173	O	1.171924	-0.934942	0.456558
O174	O	1.671924	-0.434942	0.956558
H175	H	1.204937	-0.968802	0.489625
H176	H	1.704937	-0.468802	0.989625
H177	H	0.987155	-0.943869	0.271518
H178	H	1.487155	-0.443869	0.771518
H179	H	0.981667	-0.380834	0.811724
H180	H	1.481667	0.119166	1.311724
H181	H	1.106677	-0.409183	0.904476
H182	H	1.606677	0.090817	1.404476
O183	O	1.217025	-0.335618	0.804778
O184	O	1.717025	0.164382	1.304778
H185	H	1.216445	-0.335408	0.743291
H186	H	1.716445	0.164592	1.243291
