data_functionalizedCrystal
_audit_creation_method	'MofGen! by Chris Wilmer'
_symmetry_space_group_name_H-M	'P1'
_symmetry_Int_Tables_number	1
_symmetry_cell_setting	triclinic
loop_
_symmetry_equiv_pos_as_xyz
  x,y,z
_cell_length_a	6.817900
_cell_length_b	17.253917
_cell_length_c	14.858572
_cell_angle_alpha	98.734339
_cell_angle_beta	104.524003
_cell_angle_gamma	102.659311
loop_
_atom_site_label
_atom_site_type_symbol
_atom_site_fract_x
_atom_site_fract_y
_atom_site_fract_z
V1	V	-4.039636	-0.111816	-0.298828
O2	O	-4.025555	0.004852	-0.284056
O3	O	-3.992362	-0.221211	-0.305521
O4	O	-3.996258	-0.110324	-0.425172
O5	O	-4.021632	-0.106802	-0.163577
V6	V	-4.522467	-0.097834	-0.281590
O7	O	-4.302411	-0.142486	-0.336642
O8	O	-4.709888	-0.067164	-0.243776
O9	O	-4.346534	0.011561	-0.274897
O10	O	-4.653944	-0.214502	-0.296362
O11	O	-4.657868	-0.102848	-0.416841
O12	O	-4.342638	-0.099325	-0.155246
C13	C	-3.837474	-0.247872	-0.303061
C14	C	-3.880142	-0.337305	-0.309376
C15	C	-3.856408	-0.367683	-0.226255
C16	C	-3.896520	-0.451716	-0.232191
C17	C	-3.960350	-0.505369	-0.321249
C18	C	-3.984090	-0.474986	-0.404376
C19	C	-3.943994	-0.390955	-0.398439
C20	C	-4.084978	-0.757935	-0.348236
C21	C	-4.125068	-0.841971	-0.354167
C22	C	-4.037498	-0.818696	-0.181981
C23	C	-3.997393	-0.734664	-0.176052
C24	C	-4.021147	-0.704288	-0.259179
N25	N	-4.001345	-0.591265	-0.327319
N26	N	-3.980166	-0.618395	-0.253109
C27	C	-3.842443	-0.106424	-0.455686
C28	C	-3.888268	-0.105929	-0.559030
C29	C	-4.055989	-0.104118	-0.937454
C30	C	-4.009316	-0.104622	-0.832165
C31	C	-3.972130	-0.105024	-0.748246
C32	C	-3.925454	-0.105526	-0.642949
C33	C	-4.164764	0.038218	-0.277354
C34	C	-4.101334	0.127650	-0.271046
C35	C	-4.159795	-0.103228	-0.124727
C36	C	-4.093208	-0.103720	-0.021382
H37	H	-4.036079	-0.518678	-0.476889
H38	H	-3.804418	-0.324003	-0.153734
O39	O	-4.193943	-0.899839	-0.450232
H40	H	-4.350638	-0.941750	-0.460751
O41	O	-3.870929	-0.484485	-0.142541
H42	H	-3.750781	-0.519155	-0.137423
H43	H	-3.963343	-0.366224	-0.466126
H44	H	-4.104297	-0.733214	-0.415924
H45	H	-3.945431	-0.690984	-0.103532
H46	H	-4.018166	-0.843437	-0.114304
