data_functionalizedCrystal
_audit_creation_method	'MofGen! by Chris Wilmer'
_symmetry_space_group_name_H-M	'P1'
_symmetry_Int_Tables_number	1
_symmetry_cell_setting	triclinic
loop_
_symmetry_equiv_pos_as_xyz
  x,y,z
_cell_length_a	13.339071
_cell_length_b	23.532357
_cell_length_c	11.804365
_cell_angle_alpha	101.747256
_cell_angle_beta	74.875833
_cell_angle_gamma	99.228785
loop_
_atom_site_label
_atom_site_type_symbol
_atom_site_fract_x
_atom_site_fract_y
_atom_site_fract_z
O1	O	1.359867	0.276784	-0.099106
O2	O	1.065725	0.239371	-0.099096
O3	O	1.221687	0.176580	-0.099077
O4	O	1.203905	0.339575	-0.099125
O5	O	1.180629	0.193087	0.098974
O6	O	1.024667	0.255878	0.098955
O7	O	1.318808	0.293291	0.098945
Cu8	Cu	1.167989	0.276092	0.117033
Cu9	Cu	1.216545	0.256570	-0.117185
O10	O	1.162847	0.356082	0.098926
C11	C	1.007572	0.241304	-0.000069
C12	C	0.895465	0.222467	-0.000064
C13	C	0.855371	0.163722	-0.000042
C14	C	0.750042	0.146021	-0.000043
C15	C	0.684794	0.187063	-0.000056
C16	C	0.724886	0.245809	-0.000069
C17	C	0.830227	0.263511	-0.000078
C18	C	0.659650	0.286852	-0.000092
C19	C	0.699741	0.345598	-0.000105
C20	C	0.805073	0.363298	-0.000113
C21	C	0.870320	0.322256	-0.000100
C22	C	0.554309	0.269149	-0.000084
C23	C	0.529165	0.368939	-0.000120
C24	C	0.634494	0.386640	-0.000119
C25	C	1.200712	0.163545	-0.000048
C26	C	1.199372	0.100112	-0.000036
C27	C	1.213366	-0.302257	-0.108058
C28	C	1.212095	-0.361862	-0.108065
O29	O	1.230438	-0.400342	-0.199878
N30	N	1.189084	-0.382677	-0.000109
C31	C	1.167331	-0.343884	0.107861
O32	O	1.147641	-0.367062	0.199686
C33	C	1.168595	-0.284281	0.107867
C34	C	1.191618	-0.263469	-0.000096
C35	C	1.236386	-0.281444	-0.216012
C36	C	1.237658	-0.221843	-0.216005
C37	C	1.215911	-0.183055	-0.108044
C38	C	1.192890	-0.203867	-0.000089
C39	C	1.146835	-0.245489	0.215835
C40	C	1.148100	-0.185883	0.215832
C41	C	1.171123	-0.165071	0.107868
C42	C	1.172415	-0.105478	0.107880
N43	N	1.195426	-0.084663	-0.000077
C44	C	1.217174	-0.123451	-0.108038
C45	C	1.164678	-0.469056	0.107841
C46	C	1.163421	-0.528657	0.107837
C47	C	1.208184	-0.546631	-0.108089
C48	C	1.209447	-0.487028	-0.108084
C49	C	1.187689	-0.448241	-0.000115
C50	C	1.219845	0.001716	-0.108015
C51	C	1.221120	0.061324	-0.107998
C52	C	1.176352	0.079292	0.107928
C53	C	1.175083	0.019690	0.107912
C54	C	1.196828	-0.019097	-0.000069
O55	O	1.154079	-0.066964	0.199646
O56	O	1.236848	-0.100266	-0.199847
C57	C	1.376962	0.291357	-0.000085
C58	C	1.489071	0.310194	-0.000098
C59	C	1.183822	0.369116	-0.000106
C60	C	1.185164	0.432549	-0.000125
N61	N	1.133844	0.289823	0.281770
N62	N	1.250698	0.242835	-0.281921
C63	C	1.332692	0.209850	0.655743
C64	C	1.358521	0.199460	0.531084
C65	C	1.302353	0.222050	0.468750
C66	C	1.220353	0.255032	0.531086
C67	C	1.194527	0.265427	0.655756
C68	C	1.164189	0.277627	0.468763
C69	C	1.082188	0.310609	0.531099
C70	C	1.056366	0.321002	0.655758
C71	C	1.112533	0.298412	0.718092
C72	C	1.190015	0.267231	0.344092
C73	C	1.051850	0.322808	0.344106
C74	C	1.026021	0.333199	0.468764
H75	H	0.599031	0.172647	-0.000057
C76	C	1.187335	-0.322419	-0.400073
C77	C	1.260301	-0.324073	-0.334699
H78	H	1.202113	-0.348731	-0.473353
H79	H	1.119039	-0.333467	-0.355727
H80	H	1.191384	-0.283937	-0.415490
H81	H	1.256247	-0.362555	-0.319274
H82	H	1.328615	-0.313029	-0.379055
H83	H	1.378421	0.191464	0.706504
C84	C	1.222837	-0.577946	0.233117
C85	C	1.138113	-0.551533	0.226509
H86	H	1.207204	-0.592065	0.306385
H87	H	1.235601	-0.609576	0.168827
H88	H	1.283163	-0.550103	0.228639
H89	H	1.077789	-0.579377	0.230978
H90	H	1.125337	-0.519900	0.290817
H91	H	1.256402	-0.204904	-0.303920
H92	H	1.091500	0.306870	0.819600
C93	C	1.159111	-0.587625	-0.292138
C94	C	1.232084	-0.589274	-0.226769
H95	H	1.173872	-0.613949	-0.365403
H96	H	1.090815	-0.598660	-0.247774
H97	H	1.163171	-0.549147	-0.307584
H98	H	1.228018	-0.627751	-0.211315
H99	H	1.300397	-0.578242	-0.271142
C100	C	0.922387	0.374893	0.643247
C101	C	0.966237	0.357261	0.724280
H102	H	0.866742	0.397274	0.685551
H103	H	0.974285	0.397945	0.594607
H104	H	0.896379	0.341414	0.594641
H105	H	0.992252	0.390740	0.772880
H106	H	0.914329	0.334207	0.772940
H107	H	1.158650	0.110884	0.195827
C108	C	1.149969	-0.437767	-0.233344
C109	C	1.234722	-0.464163	-0.226766
H110	H	1.165569	-0.423654	-0.306617
H111	H	1.089657	-0.465610	-0.228830
H112	H	1.137216	-0.406127	-0.169055
H113	H	1.247470	-0.495806	-0.291050
H114	H	1.295052	-0.436318	-0.231292
C115	C	1.157548	-0.083048	-0.233303
C116	C	1.243745	-0.040918	-0.226702
H117	H	1.172305	-0.109367	-0.306576
H118	H	1.143667	-0.103974	-0.169020
H119	H	1.098217	-0.064375	-0.228808
H120	H	1.303074	-0.059591	-0.231187
H121	H	1.257639	-0.019990	-0.291002
H122	H	1.323387	0.213588	0.367247
C123	C	1.124930	-0.328869	0.311738
C124	C	1.121475	-0.268360	0.334513
H125	H	1.109263	-0.342987	0.385011
H126	H	1.075044	-0.347283	0.267347
H127	H	1.192835	-0.337373	0.267424
H128	H	1.053568	-0.259857	0.378820
H129	H	1.171364	-0.249941	0.378923
H130	H	1.130367	-0.154305	0.303755
H131	H	0.959255	0.360054	0.519534
H132	H	0.667151	0.434472	-0.000130
C133	C	1.120315	-0.457284	0.321276
C134	C	1.140774	-0.426421	0.226533
H135	H	1.105563	-0.430964	0.394549
H136	H	1.061853	-0.485866	0.316780
H137	H	1.179664	-0.475945	0.316763
H138	H	1.081422	-0.407763	0.231040
H139	H	1.199242	-0.397829	0.231032
H140	H	1.256780	0.240377	0.293349
C141	C	1.492487	0.145567	0.543603
C142	C	1.448644	0.163204	0.462568
H143	H	1.548123	0.123180	0.501300
H144	H	1.518496	0.179040	0.592205
H145	H	1.440575	0.122514	0.592247
H146	H	1.500555	0.186261	0.413930
H147	H	1.422637	0.129726	0.413945
C148	C	0.625059	0.076713	0.101781
C149	C	0.705968	0.081452	-0.000028
H150	H	0.597846	0.036849	0.101783
H151	H	0.651314	0.091443	0.170832
H152	H	0.571138	0.098628	0.101761
H153	H	0.759893	0.059540	-0.000004
H154	H	0.679716	0.066714	-0.069097
C155	C	1.130963	0.043447	0.321346
C156	C	1.149781	-0.003190	0.226584
H157	H	1.115330	0.029322	0.394609
H158	H	1.191295	0.071276	0.316858
H159	H	1.073490	0.061364	0.316845
H160	H	1.207259	-0.021104	0.231080
H161	H	1.089442	-0.031029	0.231074
C162	C	0.993255	0.383267	0.101698
C163	C	0.986104	0.341715	-0.000100
H164	H	1.064736	0.395276	0.101698
H165	H	0.960144	0.416113	0.101671
H166	H	0.959746	0.366588	0.170763
H167	H	1.019606	0.358396	-0.069166
H168	H	1.019229	0.308864	-0.000085
C169	C	0.564433	0.170161	-0.101860
C170	C	0.510248	0.204579	-0.000061
H171	H	0.537235	0.130295	-0.101838
H172	H	0.556309	0.182001	-0.170918
H173	H	0.636502	0.174838	-0.101850
H174	H	0.438179	0.199905	-0.000075
H175	H	0.518363	0.192735	0.069014
C176	C	1.028012	0.146559	-0.000039
C177	C	0.927091	0.118614	-0.000027
H178	H	1.072286	0.118708	-0.000023
H179	H	1.054414	0.164198	-0.069108
H180	H	1.025778	0.175718	0.069022
H181	H	0.929323	0.089458	-0.069093
H182	H	0.900683	0.100966	0.069049
H183	H	0.837715	0.411131	-0.000142
H184	H	0.476039	0.402359	-0.000131
H185	H	1.239871	0.078265	-0.195918
C186	C	0.912685	0.378794	0.356640
C187	C	0.990103	0.347643	0.275602
H188	H	0.874576	0.394127	0.314340
H189	H	0.866530	0.353430	0.405279
H190	H	0.944450	0.409956	0.405247
H191	H	0.958337	0.316477	0.227000
H192	H	1.036264	0.373008	0.226942
