data_functionalizedCrystal
_audit_creation_method	'MofGen! by Chris Wilmer'
_symmetry_space_group_name_H-M	'P1'
_symmetry_Int_Tables_number	1
_symmetry_cell_setting	triclinic
loop_
_symmetry_equiv_pos_as_xyz
  x,y,z
_cell_length_a	9.065215
_cell_length_b	9.065215
_cell_length_c	13.448316
_cell_angle_alpha	89.994392
_cell_angle_beta	89.993808
_cell_angle_gamma	85.014697
loop_
_atom_site_label
_atom_site_type_symbol
_atom_site_fract_x
_atom_site_fract_y
_atom_site_fract_z
O1	O	1.960406	0.216340	-0.082678
O2	O	2.460406	0.716340	0.417322
O3	O	1.531121	0.234091	-0.082682
O4	O	2.031121	0.734091	0.417318
O5	O	1.754639	0.010573	-0.082676
O6	O	2.254639	0.510573	0.417324
O7	O	1.736888	0.439858	-0.082685
O8	O	2.236888	0.939858	0.417315
O9	O	1.754610	0.010559	0.082708
O10	O	2.254610	0.510559	0.582708
O11	O	1.531092	0.234077	0.082701
O12	O	2.031092	0.734077	0.582701
O13	O	1.960378	0.216326	0.082706
O14	O	2.460378	0.716326	0.582706
Cu15	Cu	1.745732	0.225200	0.097804
Cu16	Cu	2.245732	0.725200	0.597804
Cu17	Cu	1.745766	0.225217	-0.097781
Cu18	Cu	2.245766	0.725217	0.402219
O19	O	1.736859	0.439844	0.082699
O20	O	2.236859	0.939844	0.582699
C21	C	1.476120	0.232379	0.000009
C22	C	1.976120	0.732379	0.500009
C23	C	1.312277	0.227281	0.000007
C24	C	1.812277	0.727281	0.500007
C25	C	1.752920	-0.044421	0.000015
C26	C	2.252920	0.455579	0.500015
C27	C	1.747822	-0.208264	0.000012
C28	C	2.247822	0.291736	0.500012
C29	C	2.015379	0.218038	0.000012
C30	C	2.515379	0.718038	0.500012
C31	C	2.179222	0.223136	0.000007
C32	C	2.679222	0.723136	0.500007
C33	C	1.738579	0.494838	0.000006
C34	C	2.238579	0.994838	0.500006
C35	C	1.743677	0.658681	0.000003
C36	C	2.243677	1.158681	0.500003
N37	N	1.745719	0.225187	0.235369
N38	N	2.245719	0.725187	0.735369
N39	N	1.745791	0.225218	-0.235345
N40	N	2.245791	0.725218	0.264655
C41	C	1.844725	0.126255	0.287412
C42	C	2.344725	0.626255	0.787412
C43	C	1.844734	0.126254	0.391515
C44	C	2.344734	0.626254	0.891515
C45	C	1.745744	0.225194	0.443573
C46	C	2.245744	0.725194	0.943573
C47	C	1.646727	0.324130	0.391523
C48	C	2.146727	0.824130	0.891523
C49	C	1.646712	0.324123	0.287421
C50	C	2.146712	0.824123	0.787421
C51	C	1.646768	0.324141	0.608503
C52	C	2.146768	0.824141	1.108503
C53	C	1.646785	0.324150	0.712611
C54	C	2.146785	0.824150	1.212611
C55	C	1.844790	0.126272	0.712597
C56	C	2.344790	0.626272	1.212597
C57	C	1.844775	0.126265	0.608495
C58	C	2.344775	0.626265	1.108495
C59	C	1.745760	0.225204	0.556452
C60	C	2.245760	0.725204	1.056452
H61	H	1.925340	0.045694	0.245033
H62	H	2.425340	0.545694	0.745033
H63	H	1.925350	0.045695	0.433888
H64	H	2.425350	0.545695	0.933888
H65	H	1.566090	0.404682	0.245049
H66	H	2.066090	0.904682	0.745049
F67	F	1.541366	0.429424	0.446928
F68	F	2.041366	0.929424	0.946928
H69	H	1.566135	0.404703	0.566133
H70	H	2.066135	0.904703	1.066133
H71	H	1.925387	0.045708	0.566110
H72	H	2.425387	0.545708	1.066110
H73	H	1.925411	0.045712	0.754976
H74	H	2.425411	0.545712	1.254976
F75	F	1.541423	0.429454	0.768008
F76	F	2.041423	0.929454	1.268008
