data_functionalizedCrystal
_audit_creation_method	'MofGen! by Chris Wilmer'
_symmetry_space_group_name_H-M	'P1'
_symmetry_Int_Tables_number	1
_symmetry_cell_setting	triclinic
loop_
_symmetry_equiv_pos_as_xyz
  x,y,z
_cell_length_a	15.995350
_cell_length_b	23.532357
_cell_length_c	15.072220
_cell_angle_alpha	89.993295
_cell_angle_beta	89.991149
_cell_angle_gamma	83.160334
loop_
_atom_site_label
_atom_site_type_symbol
_atom_site_fract_x
_atom_site_fract_y
_atom_site_fract_z
O1	O	1.110366	0.073406	-0.073718
O2	O	1.443699	0.406739	0.259615
O3	O	1.777033	0.740072	0.592948
O4	O	0.866513	0.082471	-0.073738
O5	O	1.199846	0.415804	0.259595
O6	O	1.533180	0.749137	0.592929
O7	O	0.995815	-0.004967	-0.073709
O8	O	1.329148	0.328366	0.259624
O9	O	1.662481	0.661699	0.592957
O10	O	0.981064	0.160843	-0.073747
O11	O	1.314398	0.494177	0.259586
O12	O	1.647731	0.827510	0.592920
O13	O	0.995783	-0.004962	0.073856
O14	O	1.329116	0.328371	0.407189
O15	O	1.662449	0.661704	0.740522
O16	O	0.866481	0.082476	0.073827
O17	O	1.199814	0.415809	0.407160
O18	O	1.533148	0.749142	0.740494
O19	O	1.110334	0.073410	0.073847
O20	O	1.443667	0.406744	0.407180
O21	O	1.777001	0.740077	0.740513
Zn22	Zn	0.988403	0.077944	0.097266
Zn23	Zn	1.321736	0.411277	0.430599
Zn24	Zn	1.655069	0.744610	0.763933
Zn25	Zn	0.988444	0.077937	-0.097157
Zn26	Zn	1.321778	0.411271	0.236176
Zn27	Zn	1.655111	0.744604	0.569509
O28	O	0.981032	0.160848	0.073818
O29	O	1.314366	0.494182	0.407151
O30	O	1.647699	0.827515	0.740485
C31	C	0.835305	0.082098	0.000042
C32	C	1.168639	0.415432	0.333376
C33	C	1.501972	0.748765	0.666709
C34	C	0.742365	0.080975	0.000036
C35	C	1.075698	0.414308	0.333369
C36	C	1.409031	0.747641	0.666702
C37	C	0.404652	0.076940	0.000055
C38	C	0.737985	0.410273	0.333388
C39	C	1.071319	0.743606	0.666722
C40	C	0.452620	0.014668	0.000398
C41	C	0.785954	0.348001	0.333732
C42	C	1.119287	0.681335	0.667065
C43	C	0.549301	0.015792	0.000059
C44	C	0.882634	0.349125	0.333393
C45	C	1.215967	0.682459	0.666726
C46	C	0.572195	0.078941	0.000046
C47	C	0.905529	0.412275	0.333379
C48	C	1.238862	0.745608	0.666713
C49	C	0.530863	0.109653	-0.084224
C50	C	0.864196	0.442986	0.249109
C51	C	1.197529	0.776320	0.582442
C52	C	0.434240	0.108089	-0.084288
C53	C	0.767574	0.441422	0.249045
C54	C	1.100907	0.774755	0.582378
C55	C	0.433854	0.109381	0.083520
C56	C	0.767188	0.442714	0.416854
C57	C	1.100521	0.776047	0.750187
C58	C	0.530800	0.109366	0.084628
C59	C	0.864133	0.442699	0.417961
C60	C	1.197466	0.776033	0.751295
C61	C	0.666883	0.080076	0.000038
C62	C	1.000216	0.413409	0.333371
C63	C	1.333550	0.746742	0.666704
C64	C	0.309964	0.075807	0.000057
C65	C	0.643297	0.409141	0.333390
C66	C	0.976630	0.742474	0.666724
C67	C	0.995430	-0.026183	0.000076
C68	C	1.328763	0.307151	0.333409
C69	C	1.662096	0.640484	0.666743
C70	C	0.994321	-0.089406	0.000084
C71	C	1.327654	0.243928	0.333417
C72	C	1.660987	0.577261	0.666751
C73	C	0.987374	-0.481446	-0.080402
C74	C	1.320707	-0.148113	0.252931
C75	C	1.654041	0.185220	0.586265
C76	C	0.986319	-0.540850	-0.080407
C77	C	1.319653	-0.207517	0.252926
C78	C	1.652986	0.125817	0.586259
O79	O	0.985760	-0.571571	-0.148816
O80	O	1.319094	-0.238237	0.184517
O81	O	1.652427	0.095096	0.517850
N82	N	0.985779	-0.570560	0.000029
N83	N	1.319113	-0.237227	0.333363
N84	N	1.652446	0.096106	0.666696
C85	C	0.986285	-0.540864	0.080476
C86	C	1.319618	-0.207530	0.413810
C87	C	1.652952	0.125803	0.747143
O88	O	0.985728	-0.571589	0.148894
O89	O	1.319061	-0.238256	0.482227
O90	O	1.652395	0.095077	0.815560
C91	C	0.987333	-0.481461	0.080481
C92	C	1.320667	-0.148127	0.413814
C93	C	1.654000	0.185206	0.747147
C94	C	0.987882	-0.451754	0.000039
C95	C	1.321215	-0.118421	0.333372
C96	C	1.654549	0.214913	0.666705
C97	C	0.987922	-0.451740	-0.160837
C98	C	1.321255	-0.118406	0.172496
C99	C	1.654588	0.214927	0.505829
C100	C	0.988978	-0.392340	-0.160832
C101	C	1.322311	-0.059007	0.172501
C102	C	1.655644	0.274326	0.505835
C103	C	0.989486	-0.362648	-0.080391
C104	C	1.322819	-0.029315	0.252942
C105	C	1.656153	0.304019	0.586276
C106	C	0.988938	-0.392355	0.000044
C107	C	1.322271	-0.059021	0.333378
C108	C	1.655605	0.274312	0.666711
C109	C	0.987833	-0.451764	0.160927
C110	C	1.321166	-0.118431	0.494260
C111	C	1.654500	0.214902	0.827593
C112	C	0.988881	-0.392357	0.160924
C113	C	1.322214	-0.059024	0.494257
C114	C	1.655548	0.274309	0.827591
C115	C	0.989430	-0.362651	0.080482
C116	C	1.322763	-0.029317	0.413815
C117	C	1.656096	0.304016	0.747149
C118	C	0.990502	-0.303263	0.080491
C119	C	1.323836	0.030070	0.413824
C120	C	1.657169	0.363404	0.747157
N121	N	0.991043	-0.273553	0.000054
N122	N	1.324376	0.059781	0.333387
N123	N	1.657709	0.393114	0.666721
C124	C	0.990534	-0.303245	-0.080387
C125	C	1.323868	0.030088	0.252946
C126	C	1.657201	0.363422	0.586280
C127	C	0.984082	-0.665614	0.080461
C128	C	1.317415	-0.332280	0.413795
C129	C	1.650748	0.001053	0.747128
C130	C	0.983039	-0.725016	0.080458
C131	C	1.316373	-0.391683	0.413791
C132	C	1.649706	-0.058349	0.747125
C133	C	0.983072	-0.724998	-0.080426
C134	C	1.316406	-0.391665	0.252908
C135	C	1.649739	-0.058331	0.586241
C136	C	0.984121	-0.665595	-0.080422
C137	C	1.317454	-0.332262	0.252912
C138	C	1.650787	0.001072	0.586245
C139	C	0.984622	-0.635903	0.000025
C140	C	1.317955	-0.302570	0.333358
C141	C	1.651289	0.030764	0.666691
C142	C	0.992753	-0.178502	-0.080369
C143	C	1.326086	0.154831	0.252964
C144	C	1.659419	0.488164	0.586297
C145	C	0.993812	-0.119098	-0.080357
C146	C	1.327146	0.214235	0.252977
C147	C	1.660479	0.547569	0.586310
C148	C	0.993775	-0.119121	0.080527
C149	C	1.327108	0.214212	0.413860
C150	C	1.660441	0.547546	0.747193
C151	C	0.992720	-0.178520	0.080515
C152	C	1.326053	0.154813	0.413848
C153	C	1.659386	0.488146	0.747181
C154	C	0.992206	-0.208209	0.000059
C155	C	1.325539	0.125124	0.333393
C156	C	1.658873	0.458457	0.666726
O157	O	0.991059	-0.272504	0.148865
O158	O	1.324392	0.060829	0.482198
O159	O	1.657725	0.394162	0.815531
O160	O	0.991081	-0.272511	-0.148792
O161	O	1.324414	0.060822	0.184541
O162	O	1.657747	0.394156	0.517874
C163	C	1.141542	0.073783	0.000064
C164	C	1.474875	0.407116	0.333398
C165	C	1.808208	0.740449	0.666731
C166	C	1.234482	0.074906	0.000065
C167	C	1.567816	0.408240	0.333399
C168	C	1.901149	0.741573	0.666732
C169	C	0.981417	0.182064	0.000031
C170	C	1.314751	0.515397	0.333364
C171	C	1.648084	0.848731	0.666697
C172	C	0.982527	0.245287	0.000017
C173	C	1.315860	0.578620	0.333350
C174	C	1.649193	0.911953	0.666683
N175	N	0.988380	0.077948	0.229955
N176	N	1.321713	0.411281	0.563288
N177	N	1.655047	0.744614	0.896622
N178	N	0.988474	0.077929	-0.229846
N179	N	1.321807	0.411262	0.103487
N180	N	1.655140	0.744595	0.436821
C181	C	0.988443	0.077935	0.589156
C182	C	1.321776	0.411268	0.922490
C183	C	1.655109	0.744602	1.255823
C184	C	0.919026	0.124564	0.551534
C185	C	1.252360	0.457898	0.884867
C186	C	1.585693	0.791231	1.218201
C187	C	0.919183	0.124735	0.448708
C188	C	1.252516	0.458068	0.782042
C189	C	1.585850	0.791401	1.115375
C190	C	0.988411	0.077941	0.410952
C191	C	1.321744	0.411275	0.744286
C192	C	1.655078	0.744608	1.077619
C193	C	1.075664	0.090920	0.448247
C194	C	1.408998	0.424254	0.781580
C195	C	1.742331	0.757587	1.114914
C196	C	1.075275	0.091252	0.551105
C197	C	1.408608	0.424585	0.884438
C198	C	1.741941	0.757918	1.217772
C199	C	0.971386	0.018189	0.551269
C200	C	1.304719	0.351522	0.884602
C201	C	1.638053	0.684855	1.217935
C202	C	0.969378	0.018587	0.448405
C203	C	1.302711	0.351920	0.781738
C204	C	1.636045	0.685254	1.115072
C205	C	0.988398	0.077944	0.310239
C206	C	1.321732	0.411277	0.643572
C207	C	1.655065	0.744610	0.976906
C208	C	0.988461	0.077934	0.689870
C209	C	1.321794	0.411267	1.023203
C210	C	1.655128	0.744601	1.356536
H211	H	0.559434	0.088318	-0.146931
H212	H	0.892767	0.421651	0.186403
H213	H	1.226100	0.754985	0.519736
H214	H	0.853942	0.116959	0.576292
H215	H	1.187275	0.450292	0.909626
H216	H	1.520608	0.783625	1.242959
H217	H	0.558295	0.086947	0.146971
H218	H	0.891628	0.420280	0.480304
H219	H	1.224962	0.753613	0.813637
H220	H	0.982605	-0.749199	0.145962
H221	H	1.315939	-0.415866	0.479295
H222	H	1.649272	-0.082533	0.812629
H223	H	0.401600	0.153807	-0.088122
H224	H	0.734934	0.487141	0.245211
H225	H	1.068267	0.820474	0.578544
H226	H	0.987505	-0.475909	-0.226346
H227	H	1.320838	-0.142575	0.106988
H228	H	1.654172	0.190758	0.440321
H229	H	0.929713	0.168652	0.577364
H230	H	1.263046	0.501985	0.910697
H231	H	1.596379	0.835318	1.244030
H232	H	0.989421	-0.368158	-0.226336
H233	H	1.322755	-0.034825	0.106997
H234	H	1.656088	0.298509	0.440331
H235	H	0.930022	0.169072	0.424085
H236	H	1.263355	0.502405	0.757419
H237	H	1.596689	0.835738	1.090752
H238	H	0.982656	-0.749184	-0.145925
H239	H	1.315989	-0.415851	0.187408
H240	H	1.649322	-0.082518	0.520741
H241	H	1.128532	0.057861	0.423789
H242	H	1.461866	0.391195	0.757122
H243	H	1.795199	0.724528	1.090456
H244	H	0.984566	-0.641412	-0.145925
H245	H	1.317900	-0.308078	0.187409
H246	H	1.651233	0.025255	0.520742
H247	H	1.090383	0.134824	0.575078
H248	H	1.423717	0.468158	0.908411
H249	H	1.757050	0.801491	1.241744
H250	H	0.577924	-0.008349	0.060468
H251	H	0.911257	0.324984	0.393802
H252	H	1.244591	0.658317	0.727135
H253	H	1.128516	0.058628	0.575991
H254	H	1.461849	0.391962	0.909324
H255	H	1.795182	0.725295	1.242657
H256	H	0.545769	0.155417	0.089708
H257	H	0.879102	0.488750	0.423041
H258	H	1.212435	0.822083	0.756375
H259	H	0.413480	0.089025	0.147395
H260	H	0.746813	0.422358	0.480728
H261	H	1.080146	0.755691	0.814061
H262	H	0.994192	-0.094935	0.146020
H263	H	1.327526	0.238398	0.479353
H264	H	1.660859	0.571732	0.812686
H265	H	0.401699	0.155293	0.084080
H266	H	0.735032	0.488627	0.417414
H267	H	1.068365	0.821960	0.750747
H268	H	0.854310	0.117002	0.423494
H269	H	1.187643	0.450335	0.756828
H270	H	1.520976	0.783669	1.090161
H271	H	1.091147	0.133996	0.422469
H272	H	1.424480	0.467330	0.755803
H273	H	1.757814	0.800663	1.089136
H274	H	0.909170	0.005708	0.577257
H275	H	1.242504	0.339042	0.910590
H276	H	1.575837	0.672375	1.243924
H277	H	0.544590	0.156047	-0.087368
H278	H	0.877924	0.489380	0.245966
H279	H	1.211257	0.822714	0.579299
H280	H	0.905196	0.008737	0.424030
H281	H	1.238529	0.342071	0.757364
H282	H	1.571863	0.675404	1.090697
H283	H	1.022014	-0.016512	0.575598
H284	H	1.355347	0.316822	0.908932
H285	H	1.688681	0.650155	1.242265
H286	H	0.994261	-0.094914	-0.145865
H287	H	1.327594	0.238420	0.187468
H288	H	1.660928	0.571753	0.520802
H289	H	0.992330	-0.202668	-0.145884
H290	H	1.325664	0.130666	0.187450
H291	H	1.658997	0.463999	0.520783
H292	H	0.984492	-0.641442	0.145975
H293	H	1.317826	-0.308109	0.479308
H294	H	1.651159	0.025224	0.812641
H295	H	1.016692	-0.017738	0.422708
H296	H	1.350026	0.315595	0.756041
H297	H	1.683359	0.648929	1.089375
H298	H	0.434299	-0.010221	0.060833
H299	H	0.767632	0.323112	0.394166
H300	H	1.100965	0.656445	0.727499
H301	H	0.433252	-0.010111	-0.059691
H302	H	0.766585	0.323223	0.273642
H303	H	1.099919	0.656556	0.606975
H304	H	0.989277	-0.368184	0.226435
H305	H	1.322610	-0.034851	0.559768
H306	H	1.655943	0.298482	0.893101
H307	H	0.577380	-0.008516	-0.060444
H308	H	0.910714	0.324817	0.272889
H309	H	1.244047	0.658150	0.606223
H310	H	0.987388	-0.475942	0.226431
H311	H	1.320721	-0.142608	0.559765
H312	H	1.654054	0.190725	0.893098
H313	H	0.416138	0.085688	-0.147273
H314	H	0.749471	0.419021	0.186060
H315	H	1.082804	0.752355	0.519394
H316	H	0.992281	-0.202709	0.146017
H317	H	1.325614	0.130624	0.479350
H318	H	1.658947	0.463957	0.812684
