data_functionalizedCrystal
_audit_creation_method	'MofGen! by Chris Wilmer'
_symmetry_space_group_name_H-M	'P1'
_symmetry_Int_Tables_number	1
_symmetry_cell_setting	triclinic
loop_
_symmetry_equiv_pos_as_xyz
  x,y,z
_cell_length_a	21.295418
_cell_length_b	12.759400
_cell_length_c	12.759393
_cell_angle_alpha	90.031564
_cell_angle_beta	89.959121
_cell_angle_gamma	89.969501
loop_
_atom_site_label
_atom_site_type_symbol
_atom_site_fract_x
_atom_site_fract_y
_atom_site_fract_z
Zn1	Zn	0.962407	0.417761	-0.594609
Zn2	Zn	0.962344	0.593480	-0.418929
Zn3	Zn	0.857136	0.417864	-0.418880
Zn4	Zn	0.857129	0.593447	-0.594502
O5	O	0.909754	0.505638	-0.506730
O6	O	1.050488	0.441041	-0.571370
O7	O	0.948364	0.570241	-0.271901
O8	O	0.871129	0.270829	-0.442215
O9	O	1.050442	0.570141	-0.442299
O10	O	0.948472	0.270753	-0.571322
O11	O	0.871068	0.441216	-0.271865
O12	O	0.769045	0.441185	-0.442111
O13	O	0.871118	0.570085	-0.741537
O14	O	0.769040	0.570185	-0.571140
O15	O	0.948465	0.441009	-0.741616
O16	O	0.948358	0.740496	-0.442195
O17	O	0.871057	0.740472	-0.571188
C18	C	0.909717	0.778605	-0.506708
C19	C	0.909758	0.895382	-0.506734
C20	C	0.746202	0.505693	-0.506609
C21	C	0.676234	0.505742	-0.506582
C22	C	0.909798	0.505532	-0.780764
C23	C	0.909817	0.505486	-0.897540
C24	C	0.643381	0.573001	-0.573667
C25	C	0.577639	0.572975	-0.573714
C26	C	0.544752	0.505701	-0.506658
C27	C	0.577612	0.438429	-0.439568
C28	C	0.643354	0.438449	-0.439530
N29	N	0.441477	0.497506	-0.414766
N30	N	0.379026	0.497493	-0.414805
C31	C	0.346677	0.505634	-0.506769
N32	N	0.379139	0.513810	-0.598696
N33	N	0.441596	0.513828	-0.598656
C34	C	0.473466	0.505671	-0.506692
C35	C	0.242539	0.572869	-0.573911
C36	C	0.176795	0.572836	-0.573960
C37	C	0.176770	0.438295	-0.439804
C38	C	0.242512	0.438322	-0.439765
C39	C	0.275393	0.505615	-0.506817
C40	C	1.073944	0.505583	-0.506852
C41	C	1.143912	0.505560	-0.506904
C42	C	0.909809	0.231604	-0.506775
C43	C	0.909832	0.114828	-0.506794
C44	C	0.950053	0.950221	-0.439642
C45	C	0.950092	1.059945	-0.439674
C46	C	0.869535	1.059980	-0.573894
C47	C	0.869500	0.950258	-0.573866
C48	C	0.996561	0.950202	-0.362148
C49	C	0.996599	1.059926	-0.362180
C50	C	0.950097	0.438270	-0.952445
C51	C	0.950112	0.438232	-1.062169
C52	C	0.869565	0.572636	-1.062074
C53	C	0.869547	0.572668	-0.952352
C54	C	0.996603	0.360677	-0.952501
C55	C	0.996618	0.360639	-1.062225
C56	C	0.909746	0.505667	-0.233763
C57	C	0.909849	0.505417	-0.116987
H58	H	0.670149	0.627795	-0.628268
H59	H	0.150047	0.627604	-0.628595
H60	H	0.836744	0.627398	-0.907653
H61	H	1.042917	1.093849	-0.391422
H62	H	0.149994	0.383514	-0.385211
C63	C	0.278652	0.364340	-0.365956
N64	N	0.305872	0.308613	-0.310360
C65	C	0.541435	0.364427	-0.365806
N66	N	0.514186	0.308684	-0.310248
C67	C	0.679493	0.364461	-0.365723
N68	N	0.706714	0.308734	-0.310127
H69	H	1.042901	0.389824	-0.918495
H70	H	1.045299	0.920322	-0.384031
H71	H	0.836694	0.905609	-0.628507
C72	C	0.825249	1.120355	-0.647728
N73	N	0.791890	1.165828	-0.703339
H74	H	0.269312	0.627657	-0.628514
H75	H	0.983575	1.089794	-0.280791
H76	H	0.979110	0.916263	-0.284810
C77	C	0.825269	0.646530	-1.122377
N78	N	0.791905	0.702188	-1.167797
C79	C	0.973082	0.256192	-1.108212
N80	N	0.955362	0.177521	-1.142851
H81	H	1.045372	0.382409	-1.092035
C82	C	0.541494	0.646972	-0.647512
N83	N	0.514271	0.702708	-0.703096
C84	C	0.978977	0.250770	-0.912285
N85	N	0.965700	0.167991	-0.881995
