data_functionalizedCrystal
_audit_creation_method	'MofGen! by Chris Wilmer'
_symmetry_space_group_name_H-M	'P1'
_symmetry_Int_Tables_number	1
_symmetry_cell_setting	triclinic
loop_
_symmetry_equiv_pos_as_xyz
  x,y,z
_cell_length_a	17.038272
_cell_length_b	14.044220
_cell_length_c	13.101039
_cell_angle_alpha	93.667477
_cell_angle_beta	86.404528
_cell_angle_gamma	92.150217
loop_
_atom_site_label
_atom_site_type_symbol
_atom_site_fract_x
_atom_site_fract_y
_atom_site_fract_z
O1	O	1.055801	0.202095	-0.085089
O2	O	0.827941	0.198806	-0.085119
O3	O	0.938450	0.062191	-0.085095
O4	O	0.945292	0.338710	-0.085114
O5	O	0.930523	0.072010	0.085333
O6	O	0.820014	0.208625	0.085309
O7	O	1.047873	0.211914	0.085339
Zn8	Zn	0.932685	0.211829	0.112383
Zn9	Zn	0.943130	0.198891	-0.112163
O10	O	0.937364	0.348530	0.085314
C11	C	0.931492	0.031544	0.000119
C12	C	0.922561	-0.074402	0.000119
C13	C	0.794640	0.200726	0.000091
C14	C	0.707224	0.191806	0.000080
C15	C	0.906233	-0.268381	0.000103
C16	C	0.969578	-0.320905	0.000108
C17	C	0.960493	-0.428842	0.000098
C18	C	0.915317	-0.160434	0.000112
C19	C	0.662839	0.273694	0.000075
C20	C	0.580701	0.265309	0.000090
C21	C	0.542950	0.175034	0.000102
C22	C	0.587341	0.093140	0.000110
C23	C	0.669477	0.101527	0.000102
C24	C	0.295118	0.145406	0.000131
C25	C	0.212976	0.137025	0.000136
C26	C	0.206341	0.309195	0.000117
C27	C	0.288480	0.317573	0.000104
C28	C	0.332863	0.235680	0.000117
C29	C	0.458992	0.166461	0.000114
C30	C	0.416819	0.244254	0.000113
C31	C	1.081174	0.209994	0.000126
C32	C	1.168591	0.218913	0.000131
C33	C	0.944322	0.379176	0.000098
C34	C	0.953254	0.485121	0.000091
N35	N	0.925562	0.220658	0.265630
N36	N	0.950258	0.190055	-0.265410
C37	C	0.915872	0.232680	0.474670
C38	C	0.959946	0.178037	0.525556
C39	C	0.954554	0.184725	0.641873
C40	C	0.921263	0.225992	0.358342
H41	H	1.030636	-0.284815	0.000047
C42	C	0.859438	0.302667	0.533823
H43	H	0.863181	0.298044	0.605373
H44	H	0.807019	0.287177	0.516310
H45	H	0.873313	0.365969	0.516297
H46	H	0.693569	0.347205	0.000064
C47	C	0.823759	-0.317135	0.000100
H48	H	0.828396	-0.384335	0.000106
H49	H	0.798759	-0.302002	-0.059329
H50	H	0.793245	-0.295162	0.059543
C51	C	0.531881	0.355386	0.000081
H52	H	0.566128	0.410350	0.000060
H53	H	0.496945	0.359124	0.059516
H54	H	0.502458	0.352264	-0.059355
H55	H	1.001729	0.126232	0.481763
H56	H	0.319211	0.391084	0.000082
C57	C	0.157518	0.399270	0.000116
H58	H	0.103193	0.381350	0.000131
H59	H	0.172371	0.432594	-0.059318
H60	H	0.166860	0.439434	0.059554
H61	H	0.182242	0.063509	0.000145
H62	H	0.556597	0.019637	0.000135
C63	C	0.343930	0.055326	0.000139
H64	H	0.309681	0.000363	0.000136
H65	H	0.373351	0.058440	0.059570
H66	H	0.378867	0.051591	-0.059302
C67	C	0.718301	0.011450	0.000098
H68	H	0.684057	-0.043517	0.000095
H69	H	0.747726	0.014564	0.059525
H70	H	0.753236	0.007721	-0.059346
H71	H	0.447559	0.317756	0.000108
H72	H	0.428245	0.092960	0.000153
