data_functionalizedCrystal
_audit_creation_method	'MofGen! by Chris Wilmer'
_symmetry_space_group_name_H-M	'P1'
_symmetry_Int_Tables_number	1
_symmetry_cell_setting	triclinic
loop_
_symmetry_equiv_pos_as_xyz
  x,y,z
_cell_length_a	11.169417
_cell_length_b	29.839131
_cell_length_c	11.169409
_cell_angle_alpha	90.040119
_cell_angle_beta	90.019824
_cell_angle_gamma	90.042299
loop_
_atom_site_label
_atom_site_type_symbol
_atom_site_fract_x
_atom_site_fract_y
_atom_site_fract_z
Zn1	Zn	1.834703	-0.178806	0.678478
Zn2	Zn	1.834484	-0.253948	0.477767
Zn3	Zn	1.633989	-0.178834	0.477812
Zn4	Zn	1.633888	-0.253911	0.678412
O5	O	1.734266	-0.216375	0.578117
O6	O	2.002624	-0.188778	0.651862
O7	O	1.807838	-0.244011	0.309823
O8	O	1.660748	-0.115963	0.504477
O9	O	2.002462	-0.243984	0.504401
O10	O	1.808212	-0.115943	0.651905
O11	O	1.660536	-0.188825	0.309856
O12	O	1.466026	-0.188789	0.504413
O13	O	1.660576	-0.243922	0.846371
O14	O	1.465951	-0.243948	0.651794
O15	O	1.808114	-0.188742	0.846419
O16	O	1.807740	-0.316810	0.504337
O17	O	1.660363	-0.316783	0.651750
C18	C	1.422441	-0.216368	0.578102
C19	C	1.289041	-0.216376	0.578124
C20	C	1.734049	-0.333097	0.578058
C21	C	1.734066	-0.383032	0.578073
C22	C	1.811145	-0.692677	0.501472
C23	C	1.811293	-0.880350	0.501518
O24	O	1.876656	-0.904616	0.436344
N25	N	1.734515	-0.903817	0.578208
C26	C	1.657700	-0.880363	0.654897
O27	O	1.592407	-0.904630	0.720136
C28	C	1.657559	-0.692691	0.654856
C29	C	1.734333	-0.669226	0.578152
C30	C	1.887914	-0.669212	0.424776
C31	C	1.887871	-0.622296	0.424760
C32	C	1.811060	-0.598846	0.501441
C33	C	1.734291	-0.622311	0.578137
C34	C	1.580751	-0.669238	0.731550
C35	C	1.580724	-0.622317	0.731535
C36	C	1.657499	-0.598852	0.654831
C37	C	1.657437	-0.551945	0.654802
N38	N	1.734215	-0.528477	0.578112
C39	C	1.811026	-0.551928	0.501432
C40	C	1.657778	-0.978894	0.654912
C41	C	1.657811	-1.025811	0.654921
C42	C	1.811406	-1.025795	0.501543
C43	C	1.811366	-0.978876	0.501529
C44	C	1.734556	-0.955426	0.578222
C45	C	1.810931	-0.453402	0.501404
C46	C	1.810878	-0.406482	0.501392
C47	C	1.657288	-0.406503	0.654773
C48	C	1.657336	-0.453419	0.654782
C49	C	1.734167	-0.476867	0.578093
O50	O	1.592118	-0.527650	0.719952
O51	O	1.876328	-0.527653	0.436221
C52	C	1.811187	-0.739592	0.501487
C53	C	1.734418	-0.763057	0.578183
C54	C	1.657606	-0.739606	0.654864
C55	C	1.734451	-0.809975	0.578192
C56	C	1.811263	-0.833425	0.501512
C57	C	1.888041	-0.809958	0.424822
C58	C	1.887999	-0.763043	0.424807
C59	C	1.580828	-0.763074	0.731553
C60	C	1.580876	-0.809989	0.731562
C61	C	1.657688	-0.833440	0.654881
C62	C	2.047308	-0.216382	0.578134
C63	C	2.180708	-0.216385	0.578140
C64	C	1.734358	-0.216325	0.891160
C65	C	1.734397	-0.216304	1.024560
C66	C	1.734516	-0.099196	0.578203
C67	C	1.734623	-0.049262	0.578240
C68	C	1.734243	-0.216392	0.266293
C69	C	1.734436	-0.216287	0.132893
H70	H	1.873397	-0.387379	0.438927
H71	H	1.594823	-0.472525	0.717243
H72	H	1.518178	-0.603226	0.793991
O73	O	1.885597	-0.476106	0.426793
C74	C	1.953357	-0.445327	0.359124
H75	H	1.904162	-0.411904	0.354933
H76	H	2.044483	-0.440286	0.403147
C77	C	2.031156	-0.504712	0.236550
C78	C	1.970728	-0.463663	0.231393
H79	H	2.041877	-0.516023	0.157761
H80	H	1.985508	-0.525449	0.282142
H81	H	2.107088	-0.500505	0.273241
H82	H	1.894792	-0.467871	0.194717
H83	H	2.016364	-0.442927	0.185792
O84	O	1.506165	-0.832801	0.805906
C85	C	1.428716	-0.860004	0.737541
H86	H	1.421325	-0.845902	0.643000
H87	H	1.465856	-0.895549	0.733459
C88	C	1.313006	-0.878073	0.912204
C89	C	1.303921	-0.860750	0.796089
H90	H	1.236027	-0.878536	0.948321
H91	H	1.365187	-0.859747	0.958265
H92	H	1.343960	-0.907692	0.908786
H93	H	1.272981	-0.831130	0.799510
H94	H	1.251731	-0.879071	0.750031
H95	H	1.594745	-0.387402	0.717202
H96	H	1.950391	-0.603194	0.362305
H97	H	1.518280	-0.743984	0.793998
O98	O	1.962404	-0.692051	0.350290
C99	C	1.894198	-0.719248	0.272688
H100	H	1.803196	-0.726293	0.314879
H101	H	1.881111	-0.701217	0.183693
C102	C	2.072071	-0.755148	0.199322
C103	C	1.960304	-0.763803	0.251147
H104	H	2.112849	-0.782631	0.186029
H105	H	2.118024	-0.736824	0.251600
H106	H	2.061149	-0.740121	0.125165
H107	H	1.971228	-0.778825	0.325308
H108	H	1.914354	-0.782131	0.198880
H109	H	1.518227	-0.688335	0.794004
H110	H	1.873882	-0.959774	0.439071
H111	H	1.873949	-1.044896	0.439107
O112	O	1.583185	-1.048533	0.729534
C113	C	1.515368	-1.017768	0.797187
H114	H	1.564507	-0.984305	0.801368
H115	H	1.424236	-1.012825	0.753157
C116	C	1.437664	-1.077144	0.919780
C117	C	1.498022	-1.036044	0.924924
H118	H	1.426958	-1.088418	0.998573
H119	H	1.483349	-1.097871	0.874199
H120	H	1.361727	-1.073019	0.883084
H121	H	1.573963	-1.040171	0.961606
H122	H	1.452349	-1.015318	0.970515
O123	O	1.962641	-0.740202	0.350468
C124	C	2.040130	-0.713022	0.418852
H125	H	1.997749	-0.705976	0.509765
H126	H	2.129072	-0.731069	0.432127
C127	C	2.113927	-0.677123	0.241151
C128	C	2.061870	-0.668467	0.352808
H129	H	2.127343	-0.649640	0.200411
H130	H	2.061726	-0.695436	0.195078
H131	H	2.188040	-0.692163	0.252229
H132	H	1.987752	-0.653432	0.341727
H133	H	2.114060	-0.650150	0.398877
H134	H	1.595227	-0.959804	0.717366
H135	H	1.950580	-0.829060	0.362382
