data_functionalizedCrystal
_audit_creation_method	'MofGen! by Chris Wilmer'
_symmetry_space_group_name_H-M	'P1'
_symmetry_Int_Tables_number	1
_symmetry_cell_setting	triclinic
loop_
_symmetry_equiv_pos_as_xyz
  x,y,z
_cell_length_a	27.440280
_cell_length_b	27.440280
_cell_length_c	23.096457
_cell_angle_alpha	119.999294
_cell_angle_beta	89.980783
_cell_angle_gamma	59.999099
loop_
_atom_site_label
_atom_site_type_symbol
_atom_site_fract_x
_atom_site_fract_y
_atom_site_fract_z
Zr1	Zr	0.469463	0.533427	0.076014
O2	O	0.391618	0.635117	0.168495
O3	O	0.493330	0.431744	0.047650
O4	O	0.493297	0.533426	0.168461
O5	O	0.391674	0.533433	-0.047598
O6	O	0.573500	0.533417	0.168449
O7	O	0.391651	0.533435	0.047684
O8	O	0.573558	0.351527	-0.047660
O9	O	0.391615	0.715323	0.168510
O10	O	0.563359	0.473558	0.035560
O11	O	0.503522	0.473563	-0.035539
O12	O	0.503484	0.593280	0.106700
O13	O	0.443646	0.593286	0.035601
Zr14	Zr	0.597414	0.533408	-0.075970
Zr15	Zr	0.597377	0.533412	0.075995
Zr16	Zr	0.469499	0.533423	-0.075951
Zr17	Zr	0.469458	0.661346	0.076038
Zr18	Zr	0.597418	0.405489	-0.075994
O19	O	0.573547	0.635090	-0.047606
O20	O	0.573496	0.635095	0.168468
O21	O	0.391670	0.635112	-0.047579
O22	O	0.675258	0.431718	-0.168451
O23	O	0.675207	0.431723	0.047623
O24	O	0.493381	0.431740	-0.168424
O25	O	0.675203	0.533402	0.047642
O26	O	0.573580	0.533409	-0.168417
O27	O	0.493377	0.533418	-0.168405
O28	O	0.675226	0.533400	-0.047641
O29	O	0.493290	0.715311	0.168495
O30	O	0.573587	0.351524	-0.168451
O31	O	0.675261	0.351512	-0.168467
O32	O	0.675233	0.351515	-0.047675
O33	O	0.391644	0.715320	0.047719
O34	O	0.493319	0.715308	0.047704
O35	O	0.563393	0.473555	-0.106656
O36	O	0.623231	0.473549	-0.035557
O37	O	0.563355	0.593272	0.035583
O38	O	0.503517	0.593277	-0.035517
C39	C	0.533444	0.373410	-0.000009
C40	C	0.533446	0.319105	-0.000019
C41	C	0.373437	0.533436	0.000046
C42	C	0.319134	0.533443	0.000054
C43	C	0.489239	0.026613	0.052549
C44	C	0.489239	-0.024404	0.052557
O45	O	0.451662	-0.013206	0.097228
N46	N	0.533436	-0.094115	0.000050
C47	C	0.577641	-0.112808	-0.052464
O48	O	0.615235	-0.176787	-0.097124
C49	C	0.577643	-0.061792	-0.052468
C50	C	0.533439	0.007919	0.000038
C51	C	0.445039	0.096320	0.105052
C52	C	0.445039	0.147333	0.105043
C53	C	0.489239	0.128640	0.052532
C54	C	0.533439	0.058932	0.000030
C55	C	0.621850	-0.080486	-0.104978
C56	C	0.621848	-0.029462	-0.104977
C57	C	0.577644	0.040249	-0.052471
C58	C	0.577639	0.091252	-0.052489
N59	N	0.533441	0.160962	0.000018
C60	C	0.489241	0.179656	0.052529
C61	C	0.577633	-0.219943	-0.052451
C62	C	0.577629	-0.270960	-0.052451
C63	C	0.489227	-0.182552	0.052571
C64	C	0.489229	-0.131535	0.052567
C65	C	0.533435	-0.150233	0.000056
C66	C	0.489244	0.286785	0.052507
C67	C	0.489246	0.337799	0.052492
C68	C	0.577650	0.249387	-0.052527
C69	C	0.577646	0.198377	-0.052515
C70	C	0.533440	0.217081	0.000008
O71	O	0.615198	0.080106	-0.097136
O72	O	0.451658	0.243635	0.097187
C73	C	0.013691	0.470912	-0.037132
C74	C	-0.037327	0.470908	-0.037138
O75	O	-0.037134	0.417760	-0.068741
N76	N	-0.094099	0.533402	-0.000003
C77	C	-0.099851	0.595903	0.037134
O78	O	-0.152824	0.649057	0.068720
C79	C	-0.048833	0.595906	0.037136
C80	C	0.007938	0.533408	0.000005
C81	C	0.070459	0.408420	-0.074261
C82	C	0.121474	0.408424	-0.074254
C83	C	0.115721	0.470920	-0.037117
C84	C	0.058953	0.533412	0.000012
C85	C	-0.054586	0.658406	0.074269
C86	C	-0.003562	0.658404	0.074267
C87	C	0.053209	0.595906	0.037136
C88	C	0.104214	0.595913	0.037156
N89	N	0.160985	0.533420	0.000021
C90	C	0.166739	0.470923	-0.037115
C91	C	-0.206989	0.595891	0.037127
C92	C	-0.258007	0.595889	0.037130
C93	C	-0.195480	0.470895	-0.037144
C94	C	-0.144462	0.470898	-0.037142
C95	C	-0.150218	0.533398	-0.000008
C96	C	0.273871	0.470937	-0.037096
C97	C	0.324888	0.470946	-0.037083
C98	C	0.262356	0.595940	0.037188
C99	C	0.211344	0.595931	0.037178
C100	C	0.217105	0.533424	0.000031
O101	O	0.104067	0.649034	0.068741
O102	O	0.219714	0.417777	-0.068703
C103	C	0.693440	0.533399	-0.000002
C104	C	0.747742	0.533392	-0.000010
C105	C	0.533393	0.533422	0.190106
C106	C	0.533378	0.533423	0.254619
C107	C	0.533432	0.693425	0.000052
C108	C	0.533430	0.747730	0.000062
C109	C	0.502125	0.595915	0.322057
C110	C	0.502138	0.595917	0.382674
C111	C	0.533396	0.533423	0.375848
C112	C	0.564655	0.470922	0.308398
C113	C	0.564646	0.470922	0.247784
N114	N	0.529083	0.486909	0.443396
N115	N	0.529089	0.486913	0.500980
C116	C	0.533426	0.533418	0.558475
N117	N	0.537746	0.579930	0.556216
N118	N	0.537737	0.579928	0.498628
C119	C	0.533409	0.533415	0.441571
C120	C	0.502185	0.595916	0.691643
C121	C	0.502203	0.595915	0.752259
C122	C	0.564716	0.470918	0.677982
C123	C	0.564703	0.470921	0.617367
C124	C	0.533434	0.533422	0.624203
C125	C	0.533474	0.533415	0.809939
C126	C	0.533461	0.533420	0.745429
C127	C	0.693446	0.373391	-0.000032
C128	C	0.747751	0.319080	-0.000051
C129	C	0.533490	0.373406	-0.190093
C130	C	0.533507	0.319099	-0.254616
C131	C	0.693491	0.373387	-0.190117
C132	C	0.747811	0.319074	-0.254648
C133	C	0.373386	0.693448	0.190160
C134	C	0.319066	0.747761	0.254692
C135	C	0.373431	0.693444	0.000076
C136	C	0.319126	0.747755	0.000094
C137	C	0.533387	0.693429	0.190137
C138	C	0.533370	0.747736	0.254660
C139	C	0.742001	0.293579	0.037069
C140	C	0.793021	0.242555	0.037066
C141	C	0.849791	0.217028	-0.000061
C142	C	0.855540	0.242534	-0.037183
C143	C	0.804520	0.293561	-0.037175
C144	C	0.564767	0.293592	-0.322046
C145	C	0.564781	0.242572	-0.382678
C146	C	0.533538	0.217057	-0.375879
C147	C	0.502274	0.242570	-0.308442
C148	C	0.502257	0.293592	-0.247812
C149	C	0.804560	0.293565	-0.247840
C150	C	0.855605	0.242539	-0.308468
C151	C	0.849899	0.217020	-0.375904
C152	C	0.793144	0.242534	-0.382711
C153	C	0.742100	0.293562	-0.322084
C154	C	0.262316	0.773276	0.247883
C155	C	0.211272	0.824317	0.308511
C156	C	0.216978	0.849840	0.375948
C157	C	0.273733	0.824322	0.382755
C158	C	0.324776	0.773285	0.322127
C159	C	0.324876	0.773261	-0.037019
C160	C	0.273856	0.824300	-0.037000
C161	C	0.217086	0.849828	0.000130
C162	C	0.211337	0.824319	0.037249
C163	C	0.262357	0.773285	0.037233
C164	C	0.564619	0.773234	0.247838
C165	C	0.564614	0.824254	0.308459
C166	C	0.533357	0.849778	0.375900
C167	C	0.502106	0.824275	0.382721
C168	C	0.502115	0.773252	0.322101
H169	H	0.453246	0.394562	0.095248
H170	H	0.278548	0.845060	-0.067229
H171	H	0.788328	0.221794	0.067295
Cl172	Cl	0.603921	0.741157	0.163062
Cl173	Cl	0.463001	0.210485	-0.299907
H174	H	0.476803	0.314353	-0.192910
H175	H	0.175547	0.891383	0.000138
H176	H	0.370983	0.752512	0.327679
Cl177	Cl	0.811759	0.325608	-0.083851
H178	H	0.695780	0.314362	0.067312
Cl179	Cl	0.604019	0.392353	0.669394
H180	H	0.891330	0.175478	-0.000063
H181	H	0.809218	0.314336	-0.192935
Cl182	Cl	0.139974	0.674500	0.083872
H183	H	0.476665	0.752497	0.327665
H184	H	0.695894	0.314325	-0.327637
H185	H	0.257659	0.752499	0.192979
H186	H	0.371097	0.752480	-0.067260
H187	H	0.476667	0.646808	0.327629
H188	H	0.533354	0.891324	0.425255
Cl189	Cl	0.677427	-0.052974	-0.170994
Cl190	Cl	0.603899	0.856310	0.299869
H191	H	0.613619	-0.327718	-0.095213
Cl192	Cl	0.926947	0.210473	-0.299894
H193	H	0.476657	0.845064	0.437640
H194	H	0.453248	0.302024	0.095277
Cl195	Cl	0.604051	0.325655	-0.330612
Cl196	Cl	-0.214235	0.674472	0.083822
Cl197	Cl	0.139965	0.856416	0.083920
H198	H	0.590242	0.221806	-0.437582
Cl199	Cl	0.139930	0.856383	0.299938
H200	H	0.901768	0.221743	-0.067411
Cl201	Cl	0.152802	0.914000	0.452159
H202	H	0.476687	0.646807	0.437592
H203	H	0.533557	0.175512	-0.425254
Cl204	Cl	-0.073097	0.392327	-0.083825
H205	H	0.476725	0.646808	0.697209
Cl206	Cl	0.389466	0.234965	0.171057
Cl207	Cl	0.914074	0.152868	-0.452116
Cl208	Cl	0.280896	0.856412	0.467537
Cl209	Cl	0.255118	0.741222	0.083890
Cl210	Cl	0.389464	0.119838	0.171073
Cl211	Cl	0.433658	-0.043902	0.118578
H212	H	0.453239	-0.167338	0.095330
H213	H	0.613630	-0.235178	-0.095218
Cl214	Cl	0.677424	-0.168113	-0.170991
Cl215	Cl	0.785980	0.210444	-0.467493
H216	H	0.613635	0.141614	-0.095276
H217	H	0.613635	0.234177	-0.095282
Cl218	Cl	0.462913	0.674484	0.837044
H219	H	0.371113	0.420051	-0.067322
H220	H	0.167696	0.357532	-0.104487
Cl221	Cl	0.281122	0.392355	-0.083794
H222	H	0.590106	0.420039	0.302845
Cl223	Cl	-0.188256	0.392327	-0.083832
Cl224	Cl	-0.329371	0.674460	0.083822
Cl225	Cl	-0.125945	0.736979	0.120945
Cl226	Cl	0.077707	0.329842	-0.120955
Cl227	Cl	-0.010804	0.736981	0.120953
Cl228	Cl	0.603935	0.392354	0.162998
Cl229	Cl	0.255135	0.674503	0.083860
H230	H	0.590149	0.420033	0.562455
