data_functionalizedCrystal
_audit_creation_method	'MofGen! by Chris Wilmer'
_symmetry_space_group_name_H-M	'P1'
_symmetry_Int_Tables_number	1
_symmetry_cell_setting	triclinic
loop_
_symmetry_equiv_pos_as_xyz
  x,y,z
_cell_length_a	11.026607
_cell_length_b	23.532407
_cell_length_c	9.482900
_cell_angle_alpha	99.270833
_cell_angle_beta	78.636152
_cell_angle_gamma	95.717347
loop_
_atom_site_label
_atom_site_type_symbol
_atom_site_fract_x
_atom_site_fract_y
_atom_site_fract_z
O1	O	1.626299	0.231212	-0.120952
O2	O	1.273319	0.204090	-0.120948
O3	O	1.460449	0.135841	-0.120924
O4	O	1.439169	0.299462	-0.120976
O5	O	1.422438	0.149775	0.120864
O6	O	1.235308	0.218025	0.120840
O7	O	1.588288	0.245146	0.120835
Cu8	Cu	1.408327	0.232858	0.142915
Cu9	Cu	1.453280	0.216379	-0.143027
O10	O	1.401158	0.313396	0.120811
C11	C	1.209163	0.206054	-0.000053
C12	C	1.074628	0.191139	-0.000050
C13	C	1.000328	0.232323	-0.000064
C14	C	0.861279	0.216908	-0.000061
C15	C	1.440901	0.121535	-0.000026
C16	C	1.439269	0.058147	-0.000015
C17	C	1.539801	-0.330388	-0.000096
C18	C	1.538288	-0.389948	-0.000107
O19	O	1.631479	-0.416896	-0.000162
N20	N	1.427037	-0.424275	-0.000104
C21	C	1.317293	-0.399040	-0.000106
O22	O	1.222527	-0.433707	-0.000106
C23	C	1.318809	-0.339482	-0.000105
C24	C	1.430065	-0.305157	-0.000093
C25	C	1.651048	-0.296064	-0.000085
C26	C	1.652560	-0.236507	-0.000072
C27	C	1.542824	-0.211276	-0.000068
C28	C	1.431576	-0.245601	-0.000079
C29	C	1.209068	-0.314249	-0.000117
C30	C	1.210593	-0.254686	-0.000117
C31	C	1.321849	-0.220361	-0.000105
C32	C	1.323351	-0.160813	-0.000062
N33	N	1.434603	-0.126486	-0.000065
C34	C	1.544339	-0.151718	-0.000068
C35	C	1.314120	-0.524117	-0.000109
C36	C	1.312602	-0.583674	-0.000100
C37	C	1.533598	-0.574578	-0.000104
C38	C	1.535113	-0.515019	-0.000103
C39	C	1.425371	-0.489790	-0.000112
C40	C	1.547504	-0.026646	-0.000038
C41	C	1.549005	0.032916	-0.000018
C42	C	1.328011	0.023814	-0.000022
C43	C	1.326508	-0.035742	-0.000034
C44	C	1.436266	-0.060970	-0.000047
O45	O	1.230210	-0.133827	-0.000013
O46	O	1.639093	-0.117045	-0.000087
C47	C	1.652445	0.243183	-0.000063
C48	C	1.786981	0.258098	-0.000075
C49	C	1.420707	0.327702	-0.000090
C50	C	1.422340	0.391089	-0.000110
N51	N	1.376719	0.244449	0.344031
N52	N	1.484898	0.204785	-0.344143
C53	C	1.443948	0.219794	0.416239
C54	C	1.417658	0.229443	0.583653
H55	H	0.826303	0.304773	-0.000081
H56	H	1.035303	0.144465	-0.000072
C57	C	1.272665	0.282616	0.427937
C58	C	1.137857	0.266463	0.407188
C59	C	1.033800	0.304631	0.491090
C60	C	1.064552	0.358952	0.595740
C61	C	1.199366	0.375108	0.616493
C62	C	1.303422	0.336940	0.532592
H63	H	1.115087	0.226249	0.329716
H64	H	0.934002	0.292671	0.475726
H65	H	0.987523	0.387207	0.657849
H66	H	1.222136	0.415322	0.693966
H67	H	1.403221	0.348900	0.547955
H68	H	1.639606	0.060862	-0.000004
H69	H	1.561919	0.176529	0.593742
H70	H	1.224747	-0.503579	-0.000104
H71	H	1.636880	-0.047179	-0.000054
H72	H	1.743157	-0.208565	-0.000068
H73	H	1.520965	0.191540	0.354121
H74	H	1.740415	-0.316600	-0.000093
C75	C	1.657497	-0.477265	-0.000102
C76	C	1.728708	-0.474478	0.125451
C77	C	1.851098	-0.436727	0.125448
C78	C	1.902278	-0.401764	-0.000108
C79	C	1.831066	-0.404549	-0.125671
C80	C	1.708676	-0.442300	-0.125668
H81	H	1.690822	-0.500361	0.218403
H82	H	1.903813	-0.434665	0.218398
H83	H	1.992878	-0.373818	-0.000110
H84	H	1.868952	-0.378666	-0.218623
H85	H	1.655961	-0.444362	-0.218618
H86	H	1.039658	0.278994	-0.000071
H87	H	1.238666	0.044369	-0.000014
H88	H	0.821959	0.170231	-0.000083
C89	C	1.089871	-0.226934	-0.000122
C90	C	1.018250	-0.246103	-0.125682
C91	C	0.897530	-0.218352	-0.125683
C92	C	0.848431	-0.171432	-0.000126
C93	C	0.920053	-0.152260	0.125443
C94	C	1.040773	-0.180011	0.125445
H95	H	1.054595	-0.280838	-0.218636
H96	H	0.844510	-0.232544	-0.218638
H97	H	0.759067	-0.150889	-0.000127
H98	H	0.883708	-0.117524	0.218397
H99	H	1.093792	-0.165819	0.218400
H100	H	1.622952	-0.595132	-0.000112
H101	H	1.222002	-0.611615	-0.000084
H102	H	1.118472	-0.342187	-0.000135
H103	H	1.235908	-0.063688	-0.000003
H104	H	1.340628	0.257694	0.645767
