data_functionalizedCrystal
_audit_creation_method	'MofGen! by Chris Wilmer'
_symmetry_space_group_name_H-M	'P1'
_symmetry_Int_Tables_number	1
_symmetry_cell_setting	triclinic
loop_
_symmetry_equiv_pos_as_xyz
  x,y,z
_cell_length_a	9.065215
_cell_length_b	14.472310
_cell_length_c	9.065218
_cell_angle_alpha	89.991628
_cell_angle_beta	94.984675
_cell_angle_gamma	90.012541
loop_
_atom_site_label
_atom_site_type_symbol
_atom_site_fract_x
_atom_site_fract_y
_atom_site_fract_z
O1	O	1.960423	0.076848	-0.216327
O2	O	1.531138	0.076854	-0.234078
O3	O	1.754654	0.076827	-0.010560
O4	O	1.736908	0.076875	-0.439845
O5	O	1.754596	-0.076855	-0.010572
O6	O	1.531080	-0.076828	-0.234090
O7	O	1.960365	-0.076834	-0.216339
Cu8	Cu	1.745717	-0.090864	-0.225216
Cu9	Cu	1.745786	0.090883	-0.225201
O10	O	1.736849	-0.076807	-0.439857
C11	C	1.476122	0.000013	-0.232379
C12	C	1.312279	0.000014	-0.227281
N13	N	1.745680	-0.218694	-0.225225
C14	C	1.745784	-0.592786	-0.225195
C15	C	1.625773	-0.553606	-0.344383
C16	C	1.626059	-0.446518	-0.344827
C17	C	1.745731	-0.407195	-0.225210
C18	C	1.900141	-0.446029	-0.260893
C19	C	1.899469	-0.553151	-0.261743
C20	C	1.712754	-0.553332	-0.069984
C21	C	1.709236	-0.446204	-0.070969
C22	C	1.745711	-0.302306	-0.225216
C23	C	1.745814	-0.697674	-0.225193
C24	C	2.015381	0.000009	-0.218038
C25	C	2.179224	0.000014	-0.223136
C26	C	1.752919	-0.000018	0.044421
C27	C	1.747819	-0.000030	0.208264
N28	N	1.745835	0.218714	-0.225180
C29	C	1.738584	0.000014	0.505163
C30	C	1.743683	-0.000044	0.341320
H31	H	1.511350	-0.420263	-0.323264
H32	H	1.991664	-0.420556	-0.176478
C33	C	1.654199	-0.589901	-0.499058
H34	H	1.581209	-0.565894	-0.570410
H35	H	1.749568	-0.570727	-0.522684
H36	H	1.649342	-0.655475	-0.499509
C37	C	1.939898	-0.409768	-0.412168
H38	H	1.862609	-0.370974	-0.453776
H39	H	2.029517	-0.375532	-0.399461
H40	H	1.952062	-0.460437	-0.476610
C41	C	1.563766	-0.589861	-0.024351
H42	H	1.520310	-0.629520	-0.099541
H43	H	1.579794	-0.623233	0.065857
H44	H	1.499260	-0.539359	-0.011256
C45	C	1.470314	-0.588453	-0.315715
H46	H	1.477201	-0.627214	-0.230807
H47	H	1.408276	-0.537219	-0.299468
H48	H	1.429566	-0.622448	-0.399184
H49	H	1.647366	-0.420871	-0.459964
C50	C	1.938345	-0.586879	-0.414744
H51	H	1.954392	-0.535114	-0.475798
H52	H	2.025635	-0.623419	-0.403478
H53	H	1.858964	-0.622899	-0.459364
H54	H	1.991671	-0.579067	-0.178465
C55	C	1.830928	-0.587566	0.049880
H56	H	1.810385	-0.563494	0.143415
H57	H	1.829436	-0.653161	0.053260
H58	H	1.925875	-0.567149	0.026913
H59	H	1.595640	-0.420824	-0.043937
H60	H	1.790811	-0.419441	0.022040
