data_functionalizedCrystal
_audit_creation_method	'MofGen! by Chris Wilmer'
_symmetry_space_group_name_H-M	'P1'
_symmetry_Int_Tables_number	1
_symmetry_cell_setting	triclinic
loop_
_symmetry_equiv_pos_as_xyz
  x,y,z
_cell_length_a	16.992695
_cell_length_b	17.699083
_cell_length_c	16.176319
_cell_angle_alpha	90.000050
_cell_angle_beta	90.003592
_cell_angle_gamma	93.024381
loop_
_atom_site_label
_atom_site_type_symbol
_atom_site_fract_x
_atom_site_fract_y
_atom_site_fract_z
O1	O	0.099142	-1.010250	0.068631
O2	O	0.112041	-0.790675	0.068658
O3	O	-0.008549	-0.899582	0.068638
O4	O	0.219733	-0.901343	0.068651
O5	O	-0.008550	-0.899569	-0.068855
O6	O	0.112041	-0.790661	-0.068835
O7	O	0.099142	-1.010237	-0.068862
Cu8	Cu	0.105591	-0.900448	-0.081403
Cu9	Cu	0.105592	-0.900464	0.081199
O10	O	0.219732	-0.901329	-0.068842
C11	C	0.111579	-0.762442	-0.000085
C12	C	0.110192	-0.678338	-0.000075
C13	C	-0.037758	-0.897311	-0.000108
C14	C	-0.124789	-0.890554	-0.000107
N15	N	0.105590	-0.900442	-0.195768
C16	C	-0.175154	-0.955751	-0.000116
C17	C	-0.256928	-0.949398	-0.000107
C18	C	-0.288336	-0.877846	-0.000096
C19	C	-0.237965	-0.812643	-0.000084
C20	C	-0.156192	-0.818998	-0.000087
C21	C	-0.531884	-0.851510	-0.000081
C22	C	-0.613663	-0.845160	-0.000081
C23	C	-0.632621	-0.981915	-0.000102
C24	C	-0.550845	-0.988263	-0.000110
C25	C	-0.500481	-0.923061	-0.000094
N26	N	-0.371923	-0.871350	-0.000090
N27	N	-0.416897	-0.929558	-0.000095
C28	C	0.248941	-0.903601	-0.000094
C29	C	0.335972	-0.910358	-0.000090
C30	C	0.099604	-1.038469	-0.000117
C31	C	0.100991	-1.122574	-0.000122
C32	C	0.180976	-0.634124	-0.000071
C33	C	0.179669	-0.555099	-0.000082
C34	C	0.107576	-0.520290	-0.000091
C35	C	0.036787	-0.564510	-0.000097
C36	C	0.038095	-0.643533	-0.000092
C37	C	0.031509	-0.245818	-0.000118
C38	C	0.030206	-0.166789	-0.000120
C39	C	0.173082	-0.157384	-0.000108
C40	C	0.174391	-0.236408	-0.000103
C41	C	0.103602	-0.280621	-0.000113
C42	C	0.105020	-0.366308	-0.000103
C43	C	0.106157	-0.434604	-0.000095
C44	C	0.153083	-0.949214	-0.239032
C45	C	0.153080	-0.949222	-0.325579
C46	C	0.105588	-0.900453	-0.368861
C47	C	0.058090	-0.851679	-0.325591
C48	C	0.058089	-0.851676	-0.239045
C49	C	0.058091	-0.851693	-0.674619
C50	C	0.058097	-0.851699	-0.761171
C51	C	0.153082	-0.949239	-0.761153
C52	C	0.153081	-0.949236	-0.674607
C53	C	0.105580	-0.900465	-0.631345
C54	C	0.105583	-0.900458	-0.537501
C55	C	0.105589	-0.900456	-0.462703
N56	N	0.105586	-0.900475	0.195564
H57	H	-0.297933	-1.002489	-0.000117
H58	H	-0.525279	-1.046529	-0.000120
O59	O	-0.033265	-0.530735	-0.000250
C60	C	-0.076416	-0.552923	-0.071450
H61	H	-0.034257	-0.571893	-0.121220
H62	H	-0.109684	-0.503090	-0.095353
H63	H	-0.120199	-0.601728	-0.055352
H64	H	0.239682	-0.662460	-0.000064
O65	O	0.011839	-0.804407	-0.803180
C66	C	-0.067768	-0.820559	-0.782030
H67	H	-0.075424	-0.881127	-0.758234
H68	H	-0.106329	-0.813827	-0.838953
H69	H	-0.085925	-0.779784	-0.731801
O70	O	0.012069	-0.804259	-0.196926
C71	C	0.059942	-0.755496	-0.146878
H72	H	0.118084	-0.782561	-0.133906
H73	H	0.028433	-0.745160	-0.086022
H74	H	0.072017	-0.699337	-0.180233
O75	O	-0.681512	-1.045271	-0.000255
C76	C	-0.667289	-1.088426	-0.071457
H77	H	-0.639270	-1.050162	-0.121227
H78	H	-0.725369	-1.115264	-0.095358
H79	H	-0.625731	-1.134748	-0.055363
H80	H	0.191758	-0.988953	-0.796387
H81	H	0.019417	-0.811975	-0.360838
O82	O	-0.037203	-0.288837	-0.000007
C83	C	-0.040733	-0.334811	0.071214
H84	H	0.021489	-0.342572	0.094956
H85	H	-0.070059	-0.392369	0.055203
H86	H	-0.076484	-0.306670	0.121076
H87	H	0.233096	-0.264745	-0.000092
H88	H	-0.149588	-1.014017	-0.000131
O89	O	-0.644044	-0.775592	-0.000024
C90	C	-0.582057	-0.719404	-0.000028
H91	H	-0.526542	-0.743981	0.025995
H92	H	-0.599056	-0.669758	0.039905
H93	H	-0.570450	-0.699039	-0.065984
H94	H	0.019412	-0.811982	-0.639406
O95	O	-0.482938	-0.788195	0.000075
C96	C	-0.435054	-0.787788	0.071275
H97	H	-0.465070	-0.824684	0.121040
H98	H	-0.425749	-0.727387	0.095185
H99	H	-0.375624	-0.810964	0.055174
O100	O	0.199099	-0.996680	-0.367639
C101	C	0.151229	-1.045425	-0.417711
H102	H	0.088831	-1.049778	-0.391635
H103	H	0.176212	-1.103944	-0.418680
H104	H	0.149937	-1.021970	-0.483307
H105	H	-0.263544	-0.754384	-0.000070
H106	H	0.237308	-0.519103	-0.000078
H107	H	-0.028504	-0.138450	-0.000128
O108	O	-0.107344	-0.755610	0.000031
C109	C	-0.121542	-0.712480	0.071257
H110	H	-0.183609	-0.727311	0.094994
H111	H	-0.115665	-0.649709	0.055254
H112	H	-0.076832	-0.725544	0.121119
O113	O	-0.030592	-0.686597	-0.000129
C114	C	-0.013980	-0.763809	-0.000104
H115	H	0.047596	-0.770559	-0.026128
H116	H	-0.059106	-0.796848	-0.040024
H117	H	-0.016996	-0.786455	0.065859
O118	O	0.199240	-0.996659	-0.197120
C119	C	0.241171	-1.039694	-0.253869
H120	H	0.208709	-1.042151	-0.315563
H121	H	0.245958	-1.099495	-0.228861
H122	H	0.302753	-1.012238	-0.263071
O123	O	0.199236	-0.996681	-0.632692
C124	C	0.241169	-1.039719	-0.689438
H125	H	0.208709	-1.042176	-0.751134
H126	H	0.245952	-1.099520	-0.664428
H127	H	0.302751	-1.012264	-0.698637
H128	H	0.230722	-0.121377	-0.000103
