data_functionalizedCrystal
_audit_creation_method	'MofGen! by Chris Wilmer'
_symmetry_space_group_name_H-M	'P1'
_symmetry_Int_Tables_number	1
_symmetry_cell_setting	triclinic
loop_
_symmetry_equiv_pos_as_xyz
  x,y,z
_cell_length_a	14.853567
_cell_length_b	13.448316
_cell_length_c	14.971486
_cell_angle_alpha	89.993189
_cell_angle_beta	83.624530
_cell_angle_gamma	89.996214
loop_
_atom_site_label
_atom_site_type_symbol
_atom_site_fract_x
_atom_site_fract_y
_atom_site_fract_z
O1	O	1.196346	-0.082624	0.116782
O2	O	0.933884	-0.082641	0.130693
O3	O	1.072150	-0.082625	-0.006462
O4	O	1.058080	-0.082640	0.253936
O5	O	1.072132	0.082759	-0.006470
O6	O	0.933867	0.082743	0.130684
O7	O	1.196329	0.082760	0.116773
Cu8	Cu	1.065096	0.097852	0.123728
Cu9	Cu	1.065117	-0.097733	0.123738
O10	O	1.058063	0.082744	0.253928
C11	C	0.900287	0.000049	0.130058
C12	C	0.800203	0.000043	0.128169
N13	N	1.065088	0.235417	0.123720
N14	N	1.065132	-0.235297	0.123738
C15	C	0.387686	0.000070	0.038712
C16	C	0.366375	0.000060	0.201655
C17	C	0.460408	0.000056	0.203431
C18	C	0.518085	0.000058	0.122846
C19	C	0.481728	0.000064	0.040486
C20	C	0.496772	0.000041	0.285790
C21	C	0.590811	0.000036	0.287569
C22	C	0.648490	0.000046	0.206984
C23	C	0.612127	0.000052	0.124620
C24	C	0.669804	0.000054	0.044035
C25	C	0.633444	0.000068	-0.038330
C26	C	0.539407	0.000073	-0.040100
C27	C	0.742527	0.000040	0.208754
C28	C	0.763847	0.000048	0.045809
C29	C	1.229926	0.000068	0.117408
C30	C	1.330009	0.000068	0.119297
C31	C	1.071512	0.000067	-0.039791
C32	C	1.069626	0.000066	-0.139088
C33	C	1.126331	0.287464	0.063013
C34	C	1.126337	0.391567	0.063013
C35	C	1.065103	0.443621	0.123724
C36	C	1.003853	0.391566	0.184434
C37	C	1.003844	0.287465	0.184430
C38	C	1.003878	0.608547	0.184440
C39	C	1.003888	0.712655	0.184445
C40	C	1.126371	0.712649	0.063023
C41	C	1.126362	0.608547	0.063019
C42	C	1.065113	0.556500	0.123730
C43	C	1.150854	0.000072	-0.196299
C44	C	1.149076	0.000062	-0.289598
C45	C	1.066071	0.000053	-0.325686
C46	C	0.984838	0.000044	-0.268468
C47	C	0.986616	0.000047	-0.175170
C48	C	0.981137	0.000040	-0.462931
C49	C	0.979359	0.000039	-0.556235
C50	C	1.143598	0.000055	-0.577360
C51	C	1.145376	0.000058	-0.484062
C52	C	1.064142	0.000051	-0.426850
C53	C	1.058701	0.000050	0.287257
C54	C	1.060586	0.000045	0.386554
H55	H	0.810802	0.000053	-0.019814
H56	H	0.914988	0.000031	-0.416351
C57	C	1.313017	0.000070	-0.226560
C58	C	1.242097	0.000075	-0.156636
H59	H	1.369347	0.000062	-0.202074
H60	H	1.308905	0.057740	-0.262513
H61	H	1.308901	-0.057607	-0.262505
H62	H	1.246209	0.057756	-0.120695
H63	H	1.246211	-0.057601	-0.120668
H64	H	1.215220	0.000069	-0.336176
H65	H	0.953973	0.245089	0.233862
C66	C	0.882817	0.619004	0.304474
C67	C	0.936558	0.551334	0.251179
H68	H	0.841265	0.583681	0.345681
H69	H	0.850352	0.659616	0.267186
H70	H	0.920391	0.659599	0.336713
H71	H	0.898984	0.510744	0.218935
H72	H	0.969025	0.510705	0.288472
H73	H	0.920472	0.000042	-0.128589
H74	H	1.176205	0.433944	0.013580
C75	C	0.835913	0.085039	0.305274
C76	C	0.782497	0.000025	0.299279
H77	H	0.860591	0.085026	0.361162
H78	H	0.799667	0.142702	0.301200
H79	H	0.883718	0.085034	0.257531
H80	H	0.734687	0.000034	0.347018
H81	H	0.818745	-0.057652	0.303361
H82	H	0.319409	0.000049	0.267263
H83	H	1.212967	0.000072	-0.454683
H84	H	0.449806	0.000029	0.351397
C85	C	1.247428	0.618992	-0.057007
C86	C	1.193670	0.551327	-0.003716
H87	H	1.288976	0.583664	-0.098211
H88	H	1.279899	0.659579	-0.019716
H89	H	1.209866	0.659612	-0.089248
H90	H	1.231231	0.510712	0.028530
H91	H	1.161197	0.510723	-0.041012
C92	C	0.560289	0.000037	0.448456
C93	C	0.630774	0.000035	0.378102
H94	H	0.584964	0.000045	0.504346
H95	H	0.524062	-0.057634	0.444382
H96	H	0.524049	0.057712	0.444362
H97	H	0.667010	-0.057645	0.382192
H98	H	0.667017	0.057712	0.382178
H99	H	1.176198	0.245089	0.013579
H100	H	0.509793	0.000108	-0.107157
C101	C	1.236905	-0.084976	-0.694509
C102	C	1.232897	0.000050	-0.640238
H103	H	1.292035	-0.084978	-0.733324
H104	H	1.187226	-0.084977	-0.729354
H105	H	1.234187	-0.142637	-0.657652
H106	H	1.235608	0.057711	-0.677096
H107	H	1.282590	0.000060	-0.605391
H108	H	0.680417	0.000063	-0.103941
H109	H	0.358077	0.000085	-0.028347
C110	C	0.838853	-0.085022	-0.566965
C111	C	0.888123	0.000011	-0.595912
H112	H	0.782531	-0.085042	-0.591467
H113	H	0.828277	-0.085014	-0.503221
H114	H	0.872332	-0.142678	-0.586591
H115	H	0.854646	0.057668	-0.576281
H116	H	0.898696	0.000013	-0.659670
H117	H	0.953991	0.433955	0.233863
C118	C	0.887573	-0.084981	-0.361131
C119	C	0.893597	0.000034	-0.308136
H120	H	0.831245	-0.084980	-0.385623
H121	H	0.891680	-0.142643	-0.325167
H122	H	0.935700	-0.084966	-0.408553
H123	H	0.845473	0.000015	-0.260710
H124	H	0.889481	0.057711	-0.344102
H125	H	1.176241	0.755032	0.013590
H126	H	0.954025	0.755032	0.233882
