data_functionalizedCrystal
_audit_creation_method	'MofGen! by Chris Wilmer'
_symmetry_space_group_name_H-M	'P1'
_symmetry_Int_Tables_number	1
_symmetry_cell_setting	triclinic
loop_
_symmetry_equiv_pos_as_xyz
  x,y,z
_cell_length_a	16.109301
_cell_length_b	10.654550
_cell_length_c	9.730223
_cell_angle_alpha	90.002337
_cell_angle_beta	89.999366
_cell_angle_gamma	83.973205
loop_
_atom_site_label
_atom_site_type_symbol
_atom_site_fract_x
_atom_site_fract_y
_atom_site_fract_z
O1	O	1.104088	0.161424	0.114190
O2	O	1.604088	0.661424	0.614190
O3	O	0.862146	0.181513	0.114210
O4	O	1.362146	0.681513	0.614210
O5	O	0.988680	-0.011346	0.114205
O6	O	1.488680	0.488654	0.614205
O7	O	0.977554	0.354283	0.114195
O8	O	1.477554	0.854283	0.614195
O9	O	0.988675	-0.011360	-0.114375
O10	O	1.488675	0.488640	0.385625
O11	O	0.862141	0.181499	-0.114370
O12	O	1.362141	0.681499	0.385630
O13	O	1.104084	0.161411	-0.114390
O14	O	1.604084	0.661411	0.385610
Zn15	Zn	0.983112	0.171453	-0.150672
Zn16	Zn	1.483112	0.671453	0.349328
Zn17	Zn	0.983118	0.171471	0.150492
Zn18	Zn	1.483118	0.671471	0.650492
O19	O	0.977550	0.354270	-0.114385
O20	O	1.477550	0.854270	0.385615
C21	C	0.831164	0.180692	-0.000077
C22	C	1.331164	0.680692	0.499923
C23	C	0.738854	0.178253	-0.000069
C24	C	1.238854	0.678253	0.499931
N25	N	0.983114	0.171440	-0.356208
N26	N	1.483114	0.671440	0.143792
C27	C	0.987861	-0.058140	-0.000080
C28	C	1.487861	0.441860	0.499920
C29	C	0.985417	-0.197550	-0.000067
C30	C	1.485417	0.302450	0.499933
C31	C	0.517228	0.287019	-0.000088
C32	C	1.017228	0.787019	0.499912
C33	C	0.430494	0.284717	-0.000097
C34	C	0.930494	0.784717	0.499903
C35	C	0.449008	0.055896	-0.000084
C36	C	0.949008	0.555896	0.499916
C37	C	0.535741	0.058199	-0.000085
C38	C	1.035741	0.558199	0.499915
C39	C	0.569848	0.173764	-0.000080
C40	C	1.069848	0.673764	0.499920
C41	C	0.396382	0.169159	-0.000088
C42	C	0.896382	0.669159	0.499912
C43	C	0.302341	0.166662	-0.000097
C44	C	0.802341	0.666662	0.499903
C45	C	0.663895	0.176262	-0.000073
C46	C	1.163895	0.676262	0.499927
C47	C	1.135066	0.162231	-0.000100
C48	C	1.635066	0.662231	0.499900
C49	C	1.227376	0.164671	-0.000099
C50	C	1.727376	0.664671	0.499901
C51	C	0.978369	0.401063	-0.000097
C52	C	1.478369	0.901063	0.499903
C53	C	0.980813	0.540473	-0.000101
C54	C	1.480813	1.040473	0.499899
C55	C	0.906312	0.620970	-0.000091
C56	C	1.406312	1.120970	0.499909
C57	C	0.908613	0.751959	-0.000070
C58	C	1.408613	1.251959	0.499930
C59	C	1.059924	0.721943	-0.000072
C60	C	1.559924	1.221943	0.499928
C61	C	1.057621	0.590956	-0.000084
C62	C	1.557621	1.090956	0.499916
N63	N	0.983123	0.171474	0.356028
N64	N	1.483123	0.671474	0.856028
C65	C	1.039253	0.086225	0.571844
C66	C	1.539253	0.586225	1.071844
C67	C	1.039256	0.086238	0.427961
C68	C	1.539256	0.586238	0.927961
C69	C	0.926977	0.256693	0.427986
C70	C	1.426977	0.756693	0.927986
C71	C	0.926971	0.256672	0.571866
C72	C	1.426971	0.756672	1.071866
H73	H	0.544996	0.381119	-0.000094
H74	H	1.044996	0.881119	0.499906
H75	H	0.881251	0.326065	0.630449
H76	H	1.381251	0.826065	1.130449
H77	H	1.122458	0.763063	-0.000073
H78	H	1.622458	1.263063	0.499927
F79	F	1.136920	0.505280	-0.000088
F80	F	1.636920	1.005280	0.499912
H81	H	0.387654	0.376940	-0.000106
H82	H	0.887654	0.876940	0.499894
F83	F	0.824566	0.567246	-0.000104
F84	F	1.324566	1.067246	0.499896
H85	H	1.084969	0.016847	0.369386
H86	H	1.584969	0.516847	0.869386
F87	F	0.412701	-0.067090	-0.000084
F88	F	0.912701	0.432910	0.499916
H89	H	0.881268	0.326089	0.369409
H90	H	1.381268	0.826089	0.869409
H91	H	0.578586	-0.034032	-0.000083
H92	H	1.078586	0.465968	0.499917
H93	H	0.847947	0.817495	-0.000060
H94	H	1.347947	1.317495	0.499940
F95	F	1.099003	-0.004490	0.648388
F96	F	1.599003	0.495510	1.148388
