data_functionalizedCrystal
_audit_creation_method	'MofGen! by Chris Wilmer'
_symmetry_space_group_name_H-M	'P1'
_symmetry_Int_Tables_number	1
_symmetry_cell_setting	triclinic
loop_
_symmetry_equiv_pos_as_xyz
  x,y,z
_cell_length_a	14.519709
_cell_length_b	16.109301
_cell_length_c	14.586319
_cell_angle_alpha	89.994786
_cell_angle_beta	89.997892
_cell_angle_gamma	96.429187
loop_
_atom_site_label
_atom_site_type_symbol
_atom_site_fract_x
_atom_site_fract_y
_atom_site_fract_z
O1	O	1.223634	-0.108984	0.076124
O2	O	1.723634	0.391016	0.576124
O3	O	0.955130	-0.121819	0.076152
O4	O	1.455130	0.378181	0.576152
O5	O	1.096758	0.005617	0.076128
O6	O	1.596758	0.505617	0.576128
O7	O	1.082006	-0.236420	0.076148
O8	O	1.582006	0.263580	0.576148
O9	O	1.096748	0.005618	-0.076353
O10	O	1.596748	0.505618	0.423647
O11	O	0.955120	-0.121817	-0.076328
O12	O	1.455120	0.378183	0.423672
O13	O	1.223624	-0.108983	-0.076357
O14	O	1.723624	0.391017	0.423643
Cu15	Cu	1.089371	-0.115400	-0.090265
Cu16	Cu	1.589371	0.384600	0.409735
Cu17	Cu	1.089383	-0.115402	0.090061
Cu18	Cu	1.589383	0.384598	0.590061
O19	O	1.081996	-0.236418	-0.076333
O20	O	1.581996	0.263582	0.423667
C21	C	0.920766	-0.121220	-0.000085
C22	C	1.420766	0.378780	0.499915
C23	C	0.818389	-0.119427	-0.000074
C24	C	1.318389	0.380573	0.499926
C25	C	1.096156	0.036593	-0.000113
C26	C	1.596156	0.536593	0.499887
C27	C	1.094364	0.128892	-0.000114
C28	C	1.594364	0.628892	0.499886
N29	N	1.089370	-0.115397	-0.217097
N30	N	1.589370	0.384603	0.282903
C31	C	0.443507	-0.112829	-0.000116
C32	C	0.943507	0.387171	0.499884
C33	C	0.547811	-0.114661	-0.000104
C34	C	1.047811	0.385339	0.499896
C35	C	0.630945	-0.116128	-0.000094
C36	C	1.130945	0.383872	0.499906
C37	C	0.735256	-0.117961	-0.000084
C38	C	1.235256	0.382039	0.499916
C39	C	1.257988	-0.109582	-0.000118
C40	C	1.757988	0.390418	0.499882
C41	C	1.360365	-0.111374	-0.000122
C42	C	1.860365	0.388626	0.499878
C43	C	1.082599	-0.267395	-0.000090
C44	C	1.582599	0.232605	0.499910
C45	C	1.084390	-0.359693	-0.000083
C46	C	1.584390	0.140307	0.499917
C47	C	1.174238	0.351026	-0.000108
C48	C	1.674238	0.851026	0.499892
C49	C	1.172547	0.437749	-0.000100
C50	C	1.672547	0.937749	0.499900
C51	C	1.004510	0.418166	-0.000086
C52	C	1.504510	0.918166	0.499914
C53	C	1.006202	0.331444	-0.000087
C54	C	1.506202	0.831444	0.499913
C55	C	1.091068	0.297877	-0.000103
C56	C	1.591068	0.797877	0.499897
C57	C	1.087686	0.471322	-0.000094
C58	C	1.587686	0.971322	0.499906
C59	C	1.085852	0.565351	-0.000085
C60	C	1.585852	1.065351	0.499915
C61	C	1.092902	0.203842	-0.000109
C62	C	1.592902	0.703842	0.499891
C63	C	1.152104	-0.058988	-0.452114
C64	C	1.652104	0.441012	0.047886
C65	C	1.152106	-0.058986	-0.548096
C66	C	1.652106	0.441014	-0.048096
C67	C	1.026651	-0.171809	-0.548083
C68	C	1.526651	0.328191	-0.048083
C69	C	1.026645	-0.171807	-0.452104
C70	C	1.526645	0.328193	0.047896
C71	C	1.089376	-0.115397	-0.404122
C72	C	1.589376	0.384603	0.095878
C73	C	1.089385	-0.115398	-0.596083
C74	C	1.589385	0.384602	-0.096083
C75	C	1.089388	-0.115396	-0.700150
C76	C	1.589388	0.384604	-0.200150
C77	C	1.089373	-0.115398	-0.300048
C78	C	1.589373	0.384602	0.199952
N79	N	1.089392	-0.115397	0.216893
N80	N	1.589392	0.384603	0.716893
H81	H	1.243341	0.323699	-0.000119
H82	H	1.743341	0.823699	0.499881
H83	H	0.935415	0.445507	-0.000075
H84	H	1.435415	0.945507	0.499925
N85	N	0.962570	-0.229421	-0.403059
N86	N	1.462570	0.270579	0.096941
N87	N	0.905337	-0.202922	-0.349505
N88	N	1.405337	0.297078	0.150495
H89	H	0.860085	-0.243607	-0.314864
H90	H	1.360085	0.256393	0.185136
H91	H	1.240272	0.481020	-0.000102
H92	H	1.740272	0.981020	0.499898
N93	N	1.216132	-0.001351	-0.403071
N94	N	1.716132	0.498649	0.096929
N95	N	1.186836	0.050293	-0.349525
N96	N	1.686836	0.550293	0.150475
H97	H	1.232045	0.091004	-0.314878
H98	H	1.732045	0.591004	0.185122
N99	N	1.216167	-0.001364	-0.597132
N100	N	1.716167	0.498636	-0.097132
N101	N	1.216155	-0.001360	-0.682827
N102	N	1.716155	0.498640	-0.182827
H103	H	1.261393	0.039343	-0.717461
H104	H	1.761393	0.539343	-0.217461
N105	N	0.921232	0.277159	-0.000072
N106	N	1.421232	0.777159	0.499928
N107	N	0.845466	0.307138	-0.000063
N108	N	1.345466	0.807138	0.499937
H109	H	0.785458	0.268800	-0.000048
H110	H	1.285458	0.768800	0.499952
N111	N	0.962582	-0.229422	-0.597112
N112	N	1.462582	0.270578	-0.097112
N113	N	0.962595	-0.229418	-0.682807
N114	N	1.462595	0.270582	-0.182807
H115	H	0.917346	-0.270108	-0.717434
H116	H	1.417346	0.229892	-0.217434
