data_functionalizedCrystal
_audit_creation_method	'MofGen! by Chris Wilmer'
_symmetry_space_group_name_H-M	'P1'
_symmetry_Int_Tables_number	1
_symmetry_cell_setting	triclinic
loop_
_symmetry_equiv_pos_as_xyz
  x,y,z
_cell_length_a	19.077236
_cell_length_b	12.645330
_cell_length_c	19.076919
_cell_angle_alpha	92.276250
_cell_angle_beta	89.887323
_cell_angle_gamma	92.310660
loop_
_atom_site_label
_atom_site_type_symbol
_atom_site_fract_x
_atom_site_fract_y
_atom_site_fract_z
Zn1	Zn	1.058321	-0.384817	-0.440563
Zn2	Zn	1.062974	-0.554705	-0.323065
Zn3	Zn	0.945536	-0.384261	-0.318343
Zn4	Zn	0.940794	-0.568848	-0.435804
O5	O	1.001906	-0.473158	-0.379444
O6	O	1.157271	-0.401667	-0.428944
O7	O	1.051327	-0.525944	-0.224108
O8	O	0.960535	-0.235987	-0.334570
O9	O	1.160690	-0.526483	-0.342619
O10	O	1.043397	-0.236395	-0.424365
O11	O	0.965046	-0.400720	-0.220638
O12	O	0.846574	-0.414433	-0.329956
O13	O	0.952452	-0.550587	-0.534766
O14	O	0.843090	-0.550048	-0.416255
O15	O	1.038799	-0.415381	-0.538263
O16	O	1.046729	-0.704930	-0.338005
O17	O	0.956964	-0.715320	-0.420834
C18	C	0.819335	-0.483716	-0.372077
C19	C	0.741230	-0.488259	-0.368942
C20	C	0.702754	-0.425521	-0.412483
C21	C	0.629366	-0.429784	-0.409531
C22	C	0.594455	-0.496793	-0.363042
C23	C	0.632936	-0.559534	-0.319497
C24	C	0.706323	-0.555264	-0.322445
C25	C	0.375163	-0.516514	-0.349394
C26	C	0.301771	-0.520781	-0.346450
C27	C	0.298205	-0.391030	-0.436484
C28	C	0.371594	-0.386771	-0.439432
C29	C	0.410069	-0.449508	-0.395884
N30	N	0.519440	-0.501155	-0.360026
N31	N	0.485082	-0.445139	-0.398897
C32	C	1.001855	-0.748590	-0.379432
C33	C	1.001897	-0.866419	-0.379453
C34	C	0.945643	-1.040561	-0.431737
C35	C	0.945373	-0.918007	-0.431551
C36	C	0.984830	-0.907508	-0.304593
C37	C	0.984487	-1.030146	-0.304910
C38	C	1.075572	-1.030391	-0.401442
C39	C	1.075051	-0.907913	-0.403042
C40	C	1.185190	-0.462559	-0.386839
C41	C	1.263295	-0.458043	-0.389991
C42	C	0.994577	-0.484624	-0.562724
C43	C	0.991454	-0.489510	-0.640826
C44	C	1.001976	-0.196650	-0.379472
C45	C	1.002005	-0.078819	-0.379484
C46	C	1.034941	-0.421414	-0.679341
C47	C	1.031998	-0.426001	-0.752726
C48	C	0.985571	-0.498690	-0.787597
C49	C	0.942080	-0.566789	-0.749077
C50	C	0.945020	-0.562196	-0.675693
C51	C	0.971955	-0.519971	-1.006877
C52	C	0.969020	-0.524562	-1.080267
C53	C	1.058937	-0.383771	-1.083911
C54	C	1.061875	-0.379189	-1.010525
C55	C	1.018382	-0.447284	-0.972012
N56	N	0.982564	-0.503383	-0.862609
N57	N	1.021386	-0.442585	-0.897001
C58	C	1.009247	-0.461658	-0.196878
C59	C	1.012506	-0.456465	-0.118781
H60	H	0.266871	-0.339952	-0.471938
C61	C	0.853495	-0.705488	-0.738098
C62	C	0.891046	-0.646691	-0.787404
H63	H	0.821986	-0.754814	-0.761760
H64	H	0.885246	-0.742474	-0.710710
H65	H	0.827776	-0.659050	-0.708394
H66	H	0.916770	-0.693129	-0.817105
H67	H	0.859290	-0.609703	-0.814805
H68	H	0.909602	-0.617637	-0.644335
C69	C	1.163006	-1.030533	-0.492152
C70	C	1.097380	-1.075109	-0.474093
H71	H	1.176464	-1.058148	-0.537004
H72	H	1.160288	-0.955800	-0.493442
H73	H	1.196774	-1.047436	-0.458262
H74	H	1.063610	-1.058199	-0.507981
H75	H	1.100092	-1.149859	-0.472809
H76	H	0.936549	-0.575434	-0.975529
H77	H	0.731173	-0.370958	-0.450341
C78	C	0.371305	-0.645199	-0.260108
C79	C	0.417448	-0.585479	-0.301530
H80	H	0.397414	-0.687780	-0.230561
H81	H	0.343754	-0.598934	-0.232136
H82	H	0.341461	-0.689396	-0.289538
H83	H	0.447289	-0.541276	-0.272100
H84	H	0.445011	-0.631749	-0.329505
H85	H	0.955853	-1.072725	-0.487327
H86	H	0.890774	-0.891173	-0.416767
C87	C	1.079373	-0.351854	-0.568468
C88	C	1.085972	-0.341508	-0.641014
H89	H	1.110881	-0.302523	-0.544810
H90	H	1.032650	-0.338319	-0.554539
H91	H	1.090126	-0.421736	-0.556855
H92	H	1.075215	-0.271627	-0.652628
H93	H	1.132706	-0.355035	-0.654948
H94	H	0.598041	-0.378698	-0.444988
C95	C	0.522024	-0.623699	-0.275005
C96	C	0.594564	-0.633193	-0.268396
H97	H	0.498337	-0.669181	-0.243460
H98	H	0.510413	-0.552518	-0.264316
H99	H	0.508125	-0.642977	-0.321720
H100	H	0.608463	-0.613906	-0.221682
H101	H	0.606179	-0.704390	-0.279080
C102	C	0.869303	-0.986219	-0.265369
C103	C	0.912008	-1.071771	-0.280275
H104	H	0.824555	-1.011916	-0.250166
H105	H	0.890335	-0.941575	-0.229416
H106	H	0.864048	-0.947157	-0.306421
H107	H	0.917268	-1.110829	-0.239221
H108	H	0.890971	-1.116433	-0.316230
C109	C	0.872182	-1.196326	-0.415428
C110	C	0.872391	-1.085497	-0.412014
H111	H	0.826961	-1.224065	-0.403245
H112	H	0.883509	-1.220270	-0.461739
H113	H	0.905928	-1.219803	-0.383606
H114	H	0.838648	-1.062019	-0.443840
H115	H	0.861055	-1.061543	-0.365696
H116	H	1.094346	-0.328331	-1.115276
C117	C	1.018870	-1.023685	-0.183758
C118	C	1.037710	-1.063697	-0.250347
H119	H	1.051724	-1.044408	-0.150075
H120	H	1.018730	-0.948592	-0.183931
H121	H	0.973383	-1.050934	-0.172106
H122	H	1.083196	-1.036441	-0.262002
H123	H	1.037858	-1.138805	-0.250176
C124	C	0.360696	-0.258923	-0.528116
C125	C	0.409966	-0.313099	-0.490525
H126	H	0.384387	-0.213436	-0.559655
H127	H	0.331004	-0.308513	-0.553797
H128	H	0.333289	-0.218063	-0.496387
H129	H	0.437369	-0.353965	-0.522254
H130	H	0.439670	-0.263502	-0.464842
H131	H	0.931211	-0.583757	-1.108656
C132	C	0.730276	-0.731227	-0.288929
C133	C	0.748621	-0.624232	-0.274589
H134	H	0.756393	-0.773803	-0.259385
H135	H	0.681581	-0.743355	-0.280516
H136	H	0.740426	-0.749089	-0.336609
H137	H	0.738467	-0.606368	-0.226910
H138	H	0.797328	-0.612099	-0.282997
H139	H	1.117527	-1.054542	-0.363420
H140	H	0.273349	-0.575353	-0.308593
C141	C	1.004141	-0.803011	-0.198022
C142	C	1.038672	-0.861662	-0.250407
H143	H	1.037385	-0.774727	-0.164567
H144	H	0.980957	-0.746776	-0.218509
H145	H	0.970672	-0.847760	-0.175453
H146	H	1.072138	-0.816911	-0.272979
H147	H	1.061868	-0.917903	-0.229918
H148	H	1.099683	-0.320000	-0.982139
C149	C	0.967973	-0.969255	-0.551751
C150	C	0.959305	-0.880983	-0.506360
H151	H	0.976565	-0.946400	-0.597939
H152	H	1.006608	-1.007545	-0.536583
H153	H	0.926619	-1.013675	-0.551523
H154	H	1.000662	-0.836566	-0.506584
H155	H	0.920667	-0.842675	-0.521532
C156	C	1.154799	-0.809534	-0.475807
C157	C	1.092513	-0.872069	-0.477446
H158	H	1.165580	-0.787426	-0.521745
H159	H	1.149151	-0.749123	-0.445433
H160	H	1.191912	-0.849654	-0.459140
H161	H	1.055399	-0.831947	-0.494108
H162	H	1.098157	-0.932490	-0.507830
C163	C	1.168212	-0.941577	-0.323512
C164	C	1.134406	-0.860095	-0.355726
H165	H	1.204856	-0.912055	-0.294299
H166	H	1.135389	-0.980243	-0.295946
H167	H	1.187328	-0.987683	-0.358447
H168	H	1.115285	-0.813993	-0.320791
H169	H	1.167235	-0.821411	-0.383294
C170	C	1.121181	-0.286392	-0.748958
C171	C	1.079804	-0.351154	-0.795061
H172	H	1.150698	-0.240188	-0.775095
H173	H	1.091725	-0.245818	-0.719104
H174	H	1.149189	-0.329253	-0.721415
H175	H	1.051792	-0.308294	-0.822600
H176	H	1.109264	-0.391732	-0.824928
H177	H	0.931719	-0.878981	-0.286071
