data_functionalizedCrystal
_audit_creation_method	'MofGen! by Chris Wilmer'
_symmetry_space_group_name_H-M	'P1'
_symmetry_Int_Tables_number	1
_symmetry_cell_setting	triclinic
loop_
_symmetry_equiv_pos_as_xyz
  x,y,z
_cell_length_a	15.995350
_cell_length_b	17.019294
_cell_length_c	15.072220
_cell_angle_alpha	86.119892
_cell_angle_beta	89.991149
_cell_angle_gamma	83.443443
loop_
_atom_site_label
_atom_site_type_symbol
_atom_site_fract_x
_atom_site_fract_y
_atom_site_fract_z
O1	O	1.110876	0.101674	-0.081474
O2	O	0.867085	0.114230	-0.082451
O3	O	0.995780	-0.006880	-0.073185
O4	O	0.982181	0.222784	-0.090741
O5	O	0.995748	-0.006873	0.074380
O6	O	0.867054	0.114237	0.065113
O7	O	1.110844	0.101681	0.066091
Zn8	Zn	0.988944	0.107960	0.089031
Zn9	Zn	0.988986	0.107951	-0.105392
O10	O	0.982149	0.222791	0.056824
C11	C	0.835875	0.113714	-0.008632
C12	C	0.742927	0.112158	-0.008520
C13	C	0.995248	-0.036266	0.002842
C14	C	0.993700	-0.123836	0.009530
C15	C	0.405186	0.106569	-0.008074
C16	C	0.452722	0.020317	-0.001151
C17	C	0.549410	0.021873	-0.001609
C18	C	0.572743	0.109342	-0.008295
C19	C	0.531624	0.151880	-0.095810
C20	C	0.434991	0.149714	-0.095709
C21	C	0.434614	0.151503	0.071964
C22	C	0.531559	0.151483	0.073073
C23	C	0.667439	0.110913	-0.008423
C24	C	0.310490	0.105001	-0.007952
C25	C	0.992992	-0.164976	-0.067765
C26	C	0.991532	-0.247256	-0.061478
C27	C	0.990786	-0.288396	0.022105
C28	C	0.991491	-0.247250	0.099405
C29	C	0.992945	-0.164971	0.093118
C30	C	0.986389	-0.536828	0.045114
C31	C	0.984937	-0.619114	0.051396
C32	C	0.984976	-0.619113	-0.109488
C33	C	0.986435	-0.536833	-0.115768
C34	C	0.987136	-0.495693	-0.038468
C35	C	0.989296	-0.372501	0.028533
C36	C	0.988620	-0.411590	-0.044897
C37	C	1.142054	0.102196	-0.007731
C38	C	1.235002	0.103753	-0.007849
C39	C	0.982681	0.252177	-0.019205
C40	C	0.984229	0.339747	-0.025899
N41	N	0.988921	0.107965	0.221719
N42	N	0.989015	0.107939	-0.238080
C43	C	0.988984	0.107948	0.580922
C44	C	0.919891	0.172534	0.538373
C45	C	0.920049	0.172770	0.435530
C46	C	0.988952	0.107957	0.402717
C47	C	1.076296	0.125934	0.438641
C48	C	1.075908	0.126393	0.541464
C49	C	0.971512	0.025193	0.549347
C50	C	0.969507	0.025745	0.446441
C51	C	0.988940	0.107960	0.302004
C52	C	0.989002	0.107946	0.681636
H53	H	0.577866	-0.011565	0.061351
H54	H	0.402668	0.213038	-0.104373
H55	H	0.545673	0.216141	-0.103855
H56	H	0.988691	-0.406006	0.096586
F57	F	0.551537	0.234857	0.073353
F58	F	0.993791	-0.121199	-0.156725
H59	H	0.930883	0.233600	0.559545
H60	H	1.128923	0.081206	0.569796
H61	H	1.128934	0.080144	0.417676
H62	H	0.414098	0.123308	0.137989
F63	F	0.835173	0.158810	0.403635
H64	H	0.560047	0.122329	-0.156262
H65	H	0.984404	-0.652618	-0.172422
H66	H	1.092077	0.185598	0.408312
F67	F	0.990779	-0.291037	-0.143746
H68	H	0.984326	-0.652607	0.119462
F69	F	0.567211	0.110831	0.157660
H70	H	1.016569	-0.024569	0.424582
H71	H	0.402777	0.215097	0.067673
F72	F	0.987124	-0.493053	0.127385
F73	F	0.989416	-0.367804	-0.133849
H74	H	0.931196	0.234181	0.406222
H75	H	0.987044	-0.503342	-0.183830
H76	H	1.091319	0.186745	0.560833
F77	F	0.834747	0.158756	0.571768
F78	F	0.990688	-0.291036	0.188361
F79	F	0.890064	0.002610	0.585013
F80	F	0.993698	-0.121187	0.175386
H81	H	0.905257	0.012102	0.423107
H82	H	0.433182	-0.014004	-0.058623
F83	F	0.428545	-0.024744	0.081278
F84	F	1.037371	-0.037629	0.585939
H85	H	0.577321	-0.011796	-0.059544
H86	H	0.416733	0.118687	-0.156326
