data_functionalizedCrystal
_audit_creation_method	'MofGen! by Chris Wilmer'
_symmetry_space_group_name_H-M	'P1'
_symmetry_Int_Tables_number	1
_symmetry_cell_setting	triclinic
loop_
_symmetry_equiv_pos_as_xyz
  x,y,z
_cell_length_a	21.295417
_cell_length_b	18.215407
_cell_length_c	18.215399
_cell_angle_alpha	90.016824
_cell_angle_beta	89.965438
_cell_angle_gamma	89.969045
loop_
_atom_site_label
_atom_site_type_symbol
_atom_site_fract_x
_atom_site_fract_y
_atom_site_fract_z
Zn1	Zn	-0.250593	-1.125021	-0.416094
Zn2	Zn	0.082740	-0.791688	-0.082761
Zn3	Zn	0.416073	-0.458355	0.250572
Zn4	Zn	-0.355869	-1.124924	-0.293019
Zn5	Zn	-0.022535	-0.791591	0.040314
Zn6	Zn	0.310798	-0.458257	0.373648
Zn7	Zn	-0.250618	-1.001960	-0.293042
Zn8	Zn	0.082715	-0.668627	0.040292
Zn9	Zn	0.416048	-0.335294	0.373625
Zn10	Zn	-0.355829	-1.001908	-0.416044
Zn11	Zn	-0.022496	-0.668574	-0.082711
Zn12	Zn	0.310837	-0.335241	0.250623
O13	O	-0.303227	-1.063453	-0.354550
O14	O	0.030106	-0.730120	-0.021216
O15	O	0.363439	-0.396787	0.312117
O16	O	-0.264564	-1.227993	-0.399780
O17	O	0.068769	-0.894659	-0.066446
O18	O	0.402102	-0.561326	0.266887
O19	O	-0.341934	-1.108594	-0.190038
O20	O	-0.008601	-0.775261	0.143296
O21	O	0.324733	-0.441927	0.476629
O22	O	-0.162525	-1.018347	-0.309396
O23	O	0.170808	-0.685014	0.023938
O24	O	0.504141	-0.351681	0.357271
O25	O	-0.341910	-1.227921	-0.309357
O26	O	-0.008576	-0.894588	0.023976
O27	O	0.324757	-0.561255	0.357310
O28	O	-0.162507	-1.108760	-0.399802
O29	O	0.170826	-0.775426	-0.066468
O30	O	0.504160	-0.442093	0.266865
O31	O	-0.264607	-1.018253	-0.190054
O32	O	0.068726	-0.684920	0.143279
O33	O	0.402060	-0.351586	0.476612
O34	O	-0.264569	-0.898969	-0.309347
O35	O	0.068765	-0.565636	0.023987
O36	O	0.402098	-0.232302	0.357320
O37	O	-0.341843	-1.018258	-0.519035
O38	O	-0.008509	-0.684924	-0.185702
O39	O	0.324824	-0.351591	0.147632
O40	O	-0.341867	-0.898930	-0.399716
O41	O	-0.008533	-0.565597	-0.066383
O42	O	0.324800	-0.232264	0.266951
O43	O	-0.264526	-1.108709	-0.519072
O44	O	0.068807	-0.775375	-0.185739
O45	O	0.402141	-0.442042	0.147595
O46	O	-0.443953	-1.108543	-0.309308
O47	O	-0.110620	-0.775210	0.024025
O48	O	0.222714	-0.441876	0.357359
O49	O	-0.443924	-1.018163	-0.399694
O50	O	-0.110591	-0.684830	-0.066361
O51	O	0.222743	-0.351497	0.266973
C52	C	-0.303217	-0.872247	-0.354529
C53	C	0.030117	-0.538914	-0.021195
C54	C	0.363450	-0.205580	0.312138
C55	C	-0.303227	-0.790448	-0.354537
C56	C	0.030106	-0.457115	-0.021204
C57	C	0.363440	-0.123782	0.312130
C58	C	-0.466779	-1.063357	-0.354509
C59	C	-0.133446	-0.730024	-0.021176
C60	C	0.199888	-0.396690	0.312158
C61	C	-0.536747	-1.063383	-0.354516
C62	C	-0.203414	-0.730050	-0.021183
C63	C	0.129920	-0.396716	0.312150
C64	C	-0.303177	-1.063488	-0.546503
C65	C	0.030156	-0.730155	-0.213169
C66	C	0.363490	-0.396822	0.120164
C67	C	-0.303156	-1.063503	-0.628302
C68	C	0.030178	-0.730170	-0.294968
C69	C	0.363511	-0.396836	0.038365
C70	C	-0.569608	-1.110485	-0.307500
C71	C	-0.236275	-0.777152	0.025833
C72	C	0.097059	-0.443819	0.359166
C73	C	-0.635350	-1.110520	-0.307517
C74	C	-0.302017	-0.777187	0.025816
C75	C	0.031316	-0.443853	0.359150
C76	C	-0.668230	-1.063439	-0.354542
C77	C	-0.334896	-0.730106	-0.021208
C78	C	-0.001563	-0.396772	0.312125
C79	C	-0.635361	-1.016333	-0.401566
C80	C	-0.302027	-0.683000	-0.068233
C81	C	0.031306	-0.349666	0.265100
C82	C	-0.569620	-1.016305	-0.401554
C83	C	-0.236286	-0.682972	-0.068220
C84	C	0.097047	-0.349638	0.265113
N85	N	-0.771496	-0.999060	-0.360145
N86	N	-0.438162	-0.665727	-0.026811
N87	N	-0.104829	-0.332393	0.306522
N88	N	-0.833947	-0.999088	-0.360153
N89	N	-0.500614	-0.665755	-0.026819
N90	N	-0.167280	-0.332422	0.306514
C91	C	-0.866304	-1.063521	-0.354584
C92	C	-0.532971	-0.730188	-0.021250
C93	C	-0.199638	-0.396855	0.312083
N94	N	-0.833851	-1.127926	-0.348993
N95	N	-0.500518	-0.794592	-0.015659
N96	N	-0.167184	-0.461259	0.317674
N97	N	-0.771394	-1.127896	-0.348981
N98	N	-0.438060	-0.794563	-0.015648
N99	N	-0.104727	-0.461230	0.317686
C100	C	-0.739515	-1.063464	-0.354561
C101	C	-0.406182	-0.730131	-0.021228
C102	C	-0.072848	-0.396798	0.312106
C103	C	-0.970451	-1.110665	-0.307584
C104	C	-0.637117	-0.777332	0.025750
C105	C	-0.303784	-0.443998	0.359083
C106	C	-1.036194	-1.110701	-0.307605
C107	C	-0.702861	-0.777368	0.025728
C108	C	-0.369528	-0.444034	0.359061
C109	C	-1.036203	-1.016507	-0.401651
C110	C	-0.702870	-0.683174	-0.068317
C111	C	-0.369537	-0.349841	0.265016
C112	C	-0.970461	-1.016478	-0.401633
C113	C	-0.637128	-0.683145	-0.068300
C114	C	-0.303794	-0.349812	0.265034
C115	C	-0.937589	-1.063556	-0.354595
C116	C	-0.604255	-0.730223	-0.021262
C117	C	-0.270922	-0.396889	0.312071
C118	C	-0.139037	-1.063570	-0.354607
C119	C	0.194296	-0.730237	-0.021273
C120	C	0.527630	-0.396904	0.312060
C121	C	-0.069069	-1.063620	-0.354631
C122	C	0.264264	-0.730287	-0.021298
C123	C	0.597598	-0.396953	0.312036
C124	C	-0.303239	-1.255406	-0.354571
C125	C	0.030095	-0.922073	-0.021238
C126	C	0.363428	-0.588740	0.312095
C127	C	-0.303243	-1.337205	-0.354581
C128	C	0.030090	-1.003872	-0.021247
C129	C	0.363423	-0.670539	0.312086
C130	C	-0.343540	-0.602253	-0.401533
C131	C	-0.010206	-0.268920	-0.068200
C132	C	0.323127	0.064413	0.265133
C133	C	-0.343542	-0.525395	-0.401542
C134	C	-0.010208	-0.192061	-0.068209
C135	C	0.323125	0.141272	0.265124
C136	C	-0.262927	-0.525405	-0.307582
C137	C	0.070407	-0.192072	0.025751
C138	C	0.403740	0.141261	0.359084
C139	C	-0.262922	-0.602263	-0.307577
C140	C	0.070411	-0.268929	0.025756
C141	C	0.403745	0.064404	0.359089
C142	C	-0.303232	-0.640685	-0.354552
C143	C	0.030101	-0.307351	-0.021218
C144	C	0.363435	0.025982	0.312115
C145	C	-0.303239	-0.486969	-0.354566
C146	C	0.030095	-0.153635	-0.021233
C147	C	0.363428	0.179698	0.312101
C148	C	-0.303240	-0.403635	-0.354575
C149	C	0.030093	-0.070302	-0.021242
C150	C	0.363426	0.263032	0.312091
C151	C	-0.303229	-0.724024	-0.354543
C152	C	0.030104	-0.390690	-0.021210
C153	C	0.363437	-0.057357	0.312123
C154	C	-0.262864	-1.016502	-0.816505
C155	C	0.070469	-0.683169	-0.483172
C156	C	0.403802	-0.349836	-0.149839
C157	C	-0.262852	-1.016515	-0.893364
C158	C	0.070482	-0.683182	-0.560031
C159	C	0.403815	-0.349848	-0.226697
C160	C	-0.343372	-1.110592	-0.893336
C161	C	-0.010039	-0.777258	-0.560003
C162	C	0.323295	-0.443925	-0.226669
C163	C	-0.343387	-1.110575	-0.816479
C164	C	-0.010054	-0.777241	-0.483145
C165	C	0.323279	-0.443908	-0.149812
C166	C	-0.303130	-1.063531	-0.778065
C167	C	0.030203	-0.730198	-0.444732
C168	C	0.363537	-0.396864	-0.111399
C169	C	-0.303102	-1.063561	-0.931781
C170	C	0.030231	-0.730228	-0.598448
C171	C	0.363565	-0.396894	-0.265115
C172	C	-0.303088	-1.063575	-1.015115
C173	C	0.030245	-0.730242	-0.681782
C174	C	0.363578	-0.396908	-0.348449
C175	C	-0.303144	-1.063516	-0.694726
C176	C	0.030189	-0.730182	-0.361393
C177	C	0.363523	-0.396849	-0.028060
C178	C	-0.303232	-1.063461	-0.163344
C179	C	0.030101	-0.730128	0.169990
C180	C	0.363435	-0.396794	0.503323
C181	C	-0.303076	-1.063589	-0.081545
C182	C	0.030257	-0.730256	0.251788
C183	C	0.363591	-0.396922	0.585122
H184	H	-0.542845	-1.148821	-0.269202
H185	H	-0.209512	-0.815487	0.064132
H186	H	0.123822	-0.482154	0.397465
H187	H	-0.376179	-1.148873	-0.785180
H188	H	-0.042846	-0.815540	-0.451847
H189	H	0.290488	-0.482206	-0.118513
H190	H	-0.376363	-0.494107	-0.439801
H191	H	-0.043030	-0.160774	-0.106467
H192	H	0.290304	0.172559	0.226866
H193	H	-0.943685	-1.149001	-0.269285
H194	H	-0.610351	-0.815668	0.064048
H195	H	-0.277018	-0.482335	0.397382
H196	H	-0.376361	-0.633534	-0.439785
H197	H	-0.043028	-0.300201	-0.106451
H198	H	0.290306	0.033132	0.226882
H199	H	-1.062949	-1.149062	-0.269321
H200	H	-0.729615	-0.815729	0.064013
H201	H	-0.396282	-0.482395	0.397346
H202	H	-0.230108	-0.494113	-0.269336
H203	H	0.103225	-0.160779	0.063997
H204	H	0.436558	0.172554	0.397330
H205	H	-0.230095	-0.633554	-0.269319
H206	H	0.103239	-0.300221	0.064014
H207	H	0.436572	0.033112	0.397347
H208	H	-1.062973	-0.978176	-0.439942
H209	H	-0.729640	-0.644843	-0.106609
H210	H	-0.396306	-0.311510	0.226724
H211	H	-0.230084	-0.978196	-0.785231
H212	H	0.103249	-0.644863	-0.451898
H213	H	0.436583	-0.311529	-0.118565
H214	H	-0.943704	-0.978120	-0.439914
H215	H	-0.610371	-0.644786	-0.106581
H216	H	-0.277037	-0.311453	0.226752
H217	H	-0.376148	-1.148894	-0.924622
H218	H	-0.042814	-0.815560	-0.591288
H219	H	0.290519	-0.482227	-0.257955
H220	H	-0.662111	-1.148879	-0.269231
H221	H	-0.328778	-0.815546	0.064102
H222	H	0.004556	-0.482212	0.397435
H223	H	-0.662135	-0.978001	-0.439855
H224	H	-0.328802	-0.644667	-0.106522
H225	H	0.004531	-0.311334	0.226811
H226	H	-0.542864	-0.977948	-0.439840
H227	H	-0.209530	-0.644615	-0.106507
H228	H	0.123803	-0.311281	0.226826
H229	H	-0.230064	-0.978219	-0.924659
H230	H	0.103270	-0.644885	-0.591325
H231	H	0.436603	-0.311552	-0.257992
