data_functionalizedCrystal
_audit_creation_method	'MofGen! by Chris Wilmer'
_symmetry_space_group_name_H-M	'P1'
_symmetry_Int_Tables_number	1
_symmetry_cell_setting	triclinic
loop_
_symmetry_equiv_pos_as_xyz
  x,y,z
_cell_length_a	17.077404
_cell_length_b	12.594516
_cell_length_c	17.077396
_cell_angle_alpha	90.023145
_cell_angle_beta	90.019501
_cell_angle_gamma	90.016278
loop_
_atom_site_label
_atom_site_type_symbol
_atom_site_fract_x
_atom_site_fract_y
_atom_site_fract_z
Zn1	Zn	1.200092	-0.423736	0.443872
Zn2	Zn	1.200015	-0.601736	0.312618
Zn3	Zn	1.068824	-0.423773	0.312620
Zn4	Zn	1.068807	-0.601673	0.443842
O5	O	1.134434	-0.512730	0.378238
O6	O	1.309929	-0.447359	0.426473
O7	O	1.182586	-0.578171	0.202771
O8	O	1.086276	-0.274822	0.330044
O9	O	1.309872	-0.578135	0.330041
O10	O	1.182718	-0.274795	0.426474
O11	O	1.086201	-0.447422	0.202773
O12	O	0.958975	-0.447361	0.330015
O13	O	1.086248	-0.578027	0.553693
O14	O	0.958963	-0.578064	0.426423
O15	O	1.182702	-0.447297	0.553715
O16	O	1.182571	-0.750674	0.330012
O17	O	1.086173	-0.750627	0.426421
C18	C	0.930487	-0.512710	0.378216
C19	C	0.843237	-0.512728	0.378226
C20	C	0.802261	-0.580887	0.428345
C21	C	0.720280	-0.580890	0.428357
C22	C	0.679277	-0.512737	0.378246
C23	C	0.720259	-0.444570	0.328125
C24	C	0.802238	-0.444563	0.328117
C25	C	0.549389	-0.444591	0.328144
C26	C	0.467404	-0.444599	0.328150
C27	C	0.467431	-0.580917	0.428384
C28	C	0.549410	-0.580910	0.428376
C29	C	0.590386	-0.512745	0.378253
C30	C	1.134383	-0.789271	0.378230
C31	C	1.134433	-0.907576	0.378253
C32	C	1.081997	-0.976843	0.430653
C33	C	1.062873	-1.047703	0.359026
C34	C	1.153628	-1.047515	0.449893
C35	C	1.115271	-0.976878	0.306587
C36	C	1.206059	-0.976684	0.397503
C37	C	1.186963	-1.047512	0.325826
C38	C	1.339179	-0.512750	0.378260
C39	C	1.426428	-0.512758	0.378269
C40	C	1.134482	-0.512651	0.582982
C41	C	1.134502	-0.512618	0.670232
C42	C	1.134507	-0.235109	0.378263
C43	C	1.134539	-0.116803	0.378273
C44	C	1.134432	-0.512731	0.174290
C45	C	1.134564	-0.512465	0.087041
C46	C	1.184728	-0.444541	0.711235
C47	C	1.184737	-0.444506	0.793216
C48	C	1.134524	-0.512553	0.834192
C49	C	1.084293	-0.580633	0.793183
C50	C	1.084281	-0.580662	0.711204
C51	C	1.084325	-0.580569	0.964053
C52	C	1.084339	-0.580541	1.046038
C53	C	1.184782	-0.444412	1.046065
C54	C	1.184769	-0.444442	0.964086
C55	C	1.134538	-0.512523	0.923083
H56	H	0.835599	-0.389055	0.287309
H57	H	1.099008	-0.945978	0.245994
N58	N	0.846480	-0.654395	0.482396
H59	H	0.904632	-0.644053	0.474786
H60	H	0.832130	-0.730391	0.470085
N61	N	1.286209	-0.935322	0.419094
H62	H	1.307596	-0.891202	0.374594
H63	H	1.322468	-0.997086	0.429431
N64	N	0.676084	-0.654419	0.482403
H65	H	0.714499	-0.697602	0.514139
H66	H	0.642053	-0.703614	0.450379
N67	N	1.175083	-1.088612	0.530132
H68	H	1.224350	-1.132677	0.526444
H69	H	1.130941	-1.133864	0.550987
H70	H	0.582793	-0.636412	0.469177
N71	N	0.423176	-0.371093	0.274104
H72	H	0.461572	-0.327903	0.242354
H73	H	0.389183	-0.321903	0.306126
N74	N	0.982702	-1.089037	0.337466
H75	H	0.986505	-1.133194	0.288233
H76	H	0.946166	-1.027257	0.328211
N77	N	1.030180	-0.653911	1.090254
H78	H	1.042332	-0.729976	1.075994
H79	H	0.974117	-0.637276	1.075972
N80	N	1.023158	-0.935714	0.489257
H81	H	1.050930	-0.891507	0.530074
H82	H	0.996161	-0.997584	0.515448
N83	N	0.593590	-0.371078	0.274081
H84	H	0.627625	-0.321804	0.306037
H85	H	0.555129	-0.327978	0.242343
N86	N	0.676042	-0.371068	0.274067
H87	H	0.690292	-0.387510	0.217964
H88	H	0.690343	-0.295066	0.286414
N89	N	1.238931	-0.371058	0.919887
H90	H	1.270753	-0.327923	0.958300
H91	H	1.206986	-0.321812	0.885871
H92	H	0.434065	-0.636417	0.469198
N93	N	1.245765	-1.088361	0.267080
H94	H	1.231206	-1.062526	0.213021
H95	H	1.245785	-1.168545	0.267796
H96	H	1.225619	-0.389132	0.677878
H97	H	1.225638	-0.389073	0.826597
N98	N	1.238962	-0.370983	1.090283
H99	H	1.231350	-0.381284	1.148434
H100	H	1.226768	-0.294969	1.075957
N101	N	1.030145	-0.653992	0.919826
H102	H	0.998339	-0.697099	0.958222
H103	H	1.062081	-0.703264	0.885812
H104	H	1.043406	-0.636034	0.826552
N105	N	1.030102	-0.654077	0.666975
H106	H	0.998293	-0.697180	0.705371
H107	H	1.062029	-0.703352	0.632958
