data_functionalizedCrystal
_audit_creation_method	'MofGen! by Chris Wilmer'
_symmetry_space_group_name_H-M	'P1'
_symmetry_Int_Tables_number	1
_symmetry_cell_setting	triclinic
loop_
_symmetry_equiv_pos_as_xyz
  x,y,z
_cell_length_a	25.639233
_cell_length_b	13.897449
_cell_length_c	13.897448
_cell_angle_alpha	90.018972
_cell_angle_beta	90.015038
_cell_angle_gamma	90.012243
loop_
_atom_site_label
_atom_site_type_symbol
_atom_site_fract_x
_atom_site_fract_y
_atom_site_fract_z
Zn1	Zn	-0.295617	-1.474622	0.384099
Zn2	Zn	0.204383	-0.974622	0.884099
Zn3	Zn	-0.208187	-1.474540	0.545377
Zn4	Zn	0.291813	-0.974540	1.045377
Zn5	Zn	-0.208197	-1.313335	0.384101
Zn6	Zn	0.291803	-0.813335	0.884101
Zn7	Zn	-0.295592	-1.313293	0.545358
Zn8	Zn	0.204408	-0.813293	1.045358
O9	O	-0.251898	-1.393947	0.464734
O10	O	0.248102	-0.893947	0.964734
O11	O	-0.284026	-1.609592	0.405501
O12	O	0.215974	-1.109592	0.905501
O13	O	-0.135023	-1.453139	0.523993
O14	O	0.364977	-0.953139	1.023993
O15	O	-0.219807	-1.334782	0.249120
O16	O	0.280193	-0.834782	0.749120
O17	O	-0.219792	-1.609532	0.523991
O18	O	0.280208	-1.109532	1.023991
O19	O	-0.284035	-1.453279	0.249118
O20	O	0.215965	-0.953279	0.749118
O21	O	-0.135030	-1.334702	0.405504
O22	O	0.364970	-0.834702	0.905504
O23	O	-0.219783	-1.178348	0.405485
O24	O	0.280217	-0.678348	0.905485
O25	O	-0.368761	-1.334710	0.523957
O26	O	0.131239	-0.834710	1.023957
O27	O	-0.283993	-1.178317	0.523959
O28	O	0.216007	-0.678317	1.023959
O29	O	-0.368779	-1.453238	0.405482
O30	O	0.131221	-0.953238	0.905482
O31	O	-0.219768	-1.453098	0.680356
O32	O	0.280232	-0.953098	1.180356
O33	O	-0.283984	-1.334630	0.680342
O34	O	0.216016	-0.834630	1.180342
C35	C	-0.251883	-1.393877	0.715348
C36	C	0.248117	-0.893877	1.215348
C37	C	-0.251894	-1.393935	0.822562
C38	C	0.248106	-0.893935	1.322562
C39	C	-0.251886	-1.143333	0.464721
C40	C	0.248114	-0.643333	0.964721
C41	C	-0.251894	-1.036119	0.464739
C42	C	0.248106	-0.536119	0.964739
C43	C	-0.388271	-1.393978	0.464717
C44	C	0.111729	-0.893978	0.964717
C45	C	-0.446386	-1.393992	0.464710
C46	C	0.053614	-0.893992	0.964710
C47	C	-0.806764	-1.455787	0.402836
C48	C	-0.306764	-0.955787	0.902836
C49	C	-0.861368	-1.455799	0.402810
C50	C	-0.361368	-0.955799	0.902810
O51	O	-0.889618	-1.508262	0.350316
O52	O	-0.389618	-1.008262	0.850316
N53	N	-0.888668	-1.394098	0.464484
N54	N	-0.388668	-0.894098	0.964484
C55	C	-0.861361	-1.332374	0.526182
C56	C	-0.361361	-0.832374	1.026182
O57	O	-0.889596	-1.279892	0.578637
O58	O	-0.389596	-0.779892	1.078637
C59	C	-0.806758	-1.332358	0.526203
C60	C	-0.306758	-0.832358	1.026203
C61	C	-0.779461	-1.394070	0.464531
C62	C	-0.279461	-0.894070	0.964531
C63	C	-0.779467	-1.517494	0.341169
C64	C	-0.279467	-1.017494	0.841169
C65	C	-0.724866	-1.517483	0.341197
C66	C	-0.224866	-1.017483	0.841197
C67	C	-0.697563	-1.455765	0.402893
C68	C	-0.197563	-0.955765	0.902893
C69	C	-0.724860	-1.394059	0.464560
C70	C	-0.224860	-0.894059	0.964560
C71	C	-0.779451	-1.270629	0.587895
C72	C	-0.279451	-0.770629	1.087895
C73	C	-0.724844	-1.270618	0.587910
C74	C	-0.224844	-0.770618	1.087910
C75	C	-0.697547	-1.332330	0.526239
C76	C	-0.197547	-0.832330	1.026239
C77	C	-0.642956	-1.332331	0.526283
C78	C	-0.142956	-0.832331	1.026283
N79	N	-0.615656	-1.394032	0.464609
N80	N	-0.115656	-0.894032	0.964609
C81	C	-0.642959	-1.455749	0.402914
C82	C	-0.142959	-0.955749	0.902914
C83	C	-0.976032	-1.332411	0.526131
C84	C	-0.476032	-0.832411	1.026131
C85	C	-1.030634	-1.332431	0.526116
C86	C	-0.530634	-0.832431	1.026116
C87	C	-1.030638	-1.455856	0.402742
C88	C	-0.530638	-0.955856	0.902742
C89	C	-0.976034	-1.455839	0.402763
C90	C	-0.476034	-0.955839	0.902763
C91	C	-0.948732	-1.394112	0.464457
C92	C	-0.448732	-0.894112	0.964457
C93	C	-0.528294	-1.455722	0.402978
C94	C	-0.028294	-0.955722	0.902978
C95	C	-0.473689	-1.455709	0.403015
C96	C	0.026311	-0.955709	0.903015
C97	C	-0.473690	-1.332281	0.526384
C98	C	0.026310	-0.832281	1.026384
C99	C	-0.528291	-1.332298	0.526352
C100	C	-0.028291	-0.832298	1.026352
C101	C	-0.555592	-1.394022	0.464641
C102	C	-0.055592	-0.894022	0.964641
O103	O	-0.614672	-1.279892	0.578747
O104	O	-0.114672	-0.779892	1.078747
O105	O	-0.614718	-1.508213	0.350458
O106	O	-0.114718	-1.008213	0.850458
C107	C	-0.116056	-1.393972	0.464681
C108	C	0.383944	-0.893972	0.964681
C109	C	-0.057942	-1.394145	0.464417
C110	C	0.442058	-0.894145	0.964417
C111	C	-0.251911	-1.645540	0.464748
C112	C	0.248089	-1.145540	0.964748
C113	C	-0.251916	-1.752754	0.464753
C114	C	0.248084	-1.252754	0.964753
C115	C	-0.251907	-0.839824	0.464742
C116	C	0.248093	-0.339824	0.964742
C117	C	-0.251898	-0.949056	0.464737
C118	C	0.248102	-0.449056	0.964737
C119	C	-0.251925	-1.394044	0.213141
C120	C	0.248075	-0.894044	0.713141
C121	C	-0.251936	-1.394085	0.105927
C122	C	0.248064	-0.894085	0.605927
C123	C	-0.251927	-1.394036	1.018857
C124	C	0.248073	-0.894036	1.518857
C125	C	-0.251910	-1.393977	0.909625
C126	C	0.248090	-0.893977	1.409625
H127	H	-0.451466	-1.505966	0.352794
H128	H	0.048534	-1.005966	0.852794
F129	F	-0.557343	-1.266624	0.591995
F130	F	-0.057343	-0.766624	1.091995
H131	H	-0.451450	-1.282036	0.576618
H132	H	0.048550	-0.782036	1.076618
F133	F	-0.808491	-1.204949	0.653538
F134	F	-0.308491	-0.704949	1.153538
H135	H	-0.550516	-1.505981	0.352724
H136	H	-0.050516	-1.005981	0.852724
F137	F	-0.695821	-1.583161	0.275553
F138	F	-0.195821	-1.083161	0.775553
H139	H	-0.702618	-1.220341	0.638140
H140	H	-0.202618	-0.720341	1.138140
F141	F	-0.808517	-1.583196	0.275507
F142	F	-0.308517	-1.083196	0.775507
H143	H	-0.953805	-1.282144	0.576375
H144	H	-0.453805	-0.782144	1.076375
H145	H	-0.953812	-1.506089	0.352543
H146	H	-0.453812	-1.006089	0.852543
H147	H	-1.052878	-1.506107	0.352504
H148	H	-0.552878	-1.006107	0.852504
H149	H	-1.052855	-1.282189	0.576345
H150	H	-0.552855	-0.782189	1.076345
