data_functionalizedCrystal
_audit_creation_method	'MofGen! by Chris Wilmer'
_symmetry_space_group_name_H-M	'P1'
_symmetry_Int_Tables_number	1
_symmetry_cell_setting	triclinic
loop_
_symmetry_equiv_pos_as_xyz
  x,y,z
_cell_length_a	13.262390
_cell_length_b	15.995292
_cell_length_c	12.376897
_cell_angle_alpha	77.327048
_cell_angle_beta	92.995385
_cell_angle_gamma	83.970448
loop_
_atom_site_label
_atom_site_type_symbol
_atom_site_fract_x
_atom_site_fract_y
_atom_site_fract_z
O1	O	1.298518	0.037249	0.493209
O2	O	1.009865	0.063103	0.404467
O3	O	1.162112	-0.072059	0.451275
O4	O	1.146271	0.172411	0.446402
O5	O	1.195998	-0.044866	0.273694
O6	O	1.043752	0.090295	0.226886
O7	O	1.332404	0.064442	0.315629
Zn8	Zn	1.193458	0.081686	0.243063
Zn9	Zn	1.148811	0.045858	0.477033
O10	O	1.180158	0.199604	0.268821
C11	C	0.989872	0.077751	0.304321
C12	C	0.879812	0.080875	0.270485
C13	C	1.178410	-0.089631	0.362289
C14	C	1.176475	-0.182501	0.361703
C15	C	0.495689	0.030375	0.562320
C16	C	0.599097	0.027436	0.594113
C17	C	0.669280	0.040796	0.513209
C18	C	0.636047	0.057095	0.400506
C19	C	0.532630	0.060028	0.368710
C20	C	0.706221	0.070448	0.319599
C21	C	0.672988	0.086747	0.206896
C22	C	0.569581	0.089680	0.175106
C23	C	0.499398	0.076321	0.256011
C24	C	0.809638	0.067515	0.351395
C25	C	0.846579	0.097168	0.157785
C26	C	0.743171	0.100107	0.125992
C27	C	1.169371	-0.519930	0.359508
C28	C	1.279335	-0.501325	0.392895
C29	C	1.281346	-0.404802	0.393941
C30	C	1.172897	-0.352527	0.360597
C31	C	1.098608	-0.394772	0.445111
C32	C	1.097269	-0.491518	0.444785
C33	C	1.133561	-0.460354	0.242152
C34	C	1.137888	-0.363834	0.242068
C35	C	1.174882	-0.257918	0.361213
C36	C	1.167381	-0.614539	0.358898
C37	C	1.352398	0.049793	0.415777
C38	C	1.462456	0.046668	0.449620
C39	C	1.163859	0.217175	0.357809
C40	C	1.165793	0.310044	0.358402
N41	N	1.223936	0.106137	0.083386
C42	C	1.047557	-0.035362	-0.325893
C43	C	1.026210	-0.052477	-0.214124
C44	C	1.075639	-0.012825	-0.139742
C45	C	1.146420	0.043944	-0.177138
C46	C	1.167775	0.061055	-0.288916
C47	C	1.195858	0.083593	-0.102764
C48	C	1.266639	0.140362	-0.140160
C49	C	1.287990	0.157471	-0.251928
C50	C	1.238560	0.117818	-0.326310
C51	C	1.174502	0.066482	0.009014
C52	C	1.294721	0.162900	0.045991
C53	C	1.316068	0.180014	-0.065777
N54	N	1.118342	0.021401	0.636712
H55	H	0.753478	0.038402	0.539101
H56	H	1.373699	0.226237	-0.096242
H57	H	1.058253	-0.026762	-0.048736
O58	O	0.994260	-0.078137	-0.406110
H59	H	0.910919	-0.059813	-0.409041
O60	O	1.098175	0.005255	0.049373
H61	H	1.023022	0.030150	0.003560
H62	H	0.415193	0.078716	0.230130
O63	O	0.634939	0.009856	0.715662
H64	H	0.672327	0.065224	0.732059
H65	H	0.968582	-0.098700	-0.183684
H66	H	1.018084	-0.360019	0.424343
O67	O	0.989385	-0.507098	0.418072
H68	H	0.987623	-0.576246	0.417630
O69	O	0.533730	0.107258	0.053552
H70	H	0.599901	0.116063	0.002633
O71	O	1.320251	-0.397667	0.508024
H72	H	1.337692	-0.463224	0.562663
O73	O	0.419998	0.015967	0.649575
H74	H	0.342508	0.020749	0.608528
O75	O	1.129050	-0.544641	0.560549
H76	H	1.145173	-0.501122	0.616250
H77	H	1.122358	-0.387923	0.532306
H78	H	1.334972	0.195187	0.106555
H79	H	1.307656	-0.543244	0.478158
H80	H	1.192207	-0.335517	0.179349
O81	O	0.845485	0.049938	0.472942
H82	H	0.807934	0.100814	0.510538
H83	H	0.903723	0.108045	0.091906
O84	O	0.707085	0.117785	0.004494
H85	H	0.744483	0.066991	-0.033344
O86	O	1.356729	-0.367325	0.315202
H87	H	1.392074	-0.418139	0.276034
O88	O	1.353814	-0.526074	0.313795
H89	H	1.355429	-0.595951	0.316003
O90	O	1.198587	-0.484159	0.154353
H91	H	1.257161	-0.538725	0.193388
H92	H	1.059899	-0.326491	0.211605
O93	O	1.026600	-0.474102	0.208285
H94	H	0.999038	-0.523113	0.274653
O95	O	1.364342	0.218690	-0.292256
H96	H	1.370895	0.223919	-0.382471
O97	O	1.261618	0.136255	-0.446856
H98	H	1.215364	0.099135	-0.492287
