data_functionalizedCrystal
_audit_creation_method	'MofGen! by Chris Wilmer'
_symmetry_space_group_name_H-M	'P1'
_symmetry_Int_Tables_number	1
_symmetry_cell_setting	triclinic
loop_
_symmetry_equiv_pos_as_xyz
  x,y,z
_cell_length_a	15.995350
_cell_length_b	14.853567
_cell_length_c	14.472311
_cell_angle_alpha	90.001151
_cell_angle_beta	89.992572
_cell_angle_gamma	96.436347
loop_
_atom_site_label
_atom_site_type_symbol
_atom_site_fract_x
_atom_site_fract_y
_atom_site_fract_z
O1	O	0.109324	-1.196216	-0.076773
O2	O	0.122346	-0.933739	-0.076788
O3	O	-0.006045	-1.072153	-0.076779
O4	O	0.237714	-1.057803	-0.076781
O5	O	-0.006061	-1.072143	0.076903
O6	O	0.122330	-0.933730	0.076894
O7	O	0.109307	-1.196207	0.076909
Cu8	Cu	0.115817	-1.064967	0.090934
Cu9	Cu	0.115836	-1.064979	-0.090813
O10	O	0.237698	-1.057793	0.076901
C11	C	-0.037248	-1.071555	0.000060
C12	C	-0.130201	-1.069776	0.000055
C13	C	0.121748	-0.900146	0.000051
C14	C	0.119980	-0.800065	0.000045
N15	N	0.115803	-1.064966	0.218765
C16	C	-0.467956	-1.063389	0.000058
C17	C	-0.420636	-0.964813	-0.000293
C18	C	-0.323944	-0.966592	0.000054
C19	C	-0.300391	-1.066557	0.000056
C20	C	-0.341421	-1.115173	0.087817
C21	C	-0.438060	-1.112696	0.087890
C22	C	-0.438397	-1.114743	-0.086875
C23	C	-0.341452	-1.114720	-0.088035
C24	C	-0.205692	-1.068353	0.000058
C25	C	-0.562655	-1.061596	0.000062
C26	C	0.268901	-1.058391	0.000059
C27	C	0.361854	-1.060170	0.000059
C28	C	0.109905	-1.229799	0.000068
C29	C	0.111674	-1.329881	0.000068
C30	C	0.036238	-0.387644	0.000067
C31	C	0.188769	-0.366158	0.000064
C32	C	0.190432	-0.460189	0.000061
C33	C	0.114996	-0.517953	0.000060
C34	C	0.037899	-0.481685	0.000061
C35	C	0.267528	-0.496464	0.000051
C36	C	0.269194	-0.590501	0.000047
C37	C	0.193758	-0.648266	0.000052
C38	C	0.116657	-0.611993	0.000054
C39	C	0.041221	-0.669757	0.000052
C40	C	-0.035880	-0.633485	0.000061
C41	C	-0.037538	-0.539450	0.000066
C42	C	0.195415	-0.742302	0.000047
C43	C	0.042882	-0.763797	0.000047
N44	N	0.115844	-1.064987	-0.218643
C45	C	0.115830	-1.064979	0.592856
C46	C	0.047361	-1.139282	0.553666
C47	C	0.047108	-1.139088	0.446578
C48	C	0.115817	-1.064974	0.407265
C49	C	0.096626	-0.970915	0.446151
C50	C	0.096142	-0.971354	0.553272
C51	C	0.203691	-1.083888	0.553362
C52	C	0.203105	-1.086023	0.446233
C53	C	0.115811	-1.064964	0.302377
C54	C	0.115834	-1.064982	0.697744
H55	H	-0.295560	-0.928377	-0.062857
N56	N	-0.321001	-1.211287	-0.095058
H57	H	-0.258016	-1.211833	-0.098973
H58	H	-0.343138	-1.246210	-0.038635
H59	H	-0.470224	-1.185069	0.091874
N60	N	0.222406	-1.177666	0.412553
H61	H	0.278620	-1.190826	0.437835
H62	H	0.177070	-1.225735	0.434459
H63	H	0.032063	-0.954689	0.578267
H64	H	-0.296130	-0.928112	0.063067
N65	N	-0.038517	-1.123523	0.589334
H66	H	-0.033263	-1.068462	0.630767
H67	H	-0.076522	-1.113351	0.535503
H68	H	0.144110	-0.914403	0.579198
H69	H	0.258190	-0.771830	0.000041
N70	N	0.352345	-0.629627	0.000051
H71	H	0.356440	-0.668164	-0.056919
H72	H	0.399834	-0.578719	0.000088
H73	H	0.058551	-1.209007	0.420287
N74	N	0.160907	-0.895902	0.412417
H75	H	0.203188	-0.922232	0.371505
H76	H	0.131670	-0.850518	0.376107
H77	H	0.058621	-1.209435	0.579425
N78	N	-0.039253	-1.123065	0.412650
H79	H	-0.034909	-1.066085	0.374046
H80	H	-0.063369	-1.176315	0.373932
N81	N	-0.445233	-0.912618	-0.083652
H82	H	-0.487290	-0.952361	-0.122000
H83	H	-0.471237	-0.857193	-0.062634
N84	N	-0.117241	-0.695790	0.000053
H85	H	-0.104484	-0.760863	0.000044
H86	H	-0.150841	-0.684057	0.057029
N87	N	-0.120686	-0.500319	0.000078
H88	H	-0.124766	-0.461781	-0.056891
H89	H	-0.168179	-0.551223	0.000116
N90	N	-0.046919	-0.348531	0.000089
H91	H	-0.036529	-0.280195	0.000098
H92	H	-0.079931	-0.369654	-0.056881
N93	N	-0.446651	-0.912850	0.082605
H94	H	-0.395612	-0.893185	0.121792
H95	H	-0.472833	-0.857707	0.061107
N96	N	0.273774	-1.018985	0.410792
H97	H	0.250102	-0.973815	0.368788
H98	H	0.303388	-0.986067	0.464688
N99	N	-0.465646	-1.072063	-0.174986
H100	H	-0.440151	-1.006766	-0.177888
H101	H	-0.446028	-1.106124	-0.229834
N102	N	0.270128	-0.303862	0.000056
H103	H	0.257377	-0.238787	0.000057
H104	H	0.303716	-0.315605	0.057028
H105	H	0.033276	-0.953840	0.419331
N106	N	-0.462375	-1.065729	0.174783
H107	H	-0.410340	-1.046824	0.212678
H108	H	-0.490390	-1.010397	0.157702
H109	H	0.328943	-0.449427	0.000042
N110	N	0.271189	-1.012118	0.586927
H111	H	0.245031	-0.967565	0.627518
H112	H	0.314457	-1.041636	0.623534
H113	H	-0.327211	-1.188614	0.091082
N114	N	0.228092	-1.172796	0.589138
H115	H	0.182434	-1.201719	0.631316
H116	H	0.235554	-1.214542	0.535404
H117	H	-0.470074	-1.187423	-0.087463
N118	N	-0.305328	-1.067714	-0.174039
H119	H	-0.331973	-1.098994	-0.230466
H120	H	-0.317296	-1.002384	-0.173400
H121	H	-0.313086	-1.081399	0.153124
H122	H	-0.018548	-0.810823	0.000049
