data_functionalizedCrystal
_audit_creation_method	'MofGen! by Chris Wilmer'
_symmetry_space_group_name_H-M	'P1'
_symmetry_Int_Tables_number	1
_symmetry_cell_setting	triclinic
loop_
_symmetry_equiv_pos_as_xyz
  x,y,z
_cell_length_a	16.704494
_cell_length_b	14.628931
_cell_length_c	14.628931
_cell_angle_alpha	60.000028
_cell_angle_beta	90.000492
_cell_angle_gamma	56.632160
loop_
_atom_site_label
_atom_site_type_symbol
_atom_site_fract_x
_atom_site_fract_y
_atom_site_fract_z
Zr1	Zr	0.815197	0.905010	-0.072169
O2	O	0.680079	1.111556	-0.226052
O3	O	0.856618	0.709448	-0.024996
O4	O	0.856618	0.900153	-0.215702
O5	O	0.680079	0.920851	0.115085
O6	O	0.995874	0.883827	-0.207537
O7	O	0.680079	0.920850	-0.035346
O8	O	0.995875	0.542690	0.133601
O9	O	0.680079	1.261988	-0.226052
O10	O	0.978209	0.773633	0.001216
O11	O	0.874283	0.785817	0.107388
O12	O	0.874283	1.010348	-0.117143
O13	O	0.770357	1.022532	-0.010971
Zr14	Zr	1.037295	0.878972	0.180773
Zr15	Zr	1.037295	0.878972	-0.059148
Zr16	Zr	0.815197	0.905010	0.167752
Zr17	Zr	0.815196	1.144932	-0.072170
Zr18	Zr	1.037295	0.639050	0.180773
O19	O	0.995874	1.074534	0.133599
O20	O	0.995874	1.074533	-0.207538
O21	O	0.680079	1.111557	0.115085
O22	O	1.172413	0.672426	0.334656
O23	O	1.172413	0.672425	-0.006481
O24	O	0.856618	0.709449	0.316141
O25	O	1.172413	0.863131	-0.006482
O26	O	0.995874	0.883829	0.324305
O27	O	0.856617	0.900155	0.316141
O28	O	1.172413	0.863131	0.143950
O29	O	0.856617	1.241291	-0.215702
O30	O	0.995874	0.542690	0.324306
O31	O	1.172413	0.521994	0.334656
O32	O	1.172413	0.521993	0.143951
O33	O	0.680078	1.261989	-0.035347
O34	O	0.856617	1.241292	-0.024997
O35	O	0.978209	0.773634	0.225747
O36	O	1.082134	0.761449	0.119574
O37	O	0.978209	0.998165	0.001215
O38	O	0.874283	1.010349	0.107388
C39	C	0.926246	0.591885	0.054302
C40	C	0.926247	0.490032	0.054303
C41	C	0.853338	0.531929	-0.028731
C42	C	0.853337	0.426661	-0.028733
C43	C	0.648435	0.924560	0.038014
C44	C	0.554148	0.935614	0.032486
C45	C	0.485481	0.709233	0.145693
C46	C	0.396893	0.719612	0.140502
C47	C	0.288384	0.966752	0.016921
C48	C	0.376972	0.956372	0.022112
C49	C	0.475519	0.827608	0.086499
C50	C	0.564108	0.817230	0.091682
C51	C	0.455598	1.064368	-0.031891
C52	C	0.367010	1.074748	-0.037082
C53	C	1.204057	0.859421	0.070589
C54	C	1.298343	0.848368	0.076117
C55	C	0.926246	0.891990	-0.245803
C56	C	0.926246	0.891990	-0.347656
C57	C	0.926245	1.192097	0.054301
C58	C	0.926245	1.293950	0.054301
C59	C	0.874692	1.009416	-0.451779
C60	C	0.874691	1.009419	-0.557051
C61	C	0.926245	0.891992	0.354407
C62	C	0.926245	0.891992	0.456259
C63	C	1.204057	0.559315	0.070590
C64	C	1.298344	0.446408	0.076118
C65	C	0.926246	0.591886	0.354407
C66	C	0.926246	0.490033	0.456260
C67	C	1.204057	0.559316	0.370695
C68	C	1.298344	0.446410	0.478076
C69	C	0.648435	1.224665	-0.262091
C70	C	0.554148	1.337572	-0.369472
C71	C	0.648434	1.224666	0.038014
C72	C	0.554147	1.337573	0.032486
C73	C	0.926246	1.192096	-0.245804
C74	C	0.926246	1.293949	-0.347657
C75	C	1.288374	0.399746	0.016922
C76	C	1.376958	0.293672	0.022093
C77	C	1.475511	0.234256	0.086468
C78	C	1.485479	0.280928	0.145665
C79	C	1.396896	0.387007	0.140487
C80	C	1.396879	0.387026	0.473082
C81	C	1.485480	0.280951	0.573969
C82	C	1.475543	0.234254	0.679848
C83	C	1.376997	0.293648	0.684839
C84	C	1.288399	0.399728	0.583953
C85	C	0.455612	1.396967	-0.364479
C86	C	0.367012	1.503072	-0.465366
C87	C	0.376949	1.549774	-0.571245
C88	C	0.475495	1.490374	-0.576235
C89	C	0.564093	1.384277	-0.475349
C90	C	0.564117	1.384246	0.091672
C91	C	0.475534	1.490346	0.086474
C92	C	0.376981	1.549766	0.022096
C93	C	0.367013	1.503089	-0.037097
C94	C	0.455596	1.396997	-0.031905
C95	C	0.977800	0.438580	0.560383
C96	C	0.977801	0.333310	0.665655
H97	H	0.790915	0.462357	-0.099819
H98	H	0.286759	1.551484	-0.089512
H99	H	0.304798	1.636165	-0.653384
H100	H	0.208135	1.071585	-0.035483
F101	F	0.486164	1.540000	0.149483
H102	H	1.404990	0.425030	0.386880
H103	H	0.970380	0.791454	-0.454426
F104	F	1.183495	0.462966	-0.051601
H105	H	1.565733	0.232537	0.198077
H106	H	0.304859	1.636151	0.017878
H107	H	1.547694	0.147876	0.761988
H108	H	0.988664	0.258245	0.125397
F109	F	1.569781	0.121356	0.091970
H110	H	0.830547	1.109953	-0.646369
H111	H	0.882105	0.456154	0.445052
H112	H	0.447463	1.359000	-0.080099
F113	F	1.035485	0.482872	0.575040
F114	F	1.407523	0.436650	0.203503
H115	H	0.970386	0.791458	-0.336448
H116	H	1.565712	0.232602	0.569886
H117	H	1.368922	0.255612	0.771059
H118	H	1.368822	0.255685	-0.026113
H119	H	0.790923	0.645732	-0.099822
H120	H	1.208170	0.448066	0.588034
H121	H	0.988666	0.376228	0.125388
H122	H	0.830560	1.109947	-0.462987
F123	F	0.445013	1.347281	-0.251805
F124	F	0.262142	1.566268	-0.460030
F125	F	0.590363	0.572195	0.214204
F126	F	0.668988	0.680190	0.160204
F127	F	1.035500	0.275500	0.782400
F128	F	0.262124	1.211780	-0.105599
F129	F	0.868558	0.351739	0.535605
H130	H	0.405012	0.623219	0.188706
H131	H	0.447492	1.160759	-0.080095
H132	H	0.483573	1.528412	-0.662454
F133	F	0.668960	1.321068	-0.480681
H134	H	0.644356	1.335874	0.144102
