data_functionalizedCrystal
_audit_creation_method	'MofGen! by Chris Wilmer'
_symmetry_space_group_name_H-M	'P1'
_symmetry_Int_Tables_number	1
_symmetry_cell_setting	triclinic
loop_
_symmetry_equiv_pos_as_xyz
  x,y,z
_cell_length_a	27.731988
_cell_length_b	26.210047
_cell_length_c	14.519731
_cell_angle_alpha	89.996472
_cell_angle_beta	96.846389
_cell_angle_gamma	89.996586
loop_
_atom_site_label
_atom_site_type_symbol
_atom_site_fract_x
_atom_site_fract_y
_atom_site_fract_z
O1	O	-0.641478	0.042364	0.109455
O2	O	-0.141478	0.542364	0.609455
O3	O	-0.500761	0.042380	0.126197
O4	O	-0.000761	0.542380	0.626197
O5	O	-0.574845	0.042367	-0.016477
O6	O	-0.074845	0.542367	0.483523
O7	O	-0.567394	0.042377	0.252130
O8	O	-0.067394	0.542377	0.752130
O9	O	-0.574830	-0.042491	-0.016455
O10	O	-0.074830	0.457509	0.483545
O11	O	-0.500746	-0.042478	0.126220
O12	O	-0.000746	0.457522	0.626220
O13	O	-0.641463	-0.042494	0.109478
O14	O	-0.141463	0.457506	0.609478
Cu15	Cu	-0.571104	-0.050235	0.117851
Cu16	Cu	-0.071104	0.449765	0.617851
Cu17	Cu	-0.571120	0.050120	0.117824
Cu18	Cu	-0.071120	0.550120	0.617824
O19	O	-0.567379	-0.042481	0.252152
O20	O	-0.067379	0.457519	0.752152
C21	C	-0.482744	-0.000047	0.125865
C22	C	0.017256	0.499953	0.625865
C23	C	-0.429083	-0.000042	0.124833
C24	C	0.070917	0.499958	0.624833
C25	C	-0.096325	-0.046321	0.118340
C26	C	0.403675	0.453679	0.618340
C27	C	0.105353	-0.046329	0.114415
C28	C	0.605353	0.453671	0.614415
O29	O	0.131435	-0.085668	0.113878
O30	O	0.631435	0.414332	0.613878
N31	N	0.130562	-0.000073	0.113915
N32	N	0.630562	0.499927	0.613915
C33	C	0.105349	0.046188	0.114391
C34	C	0.605349	0.546188	0.614391
O35	O	0.131418	0.085531	0.113866
O36	O	0.631418	0.585531	0.613866
C37	C	-0.096328	0.046195	0.118310
C38	C	0.403672	0.546195	0.618310
C39	C	-0.121534	-0.000064	0.118819
C40	C	0.378466	0.499936	0.618819
C41	C	-0.121531	-0.092576	0.118848
C42	C	0.378469	0.407424	0.618848
C43	C	-0.171947	-0.092574	0.119835
C44	C	0.328053	0.407426	0.619835
C45	C	-0.197157	-0.046316	0.120313
C46	C	0.302843	0.453684	0.620313
C47	C	-0.171950	-0.000061	0.119805
C48	C	0.328050	0.499939	0.619805
C49	C	-0.121541	0.092456	0.118779
C50	C	0.378459	0.592456	0.618779
C51	C	-0.171964	0.092454	0.119756
C52	C	0.328036	0.592454	0.619756
C53	C	-0.197170	0.046195	0.120266
C54	C	0.302830	0.546195	0.620266
C55	C	-0.247576	0.046199	0.121270
C56	C	0.252424	0.546199	0.621270
N57	N	-0.272786	-0.000057	0.121770
N58	N	0.227214	0.499943	0.621770
C59	C	-0.247576	-0.046314	0.121292
C60	C	0.252424	0.453686	0.621292
C61	C	0.211233	0.046181	0.112335
C62	C	0.711233	0.546181	0.612335
C63	C	0.261652	0.046179	0.111357
C64	C	0.761652	0.546179	0.611357
C65	C	0.261652	-0.046338	0.111379
C66	C	0.761652	0.453662	0.611379
C67	C	0.211233	-0.046336	0.112364
C68	C	0.711233	0.453664	0.612364
C69	C	0.186023	-0.000075	0.112835
C70	C	0.686023	0.499925	0.612835
C71	C	-0.353453	-0.046306	0.123364
C72	C	0.146547	0.453694	0.623364
C73	C	-0.403873	-0.046299	0.124354
C74	C	0.096127	0.453701	0.624354
C75	C	-0.403870	0.046218	0.124327
C76	C	0.096130	0.546218	0.624327
C77	C	-0.353453	0.046211	0.123342
C78	C	0.146547	0.546211	0.623342
C79	C	-0.328247	-0.000054	0.122857
C80	C	0.171753	0.499946	0.622857
O81	O	-0.273690	0.085518	0.121797
O82	O	0.226310	0.585518	0.621797
O83	O	-0.273655	-0.085652	0.121796
O84	O	0.226345	0.414348	0.621796
C85	C	-0.045909	-0.046323	0.117354
C86	C	0.454091	0.453677	0.617354
C87	C	-0.020702	-0.000068	0.116846
C88	C	0.479298	0.499932	0.616846
C89	C	-0.045912	0.046189	0.117325
C90	C	0.454088	0.546189	0.617325
C91	C	0.029717	-0.000070	0.115868
C92	C	0.529717	0.499930	0.615868
C93	C	0.054927	-0.046328	0.115389
C94	C	0.554927	0.453672	0.615389
C95	C	0.029717	-0.092583	0.115889
C96	C	0.529717	0.407417	0.615889
C97	C	-0.020699	-0.092581	0.116876
C98	C	0.479301	0.407419	0.616876
C99	C	-0.020702	0.092445	0.116825
C100	C	0.479298	0.592445	0.616825
C101	C	0.029714	0.092439	0.115839
C102	C	0.529714	0.592439	0.615839
C103	C	0.054923	0.046181	0.115361
C104	C	0.554923	0.546181	0.615361
N105	N	-0.571095	-0.120818	0.117869
N106	N	-0.071095	0.379182	0.617869
C107	C	0.340521	-0.000069	0.109818
C108	C	0.840521	0.499931	0.609818
C109	C	0.286861	-0.000078	0.110878
C110	C	0.786861	0.499922	0.610878
C111	C	-0.603922	-0.473338	0.054662
C112	C	-0.103922	0.026662	0.554662
C113	C	-0.603932	-0.686997	0.054649
C114	C	-0.103932	-0.186997	0.554649
O115	O	-0.631824	-0.714624	0.000913
O116	O	-0.131824	-0.214624	0.500913
N117	N	-0.571123	-0.713712	0.117804
N118	N	-0.071123	-0.213712	0.617804
C119	C	-0.538307	-0.687010	0.180962
C120	C	-0.038307	-0.187010	0.680962
O121	O	-0.510397	-0.714636	0.234673
O122	O	-0.010397	-0.214636	0.734673
C123	C	-0.538294	-0.473352	0.180970
C124	C	-0.038294	0.026648	0.680970
C125	C	-0.571109	-0.446640	0.117818
C126	C	-0.071109	0.053360	0.617818
C127	C	-0.636733	-0.446625	-0.008486
C128	C	-0.136733	0.053375	0.491514
C129	C	-0.636732	-0.393214	-0.008479
C130	C	-0.136732	0.106786	0.491521
C131	C	-0.603919	-0.366515	0.054677
C132	C	-0.103919	0.133485	0.554677
C133	C	-0.571108	-0.393228	0.117825
C134	C	-0.071108	0.106772	0.617825
C135	C	-0.505476	-0.446651	0.244123
C136	C	-0.005476	0.053349	0.744123
C137	C	-0.505475	-0.393233	0.244118
C138	C	-0.005475	0.106767	0.744118
C139	C	-0.538290	-0.366520	0.180966
C140	C	-0.038290	0.133480	0.680966
C141	C	-0.538294	-0.313118	0.180987
C142	C	-0.038294	0.186882	0.680987
N143	N	-0.571103	-0.286403	0.117833
N144	N	-0.071103	0.213597	0.617833
C145	C	-0.603915	-0.313101	0.054677
C146	C	-0.103915	0.186899	0.554677
C147	C	-0.538316	-0.799183	0.180955
C148	C	-0.038316	-0.299183	0.680955
C149	C	-0.538320	-0.852598	0.180954
C150	C	-0.038320	-0.352598	0.680954
C151	C	-0.603945	-0.852581	0.054640
C152	C	-0.103945	-0.352581	0.554640
C153	C	-0.603943	-0.799165	0.054646
C154	C	-0.103943	-0.299165	0.554646
C155	C	-0.571125	-0.772468	0.117800
C156	C	-0.071125	-0.272468	0.617800
C157	C	-0.603911	-0.200933	0.054698
C158	C	-0.103911	0.299067	0.554698
C159	C	-0.603908	-0.147517	0.054713
C160	C	-0.103908	0.352483	0.554713
C161	C	-0.538282	-0.147539	0.181024
C162	C	-0.038282	0.352461	0.681024
C163	C	-0.538286	-0.200950	0.181012
C164	C	-0.038286	0.299050	0.681012
C165	C	-0.571102	-0.227646	0.117841
C166	C	-0.071102	0.272354	0.617841
O167	O	-0.510413	-0.285458	0.234688
O168	O	-0.010413	0.214542	0.734688
O169	O	-0.631813	-0.285466	0.000961
O170	O	-0.131813	0.214534	0.500961
C171	C	-0.603923	-0.526750	0.054655
C172	C	-0.103923	-0.026750	0.554655
C173	C	-0.571111	-0.553463	0.117803
C174	C	-0.071111	-0.053463	0.617803
C175	C	-0.538298	-0.526764	0.180959
C176	C	-0.038298	-0.026764	0.680959
C177	C	-0.571115	-0.606877	0.117802
C178	C	-0.071115	-0.106877	0.617802
C179	C	-0.603928	-0.633575	0.054647
C180	C	-0.103928	-0.133575	0.554647
C181	C	-0.636737	-0.606860	-0.008508
C182	C	-0.136737	-0.106860	0.491492
C183	C	-0.636736	-0.553448	-0.008500
C184	C	-0.136736	-0.053448	0.491500
C185	C	-0.505489	-0.553479	0.244113
C186	C	-0.005489	-0.053479	0.744113
C187	C	-0.505494	-0.606891	0.244102
C188	C	-0.005494	-0.106891	0.744102
C189	C	-0.538306	-0.633590	0.180946
C190	C	-0.038306	-0.133590	0.680946
C191	C	-0.574488	-0.000062	-0.050819
C192	C	-0.074488	0.499938	0.449181
C193	C	-0.573442	-0.000063	-0.153181
C194	C	-0.073442	0.499937	0.346819
N195	N	-0.571133	0.120704	0.117799
N196	N	-0.071133	0.620704	0.617799
C197	C	-0.572592	-0.000061	-0.236310
C198	C	-0.072592	0.499939	0.263690
C199	C	-0.571530	-0.000057	-0.340600
C200	C	-0.071530	0.499943	0.159400
C201	C	-0.570687	-0.000054	-0.423724
C202	C	-0.070687	0.499946	0.076276
C203	C	-0.569625	-0.000051	-0.528020
C204	C	-0.069625	0.499949	-0.028020
C205	C	-0.567736	-0.000051	0.286494
C206	C	-0.067736	0.499949	0.786494
C207	C	-0.568782	-0.000048	0.388856
C208	C	-0.068782	0.499952	0.888856
H209	H	-0.101011	-0.130247	0.118457
H210	H	0.398989	0.369753	0.618457
N211	N	-0.327710	0.093466	0.122816
N212	N	0.172290	0.593466	0.622816
N213	N	-0.337750	0.124433	0.057885
N214	N	0.162250	0.624433	0.557885
H215	H	-0.319571	0.157808	0.057504
H216	H	0.180429	0.657808	0.557504
H217	H	0.190712	0.083854	0.112718
H218	H	0.690712	0.583854	0.612718
H219	H	-0.192466	-0.130242	0.120244
H220	H	0.307534	0.369758	0.620244
H221	H	-0.511567	-0.125792	0.232447
H222	H	-0.011567	0.374208	0.732447
H223	H	-0.663456	-0.531703	-0.059925
H224	H	-0.163456	-0.031703	0.440075
H225	H	-0.478755	-0.468393	0.295547
H226	H	0.021245	0.031607	0.795547
H227	H	-0.663453	-0.468359	-0.059919
H228	H	-0.163453	0.031641	0.440081
H229	H	-0.511604	-0.874343	0.232388
H230	H	-0.011604	-0.374343	0.732388
N231	N	-0.471965	-0.634165	0.308617
N232	N	0.028035	-0.134165	0.808617
N233	N	-0.427290	-0.628195	0.307947
N234	N	0.072710	-0.128195	0.807947
H235	H	-0.403608	-0.647455	0.353505
H236	H	0.096392	-0.147455	0.853505
N237	N	0.055467	0.139690	0.115327
N238	N	0.555467	0.639690	0.615327
N239	N	0.088004	0.150019	0.179798
N240	N	0.588004	0.650019	0.679798
H241	H	0.106192	0.183389	0.179430
H242	H	0.606192	0.683389	0.679430
H243	H	-0.630663	-0.874328	0.003217
H244	H	-0.130663	-0.374328	0.503217
H245	H	0.282187	-0.084003	0.110992
H246	H	0.782187	0.415997	0.610992
H247	H	-0.192487	0.130126	0.120140
H248	H	0.307513	0.630126	0.620140
N249	N	-0.637441	-0.771889	-0.009916
N250	N	-0.137441	-0.271889	0.490084
N251	N	-0.666718	-0.795740	-0.066325
N252	N	-0.166718	-0.295740	0.433675
H253	H	-0.690368	-0.776479	-0.111944
H254	H	-0.190368	-0.276479	0.388056
N255	N	-0.471973	-0.526203	0.308621
N256	N	0.028027	-0.026203	0.808621
N257	N	-0.441942	-0.496396	0.279783
N258	N	0.058058	0.003604	0.779783
H259	H	-0.418271	-0.477132	0.325348
H260	H	0.081729	0.022868	0.825348
N261	N	-0.429633	0.093462	0.124830
N262	N	0.070367	0.593462	0.624830
N263	N	-0.474649	0.093451	0.125712
N264	N	0.025351	0.593451	0.625712
H265	H	-0.492846	0.126818	0.126065
H266	H	0.007154	0.626818	0.626065
H267	H	-0.041217	-0.130250	0.117290
H268	H	0.458783	0.369750	0.617290
H269	H	-0.424394	-0.083970	0.124772
H270	H	0.075606	0.416030	0.624772
N271	N	-0.637417	-0.120228	-0.009815
N272	N	-0.137417	0.379772	0.490185
N273	N	-0.622025	-0.090422	-0.066845
N274	N	-0.122025	0.409578	0.433155
H275	H	-0.645688	-0.071148	-0.112419
H276	H	-0.145688	0.428852	0.387581
N277	N	-0.637433	-0.228189	-0.009838
N278	N	-0.137433	0.271811	0.490162
N279	N	-0.666724	-0.204324	-0.066211
N280	N	-0.166724	0.295676	0.433789
H281	H	-0.690401	-0.223573	-0.111787
H282	H	-0.190401	0.276427	0.388213
H283	H	-0.511591	-0.777450	0.232386
H284	H	-0.011591	-0.277450	0.732386
H285	H	-0.663451	-0.371467	-0.059905
H286	H	-0.163451	0.128533	0.440095
H287	H	-0.478749	-0.371499	0.295546
H288	H	0.021251	0.128501	0.795546
H289	H	-0.663456	-0.628606	-0.059928
H290	H	-0.163456	-0.128606	0.440072
N291	N	-0.504766	-0.228232	0.245529
N292	N	-0.004766	0.271768	0.745529
N293	N	-0.475471	-0.204385	0.301912
N294	N	0.024529	0.295615	0.801912
H295	H	-0.451793	-0.223649	0.347472
H296	H	0.048207	0.276351	0.847472
H297	H	-0.332935	-0.083980	0.122978
H298	H	0.167065	0.416020	0.622978
H299	H	-0.101027	0.130125	0.118363
H300	H	0.398973	0.630125	0.618363
H301	H	0.282171	0.083848	0.110957
H302	H	0.782171	0.583848	0.610957
N303	N	0.185496	-0.093592	0.112896
N304	N	0.685496	0.406408	0.612896
N305	N	0.208017	-0.134888	0.112481
N306	N	0.708017	0.365112	0.612481
H307	H	0.189843	-0.168265	0.112860
H308	H	0.689843	0.331735	0.612860
N309	N	0.055482	-0.139830	0.115411
N310	N	0.555482	0.360170	0.615411
N311	N	0.100498	-0.139819	0.114535
N312	N	0.600498	0.360181	0.614535
H313	H	0.118697	-0.173185	0.114195
H314	H	0.618697	0.326815	0.614195
H315	H	-0.041223	0.130114	0.117212
H316	H	0.458777	0.630114	0.617212
