data_functionalizedCrystal
_audit_creation_method	'MofGen! by Chris Wilmer'
_symmetry_space_group_name_H-M	'P1'
_symmetry_Int_Tables_number	1
_symmetry_cell_setting	triclinic
loop_
_symmetry_equiv_pos_as_xyz
  x,y,z
_cell_length_a	12.827893
_cell_length_b	12.645330
_cell_length_c	12.827885
_cell_angle_alpha	89.970832
_cell_angle_beta	89.980538
_cell_angle_gamma	90.017662
loop_
_atom_site_label
_atom_site_type_symbol
_atom_site_fract_x
_atom_site_fract_y
_atom_site_fract_z
Zn1	Zn	1.597655	-0.421987	-0.590855
Zn2	Zn	1.597541	-0.599288	-0.416117
Zn3	Zn	1.422896	-0.422039	-0.416128
Zn4	Zn	1.422875	-0.599209	-0.590817
O5	O	1.510242	-0.510631	-0.503479
O6	O	1.743876	-0.445518	-0.567686
O7	O	1.574336	-0.575831	-0.269883
O8	O	1.446134	-0.273685	-0.439326
O9	O	1.743792	-0.575780	-0.439308
O10	O	1.574529	-0.273647	-0.567697
O11	O	1.446024	-0.445607	-0.269891
O12	O	1.276657	-0.445530	-0.439290
O13	O	1.446098	-0.575645	-0.737058
O14	O	1.276641	-0.575695	-0.567633
O15	O	1.574509	-0.445441	-0.737086
O16	O	1.574315	-0.747625	-0.439271
O17	O	1.445988	-0.747566	-0.567623
C18	C	1.238732	-0.510610	-0.503459
C19	C	1.122579	-0.510627	-0.503476
C20	C	1.070814	-0.575138	-0.566886
C21	C	0.950763	-0.575157	-0.566904
C22	C	1.510165	-0.786060	-0.503465
C23	C	1.510228	-0.903890	-0.503493
C24	C	1.429831	-1.071462	-0.584488
C25	C	1.429419	-0.948902	-0.584228
C26	C	1.480415	-0.948493	-0.393362
C27	C	1.479925	-1.071091	-0.393854
C28	C	1.620931	-1.070978	-0.531736
C29	C	1.620252	-0.948371	-0.534144
C30	C	1.782812	-0.510652	-0.503500
C31	C	1.898965	-0.510661	-0.503509
C32	C	1.510314	-0.510528	-0.776050
C33	C	1.510344	-0.510484	-0.892203
C34	C	1.510347	-0.234125	-0.503517
C35	C	1.510391	-0.116295	-0.503533
C36	C	1.446823	-0.574887	-0.943974
C37	C	1.446853	-0.574843	-1.064024
C38	C	1.510230	-0.510656	-0.231969
C39	C	1.510402	-0.510402	-0.115817
H40	H	0.943475	-0.455432	-0.449214
O41	O	1.381897	-0.640825	-0.890994
C42	C	1.322830	-0.700688	-0.962439
H43	H	1.365571	-0.704381	-1.040281
H44	H	1.243458	-0.661889	-0.973991
C45	C	1.255297	-0.808963	-0.824120
C46	C	1.307797	-0.813507	-0.919724
H47	H	1.246019	-0.878554	-0.797771
H48	H	1.295088	-0.768631	-0.775985
H49	H	1.189159	-0.776626	-0.833760
H50	H	1.373938	-0.845831	-0.910081
H51	H	1.268016	-0.853848	-0.967857
O52	O	1.546763	-1.106633	-0.319403
C53	C	1.491633	-1.168487	-0.246377
H54	H	1.417489	-1.200348	-0.283955
H55	H	1.470302	-1.117755	-0.176099
C56	C	1.651447	-1.222415	-0.164627
C57	C	1.560386	-1.261554	-0.210784
H58	H	1.693858	-1.279820	-0.142667
H59	H	1.688590	-1.180739	-0.213823
H60	H	1.633658	-1.180138	-0.106068
H61	H	1.578176	-1.303818	-0.269349
H62	H	1.523248	-1.303238	-0.161596
O63	O	1.575202	-0.444514	-0.945229
C64	C	1.552400	-0.338840	-0.918667
H65	H	1.512279	-0.336597	-0.839390
H66	H	1.498648	-0.303166	-0.980075
C67	C	1.703580	-0.277384	-1.011159
C68	C	1.654310	-0.274628	-0.913786
H69	H	1.766441	-0.237772	-1.008152
H70	H	1.718940	-0.348577	-1.029058
H71	H	1.658775	-0.247657	-1.062322
H72	H	1.699109	-0.304367	-0.862627
H73	H	1.638960	-0.203438	-0.895878
O74	O	1.548051	-0.913710	-0.319306
C75	C	1.493132	-0.855757	-0.243166
H76	H	1.407690	-0.880565	-0.243663
H77	H	1.499235	-0.767681	-0.261192
C78	C	1.645258	-0.847446	-0.134362
C79	C	1.540318	-0.877922	-0.134966
H80	H	1.674366	-0.861113	-0.067619
H81	H	1.682260	-0.886486	-0.185660
H82	H	1.650330	-0.774051	-0.149388
H83	H	1.535249	-0.951318	-0.119953
H84	H	1.503316	-0.838894	-0.083663
O85	O	1.069551	-0.444803	-0.438572
C86	C	1.096077	-0.467843	-0.334355
H87	H	1.175342	-0.508512	-0.332045
H88	H	1.034644	-0.522368	-0.299130
C89	C	1.003611	-0.314469	-0.274053
C90	C	1.100970	-0.364411	-0.271215
H91	H	1.006625	-0.250669	-0.235103
H92	H	0.985736	-0.298948	-0.344265
H93	H	0.952427	-0.359917	-0.244701
H94	H	1.152149	-0.318969	-0.300579
H95	H	1.118853	-0.379923	-0.201006
H96	H	1.642735	-0.919214	-0.615195
H97	H	1.392464	-0.629974	-1.108547
H98	H	1.347471	-0.919669	-0.565543
H99	H	1.115373	-0.630350	-0.621164
H100	H	1.348394	-1.102364	-0.566042
H101	H	0.906247	-0.630390	-0.621189
H102	H	1.448072	-0.918742	-0.665889
H103	H	1.448312	-1.100867	-0.666417
H104	H	1.399120	-1.099784	-0.369962
H105	H	1.400453	-0.917884	-0.369038
O106	O	1.653559	-1.107698	-0.625876
C107	C	1.752743	-1.065588	-0.648788
H108	H	1.793080	-1.041564	-0.573248
H109	H	1.743721	-0.993308	-0.701163
C110	C	1.769246	-1.179188	-0.797886
C111	C	1.818791	-1.149690	-0.705105
H112	H	1.809987	-1.231063	-0.832629
H113	H	1.702422	-1.207556	-0.782453
H114	H	1.761730	-1.118947	-0.841519
H115	H	1.826295	-1.209927	-0.661468
H116	H	1.885619	-1.121334	-0.720532
O117	O	1.695500	-0.911753	-0.468806
C118	C	1.650104	-0.844747	-0.393624
H119	H	1.563786	-0.864501	-0.385318
H120	H	1.659085	-0.758896	-0.419284
C121	C	1.811006	-0.836576	-0.298258
C122	C	1.704989	-0.860845	-0.288050
H123	H	1.844863	-0.846502	-0.233136
H124	H	1.841592	-0.881716	-0.348911
H125	H	1.818476	-0.765035	-0.319644
H126	H	1.697521	-0.932388	-0.266677
H127	H	1.674403	-0.815718	-0.237390
H128	H	1.564783	-0.455256	-1.071301
H129	H	1.680950	-1.099970	-0.472773
