data_functionalizedCrystal
_audit_creation_method	'MofGen! by Chris Wilmer'
_symmetry_space_group_name_H-M	'P1'
_symmetry_Int_Tables_number	1
_symmetry_cell_setting	triclinic
loop_
_symmetry_equiv_pos_as_xyz
  x,y,z
_cell_length_a	18.101398
_cell_length_b	18.101397
_cell_length_c	18.101389
_cell_angle_alpha	90.022030
_cell_angle_beta	90.008593
_cell_angle_gamma	90.018533
loop_
_atom_site_label
_atom_site_type_symbol
_atom_site_fract_x
_atom_site_fract_y
_atom_site_fract_z
Zn1	Zn	-1.132159	0.295010	-0.418509
Zn2	Zn	-0.798826	0.628343	-0.085176
Zn3	Zn	-0.465492	0.961677	0.248157
Zn4	Zn	-1.132071	0.418836	-0.294660
Zn5	Zn	-0.798737	0.752169	0.038673
Zn6	Zn	-0.465404	1.085502	0.372007
Zn7	Zn	-1.008318	0.295001	-0.294704
Zn8	Zn	-0.674984	0.628335	0.038629
Zn9	Zn	-0.341651	0.961668	0.371962
Zn10	Zn	-1.008284	0.418803	-0.418482
Zn11	Zn	-0.674951	0.752136	-0.085149
Zn12	Zn	-0.341618	1.085470	0.248184
O13	O	-1.070208	0.356912	-0.356589
O14	O	-0.736875	0.690246	-0.023256
O15	O	-0.403541	1.023579	0.310078
O16	O	-1.235780	0.311453	-0.402073
O17	O	-0.902447	0.644786	-0.068740
O18	O	-0.569113	0.978120	0.264594
O19	O	-1.115632	0.402419	-0.191033
O20	O	-0.782298	0.735752	0.142300
O21	O	-0.448965	1.069085	0.475634
O22	O	-1.024796	0.191370	-0.311157
O23	O	-0.691463	0.524703	0.022176
O24	O	-0.358130	0.858036	0.355509
O25	O	-1.235715	0.402427	-0.311081
O26	O	-0.902382	0.735761	0.022252
O27	O	-0.569049	1.069094	0.355585
O28	O	-1.115782	0.191376	-0.402116
O29	O	-0.782449	0.524709	-0.068783
O30	O	-0.449115	0.858043	0.264551
O31	O	-1.024711	0.311438	-0.191066
O32	O	-0.691378	0.644772	0.142268
O33	O	-0.358044	0.978105	0.475601
O34	O	-0.904681	0.311406	-0.311131
O35	O	-0.571347	0.644740	0.022202
O36	O	-0.238014	0.978073	0.355535
O37	O	-1.024740	0.402371	-0.522119
O38	O	-0.691406	0.735705	-0.188786
O39	O	-0.358073	1.069038	0.144548
O40	O	-0.904656	0.402363	-0.402070
O41	O	-0.571323	0.735696	-0.068737
O42	O	-0.237989	1.069030	0.264596
O43	O	-1.115750	0.311421	-0.522139
O44	O	-0.782416	0.644755	-0.188805
O45	O	-0.449083	0.978088	0.144528
O46	O	-1.115599	0.522464	-0.311055
O47	O	-0.782266	0.855798	0.022278
O48	O	-0.448933	1.189131	0.355611
O49	O	-1.024654	0.522440	-0.402027
O50	O	-0.691321	0.855773	-0.068694
O51	O	-0.357987	1.189107	0.264639
C52	C	-0.877797	0.356881	-0.356603
C53	C	-0.544464	0.690214	-0.023270
C54	C	-0.211131	1.023547	0.310063
C55	C	-0.795483	0.356885	-0.356627
C56	C	-0.462150	0.690218	-0.023294
C57	C	-0.128817	1.023552	0.310040
C58	C	-0.496392	0.356925	-0.356602
C59	C	-0.163059	0.690258	-0.023269
C60	C	0.170274	1.023591	0.310065
C61	C	-0.527727	0.414429	-0.413535
C62	C	-0.194394	0.747762	-0.080202
C63	C	0.138940	1.081096	0.253131
C64	C	-0.613345	0.414250	-0.413768
C65	C	-0.280012	0.747584	-0.080434
C66	C	0.053321	1.080917	0.252899
C67	C	-0.644775	0.356906	-0.356614
C68	C	-0.311442	0.690239	-0.023281
C69	C	0.021892	1.023572	0.310052
C70	C	-0.613710	0.278907	-0.377948
C71	C	-0.280377	0.612240	-0.044614
C72	C	0.052956	0.945573	0.288719
C73	C	-0.528065	0.279251	-0.378354
C74	C	-0.194732	0.612584	-0.045021
C75	C	0.138601	0.945918	0.288313
C76	C	-0.527942	0.376732	-0.278197
C77	C	-0.194609	0.710065	0.055136
C78	C	0.138724	1.043399	0.388469
C79	C	-0.613593	0.378445	-0.278614
C80	C	-0.280259	0.711778	0.054719
C81	C	0.053074	1.045111	0.388052
C82	C	-0.728634	0.356890	-0.356620
C83	C	-0.395301	0.690224	-0.023287
C84	C	-0.061968	1.023557	0.310047
C85	C	-0.412533	0.356935	-0.356598
C86	C	-0.079200	0.690268	-0.023265
C87	C	0.254134	1.023602	0.310069
C88	C	-1.070134	0.549323	-0.356550
C89	C	-0.736800	0.882656	-0.023216
C90	C	-0.403467	1.215990	0.310117
C91	C	-1.070170	0.631637	-0.356558
C92	C	-0.736836	0.964970	-0.023224
C93	C	-0.403503	1.298304	0.310109
C94	C	-1.070251	0.356894	-0.549751
C95	C	-0.736917	0.690227	-0.216418
C96	C	-0.403584	1.023560	0.116916
C97	C	-1.070269	0.356886	-0.632065
C98	C	-0.736936	0.690219	-0.298732
C99	C	-0.403602	1.023552	0.034602
C100	C	-0.263370	0.356941	-0.356580
C101	C	0.069964	0.690275	-0.023247
C102	C	0.403297	1.023608	0.310086
C103	C	-0.345684	0.356945	-0.356589
C104	C	-0.012351	0.690279	-0.023256
C105	C	0.320983	1.023612	0.310077
C106	C	-1.070204	0.782345	-0.356573
C107	C	-0.736871	1.115679	-0.023240
C108	C	-0.403537	1.449012	0.310093
C109	C	-1.127479	0.813683	-0.299390
C110	C	-0.794145	1.147017	0.033944
C111	C	-0.460812	1.480350	0.367277
C112	C	-1.127330	0.899302	-0.299174
C113	C	-0.793997	1.232635	0.034159
C114	C	-0.460664	1.565968	0.367493
C115	C	-1.070239	0.930728	-0.356589
C116	C	-0.736906	1.264061	-0.023255
C117	C	-0.403573	1.597395	0.310078
C118	C	-0.992140	0.899701	-0.335598
C119	C	-0.658806	1.233034	-0.002264
C120	C	-0.325473	1.566368	0.331069
C121	C	-0.992451	0.814056	-0.335174
C122	C	-0.659117	1.147389	-0.001840
C123	C	-0.325784	1.480723	0.331493
C124	C	-1.090354	0.813855	-0.434895
C125	C	-0.757021	1.147188	-0.101561
C126	C	-0.423688	1.480522	0.231772
C127	C	-1.092097	0.899505	-0.434486
C128	C	-0.758763	1.232838	-0.101153
C129	C	-0.425430	1.566172	0.232181
C130	C	-1.070255	1.014588	-0.356598
C131	C	-0.736921	1.347921	-0.023265
C132	C	-0.403588	1.681254	0.310068
C133	C	-1.070184	0.698486	-0.356562
C134	C	-0.736850	1.031819	-0.023228
C135	C	-0.403517	1.365153	0.310105
C136	C	-1.070285	1.163751	-0.356628
C137	C	-0.736952	1.497084	-0.023295
C138	C	-0.403619	1.830417	0.310038
C139	C	-1.070274	1.081436	-0.356604
C140	C	-0.736941	1.414770	-0.023271
C141	C	-0.403607	1.748103	0.310063
C142	C	-1.070312	0.356747	-0.931156
C143	C	-0.736979	0.690080	-0.597823
C144	C	-0.403645	1.023414	-0.264490
C145	C	-1.012854	0.413788	-0.899819
C146	C	-0.679521	0.747122	-0.566485
C147	C	-0.346187	1.080455	-0.233152
C148	C	-1.013009	0.414053	-0.814200
C149	C	-0.679676	0.747386	-0.480867
C150	C	-0.346343	1.080720	-0.147534
C151	C	-1.070290	0.356816	-0.782774
C152	C	-0.736957	0.690149	-0.449440
C153	C	-0.403623	1.023482	-0.116107
C154	C	-1.148318	0.378007	-0.813857
C155	C	-0.814985	0.711340	-0.480523
C156	C	-0.481651	1.044674	-0.147190
C157	C	-1.147998	0.378381	-0.899502
C158	C	-0.814665	0.711715	-0.566168
C159	C	-0.481331	1.045048	-0.232835
C160	C	-1.050421	0.278388	-0.899591
C161	C	-0.717087	0.611721	-0.566258
C162	C	-0.383754	0.945054	-0.232924
C163	C	-1.048685	0.278840	-0.813940
C164	C	-0.715351	0.612173	-0.480607
C165	C	-0.382018	0.945507	-0.147274
C166	C	-1.070282	0.356853	-0.698914
C167	C	-0.736949	0.690187	-0.365581
C168	C	-0.403616	1.023520	-0.032247
C169	C	-1.070325	0.356711	-1.015016
C170	C	-0.736992	0.690044	-0.681682
C171	C	-0.403658	1.023378	-0.348349
C172	C	-1.070208	0.356878	-0.164179
C173	C	-0.736875	0.690211	0.169155
C174	C	-0.403541	1.023544	0.502488
C175	C	-1.070333	0.356677	-0.081865
C176	C	-0.737000	0.690010	0.251469
C177	C	-0.403667	1.023344	0.584802
H178	H	-0.507119	0.472458	-0.400314
H179	H	-0.173786	0.805792	-0.066981
H180	H	0.159548	1.139125	0.266352
F181	F	-0.934852	0.926308	-0.388368
F182	F	-0.601518	1.259642	-0.055035
F183	F	-0.268185	1.592975	0.278298
F184	F	-0.969478	0.927790	-0.261600
F185	F	-0.636145	1.261124	0.071733
F186	F	-0.302812	1.594457	0.405067
F187	F	-0.936995	0.396629	-0.926741
F188	F	-0.603661	0.729962	-0.593407
F189	F	-0.270328	1.063296	-0.260074
H190	H	-0.506215	0.401491	-0.471292
H191	H	-0.172881	0.734825	-0.137959
H192	H	0.160452	1.068158	0.195375
F193	F	-0.640145	0.397122	-0.489698
F194	F	-0.306811	0.730455	-0.156364
F195	F	0.026522	1.063789	0.176969
H196	H	-1.146324	0.792208	-0.454033
H197	H	-0.812990	1.125542	-0.120699
H198	H	-0.479657	1.458875	0.212634
H199	H	-1.192279	0.337766	-0.793501
H200	H	-0.858946	0.671100	-0.460168
H201	H	-0.525612	1.004433	-0.126834
F202	F	-0.501970	0.257292	-0.453272
F203	F	-0.168636	0.590625	-0.119939
F204	F	0.164697	0.923959	0.213395
H205	H	-1.053450	0.920894	-0.479362
H206	H	-0.720117	1.254228	-0.146029
H207	H	-0.386784	1.587561	0.187305
F208	F	-1.170741	0.452083	-0.785821
F209	F	-0.837407	0.785416	-0.452487
F210	F	-0.504074	1.118749	-0.119154
H211	H	-0.633904	0.435840	-0.262525
H212	H	-0.300571	0.769174	0.070808
H213	H	0.032763	1.102507	0.404142
H214	H	-0.634988	0.339602	-0.233915
H215	H	-0.301654	0.672935	0.099418
H216	H	0.031679	1.006269	0.432752
F217	F	-0.640799	0.489858	-0.396315
F218	F	-0.307466	0.823191	-0.062982
F219	F	0.025867	1.156525	0.270352
H220	H	-1.025857	0.471516	-0.921337
H221	H	-0.692523	0.804849	-0.588004
H222	H	-0.359190	1.138183	-0.254670
F223	F	-1.030210	0.489963	-0.787415
F224	F	-0.696877	0.823296	-0.454082
F225	F	-0.363543	1.156630	-0.120749
H226	H	-0.507338	0.234871	-0.338788
H227	H	-0.174005	0.568205	-0.005455
H228	H	0.159329	0.901538	0.327878
H229	H	-0.991263	0.262860	-0.793625
H230	H	-0.657930	0.596193	-0.460292
H231	H	-0.324596	0.929526	-0.126959
F232	F	-1.170036	0.453253	-0.925613
F233	F	-0.836703	0.786586	-0.592279
F234	F	-0.503370	1.119919	-0.258946
F235	F	-1.105121	0.222838	-0.926080
F236	F	-0.771788	0.556172	-0.592747
F237	F	-0.438454	0.889505	-0.259414
F238	F	-0.977341	0.253154	-0.927824
F239	F	-0.644008	0.586488	-0.594491
F240	F	-0.310675	0.919821	-0.261158
H241	H	-1.185237	0.920278	-0.312284
H242	H	-0.851903	1.253611	0.021050
H243	H	-0.518570	1.586944	0.354383
H244	H	-0.955149	0.400791	-0.793185
H245	H	-0.621815	0.734125	-0.459851
H246	H	-0.288482	1.067458	-0.126518
H247	H	-1.113987	0.919832	-0.241145
H248	H	-0.780654	1.253165	0.092188
H249	H	-0.447321	1.586498	0.425521
H250	H	-1.087480	0.234085	-0.792548
H251	H	-0.754147	0.567418	-0.459215
H252	H	-0.420813	0.900751	-0.125882
H253	H	-1.149572	0.919779	-0.450318
H254	H	-0.816239	1.253112	-0.116984
H255	H	-0.482905	1.586446	0.216349
H256	H	-0.634069	0.234901	-0.337773
H257	H	-0.300736	0.568235	-0.004440
H258	H	0.032598	0.901568	0.328894
H259	H	-1.114291	0.792198	-0.241688
H260	H	-0.780957	1.125532	0.091646
H261	H	-0.447624	1.458865	0.424979
H262	H	-0.635173	0.261802	-0.434641
H263	H	-0.301840	0.595135	-0.101308
H264	H	0.031494	0.928469	0.232026
F265	F	-1.035842	0.787353	-0.490584
F266	F	-0.702508	1.120686	-0.157251
F267	F	-0.369175	1.454020	0.176083
F268	F	-1.205821	0.326402	-0.926601
F269	F	-0.872487	0.659736	-0.593267
F270	F	-0.539154	0.993069	-0.259934
F271	F	-0.499691	0.449795	-0.252853
F272	F	-0.166358	0.783128	0.080481
F273	F	0.166976	1.116461	0.413814
F274	F	-0.934758	0.786960	-0.387257
F275	F	-0.601425	1.120293	-0.053924
F276	F	-0.268092	1.453627	0.279410
F277	F	-1.203392	0.786713	-0.316325
F278	F	-0.870059	1.120046	0.017009
F279	F	-0.536725	1.453380	0.350342
F280	F	-0.970161	0.788000	-0.260351
F281	F	-0.636827	1.121333	0.072982
F282	F	-0.303494	1.454666	0.406316
F283	F	-0.501455	0.321986	-0.222749
F284	F	-0.168121	0.655320	0.110584
F285	F	0.165212	0.988653	0.443917
