data_functionalizedCrystal
_audit_creation_method	'MofGen! by Chris Wilmer'
_symmetry_space_group_name_H-M	'P1'
_symmetry_Int_Tables_number	1
_symmetry_cell_setting	triclinic
loop_
_symmetry_equiv_pos_as_xyz
  x,y,z
_cell_length_a	17.639044
_cell_length_b	17.640280
_cell_length_c	19.076919
_cell_angle_alpha	81.491119
_cell_angle_beta	103.912539
_cell_angle_gamma	70.392877
loop_
_atom_site_label
_atom_site_type_symbol
_atom_site_fract_x
_atom_site_fract_y
_atom_site_fract_z
Zn1	Zn	1.324079	-0.584527	-0.054009
Zn2	Zn	1.824079	-0.084527	0.445991
Zn3	Zn	1.357405	-0.716778	0.093474
Zn4	Zn	1.857405	-0.216778	0.593474
Zn5	Zn	1.189588	-0.553425	0.033820
Zn6	Zn	1.689588	-0.053425	0.533820
Zn7	Zn	1.214122	-0.694454	-0.054041
Zn8	Zn	1.714122	-0.194454	0.445959
O9	O	1.271299	-0.637296	0.004811
O10	O	1.771299	-0.137296	0.504811
O11	O	1.444749	-0.624430	-0.009465
O12	O	1.944749	-0.124430	0.490535
O13	O	1.338824	-0.691436	0.184053
O14	O	1.838824	-0.191436	0.684053
O15	O	1.183214	-0.443183	-0.002783
O16	O	1.683214	0.056817	0.497217
O17	O	1.469234	-0.721594	0.098890
O18	O	1.969234	-0.221594	0.598890
O19	O	1.282024	-0.466033	-0.067310
O20	O	1.782024	0.033967	0.432690
O21	O	1.215529	-0.571421	0.140225
O22	O	1.715529	-0.071421	0.640225
O23	O	1.076594	-0.549774	-0.002814
O24	O	1.576594	-0.049774	0.497186
O25	O	1.225029	-0.683545	-0.152529
O26	O	1.725029	-0.183545	0.347471
O27	O	1.094619	-0.653387	-0.067366
O28	O	1.594619	-0.153387	0.432634
O29	O	1.305814	-0.602783	-0.152505
O30	O	1.805814	-0.102783	0.347495
O31	O	1.362613	-0.828186	0.098858
O32	O	1.862613	-0.328186	0.598858
O33	O	1.257344	-0.811784	-0.009521
O34	O	1.757344	-0.311784	0.490479
C35	C	1.055464	-0.595783	-0.041567
C36	C	1.555464	-0.095783	0.458433
C37	C	0.963133	-0.578044	-0.061420
C38	C	1.463133	-0.078044	0.438580
C39	C	1.316279	-0.849644	0.051127
C40	C	1.816279	-0.349644	0.551127
C41	C	1.335597	-0.940503	0.070935
C42	C	1.835597	-0.440503	0.570935
C43	C	0.820262	-0.502541	-0.145864
C44	C	1.320262	-0.002541	0.354136
C45	C	0.907023	-0.519216	-0.127202
C46	C	1.407023	-0.019216	0.372798
C47	C	0.932496	-0.620218	-0.014272
C48	C	1.432496	-0.120218	0.485728
C49	C	0.845735	-0.603549	-0.032922
C50	C	1.345735	-0.103549	0.467078
C51	C	0.789624	-0.544710	-0.098719
C52	C	1.289624	-0.044710	0.401281
C53	C	0.815097	-0.645718	0.014222
C54	C	1.315097	-0.145718	0.514222
C55	C	0.728344	-0.629053	-0.004429
C56	C	1.228344	-0.129053	0.495571
C57	C	0.672229	-0.570219	-0.070224
C58	C	1.172229	-0.070219	0.429776
C59	C	0.702871	-0.528046	-0.117370
C60	C	1.202871	-0.028046	0.382630
C61	C	0.871210	-0.704561	0.080016
C62	C	1.371210	-0.204561	0.580016
C63	C	0.840573	-0.746730	0.127161
C64	C	1.340573	-0.246730	0.627161
C65	C	0.753818	-0.730061	0.108513
C66	C	1.253818	-0.230061	0.608513
C67	C	0.697702	-0.671227	0.042717
C68	C	1.197702	-0.171227	0.542717
C69	C	0.723175	-0.772235	0.155659
C70	C	1.223175	-0.272235	0.655659
C71	C	0.636422	-0.755570	0.137008
C72	C	1.136422	-0.255570	0.637008
C73	C	0.610949	-0.654562	0.024066
C74	C	1.110949	-0.154562	0.524066
C75	C	1.124874	-1.196713	-0.145845
C76	C	1.624874	-0.696713	0.354155
C77	C	1.143029	-1.282088	-0.127210
C78	C	1.643029	-0.782088	0.372790
C79	C	1.252708	-1.299117	-0.014432
C80	C	1.752708	-0.799117	0.485568
C81	C	1.234566	-1.213743	-0.033059
C82	C	1.734566	-0.713743	0.466941
C83	C	1.170647	-1.162546	-0.098766
C84	C	1.670647	-0.662546	0.401234
C85	C	1.280339	-1.179577	0.014020
C86	C	1.780339	-0.679577	0.514020
C87	C	1.262194	-1.094209	-0.004604
C88	C	1.762194	-0.594209	0.495396
C89	C	1.198277	-1.043007	-0.070306
C90	C	1.698277	-0.543007	0.429694
C91	C	1.152503	-1.077178	-0.117390
C92	C	1.652503	-0.577178	0.382610
C93	C	1.344253	-1.230773	0.079730
C94	C	1.844253	-0.730773	0.579730
C95	C	1.390026	-1.196607	0.126808
C96	C	1.890026	-0.696607	0.626808
C97	C	1.371886	-1.111239	0.108182
C98	C	1.871886	-0.611239	0.608182
C99	C	1.307968	-1.060037	0.042480
C100	C	1.807968	-0.560037	0.542480
C101	C	1.417660	-1.077067	0.155265
C102	C	1.917660	-0.577067	0.655265
C103	C	1.399516	-0.991699	0.136642
C104	C	1.899516	-0.491699	0.636642
C105	C	1.289824	-0.974669	0.023856
C106	C	1.789824	-0.474669	0.523856
C107	C	1.487976	-0.678972	0.051370
C108	C	1.987976	-0.178972	0.551370
C109	C	1.580312	-0.696732	0.071211
C110	C	2.080312	-0.196732	0.571211
C111	C	1.264440	-0.644143	-0.178769
C112	C	1.764440	-0.144143	0.321231
C113	C	1.261518	-0.647061	-0.257000
C114	C	1.761518	-0.147061	0.243000
C115	C	1.226165	-0.424124	-0.041697
C116	C	1.726165	0.075876	0.458303
C117	C	1.206932	-0.333283	-0.061516
C118	C	1.706932	0.166717	0.438484
C119	C	1.302203	-0.606385	-0.293742
C120	C	1.802203	-0.106385	0.206258
C121	C	1.299446	-0.609122	-0.367251
C122	C	1.799446	-0.109122	0.132749
C123	C	1.256009	-0.652540	-0.404016
C124	C	1.756009	-0.152540	0.095984
C125	C	1.215319	-0.693217	-0.367270
C126	C	1.715319	-0.193217	0.132730
C127	C	1.218071	-0.690475	-0.293763
C128	C	1.718071	-0.190475	0.206237
C129	C	1.243262	-0.665244	-0.623858
C130	C	1.743262	-0.165244	-0.123858
C131	C	1.240515	-0.667985	-0.697369
C132	C	1.740515	-0.167985	-0.197369
C133	C	1.324642	-0.583888	-0.697346
C134	C	1.824642	-0.083888	-0.197346
C135	C	1.327395	-0.581155	-0.623837
C136	C	1.827395	-0.081155	-0.123837
C137	C	1.286701	-0.621828	-0.587099
C138	C	1.786701	-0.121828	-0.087099
N139	N	1.253192	-0.655340	-0.479153
N140	N	1.753192	-0.155340	0.020847
N141	N	1.289513	-0.619022	-0.511964
N142	N	1.789513	-0.119022	-0.011964
C143	C	1.278166	-0.630426	0.187675
C144	C	1.778166	-0.130426	0.687675
C145	C	1.281200	-0.627309	0.265890
C146	C	1.781200	-0.127309	0.765890
H147	H	0.565258	-0.606640	-0.029506
H148	H	1.065258	-0.106640	0.470494
Cl149	Cl	1.166918	-0.741610	-0.247575
Cl150	Cl	1.666918	-0.241610	0.252425
Cl151	Cl	0.911119	-0.820698	0.209873
Cl152	Cl	1.411119	-0.320698	0.709873
H153	H	1.332579	-0.576001	-0.397162
H154	H	1.832579	-0.076001	0.102838
H155	H	0.601590	-0.556654	-0.085410
H156	H	1.101590	-0.056654	0.414590
H157	H	1.072831	-1.155027	-0.199354
H158	H	1.572831	-0.655027	0.300646
H159	H	1.304748	-1.340812	0.039068
H160	H	1.804748	-0.840812	0.539068
Cl161	Cl	1.185899	-0.722566	-0.743588
Cl162	Cl	1.685899	-0.222566	-0.243588
H163	H	1.359026	-1.300286	0.094889
H164	H	1.859026	-0.800286	0.594889
Cl165	Cl	1.470380	-1.260976	0.209407
Cl166	Cl	1.970380	-0.760976	0.709407
H167	H	0.657180	-0.480124	-0.170943
H168	H	1.157180	0.019876	0.329057
H169	H	1.362769	-0.545802	-0.593907
H170	H	1.862769	-0.045802	-0.093907
Cl171	Cl	1.209475	-0.910303	-0.058754
Cl172	Cl	1.709475	-0.410303	0.441246
Cl173	Cl	0.945535	-0.466196	-0.186477
Cl174	Cl	1.445535	0.033804	0.313523
H175	H	1.100460	-1.035493	-0.170899
H176	H	1.600460	-0.535493	0.329101
H177	H	1.179947	-0.728565	-0.397210
H178	H	1.679947	-0.228565	0.102790
H179	H	0.774571	-0.454619	-0.199437
H180	H	1.274571	0.045381	0.300563
Cl181	Cl	1.003042	-0.694186	0.068440
Cl182	Cl	1.503042	-0.194186	0.568440
H183	H	0.941847	-0.718115	0.095208
H184	H	1.441847	-0.218115	0.595208
Cl185	Cl	0.793725	-0.846209	0.238366
Cl186	Cl	1.293725	-0.346209	0.738366
H187	H	1.337577	-0.571032	-0.263813
H188	H	1.837577	-0.071032	0.236187
H189	H	0.611478	-0.789910	0.175397
H190	H	1.111478	-0.289910	0.675397
H191	H	1.357771	-0.550773	-0.727267
H192	H	1.857771	-0.050773	-0.227267
Cl193	Cl	1.498006	-1.141436	0.237868
Cl194	Cl	1.998006	-0.641436	0.737868
Cl195	Cl	1.192104	-0.716377	-0.577682
Cl196	Cl	1.692104	-0.216377	-0.077682
Cl197	Cl	1.175650	-0.935728	-0.093842
Cl198	Cl	1.675650	-0.435728	0.406158
H199	H	1.105760	-1.309903	-0.165559
H200	H	1.605760	-0.809903	0.334441
H201	H	1.436788	-0.963881	0.174979
H202	H	1.936788	-0.463881	0.674979
