data_functionalizedCrystal
_audit_creation_method	'MofGen! by Chris Wilmer'
_symmetry_space_group_name_H-M	'P1'
_symmetry_Int_Tables_number	1
_symmetry_cell_setting	triclinic
loop_
_symmetry_equiv_pos_as_xyz
  x,y,z
_cell_length_a	10.654556
_cell_length_b	23.532407
_cell_length_c	9.730223
_cell_angle_alpha	89.990960
_cell_angle_beta	89.998368
_cell_angle_gamma	83.668107
loop_
_atom_site_label
_atom_site_type_symbol
_atom_site_fract_x
_atom_site_fract_y
_atom_site_fract_z
O1	O	1.665300	0.080002	-0.114254
O2	O	1.299581	0.087619	-0.114269
O3	O	1.493469	0.000951	-0.114236
O4	O	1.471412	0.166670	-0.114287
O5	O	1.493456	0.000948	0.114344
O6	O	1.299569	0.087616	0.114311
O7	O	1.665287	0.080000	0.114326
Zn8	Zn	1.482426	0.083808	0.150610
Zn9	Zn	1.482442	0.083811	-0.150553
O10	O	1.471400	0.166668	0.114293
C11	C	1.252795	0.087057	0.000019
C12	C	1.113405	0.085382	0.000014
C13	C	0.916941	0.083024	-0.124573
C14	C	1.047913	0.084595	-0.124582
C15	C	1.047919	0.084592	0.124628
C16	C	0.916950	0.083017	0.124636
C17	C	1.492901	-0.020270	0.000058
C18	C	1.491212	-0.083498	0.000068
C19	C	1.595359	-0.481922	-0.000003
C20	C	1.593790	-0.541332	-0.000013
O21	O	1.690335	-0.577447	-0.000060
N22	N	1.478524	-0.564711	-0.000017
C23	C	1.364819	-0.528675	-0.000025
O24	O	1.266632	-0.554015	-0.000030
C25	C	1.366389	-0.469266	-0.000024
C26	C	1.481663	-0.445891	-0.000006
C27	C	1.710623	-0.458546	0.000014
C28	C	1.712191	-0.399140	0.000027
C29	C	1.598495	-0.363109	0.000023
C30	C	1.483231	-0.386484	0.000007
C31	C	1.252686	-0.433231	-0.000041
C32	C	1.254266	-0.373818	-0.000042
C33	C	1.369539	-0.350444	-0.000024
C34	C	1.371103	-0.291047	0.000017
N35	N	1.486369	-0.267669	0.000021
C36	C	1.600065	-0.303700	0.000024
C37	C	1.361531	-0.653439	-0.000028
C38	C	1.359959	-0.712847	-0.000019
C39	C	1.588931	-0.725500	-0.000010
C40	C	1.590501	-0.666091	-0.000010
C41	C	1.476797	-0.630061	-0.000024
C42	C	1.603350	-0.178941	0.000053
C43	C	1.604908	-0.119529	0.000071
C44	C	1.375937	-0.106881	0.000055
C45	C	1.374378	-0.166288	0.000044
C46	C	1.488095	-0.202317	0.000038
O47	O	1.274609	-0.254898	0.000058
O48	O	1.698236	-0.278351	0.000012
C49	C	1.712074	0.080561	0.000035
C50	C	1.851463	0.082236	0.000031
C51	C	1.471968	0.187889	-0.000004
C52	C	1.473656	0.251117	-0.000023
N53	N	1.482424	0.083805	0.356147
N54	N	1.482454	0.083809	-0.356090
C55	C	1.568306	0.045445	0.428088
C56	C	1.568319	0.045445	0.571971
C57	C	1.396563	0.122171	0.571959
C58	C	1.396545	0.122167	0.428079
H59	H	1.698782	-0.100501	0.000089
Cl60	Cl	1.288565	0.170393	0.337630
H61	H	1.638250	0.014208	0.630541
H62	H	1.158818	-0.452252	-0.000064
Cl63	Cl	1.130251	0.085581	0.281265
Cl64	Cl	0.834621	0.082039	-0.281219
Cl65	Cl	1.676263	-0.002784	0.337664
Cl66	Cl	1.218573	-0.608149	-0.000031
H67	H	1.326644	0.153405	0.630541
Cl68	Cl	1.130223	0.085583	-0.281235
H69	H	1.695949	-0.208270	0.000042
Cl70	Cl	0.834629	0.082025	0.281294
H71	H	1.280513	-0.185321	0.000068
Cl72	Cl	1.857115	-0.369764	0.000010
Cl73	Cl	1.233013	-0.061575	0.000048
Cl74	Cl	1.853576	-0.503833	0.000020
H75	H	1.684367	-0.647064	0.000004
H76	H	1.266092	-0.731873	-0.000010
Cl77	Cl	1.731864	-0.770808	-0.000016
Cl78	Cl	1.111314	-0.328526	-0.000062
