data_functionalizedCrystal
_audit_creation_method	'MofGen! by Chris Wilmer'
_symmetry_space_group_name_H-M	'P1'
_symmetry_Int_Tables_number	1
_symmetry_cell_setting	triclinic
loop_
_symmetry_equiv_pos_as_xyz
  x,y,z
_cell_length_a	10.654569
_cell_length_b	15.944545
_cell_length_c	14.421503
_cell_angle_alpha	89.997810
_cell_angle_beta	89.996124
_cell_angle_gamma	96.005577
loop_
_atom_site_label
_atom_site_type_symbol
_atom_site_fract_x
_atom_site_fract_y
_atom_site_fract_z
O1	O	-1.666304	0.118041	0.077035
O2	O	-1.300683	0.129265	0.077055
O3	O	-1.493481	0.001436	0.077033
O4	O	-1.473505	0.245870	0.077056
O5	O	-1.493450	0.001455	-0.077190
O6	O	-1.300651	0.129284	-0.077168
O7	O	-1.666272	0.118060	-0.077189
Cu8	Cu	-1.483458	0.123674	-0.091260
Cu9	Cu	-1.483496	0.123651	0.091127
O10	O	-1.473473	0.245889	-0.077167
C11	C	-1.253880	0.128447	-0.000054
C12	C	-1.114470	0.125971	-0.000047
C13	C	-1.048982	0.124800	0.084018
C14	C	-0.917988	0.122488	0.084012
C15	C	-0.917984	0.122515	-0.084131
C16	C	-1.048973	0.124833	-0.084124
C17	C	-0.729364	0.168429	0.185010
C18	C	-0.663875	0.167243	0.269080
C19	C	-0.716003	0.118852	0.343301
C20	C	-0.833624	0.071625	0.333457
C21	C	-0.899108	0.072803	0.249386
C22	C	-0.846977	0.121215	0.175168
C23	C	-1.237601	0.078884	-0.185116
C24	C	-1.303089	0.080057	-0.269188
C25	C	-1.250964	0.128443	-0.343417
C26	C	-1.133342	0.175657	-0.333582
C27	C	-1.067854	0.174485	-0.249510
C28	C	-1.119988	0.126100	-0.175281
C29	C	-1.492638	-0.029853	-0.000079
C30	C	-1.490155	-0.123114	-0.000082
C31	C	-1.363233	-0.394487	-0.000056
C32	C	-1.424441	-0.343554	0.075981
C33	C	-1.481304	-0.458810	-0.000055
C34	C	-1.424441	-0.343563	-0.076071
C35	C	-1.485646	-0.293871	-0.000070
C36	C	-1.542480	-0.409105	0.076045
C37	C	-1.542462	-0.409117	-0.076075
C38	C	-1.603757	-0.358216	-0.000020
C39	C	-1.478798	-0.553826	-0.000046
C40	C	-1.488161	-0.198857	-0.000072
C41	C	-0.713075	0.118875	-0.000073
C42	C	-0.852487	0.121341	-0.000059
C43	C	-1.474317	0.277178	-0.000052
C44	C	-1.476799	0.370439	-0.000044
N45	N	-1.483441	0.123689	-0.219542
C46	C	-1.394275	0.182770	-0.469185
C47	C	-1.507751	0.199739	-0.530993
C48	C	-1.483471	0.123669	-0.408703
C49	C	-1.370025	0.106720	-0.530990
C50	C	-1.483491	0.123652	-0.591425
C51	C	-1.597004	0.140676	-0.469149
C52	C	-1.459204	0.047623	-0.469141
C53	C	-1.572762	0.064561	-0.530921
C54	C	-1.483458	0.123681	-0.303442
C55	C	-1.483517	0.123639	-0.696683
N56	N	-1.483523	0.123629	0.219408
H57	H	-0.876054	0.032216	0.393896
H58	H	-0.864641	0.121586	-0.152583
H59	H	-1.592270	-0.437768	-0.140368
H60	H	-1.261549	-0.410733	0.000024
N61	N	-1.294460	0.249027	-0.433283
H62	H	-1.335418	0.290829	-0.393779
H63	H	-1.231394	0.221141	-0.394784
H64	H	-1.374589	-0.314919	0.140271
N65	N	-1.534975	0.284911	-0.566981
H66	H	-1.467547	0.329525	-0.544531
H67	H	-1.535624	0.284032	-0.637005
N68	N	-1.724132	0.159753	-0.433331
H69	H	-1.723329	0.159667	-0.363299
H70	H	-1.742602	0.216982	-0.456443
H71	H	-1.648283	0.014571	-0.557857
H72	H	-1.592320	-0.437628	0.140400
N73	N	-1.025967	0.021883	0.238767
H74	H	-1.059544	0.029979	0.174248
H75	H	-1.016435	-0.039775	0.249126
N76	N	-1.242939	0.087736	-0.566982
H77	H	-1.175627	0.132426	-0.544526
H78	H	-1.224018	0.030719	-0.543512
H79	H	-1.705520	-0.342131	0.000018
N80	N	-1.358366	-0.305636	-0.161225
H81	H	-1.285195	-0.263916	-0.141824
H82	H	-1.326059	-0.351863	-0.199531
N83	N	-1.429958	0.029137	-0.279796
H84	H	-1.425768	-0.013087	-0.331617
H85	H	-1.452977	-0.001633	-0.219970
N86	N	-1.119627	0.126028	0.174696
H87	H	-1.058258	0.124936	0.227949
H88	H	-1.163808	0.178966	0.178369
N89	N	-0.645368	0.117564	0.433973
H90	H	-0.562948	0.154819	0.428946
H91	H	-0.698160	0.139058	0.485205
H92	H	-1.438625	-0.016659	-0.441952
H93	H	-0.972053	0.212903	-0.241520
H94	H	-0.686916	0.207846	0.124582
H95	H	-1.090893	0.215050	-0.394029
N96	N	-0.537018	0.218179	0.279692
H97	H	-0.546470	0.279858	0.269383
H98	H	-0.503504	0.210015	0.344212
H99	H	-1.280059	0.039486	-0.124673
N100	N	-1.321592	0.129714	-0.434098
H101	H	-1.268884	0.108195	-0.485368
H102	H	-1.404008	0.092470	-0.428991
