data_functionalizedCrystal
_audit_creation_method	'MofGen! by Chris Wilmer'
_symmetry_space_group_name_H-M	'P1'
_symmetry_Int_Tables_number	1
_symmetry_cell_setting	triclinic
loop_
_symmetry_equiv_pos_as_xyz
  x,y,z
_cell_length_a	10.654550
_cell_length_b	27.732048
_cell_length_c	9.130313
_cell_angle_alpha	89.993840
_cell_angle_beta	89.996220
_cell_angle_gamma	83.563778
loop_
_atom_site_label
_atom_site_type_symbol
_atom_site_fract_x
_atom_site_fract_y
_atom_site_fract_z
O1	O	1.664980	0.067884	-0.121937
O2	O	1.299230	0.074351	-0.121916
O3	O	1.493465	0.000792	-0.121899
O4	O	1.470746	0.141444	-0.121954
O5	O	1.493462	0.000794	0.121700
O6	O	1.299228	0.074353	0.121683
O7	O	1.664978	0.067886	0.121661
Cu8	Cu	1.482103	0.071120	0.143915
Cu9	Cu	1.482105	0.071117	-0.144169
O10	O	1.470743	0.141446	0.121645
C11	C	1.252451	0.073878	-0.000113
C12	C	1.113067	0.072457	-0.000103
C13	C	1.031761	0.115768	-0.000142
C14	C	0.900796	0.114430	-0.000166
C15	C	0.932457	0.026466	-0.000121
C16	C	1.063419	0.027805	-0.000086
C17	C	1.081409	0.160420	-0.000159
C18	C	1.000101	0.203734	-0.000199
C19	C	0.869136	0.202396	-0.000224
C20	C	0.819479	0.157744	-0.000209
C21	C	1.492987	-0.017217	-0.000096
C22	C	1.491551	-0.070881	-0.000084
C23	C	1.597290	-0.409038	-0.000165
C24	C	1.591962	-0.610731	-0.000185
O25	O	1.688653	-0.641384	-0.000255
N26	N	1.476789	-0.630572	-0.000177
C27	C	1.362940	-0.599986	-0.000173
O28	O	1.264856	-0.621490	-0.000182
C29	C	1.368269	-0.398294	-0.000164
C30	C	1.483449	-0.378456	-0.000157
C31	C	1.712461	-0.389199	-0.000160
C32	C	1.713792	-0.338779	-0.000147
C33	C	1.599951	-0.308197	-0.000139
C34	C	1.484780	-0.328036	-0.000144
C35	C	1.254421	-0.367709	-0.000171
C36	C	1.255764	-0.317284	-0.000172
C37	C	1.370944	-0.297446	-0.000165
C38	C	1.372271	-0.247034	-0.000123
N39	N	1.487444	-0.227193	-0.000131
C40	C	1.601284	-0.257775	-0.000139
C41	C	1.360150	-0.705877	-0.000175
C42	C	1.358817	-0.756300	-0.000175
C43	C	1.587840	-0.767041	-0.000190
C44	C	1.589171	-0.716618	-0.000180
C45	C	1.475323	-0.686036	-0.000184
C46	C	1.604070	-0.151888	-0.000111
C47	C	1.605391	-0.101463	-0.000092
C48	C	1.376369	-0.090726	-0.000085
C49	C	1.375047	-0.141147	-0.000096
C50	C	1.488908	-0.171727	-0.000114
O51	O	1.275631	-0.216352	-0.000070
O52	O	1.699354	-0.236261	-0.000163
C53	C	1.595959	-0.459458	-0.000178
C54	C	1.480788	-0.479296	-0.000183
C55	C	1.366948	-0.448715	-0.000175
C56	C	1.479455	-0.529719	-0.000183
C57	C	1.593296	-0.560301	-0.000191
C58	C	1.708469	-0.540460	-0.000199
C59	C	1.709800	-0.490040	-0.000186
C60	C	1.251774	-0.468556	-0.000167
C61	C	1.250453	-0.518976	-0.000178
C62	C	1.364293	-0.549558	-0.000186
C63	C	1.711757	0.068360	-0.000144
C64	C	1.851141	0.069780	-0.000164
C65	C	1.471221	0.159454	-0.000162
C66	C	1.472657	0.213118	-0.000183
N67	N	1.482110	0.071121	0.346538
N68	N	1.482108	0.071112	-0.346792
C69	C	1.568138	0.038560	0.423197
C70	C	1.568135	0.038554	0.576534
C71	C	1.396071	0.103675	0.576538
C72	C	1.396069	0.103678	0.423204
C73	C	1.654179	0.006003	0.346530
C74	C	1.740216	-0.026560	0.423189
C75	C	1.740212	-0.026566	0.576526
C76	C	1.654173	0.005991	0.653203
H77	H	1.188045	0.161514	-0.000146
H78	H	1.040540	0.240088	-0.000199
O79	O	1.138525	-0.538220	-0.000443
C80	C	0.942350	-0.544421	-0.126624
C81	C	1.069070	-0.522607	-0.126506
H82	H	0.886148	-0.531798	-0.228520
H83	H	0.960861	-0.585715	-0.126734
H84	H	0.886188	-0.531871	-0.024633
H85	H	1.125295	-0.535119	-0.228480
H86	H	1.050469	-0.481315	-0.126320
H87	H	1.805169	-0.414094	-0.000172
H88	H	1.159070	-0.443660	-0.000164
H89	H	1.129622	-0.007463	-0.000059
H90	H	0.712838	0.156658	-0.000206
H91	H	1.807584	-0.322632	-0.000148
O92	O	1.654315	0.005929	0.197580
C93	C	1.748785	-0.029771	-0.022468
C94	C	1.748748	-0.029748	0.146214
H95	H	1.825144	-0.058606	-0.064049
H96	H	1.652678	-0.038084	-0.064175
H97	H	1.768614	0.007391	-0.064058
H98	H	1.728971	-0.066900	0.187929
H99	H	1.844862	-0.021408	0.187821
O100	O	1.823657	-0.058180	0.651222
C101	C	1.899968	-0.087029	0.887435
C102	C	1.805372	-0.051209	0.803030
H103	H	1.885236	-0.081399	1.010187
H104	H	1.884371	-0.125811	0.857397
H105	H	2.000402	-0.080372	0.857192
H106	H	1.704901	-0.057822	0.833228
H107	H	1.821079	-0.012439	0.833075
H108	H	1.654169	0.005981	0.778061
O109	O	1.714640	-0.181609	-0.000380
C110	C	1.846054	-0.244780	-0.126539
C111	C	1.720804	-0.211142	-0.126446
H112	H	1.851067	-0.268673	-0.228436
H113	H	1.928638	-0.221956	-0.126624
H114	H	1.851142	-0.268638	-0.024549
H115	H	1.715593	-0.187277	-0.228418
H116	H	1.638280	-0.233994	-0.126284
O117	O	1.145248	-0.287529	0.000023
C118	C	1.013781	-0.224396	0.126278
C119	C	1.138995	-0.258056	0.126218
H120	H	1.008672	-0.200566	0.228311
H121	H	1.008662	-0.200482	0.024406
H122	H	0.931262	-0.247251	0.126201
H123	H	1.221585	-0.235239	0.126347
H124	H	1.144004	-0.281972	0.228081
H125	H	0.802938	0.237665	-0.000241
H126	H	1.810260	-0.053070	0.360750
O127	O	1.701088	-0.697372	-0.000447
C128	C	1.897274	-0.691157	-0.126623
C129	C	1.770557	-0.712972	-0.126513
H130	H	1.953487	-0.703769	-0.228520
H131	H	1.878760	-0.649862	-0.126721
H132	H	1.953426	-0.703715	-0.024633
H133	H	1.714340	-0.700450	-0.228485
H134	H	1.789160	-0.754264	-0.126337
O135	O	1.312331	0.135252	0.650955
C136	C	1.093443	0.162809	0.697832
C137	C	1.188137	0.127011	0.613492
H138	H	0.993011	0.156166	0.667551
H139	H	1.108116	0.157213	0.820609
H140	H	1.109110	0.201578	0.667696
H141	H	1.172527	0.088229	0.643505
H142	H	1.173440	0.132649	0.490736
O143	O	1.312630	0.135375	0.348791
C144	C	1.237353	0.219154	0.301915
C145	C	1.331941	0.183313	0.386254
H146	H	1.252915	0.257919	0.332196
H147	H	1.252131	0.213603	0.179138
H148	H	1.136915	0.212470	0.332050
H149	H	1.432416	0.189975	0.356241
H150	H	1.317053	0.188872	0.509011
H151	H	0.892016	-0.009888	-0.000133
O152	O	1.249466	-0.676224	-0.000362
C153	C	1.054148	-0.651602	-0.126579
C154	C	1.179437	-0.685216	-0.126543
H155	H	0.997505	-0.658853	-0.228601
H156	H	0.997341	-0.658882	-0.024695
H157	H	1.074890	-0.612157	-0.126509
H158	H	1.158809	-0.724673	-0.126665
H159	H	1.236206	-0.677894	-0.228418
H160	H	1.699189	-0.085314	-0.000083
O161	O	1.142499	-0.386948	-0.000446
C162	C	0.946323	-0.393141	-0.126631
C163	C	1.073051	-0.371334	-0.126514
H164	H	0.890127	-0.380518	-0.228530
H165	H	0.964821	-0.434436	-0.126732
H166	H	0.890162	-0.380587	-0.024644
H167	H	1.129276	-0.383851	-0.228484
H168	H	1.054464	-0.330042	-0.126336
H169	H	1.680533	-0.791950	-0.000196
H170	H	1.281258	-0.157300	-0.000061
O171	O	1.265709	-0.061063	-0.000280
C172	C	1.070433	-0.036415	-0.126553
C173	C	1.195694	-0.070047	-0.126479
H174	H	1.013802	-0.043660	-0.228590
H175	H	1.013595	-0.043684	-0.024684
H176	H	1.091216	0.003025	-0.126482
H177	H	1.175025	-0.109499	-0.126602
H178	H	1.252493	-0.062736	-0.228340
H179	H	1.803591	-0.473893	-0.000181
H180	H	1.265026	-0.772447	-0.000155
O181	O	1.819088	-0.570152	0.000048
C182	C	2.014459	-0.594764	0.126171
C183	C	1.889227	-0.561115	0.126103
H184	H	2.071213	-0.587462	0.228060
H185	H	1.993782	-0.634217	0.126254
H186	H	2.071134	-0.587498	0.024173
H187	H	1.832490	-0.568337	0.228083
H188	H	1.909993	-0.521672	0.125943
