data_functionalizedCrystal
_audit_creation_method	'MofGen! by Chris Wilmer'
_symmetry_space_group_name_H-M	'P1'
_symmetry_Int_Tables_number	1
_symmetry_cell_setting	triclinic
loop_
_symmetry_equiv_pos_as_xyz
  x,y,z
_cell_length_a	8.497374
_cell_length_b	8.497374
_cell_length_c	13.897449
_cell_angle_alpha	89.998080
_cell_angle_beta	90.005472
_cell_angle_gamma	90.004389
loop_
_atom_site_label
_atom_site_type_symbol
_atom_site_fract_x
_atom_site_fract_y
_atom_site_fract_z
Zn1	Zn	0.892247	0.628281	1.474643
Zn2	Zn	1.225580	0.961615	1.807977
Zn3	Zn	1.558913	1.294948	2.141310
Zn4	Zn	0.628512	0.892031	1.474634
Zn5	Zn	0.961846	1.225364	1.807968
Zn6	Zn	1.295179	1.558698	2.141301
Zn7	Zn	0.628459	0.628263	1.313383
Zn8	Zn	0.961792	0.961596	1.646716
Zn9	Zn	1.295125	1.294929	1.980050
Zn10	Zn	0.892229	0.892017	1.313361
Zn11	Zn	1.225562	1.225351	1.646694
Zn12	Zn	1.558895	1.558684	1.980028
O13	O	0.760362	0.760148	1.394005
O14	O	1.093695	1.093481	1.727339
O15	O	1.427028	1.426815	2.060672
O16	O	0.857292	0.663282	1.609624
O17	O	1.190625	0.996615	1.942957
O18	O	1.523959	1.329949	2.276290
O19	O	0.407743	0.857040	1.453250
O20	O	0.741076	1.190373	1.786583
O21	O	1.074410	1.523706	2.119916
O22	O	0.663436	0.407503	1.334787
O23	O	0.996769	0.740836	1.668121
O24	O	1.330103	1.074169	2.001454
O25	O	0.663528	0.857058	1.609617
O26	O	0.996861	1.190391	1.942951
O27	O	1.330194	1.523725	2.276284
O28	O	0.857240	0.407517	1.453265
O29	O	1.190573	0.740850	1.786598
O30	O	1.523907	1.074183	2.119931
O31	O	0.407704	0.663250	1.334779
O32	O	0.741037	0.996583	1.668112
O33	O	1.074370	1.329917	2.001445
O34	O	0.663418	0.663237	1.178398
O35	O	0.996752	0.996570	1.511732
O36	O	1.330085	1.329903	1.845065
O37	O	1.112993	0.857034	1.334750
O38	O	1.446327	1.190367	1.668083
O39	O	1.779660	1.523701	2.001416
O40	O	0.857209	0.857016	1.178382
O41	O	1.190542	1.190349	1.511715
O42	O	1.523875	1.523683	1.845049
O43	O	1.113007	0.663269	1.453243
O44	O	1.446340	0.996602	1.786577
O45	O	1.779673	1.329935	2.119910
O46	O	0.663510	1.112792	1.453228
O47	O	0.996843	1.446125	1.786562
O48	O	1.330176	1.779458	2.119895
O49	O	0.857261	1.112781	1.334741
O50	O	1.190594	1.446115	1.668075
O51	O	1.523928	1.779448	2.001408
C52	C	0.760307	0.760124	1.143391
C53	C	1.093640	1.093457	1.476724
C54	C	1.426973	1.426790	1.810058
C55	C	0.760321	0.760151	1.036177
C56	C	1.093654	1.093485	1.369510
C57	C	1.426987	1.426818	1.702844
C58	C	1.350482	0.760174	1.394011
C59	C	1.683815	1.093507	1.727344
C60	C	2.017149	1.426840	2.060678
C61	C	1.171838	0.760166	1.394001
C62	C	1.505171	1.093499	1.727334
C63	C	1.838504	1.426833	2.060668
C64	C	0.760384	1.170028	1.393993
C65	C	1.093718	1.503361	1.727327
C66	C	1.427051	1.836695	2.060660
C67	C	0.760359	1.348672	1.394019
C68	C	1.093692	1.682005	1.727352
C69	C	1.427025	2.015339	2.060686
C70	C	0.760347	0.760157	0.949107
C71	C	1.093680	1.093490	1.282441
C72	C	1.427014	1.426823	1.615774
C73	C	0.760395	0.760168	0.839875
C74	C	1.093728	1.093501	1.173208
C75	C	1.427061	1.426834	1.506541
C76	C	0.760418	0.760174	1.645598
C77	C	1.093751	1.093507	1.978932
C78	C	1.427084	1.426840	2.312265
C79	C	0.760442	0.760185	1.752812
C80	C	1.093775	1.093518	2.086146
C81	C	1.427108	1.426851	2.419479
