data_functionalizedCrystal
_audit_creation_method	'MofGen! by Chris Wilmer'
_symmetry_space_group_name_H-M	'P1'
_symmetry_Int_Tables_number	1
_symmetry_cell_setting	triclinic
loop_
_symmetry_equiv_pos_as_xyz
  x,y,z
_cell_length_a	27.440280
_cell_length_b	14.809374
_cell_length_c	14.809374
_cell_angle_alpha	60.797835
_cell_angle_beta	90.004513
_cell_angle_gamma	67.424940
loop_
_atom_site_label
_atom_site_type_symbol
_atom_site_fract_x
_atom_site_fract_y
_atom_site_fract_z
Zr1	Zr	0.538312	0.955110	-0.203550
O2	O	0.478612	1.113041	-0.350723
O3	O	0.548161	0.777342	-0.145471
O4	O	0.568096	0.926486	-0.332007
O5	O	0.452566	0.993394	-0.031791
O6	O	0.648297	0.926473	-0.331988
O7	O	0.458677	0.963897	-0.164188
O8	O	0.612637	0.659681	0.001689
O9	O	0.488227	1.260185	-0.365469
O10	O	0.622426	0.857798	-0.136349
O11	O	0.558012	0.879821	-0.037556
O12	O	0.581484	1.055419	-0.257178
O13	O	0.517070	1.077442	-0.158385
Zr14	Zr	0.656477	1.002133	0.007636
Zr15	Zr	0.666223	0.955089	-0.203521
Zr16	Zr	0.528566	1.002154	0.007607
Zr17	Zr	0.553646	1.189788	-0.227068
Zr18	Zr	0.641143	0.767454	0.031154
O19	O	0.646627	1.179901	-0.050443
O20	O	0.660486	1.113010	-0.350682
O21	O	0.464754	1.179932	-0.050485
O22	O	0.716176	0.844202	0.154809
O23	O	0.730034	0.777311	-0.145430
O24	O	0.534303	0.844232	0.154767
O25	O	0.742223	0.963849	-0.164123
O26	O	0.626692	1.030757	0.136092
O27	O	0.546491	1.030770	0.136074
O28	O	0.736112	0.993346	-0.031726
O29	O	0.589899	1.260168	-0.365446
O30	O	0.604890	0.697074	0.169531
O31	O	0.706562	0.697057	0.169555
O32	O	0.714309	0.659664	0.001713
O33	O	0.480480	1.297579	-0.197627
O34	O	0.582152	1.297562	-0.197604
O35	O	0.613305	0.901824	0.061263
O36	O	0.677718	0.879801	-0.037529
O37	O	0.636776	1.077422	-0.158358
O38	O	0.572363	1.099445	-0.059565
C39	C	0.578214	0.685075	-0.068540
C40	C	0.571705	0.585448	-0.058556
C41	C	0.600756	0.530106	-0.103113
C42	C	0.594029	0.427136	-0.092795
C43	C	0.437397	0.978648	-0.097994
C44	C	0.383095	0.978658	-0.098006
C45	C	0.067761	0.875450	-0.034856
C46	C	0.016742	0.875445	-0.034847
O47	O	0.008528	0.787721	0.018823
N48	N	-0.030146	0.978600	-0.097919
C49	C	-0.026014	1.081768	-0.160997
O50	O	-0.070581	1.169509	-0.214643
C51	C	0.025004	1.081774	-0.161000
C52	C	0.071892	0.978610	-0.097932
C53	C	0.114647	0.772296	0.028208
C54	C	0.165663	0.772301	0.028196
C55	C	0.169793	0.875461	-0.034879
C56	C	0.122907	0.978615	-0.097943
C57	C	0.029135	1.184942	-0.224071
C58	C	0.080159	1.184938	-0.224068
C59	C	0.127046	1.081775	-0.161000
C60	C	0.178053	1.081780	-0.161029
N61	N	0.224941	0.978626	-0.097957
C62	C	0.220811	0.875466	-0.034882
C63	C	-0.133155	1.081750	-0.160984
C64	C	-0.184172	1.081745	-0.160988
C65	C	-0.141412	0.875422	-0.034836
C66	C	-0.090394	0.875427	-0.034839
C67	C	-0.086266	0.978595	-0.097912
C68	C	0.327947	0.875484	-0.034911
C69	C	0.378965	0.875498	-0.034931
C70	C	0.336201	1.081821	-0.161078
C71	C	0.285187	1.081807	-0.161062
C72	C	0.281063	0.978630	-0.097970
O73	O	0.186308	1.169460	-0.214668
O74	O	0.265381	0.787742	0.018766
C75	C	0.757392	0.978594	-0.097921
C76	C	0.811693	0.978585	-0.097908
C77	C	0.609585	0.919777	-0.362083
C78	C	0.613723	0.899805	-0.451725
C79	C	0.616574	1.272168	-0.127374
C80	C	0.623084	1.371795	-0.137358
C81	C	0.595258	0.988935	-0.551629
C82	C	0.599534	0.968296	-0.644280
C83	C	0.585203	1.037466	0.166169
C84	C	0.581065	1.057437	0.255810
C85	C	0.738211	0.685048	-0.068504
C86	C	0.786004	0.585411	-0.058507
C87	C	0.566023	0.743919	0.195586
C88	C	0.555376	0.664264	0.295211
C89	C	0.726020	0.743892	0.195622
C90	C	0.769675	0.664228	0.295260
C91	C	0.468768	1.213350	-0.391536
C92	C	0.425114	1.293015	-0.491174
C93	C	0.456577	1.272195	-0.127411
C94	C	0.408785	1.371831	-0.137407
C95	C	0.628766	1.213323	-0.391500
C96	C	0.639413	1.292979	-0.491125
C97	C	0.779586	0.527134	-0.105405
C98	C	0.824488	0.433524	-0.096033
C99	C	0.875808	0.398188	-0.039757
C100	C	0.882225	0.456475	0.007141
C101	C	0.837324	0.550088	-0.002238
C102	C	0.579237	0.638344	0.393588
C103	C	0.569232	0.563514	0.487204
C104	C	0.535367	0.514599	0.482441
C105	C	0.511502	0.540525	0.384053
C106	C	0.521505	0.615361	0.290439
C107	C	0.823804	0.615320	0.290483
C108	C	0.864828	0.540478	0.384094
C109	C	0.851722	0.514538	0.482482
C110	C	0.797587	0.563454	0.487257
C111	C	0.756564	0.638301	0.393646
C112	C	0.370985	1.341934	-0.486398
C113	C	0.329963	1.416805	-0.580012
C114	C	0.343070	1.442750	-0.678401
C115	C	0.397204	1.393828	-0.683175
C116	C	0.438226	1.318964	-0.589563
C117	C	0.415204	1.430117	-0.090519
C118	C	0.370304	1.523747	-0.099917
C119	C	0.318985	1.559086	-0.156196
C120	C	0.312567	1.500795	-0.203089
C121	C	0.357467	1.407171	-0.193698
C122	C	0.673280	1.341872	-0.486328
C123	C	0.683295	1.416706	-0.579927
C124	C	0.659438	1.442652	-0.678324
C125	C	0.625569	1.393751	-0.683119
C126	C	0.615558	1.318912	-0.589520
H127	H	0.417142	0.791486	0.016430
C128	C	0.524371	0.432275	0.585423
H129	H	0.543439	0.423841	0.644692
H130	H	0.486572	0.462956	0.582358
H131	H	0.536333	0.359226	0.592761
H132	H	0.606148	1.414888	-0.763246
C133	C	0.925193	0.295205	-0.029438
H134	H	0.914015	0.265555	-0.065422
H135	H	0.951559	0.319715	-0.060119
H136	H	0.940466	0.236793	0.043602
C137	C	0.569628	1.112666	-0.574529
H138	H	0.558602	1.165909	-0.649223
H139	H	0.538970	1.124228	-0.544260
H140	H	0.595509	1.124201	-0.544248
C141	C	0.555430	1.181176	-0.767100
H142	H	0.544404	1.234417	-0.841794
H143	H	0.524772	1.192734	-0.736830
H144	H	0.581309	1.192720	-0.736821
C145	C	0.471649	1.391261	-0.028608
H146	H	0.469035	1.439400	-0.002043
H147	H	0.484824	1.313757	0.029064
H148	H	0.495910	1.396683	-0.074664
H149	H	0.587979	1.279110	-0.593441
C150	C	0.084696	1.298426	-0.293455
H151	H	0.049463	1.359856	-0.331017
H152	H	0.101560	1.313115	-0.249422
H153	H	0.105857	1.292322	-0.342752
C154	C	0.217234	0.658826	0.097584
H155	H	0.248215	0.673587	0.088552
H156	H	0.215498	0.626845	0.170159
H157	H	0.219806	0.606040	0.076835
H158	H	0.924015	0.427690	0.052960
H159	H	0.111293	0.688286	0.079577
H160	H	0.667594	1.503594	-0.754531
C161	C	0.663416	0.410755	-0.199214
H162	H	0.662645	0.474855	-0.198041
H163	H	0.698964	0.349260	-0.167019
H164	H	0.653512	0.432206	-0.270755
H165	H	0.285888	1.456626	-0.576104
H166	H	-0.144783	0.791422	0.016520
H167	H	0.588669	0.542414	0.567306
C168	C	0.323417	0.761991	0.034482
H169	H	0.358651	0.700563	0.072027
H170	H	0.302255	0.768080	0.083778
H171	H	0.306556	0.747302	-0.009562
H172	H	0.712490	0.678113	0.397551
C173	C	0.233610	1.195283	-0.230435
H174	H	0.243379	1.256722	-0.267997
H175	H	0.214962	1.189185	-0.279716
H176	H	0.210676	1.209961	-0.186375
C177	C	0.377372	1.587841	-0.048318
H178	H	0.414365	1.553366	-0.013441
H179	H	0.366605	1.666303	-0.101685
H180	H	0.355511	1.583371	0.002027
H181	H	0.483929	0.500688	0.380191
C182	C	0.896848	0.432209	0.585448
H183	H	0.881294	0.423767	0.644733
H184	H	0.915160	0.359174	0.592771
H185	H	0.921929	0.462912	0.582364
H186	H	0.482299	1.279133	-0.593464
H187	H	0.502075	0.636452	0.210341
H188	H	0.819252	0.386076	-0.134225
H189	H	0.710872	1.456516	-0.576003
H190	H	0.339574	1.165811	-0.212436
C191	C	0.269600	1.662069	-0.166515
H192	H	0.280776	1.691708	-0.130518
H193	H	0.254320	1.720478	-0.239547
H194	H	0.243238	1.637543	-0.135819
H195	H	0.309662	1.503710	-0.754618
H196	H	0.360303	1.320814	-0.406293
H197	H	0.606812	0.678165	0.397487
H198	H	0.270777	1.529583	-0.248912
H199	H	0.630611	0.558951	-0.148894
C200	C	0.411614	1.422365	-0.791405
H201	H	0.379427	1.473946	-0.846464
H202	H	0.435542	1.457233	-0.802467
H203	H	0.428755	1.353510	-0.792060
H204	H	0.618511	0.876702	-0.627333
H205	H	0.842556	0.597529	0.035959
H206	H	-0.222345	1.165748	-0.212357
H207	H	0.352233	1.359717	-0.231877
C208	C	0.639355	0.776076	-0.428830
H209	H	0.638863	0.778436	-0.494106
H210	H	0.675773	0.736722	-0.389125
H211	H	0.619235	0.736741	-0.389144
H212	H	0.834486	0.636427	0.210379
C213	C	0.531375	0.546483	0.003295
H214	H	0.532141	0.482392	0.002109
H215	H	0.541272	0.525040	0.074829
H216	H	0.495825	0.607981	-0.028913
C217	C	0.699528	1.313340	-0.378104
H218	H	0.721136	1.353175	-0.388666
H219	H	0.671951	1.336488	-0.344642
H220	H	0.721705	1.232750	-0.334243
H221	H	0.564175	0.398286	-0.047004
H222	H	0.786923	0.542323	0.567377
C223	C	-0.038823	0.761951	0.034547
H224	H	-0.048596	0.700519	0.072114
H225	H	-0.015875	0.747259	-0.009484
H226	H	-0.020188	0.768063	0.083839
C227	C	-0.128619	1.195239	-0.230385
H228	H	-0.163853	1.256664	-0.267951
H229	H	-0.111759	1.209940	-0.186358
H230	H	-0.107456	1.189131	-0.279679
H231	H	-0.009034	1.268949	-0.275427
H232	H	0.908904	0.500656	0.380188
C233	C	0.723141	0.565991	-0.167318
H234	H	0.725758	0.517875	-0.193911
H235	H	0.698878	0.560568	-0.121274
H236	H	0.709969	0.643504	-0.224988
