data_functionalizedCrystal
_audit_creation_method	'MofGen! by Chris Wilmer'
_symmetry_space_group_name_H-M	'P1'
_symmetry_Int_Tables_number	1
_symmetry_cell_setting	triclinic
loop_
_symmetry_equiv_pos_as_xyz
  x,y,z
_cell_length_a	19.077236
_cell_length_b	13.897447
_cell_length_c	13.897441
_cell_angle_alpha	89.970673
_cell_angle_beta	87.676664
_cell_angle_gamma	92.312415
loop_
_atom_site_label
_atom_site_type_symbol
_atom_site_fract_x
_atom_site_fract_y
_atom_site_fract_z
Zn1	Zn	1.076050	-0.324858	-0.604767
Zn2	Zn	1.409383	0.008476	-0.271433
Zn3	Zn	1.742716	0.341809	0.061900
Zn4	Zn	1.075969	-0.486184	-0.443467
Zn5	Zn	1.409302	-0.152850	-0.110134
Zn6	Zn	1.742635	0.180483	0.223200
Zn7	Zn	0.958345	-0.331368	-0.436990
Zn8	Zn	1.291678	0.001966	-0.103657
Zn9	Zn	1.625011	0.335299	0.229677
Zn10	Zn	0.958327	-0.492581	-0.598228
Zn11	Zn	1.291661	-0.159248	-0.264895
Zn12	Zn	1.624994	0.174086	0.068439
O13	O	1.017173	-0.408747	-0.520863
O14	O	1.350506	-0.075414	-0.187530
O15	O	1.683839	0.257919	0.145804
O16	O	1.174532	-0.340856	-0.588817
O17	O	1.507865	-0.007523	-0.255483
O18	O	1.841199	0.325811	0.077850
O19	O	1.060339	-0.465694	-0.307625
O20	O	1.393672	-0.132361	0.025709
O21	O	1.727005	0.200972	0.359042
O22	O	0.974000	-0.195520	-0.459271
O23	O	1.307333	0.137813	-0.125938
O24	O	1.640666	0.471147	0.207395
O25	O	1.174472	-0.459382	-0.470311
O26	O	1.507806	-0.126048	-0.136977
O27	O	1.841139	0.207285	0.196356
O28	O	1.060477	-0.190737	-0.582536
O29	O	1.393810	0.142596	-0.249203
O30	O	1.727144	0.475929	0.084130
O31	O	0.973921	-0.351951	-0.302866
O32	O	1.307254	-0.018618	0.030467
O33	O	1.640588	0.314715	0.363801
O34	O	0.859849	-0.358154	-0.452931
O35	O	1.193182	-0.024821	-0.119598
O36	O	1.526516	0.308512	0.213735
O37	O	0.973970	-0.470285	-0.734079
O38	O	1.307304	-0.136951	-0.400745
O39	O	1.640637	0.196382	-0.067412
O40	O	0.859837	-0.476597	-0.571392
O41	O	1.193170	-0.143264	-0.238059
O42	O	1.526503	0.190069	0.095274
O43	O	1.060460	-0.347059	-0.738882
O44	O	1.393794	-0.013726	-0.405549
O45	O	1.727127	0.319607	-0.072216
O46	O	1.060322	-0.622016	-0.463971
O47	O	1.393655	-0.288683	-0.130637
O48	O	1.726989	0.044650	0.202696
O49	O	0.973892	-0.626716	-0.577673
O50	O	1.307225	-0.293383	-0.244340
O51	O	1.640558	0.039951	0.088994
C52	C	0.834305	-0.418777	-0.510750
C53	C	1.167638	-0.085444	-0.177417
C54	C	1.500971	0.247890	0.155916
C55	C	0.756073	-0.423091	-0.506447
C56	C	1.089406	-0.089758	-0.173113
C57	C	1.422740	0.243576	0.160220
C58	C	0.719351	-0.363506	-0.566219
C59	C	1.052685	-0.030172	-0.232886
C60	C	1.386018	0.303161	0.100448
C61	C	0.645844	-0.367555	-0.562167
C62	C	0.979178	-0.034221	-0.228834
C63	C	1.312511	0.299112	0.104499
C64	C	0.609060	-0.431194	-0.498347
C65	C	0.942394	-0.097861	-0.165014
C66	C	1.275727	0.235472	0.168319
C67	C	0.645787	-0.490782	-0.438569
C68	C	0.979121	-0.157449	-0.105235
C69	C	1.312454	0.175885	0.228098
C70	C	0.719293	-0.486728	-0.442616
C71	C	1.052626	-0.153394	-0.109283
C72	C	1.385960	0.179939	0.224050
C73	C	0.389219	-0.449922	-0.479611
C74	C	0.722552	-0.116589	-0.146278
C75	C	1.055885	0.216745	0.187056
C76	C	0.315708	-0.453974	-0.475570
C77	C	0.649041	-0.120641	-0.142237
C78	C	0.982375	0.212693	0.191097
C79	C	0.315770	-0.330745	-0.599168
C80	C	0.649103	0.002588	-0.265834
C81	C	0.982437	0.335922	0.067499
C82	C	0.389277	-0.326700	-0.603214
C83	C	0.722610	0.006633	-0.269880
C84	C	1.055944	0.339966	0.063453
C85	C	0.425998	-0.386284	-0.543432
C86	C	0.759331	-0.052951	-0.210098
C87	C	1.092664	0.280382	0.123235
N88	N	0.533924	-0.435337	-0.494206
N89	N	0.867258	-0.102003	-0.160873
N90	N	1.200591	0.231330	0.172460
N91	N	0.501132	-0.382137	-0.547568
N92	N	0.834465	-0.048803	-0.214235
N93	N	1.167799	0.284530	0.119098
C94	C	1.017115	-0.659365	-0.520837
C95	C	1.350449	-0.326032	-0.187504
C96	C	1.683782	0.007302	0.145829
C97	C	1.017155	-0.766577	-0.520862
C98	C	1.350489	-0.433243	-0.187529
C99	C	1.683822	-0.099910	0.145804
C100	C	1.017189	-0.853645	-0.520886
C101	C	1.350523	-0.520311	-0.187553
C102	C	1.683856	-0.186978	0.145781
C103	C	1.017239	-0.962874	-0.520914
C104	C	1.350572	-0.629541	-0.187580
C105	C	1.683905	-0.296208	0.145753
C106	C	1.200754	-0.398679	-0.531016
C107	C	1.534088	-0.065346	-0.197682
C108	C	1.867421	0.267987	0.135651
C109	C	1.278986	-0.394389	-0.535342
C110	C	1.612320	-0.061055	-0.202009
C111	C	1.945653	0.272278	0.131325
C112	C	1.017222	-0.408659	-0.772459
C113	C	1.350556	-0.075326	-0.439125
C114	C	1.683889	0.258007	-0.105792
C115	C	1.017244	-0.408622	-0.879674
C116	C	1.350577	-0.075289	-0.546341
C117	C	1.683910	0.258045	-0.213007
C118	C	1.017249	-0.157150	-0.520911
C119	C	1.350583	0.176183	-0.187577
C120	C	1.683916	0.509516	0.145756
C121	C	1.017282	-0.049934	-0.520931
C122	C	1.350615	0.283399	-0.187598
C123	C	1.683949	0.616732	0.145736
C124	C	1.017263	-0.408556	-1.075970
C125	C	1.350596	-0.075222	-0.742637
C126	C	1.683930	0.258111	-0.409304
C127	C	1.017250	-0.408595	-0.966737
C128	C	1.350583	-0.075262	-0.633404
C129	C	1.683917	0.258071	-0.300070
C130	C	1.017163	-0.408763	-0.270248
C131	C	1.350497	-0.075430	0.063085
C132	C	1.683830	0.257903	0.396419
C133	C	1.017278	-0.408522	-0.163041
C134	C	1.350612	-0.075188	0.170292
C135	C	1.683945	0.258145	0.503626
H136	H	0.419108	-0.498441	-0.430933
H137	H	0.752441	-0.165107	-0.097600
H138	H	1.085774	0.168226	0.235734
C139	C	0.759690	-0.552270	-0.376870
C140	C	1.093023	-0.218937	-0.043536
C141	C	1.426357	0.114397	0.289797
H142	H	0.808735	-0.540734	-0.388413
H143	H	1.142068	-0.207401	-0.055080
H144	H	1.475402	0.125932	0.278254
H145	H	0.747641	-0.617763	-0.390206
H146	H	1.080974	-0.284430	-0.056873
H147	H	1.414308	0.048904	0.276460
H148	H	0.747623	-0.538730	-0.311417
H149	H	1.080956	-0.205397	0.021916
H150	H	1.414290	0.127936	0.355249
C151	C	0.759811	-0.293505	-0.636422
C152	C	1.093144	0.039828	-0.303089
C153	C	1.426477	0.373161	0.030245
H154	H	0.808848	-0.299629	-0.630281
H155	H	1.142181	0.033704	-0.296948
H156	H	1.475514	0.367037	0.036386
H157	H	0.747769	-0.229342	-0.621757
H158	H	1.081102	0.103991	-0.288423
H159	H	1.414436	0.437324	0.044910
H160	H	0.747781	-0.308372	-0.700548
H161	H	1.081115	0.024961	-0.367215
H162	H	1.414448	0.358294	-0.033881
C163	C	0.429738	-0.256703	-0.673418
C164	C	0.763071	0.076630	-0.340085
C165	C	1.096404	0.409964	-0.006752
H166	H	0.478774	-0.262831	-0.667276
H167	H	0.812108	0.070502	-0.333943
H168	H	1.145441	0.403836	-0.000610
H169	H	0.417700	-0.192536	-0.658761
H170	H	0.751033	0.140797	-0.325428
H171	H	1.084367	0.474130	0.007906
H172	H	0.417708	-0.271576	-0.737542
H173	H	0.751041	0.061757	-0.404209
H174	H	1.084374	0.395090	-0.070876
C175	C	0.275380	-0.265203	-0.664921
C176	C	0.608713	0.068130	-0.331587
C177	C	0.942046	0.401463	0.001746
H178	H	0.307815	-0.226727	-0.703513
H179	H	0.641148	0.106606	-0.370180
H180	H	0.974482	0.439939	-0.036847
H181	H	0.246697	-0.224712	-0.626520
H182	H	0.580030	0.108622	-0.293186
H183	H	0.913364	0.441955	0.040147
H184	H	0.246716	-0.303741	-0.705312
H185	H	0.580050	0.029592	-0.371978
H186	H	0.913383	0.362925	-0.038645
H187	H	0.285760	-0.505802	-0.423600
H188	H	0.619094	-0.172469	-0.090266
H189	H	0.952427	0.160865	0.243067
C190	C	0.605330	-0.560786	-0.368367
C191	C	0.938664	-0.227453	-0.035034
C192	C	1.271997	0.105880	0.298299
H193	H	0.637730	-0.595687	-0.333343
H194	H	0.971063	-0.262354	-0.000010
H195	H	1.304397	0.070980	0.333324
H196	H	0.576663	-0.604441	-0.403615
H197	H	0.909996	-0.271108	-0.070281
H198	H	1.243329	0.062226	0.263052
H199	H	0.576647	-0.525414	-0.324820
H200	H	0.909980	-0.192081	0.008513
H201	H	1.243314	0.141253	0.341847
C202	C	0.605453	-0.302013	-0.627919
C203	C	0.938787	0.031321	-0.294585
C204	C	1.272120	0.364654	0.038748
H205	H	0.637888	-0.263539	-0.666515
H206	H	0.971221	0.069794	-0.333182
H207	H	1.304555	0.403127	0.000152
H208	H	0.576774	-0.261518	-0.589517
H209	H	0.910107	0.071815	-0.256183
H210	H	1.243441	0.405149	0.077150
H211	H	0.576787	-0.340550	-0.668306
H212	H	0.910120	-0.007216	-0.334973
H213	H	1.243454	0.326117	-0.001639
