data_functionalizedCrystal
_audit_creation_method	'MofGen! by Chris Wilmer'
_symmetry_space_group_name_H-M	'P1'
_symmetry_Int_Tables_number	1
_symmetry_cell_setting	triclinic
loop_
_symmetry_equiv_pos_as_xyz
  x,y,z
_cell_length_a	16.109301
_cell_length_b	13.596369
_cell_length_c	14.519709
_cell_angle_alpha	90.006934
_cell_angle_beta	83.570813
_cell_angle_gamma	90.002607
loop_
_atom_site_label
_atom_site_type_symbol
_atom_site_fract_x
_atom_site_fract_y
_atom_site_fract_z
O1	O	1.103338	0.081731	0.118543
O2	O	1.603338	0.581731	0.618543
O3	O	0.861301	0.081747	0.133295
O4	O	1.361301	0.581747	0.633295
O5	O	0.988737	0.081730	-0.008333
O6	O	1.488737	0.581730	0.491667
O7	O	0.975902	0.081749	0.260171
O8	O	1.475902	0.581749	0.760171
O9	O	0.988724	-0.081853	-0.008341
O10	O	1.488724	0.418147	0.491659
O11	O	0.861289	-0.081836	0.133287
O12	O	1.361289	0.418164	0.633287
O13	O	1.103325	-0.081852	0.118535
O14	O	1.603325	0.418148	0.618535
Zn15	Zn	0.982305	-0.107816	0.125910
Zn16	Zn	1.482305	0.392184	0.625910
Zn17	Zn	0.982322	0.107712	0.125920
Zn18	Zn	1.482322	0.607712	0.625920
O19	O	0.975890	-0.081834	0.260163
O20	O	1.475890	0.418166	0.760163
C21	C	0.830319	-0.000042	0.132693
C22	C	1.330319	0.499958	0.632693
C23	C	0.738021	-0.000037	0.130902
C24	C	1.238021	0.499963	0.630902
N25	N	0.982300	-0.254908	0.125903
N26	N	1.482300	0.245092	0.625903
C27	C	0.515887	-0.000042	0.210775
C28	C	1.015887	0.499958	0.710775
C29	C	0.429163	-0.000049	0.209085
C30	C	0.929163	0.499951	0.709085
C31	C	0.448747	-0.000056	0.041048
C32	C	0.948747	0.499944	0.541048
C33	C	0.535468	-0.000057	0.042739
C34	C	1.035468	0.499943	0.542739
C35	C	0.569036	-0.000045	0.127606
C36	C	1.069036	0.499955	0.627606
C37	C	0.395591	-0.000051	0.124224
C38	C	0.895591	0.499949	0.624224
C39	C	0.301562	-0.000058	0.122390
C40	C	0.801562	0.499942	0.622390
C41	C	0.663071	-0.000040	0.129440
C42	C	1.163071	0.499960	0.629440
C43	C	0.982321	-0.656199	0.125921
C44	C	1.482321	-0.156199	0.625921
C45	C	0.982312	-0.544547	0.125919
C46	C	1.482312	-0.044547	0.625919
C47	C	0.982311	-0.455557	0.125912
C48	C	1.482311	0.044443	0.625912
C49	C	0.982301	-0.343898	0.125909
C50	C	1.482301	0.156102	0.625909
C51	C	1.134307	-0.000060	0.119136
C52	C	1.634307	0.499940	0.619136
C53	C	1.226606	-0.000059	0.120928
C54	C	1.726606	0.499941	0.620928
C55	C	0.988132	-0.000062	-0.042696
C56	C	1.488132	0.499938	0.457304
C57	C	0.986340	-0.000062	-0.145073
C58	C	1.486340	0.499938	0.354927
N59	N	0.982334	0.254803	0.125920
N60	N	1.482334	0.754803	0.625920
C61	C	0.979741	-0.000036	-0.519955
C62	C	1.479741	0.499964	-0.019955
C63	C	0.981574	-0.000044	-0.415651
C64	C	1.481574	0.499956	0.084349
C65	C	0.983041	-0.000050	-0.332517
C66	C	1.483041	0.499950	0.167483
C67	C	0.984873	-0.000056	-0.228207
C68	C	1.484873	0.499944	0.271793
C69	C	0.976494	-0.000041	0.294526
C70	C	1.476494	0.499959	0.794526
C71	C	0.978287	-0.000034	0.396903
C72	C	1.478287	0.499966	0.896903
H73	H	0.543214	-0.000040	0.279879
H74	H	1.043214	0.499960	0.779879
H75	H	0.578745	-0.000062	-0.024991
H76	H	1.078745	0.499938	0.475009
H77	H	0.421405	-0.000072	-0.028048
H78	H	0.921405	0.499928	0.471952
H79	H	0.385892	-0.000049	0.276810
H80	H	0.885892	0.499951	0.776810
