data_functionalizedCrystal
_audit_creation_method	'MofGen! by Chris Wilmer'
_symmetry_space_group_name_H-M	'P1'
_symmetry_Int_Tables_number	1
_symmetry_cell_setting	triclinic
loop_
_symmetry_equiv_pos_as_xyz
  x,y,z
_cell_length_a	11.169417
_cell_length_b	11.169416
_cell_length_c	11.169409
_cell_angle_alpha	90.031365
_cell_angle_beta	90.019824
_cell_angle_gamma	90.011027
loop_
_atom_site_label
_atom_site_type_symbol
_atom_site_fract_x
_atom_site_fract_y
_atom_site_fract_z
Zn1	Zn	1.834964	-0.477682	0.678551
Zn2	Zn	2.168297	-0.144348	1.011884
Zn3	Zn	2.501631	0.188985	1.345218
Zn4	Zn	1.834854	-0.678422	0.477871
Zn5	Zn	2.168187	-0.345089	0.811205
Zn6	Zn	2.501521	-0.011756	1.144538
Zn7	Zn	1.634250	-0.477755	0.477885
Zn8	Zn	1.967583	-0.144422	0.811219
Zn9	Zn	2.300916	0.188912	1.144552
Zn10	Zn	1.634258	-0.678325	0.678516
Zn11	Zn	1.967591	-0.344991	1.011849
Zn12	Zn	2.300925	-0.011658	1.345183
O13	O	1.734581	-0.578046	0.578206
O14	O	2.067915	-0.244713	0.911539
O15	O	2.401248	0.088621	1.244872
O16	O	2.002899	-0.504321	0.651939
O17	O	2.336232	-0.170987	0.985272
O18	O	2.669566	0.162346	1.318606
O19	O	1.808194	-0.651875	0.309923
O20	O	2.141527	-0.318542	0.643257
O21	O	2.474861	0.014792	0.976590
O22	O	1.660918	-0.309796	0.504524
O23	O	1.994251	0.023538	0.837858
O24	O	2.327584	0.356871	1.171191
O25	O	2.002818	-0.651804	0.504500
O26	O	2.336152	-0.318471	0.837834
O27	O	2.669485	0.014863	1.171167
O28	O	1.808381	-0.309742	0.651953
O29	O	2.141715	0.023592	0.985286
O30	O	2.475048	0.356925	1.318619
O31	O	1.660811	-0.504445	0.309934
O32	O	1.994144	-0.171112	0.643267
O33	O	2.327478	0.162221	0.976600
O34	O	1.466301	-0.504351	0.504491
O35	O	1.799635	-0.171017	0.837824
O36	O	2.132968	0.162316	1.171157
O37	O	1.660931	-0.651637	0.846470
O38	O	1.994265	-0.318304	1.179804
O39	O	2.327598	0.015029	1.513137
O40	O	1.466307	-0.651708	0.651893
O41	O	1.799641	-0.318375	0.985227
O42	O	2.132974	0.014958	1.318560
O43	O	1.808389	-0.504226	0.846496
O44	O	2.141723	-0.170893	1.179829
O45	O	2.475056	0.162441	1.513163
O46	O	1.808202	-0.846359	0.504467
O47	O	2.141535	-0.513026	0.837800
O48	O	2.474869	-0.179692	1.171133
O49	O	1.660825	-0.846287	0.651880
O50	O	1.994158	-0.512954	0.985213
O51	O	2.327492	-0.179621	1.318546
C52	C	1.422757	-0.578028	0.578190
C53	C	1.756090	-0.244694	0.911524
C54	C	2.089423	0.088639	1.244857
C55	C	1.289357	-0.578049	0.578212
C56	C	1.622690	-0.244716	0.911546
C57	C	1.956023	0.088618	1.244879
C58	C	1.734535	-0.889871	0.578194
C59	C	2.067868	-0.556537	0.911527
C60	C	2.401202	-0.223204	1.244861
C61	C	1.734625	-1.023271	0.578229
C62	C	2.067958	-0.689937	0.911562
C63	C	2.401291	-0.356604	1.244896
C64	C	2.047624	-0.578065	0.578222
C65	C	2.380957	-0.244732	0.911555
C66	C	2.714290	0.088602	1.244889
C67	C	2.181024	-0.578073	0.578229
C68	C	2.514357	-0.244740	0.911562
C69	C	2.847690	0.088593	1.244896
C70	C	1.734674	-0.577913	0.891248
C71	C	2.068007	-0.244579	1.224582
C72	C	2.401340	0.088754	1.557915
C73	C	1.734713	-0.577856	1.024649
C74	C	2.068046	-0.244523	1.357982
C75	C	2.401379	0.088811	1.691315
C76	C	1.734661	-0.265004	0.578244
C77	C	2.067994	0.068330	0.911577
C78	C	2.401327	0.401663	1.244911
C79	C	1.734695	-0.131604	0.578260
C80	C	2.068028	0.201730	0.911594
C81	C	2.401361	0.535063	1.244927
C82	C	1.734559	-0.578092	0.266381
C83	C	2.067892	-0.244759	0.599714
C84	C	2.401225	0.088575	0.933048
C85	C	1.734752	-0.577811	0.132982
C86	C	2.068085	-0.244477	0.466315
C87	C	2.401419	0.088856	0.799648
