data_functionalizedCrystal
_audit_creation_method	'MofGen! by Chris Wilmer'
_symmetry_space_group_name_H-M	'P1'
_symmetry_Int_Tables_number	1
_symmetry_cell_setting	triclinic
loop_
_symmetry_equiv_pos_as_xyz
  x,y,z
_cell_length_a	10.654550
_cell_length_b	10.723024
_cell_length_c	9.130313
_cell_angle_alpha	89.999893
_cell_angle_beta	89.996220
_cell_angle_gamma	84.476386
loop_
_atom_site_label
_atom_site_type_symbol
_atom_site_fract_x
_atom_site_fract_y
_atom_site_fract_z
O1	O	1.667808	0.175269	-0.121916
O2	O	1.302327	0.191968	-0.121892
O3	O	1.493498	0.002044	-0.121899
O4	O	1.476637	0.365194	-0.121909
O5	O	1.493495	0.002049	0.121700
O6	O	1.302324	0.191973	0.121707
O7	O	1.667805	0.175274	0.121683
Cu8	Cu	1.485065	0.183624	0.143937
Cu9	Cu	1.485067	0.183618	-0.144146
O10	O	1.476634	0.365199	0.121690
C11	C	1.255528	0.190745	-0.000089
C12	C	1.116085	0.187076	-0.000080
C13	C	1.036583	0.298901	-0.000105
C14	C	0.905562	0.295446	-0.000130
C15	C	0.933560	0.068333	-0.000113
C16	C	1.064578	0.071789	-0.000077
C17	C	1.020417	0.430023	-0.000121
C18	C	0.889397	0.426568	-0.000146
C19	C	1.492269	-0.044454	-0.000101
C20	C	1.488598	-0.183008	-0.000106
C21	C	1.595568	-0.257975	-0.000115
C22	C	1.591776	-0.401179	-0.000120
C23	C	1.714604	0.176498	-0.000123
C24	C	1.854047	0.180166	-0.000141
C25	C	1.477863	0.411696	-0.000111
C26	C	1.481534	0.550251	-0.000116
N27	N	1.485072	0.183628	0.346560
N28	N	1.485070	0.183605	-0.346769
C29	C	1.569744	0.099558	0.423209
C30	C	1.569741	0.099543	0.576546
C31	C	1.400389	0.267679	0.576571
C32	C	1.400387	0.267687	0.423237
C33	C	1.667522	0.002490	0.423195
C34	C	1.667519	0.002475	0.576532
H35	H	0.891606	-0.025530	-0.000132
H36	H	1.394211	-0.224844	-0.000110
H37	H	1.049740	0.481307	0.101829
C38	C	1.359456	-0.363811	-0.000409
C39	C	1.354844	-0.288282	-0.125750
C40	C	1.242399	-0.209103	-0.126081
H41	H	1.355993	-0.312336	0.084442
H42	H	1.289765	-0.412817	-0.000488
H43	H	1.424516	-0.239281	-0.125659
H44	H	1.358286	-0.339723	-0.210622
H45	H	1.172707	-0.258109	-0.126160
H46	H	1.238945	-0.157637	-0.041225
H47	H	1.239249	-0.157856	-0.211130
C48	C	1.067713	0.485787	-0.140424
C49	C	0.965493	0.519196	-0.233415
C50	C	1.009013	0.570580	-0.362668
H51	H	1.125310	0.425725	-0.187789
H52	H	1.108960	0.558064	-0.117655
H53	H	0.924265	0.446929	-0.256186
H54	H	0.907886	0.579270	-0.186095
H55	H	1.050261	0.642857	-0.339898
H56	H	1.066610	0.510511	-0.410019
H57	H	0.939664	0.593265	-0.425772
H58	H	1.331429	0.336132	0.360831
H59	H	1.331440	0.336116	0.639019
C60	C	0.828705	0.479512	0.140150
C61	C	0.922052	0.518098	0.233128
C62	C	0.866187	0.566886	0.362370
H63	H	0.786242	0.416820	0.187532
H64	H	0.769963	0.549147	0.117364
H65	H	0.980772	0.448471	0.255916
H66	H	0.964522	0.580802	0.185792
H67	H	0.807444	0.636521	0.339585
H68	H	0.823725	0.504187	0.409739
H69	H	0.929512	0.593082	0.425466
H70	H	1.637019	-0.088166	0.624084
H71	H	0.847658	0.475971	-0.102101
C72	C	1.721466	-0.202272	-0.000430
C73	C	1.789604	-0.242205	-0.125782
C74	C	1.905582	-0.190906	-0.126134
H75	H	1.768044	-0.229217	0.084414
H76	H	1.707335	-0.113430	-0.000508
H77	H	1.803738	-0.331028	-0.125690
H78	H	1.743064	-0.215262	-0.210646
H79	H	1.891451	-0.102064	-0.126212
H80	H	1.952148	-0.217855	-0.041285
H81	H	1.951823	-0.217984	-0.211190
C82	C	1.789080	0.042845	0.359525
C83	C	1.847285	-0.054025	0.273224
C84	C	1.959241	-0.016865	0.214517
H85	H	1.844084	0.061120	0.436838
H86	H	1.770531	0.115483	0.300901
H87	H	1.865837	-0.126640	0.331845
H88	H	1.792317	-0.072312	0.195888
H89	H	1.940693	0.055772	0.155893
H90	H	2.014234	0.001410	0.291839
H91	H	1.998741	-0.082580	0.155945
H92	H	1.646094	-0.093428	0.381580
H93	H	1.683350	-0.465598	-0.000121
C94	C	1.796248	0.030726	0.632120
C95	C	1.848652	-0.069754	0.717201
C96	C	1.967236	-0.043781	0.768419
H97	H	1.787471	0.104646	0.690027
H98	H	1.849929	0.042564	0.551231
H99	H	1.794984	-0.081577	0.798078
H100	H	1.857461	-0.143685	0.659325
H101	H	2.020917	-0.031944	0.687529
H102	H	1.958446	0.030140	0.826320
H103	H	2.002812	-0.111957	0.826140
H104	H	1.129305	-0.019270	-0.000036
