data_functionalizedCrystal
_audit_creation_method	'MofGen! by Chris Wilmer'
_symmetry_space_group_name_H-M	'P1'
_symmetry_Int_Tables_number	1
_symmetry_cell_setting	triclinic
loop_
_symmetry_equiv_pos_as_xyz
  x,y,z
_cell_length_a	10.685980
_cell_length_b	12.827892
_cell_length_c	10.686551
_cell_angle_alpha	85.594733
_cell_angle_beta	81.591741
_cell_angle_gamma	94.382190
loop_
_atom_site_label
_atom_site_type_symbol
_atom_site_fract_x
_atom_site_fract_y
_atom_site_fract_z
Zn1	Zn	1.995786	-0.234228	-0.866707
Zn2	Zn	1.979362	-0.423541	-0.654445
Zn3	Zn	1.767213	-0.263313	-0.638171
Zn4	Zn	1.783486	-0.423440	-0.850356
O5	O	1.881462	-0.336131	-0.752420
O6	O	2.171241	-0.247211	-0.852203
O7	O	1.937536	-0.414502	-0.474655
O8	O	1.797597	-0.113213	-0.668519
O9	O	2.159174	-0.386299	-0.696256
O10	O	1.965529	-0.091844	-0.836423
O11	O	1.781671	-0.296782	-0.462698
O12	O	1.591738	-0.296684	-0.652664
O13	O	1.825331	-0.386126	-1.030156
O14	O	1.603693	-0.414328	-0.808555
O15	O	1.981308	-0.247112	-1.042169
O16	O	1.953315	-0.569770	-0.680401
O17	O	1.809406	-0.569695	-0.824335
C18	C	1.551657	-0.358652	-0.727070
C19	C	1.410568	-0.368310	-0.716256
C20	C	1.881380	-0.607647	-0.752390
C21	C	1.881465	-0.723793	-0.752429
C22	C	1.964534	-0.764918	-0.835580
C23	C	1.964623	-0.884960	-0.835621
C24	C	2.212554	-0.313522	-0.777869
C25	C	2.353646	-0.303887	-0.788714
C26	C	1.906967	-0.313363	-1.083509
C27	C	1.917836	-0.303661	-1.224599
C28	C	1.881580	-0.063549	-0.752480
C29	C	1.881630	0.052609	-0.752505
C30	C	1.856129	-0.358729	-0.422624
C31	C	1.845506	-0.368119	-0.281553
H32	H	1.351356	-0.430857	-0.645938
O33	O	2.001745	-0.228935	-1.295007
C34	C	2.161742	-0.086244	-1.293700
C35	C	2.066793	-0.170837	-1.213814
H36	H	2.214341	-0.039233	-1.228087
H37	H	2.232908	-0.125417	-1.360828
H38	H	2.108196	-0.031405	-1.351335
H39	H	2.120232	-0.225702	-1.156101
H40	H	1.995630	-0.131593	-1.146765
H41	H	2.035583	-0.711258	-0.906743
O42	O	1.796656	-0.905117	-0.667742
C43	C	1.624070	-0.794718	-0.637461
C44	C	1.720214	-0.842554	-0.733591
H45	H	1.562259	-0.744109	-0.690662
H46	H	1.561504	-0.860358	-0.574903
H47	H	1.677340	-0.744214	-0.575637
H48	H	1.667047	-0.893048	-0.795499
H49	H	1.782777	-0.776864	-0.796059
O50	O	1.761732	-0.442725	-1.210772
C51	C	1.674244	-0.520812	-1.000891
C52	C	1.769149	-0.436258	-1.080906
H53	H	1.680228	-0.515626	-0.895881
H54	H	1.573839	-0.507689	-1.018921
H55	H	1.698469	-0.601774	-1.028653
H56	H	1.745042	-0.355260	-1.053192
H57	H	1.869526	-0.449473	-1.062868
O58	O	1.424459	-0.229356	-0.872572
C59	C	1.634369	-0.151380	-0.960085
C60	C	1.554317	-0.235849	-0.865083
H61	H	1.739372	-0.156586	-0.954044
H62	H	1.616374	-0.164578	-1.060469
H63	H	1.606604	-0.070382	-0.936010
H64	H	1.582034	-0.316881	-0.889042
H65	H	1.572320	-0.222558	-0.764727
O66	O	2.049350	-0.927363	-0.920504
C67	C	2.126776	-1.085673	-0.997854
C68	C	2.030732	-1.037789	-0.901672
H69	H	2.111774	-1.174958	-0.982645
H70	H	2.112293	-1.058826	-1.098517
H71	H	2.227435	-1.058673	-0.983548
H72	H	1.930034	-1.064766	-0.915862
H73	H	2.045326	-1.064632	-0.801045
H74	H	1.810407	-0.777455	-0.681277
