data_functionalizedCrystal
_audit_creation_method	'MofGen! by Chris Wilmer'
_symmetry_space_group_name_H-M	'P1'
_symmetry_Int_Tables_number	1
_symmetry_cell_setting	triclinic
loop_
_symmetry_equiv_pos_as_xyz
  x,y,z
_cell_length_a	15.625950
_cell_length_b	15.538191
_cell_length_c	9.482900
_cell_angle_alpha	95.622696
_cell_angle_beta	98.467298
_cell_angle_gamma	66.741480
loop_
_atom_site_label
_atom_site_type_symbol
_atom_site_fract_x
_atom_site_fract_y
_atom_site_fract_z
O1	O	1.085411	0.177955	0.451144
O2	O	0.838490	0.176733	0.321012
O3	O	1.010017	0.043370	0.411403
O4	O	0.913885	0.311318	0.360753
O5	O	0.975141	0.070575	0.634817
O6	O	0.803614	0.203938	0.544426
O7	O	1.050535	0.205159	0.674558
Cu8	Cu	0.923890	0.207033	0.629891
Cu9	Cu	0.965135	0.174860	0.365679
O10	O	0.879008	0.338522	0.584167
C11	C	0.790222	0.187691	0.416471
C12	C	0.698361	0.179800	0.368058
C13	C	1.002637	0.022537	0.528406
C14	C	1.032598	-0.080071	0.544182
C15	C	0.734961	-0.387404	0.387352
C16	C	0.763132	-0.483819	0.402202
C17	C	0.921592	-0.495856	0.485713
C18	C	0.893435	-0.399440	0.470864
C19	C	0.800118	-0.345222	0.421684
C20	C	0.958593	-0.357258	0.505195
C21	C	0.930436	-0.260850	0.490354
C22	C	0.837123	-0.206625	0.441180
C23	C	0.771962	-0.248814	0.406842
C24	C	1.051908	-0.411477	0.554384
C25	C	1.117065	-0.369295	0.588716
C26	C	1.088911	-0.272887	0.573865
C27	C	0.995597	-0.218661	0.524691
C28	C	1.154072	-0.230698	0.608203
C29	C	1.125915	-0.134290	0.593361
C30	C	0.967441	-0.122253	0.509850
C31	C	0.301104	0.228024	0.817574
C32	C	0.214789	0.220619	0.772016
C33	C	0.252853	0.190966	0.528483
C34	C	0.339171	0.198372	0.574019
C35	C	0.363290	0.216900	0.718566
C36	C	0.401357	0.187248	0.475011
C37	C	0.487669	0.194649	0.520545
C38	C	0.511796	0.213174	0.665087
C39	C	0.449602	0.224301	0.764100
C40	C	0.377239	0.168714	0.330466
C41	C	0.439425	0.157590	0.231458
C42	C	0.525736	0.164998	0.276990
C43	C	0.549863	0.183522	0.421532
C44	C	0.587930	0.153871	0.177977
C45	C	0.674243	0.161272	0.223511
C46	C	0.636176	0.190923	0.467066
C47	C	1.098804	0.194201	0.579096
C48	C	1.190666	0.202091	0.627500
C49	C	0.886388	0.359355	0.467161
C50	C	0.856429	0.461962	0.451377
N51	N	0.894886	0.229661	0.815727
N52	N	0.994148	0.152225	0.179848
C53	C	0.956576	0.181529	0.920435
C54	C	0.932449	0.200364	1.075138
H55	H	0.814198	-0.128122	0.429105
H56	H	1.064828	0.097067	1.154970
H57	H	1.178973	-0.099944	0.621319
C58	C	0.327447	0.248190	0.974440
C59	C	0.416336	0.252312	0.993111
C60	C	0.440630	0.270900	1.137585
H61	H	0.328488	0.199717	1.029253
H62	H	0.282590	0.306492	1.004958
H63	H	0.461182	0.194018	0.962610
H64	H	0.415318	0.300786	0.938331
H65	H	0.395773	0.329202	1.168103
H66	H	0.441666	0.222423	1.192386
H67	H	0.500939	0.273707	1.150270
C68	C	0.838221	0.274035	1.108119
C69	C	0.829278	0.361472	1.066462
C70	C	0.742485	0.429355	1.096805
H71	H	0.834426	0.277049	1.207656
H72	H	0.789202	0.257764	1.057395
H73	H	0.878284	0.377739	1.117188
H74	H	0.833056	0.358489	0.966929
H75	H	0.693466	0.413084	1.046082
H76	H	0.738698	0.432360	1.196343
H77	H	0.736402	0.488686	1.068534
C78	C	0.670643	-0.189803	0.353662
C79	C	0.631909	-0.120089	0.457627
C80	C	0.538585	-0.065704	0.408683
H81	H	0.635753	-0.228614	0.335347
H82	H	0.668503	-0.161374	0.268258
H83	H	0.634042	-0.148516	0.543005
H84	H	0.666771	-0.081257	0.475954
H85	H	0.536446	-0.037276	0.323279
H86	H	0.503705	-0.104523	0.390369
H87	H	0.512295	-0.018392	0.479209
C88	C	0.800551	0.303076	0.848768
C89	C	0.728525	0.278789	0.773944
C90	C	0.641610	0.346391	0.804356
H91	H	0.794192	0.362519	0.820611
H92	H	0.796803	0.305954	0.948322
H93	H	0.732271	0.275923	0.674412
H94	H	0.734853	0.219358	0.802089
H95	H	0.637862	0.349268	0.903909
H96	H	0.635261	0.405830	0.776198
H97	H	0.592731	0.329918	0.753603
H98	H	0.419777	0.142500	0.113768
C99	C	0.866129	-0.063515	0.456216
C100	C	0.843115	-0.097346	0.319702
C101	C	0.749797	-0.043267	0.270259
H102	H	0.858581	-0.000043	0.452161
H103	H	0.825981	-0.067369	0.519328
H104	H	0.883251	-0.093483	0.256605
H105	H	0.850640	-0.160811	0.323719
H106	H	0.709649	-0.047121	0.333372
H107	H	0.742259	0.020202	0.266213
H108	H	0.734168	-0.066219	0.177636
C109	C	1.082653	-0.516156	0.570665
C110	C	1.178312	-0.554605	0.621127
C111	C	1.206663	-0.651028	0.636160
H112	H	1.072016	-0.545352	0.480761
H113	H	1.047639	-0.526286	0.636563
H114	H	1.213316	-0.544482	0.555232
H115	H	1.188973	-0.525436	0.711037
H116	H	1.171649	-0.661158	0.702058
H117	H	1.196021	-0.680215	0.546252
H118	H	1.271568	-0.677126	0.670412
H119	H	0.658974	-0.343257	0.347295
H120	H	0.710063	-0.518157	0.374261
H121	H	1.193043	-0.413452	0.628763
C122	C	1.255350	-0.289736	0.661515
C123	C	1.266065	-0.383198	0.667141
C124	C	1.359353	-0.437611	0.716230
H125	H	1.271229	-0.267034	0.754177
H126	H	1.295486	-0.285963	0.598312
H127	H	1.225943	-0.386967	0.730343
H128	H	1.250206	-0.405927	0.574496
H129	H	1.399489	-0.433838	0.653026
H130	H	1.375224	-0.414902	0.808888
H131	H	1.366637	-0.501032	0.720041
H132	H	0.997571	-0.540013	0.525761
H133	H	0.233205	0.175876	0.410793
H134	H	0.655808	0.206025	0.584767
C135	C	0.147377	0.232775	0.879729
C136	C	0.186969	0.250606	1.016053
C137	C	0.124894	0.261817	1.115307
H138	H	0.135807	0.177149	0.879293
H139	H	0.089982	0.283930	0.855030
H140	H	0.244347	0.199456	1.040746
H141	H	0.198537	0.306234	1.016536
H142	H	0.067499	0.312971	1.090608
H143	H	0.113328	0.206188	1.114857
H144	H	0.151745	0.273925	1.207811
H145	H	0.582079	0.219199	0.702158
C146	C	0.561872	0.133563	0.021070
C147	C	0.628169	0.047638	-0.023492
C148	C	0.604190	0.028896	-0.168022
H149	H	0.560921	0.181994	-0.033748
H150	H	0.501585	0.130688	0.008080
H151	H	0.688441	0.050521	-0.010515
H152	H	0.629130	-0.000810	0.031286
H153	H	0.543903	0.026020	-0.181012
H154	H	0.603239	0.077332	-0.222827
H155	H	0.649164	-0.029409	-0.198273
C156	C	1.050758	0.107860	0.887277
C157	C	1.059712	0.020399	0.928843
C158	C	1.146455	-0.047483	0.898291
H159	H	1.099833	0.124057	0.937918
H160	H	1.054444	0.104932	0.787698
H161	H	1.056035	0.023328	1.028404
H162	H	1.010658	0.004173	0.878209
H163	H	1.150141	-0.050411	0.798712
H164	H	1.195523	-0.031278	0.948934
H165	H	1.152538	-0.106835	0.926476
C166	C	0.741879	0.149019	0.116122
C167	C	0.826363	0.073614	0.152944
C168	C	0.888687	0.062287	0.054037
H169	H	0.753526	0.204610	0.116665
H170	H	0.715202	0.136876	0.023502
H171	H	0.853035	0.085763	0.245540
H172	H	0.814746	0.018009	0.152391
H173	H	0.862011	0.050144	-0.038583
H174	H	0.900327	0.117883	0.054588
H175	H	0.946014	0.011119	0.079000
H176	H	0.306955	0.162693	0.293396
H177	H	0.469234	0.239402	0.881801
