data_functionalizedCrystal
_audit_creation_method	'MofGen! by Chris Wilmer'
_symmetry_space_group_name_H-M	'P1'
_symmetry_Int_Tables_number	1
_symmetry_cell_setting	triclinic
loop_
_symmetry_equiv_pos_as_xyz
  x,y,z
_cell_length_a	27.732064
_cell_length_b	16.992694
_cell_length_c	16.053802
_cell_angle_alpha	92.750953
_cell_angle_beta	92.548353
_cell_angle_gamma	93.341177
loop_
_atom_site_label
_atom_site_type_symbol
_atom_site_fract_x
_atom_site_fract_y
_atom_site_fract_z
O1	O	0.100541	-1.042485	-0.069312
O2	O	0.600541	-0.542485	0.430688
O3	O	0.099417	-0.814214	-0.069337
O4	O	0.599417	-0.314214	0.430663
O5	O	0.029889	-0.935433	-0.069327
O6	O	0.529889	-0.435433	0.430673
O7	O	0.170069	-0.921267	-0.069322
O8	O	0.670069	-0.421267	0.430678
O9	O	0.033699	-0.928761	0.069531
O10	O	0.533699	-0.428761	0.569531
O11	O	0.103227	-0.807542	0.069522
O12	O	0.603227	-0.307542	0.569522
O13	O	0.104352	-1.035813	0.069546
O14	O	0.604352	-0.535813	0.569546
Zn15	Zn	0.104394	-0.920618	0.091581
Zn16	Zn	0.604394	-0.420618	0.591581
Zn17	Zn	0.099374	-0.929409	-0.091371
Zn18	Zn	0.599374	-0.429409	0.408629
O19	O	0.173879	-0.914595	0.069536
O20	O	0.673879	-0.414595	0.569536
C21	C	0.099876	-0.781683	0.000089
C22	C	0.599876	-0.281683	0.500089
C23	C	0.095562	-0.694692	0.000079
C24	C	0.595562	-0.194692	0.500079
N25	N	0.107820	-0.914625	0.216440
N26	N	0.607820	-0.414625	0.716440
C27	C	0.013774	-0.931798	0.000100
C28	C	0.513774	-0.431798	0.500100
C29	C	-0.039919	-0.930896	0.000092
C30	C	0.460081	-0.430896	0.500092
C31	C	-0.420355	-0.853126	0.000080
C32	C	0.079645	-0.353126	0.500080
C33	C	-0.218551	-0.856444	0.000079
C34	C	0.281449	-0.356444	0.500079
O35	O	-0.189909	-0.796098	0.000039
O36	O	0.310091	-0.296098	0.500039
N37	N	-0.196316	-0.928324	0.000087
N38	N	0.303684	-0.428324	0.500087
C39	C	-0.224535	-0.999380	0.000089
C40	C	0.275465	-0.499380	0.500089
O41	O	-0.200992	-1.060595	0.000087
O42	O	0.299008	-0.560595	0.500087
C43	C	-0.426337	-0.996062	0.000084
C44	C	0.073663	-0.496062	0.500084
C45	C	-0.448570	-0.924177	0.000085
C46	C	0.051430	-0.424177	0.500085
C47	C	-0.442587	-0.781247	0.000080
C48	C	0.057413	-0.281247	0.500080
C49	C	-0.493035	-0.780418	0.000085
C50	C	0.006965	-0.280418	0.500085
C51	C	-0.521250	-0.851469	0.000089
C52	C	-0.021250	-0.351469	0.500089
C53	C	-0.499018	-0.923348	0.000090
C54	C	0.000982	-0.423348	0.500090
C55	C	-0.454556	-1.067118	0.000081
C56	C	0.045444	-0.567118	0.500081
C57	C	-0.505009	-1.066282	0.000077
C58	C	-0.005009	-0.566282	0.500077
C59	C	-0.527242	-0.994397	0.000078
C60	C	-0.027242	-0.494397	0.500078
C61	C	-0.577681	-0.993570	0.000099
C62	C	-0.077681	-0.493570	0.500099
N63	N	-0.599916	-0.921690	0.000092
N64	N	-0.099916	-0.421690	0.500092
C65	C	-0.571701	-0.850639	0.000087
C66	C	-0.071701	-0.350639	0.500087
C67	C	-0.118585	-1.001117	0.000094
C68	C	0.381415	-0.501117	0.500094
C69	C	-0.068134	-1.001947	0.000097
C70	C	0.431866	-0.501947	0.500097
C71	C	-0.062154	-0.859010	0.000085
C72	C	0.437846	-0.359010	0.500085
C73	C	-0.112606	-0.858181	0.000088
C74	C	0.387394	-0.358181	0.500088
C75	C	-0.140820	-0.929237	0.000086
C76	C	0.359180	-0.429237	0.500086
C77	C	-0.677645	-0.848904	0.000097
C78	C	-0.177645	-0.348904	0.500097
C79	C	-0.728098	-0.848081	0.000106
C80	C	-0.228098	-0.348081	0.500106
C81	C	-0.734073	-0.991017	0.000113
C82	C	-0.234073	-0.491017	0.500113
C83	C	-0.683625	-0.991840	0.000109
C84	C	-0.183625	-0.491840	0.500109
C85	C	-0.655412	-0.920777	0.000098
C86	C	-0.155412	-0.420777	0.500098
O87	O	-0.606353	-1.053883	0.000130
O88	O	-0.106353	-0.553883	0.500130
O89	O	-0.595253	-0.789434	0.000070
O90	O	-0.095253	-0.289434	0.500070
C91	C	-0.369907	-0.853955	0.000075
C92	C	0.130093	-0.353955	0.500075
C93	C	-0.347674	-0.925835	0.000075
C94	C	0.152326	-0.425835	0.500075
C95	C	-0.375889	-0.996885	0.000080
C96	C	0.124111	-0.496885	0.500080
C97	C	-0.297224	-0.926664	0.000078
C98	C	0.202776	-0.426664	0.500078
C99	C	-0.269009	-0.855614	0.000073
C100	C	0.230991	-0.355614	0.500073
C101	C	-0.291244	-0.783734	0.000066
C102	C	0.208756	-0.283734	0.500066
C103	C	-0.341692	-0.782905	0.000070
C104	C	0.158308	-0.282905	0.500070
C105	C	-0.353654	-1.068765	0.000088
C106	C	0.146346	-0.568765	0.500088
C107	C	-0.303206	-1.069588	0.000084
C108	C	0.196794	-0.569588	0.500084
C109	C	-0.274991	-0.998538	0.000079
C110	C	0.225009	-0.498538	0.500079
C111	C	0.189994	-0.918230	0.000108
C112	C	0.689994	-0.418230	0.500108
C113	C	0.243687	-0.919131	0.000110
C114	C	0.743687	-0.419131	0.500110
C115	C	0.103892	-1.068344	0.000119
C116	C	0.603892	-0.568344	0.500119
C117	C	0.108206	-1.155336	0.000123
C118	C	0.608206	-0.655336	0.500123
C119	C	0.137185	-0.643951	0.000081
C120	C	0.637185	-0.143951	0.500081
C121	C	0.133129	-0.562212	0.000093
C122	C	0.633129	-0.062212	0.500093
C123	C	0.087449	-0.531217	0.000096
C124	C	0.587449	-0.031217	0.500096
C125	C	0.045823	-0.581964	0.000096
C126	C	0.545823	-0.081964	0.500096
C127	C	0.049880	-0.663700	0.000091
C128	C	0.549880	-0.163700	0.500091
C129	C	0.070637	-0.287820	0.000118
C130	C	0.570637	0.212180	0.500118
C131	C	0.066583	-0.206077	0.000121
C132	C	0.566583	0.293923	0.500121
C133	C	0.153889	-0.186331	0.000119
C134	C	0.653889	0.313669	0.500119
C135	C	0.157942	-0.268070	0.000108
C136	C	0.657942	0.231930	0.500108
C137	C	0.116316	-0.318810	0.000113
C138	C	0.616316	0.181190	0.500113
N139	N	0.083302	-0.447667	0.000105
N140	N	0.583302	0.052333	0.500105
N141	N	0.120463	-0.402358	0.000110
N142	N	0.620463	0.097642	0.500110
N143	N	0.095945	-0.935409	-0.216231
N144	N	0.595945	-0.435409	0.283769
C145	C	0.078248	-0.966222	0.260139
C146	C	0.578248	-0.466222	0.760139
C147	C	0.080649	-0.962037	0.347545
C148	C	0.580649	-0.462037	0.847545
C149	C	0.112626	-0.906257	0.391252
C150	C	0.612626	-0.406257	0.891252
C151	C	0.142199	-0.854655	0.347547
C152	C	0.642199	-0.354655	0.847547
C153	C	0.139795	-0.858837	0.260143
C154	C	0.639795	-0.358837	0.760143
C155	C	0.123114	-0.887989	0.652660
C156	C	0.623114	-0.387989	1.152660
C157	C	0.125517	-0.883812	0.740071
C158	C	0.625517	-0.383812	1.240071
C159	C	0.063966	-0.991193	0.740062
C160	C	0.563966	-0.491193	1.240062
C161	C	0.061567	-0.995374	0.652656
C162	C	0.561567	-0.495374	1.152656
C163	C	0.091138	-0.943768	0.608959
C164	C	0.591138	-0.443768	1.108959
N165	N	0.115082	-0.901979	0.480595
N166	N	0.615082	-0.401979	0.980595
N167	N	0.088679	-0.948043	0.519617
N168	N	0.588679	-0.448043	1.019617
H169	H	-0.746196	-0.789541	0.000110
H170	H	-0.246196	-0.289541	0.500110
H171	H	0.151558	-0.838387	0.775653
H172	H	0.651558	-0.338387	1.275653
H173	H	0.039890	-1.033207	0.775648
H174	H	0.539890	-0.533207	1.275648
Br175	Br	0.199182	-0.686008	0.000068
Br176	Br	0.699182	-0.186008	0.500068
Br177	Br	0.179927	-0.788804	0.200838
Br178	Br	0.679927	-0.288804	0.700838
Br179	Br	-0.006611	-0.732565	0.000095
Br180	Br	0.493389	-0.232565	0.500095
Br181	Br	0.018172	-1.071077	0.593338
Br182	Br	0.518172	-0.571077	1.093338
Br183	Br	0.219938	-0.310130	0.000094
Br184	Br	0.719938	0.189870	0.500094
Br185	Br	0.163246	-0.817957	0.593362
Br186	Br	0.663246	-0.317957	1.093362
Br187	Br	0.034853	-1.041932	0.200832
Br188	Br	0.534853	-0.541932	0.700832
Br189	Br	-0.653450	-1.089397	0.000144
Br190	Br	-0.153450	-0.589397	0.500144
Br191	Br	0.040513	-1.032059	0.406853
Br192	Br	0.540513	-0.532059	0.906853
Br193	Br	0.185593	-0.778947	0.406860
Br194	Br	0.685593	-0.278947	0.906860
H195	H	-0.654680	-0.791037	0.000088
H196	H	-0.154680	-0.291037	0.500088
H197	H	-0.511132	-0.721882	0.000078
H198	H	-0.011132	-0.221882	0.500078
Br199	Br	-0.404305	-0.684808	0.000069
Br200	Br	0.095695	-0.184808	0.500069
Br201	Br	-0.016171	-0.539899	0.000109
Br202	Br	0.483829	-0.039899	0.500109
Br203	Br	0.004586	-0.164012	0.000143
Br204	Br	0.504586	0.335988	0.500143
H205	H	-0.039173	-0.801158	0.000085
H206	H	0.460827	-0.301158	0.500085
Br207	Br	-0.037968	-1.099508	0.000111
Br208	Br	0.462032	-0.599508	0.500111
Br209	Br	-0.142773	-0.760620	0.000089
Br210	Br	0.357227	-0.260620	0.500089
H211	H	-0.141553	-1.058983	0.000093
H212	H	0.358447	-0.558983	0.500093
H213	H	0.187779	-0.145010	0.000116
H214	H	0.687779	0.354990	0.500116
Br215	Br	-0.424397	-1.164683	0.000060
Br216	Br	0.075603	-0.664683	0.500060
H217	H	-0.757055	-1.048864	0.000121
H218	H	-0.257055	-0.548864	0.500121
Br219	Br	-0.543298	-1.162721	0.000069
Br220	Br	-0.043298	-0.662721	0.500069
H221	H	-0.359789	-0.724369	0.000072
H222	H	0.140211	-0.224369	0.500072
Br223	Br	-0.252942	-0.687309	0.000065
Br224	Br	0.247058	-0.187309	0.500065
Br225	Br	-0.273040	-1.167156	0.000084
Br226	Br	0.226960	-0.667156	0.500084
Br227	Br	0.014144	-0.356671	0.000126
Br228	Br	0.514144	0.143329	0.500126
H229	H	0.167023	-0.520902	0.000094
H230	H	0.667023	-0.020902	0.500094
H231	H	-0.376622	-1.126625	0.000091
H232	H	0.123378	-0.626625	0.500091
