data_functionalizedCrystal
_audit_creation_method	'MofGen! by Chris Wilmer'
_symmetry_space_group_name_H-M	'P1'
_symmetry_Int_Tables_number	1
_symmetry_cell_setting	triclinic
loop_
_symmetry_equiv_pos_as_xyz
  x,y,z
_cell_length_a	19.077105
_cell_length_b	29.839131
_cell_length_c	19.076919
_cell_angle_alpha	87.732541
_cell_angle_beta	89.923776
_cell_angle_gamma	87.737628
loop_
_atom_site_label
_atom_site_type_symbol
_atom_site_fract_x
_atom_site_fract_y
_atom_site_fract_z
Zn1	Zn	1.058171	-0.217337	0.440392
Zn2	Zn	1.062777	-0.289569	0.322877
Zn3	Zn	0.945391	-0.211319	0.318186
Zn4	Zn	0.940599	-0.289298	0.435629
O5	O	1.001735	-0.251881	0.379271
O6	O	1.157112	-0.229551	0.428760
O7	O	1.051139	-0.276784	0.223924
O8	O	0.960429	-0.149253	0.334427
O9	O	1.160497	-0.282620	0.342422
O10	O	1.043288	-0.153674	0.424211
O11	O	0.964896	-0.219294	0.220477
O12	O	0.846425	-0.219031	0.329809
O13	O	0.952262	-0.282158	0.534592
O14	O	0.842904	-0.276322	0.416094
O15	O	1.038641	-0.229288	0.538091
O16	O	1.046493	-0.352398	0.337803
O17	O	0.956729	-0.352199	0.420642
C18	C	0.819169	-0.246995	0.371926
C19	C	0.741065	-0.244915	0.368801
C20	C	0.702560	-0.273809	0.412186
C21	C	0.629174	-0.271849	0.409252
C22	C	0.594294	-0.240998	0.362930
C23	C	0.632804	-0.212102	0.319543
C24	C	0.706189	-0.214059	0.322481
C25	C	0.375011	-0.231938	0.349338
C26	C	0.301621	-0.229984	0.346403
C27	C	0.297996	-0.289731	0.436113
C28	C	0.371382	-0.291688	0.439043
C29	C	0.409886	-0.262790	0.395659
N30	N	0.519281	-0.238996	0.359929
N31	N	0.484897	-0.264790	0.398664
C32	C	1.001609	-0.368599	0.379231
C33	C	1.001619	-0.418534	0.379240
C34	C	1.048554	-0.728276	0.336206
C35	C	1.048639	-0.915952	0.336237
O36	O	1.088445	-0.940297	0.299616
N37	N	1.001878	-0.939328	0.379330
C38	C	0.955095	-0.915782	0.422422
O39	O	0.915329	-0.939972	0.459082
C40	C	0.955014	-0.728107	0.422395
C41	C	1.001773	-0.704734	0.379293
C42	C	1.095310	-0.704902	0.293109
C43	C	1.095285	-0.657986	0.293099
C44	C	1.048505	-0.634443	0.336186
C45	C	1.001749	-0.657817	0.379283
C46	C	0.908235	-0.704563	0.465490
C47	C	0.908220	-0.657641	0.465480
C48	C	0.954979	-0.634267	0.422379
C49	C	0.954944	-0.587358	0.422360
N50	N	1.001705	-0.563982	0.379267
C51	C	1.048485	-0.587525	0.336180
C52	C	0.955141	-1.014314	0.422432
C53	C	0.955160	-1.061233	0.422439
C54	C	1.048705	-1.061399	0.336254
C55	C	1.048682	-1.014480	0.336245
C56	C	1.001902	-0.990938	0.379339
C57	C	1.048430	-0.488997	0.336161
C58	C	1.048399	-0.442077	0.336153
C59	C	0.954857	-0.441914	0.422340
C60	C	0.954885	-0.488831	0.422346
C61	C	1.001677	-0.512371	0.379255
O62	O	0.915164	-0.562985	0.458967
O63	O	1.088256	-0.563328	0.299537
C64	C	1.048578	-0.775192	0.336216
C65	C	1.001822	-0.798566	0.379313
C66	C	0.955041	-0.775024	0.422401
C67	C	1.001841	-0.845485	0.379319
C68	C	1.048622	-0.869027	0.336232
C69	C	1.095383	-0.845651	0.293139
C70	C	1.095359	-0.798735	0.293129
C71	C	0.908280	-0.798400	0.465494
C72	C	0.908308	-0.845316	0.465500
C73	C	0.955089	-0.868859	0.422413
C74	C	1.185013	-0.256787	0.386645
C75	C	1.263116	-0.258877	0.389788
C76	C	0.994403	-0.256364	0.562551
C77	C	0.991279	-0.258274	0.640654
C78	C	1.001879	-0.134708	0.379327
C79	C	1.001941	-0.084775	0.379351
C80	C	1.009078	-0.247384	0.196706
C81	C	1.012338	-0.245351	0.118609
C82	C	1.034782	-0.231647	0.679169
C83	C	1.031838	-0.233440	0.752555
C84	C	0.985394	-0.261863	0.787424
C85	C	0.941886	-0.288492	0.748903
C86	C	0.944827	-0.286696	0.675518
C87	C	0.971772	-0.270184	1.006704
C88	C	0.968835	-0.271978	1.080093
C89	C	1.058787	-0.216925	1.083741
C90	C	1.061727	-0.215134	1.010355
C91	C	1.018216	-0.241761	0.971840
N92	N	0.982385	-0.263698	0.862436
N93	N	1.021222	-0.239924	0.896830
H94	H	0.273224	-0.204856	0.308686
C95	C	1.078949	-0.204466	0.794398
C96	C	1.037507	-0.175627	0.834916
C97	C	1.080880	-0.148921	0.873461
H98	H	1.108412	-0.223115	0.824314
H99	H	1.107015	-0.187257	0.763138
H100	H	1.009453	-0.192834	0.866173
H101	H	1.008045	-0.156969	0.805018
H102	H	1.108946	-0.131712	0.842201
H103	H	1.110341	-0.167574	0.903373
H104	H	1.052768	-0.129348	0.900952
H105	H	0.597826	-0.295378	0.444580
H106	H	1.086534	-0.508158	0.301074
H107	H	1.099548	-0.191990	0.981970
H108	H	0.737539	-0.190529	0.287155
H109	H	0.916767	-0.422739	0.457419
H110	H	1.094209	-0.195246	1.115107
C111	C	0.256316	-0.321151	0.483255
C112	C	0.302571	-0.348593	0.524442
C113	C	0.264202	-0.377545	0.567877
H114	H	0.226484	-0.304031	0.512836
H115	H	0.228752	-0.339303	0.455196
H116	H	0.330123	-0.330443	0.552499
H117	H	0.332403	-0.365722	0.494879
H118	H	0.236637	-0.395697	0.539817
H119	H	0.234371	-0.360422	0.597453
H120	H	0.295580	-0.396171	0.595822
H121	H	1.086757	-0.995452	0.301148
H122	H	0.936353	-0.291872	0.975354
C123	C	0.904500	-1.086668	0.469276
C124	C	0.942457	-1.115740	0.515940
C125	C	0.895814	-1.139180	0.559096
H126	H	0.876621	-1.065976	0.495001
H127	H	0.874996	-1.103548	0.441167
H128	H	0.971948	-1.098861	0.544046
H129	H	0.970333	-1.136441	0.490234
H130	H	0.866310	-1.156060	0.530987
H131	H	0.867938	-1.118485	0.584817
H132	H	0.921560	-1.158911	0.590758
H133	H	1.072604	-0.208503	0.650785
C134	C	0.918334	-0.302851	1.117823
C135	C	0.880845	-0.325777	1.068387
C136	C	0.834316	-0.354215	1.103117
H137	H	0.943965	-0.323883	1.147521
H138	H	0.886559	-0.285555	1.145211
H139	H	0.912616	-0.343072	1.041010
H140	H	0.855200	-0.304756	1.038687
H141	H	0.802540	-0.336919	1.130505
H142	H	0.859952	-0.375245	1.132814
H143	H	0.808869	-0.369771	1.069580
C144	C	0.891530	-0.319340	0.786887
C145	C	0.898278	-0.315223	0.859399
C146	C	0.851909	-0.343639	0.894411
H147	H	0.844776	-0.311236	0.773045
H148	H	0.902263	-0.349515	0.775300
H149	H	0.887541	-0.285054	0.870982
H150	H	0.945022	-0.323330	0.873261
H151	H	0.862641	-0.373814	0.882823
H152	H	0.805157	-0.335533	0.880563
H153	H	0.856485	-0.340853	0.943614
C154	C	0.409334	-0.325111	0.489390
C155	C	0.449707	-0.301946	0.536176
C156	C	0.484683	-0.332722	0.582560
H157	H	0.375965	-0.342051	0.514879
H158	H	0.439054	-0.344759	0.463624
H159	H	0.419989	-0.282305	0.561939
H160	H	0.483087	-0.285008	0.510707
H161	H	0.514403	-0.352370	0.556794
H162	H	0.451309	-0.349659	0.608043
H163	H	0.512085	-0.317008	0.614306
H164	H	0.406352	-0.208411	0.314006
H165	H	1.086796	-1.080576	0.301171
C166	C	0.594809	-0.178650	0.269275
C167	C	0.522300	-0.183126	0.275974
C168	C	0.487279	-0.152321	0.229671
H169	H	0.606372	-0.149029	0.280083
H170	H	0.608668	-0.184343	0.222506
H171	H	0.508446	-0.177429	0.322732
H172	H	0.510716	-0.212740	0.265159
H173	H	0.501138	-0.158015	0.182902
H174	H	0.498847	-0.122703	0.240483
H175	H	0.438078	-0.155357	0.234205
H176	H	1.086476	-0.423047	0.301052
C177	C	0.897573	-0.315665	0.633824
C178	C	0.856287	-0.340954	0.680066
C179	C	0.812756	-0.367651	0.641684
H180	H	0.868061	-0.297014	0.603962
H181	H	0.925568	-0.335280	0.606289
H182	H	0.828295	-0.321341	0.707589
H183	H	0.885781	-0.359614	0.709929
H184	H	0.840750	-0.387267	0.614150
H185	H	0.783248	-0.348996	0.611824
H186	H	0.784743	-0.384816	0.673054
C187	C	1.146140	-0.632695	0.246287
C188	C	1.187123	-0.663364	0.208577
C189	C	1.233990	-0.640087	0.165456
H190	H	1.120594	-0.612947	0.214501
H191	H	1.175690	-0.615854	0.274409
H192	H	1.157577	-0.680197	0.180458
H193	H	1.212684	-0.683113	0.240345
H194	H	1.263540	-0.623246	0.193577
H195	H	1.208437	-0.620339	0.133674
H196	H	1.261806	-0.660892	0.139869
H197	H	0.730954	-0.298932	0.449904
H198	H	0.917045	-0.995150	0.457526
C199	C	1.146233	-0.730471	0.246470
C200	C	1.189675	-0.759519	0.288133
C201	C	1.236621	-0.783064	0.245201
H202	H	1.120745	-0.747380	0.214717
H203	H	1.174110	-0.709826	0.220846
H204	H	1.161801	-0.780161	0.313746
H205	H	1.215179	-0.742621	0.319885
H206	H	1.264498	-0.762419	0.219576
H207	H	1.211126	-0.799971	0.213450
H208	H	1.266106	-0.802773	0.273463
H209	H	0.870155	-0.723586	0.500584
C210	C	0.857465	-0.632143	0.512386
C211	C	0.869929	-0.645647	0.582535
C212	C	0.823183	-0.622172	0.625762
H213	H	0.864098	-0.600846	0.506305
H214	H	0.810663	-0.638363	0.500212
H215	H	0.916720	-0.639423	0.594705
H216	H	0.863291	-0.676940	0.588638
H217	H	0.776381	-0.628392	0.613588
H218	H	0.829819	-0.590877	0.619675
H219	H	0.831629	-0.631334	0.673362
C220	C	0.904087	-0.514131	0.469215
C221	C	0.863124	-0.483469	0.506957
C222	C	0.816334	-0.506756	0.550154
H223	H	0.874512	-0.530991	0.441165
H224	H	0.929713	-0.533862	0.500977
H225	H	0.837500	-0.463746	0.475200
H226	H	0.892680	-0.466607	0.535021
H227	H	0.841960	-0.526488	0.581916
H228	H	0.786764	-0.523616	0.522099
H229	H	0.788540	-0.485956	0.575772
H230	H	1.133435	-0.779707	0.258032
C231	C	1.146165	-0.871300	0.246455
C232	C	1.136191	-0.917392	0.255718
C233	C	1.182973	-0.941038	0.212747
H234	H	1.137875	-0.862266	0.198785
H235	H	1.192960	-0.865113	0.258704
H236	H	1.089407	-0.923577	0.243465
H237	H	1.144486	-0.926440	0.303379
H238	H	1.229768	-0.934850	0.224996
H239	H	1.174679	-0.932000	0.165080
H240	H	1.176216	-0.972313	0.219031
H241	H	0.870225	-0.864343	0.500597
C242	C	0.857404	-0.772923	0.512296
C243	C	0.816450	-0.803441	0.550019
C244	C	0.769562	-0.779991	0.593131
H245	H	0.882933	-0.756057	0.544075
H246	H	0.827836	-0.753183	0.484168
H247	H	0.846014	-0.823174	0.578145
H248	H	0.790905	-0.820308	0.518257
H249	H	0.739994	-0.760251	0.565003
H250	H	0.795097	-0.763125	0.624906
H251	H	0.741765	-0.800693	0.618726
