data_functionalizedCrystal
_audit_creation_method	'MofGen! by Chris Wilmer'
_symmetry_space_group_name_H-M	'P1'
_symmetry_Int_Tables_number	1
_symmetry_cell_setting	triclinic
loop_
_symmetry_equiv_pos_as_xyz
  x,y,z
_cell_length_a	19.121241
_cell_length_b	19.121073
_cell_length_c	13.032268
_cell_angle_alpha	99.245087
_cell_angle_beta	94.426444
_cell_angle_gamma	95.004588
loop_
_atom_site_label
_atom_site_type_symbol
_atom_site_fract_x
_atom_site_fract_y
_atom_site_fract_z
Zn1	Zn	1.003677	-0.294324	-0.673298
Zn2	Zn	1.013513	-0.397063	-0.505685
Zn3	Zn	0.902233	-0.283151	-0.491416
Zn4	Zn	0.880957	-0.416955	-0.673202
O5	O	0.950095	-0.347873	-0.585900
O6	O	1.102911	-0.304304	-0.657075
O7	O	1.011772	-0.368951	-0.357567
O8	O	0.920477	-0.185638	-0.509612
O9	O	1.110138	-0.379786	-0.533931
O10	O	0.995008	-0.193848	-0.643240
O11	O	0.930015	-0.285260	-0.347084
O12	O	0.801481	-0.304549	-0.509519
O13	O	0.884216	-0.413689	-0.819440
O14	O	0.785850	-0.402854	-0.643076
O15	O	0.974377	-0.323593	-0.819510
O16	O	0.991142	-0.498696	-0.533837
O17	O	0.893754	-0.513311	-0.656912
C18	C	0.941224	-0.531673	-0.596936
C19	C	0.937489	-0.610304	-0.601696
C20	C	0.768274	-0.354648	-0.574740
C21	C	0.690487	-0.357566	-0.569991
C22	C	0.913839	-1.055414	-0.631915
C23	C	0.917349	-0.981531	-0.627430
C24	C	0.969838	-0.936962	-0.561160
C25	C	1.018825	-0.966281	-0.499378
C26	C	1.015318	-1.040163	-0.503868
C27	C	0.982969	-0.713504	-0.544404
C28	C	0.986471	-0.639617	-0.539916
C29	C	0.884996	-0.654873	-0.667971
C30	C	0.881490	-0.728755	-0.672451
C31	C	0.930479	-0.758068	-0.610673
C32	C	0.973426	-0.861441	-0.556573
C33	C	0.926894	-0.833588	-0.615266
C34	C	0.650167	-0.319718	-0.631981
C35	C	0.577079	-0.322455	-0.627510
C36	C	0.544311	-0.363045	-0.561053
C37	C	0.584635	-0.400894	-0.499056
C38	C	0.657723	-0.398152	-0.503522
C39	C	0.323823	-0.373281	-0.544349
C40	C	0.250730	-0.376022	-0.539890
C41	C	0.243179	-0.297582	-0.668343
C42	C	0.316267	-0.294847	-0.672808
C43	C	0.356586	-0.332693	-0.610807
C44	C	0.469603	-0.365845	-0.556484
C45	C	0.431294	-0.329888	-0.615372
C46	C	1.132627	-0.341072	-0.597105
C47	C	1.210411	-0.338174	-0.601880
C48	C	0.925826	-0.372106	-0.858450
C49	C	0.915484	-0.382433	-0.974594
C50	C	0.959018	-0.163357	-0.574845
C51	C	0.962821	-0.084728	-0.570134
C52	C	0.955483	-0.342459	-1.026409
C53	C	0.944795	-0.353131	-1.146451
C54	C	0.974313	-0.323682	-0.314411
C55	C	0.984800	-0.313151	-0.198264
H56	H	0.871098	-1.091697	-0.685880
Br57	Br	1.025732	-0.272226	-0.952234
H58	H	0.342942	-0.261798	-0.726928
H59	H	0.877465	-0.957665	-0.677737
H60	H	0.544254	-0.291637	-0.677991
Br61	Br	1.057701	-0.579129	-0.449953
H62	H	0.690550	-0.428971	-0.453042
Br63	Br	0.810261	-0.789238	-0.762407
Br64	Br	0.206255	-0.431134	-0.449723
H65	H	0.845112	-0.631000	-0.718269
Br66	Br	1.049454	-0.753276	-0.460562
Br67	Br	1.090066	-0.905796	-0.409447
H68	H	0.902630	-0.395253	-1.190955
Br69	Br	1.055081	-0.242944	-1.124099
H70	H	0.210344	-0.266769	-0.718820
H71	H	0.873322	-0.424552	-1.019102
Br72	Br	1.081799	-1.079947	-0.420027
H73	H	0.457977	-0.296837	-0.669476
Br74	Br	0.855665	-0.894074	-0.705209
H75	H	1.016162	-0.825147	-0.502612
Br76	Br	0.540166	-0.455974	-0.408854
H77	H	0.676842	-0.286668	-0.686100
Br78	Br	0.378536	-0.424623	-0.460176
H79	H	0.442914	-0.398894	-0.502374
