data_functionalizedCrystal
_audit_creation_method	'MofGen! by Chris Wilmer'
_symmetry_space_group_name_H-M	'P1'
_symmetry_Int_Tables_number	1
_symmetry_cell_setting	triclinic
loop_
_symmetry_equiv_pos_as_xyz
  x,y,z
_cell_length_a	14.519709
_cell_length_b	14.519731
_cell_length_c	7.540329
_cell_angle_alpha	89.995423
_cell_angle_beta	90.002655
_cell_angle_gamma	83.684499
loop_
_atom_site_label
_atom_site_type_symbol
_atom_site_fract_x
_atom_site_fract_y
_atom_site_fract_z
O1	O	1.223875	0.120889	-0.147256
O2	O	1.557208	0.454222	0.186078
O3	O	1.890541	0.787555	0.519411
O4	O	0.955399	0.135125	-0.147310
O5	O	1.288732	0.468458	0.186023
O6	O	1.622066	0.801792	0.519356
O7	O	1.096745	-0.006230	-0.147265
O8	O	1.430078	0.327103	0.186068
O9	O	1.763412	0.660436	0.519401
O10	O	1.082529	0.262244	-0.147300
O11	O	1.415862	0.595577	0.186033
O12	O	1.749196	0.928911	0.519366
O13	O	1.096737	-0.006232	0.147700
O14	O	1.430070	0.327101	0.481033
O15	O	1.763403	0.660435	0.814366
O16	O	0.955391	0.135123	0.147655
O17	O	1.288724	0.468457	0.480988
O18	O	1.622057	0.801790	0.814322
O19	O	1.223866	0.120887	0.147710
O20	O	1.557200	0.454220	0.481043
O21	O	1.890533	0.787554	0.814376
Cu22	Cu	1.089628	0.128005	0.174615
Cu23	Cu	1.422961	0.461338	0.507948
Cu24	Cu	1.756294	0.794672	0.841282
Cu25	Cu	1.089638	0.128007	-0.174216
Cu26	Cu	1.422971	0.461340	0.159118
Cu27	Cu	1.756304	0.794674	0.492451
O28	O	1.082520	0.262242	0.147665
O29	O	1.415854	0.595576	0.480998
O30	O	1.749187	0.928909	0.814331
C31	C	0.921035	0.134461	0.000165
C32	C	1.254368	0.467794	0.333499
C33	C	1.587702	0.801127	0.666832
C34	C	0.818654	0.132473	0.000145
C35	C	1.151987	0.465806	0.333478
C36	C	1.485320	0.799139	0.666812
C37	C	0.443757	0.125153	0.000227
C38	C	0.777091	0.458486	0.333560
C39	C	1.110424	0.791820	0.666893
C40	C	0.548065	0.127186	0.000203
C41	C	0.881399	0.460519	0.333537
C42	C	1.214732	0.793852	0.666870
C43	C	0.631202	0.128813	0.000184
C44	C	0.964535	0.462146	0.333518
C45	C	1.297869	0.795479	0.666851
C46	C	0.735517	0.130846	0.000164
C47	C	1.068850	0.464179	0.333498
C48	C	1.402183	0.797512	0.666831
C49	C	1.096075	-0.040591	0.000217
C50	C	1.429408	0.292743	0.333551
C51	C	1.762741	0.626076	0.666884
C52	C	1.094079	-0.142971	0.000218
C53	C	1.427412	0.190363	0.333552
C54	C	1.760745	0.523696	0.666885
C55	C	1.092457	-0.226115	0.000214
C56	C	1.425790	0.107218	0.333547
C57	C	1.759123	0.440552	0.666880
C58	C	1.090430	-0.330424	0.000200
C59	C	1.423763	0.002910	0.333533
C60	C	1.757097	0.336243	0.666866
C61	C	1.088822	-0.413563	0.000188
C62	C	1.422155	-0.080229	0.333521
C63	C	1.755488	0.253104	0.666855
C64	C	1.086795	-0.517878	0.000177
C65	C	1.420129	-0.184545	0.333511
C66	C	1.753462	0.148789	0.666844
C67	C	1.258230	0.121551	0.000230
C68	C	1.591564	0.454885	0.333563
C69	C	1.924897	0.788218	0.666897
C70	C	1.360612	0.123539	0.000239
C71	C	1.693945	0.456873	0.333572
C72	C	2.027279	0.790206	0.666905
C73	C	1.083191	0.296603	0.000178
C74	C	1.416524	0.629936	0.333511
C75	C	1.749858	0.963269	0.666845
C76	C	1.085187	0.398983	0.000166
C77	C	1.418520	0.732316	0.333499
C78	C	1.751854	1.065649	0.666832
N79	N	1.089627	0.128003	0.419963
N80	N	1.422961	0.461336	0.753297
N81	N	1.756294	0.794670	1.086630
N82	N	1.089645	0.128002	-0.419564
N83	N	1.422979	0.461335	-0.086231
N84	N	1.756312	0.794668	0.247103
