data_functionalizedCrystal
_audit_creation_method	'MofGen! by Chris Wilmer'
_symmetry_space_group_name_H-M	'P1'
_symmetry_Int_Tables_number	1
_symmetry_cell_setting	triclinic
loop_
_symmetry_equiv_pos_as_xyz
  x,y,z
_cell_length_a	11.792254
_cell_length_b	9.616153
_cell_length_c	11.792241
_cell_angle_alpha	89.999829
_cell_angle_beta	95.803993
_cell_angle_gamma	90.003250
loop_
_atom_site_label
_atom_site_type_symbol
_atom_site_fract_x
_atom_site_fract_y
_atom_site_fract_z
O1	O	1.506899	0.115645	-0.155629
O2	O	1.176560	0.115648	-0.171647
O3	O	1.349746	0.115637	0.001533
O4	O	1.333713	0.115656	-0.328808
O5	O	1.349733	-0.115655	0.001523
O6	O	1.176547	-0.115643	-0.171656
O7	O	1.506886	-0.115646	-0.155638
Zn8	Zn	1.341715	-0.152367	-0.163649
Zn9	Zn	1.341731	0.152369	-0.163636
O10	O	1.333700	-0.115635	-0.328818
C11	C	1.134263	0.000003	-0.170642
C12	C	1.008250	0.000004	-0.167622
C13	C	0.905913	0.000010	-0.165168
C14	C	0.777527	0.000010	-0.162100
N15	N	1.341712	-0.360342	-0.163657
C16	C	1.249028	-0.419377	-0.256282
C17	C	1.248714	-0.580545	-0.256017
C18	C	1.315632	-0.581133	-0.044891
C19	C	1.314947	-0.419916	-0.045456
C20	C	1.460789	-0.419727	-0.188689
C21	C	1.460026	-0.580956	-0.191352
C22	C	1.549183	0.000002	-0.156643
C23	C	1.675196	0.000010	-0.159663
C24	C	1.348732	-0.000008	0.043819
C25	C	1.345718	-0.000007	0.169832
N26	N	1.341744	0.360344	-0.163619
C27	C	1.334714	0.000013	-0.371104
C28	C	1.337728	0.000021	-0.497118
C29	C	1.340175	0.000016	0.400545
C30	C	1.343255	0.000004	0.272160
H31	H	1.264356	-0.380620	-0.344801
H32	H	1.161166	-0.378892	-0.240388
C33	C	1.553977	-0.368141	-0.097464
C34	C	1.522255	-0.272611	-0.000730
C35	C	1.615432	-0.221017	0.090498
C36	C	1.740331	-0.264952	0.084990
C37	C	1.772059	-0.360486	-0.011749
C38	C	1.678882	-0.412081	-0.102976
H39	H	1.429792	-0.240084	0.003351
H40	H	1.591944	-0.150296	0.162110
H41	H	1.809306	-0.226759	0.152522
H42	H	1.864522	-0.393014	-0.015829
H43	H	1.702370	-0.482802	-0.174588
H44	H	1.160366	-0.619140	-0.239887
C45	C	1.197620	-0.369139	-0.015913
C46	C	1.105200	-0.475283	0.008029
C47	C	0.987868	-0.424515	0.037569
C48	C	0.962956	-0.267603	0.043167
C49	C	1.055379	-0.161449	0.019224
C50	C	1.172710	-0.212217	-0.010316
H51	H	1.123639	-0.591448	0.003886
H52	H	0.919451	-0.503098	0.055293
H53	H	0.876100	-0.230021	0.065034
H54	H	1.036940	-0.045284	0.023367
H55	H	1.241127	-0.133634	-0.028040
C56	C	1.402863	-0.366887	0.050246
C57	C	1.529517	-0.405771	0.050001
C58	C	1.617528	-0.352628	0.145565
C59	C	1.578885	-0.260602	0.241374
C60	C	1.452225	-0.221714	0.241622
C61	C	1.364214	-0.274856	0.146059
H62	H	1.558128	-0.473899	-0.020925
H63	H	1.711290	-0.381417	0.145381
H64	H	1.644036	-0.221263	0.312116
H65	H	1.423614	-0.153586	0.312549
H66	H	1.270452	-0.246068	0.146243
C67	C	1.404397	-0.632850	0.050556
C68	C	1.501859	-0.729054	0.021731
C69	C	1.590626	-0.780772	0.117176
C70	C	1.581931	-0.736286	0.241447
C71	C	1.484464	-0.640078	0.270278
C72	C	1.395698	-0.588359	0.174832
H73	H	1.508300	-0.761989	-0.070267
H74	H	1.662777	-0.851992	0.095833
H75	H	1.647641	-0.774571	0.312101
H76	H	1.478024	-0.607142	0.362275
H77	H	1.323547	-0.517139	0.196176
H78	H	1.229789	-0.621545	-0.022496
H79	H	1.485804	-0.379074	-0.273491
C80	C	1.486797	-0.632628	-0.309349
C81	C	1.401689	-0.727677	-0.380221
C82	C	1.428455	-0.779358	-0.498218
C83	C	1.540330	-0.735990	-0.545343
C84	C	1.625446	-0.640936	-0.474470
C85	C	1.598680	-0.589255	-0.356473
H86	H	1.318865	-0.759786	-0.345337
H87	H	1.365446	-0.849724	-0.550683
H88	H	1.560145	-0.774248	-0.632692
H89	H	1.708269	-0.608828	-0.509354
H90	H	1.661689	-0.518889	-0.304008
C91	C	1.557614	-0.635297	-0.106226
C92	C	1.655075	-0.720794	-0.149191
C93	C	1.752658	-0.775135	-0.064051
C94	C	1.752778	-0.743978	0.064054
C95	C	1.655313	-0.658477	0.107026
C96	C	1.557731	-0.604136	0.021886
H97	H	1.654989	-0.743862	-0.244028
H98	H	1.824808	-0.838429	-0.095862
H99	H	1.825015	-0.784204	0.127080
H100	H	1.655399	-0.635409	0.201863
H101	H	1.485581	-0.540842	0.053697
H102	H	1.264303	-0.620116	-0.344233
