data_functionalizedCrystal
_audit_creation_method	'MofGen! by Chris Wilmer'
_symmetry_space_group_name_H-M	'P1'
_symmetry_Int_Tables_number	1
_symmetry_cell_setting	triclinic
loop_
_symmetry_equiv_pos_as_xyz
  x,y,z
_cell_length_a	14.519731
_cell_length_b	13.596369
_cell_length_c	14.519709
_cell_angle_alpha	89.998664
_cell_angle_beta	96.315501
_cell_angle_gamma	90.006024
loop_
_atom_site_label
_atom_site_type_symbol
_atom_site_fract_x
_atom_site_fract_y
_atom_site_fract_z
O1	O	1.223858	0.081796	-0.120979
O2	O	1.557191	0.415129	0.212355
O3	O	1.890525	0.748462	0.545688
O4	O	0.955384	0.081797	-0.135195
O5	O	1.288717	0.415131	0.198139
O6	O	1.622050	0.748464	0.531472
O7	O	1.096739	0.081788	0.006151
O8	O	1.430072	0.415121	0.339485
O9	O	1.763406	0.748454	0.672818
O10	O	1.082503	0.081805	-0.262325
O11	O	1.415836	0.415139	0.071009
O12	O	1.749169	0.748472	0.404342
O13	O	1.096722	-0.081795	0.006143
O14	O	1.430055	0.251538	0.339477
O15	O	1.763388	0.584871	0.672810
O16	O	0.955366	-0.081785	-0.135203
O17	O	1.288700	0.251548	0.198131
O18	O	1.622033	0.584881	0.531464
O19	O	1.223841	-0.081787	-0.120986
O20	O	1.557174	0.251546	0.212347
O21	O	1.890507	0.584879	0.545680
Zn22	Zn	1.089601	-0.107759	-0.128096
Zn23	Zn	1.422934	0.225575	0.205238
Zn24	Zn	1.756267	0.558908	0.538571
Zn25	Zn	1.089624	0.107769	-0.128085
Zn26	Zn	1.422957	0.441102	0.205248
Zn27	Zn	1.756290	0.774436	0.538581
O28	O	1.082485	-0.081777	-0.262332
O29	O	1.415819	0.251556	0.071001
O30	O	1.749152	0.584889	0.404334
C31	C	0.921016	0.000006	-0.134532
C32	C	1.254349	0.333339	0.198801
C33	C	1.587682	0.666673	0.532134
C34	C	0.818635	0.000007	-0.132536
C35	C	1.151969	0.333340	0.200797
C36	C	1.485302	0.666673	0.534130
C37	C	0.735491	0.000010	-0.130915
C38	C	1.068825	0.333344	0.202419
C39	C	1.402158	0.666677	0.535752
C40	C	0.631182	0.000011	-0.128888
C41	C	0.964516	0.333344	0.204445
C42	C	1.297849	0.666677	0.537779
C43	C	0.548043	0.000010	-0.127280
C44	C	0.881377	0.333344	0.206054
C45	C	1.214710	0.666677	0.539387
C46	C	0.443728	0.000012	-0.125253
C47	C	0.777061	0.333346	0.208080
C48	C	1.110395	0.666679	0.541414
N49	N	1.089592	-0.254851	-0.128102
N50	N	1.422925	0.078483	0.205231
N51	N	1.756258	0.411816	0.538564
C52	C	1.089596	-0.343848	-0.128104
C53	C	1.422930	-0.010515	0.205229
C54	C	1.756263	0.322818	0.538562
C55	C	1.089605	-0.455500	-0.128098
C56	C	1.422939	-0.122166	0.205235
C57	C	1.756272	0.211167	0.538569
C58	C	1.089617	-0.544490	-0.128088
C59	C	1.422951	-0.211157	0.205246
C60	C	1.756284	0.122176	0.538579
C61	C	1.089628	-0.656149	-0.128082
C62	C	1.422961	-0.322815	0.205251
C63	C	1.756294	0.010518	0.538585
C64	C	1.258209	0.000006	-0.121649
C65	C	1.591542	0.333340	0.211685
C66	C	1.924875	0.666673	0.545018
C67	C	1.360589	0.000012	-0.123645
C68	C	1.693922	0.333346	0.209689
C69	C	2.027256	0.666679	0.543022
C70	C	1.096067	-0.000004	0.040507
C71	C	1.429400	0.333329	0.373840
C72	C	1.762734	0.666663	0.707174
C73	C	1.094079	-0.000005	0.142889
C74	C	1.427412	0.333329	0.476222
C75	C	1.760745	0.666662	0.809555
N76	N	1.089640	0.254861	-0.128072
N77	N	1.422973	0.588194	0.205262
N78	N	1.756307	0.921527	0.538595
C79	C	1.083157	0.000016	-0.296688
C80	C	1.416491	0.333350	0.036645
C81	C	1.749824	0.666683	0.369978
C82	C	1.085146	0.000023	-0.399070
C83	C	1.418479	0.333357	-0.065736
C84	C	1.751812	0.666690	0.267597
C85	C	1.086759	0.000021	0.517785
C86	C	1.420093	0.333354	0.851118
C87	C	1.753426	0.666688	1.184452
C88	C	1.088792	0.000014	0.413477
C89	C	1.422125	0.333347	0.746810
C90	C	1.755459	0.666680	1.080143
C91	C	1.090419	0.000007	0.330340
C92	C	1.423752	0.333341	0.663673
C93	C	1.757085	0.666674	0.997007
C94	C	1.092452	0.000002	0.226025
C95	C	1.425785	0.333335	0.559359
C96	C	1.759118	0.666668	0.892692
