data_functionalizedCrystal
_audit_creation_method	'MofGen! by Chris Wilmer'
_symmetry_space_group_name_H-M	'P1'
_symmetry_Int_Tables_number	1
_symmetry_cell_setting	triclinic
loop_
_symmetry_equiv_pos_as_xyz
  x,y,z
_cell_length_a	15.711784
_cell_length_b	14.750522
_cell_length_c	19.288865
_cell_angle_alpha	75.755472
_cell_angle_beta	78.637476
_cell_angle_gamma	99.523242
loop_
_atom_site_label
_atom_site_type_symbol
_atom_site_fract_x
_atom_site_fract_y
_atom_site_fract_z
O1	O	1.162146	0.079925	-0.398287
O2	O	0.910685	0.079910	-0.345447
O3	O	1.043677	0.079899	-0.272597
O4	O	1.029153	0.079936	-0.471137
O5	O	1.010322	-0.079766	-0.237216
O6	O	0.877329	-0.079755	-0.310066
O7	O	1.128790	-0.079740	-0.362906
Zn8	Zn	0.997764	-0.105098	-0.330869
Zn9	Zn	1.041711	0.105268	-0.377484
O10	O	0.995798	-0.079729	-0.435756
C11	C	0.861836	0.000076	-0.319125
C12	C	0.765977	0.000069	-0.293396
C13	C	0.641402	0.000050	-0.196539
C14	C	0.731475	0.000056	-0.220722
C15	C	0.710412	0.000082	-0.341918
C16	C	0.620336	0.000082	-0.317747
C17	C	0.585838	0.000064	-0.245056
C18	C	0.564773	0.000096	-0.366264
C19	C	0.474704	0.000090	-0.342093
C20	C	0.440198	0.000070	-0.269405
C21	C	0.495769	0.000058	-0.220885
C22	C	0.599271	0.000106	-0.438952
C23	C	0.543707	0.000120	-0.487469
C24	C	0.453638	0.000121	-0.463300
C25	C	0.419133	0.000101	-0.390612
C26	C	0.398067	0.000132	-0.511820
C27	C	0.307998	0.000126	-0.487649
C28	C	0.329064	0.000095	-0.366441
N29	N	0.967778	-0.248667	-0.299056
C30	C	1.155381	-0.600402	-0.498143
C31	C	1.134389	-0.700911	-0.475845
C32	C	1.029984	-0.700919	-0.365015
C33	C	1.050964	-0.600409	-0.387306
C34	C	1.113664	-0.550158	-0.453870
C35	C	1.009247	-0.550165	-0.343032
C36	C	1.030230	-0.449663	-0.365319
C37	C	1.092929	-0.399406	-0.431879
C38	C	1.134646	-0.449657	-0.476157
C39	C	0.946553	-0.600417	-0.276466
C40	C	0.904836	-0.550173	-0.232193
C41	C	0.925813	-0.449670	-0.254482
C42	C	0.988512	-0.399412	-0.321042
C43	C	0.884096	-0.399419	-0.210205
C44	C	0.905078	-0.298917	-0.232492
C45	C	1.009494	-0.298911	-0.343329
C46	C	1.177639	0.000097	-0.389229
C47	C	1.273500	0.000109	-0.414958
C48	C	1.026531	0.000064	-0.228909
C49	C	1.025126	0.000055	-0.151444
N50	N	1.071704	0.248837	-0.409293
C51	C	1.012944	0.000109	-0.479444
C52	C	1.014351	0.000123	-0.556911
C53	C	1.103161	0.000055	-0.126772
C54	C	1.101846	0.000070	-0.053990
C55	C	1.022486	0.000066	-0.005877
C56	C	0.944442	0.000072	-0.030558
C57	C	0.945762	0.000066	-0.103341
C58	C	0.948417	-0.055865	0.130812
C59	C	0.947099	-0.055865	0.203595
C60	C	1.018414	0.000087	0.218610
C61	C	1.091058	0.056028	0.160833
C62	C	1.092377	0.056022	0.088050
C63	C	1.021047	0.000073	0.073045
C64	C	1.095028	0.000105	0.322199
C65	C	1.093711	0.000126	0.394982
C66	C	0.936302	0.000118	0.418415
C67	C	0.937624	0.000106	0.345631
C68	C	1.016989	0.000095	0.297528
H69	H	0.571807	0.000130	-0.546654
O70	O	0.696416	0.000106	-0.465020
H71	H	0.711067	0.000104	-0.523712
H72	H	1.060541	-0.257994	-0.397537
O73	O	1.202263	-0.395452	-0.547958
H74	H	1.209835	-0.317127	-0.556018
O75	O	0.853453	0.000083	0.319019
H76	H	0.798044	0.000071	0.364702
H77	H	0.882214	0.000066	-0.123427
O78	O	0.435274	0.000139	-0.590217
H79	H	0.489401	0.065218	-0.618553
O80	O	1.115517	-0.291006	-0.456008
H81	H	1.187631	-0.264418	-0.461750
O82	O	0.858848	0.000066	0.021334
H83	H	0.804805	0.000072	-0.008054
O84	O	1.223006	-0.546190	-0.569939
H85	H	1.248494	-0.598010	-0.596983
O86	O	0.604182	0.000029	-0.118136
H87	H	0.640114	0.065097	-0.108129
O88	O	1.180629	0.000107	0.270311
H89	H	1.168435	0.000089	0.215558
O90	O	1.170714	0.116371	0.025735
H91	H	1.232392	0.093364	0.034870
O92	O	1.179379	-0.755108	-0.523603
H93	H	1.226496	-0.703277	-0.573634
O94	O	0.850707	0.000112	0.470302
H95	H	0.796664	0.000113	0.440914
H96	H	0.978936	-0.741847	-0.310817
O97	O	0.248058	0.000133	-0.539972
H98	H	0.220103	0.065201	-0.546270
H99	H	0.929476	-0.682252	-0.258319
O100	O	0.343052	0.000059	-0.243324
H101	H	0.328349	0.065144	-0.277524
O102	O	1.167981	0.116390	0.177011
H103	H	1.154857	0.107010	0.237325
O104	O	0.791413	0.000041	-0.168392
H105	H	0.792780	0.065113	-0.149116
H106	H	0.853788	-0.591101	-0.177994
O107	O	0.871493	-0.116221	0.114626
H108	H	0.896067	-0.168744	0.087907
O109	O	0.868751	-0.116204	0.265904
H110	H	0.879819	-0.106812	0.319039
O111	O	0.860082	-0.244714	-0.184747
H112	H	0.812951	-0.296540	-0.134722
O113	O	0.816473	-0.453620	-0.138412
H114	H	0.808890	-0.531946	-0.130354
O115	O	1.188767	0.000069	-0.178655
H116	H	1.212666	-0.064998	-0.155874
O117	O	0.291850	0.000077	-0.288038
H118	H	0.219886	0.000079	-0.279386
O119	O	0.458548	0.000041	-0.142483
H120	H	0.512315	0.000029	-0.112802
O121	O	1.186012	0.000053	-0.027363
H122	H	1.237614	0.065119	-0.061378
O123	O	0.747621	0.000104	-0.420319
H124	H	0.819588	0.000111	-0.428978
O125	O	1.177879	0.000118	0.421599
H126	H	1.233281	0.000097	0.375923
