data_functionalizedCrystal
_audit_creation_method	'MofGen! by Chris Wilmer'
_symmetry_space_group_name_H-M	'P1'
_symmetry_Int_Tables_number	1
_symmetry_cell_setting	triclinic
loop_
_symmetry_equiv_pos_as_xyz
  x,y,z
_cell_length_a	13.897449
_cell_length_b	13.897447
_cell_length_c	12.759393
_cell_angle_alpha	89.967926
_cell_angle_beta	89.976808
_cell_angle_gamma	90.020357
loop_
_atom_site_label
_atom_site_type_symbol
_atom_site_fract_x
_atom_site_fract_y
_atom_site_fract_z
Zn1	Zn	1.474688	-0.383937	-0.594109
Zn2	Zn	1.974688	0.116063	-0.094109
Zn3	Zn	1.474578	-0.545266	-0.418428
Zn4	Zn	1.974578	-0.045266	0.081572
Zn5	Zn	1.313378	-0.383989	-0.418434
Zn6	Zn	1.813378	0.116011	0.081566
Zn7	Zn	1.313354	-0.545194	-0.594055
Zn8	Zn	1.813354	-0.045194	-0.094055
O9	O	1.394000	-0.464596	-0.506257
O10	O	1.894000	0.035404	-0.006257
O11	O	1.609655	-0.405346	-0.570825
O12	O	2.109655	0.094654	-0.070825
O13	O	1.453158	-0.523925	-0.271408
O14	O	1.953158	-0.023925	0.228592
O15	O	1.334833	-0.249000	-0.441763
O16	O	1.834833	0.251000	0.058237
O17	O	1.609574	-0.523874	-0.441752
O18	O	2.109574	-0.023874	0.058248
O19	O	1.453347	-0.248962	-0.570831
O20	O	1.953347	0.251038	-0.070831
O21	O	1.334725	-0.405435	-0.271412
O22	O	1.834725	0.094565	0.228588
O23	O	1.178393	-0.405365	-0.441711
O24	O	1.678393	0.094635	0.058289
O25	O	1.334792	-0.523750	-0.741083
O26	O	1.834792	-0.023750	-0.241083
O27	O	1.178376	-0.523801	-0.570738
O28	O	1.678376	-0.023801	-0.070738
O29	O	1.453323	-0.405276	-0.741123
O30	O	1.953323	0.094724	-0.241123
O31	O	1.453135	-0.680238	-0.441700
O32	O	1.953135	-0.180238	0.058300
O33	O	1.334684	-0.680185	-0.570732
O34	O	1.834684	-0.180185	-0.070732
C35	C	1.143385	-0.464582	-0.506220
C36	C	1.643385	0.035418	-0.006220
C37	C	1.036171	-0.464598	-0.506229
C38	C	1.536171	0.035402	-0.006229
C39	C	1.393921	-0.715211	-0.506232
C40	C	1.893921	-0.215211	-0.006232
C41	C	1.393976	-0.822425	-0.506257
C42	C	1.893976	-0.322425	-0.006257
C43	C	0.949102	-0.464602	-0.506247
C44	C	1.449102	0.035398	-0.006247
C45	C	0.839869	-0.464608	-0.506279
C46	C	1.339869	0.035392	-0.006279
C47	C	1.394022	-0.909494	-0.506281
C48	C	1.894022	-0.409494	-0.006281
C49	C	1.394090	-1.018727	-0.506308
C50	C	1.894090	-0.518727	-0.006308
C51	C	1.645593	-0.464612	-0.506294
C52	C	2.145593	0.035388	-0.006294
C53	C	1.752806	-0.464619	-0.506310
C54	C	2.252806	0.035381	-0.006310
C55	C	1.394067	-0.464499	-0.780290
C56	C	1.894067	0.035501	-0.280290
C57	C	1.394096	-0.464458	-0.897067
C58	C	1.894096	0.035542	-0.397067
C59	C	1.394105	-0.213003	-0.506304
C60	C	1.894105	0.286997	-0.006304
C61	C	1.394149	-0.105789	-0.506324
C62	C	1.894149	0.394211	-0.006324
C63	C	1.455824	-0.402762	-0.951951
C64	C	1.955824	0.097238	-0.451951
C65	C	1.455847	-0.402727	-1.061675
C66	C	1.955847	0.097273	-0.561675
C67	C	1.332411	-0.526092	-1.061621
C68	C	1.832411	-0.026092	-0.561621
C69	C	1.332384	-0.526121	-0.951899
C70	C	1.832384	-0.026121	-0.451899
C71	C	1.527091	-0.331541	-0.951984
C72	C	2.027091	0.168459	-0.451984
C73	C	1.527114	-0.331506	-1.061708
C74	C	2.027114	0.168494	-0.561708
C75	C	1.393988	-0.464624	-0.233289
C76	C	1.893988	0.035376	0.266711
C77	C	1.394146	-0.464393	-0.116513
C78	C	1.894146	0.035607	0.383487
H79	H	1.282116	-0.576356	-0.907216
H80	H	1.782116	-0.076356	-0.407216
O81	O	1.503418	-0.242402	-0.916423
O82	O	2.003418	0.257598	-0.416423
C83	C	1.579389	-0.205745	-0.855063
C84	C	2.079389	0.294255	-0.355063
H85	H	1.649368	-0.243124	-0.877724
H86	H	2.149368	0.256876	-0.377724
H87	H	1.586615	-0.125063	-0.869216
H88	H	2.086615	0.374937	-0.369216
H89	H	1.563616	-0.219404	-0.768636
H90	H	2.063616	0.280596	-0.268636
H91	H	1.282166	-0.576294	-1.106278
H92	H	1.782166	-0.076294	-0.606278
O93	O	1.611723	-0.363614	-0.911502
O94	O	2.111723	0.136386	-0.411502
C95	C	1.628610	-0.458582	-0.945678
C96	C	2.128610	0.041418	-0.445678
H97	H	1.586811	-0.472327	-1.021057
H98	H	2.086811	0.027673	-0.521057
H99	H	1.708780	-0.468892	-0.960909
H100	H	2.208780	0.031108	-0.460909
H101	H	1.603897	-0.511320	-0.882704
H102	H	2.103897	-0.011320	-0.382704
O103	O	1.495108	-0.246830	-1.102205
O104	O	1.995108	0.253170	-0.602205
C105	C	1.400134	-0.229910	-1.067984
C106	C	1.900134	0.270090	-0.567984
H107	H	1.386334	-0.271746	-0.992582
H108	H	1.886334	0.228254	-0.492582
H109	H	1.389862	-0.149744	-1.052776
H110	H	1.889862	0.350256	-0.552776
H111	H	1.347410	-0.254558	-1.130920
H112	H	1.847410	0.245442	-0.630920
O113	O	1.616159	-0.355483	-1.097383
O114	O	2.116159	0.144517	-0.597383
C115	C	1.609934	-0.439616	-1.158711
C116	C	2.109934	0.060384	-0.658711
H117	H	1.533514	-0.447739	-1.189921
H118	H	2.033514	0.052261	-0.689921
H119	H	1.662334	-0.434323	-1.227239
H120	H	2.162334	0.065677	-0.727239
H121	H	1.628921	-0.504818	-1.108569
H122	H	2.128921	-0.004818	-0.608569
