data_functionalizedCrystal
_audit_creation_method	'MofGen! by Chris Wilmer'
_symmetry_space_group_name_H-M	'P1'
_symmetry_Int_Tables_number	1
_symmetry_cell_setting	triclinic
loop_
_symmetry_equiv_pos_as_xyz
  x,y,z
_cell_length_a	19.188929
_cell_length_b	19.188933
_cell_length_c	18.266242
_cell_angle_alpha	90.007623
_cell_angle_beta	89.971860
_cell_angle_gamma	96.854824
loop_
_atom_site_label
_atom_site_type_symbol
_atom_site_fract_x
_atom_site_fract_y
_atom_site_fract_z
O1	O	-0.087175	0.926148	0.060891
O2	O	-0.098908	0.722837	0.060903
O3	O	0.008614	0.830360	0.060852
O4	O	-0.194697	0.818626	0.060943
O5	O	0.008620	0.830342	-0.060910
O6	O	-0.098903	0.722819	-0.060859
O7	O	-0.087170	0.926130	-0.060871
Zn8	Zn	-0.093035	0.824472	-0.080197
Zn9	Zn	-0.093042	0.824496	0.080229
O10	O	-0.194692	0.818608	-0.060819
C11	C	-0.098525	0.696817	0.000023
C12	C	-0.097384	0.619313	0.000025
C13	C	-0.089242	0.066067	0.066386
C14	C	-0.090310	0.138892	0.066389
C15	C	-0.090844	0.175299	0.000017
C16	C	-0.090292	0.138878	-0.066363
C17	C	-0.089217	0.066056	-0.066365
N18	N	-0.132260	0.284311	-0.049368
N19	N	-0.133283	0.353489	-0.049363
C20	C	-0.094082	0.394707	0.000017
N21	N	-0.053828	0.364134	0.049402
N22	N	-0.052808	0.294949	0.049398
C23	C	-0.092009	0.254262	0.000011
C24	C	-0.095787	0.510084	0.066397
C25	C	-0.096851	0.582911	0.066397
C26	C	-0.096840	0.582894	-0.066357
C27	C	-0.095769	0.510071	-0.066356
C28	C	-0.095246	0.473669	0.000023
C29	C	-0.220705	0.818997	0.000073
C30	C	-0.298210	0.820137	0.000108
C31	C	-0.343133	0.757047	0.000097
C32	C	-0.415957	0.758118	0.000080
C33	C	-0.443854	0.822284	0.000060
C34	C	-0.398921	0.885383	0.000076
C35	C	-0.326099	0.884310	0.000100
N36	N	-0.551821	0.871325	-0.041427
N37	N	-0.621000	0.872340	-0.041451
C38	C	-0.663263	0.825522	-0.000010
N39	N	-0.633735	0.777640	0.041447
N40	N	-0.564551	0.776623	0.041468
C41	C	-0.522817	0.823455	0.000035
C42	C	-0.787151	0.763589	-0.000038
C43	C	-0.859976	0.764664	-0.000051
C44	C	-0.842938	0.891930	-0.000063
C45	C	-0.770115	0.890854	-0.000043
C46	C	-0.742226	0.826682	-0.000035
C47	C	0.034628	0.829971	-0.000039
C48	C	0.112132	0.828830	-0.000069
C49	C	-0.087553	0.952150	0.000011
C50	C	-0.088694	1.029655	0.000014
N51	N	-0.093030	0.824461	-0.189684
C52	C	-0.045442	0.872087	-0.228016
C53	C	-0.045439	0.872092	-0.304661
C54	C	-0.093035	0.824476	-0.342971
C55	C	-0.140626	0.776841	-0.304630
C56	C	-0.140624	0.776833	-0.227987
N57	N	-0.154843	0.815400	-0.463276
N58	N	-0.154843	0.815412	-0.536084
C59	C	-0.093045	0.824496	-0.573893
N60	N	-0.031245	0.833581	-0.536145
N61	N	-0.031245	0.833573	-0.463330
C62	C	-0.093043	0.824479	-0.426078
C63	C	-0.045450	0.872130	-0.695332
C64	C	-0.045446	0.872129	-0.771978
C65	C	-0.140640	0.776882	-0.771947
C66	C	-0.140638	0.776879	-0.695302
C67	C	-0.093044	0.824506	-0.656999
N68	N	-0.093042	0.824512	0.189716
H69	H	-0.090726	0.168525	-0.120404
H70	H	-0.452541	0.706740	0.000070
O71	O	0.000757	0.918328	-0.809330
C72	C	-0.009458	0.908133	-0.885191
H73	H	-0.035685	0.852544	-0.895657
H74	H	0.043437	0.916072	-0.914346
H75	H	-0.044384	0.947539	-0.906915
O76	O	-0.090974	0.174226	0.130883
C77	C	-0.151167	0.148328	0.171284
H78	H	-0.193113	0.122641	0.132457
H79	H	-0.172179	0.193505	0.201390
H80	H	-0.136883	0.107898	0.212672
H81	H	-0.733537	0.942230	-0.000039
H82	H	-0.006687	0.910867	-0.196832
O83	O	-0.869912	0.954323	-0.000050
C84	C	-0.814640	1.009781	-0.000059
H85	H	-0.765243	0.990365	0.023010
H86	H	-0.829748	1.054600	0.035281
H87	H	-0.804234	1.029222	-0.058474
H88	H	-0.088774	0.036409	-0.120414
H89	H	-0.095359	0.480445	0.120446
O90	O	0.000819	0.918423	-0.341793
C91	C	0.042842	0.960441	-0.291551
H92	H	0.014221	0.961140	-0.236900
H93	H	0.053632	1.016230	-0.313692
H94	H	0.094654	0.937931	-0.283434
H95	H	-0.097273	0.612537	-0.120398
O96	O	-0.097259	0.618333	0.130855
C97	C	-0.037434	0.668560	0.134802
H98	H	0.005151	0.652265	0.097124
H99	H	-0.017165	0.672109	0.193501
H100	H	-0.051911	0.721919	0.116973
O101	O	-0.282385	0.945553	0.000010
C102	C	-0.239720	0.948739	-0.063049
H103	H	-0.236193	0.893328	-0.084068
H104	H	-0.184915	0.974914	-0.048853
H105	H	-0.263549	0.980549	-0.107217
H106	H	-0.006694	0.910909	-0.664145
H107	H	-0.095326	0.480423	-0.120402
H108	H	-0.421639	0.937628	0.000073
O109	O	-0.186953	0.730638	-0.190782
C110	C	-0.256042	0.741762	-0.209486
H111	H	-0.256245	0.797659	-0.230544
H112	H	-0.291103	0.733620	-0.159066
H113	H	-0.276644	0.703003	-0.253971
O114	O	-0.186766	0.730559	-0.341923
C115	C	-0.149480	0.687600	-0.386277
H116	H	-0.094777	0.715579	-0.397782
H117	H	-0.178652	0.676471	-0.440160
H118	H	-0.144860	0.636012	-0.356758
O119	O	-0.760170	0.701194	0.000014
C120	C	-0.815442	0.645736	-0.000008
H121	H	-0.864871	0.665161	0.023024
H122	H	-0.800383	0.600932	0.035357
H123	H	-0.825764	0.626271	-0.058423
H124	H	-0.896552	0.713285	-0.000055
H125	H	-0.320432	0.704792	0.000110
H126	H	-0.179391	0.738099	-0.664090
O127	O	-0.088850	0.030664	0.130846
C128	C	-0.148673	-0.019567	0.134837
H129	H	-0.191249	-0.003287	0.097187
H130	H	-0.168958	-0.023100	0.193550
H131	H	-0.134186	-0.072930	0.117003
O132	O	-0.186847	0.730693	-0.809265
C133	C	-0.176632	0.740897	-0.885134
H134	H	-0.150402	0.796486	-0.895604
H135	H	-0.229527	0.732964	-0.914236
H136	H	-0.141708	0.701492	-0.906910
