data_functionalizedCrystal
_audit_creation_method	'MofGen! by Chris Wilmer'
_symmetry_space_group_name_H-M	'P1'
_symmetry_Int_Tables_number	1
_symmetry_cell_setting	triclinic
loop_
_symmetry_equiv_pos_as_xyz
  x,y,z
_cell_length_a	19.288867
_cell_length_b	19.288857
_cell_length_c	17.766277
_cell_angle_alpha	89.991474
_cell_angle_beta	89.992126
_cell_angle_gamma	83.135089
loop_
_atom_site_label
_atom_site_type_symbol
_atom_site_fract_x
_atom_site_fract_y
_atom_site_fract_z
O1	O	0.921350	0.086656	-0.062571
O2	O	0.719089	0.098343	-0.062579
O3	O	0.826066	-0.008631	-0.062566
O4	O	0.814372	0.193630	-0.062585
O5	O	0.826048	-0.008637	0.062623
O6	O	0.719070	0.098338	0.062609
O7	O	0.921331	0.086650	0.062617
Cu8	Cu	0.820199	0.092493	0.074044
Cu9	Cu	0.820221	0.092500	-0.074006
O10	O	0.814353	0.193625	0.062604
C11	C	0.693203	0.097964	0.000014
C12	C	0.616100	0.096834	0.000012
C13	C	0.060545	0.088701	-0.068219
C14	C	0.132992	0.089758	-0.068222
C15	C	0.169211	0.090287	0.000018
C16	C	0.132978	0.089741	0.068266
C17	C	0.060533	0.088677	0.068267
C18	C	0.278529	0.132653	0.052295
C19	C	0.350972	0.133721	0.052291
C20	C	0.392656	0.093566	0.000018
C21	C	0.361887	0.052352	-0.052264
C22	C	0.289442	0.051288	-0.052263
C23	C	0.247765	0.091441	0.000024
C24	C	0.507437	0.095254	-0.068229
C25	C	0.579886	0.096307	-0.068229
C26	C	0.579869	0.096296	0.068261
C27	C	0.507422	0.095237	0.068259
C28	C	0.471210	0.094719	0.000012
C29	C	0.825682	-0.034511	0.000029
C30	C	0.824555	-0.111614	0.000031
C31	C	0.824039	-0.147822	-0.068209
C32	C	0.822970	-0.220268	-0.068215
C33	C	0.822431	-0.256506	0.000024
C34	C	0.822943	-0.220289	0.068273
C35	C	0.824005	-0.147843	0.068277
C36	C	0.861425	-0.376739	0.052300
C37	C	0.860368	-0.449184	0.052294
C38	C	0.819154	-0.479951	0.000015
C39	C	0.779006	-0.438266	-0.052270
C40	C	0.780068	-0.365821	-0.052266
C41	C	0.821280	-0.335061	0.000027
C42	C	0.817478	-0.594713	-0.068236
C43	C	0.816405	-0.667160	-0.068239
C44	C	0.816385	-0.667180	0.068251
C45	C	0.817451	-0.594734	0.068252
C46	C	0.818001	-0.558505	0.000006
C47	C	0.947217	0.087029	0.000022
C48	C	1.024320	0.088159	0.000020
C49	C	0.814738	0.219504	0.000007
C50	C	0.815865	0.296608	0.000000
N51	N	0.820188	0.092489	0.178174
N52	N	0.820237	0.092499	-0.178136
C53	C	0.867573	0.045143	0.217567
C54	C	0.867577	0.045140	0.296369
C55	C	0.820203	0.092494	0.335775
C56	C	0.772809	0.139843	0.296373
C57	C	0.772802	0.139840	0.217572
C58	C	0.810902	0.155782	0.460607
C59	C	0.810915	0.155786	0.539406
C60	C	0.820222	0.092502	0.578821
C61	C	0.829531	0.029213	0.539428
C62	C	0.829524	0.029210	0.460628
C63	C	0.820205	0.092502	0.421221
C64	C	0.867613	0.045150	0.703660
C65	C	0.867613	0.045146	0.782463
C66	C	0.772848	0.139854	0.782465
C67	C	0.772845	0.139852	0.703664
C68	C	0.820232	0.092501	0.664266
H69	H	0.477951	0.094830	-0.123800
H70	H	0.906156	0.006586	0.185491
F71	F	0.171525	0.090301	0.140892
H72	H	0.609358	0.096724	0.123823
F73	F	0.722367	0.190233	0.175646
F74	F	0.918014	-0.005254	0.338300
F75	F	0.818059	-0.556153	-0.140868
F76	F	0.839426	-0.038145	0.418706
F77	F	0.021978	0.088102	0.140899
F78	F	0.256697	0.007424	-0.107902
F79	F	0.801011	0.223143	0.581323
F80	F	0.468867	0.094669	0.140889
F81	F	0.824553	-0.109307	0.140911
H82	H	0.824485	-0.118329	-0.123780
H83	H	0.376017	0.167297	0.094846
F84	F	0.234173	0.175387	0.107941
H85	H	0.609380	0.096743	-0.123800
H86	H	0.395824	0.019656	-0.094832
H87	H	0.837109	-0.022318	0.571519
H88	H	0.906196	0.006591	0.671581
H89	H	0.734235	0.178398	0.328461
H90	H	0.734272	0.178408	0.814549
F91	F	0.822421	-0.258811	-0.140849
F92	F	0.918044	-0.005251	0.824389
H93	H	0.803312	0.207318	0.428521
F94	F	0.722415	0.190247	0.661736
H95	H	0.031065	0.088277	-0.123791
H96	H	0.162492	0.090204	-0.123792
H97	H	0.815982	-0.696639	-0.123811
H98	H	0.747377	-0.331884	-0.094836
F99	F	0.735137	-0.471005	-0.107910
F100	F	0.822365	-0.258855	0.140897
F101	F	0.905308	-0.344003	0.107933
H102	H	0.817877	-0.565254	0.123821
F103	F	0.815808	-0.705741	0.140876
H104	H	0.893061	-0.483119	0.094864
