data_functionalizedCrystal
_audit_creation_method	'MofGen! by Chris Wilmer'
_symmetry_space_group_name_H-M	'P1'
_symmetry_Int_Tables_number	1
_symmetry_cell_setting	triclinic
loop_
_symmetry_equiv_pos_as_xyz
  x,y,z
_cell_length_a	14.044191
_cell_length_b	14.044190
_cell_length_c	8.140239
_cell_angle_alpha	89.991557
_cell_angle_beta	89.999659
_cell_angle_gamma	93.191777
loop_
_atom_site_label
_atom_site_type_symbol
_atom_site_fract_x
_atom_site_fract_y
_atom_site_fract_z
O1	O	1.277176	0.230199	-0.136568
O2	O	1.527176	0.480199	0.113432
O3	O	1.777176	0.730199	0.363432
O4	O	2.027176	0.980199	0.613432
O5	O	1.000503	0.221886	-0.136588
O6	O	1.250503	0.471886	0.113412
O7	O	1.500503	0.721886	0.363412
O8	O	1.750503	0.971886	0.613412
O9	O	1.134683	0.087706	-0.136546
O10	O	1.384683	0.337706	0.113454
O11	O	1.634683	0.587706	0.363454
O12	O	1.884683	0.837706	0.613454
O13	O	1.142996	0.364379	-0.136610
O14	O	1.392996	0.614379	0.113390
O15	O	1.642996	0.864379	0.363390
O16	O	1.892996	1.114379	0.613390
O17	O	1.134675	0.087704	0.136681
O18	O	1.384675	0.337704	0.386681
O19	O	1.634675	0.587704	0.636681
O20	O	1.884675	0.837704	0.886681
O21	O	1.000495	0.221884	0.136639
O22	O	1.250495	0.471884	0.386639
O23	O	1.500495	0.721884	0.636639
O24	O	1.750495	0.971884	0.886639
O25	O	1.277168	0.230197	0.136659
O26	O	1.527168	0.480197	0.386659
O27	O	1.777168	0.730197	0.636659
O28	O	2.027168	0.980197	0.886659
Zn29	Zn	1.138830	0.226040	0.180030
Zn30	Zn	1.388830	0.476040	0.430030
Zn31	Zn	1.638830	0.726040	0.680030
Zn32	Zn	1.888830	0.976040	0.930030
Zn33	Zn	1.138841	0.226043	-0.179959
Zn34	Zn	1.388841	0.476043	0.070041
Zn35	Zn	1.638841	0.726043	0.320041
Zn36	Zn	1.888841	0.976043	0.570041
O37	O	1.142988	0.364377	0.136617
O38	O	1.392988	0.614377	0.386617
O39	O	1.642988	0.864377	0.636617
O40	O	1.892988	1.114377	0.886617
C41	C	0.964877	0.218249	0.000024
C42	C	1.214877	0.468249	0.250024
C43	C	1.464877	0.718249	0.500024
C44	C	1.714877	0.968249	0.750024
C45	C	0.858734	0.207401	0.000018
C46	C	1.108734	0.457401	0.250018
C47	C	1.358734	0.707401	0.500018
C48	C	1.608734	0.957401	0.750018
C49	C	0.613277	0.264502	0.000021
C50	C	0.863277	0.514502	0.250021
C51	C	1.113277	0.764502	0.500021
C52	C	1.363277	1.014502	0.750021
C53	C	0.664400	0.187585	0.000036
C54	C	0.914400	0.437585	0.250036
C55	C	1.164400	0.687585	0.500036
C56	C	1.414400	0.937585	0.750036
C57	C	0.772537	0.198614	0.000026
C58	C	1.022537	0.448614	0.250026
C59	C	1.272537	0.698614	0.500026
C60	C	1.522537	0.948614	0.750026
C61	C	0.505130	0.253475	0.000031
C62	C	0.755130	0.503475	0.250031
C63	C	1.005130	0.753475	0.500031
C64	C	1.255130	1.003475	0.750031
C65	C	1.131043	0.052083	0.000072
C66	C	1.381043	0.302083	0.250072
C67	C	1.631043	0.552083	0.500072
C68	C	1.881043	0.802083	0.750072
C69	C	1.120195	-0.054060	0.000086
C70	C	1.370195	0.195940	0.250086
C71	C	1.620195	0.445940	0.500086
C72	C	1.870195	0.695940	0.750086
C73	C	1.177296	-0.299517	0.000025
C74	C	1.427296	-0.049517	0.250025
C75	C	1.677296	0.200483	0.500025
C76	C	1.927296	0.450483	0.750025
C77	C	1.100379	-0.248394	0.000031
C78	C	1.350379	0.001606	0.250031
C79	C	1.600379	0.251606	0.500031
C80	C	1.850379	0.501606	0.750031
C81	C	1.111408	-0.140257	0.000062
C82	C	1.361408	0.109743	0.250062
C83	C	1.611408	0.359743	0.500062
C84	C	1.861408	0.609743	0.750062
C85	C	1.166269	-0.407664	-0.000005
C86	C	1.416269	-0.157664	0.249995
C87	C	1.666269	0.092336	0.499995
C88	C	1.916269	0.342336	0.749995
C89	C	1.312794	0.233834	0.000044
C90	C	1.562794	0.483834	0.250044
C91	C	1.812794	0.733834	0.500044
C92	C	2.062794	0.983834	0.750044
C93	C	1.418937	0.244682	0.000039
C94	C	1.668937	0.494682	0.250039
C95	C	1.918937	0.744682	0.500039
C96	C	2.168937	0.994682	0.750039
C97	C	1.146628	0.400000	-0.000005
C98	C	1.396628	0.650000	0.249995
C99	C	1.646628	0.900000	0.499995
C100	C	1.896628	1.150000	0.749995
C101	C	1.157476	0.506143	-0.000029
C102	C	1.407476	0.756143	0.249971
C103	C	1.657476	1.006143	0.499971
C104	C	1.907476	1.256143	0.749971
N105	N	1.138830	0.226038	0.425712
N106	N	1.388830	0.476038	0.675712
N107	N	1.638830	0.726038	0.925712
N108	N	1.888830	0.976038	1.175712
N109	N	1.138848	0.226038	-0.425641
N110	N	1.388848	0.476038	-0.175641
N111	N	1.638848	0.726038	0.074359
N112	N	1.888848	0.976038	0.324359
H113	H	0.626955	0.113453	-0.000063
H114	H	0.876955	0.363453	0.249937
H115	H	1.126955	0.613453	0.499937
H116	H	1.376955	0.863453	0.749937
H117	H	0.650720	0.338629	-0.000001
H118	H	0.900720	0.588629	0.249999
H119	H	1.150720	0.838629	0.499999
H120	H	1.400720	1.088629	0.749999
Br121	Br	0.976818	-0.310800	0.000016
Br122	Br	1.226818	-0.060800	0.250016
Br123	Br	1.476818	0.189200	0.500016
Br124	Br	1.726818	0.439200	0.750016
H125	H	1.251423	-0.262074	0.000048
H126	H	1.501423	-0.012074	0.250048
H127	H	1.751423	0.237926	0.500048
H128	H	2.001423	0.487926	0.750048
