data_functionalizedCrystal
_audit_creation_method	'MofGen! by Chris Wilmer'
_symmetry_space_group_name_H-M	'P1'
_symmetry_Int_Tables_number	1
_symmetry_cell_setting	triclinic
loop_
_symmetry_equiv_pos_as_xyz
  x,y,z
_cell_length_a	13.897449
_cell_length_b	16.625546
_cell_length_c	13.897449
_cell_angle_alpha	90.013119
_cell_angle_beta	90.005980
_cell_angle_gamma	90.023748
loop_
_atom_site_label
_atom_site_type_symbol
_atom_site_fract_x
_atom_site_fract_y
_atom_site_fract_z
Zn1	Zn	1.474530	-0.321110	0.545362
Zn2	Zn	1.474452	-0.455913	0.384055
Zn3	Zn	1.313261	-0.321101	0.384080
Zn4	Zn	1.313188	-0.455907	0.545308
O5	O	1.393858	-0.388508	0.464701
O6	O	1.609501	-0.338998	0.523976
O7	O	1.453068	-0.438028	0.249077
O8	O	1.334717	-0.208270	0.405508
O9	O	1.609444	-0.438037	0.405465
O10	O	1.453201	-0.208277	0.524000
O11	O	1.334641	-0.338982	0.249095
O12	O	1.178269	-0.338977	0.405455
O13	O	1.334592	-0.438028	0.680296
O14	O	1.178216	-0.438019	0.523908
O15	O	1.453130	-0.338993	0.680336
O16	O	1.452997	-0.568744	0.405413
O17	O	1.334516	-0.568741	0.523884
C18	C	1.143243	-0.388497	0.464679
C19	C	1.036029	-0.388512	0.464693
C20	C	0.839734	-0.388515	0.464718
C21	C	0.948967	-0.388511	0.464701
C22	C	1.393766	-0.597999	0.464661
C23	C	1.393816	-0.687620	0.464676
C24	C	1.393984	-1.015795	0.464776
C25	C	1.393934	-0.924487	0.464751
C26	C	1.393899	-0.851710	0.464725
C27	C	1.393851	-0.760396	0.464701
C28	C	1.645451	-0.388519	0.464724
C29	C	1.752664	-0.388524	0.464733
C30	C	1.393861	-0.388511	0.716294
C31	C	1.393863	-0.388513	0.823508
C32	C	1.393976	-0.178199	0.464763
C33	C	1.394026	-0.088578	0.464789
C34	C	1.393838	-0.388516	1.019803
C35	C	1.393849	-0.388516	0.910571
C36	C	1.393845	-0.388521	1.214087
C37	C	1.393837	-0.388514	1.106873
