data_functionalizedCrystal
_audit_creation_method	'MofGen! by Chris Wilmer'
_symmetry_space_group_name_H-M	'P1'
_symmetry_Int_Tables_number	1
_symmetry_cell_setting	triclinic
loop_
_symmetry_equiv_pos_as_xyz
  x,y,z
_cell_length_a	13.635800
_cell_length_b	7.076093
_cell_length_c	11.102188
_cell_angle_alpha	105.720607
_cell_angle_beta	71.396125
_cell_angle_gamma	117.701465
loop_
_atom_site_label
_atom_site_type_symbol
_atom_site_fract_x
_atom_site_fract_y
_atom_site_fract_z
V1	V	-1.791875	0.665001	0.173812
O2	O	-1.776419	0.652342	-0.010438
O3	O	-1.782063	0.660453	0.346646
O4	O	-1.665176	0.955031	0.170223
O5	O	-1.894116	0.355725	0.167206
V6	V	-2.045106	0.628009	0.151882
O7	O	-1.897344	0.746146	0.221918
O8	O	-2.164735	0.546864	0.103776
O9	O	-1.943314	0.632557	-0.020952
O10	O	-2.119260	0.640668	0.336132
O11	O	-2.001563	0.937285	0.158488
O12	O	-2.060202	0.337979	0.155470
V13	V	-1.291875	0.665001	0.173812
O14	O	-1.276419	0.652342	-0.010438
O15	O	-1.282063	0.660453	0.346646
O16	O	-1.165176	0.955031	0.170223
O17	O	-1.394116	0.355725	0.167206
V18	V	-1.545106	0.628009	0.151882
O19	O	-1.397344	0.746146	0.221918
O20	O	-1.664735	0.546864	0.103776
O21	O	-1.443314	0.632557	-0.020952
O22	O	-1.619260	0.640668	0.336132
O23	O	-1.501563	0.937285	0.158488
O24	O	-1.560202	0.337979	0.155470
C25	C	-1.711380	0.649962	0.388807
C26	C	-1.743319	0.648177	0.530095
C27	C	-1.562285	1.025723	0.163757
C28	C	-1.498250	1.267279	0.161930
C29	C	-1.994766	0.267276	0.161934
C30	C	-2.048226	0.025718	0.163757
C31	C	-1.845670	0.643042	-0.063107
C32	C	-1.803346	0.644841	-0.204394
C33	C	-1.211380	0.649962	0.388807
C34	C	-1.243319	0.648177	0.530095
C35	C	-1.345670	0.643042	-0.063107
C36	C	-1.303346	0.644841	-0.204394
C37	C	-1.805745	0.452021	0.578919
C38	C	-1.835763	0.450352	0.711676
C39	C	-1.740918	0.841012	0.746775
C40	C	-1.710908	0.842680	0.614021
C41	C	-1.990170	0.220249	0.876154
C42	C	-2.052583	0.024080	0.924980
C43	C	-2.028282	-0.154673	0.862263
C44	C	-1.941547	-0.137268	0.750720
C45	C	-1.879126	0.058903	0.701901
C46	C	-1.903451	0.237650	0.764617
C47	C	-1.556495	1.072769	0.449538
C48	C	-1.494066	1.268941	0.400716
C49	C	-1.518357	1.447711	0.463431
C50	C	-1.605073	1.430326	0.574979
C51	C	-1.667502	1.234154	0.623801
C52	C	-1.643212	1.055383	0.561077
C53	C	-1.305745	0.452021	0.578919
C54	C	-1.335763	0.450352	0.711676
C55	C	-1.240918	0.841012	0.746775
C56	C	-1.210908	0.842680	0.614021
C57	C	-1.490170	0.220249	0.876154
C58	C	-1.552583	0.024080	0.924980
C59	C	-1.528282	-0.154673	0.862263
C60	C	-1.441547	-0.137268	0.750720
C61	C	-1.379126	0.058903	0.701901
C62	C	-1.403451	0.237650	0.764617
C63	C	-1.056495	1.072769	0.449538
C64	C	-0.994066	1.268941	0.400716
C65	C	-1.018357	1.447711	0.463431
C66	C	-1.105073	1.430326	0.574979
C67	C	-1.167502	1.234154	0.623801
C68	C	-1.143212	1.055383	0.561077
H69	H	-1.832137	0.293644	0.510590
C70	C	-0.898674	1.288080	0.278019
H71	H	-0.864966	1.430521	0.257934
H72	H	-0.929611	1.188357	0.208820
H73	H	-0.842580	1.257207	0.291619
H74	H	-1.808504	0.073076	0.611089
H75	H	-2.009978	0.365783	0.927220
H76	H	-1.921756	-0.282826	0.699671
H77	H	-1.738111	1.220010	0.714633
C78	C	-1.631800	1.626964	0.643969
H79	H	-1.582209	1.746279	0.598910
H80	H	-1.621323	1.662405	0.729167
H81	H	-1.708357	1.593531	0.646368
H82	H	-1.124848	1.575898	0.626049
H83	H	-2.079102	-0.314397	0.902027
C84	C	-1.449693	1.663491	0.409718
H85	H	-1.394571	1.648250	0.334298
H86	H	-1.412560	1.772117	0.472244
H87	H	-1.499602	1.703200	0.389449
H88	H	-1.714532	0.999369	0.815122
H89	H	-1.308504	0.073076	0.611089
H90	H	-1.238111	1.220010	0.714633
C91	C	-1.414818	-0.333903	0.681736
H92	H	-1.464423	-0.453233	0.726779
H93	H	-1.338266	-0.300481	0.679330
H94	H	-1.425301	-0.369336	0.596535
C95	C	-0.949682	1.663507	0.409736
H96	H	-0.976570	1.767483	0.463072
H97	H	-0.958564	1.643669	0.325113
H98	H	-0.871543	1.712518	0.407925
H99	H	-1.623205	0.009924	1.015801
C100	C	-1.029761	0.876127	0.380568
H101	H	-1.079363	0.756804	0.425616
H102	H	-0.953209	0.909581	0.378181
H103	H	-1.040231	0.840666	0.295359
H104	H	-1.579102	-0.314397	0.902027
C105	C	-1.205257	1.054951	0.839088
H106	H	-1.163788	1.172015	0.790994
H107	H	-1.158834	1.055615	0.887488
H108	H	-1.271157	1.069228	0.895722
H109	H	-1.509978	0.365783	0.927220
C110	C	-1.529761	0.876127	0.380568
H111	H	-1.579363	0.756804	0.425616
H112	H	-1.453209	0.909581	0.378181
H113	H	-1.540231	0.840666	0.295359
H114	H	-2.123205	0.009924	1.015801
H115	H	-1.423446	1.283093	0.309894
C116	C	-1.341418	0.238082	0.486608
H117	H	-1.382909	0.121023	0.534705
H118	H	-1.275534	0.223779	0.429965
H119	H	-1.387848	0.237442	0.438219
