data_functionalizedCrystal
_audit_creation_method	'MofGen! by Chris Wilmer'
_symmetry_space_group_name_H-M	'P1'
_symmetry_Int_Tables_number	1
_symmetry_cell_setting	triclinic
loop_
_symmetry_equiv_pos_as_xyz
  x,y,z
_cell_length_a	19.851628
_cell_length_b	19.379189
_cell_length_c	19.377372
_cell_angle_alpha	62.450289
_cell_angle_beta	89.997829
_cell_angle_gamma	52.466456
loop_
_atom_site_label
_atom_site_type_symbol
_atom_site_fract_x
_atom_site_fract_y
_atom_site_fract_z
Zr1	Zr	0.473751	0.914409	-0.278643
O2	O	0.354291	1.052562	-0.405010
O3	O	0.536285	0.746564	-0.212522
O4	O	0.532182	0.871609	-0.365533
O5	O	0.332153	0.971633	-0.162449
O6	O	0.643029	0.871623	-0.365542
O7	O	0.358394	0.927517	-0.251999
O8	O	0.650368	0.647941	-0.091832
O9	O	0.324813	1.195315	-0.436159
O10	O	0.614371	0.826609	-0.217411
O11	O	0.512065	0.859522	-0.150575
O12	O	0.507234	1.006746	-0.330727
O13	O	0.404927	1.039658	-0.263890
Zr14	Zr	0.608688	0.984792	-0.135836
Zr15	Zr	0.650539	0.914432	-0.278657
Zr16	Zr	0.431900	0.984769	-0.135822
Zr17	Zr	0.426738	1.142084	-0.328322
Zr18	Zr	0.655701	0.757117	-0.086157
O19	O	0.546154	1.152637	-0.201957
O20	O	0.605660	1.052594	-0.405030
O21	O	0.294784	1.152605	-0.201937
O22	O	0.728148	0.846639	-0.009468
O23	O	0.787655	0.746597	-0.212541
O24	O	0.476779	0.846607	-0.009449
O25	O	0.750286	0.927568	-0.252029
O26	O	0.550257	1.027593	-0.048945
O27	O	0.439410	1.027578	-0.048936
O28	O	0.724045	0.971684	-0.162480
O29	O	0.465336	1.195333	-0.436170
O30	O	0.617103	0.703868	0.021692
O31	O	0.757625	0.703886	0.021681
O32	O	0.790891	0.647959	-0.091843
O33	O	0.291548	1.251242	-0.322635
O34	O	0.432070	1.251260	-0.322646
O35	O	0.575205	0.892456	-0.083752
O36	O	0.677512	0.859543	-0.150588
O37	O	0.570374	1.039680	-0.263903
O38	O	0.468068	1.072592	-0.197067
C39	C	0.600025	0.664814	-0.145099
C40	C	0.619983	0.568160	-0.124009
C41	C	0.371465	0.521595	-0.386788
C42	C	0.390243	0.430733	-0.366882
C43	C	0.515916	0.322180	-0.233931
C44	C	0.497146	0.413035	-0.253824
C45	C	0.424920	0.512738	-0.330255
C46	C	0.550601	0.404178	-0.197291
C47	C	0.531834	0.495025	-0.217185
C48	C	0.459614	0.594730	-0.293612
C49	C	0.406153	0.603585	-0.350149
C50	C	0.622831	0.304473	-0.120864
C51	C	0.676285	0.295616	-0.064330
C52	C	0.657515	0.386466	-0.084221
C53	C	0.585295	0.486170	-0.160649
C54	C	0.710976	0.377610	-0.027685
C55	C	0.692209	0.468457	-0.047579
C56	C	0.566528	0.577017	-0.180543
C57	C	0.320085	0.949572	-0.207222
C58	C	0.245034	0.949562	-0.207216
C59	C	0.122080	0.851368	-0.145446
C60	C	0.034902	0.922449	-0.131704
C61	C	0.107598	0.949590	-0.207232
C62	C	0.061037	0.878513	-0.220949
C63	C	-0.025153	0.949608	-0.207244
C64	C	0.021397	1.020690	-0.193453
C65	C	0.047557	0.976720	-0.282729
C66	C	-0.039648	1.047878	-0.269022
C67	C	0.184075	0.949577	-0.207222
C68	C	-0.101634	0.949631	-0.207255
C69	C	0.762354	0.949629	-0.207256
C70	C	0.837405	0.949639	-0.207262
C71	C	0.593568	0.861591	-0.385887
C72	C	0.611335	0.831722	-0.446518
C73	C	0.482414	1.234387	-0.269380
C74	C	0.462456	1.331042	-0.290470
C75	C	0.390138	1.203620	-0.941667
C76	C	0.406842	1.175528	-0.998624
C77	C	0.518685	0.987480	-0.880322
C78	C	0.501988	1.015556	-0.823354
C79	C	0.437714	1.123628	-0.854033
C80	C	0.549564	0.935563	-0.735720
C81	C	0.532871	0.963638	-0.678757
C82	C	0.468602	1.071704	-0.709428
C83	C	0.421021	1.151702	-0.797070
C84	C	0.613842	0.827492	-0.705042
C85	C	0.661418	0.747499	-0.617408
C86	C	0.644720	0.775573	-0.560444
C87	C	0.580452	0.883640	-0.591115
C88	C	0.692301	0.695575	-0.472801
C89	C	0.675609	0.723650	-0.415839
C90	C	0.563759	0.911714	-0.534152
C91	C	0.488871	1.037610	-0.028592
C92	C	0.471104	1.067480	0.032040
C93	C	0.821160	0.664842	-0.145116
C94	C	0.916169	0.568198	-0.124032
C95	C	0.547676	0.752823	0.033549
C96	C	0.549868	0.686039	0.115270
C97	C	0.768811	0.752852	0.033531
C98	C	0.846053	0.686077	0.115247
C99	C	0.313628	1.146349	-0.448010
C100	C	0.236386	1.213124	-0.529725
C101	C	0.261279	1.234359	-0.269362
C102	C	0.166270	1.331003	-0.290446
C103	C	0.534763	1.146378	-0.448027
C104	C	0.532571	1.213162	-0.529748
C105	C	0.927829	0.505619	-0.149018
C106	C	1.017095	0.414817	-0.129223
C107	C	1.094699	0.386592	-0.084438
C108	C	1.083035	0.449181	-0.059453
C109	C	0.993771	0.539985	-0.079253
C110	C	0.583854	0.671870	0.188534
C111	C	0.585905	0.609135	0.265323
C112	C	0.553977	0.560562	0.268846
C113	C	0.519985	0.574736	0.195573
C114	C	0.517928	0.637477	0.118785
C115	C	0.935738	0.637539	0.118733
C116	C	1.008321	0.574807	0.195505
C117	C	0.991219	0.560608	0.268791
C118	C	0.901525	0.609155	0.265301
C119	C	0.828942	0.671892	0.188529
C120	C	0.146699	1.261673	-0.533214
C121	C	0.074110	1.324434	-0.609992
C122	C	0.091211	1.338637	-0.683279
C123	C	0.180906	1.290085	-0.679788
C124	C	0.253492	1.227332	-0.603012
C125	C	0.154609	1.393589	-0.265469
C126	C	0.065343	1.484408	-0.285284
C127	C	-0.012261	1.512635	-0.330073
C128	C	-0.000597	1.450043	-0.355054
C129	C	0.088668	1.359230	-0.335244
C130	C	0.564508	1.261717	-0.533244
C131	C	0.562466	1.324458	-0.610022
C132	C	0.528481	1.338651	-0.683304
C133	C	0.496544	1.290088	-0.679805
C134	C	0.498593	1.227342	-0.603027
H135	H	0.507694	0.658210	-0.242766
C136	C	0.643480	0.204539	-0.098977
H137	H	0.694159	0.143889	-0.045369
H138	H	0.590350	0.215047	-0.096713
H139	H	0.658690	0.193016	-0.141347
C140	C	0.292011	0.631274	-0.470856
H141	H	0.262859	0.623542	-0.501680
H142	H	0.247913	0.679987	-0.459062
H143	H	0.316251	0.657947	-0.503697
H144	H	0.053695	0.999610	-0.346550
C145	C	0.026651	0.891479	-0.045466
H146	H	0.083525	0.821666	-0.001620
H147	H	0.013059	0.941301	-0.035298
H148	H	-0.021712	0.892340	-0.046271
H149	H	0.055864	1.535358	-0.264935
H150	H	0.592182	1.250174	-0.473583
C151	C	0.597584	1.377880	-0.613859
H152	H	0.618100	1.360454	-0.559220
H153	H	0.647616	1.352769	-0.631377
H154	H	0.548688	1.453386	-0.653340
H155	H	0.005308	1.080777	-0.181782
H156	H	1.167379	0.312650	-0.068320
C157	C	0.352154	1.173888	-0.599171
H158	H	0.392943	1.134471	-0.542952
H159	H	0.372551	1.126815	-0.615120
H160	H	0.351837	1.227407	-0.637066
H161	H	-0.084941	1.586583	-0.346198
H162	H	-0.063795	1.473040	-0.391523
C163	C	1.106976	0.521405	0.199331
H164	H	1.106762	0.538834	0.144691
H165	H	1.127129	0.546527	0.216843
H166	H	1.147898	0.445897	0.238813
C167	C	0.011364	1.407649	-0.767723
H168	H	-0.044495	1.434514	-0.759294
H169	H	0.004265	1.465817	-0.808967
H170	H	0.025056	1.365175	-0.786992
H171	H	0.864650	0.528592	-0.185495
H172	H	0.755920	0.711404	0.185702
H173	H	0.735094	0.214427	-0.002102
C174	C	0.589377	0.868609	-0.846583
H175	H	0.592501	0.863344	-0.893059
H176	H	0.648689	0.834570	-0.812942
H177	H	0.570538	0.834581	-0.812942
H178	H	0.347318	0.684778	-0.412372
H179	H	0.132759	1.250113	-0.473547
H180	H	0.001083	1.363956	-0.612818
H181	H	0.949680	0.649087	0.059069
C182	C	0.101483	1.290384	-0.362711
H183	H	0.042477	1.320202	-0.392213
H184	H	0.133797	1.288993	-0.398973
H185	H	0.136067	1.219483	-0.313885
C186	C	0.732110	0.628629	-0.583670
H187	H	0.735234	0.623364	-0.630145
H188	H	0.791422	0.594589	-0.550029
H189	H	0.713270	0.594600	-0.550029
C190	C	0.790421	0.267936	0.056380
H191	H	0.793939	0.215101	0.060132
H192	H	0.847335	0.249503	0.058126
H193	H	0.778988	0.271542	0.102751
H194	H	0.472582	1.187814	-0.600192
C195	C	0.526223	1.407682	-0.767755
H196	H	0.550104	1.434572	-0.759337
H197	H	0.563039	1.365233	-0.787043
H198	H	0.464123	1.465848	-0.808985
H199	H	-0.108660	1.131010	-0.321282
H200	H	0.468874	1.301654	-0.739482
H201	H	0.555657	0.509477	0.331377
C202	C	0.350315	1.270578	-0.830808
H203	H	0.347186	1.275836	-0.784329
H204	H	0.369131	1.304627	-0.864459
H205	H	0.291000	1.304603	-0.864438
C206	C	0.763000	0.576706	-0.439065
H207	H	0.766125	0.571443	-0.485542
H208	H	0.822310	0.542672	-0.405426
H209	H	0.744167	0.542669	-0.405423
H210	H	0.077060	0.818397	-0.232547
C211	C	0.239961	1.362556	-0.216201
H212	H	0.220218	1.412852	-0.204175
H213	H	0.277294	1.293087	-0.164481
H214	H	0.275016	1.362612	-0.249566
C215	C	0.623307	0.593544	0.345913
H216	H	0.642042	0.631444	0.332813
H217	H	0.576031	0.620096	0.366346
H218	H	0.674942	0.519467	0.388293
C219	C	0.319441	1.322498	-0.975409
H220	H	0.293498	1.366123	-1.035760
H221	H	0.271538	1.337358	-0.955638
H222	H	0.349687	1.337351	-0.955650
C223	C	0.331431	0.440484	-0.429070
H224	H	0.285725	0.512877	-0.477433
H225	H	0.370306	0.396280	-0.446386
H226	H	0.301964	0.418327	-0.401756
H227	H	1.050329	0.509521	0.331299
H228	H	0.887613	0.597584	0.324981
H229	H	0.574725	0.240991	-0.171703
C230	C	0.438965	0.694665	-0.315502
H231	H	0.388299	0.755309	-0.369120
H232	H	0.423757	0.706195	-0.273140
H233	H	0.492102	0.684149	-0.317768
C234	C	0.199707	1.305706	-0.760405
H235	H	0.143630	1.350023	-0.806622
H236	H	0.223159	1.338674	-0.773149
H237	H	0.243924	1.238048	-0.751182
H238	H	0.984288	0.590930	-0.058899
H239	H	0.511411	0.999717	-0.559136
C240	C	0.480549	0.653047	0.038202
H241	H	0.461839	0.615122	0.051308
H242	H	0.428919	0.727114	-0.004187
H243	H	0.527841	0.626486	0.017781
H244	H	0.735736	0.461242	-0.001543
H245	H	1.026574	0.363866	-0.149572
C246	C	0.215405	0.739217	-0.074816
H247	H	0.211379	0.720121	-0.021216
H248	H	0.229528	0.688513	-0.084020
H249	H	0.262885	0.739842	-0.075629
C250	C	0.618963	0.725306	0.184671
H251	H	0.639482	0.707887	0.239306
H252	H	0.668989	0.700200	0.167147
H253	H	0.570059	0.800810	0.145189
H254	H	0.368094	1.240676	-1.069983
C255	C	0.727936	0.635662	-0.319441
H256	H	0.768598	0.567278	-0.309328
H257	H	0.762817	0.642706	-0.294764
H258	H	0.684671	0.642708	-0.294761
C259	C	1.168405	0.418117	-0.010181
H260	H	1.223232	0.355066	-0.001963
H261	H	1.166195	0.474814	-0.041621
H262	H	1.168464	0.405280	0.043453
H263	H	0.627436	0.804638	-0.751428
H264	H	0.493990	0.535180	0.198455
H265	H	0.455014	1.094560	-0.663043
