data_functionalizedCrystal
_audit_creation_method	'MofGen! by Chris Wilmer'
_symmetry_space_group_name_H-M	'P1'
_symmetry_Int_Tables_number	1
_symmetry_cell_setting	triclinic
loop_
_symmetry_equiv_pos_as_xyz
  x,y,z
_cell_length_a	12.759399
_cell_length_b	12.759401
_cell_length_c	12.759393
_cell_angle_alpha	89.980911
_cell_angle_beta	89.970311
_cell_angle_gamma	90.015597
loop_
_atom_site_label
_atom_site_type_symbol
_atom_site_fract_x
_atom_site_fract_y
_atom_site_fract_z
Zn1	Zn	-0.418205	1.606256	-0.593991
Zn2	Zn	0.081795	2.106256	-0.093991
Zn3	Zn	-0.593922	1.606146	-0.418316
Zn4	Zn	-0.093922	2.106146	0.081684
Zn5	Zn	-0.418259	1.430556	-0.418331
Zn6	Zn	0.081741	1.930556	0.081669
Zn7	Zn	-0.593843	1.430545	-0.593957
Zn8	Zn	-0.093843	1.930545	-0.093957
O9	O	-0.506057	1.518376	-0.506149
O10	O	-0.006057	2.018376	-0.006149
O11	O	-0.441525	1.753263	-0.570695
O12	O	0.058475	2.253263	-0.070695
O13	O	-0.570676	1.582813	-0.271296
O14	O	-0.070676	2.082813	0.228704
O15	O	-0.271230	1.453914	-0.441653
O16	O	0.228770	1.953914	0.058347
O17	O	-0.570624	1.753182	-0.441627
O18	O	-0.070624	2.253182	0.058373
O19	O	-0.271191	1.583000	-0.570710
O20	O	0.228809	2.083000	-0.070710
O21	O	-0.441616	1.453808	-0.271308
O22	O	0.058384	1.953808	0.228692
O23	O	-0.441539	1.283534	-0.441620
O24	O	0.058461	1.783534	0.058380
O25	O	-0.570489	1.453894	-0.740983
O26	O	-0.070489	1.953894	-0.240983
O27	O	-0.570541	1.283525	-0.570652
O28	O	-0.070541	1.783525	-0.070652
O29	O	-0.441448	1.582989	-0.741008
O30	O	0.058552	2.082989	-0.241008
O31	O	-0.740933	1.582802	-0.441594
O32	O	-0.240933	2.082802	0.058406
O33	O	-0.740875	1.453788	-0.570637
O34	O	-0.240875	1.953788	-0.070637
C35	C	-0.506038	1.245408	-0.506134
C36	C	-0.006038	1.745408	-0.006134
C37	C	-0.506055	1.128632	-0.506153
C38	C	-0.006055	1.628632	-0.006153
C39	C	-0.779025	1.518310	-0.506133
C40	C	-0.279025	2.018310	-0.006133
C41	C	-0.895801	1.518378	-0.506162
C42	C	-0.395801	2.018378	-0.006162
C43	C	-0.573334	1.073793	-0.573229
C44	C	-0.073334	1.573793	-0.073229
C45	C	-0.573347	0.964069	-0.573240
C46	C	-0.073347	1.464069	-0.073240
C47	C	-0.438800	0.964032	-0.439091
C48	C	0.061200	1.464032	0.060909
C49	C	-0.438782	1.073755	-0.439086
C50	C	0.061218	1.573755	0.060914
C51	C	-0.640606	1.128670	-0.640296
C52	C	-0.140606	1.628670	-0.140296
C53	C	-0.707891	1.073831	-0.707377
C54	C	-0.207891	1.573831	-0.207377
C55	C	-0.707904	0.964107	-0.707388
C56	C	-0.207904	1.464107	-0.207388
C57	C	-0.640633	0.909222	-0.640319
C58	C	-0.140633	1.409222	-0.140319
C59	C	-1.060496	1.451327	-0.438944
C60	C	-0.560496	1.951327	0.061056
C61	C	-0.950772	1.451258	-0.438925
C62	C	-0.450772	1.951258	0.061075
C63	C	-0.950560	1.585564	-0.573429
C64	C	-0.450560	2.085564	-0.073429
C65	C	-1.060282	1.585628	-0.573452
C66	C	-0.560282	2.085628	-0.073452
C67	C	-1.115462	1.384211	-0.371695
C68	C	-0.615462	1.884211	0.128305
C69	C	-1.060711	1.317022	-0.304429
C70	C	-0.560711	1.817022	0.195571
C71	C	-0.950987	1.316953	-0.304410
C72	C	-0.450987	1.816953	0.195590
C73	C	-0.896014	1.384071	-0.371658
C74	C	-0.396014	1.884071	0.128342
C75	C	-0.232024	1.518471	-0.506187
C76	C	0.267976	2.018471	-0.006187
C77	C	-0.115247	1.518511	-0.506204
C78	C	0.384753	2.018511	-0.006204
C79	C	-0.505954	1.518452	-0.780182
C80	C	-0.005954	2.018452	-0.280182
C81	C	-0.505910	1.518485	-0.896959
C82	C	-0.005910	2.018485	-0.396959
C83	C	-0.506078	1.792409	-0.506164
C84	C	-0.006078	2.292409	-0.006164
C85	C	-0.506086	1.909186	-0.506170
C86	C	-0.006086	2.409186	-0.006170
C87	C	-0.438668	1.585731	-1.061567
C88	C	0.061332	2.085731	-0.561567
C89	C	-0.438709	1.585711	-0.951843
C90	C	0.061291	2.085711	-0.451843
C91	C	-0.573082	1.451282	-0.951805
C92	C	-0.073082	1.951282	-0.451805
C93	C	-0.573046	1.451308	-1.061527
C94	C	-0.073046	1.951308	-0.561527
C95	C	-0.506085	1.518360	-0.233181
C96	C	-0.006085	2.018360	0.266819
C97	C	-0.505833	1.518531	-0.116405
C98	C	-0.005833	2.018531	0.383595
H99	H	-0.640605	1.218013	-0.640293
H100	H	-0.140605	1.718013	-0.140293
Br101	Br	-0.640641	0.760309	-0.640348
Br102	Br	-0.140641	1.260309	-0.140348
H103	H	-1.204804	1.384262	-0.371701
H104	H	-0.704804	1.884262	0.128299
Br105	Br	-0.347510	0.889546	-0.348074
Br106	Br	0.152490	1.389546	0.151926
Br107	Br	-0.347472	1.148186	-0.348056
Br108	Br	0.152528	1.648186	0.151944
Br109	Br	-0.347557	1.676920	-0.877423
Br110	Br	0.152443	2.176920	-0.377423
Br111	Br	-0.347447	1.676957	-1.136041
Br112	Br	0.152553	2.176957	-0.636041
H113	H	-0.905794	1.640211	-0.628178
H114	H	-0.405794	2.140211	-0.128178
H115	H	-0.627803	1.396550	-0.907110
H116	H	-0.127803	1.896550	-0.407110
H117	H	-0.762654	1.118525	-0.761988
H118	H	-0.262654	1.618525	-0.261988
Br119	Br	-0.799205	0.889684	-0.798435
Br120	Br	-0.299205	1.389684	-0.298435
Br121	Br	-0.876683	1.225756	-0.213138
Br122	Br	-0.376683	1.725756	0.286862
Br123	Br	-0.664216	1.360112	-1.135958
Br124	Br	-0.164216	1.860112	-0.635958
Br125	Br	-1.134594	1.676808	-0.664733
Br126	Br	-0.634594	2.176808	-0.164733
H127	H	-1.105477	1.262370	-0.249685
H128	H	-0.605477	1.762370	0.250315
H129	H	-0.806669	1.384007	-0.371640
H130	H	-0.306669	1.884007	0.128360
