data_functionalizedCrystal
_audit_creation_method	'MofGen! by Chris Wilmer'
_symmetry_space_group_name_H-M	'P1'
_symmetry_Int_Tables_number	1
_symmetry_cell_setting	triclinic
loop_
_symmetry_equiv_pos_as_xyz
  x,y,z
_cell_length_a	17.038272
_cell_length_b	11.792241
_cell_length_c	10.868271
_cell_angle_alpha	89.994719
_cell_angle_beta	89.998595
_cell_angle_gamma	92.347514
loop_
_atom_site_label
_atom_site_type_symbol
_atom_site_fract_x
_atom_site_fract_y
_atom_site_fract_z
O1	O	1.038456	-0.246565	0.102169
O2	O	1.538456	0.253435	0.602169
O3	O	0.810808	-0.242650	0.102206
O4	O	1.310808	0.257350	0.602206
O5	O	0.930157	-0.079921	0.102178
O6	O	1.430157	0.420079	0.602178
O7	O	0.919108	-0.409294	0.102197
O8	O	1.419108	0.090706	0.602197
O9	O	0.930147	-0.079913	-0.102467
O10	O	1.430147	0.420087	0.397533
O11	O	0.810798	-0.242642	-0.102439
O12	O	1.310798	0.257358	0.397561
O13	O	1.038446	-0.246557	-0.102475
O14	O	1.538446	0.253443	0.397525
Zn15	Zn	0.924621	-0.244598	-0.134949
Zn16	Zn	1.424621	0.255402	0.365051
Zn17	Zn	0.924634	-0.244609	0.134679
Zn18	Zn	1.424634	0.255391	0.634679
O19	O	0.919098	-0.409286	-0.102448
O20	O	1.419098	0.090714	0.397552
C21	C	0.781659	-0.239085	-0.000112
C22	C	1.281659	0.260915	0.499888
C23	C	0.694819	-0.228461	-0.000099
C24	C	1.194819	0.271539	0.499901
C25	C	0.645136	-0.326001	-0.000094
C26	C	1.145136	0.173999	0.499906
C27	C	0.563542	-0.316012	-0.000112
C28	C	1.063542	0.183988	0.499888
C29	C	0.531632	-0.208482	-0.000125
C30	C	1.031632	0.291518	0.499875
C31	C	0.581321	-0.110935	-0.000133
C32	C	1.081321	0.389065	0.499867
C33	C	0.662914	-0.120925	-0.000125
C34	C	1.162914	0.379075	0.499875
C35	C	0.285718	-0.173189	-0.000160
C36	C	0.785718	0.326811	0.499840
C37	C	0.204118	-0.163206	-0.000165
C38	C	0.704118	0.336794	0.499835
C39	C	0.186344	-0.368284	-0.000145
C40	C	0.686344	0.131716	0.499855
C41	C	0.267940	-0.378265	-0.000129
C42	C	0.767940	0.121735	0.499871
C43	C	0.317622	-0.280718	-0.000144
C44	C	0.817622	0.219282	0.499856
C45	C	0.448229	-0.198269	-0.000139
C46	C	0.948229	0.301731	0.499861
C47	C	0.401023	-0.290932	-0.000139
C48	C	0.901023	0.209068	0.499861
C49	C	0.929458	-0.037565	-0.000144
C50	C	1.429458	0.462435	0.499856
C51	C	0.927380	0.088630	-0.000142
C52	C	1.427380	0.588630	0.499858
C53	C	1.067595	-0.250122	-0.000155
C54	C	1.567595	0.249878	0.499845
C55	C	1.154435	-0.260746	-0.000160
C56	C	1.654435	0.239254	0.499840
C57	C	0.919797	-0.451642	-0.000123
C58	C	1.419797	0.048358	0.499877
C59	C	0.921874	-0.577837	-0.000117
C60	C	1.421874	-0.077837	0.499883
N61	N	0.924618	-0.244591	-0.318963
N62	N	1.424618	0.255409	0.181037
C63	C	0.923561	0.319677	-0.000121
C64	C	1.423561	0.819677	0.499879
C65	C	0.925683	0.191106	-0.000133
C66	C	1.425683	0.691106	0.499867
C67	C	0.924630	-0.244606	-0.569969
C68	C	1.424630	0.255394	-0.069969
C69	C	0.924620	-0.244601	-0.430292
C70	C	1.424620	0.255399	0.069708
N71	N	0.924643	-0.244607	0.318693
N72	N	1.424643	0.255393	0.818693
H73	H	0.703366	-0.041497	-0.000128
H74	H	1.203366	0.458503	0.499872
H75	H	0.523092	-0.395440	-0.000106
H76	H	1.023092	0.104560	0.499894
N77	N	0.546909	0.005046	-0.000168
N78	N	1.046909	0.505046	0.499832
H79	H	0.487681	-0.003424	-0.000172
H80	H	0.987681	0.496576	0.499828
H81	H	0.565048	0.048082	0.075690
H82	H	1.065048	0.548082	0.575690
H83	H	0.427008	-0.378482	-0.000135
H84	H	0.927008	0.121518	0.499865
H85	H	0.422239	-0.110718	-0.000185
H86	H	0.922239	0.389282	0.499815
H87	H	0.145885	-0.447701	-0.000136
H88	H	0.645885	0.052299	0.499864
N89	N	0.302342	-0.494253	-0.000123
N90	N	0.802342	0.005747	0.499877
H91	H	0.335803	-0.502972	-0.075980
H92	H	0.835803	-0.002972	0.424020
H93	H	0.335753	-0.502904	0.075794
H94	H	0.835753	-0.002904	0.575794
N95	N	0.339297	-0.067982	-0.000184
N96	N	0.839297	0.432018	0.499816
H97	H	0.306699	0.001650	-0.000192
H98	H	0.806699	0.501650	0.499808
H99	H	0.373539	-0.067652	0.075678
H100	H	0.873539	0.432348	0.575678
H101	H	0.671111	-0.413563	-0.000082
H102	H	1.171111	0.086437	0.499918
H103	H	0.178141	-0.075638	-0.000175
H104	H	0.678141	0.424362	0.499825
