data_functionalizedCrystal
_audit_creation_method	'MofGen! by Chris Wilmer'
_symmetry_space_group_name_H-M	'P1'
_symmetry_Int_Tables_number	1
_symmetry_cell_setting	triclinic
loop_
_symmetry_equiv_pos_as_xyz
  x,y,z
_cell_length_a	14.519709
_cell_length_b	9.730223
_cell_length_c	10.654551
_cell_angle_alpha	90.002636
_cell_angle_beta	84.082753
_cell_angle_gamma	89.997550
loop_
_atom_site_label
_atom_site_type_symbol
_atom_site_fract_x
_atom_site_fract_y
_atom_site_fract_z
O1	O	1.224720	0.114102	0.164624
O2	O	0.956343	0.114143	0.184011
O3	O	1.096701	0.114122	-0.008481
O4	O	1.084361	0.114123	0.357116
O5	O	1.096693	-0.114458	-0.008490
O6	O	0.956335	-0.114437	0.184002
O7	O	1.224711	-0.114478	0.164615
Zn8	Zn	1.090522	-0.150749	0.174307
Zn9	Zn	1.090533	0.150414	0.174319
O10	O	1.084353	-0.114457	0.357107
C11	C	0.921975	-0.000142	0.183103
C12	C	0.819579	-0.000126	0.180396
N13	N	1.090521	-0.356286	0.174298
C14	C	1.034119	-0.572130	0.097978
C15	C	1.034111	-0.428247	0.097964
C16	C	1.146949	-0.428215	0.250642
C17	C	1.146961	-0.572095	0.250648
C18	C	0.977698	-0.644084	0.021648
C19	C	0.921271	-0.572165	-0.054698
C20	C	0.921263	-0.428282	-0.054712
C21	C	0.977682	-0.356318	0.021620
C22	C	0.444632	-0.000188	0.170428
C23	C	0.548954	-0.000170	0.173196
C24	C	0.632102	-0.000156	0.175412
C25	C	0.736431	-0.000140	0.178180
C26	C	1.259080	-0.000190	0.165523
C27	C	1.361475	-0.000197	0.168231
C28	C	1.095791	-0.000164	-0.055275
C29	C	1.093079	-0.000155	-0.194692
N30	N	1.090541	0.355951	0.174318
C31	C	1.091812	0.124442	-0.260186
C32	C	1.089257	0.124436	-0.391182
C33	C	1.089240	-0.124774	-0.391178
C34	C	1.091789	-0.124767	-0.260183
C35	C	1.093103	0.249054	-0.194695
C36	C	1.091837	0.373661	-0.260190
C37	C	1.089281	0.373655	-0.391186
C38	C	1.087992	0.249042	-0.456687
C39	C	1.085264	-0.000167	0.403901
C40	C	1.087975	-0.000168	0.543318
H41	H	0.875341	-0.630768	-0.116851
N42	N	1.093171	0.500942	-0.193291
N43	N	1.157787	0.584353	-0.219359
H44	H	1.158731	0.674248	-0.172113
H45	H	1.085897	0.249048	-0.563350
N46	N	1.087920	-0.252042	-0.458100
N47	N	1.085644	-0.252030	-0.575058
H48	H	1.084714	-0.341914	-0.622323
H49	H	1.092801	-0.226225	-0.206852
H50	H	0.977676	-0.239159	0.021596
N51	N	1.087995	0.500946	-0.458065
N52	N	1.153183	0.584354	-0.454858
H53	H	1.152281	0.674260	-0.502088
H54	H	0.977697	-0.761241	0.021653
N55	N	1.204585	-0.354702	0.328590
N56	N	1.265234	-0.274415	0.279719
H57	H	1.305941	-0.222494	0.334770
N58	N	0.863633	-0.354838	-0.132714
N59	N	0.813269	-0.419105	-0.200861
H60	H	0.772564	-0.367239	-0.255952
N61	N	1.204604	-0.645547	0.328628
N62	N	1.254970	-0.581290	0.396779
H63	H	1.295685	-0.633164	0.451851
N64	N	1.095712	0.249029	-0.060888
N65	N	1.161734	0.193371	-0.013851
H66	H	1.163576	0.193346	0.080651
