data_functionalizedCrystal
_audit_creation_method	'MofGen! by Chris Wilmer'
_symmetry_space_group_name_H-M	'P1'
_symmetry_Int_Tables_number	1
_symmetry_cell_setting	triclinic
loop_
_symmetry_equiv_pos_as_xyz
  x,y,z
_cell_length_a	19.805407
_cell_length_b	19.805405
_cell_length_c	19.805407
_cell_angle_alpha	90.013352
_cell_angle_beta	90.005535
_cell_angle_gamma	90.026410
loop_
_atom_site_label
_atom_site_type_symbol
_atom_site_fract_x
_atom_site_fract_y
_atom_site_fract_z
Zn1	Zn	1.034642	-0.269585	0.382711
Zn2	Zn	1.534642	0.230415	0.882711
Zn3	Zn	1.034584	-0.382742	0.269520
Zn4	Zn	1.534584	0.117258	0.769520
Zn5	Zn	0.921484	-0.269573	0.269536
Zn6	Zn	1.421484	0.230427	0.769536
Zn7	Zn	0.921420	-0.382738	0.382666
Zn8	Zn	1.421420	0.117262	0.882666
O9	O	0.978033	-0.326160	0.326108
O10	O	1.478033	0.173840	0.826108
O11	O	1.129351	-0.284603	0.367708
O12	O	1.629351	0.215397	0.867708
O13	O	1.019584	-0.367727	0.174805
O14	O	1.519584	0.132273	0.674805
O15	O	0.936546	-0.174858	0.284575
O16	O	1.436546	0.325142	0.784575
O17	O	1.129309	-0.367739	0.284547
O18	O	1.629309	0.132261	0.784547
O19	O	1.019682	-0.174867	0.367724
O20	O	1.519682	0.325133	0.867724
O21	O	0.936490	-0.284581	0.174817
O22	O	1.436490	0.215419	0.674817
O23	O	0.826759	-0.284577	0.284531
O24	O	1.326759	0.215423	0.784531
O25	O	0.936436	-0.367731	0.477389
O26	O	1.436436	0.132269	0.977389
O27	O	0.826712	-0.367719	0.367647
O28	O	1.326712	0.132281	0.867647
O29	O	1.019620	-0.284599	0.477422
O30	O	1.519620	0.215401	0.977422
O31	O	1.019522	-0.477458	0.284503
O32	O	1.519522	0.022542	0.784503
O33	O	0.936381	-0.477455	0.367632
O34	O	1.436381	0.022545	0.867632
C35	C	0.802177	-0.326147	0.326086
C36	C	1.302177	0.173853	0.826086
C37	C	0.726945	-0.326157	0.326093
C38	C	1.226945	0.173843	0.826093
C39	C	0.691594	-0.369515	0.369302
C40	C	1.191594	0.130485	0.869302
C41	C	0.620905	-0.369516	0.369311
C42	C	1.120905	0.130484	0.869311
C43	C	0.585569	-0.326163	0.326108
C44	C	1.085569	0.173837	0.826108
C45	C	0.620925	-0.282801	0.282898
C46	C	1.120925	0.217199	0.782898
C47	C	0.691612	-0.282797	0.282892
C48	C	1.191612	0.217203	0.782892
C49	C	0.335852	-0.282816	0.282920
C50	C	0.835852	0.217184	0.782920
C51	C	0.265160	-0.282825	0.282928
C52	C	0.765160	0.217175	0.782928
C53	C	0.265145	-0.369535	0.369339
C54	C	0.765145	0.130465	0.869339
C55	C	0.335832	-0.369531	0.369334
C56	C	0.835832	0.130469	0.869334
C57	C	0.371182	-0.326167	0.326126
C58	C	0.871182	0.173833	0.826126
C59	C	0.447830	-0.326165	0.326117
C60	C	0.947830	0.173835	0.826117
C61	C	0.508922	-0.326167	0.326113
C62	C	1.008922	0.173833	0.826113
C63	C	0.977956	-0.502016	0.326076
C64	C	1.477956	-0.002016	0.826076
C65	C	0.977986	-0.577248	0.326084
C66	C	1.477986	-0.077248	0.826084
C67	C	1.021320	-0.612571	0.282845
C68	C	1.521320	-0.112571	0.782845
C69	C	1.021348	-0.683259	0.282860
C70	C	1.521348	-0.183259	0.782860
C71	C	0.978039	-0.718623	0.326111
C72	C	1.478039	-0.218623	0.826111
C73	C	0.934704	-0.683295	0.369356
C74	C	1.434704	-0.183295	0.869356
C75	C	0.934679	-0.612608	0.369344
C76	C	1.434679	-0.112608	0.869344
C77	C	0.934804	-0.968368	0.369406
C78	C	1.434804	-0.468368	0.869406
C79	C	0.934830	-1.039060	0.369413
C80	C	1.434830	-0.539060	0.869413
C81	C	1.021473	-1.039020	0.282922
C82	C	1.521473	-0.539020	0.782922
C83	C	1.021448	-0.968333	0.282910
C84	C	1.521448	-0.468333	0.782910
C85	C	0.978115	-0.933010	0.326156
C86	C	1.478115	-0.433010	0.826156
C87	C	0.978086	-0.856362	0.326141
C88	C	1.478086	-0.356362	0.826141
C89	C	0.978065	-0.795270	0.326124
C90	C	1.478065	-0.295270	0.826124
C91	C	1.154575	-0.326173	0.326131
C92	C	1.654575	0.173827	0.826131
C93	C	1.229807	-0.326179	0.326140
C94	C	1.729807	0.173821	0.826140
C95	C	0.978027	-0.326166	0.502651
C96	C	1.478027	0.173834	1.002651
C97	C	0.978025	-0.326169	0.577883
C98	C	1.478025	0.173831	1.077883
C99	C	0.978128	-0.149617	0.326156
C100	C	1.478128	0.350383	0.826156
C101	C	0.978168	-0.074385	0.326176
C102	C	1.478168	0.425615	0.826176
C103	C	1.021337	-0.282877	1.039692
C104	C	1.521337	0.217123	1.539692
C105	C	1.021339	-0.282880	0.969004
C106	C	1.521339	0.217120	1.469004
C107	C	0.978030	-0.326163	0.933645
C108	C	1.478030	0.173837	1.433645
C109	C	0.934721	-0.369451	0.968978
C110	C	1.434721	0.130549	1.468978
C111	C	0.934723	-0.369451	1.039665
C112	C	1.434723	0.130549	1.539665
C113	C	0.934714	-0.369454	0.683904
C114	C	1.434714	0.130546	1.183904
C115	C	0.934714	-0.369449	0.613212
C116	C	1.434714	0.130551	1.113212
C117	C	1.021330	-0.282883	0.613243
C118	C	1.521330	0.217117	1.113243
C119	C	1.021332	-0.282882	0.683931
C120	C	1.521332	0.217118	1.183931
C121	C	0.978026	-0.326173	0.719257
C122	C	1.478026	0.173827	1.219257
C123	C	0.978025	-0.326170	0.795906
C124	C	1.478025	0.173830	1.295906
C125	C	0.978027	-0.326163	0.856998
C126	C	1.478027	0.173837	1.356998
C127	C	0.978032	-0.326167	1.150252
C128	C	1.478032	0.173833	1.650252
C129	C	0.978030	-0.326160	1.075020
C130	C	1.478030	0.173840	1.575020
H131	H	0.364599	-0.404836	0.404512
H132	H	0.864599	0.095164	0.904512
H133	H	0.236354	-0.404841	0.404524
H134	H	0.736354	0.095159	0.904524
H135	H	1.056759	-1.067788	0.247711
H136	H	1.556759	-0.567788	0.747711
H137	H	0.364625	-0.247511	0.247733
H138	H	0.864625	0.252489	0.747733
H139	H	0.899519	-0.939614	0.404617
H140	H	1.399519	-0.439614	0.904617
H141	H	0.899564	-1.067851	0.404639
H142	H	1.399564	-0.567851	0.904639
H143	H	1.056596	-0.247634	0.712716
H144	H	1.556596	0.252366	1.212716
H145	H	1.056600	-0.247626	1.068477
H146	H	1.556600	0.252374	1.568477
H147	H	0.592149	-0.247499	0.247724
H148	H	1.092149	0.252501	0.747724
H149	H	0.899450	-0.404702	0.712659
H150	H	1.399450	0.095298	1.212659
H151	H	1.056606	-0.247637	0.940243
H152	H	1.556606	0.252363	1.440243
H153	H	1.056712	-0.939542	0.247688
H154	H	1.556712	-0.439542	0.747688
H155	H	0.899393	-0.583848	0.404555
H156	H	1.399393	-0.083848	0.904555
H157	H	1.056594	-0.247636	0.584472
H158	H	1.556594	0.252364	1.084472
H159	H	0.899442	-0.404695	0.584425
H160	H	1.399442	0.095305	1.084425
H161	H	1.056584	-0.583782	0.247621
H162	H	1.556584	-0.083782	0.747621
H163	H	0.720394	-0.247487	0.247711
H164	H	1.220394	0.252513	0.747711
H165	H	0.899461	-0.404696	0.940183
H166	H	1.399461	0.095304	1.440183
H167	H	0.899459	-0.404697	1.068428
H168	H	1.399459	0.095303	1.568428
H169	H	1.056634	-0.712017	0.247649
H170	H	1.556634	-0.212017	0.747649
H171	H	0.720359	-0.404820	0.404481
H172	H	1.220359	0.095180	0.904481
H173	H	0.592126	-0.404822	0.404496
H174	H	1.092126	0.095178	0.904496
H175	H	0.236391	-0.247517	0.247746
H176	H	0.736391	0.252483	0.747746
H177	H	0.899444	-0.712094	0.404575
H178	H	1.399444	-0.212094	0.904575
