data_functionalizedCrystal
_audit_creation_method	'MofGen! by Chris Wilmer'
_symmetry_space_group_name_H-M	'P1'
_symmetry_Int_Tables_number	1
_symmetry_cell_setting	triclinic
loop_
_symmetry_equiv_pos_as_xyz
  x,y,z
_cell_length_a	8.597340
_cell_length_b	11.792254
_cell_length_c	7.088929
_cell_angle_alpha	83.733108
_cell_angle_beta	103.954719
_cell_angle_gamma	84.768620
loop_
_atom_site_label
_atom_site_type_symbol
_atom_site_fract_x
_atom_site_fract_y
_atom_site_fract_z
O1	O	2.102726	0.155871	0.187394
O2	O	2.602726	0.655871	0.687394
O3	O	1.638204	0.174399	0.110869
O4	O	2.138204	0.674399	0.610869
O5	O	1.881728	-0.000096	0.151001
O6	O	2.381728	0.499904	0.651001
O7	O	1.859201	0.330366	0.147262
O8	O	2.359201	0.830366	0.647262
O9	O	1.914273	-0.023468	0.474339
O10	O	2.414273	0.476532	0.974339
O11	O	1.670748	0.151027	0.434207
O12	O	2.170748	0.651027	0.934207
O13	O	2.135270	0.132499	0.510732
O14	O	2.635270	0.632499	1.010732
Cu15	Cu	1.905981	0.139629	0.501993
Cu16	Cu	2.405981	0.639629	1.001993
Cu17	Cu	1.867493	0.167269	0.119608
Cu18	Cu	2.367493	0.667269	0.619608
O19	O	1.891746	0.306994	0.470601
O20	O	2.391746	0.806994	0.970601
C21	C	1.595007	0.162025	0.262741
C22	C	2.095007	0.662025	0.762741
C23	C	1.417808	0.159962	0.233550
C24	C	1.917808	0.659962	0.733550
C25	C	1.896582	-0.054065	0.312435
C26	C	2.396582	0.445935	0.812435
C27	C	1.892334	-0.180055	0.311734
C28	C	2.392334	0.319945	0.811734
C29	C	1.888883	-0.282373	0.311159
C30	C	2.388883	0.217627	0.811159
C31	C	1.884567	-0.410735	0.310430
C32	C	2.384567	0.089265	0.810430
C33	C	2.178466	0.144873	0.358856
C34	C	2.678466	0.644873	0.858856
C35	C	2.355664	0.146937	0.388034
C36	C	2.855664	0.646937	0.888034
C37	C	1.876892	0.360963	0.309162
C38	C	2.376892	0.860963	0.809162
C39	C	1.881138	0.486954	0.309850
C40	C	2.381138	0.986954	0.809850
N41	N	1.933062	0.120187	0.770944
N42	N	2.433062	0.620187	1.270944
N43	N	1.840425	0.186701	-0.149341
N44	N	2.340425	0.686701	0.350659
H45	H	1.335439	0.169537	0.078940
H46	H	1.835439	0.669537	0.578940
C47	C	2.144019	-0.031270	0.785987
C48	C	2.644019	0.468730	1.285987
C49	C	2.062686	0.027132	0.902520
C50	C	2.562686	0.527132	1.402520
H51	H	2.224046	-0.088713	0.867220
H52	H	2.724046	0.411287	1.367220
H53	H	2.069200	-0.066287	0.695610
H54	H	2.569200	0.433713	1.195610
H55	H	2.193993	0.021583	0.716123
H56	H	2.693993	0.521583	1.216123
H57	H	2.012702	-0.025720	0.972373
H58	H	2.512702	0.474280	1.472373
H59	H	2.137517	0.062148	0.992932
H60	H	2.637517	0.562148	1.492932
H61	H	1.438026	0.137355	0.542635
H62	H	1.938026	0.637355	1.042635
H63	H	1.744417	0.255629	0.753192
H64	H	2.244417	0.755629	1.253192
