data_functionalizedCrystal
_audit_creation_method	'MofGen! by Chris Wilmer'
_symmetry_space_group_name_H-M	'P1'
_symmetry_Int_Tables_number	1
_symmetry_cell_setting	triclinic
loop_
_symmetry_equiv_pos_as_xyz
  x,y,z
_cell_length_a	15.944557
_cell_length_b	14.472310
_cell_length_c	15.995350
_cell_angle_alpha	89.998838
_cell_angle_beta	96.503128
_cell_angle_gamma	89.988822
loop_
_atom_site_label
_atom_site_type_symbol
_atom_site_fract_x
_atom_site_fract_y
_atom_site_fract_z
O1	O	-1.114526	0.076797	0.108009
O2	O	-0.614526	0.576797	0.608009
O3	O	-0.869976	0.076807	0.121317
O4	O	-0.369976	0.576807	0.621317
O5	O	-0.998936	0.076800	-0.007224
O6	O	-0.498936	0.576800	0.492776
O7	O	-0.985566	0.076803	0.236550
O8	O	-0.485566	0.576803	0.736550
O9	O	-0.998903	-0.076882	-0.007217
O10	O	-0.498903	0.423118	0.492783
O11	O	-0.869943	-0.076875	0.121324
O12	O	-0.369943	0.423125	0.621324
O13	O	-1.114493	-0.076885	0.108016
O14	O	-0.614493	0.423115	0.608016
Cu15	Cu	-0.992215	-0.090913	0.114671
Cu16	Cu	-0.492215	0.409087	0.614671
Cu17	Cu	-0.992254	0.090834	0.114662
Cu18	Cu	-0.492254	0.590834	0.614662
O19	O	-0.985533	-0.076879	0.236557
O20	O	-0.485533	0.423121	0.736557
C21	C	-0.838666	-0.000033	0.120767
C22	C	-0.338666	0.499967	0.620767
C23	C	-0.745420	-0.000029	0.119108
C24	C	-0.245420	0.499971	0.619108
N25	N	-0.992193	-0.218744	0.114677
N26	N	-0.492193	0.281256	0.614677
C27	C	-0.998367	-0.000039	-0.038415
C28	C	-0.498367	0.499961	0.461585
C29	C	-0.996709	-0.000034	-0.131366
C30	C	-0.496709	0.499966	0.368634
C31	C	-0.474794	-0.000045	0.034471
C32	C	0.025206	0.499955	0.534471
C33	C	-0.525356	-0.075819	0.075276
C34	C	-0.025356	0.424181	0.575276
C35	C	-0.409779	-0.000051	0.113191
C36	C	0.090221	0.499949	0.613191
C37	C	-0.525370	0.075700	0.075290
C38	C	-0.025370	0.575700	0.575290
C39	C	-0.574691	-0.000039	0.116094
C40	C	-0.074691	0.499961	0.616094
C41	C	-0.459113	-0.075888	0.153975
C42	C	0.040887	0.424112	0.653975
C43	C	-0.459123	0.075699	0.153977
C44	C	0.040877	0.575699	0.653977
C45	C	-0.509653	-0.000094	0.194840
C46	C	-0.009653	0.499906	0.694840
C47	C	-0.314777	-0.000059	0.111516
C48	C	0.185223	0.499941	0.611516
C49	C	-0.669690	-0.000037	0.117775
C50	C	-0.169690	0.499963	0.617775
C51	C	-0.145804	-0.000048	0.108554
C52	C	0.354196	0.499952	0.608554
C53	C	-0.239055	-0.000060	0.110179
C54	C	0.260945	0.499940	0.610179
C55	C	-0.992253	-0.592835	0.114659
C56	C	-0.492253	-0.092835	0.614659
C57	C	-0.923018	-0.553666	0.183208
C58	C	-0.423018	-0.053666	0.683208
C59	C	-0.923177	-0.446578	0.183458
C60	C	-0.423177	0.053422	0.683458
C61	C	-0.992223	-0.407244	0.114668
C62	C	-0.492223	0.092756	0.614668
C63	C	-1.079865	-0.446084	0.133756
C64	C	-0.579865	0.053916	0.633756
C65	C	-1.079476	-0.553206	0.134244
C66	C	-0.579476	-0.053206	0.634244
C67	C	-0.974628	-0.553364	0.026818
C68	C	-0.474628	-0.053364	0.526818
C69	C	-0.972618	-0.446237	0.027403
C70	C	-0.472618	0.053763	0.527403
C71	C	-0.992211	-0.302356	0.114671
C72	C	-0.492211	0.197644	0.614671
C73	C	-0.992270	-0.697723	0.114657
C74	C	-0.492270	-0.197723	0.614657
N75	N	-0.992282	0.218665	0.114650
N76	N	-0.492282	0.718665	0.614650
C77	C	-0.990758	-0.000036	-0.469114
C78	C	-0.490758	0.499964	0.030886
C79	C	-0.898916	0.000312	-0.421687
C80	C	-0.398916	0.500312	0.078313
C81	C	-0.900573	-0.000034	-0.324997
C82	C	-0.400573	0.499966	0.175003
C83	C	-0.993710	-0.000034	-0.301553
C84	C	-0.493710	0.499966	0.198447
C85	C	-1.038991	-0.087795	-0.342623
C86	C	-0.538991	0.412205	0.157377
C87	C	-1.036684	-0.087868	-0.439259
C88	C	-0.536684	0.412132	0.060741
C89	C	-1.038619	0.086897	-0.439625
C90	C	-0.538619	0.586897	0.060375
C91	C	-1.038598	0.088057	-0.342680
C92	C	-0.538598	0.588057	0.157320
C93	C	-0.995383	-0.000036	-0.206856
C94	C	-0.495383	0.499964	0.293144
C95	C	-0.989088	-0.000041	-0.563812
C96	C	-0.489088	0.499959	-0.063812
C97	C	-0.986102	-0.000038	0.267748
C98	C	-0.486102	0.499962	0.767748
C99	C	-0.987759	-0.000037	0.360699
C100	C	-0.487759	0.499963	0.860699
H101	H	-0.459144	-0.000119	-0.033326
H102	H	0.040856	0.499881	0.466674
H103	H	-0.934117	-0.580575	0.248026
H104	H	-0.434117	-0.080575	0.748026
H105	H	-1.107416	-0.091058	-0.328492
H106	H	-0.607416	0.408942	0.171508
H107	H	-1.095007	-0.578182	0.198306
H108	H	-0.595007	-0.078182	0.698306
H109	H	-0.857661	-0.579451	0.172021
H110	H	-0.357661	-0.079451	0.672021
H111	H	-1.008606	0.153414	-0.460170
H112	H	-0.508606	0.653414	0.039830
F113	F	-0.563188	0.159428	0.031816
F114	F	-0.063188	0.659428	0.531816
F115	F	-0.851007	-0.081261	-0.447579
F116	F	-0.351007	0.418739	0.052421
H117	H	-0.934432	-0.420944	0.248643
H118	H	-0.434432	0.079056	0.748643
H119	H	-0.864711	-0.063049	-0.297132
H120	H	-0.364711	0.436951	0.202868
F121	F	-0.421301	0.159435	0.197390
F122	F	0.078699	0.659435	0.697390
F123	F	-0.995659	0.172928	-0.306683
F124	F	-0.495659	0.672928	0.193317
H125	H	-0.862221	0.063247	-0.440225
H126	H	-0.362221	0.563247	0.059775
H127	H	-1.104113	-0.091850	-0.471501
H128	H	-0.604113	0.408150	0.028499
F129	F	-1.100653	-0.411008	0.216535
F130	F	-0.600653	0.088992	0.716535
F131	F	-1.127374	0.094989	-0.322590
F132	F	-0.627374	0.594989	0.177410
F133	F	-0.838015	-0.412253	0.168634
F134	F	-0.338015	0.087747	0.668634
F135	F	-1.148778	-0.587074	0.071402
F136	F	-0.648778	-0.087074	0.571402
H137	H	-0.525141	-0.000137	0.262690
H138	H	-0.025141	0.499863	0.762690
F139	F	-1.034255	-0.411254	-0.042398
F140	F	-0.534255	0.088746	0.457602
F141	F	-0.421440	-0.159713	0.197401
F142	F	0.078560	0.340287	0.697401
F143	F	-0.563154	-0.159554	0.031829
F144	F	-0.063154	0.340446	0.531829
H145	H	-1.007514	-0.153103	-0.314241
H146	H	-0.507514	0.346897	0.185759
F147	F	-1.148816	-0.412784	0.070233
F148	F	-0.648816	0.087216	0.570233
F149	F	-0.892894	-0.588714	0.002841
F150	F	-0.392894	-0.088714	0.502841
F151	F	-0.888350	-0.413059	0.008467
F152	F	-0.388350	0.086941	0.508467
H153	H	-1.025118	-0.578693	-0.024194
H154	H	-0.525118	-0.078693	0.475806
F155	F	-0.854047	0.082193	-0.287852
F156	F	-0.354047	0.582193	0.212148
H157	H	-1.106335	0.087487	-0.471381
H158	H	-0.606335	0.587487	0.028619
H159	H	-1.003637	-0.153470	-0.457560
H160	H	-0.503637	0.346530	0.042440
