data_functionalizedCrystal
_audit_creation_method	'MofGen! by Chris Wilmer'
_symmetry_space_group_name_H-M	'P1'
_symmetry_Int_Tables_number	1
_symmetry_cell_setting	triclinic
loop_
_symmetry_equiv_pos_as_xyz
  x,y,z
_cell_length_a	29.839134
_cell_length_b	16.994726
_cell_length_c	29.839131
_cell_angle_alpha	89.906150
_cell_angle_beta	89.963719
_cell_angle_gamma	90.059403
loop_
_atom_site_label
_atom_site_type_symbol
_atom_site_fract_x
_atom_site_fract_y
_atom_site_fract_z
Zn1	Zn	0.686886	0.446190	0.178640
Zn2	Zn	0.686769	0.314278	0.253852
Zn3	Zn	0.611719	0.314277	0.178730
Zn4	Zn	0.611716	0.446117	0.253737
O5	O	0.649273	0.380216	0.216240
O6	O	0.749737	0.428723	0.188628
O7	O	0.676766	0.203896	0.243973
O8	O	0.621741	0.331806	0.115851
O9	O	0.749651	0.331807	0.243885
O10	O	0.676965	0.428722	0.115785
O11	O	0.621627	0.203896	0.188781
O12	O	0.548852	0.331735	0.188669
O13	O	0.621735	0.556508	0.243690
O14	O	0.548850	0.428597	0.243777
O15	O	0.676962	0.556562	0.188516
O16	O	0.676763	0.331736	0.316704
O17	O	0.621622	0.428598	0.316619
C18	C	0.532550	0.380159	0.216221
C19	C	0.482616	0.380153	0.216223
C20	C	0.649209	0.175275	0.216363
C21	C	0.649259	0.085953	0.216303
Zn22	Zn	0.611669	-0.185244	0.253509
Zn23	Zn	0.687081	-0.184600	0.178655
Zn24	Zn	0.686720	-0.053132	0.253873
Zn25	Zn	0.611914	-0.052960	0.178508
O26	O	0.649346	-0.118984	0.216136
O27	O	0.621720	-0.295539	0.243488
O28	O	0.749900	-0.166962	0.188847
O29	O	0.676510	-0.070998	0.316692
O30	O	0.677125	-0.295066	0.188494
O31	O	0.621370	-0.168060	0.316424
O32	O	0.749634	-0.070373	0.244109
O33	O	0.676749	0.057272	0.243967
O34	O	0.549015	-0.070706	0.188243
O35	O	0.621789	0.057398	0.188597
O36	O	0.548835	-0.167894	0.243345
O37	O	0.677364	-0.166796	0.115769
O38	O	0.622139	-0.070081	0.115661
C39	C	0.172980	0.430590	0.244977
C40	C	-0.014693	0.430625	0.244989
O41	O	-0.038950	0.473475	0.269415
N42	N	-0.038169	0.380275	0.216256
C43	C	-0.014725	0.329916	0.187516
O44	O	-0.039000	0.287097	0.163074
C45	C	0.172947	0.329886	0.187501
C46	C	0.196421	0.380233	0.216239
C47	C	0.196455	0.480934	0.273712
C48	C	0.243370	0.480922	0.273711
C49	C	0.266811	0.430565	0.244973
C50	C	0.243337	0.380221	0.216238
C51	C	0.196390	0.279531	0.158759
C52	C	0.243311	0.279530	0.158757
C53	C	0.266786	0.329877	0.187495
C54	C	0.313693	0.329852	0.187499
N55	N	0.337170	0.380202	0.216232
C56	C	0.313729	0.430559	0.244969
C57	C	-0.113256	0.329935	0.187526
C58	C	-0.160174	0.329941	0.187530
C59	C	-0.160138	0.430651	0.245003
C60	C	-0.113219	0.430640	0.245001
C61	C	-0.089779	0.380285	0.216259
C62	C	0.412255	0.430529	0.244964
C63	C	0.459175	0.430510	0.244961
C64	C	0.459135	0.329803	0.187486
C65	C	0.412219	0.329818	0.187491
C66	C	0.388781	0.380188	0.216231
O67	O	0.337980	0.287031	0.163082
O68	O	0.338012	0.473384	0.269401
C69	C	0.126065	0.430602	0.244978
C70	C	0.102591	0.380258	0.216243
C71	C	0.126031	0.329901	0.187506
C72	C	0.055673	0.380264	0.216247
C73	C	0.032232	0.430621	0.244984
C74	C	0.055709	0.480971	0.273717
C75	C	0.102624	0.480959	0.273716
C76	C	0.102555	0.279551	0.158773
C77	C	0.055639	0.279567	0.158777
C78	C	0.032198	0.329924	0.187514
C79	C	0.766451	0.380273	0.216259
C80	C	0.816385	0.380298	0.216268
C81	C	0.649191	0.380176	0.332962
C82	C	0.649198	0.380186	0.382897
C83	C	0.649364	0.585956	0.216078
C84	C	0.649406	0.675279	0.216012
C85	C	0.649366	0.380272	0.099061
C86	C	0.649406	0.380296	0.049127
C87	C	0.678037	0.329853	0.692571
C88	C	0.678092	0.329884	0.880244
O89	O	0.702548	0.287059	0.904536
N90	N	0.649366	0.380275	0.903682
C91	C	0.620626	0.430666	0.880198
O92	O	0.596197	0.473533	0.904439
C93	C	0.620573	0.430639	0.692526
C94	C	0.649298	0.380238	0.669091
C95	C	0.706760	0.279458	0.669136
C96	C	0.706744	0.279448	0.622221
C97	C	0.678005	0.329833	0.598741
C98	C	0.649282	0.380228	0.622176
C99	C	0.591835	0.481033	0.669043
C100	C	0.591825	0.481023	0.622122
C101	C	0.620550	0.430623	0.598687
C102	C	0.620527	0.430603	0.551780
N103	N	0.649253	0.380212	0.528342
C104	C	0.677992	0.329827	0.551823
C105	C	0.620655	0.430675	0.978729
C106	C	0.620667	0.430681	1.025646
C107	C	0.678135	0.329900	1.025690
C108	C	0.678119	0.329891	0.978771
C109	C	0.649381	0.380284	0.955291
C110	C	0.677957	0.329809	0.453297
C111	C	0.677937	0.329801	0.406377
C112	C	0.620471	0.430584	0.406338
C113	C	0.620489	0.430590	0.453254
C114	C	0.649235	0.380199	0.476732
O115	O	0.596088	0.473412	0.527459
O116	O	0.702425	0.286978	0.527573
C117	C	0.678053	0.329863	0.739487
C118	C	0.649330	0.380259	0.762922
C119	C	0.620591	0.430644	0.739441
C120	C	0.649342	0.380265	0.809840
C121	C	0.678081	0.329880	0.833320
C122	C	0.706807	0.279488	0.809883
C123	C	0.706791	0.279478	0.762967
C124	C	0.591864	0.481035	0.762879
C125	C	0.591882	0.481041	0.809794
C126	C	0.620621	0.430655	0.833275
C127	C	0.649839	-0.118317	0.099414
C128	C	0.650115	-0.117963	0.049481
C129	C	0.532169	-0.119353	0.215737
C130	C	0.482234	-0.119510	0.215567
C131	C	0.648897	-0.119663	0.333314
C132	C	0.648769	-0.120063	0.383248
C133	C	0.766067	-0.118661	0.216566
C134	C	0.816001	-0.118656	0.216861
C135	C	0.678973	-0.168199	0.026101
C136	C	0.679232	-0.167883	-0.020818
C137	C	0.650634	-0.117327	-0.044355
C138	C	0.621773	-0.067089	-0.020971
C139	C	0.621512	-0.067409	0.025946
C140	C	0.458688	-0.170184	0.244180
C141	C	0.411770	-0.170332	0.244029
C142	C	0.388399	-0.119808	0.215263
C143	C	0.411948	-0.069128	0.186649
C144	C	0.458865	-0.068977	0.186803
C145	C	0.677417	-0.069709	0.406840
C146	C	0.677296	-0.070068	0.453758
C147	C	0.648529	-0.120785	0.477084
C148	C	0.619877	-0.171141	0.453490
C149	C	0.619997	-0.170778	0.406572
C150	C	0.839293	-0.067998	0.245566
C151	C	0.886211	-0.067992	0.245853
C152	C	0.909835	-0.118641	0.217431
C153	C	0.886540	-0.169304	0.188725
C154	C	0.839623	-0.169313	0.188441
H155	H	0.478285	0.471509	0.268364
C156	C	0.588822	-0.225415	0.381019
C157	C	0.544336	-0.208488	0.392384
C158	C	0.515604	-0.258813	0.368860
H159	H	0.592948	-0.217994	0.349728
H160	H	0.595378	-0.278461	0.388651
H161	H	0.537782	-0.155454	0.384749
H162	H	0.540195	-0.215914	0.423671
H163	H	0.522160	-0.311860	0.376493
H164	H	0.519735	-0.251388	0.337571
H165	H	0.485418	-0.247340	0.376571
C166	C	0.814318	-0.224423	0.157349
C167	C	0.787198	-0.274821	0.182790
C168	C	0.763891	-0.325616	0.154165
H169	H	0.796124	-0.194503	0.137551
H170	H	0.835100	-0.254627	0.140477
H171	H	0.766418	-0.244621	0.199654
H172	H	0.805381	-0.304759	0.202587
H173	H	0.784673	-0.355819	0.137292
H174	H	0.745700	-0.295689	0.134367
H175	H	0.745491	-0.359822	0.171422
C176	C	0.337459	-0.119984	0.215001
C177	C	0.322112	-0.139910	0.172161
C178	C	0.275190	-0.140075	0.171902
H179	H	0.326728	-0.157400	0.236128
H180	H	0.326772	-0.069152	0.222753
H181	H	0.332795	-0.190734	0.164415
H182	H	0.332831	-0.102501	0.151027
H183	H	0.264502	-0.089243	0.179654
H184	H	0.264463	-0.177491	0.193031
H185	H	0.264771	-0.153587	0.142835
C186	C	0.030093	0.225017	0.127557
C187	C	0.003192	0.269767	0.098774
C188	C	-0.020353	0.219545	0.070015
H189	H	0.050721	0.195001	0.110400
H190	H	0.011733	0.190615	0.144733
H191	H	0.021550	0.304156	0.081600
H192	H	-0.017445	0.299781	0.115920
H193	H	-0.038712	0.185143	0.087191
H194	H	0.000278	0.189532	0.052861
H195	H	-0.038611	0.249901	0.050486
H196	H	0.477711	-0.211329	0.267605
H197	H	0.262394	0.238528	0.135349
C198	C	0.960774	-0.118766	0.217690
C199	C	0.976483	-0.173975	0.186664
C200	C	1.023405	-0.174114	0.186896
H201	H	0.971519	-0.067962	0.209803
H202	H	0.971204	-0.132229	0.246783
H203	H	0.966059	-0.160508	0.157578
H204	H	0.965751	-0.224786	0.194545
H205	H	1.033834	-0.187576	0.215988
H206	H	1.034146	-0.123308	0.179009
H207	H	1.034070	-0.211577	0.165848
C208	C	0.710621	-0.222455	-0.046117
C209	C	0.735620	-0.266772	-0.015459
C210	C	0.764544	-0.317043	-0.038747
H211	H	0.693591	-0.256805	-0.064549
H212	H	0.730321	-0.192138	-0.064275
H213	H	0.715923	-0.297086	0.002691
H214	H	0.752659	-0.232442	0.002974
H215	H	0.784244	-0.286726	-0.056905
H216	H	0.747511	-0.351388	-0.057178
H217	H	0.781513	-0.347112	-0.017949
C218	C	0.648408	-0.121347	0.528024
C219	C	0.659854	-0.196531	0.543451
C220	C	0.659745	-0.197079	0.590373
H221	H	0.669590	-0.084154	0.538788
H222	H	0.619380	-0.107923	0.538625
H223	H	0.688877	-0.209945	0.532854
H224	H	0.638676	-0.233737	0.532699
H225	H	0.630718	-0.183655	0.600974
H226	H	0.680927	-0.159883	0.601133
H227	H	0.667507	-0.248092	0.600846
C228	C	0.813625	-0.012910	0.276352
C229	C	0.786896	0.037478	0.250591
C230	C	0.763252	0.088242	0.278937
H231	H	0.795140	-0.042853	0.295923
H232	H	0.834207	0.017303	0.293480
H233	H	0.766317	0.007269	0.233470
H234	H	0.805370	0.067439	0.231020
H235	H	0.783833	0.118454	0.296066
H236	H	0.744769	0.058292	0.298507
H237	H	0.745116	0.122440	0.261462
C238	C	0.651005	-0.117067	-0.095294
C239	C	0.682411	-0.171870	-0.110727
C240	C	0.682773	-0.171647	-0.157648
H241	H	0.622102	-0.130712	-0.106129
H242	H	0.658859	-0.066093	-0.105819
H243	H	0.674555	-0.222833	-0.100205
H244	H	0.711319	-0.158238	-0.099904
H245	H	0.690626	-0.120673	-0.168174
H246	H	0.653868	-0.185290	-0.168479
H247	H	0.704084	-0.208825	-0.168125
H248	H	0.392912	-0.027993	0.163229
C249	C	0.030172	0.535617	0.304869
C250	C	-0.015940	0.524857	0.298707
C251	C	-0.039481	0.575190	0.327387
H252	H	0.037778	0.524030	0.335072
H253	H	0.037872	0.588652	0.298293
H254	H	-0.023637	0.471833	0.305285
H255	H	-0.023559	0.536450	0.268509
H256	H	-0.031780	0.628226	0.320812
H257	H	-0.031871	0.563599	0.357589
H258	H	-0.070770	0.567902	0.323207
H259	H	0.393105	0.288820	0.164091
C260	C	0.386290	-0.225451	0.275111
C261	C	0.416803	-0.269683	0.300320
C262	C	0.393349	-0.320474	0.328953
H263	H	0.367896	-0.195538	0.294695
H264	H	0.368080	-0.259825	0.257846
H265	H	0.435006	-0.235313	0.317584
H266	H	0.435198	-0.299612	0.280749
H267	H	0.375139	-0.354849	0.311688
H268	H	0.374956	-0.290555	0.348533
H269	H	0.414048	-0.350497	0.346058
C270	C	0.590778	-0.012226	-0.046611
C271	C	0.597198	-0.022688	-0.092701
C272	C	0.568661	0.027849	-0.116335
H273	H	0.560530	-0.023814	-0.039144
H274	H	0.597319	0.040748	-0.038848
H275	H	0.590654	-0.075649	-0.100461
H276	H	0.627440	-0.011094	-0.100181
H277	H	0.575202	0.080823	-0.108573
H278	H	0.538414	0.016257	-0.108866
H279	H	0.573016	0.020763	-0.147610
H280	H	0.568462	0.522066	0.743765
H281	H	0.393177	0.471546	0.268366
C282	C	0.588624	-0.226082	0.478877
C283	C	0.559750	-0.181726	0.505842
C284	C	0.530961	-0.232315	0.529241
H285	H	0.571534	-0.256045	0.458163
H286	H	0.605773	-0.260518	0.497182
H287	H	0.542603	-0.147304	0.487538
H288	H	0.576828	-0.151765	0.526564
H289	H	0.548110	-0.266751	0.547546
H290	H	0.513874	-0.262275	0.508523
H291	H	0.511370	-0.202227	0.547542
C292	C	0.911578	-0.013061	0.277000
C293	C	0.957723	-0.023902	0.271180
C294	C	0.981103	0.026680	0.299868
H295	H	0.904013	0.039916	0.270227
H296	H	0.903705	-0.024386	0.307186
H297	H	0.965593	-0.012572	0.241001
H298	H	0.965300	-0.076869	0.277957
H299	H	0.973230	0.015356	0.330055
H300	H	0.973535	0.079655	0.293092
H301	H	1.012414	0.019327	0.295926
H302	H	0.597272	0.471715	1.044723
H303	H	0.598013	-0.026496	0.044979
H304	H	0.700628	-0.029060	0.472963
C305	C	0.589397	0.485415	0.953321
C306	C	0.564236	0.529523	0.983894
C307	C	0.535431	0.579945	0.960508
H308	H	0.606521	0.519891	0.934967
H309	H	0.569794	0.455217	0.935077
H310	H	0.583838	0.559719	1.002131
H311	H	0.547104	0.495068	1.002250
H312	H	0.515827	0.549747	0.942264
H313	H	0.552558	0.614416	0.942154
H314	H	0.518353	0.609873	0.981248
C315	C	0.912171	-0.224421	0.157925
C316	C	0.900667	-0.302401	0.167900
C317	C	0.924276	-0.353192	0.139540
H318	H	0.904712	-0.213204	0.127640
H319	H	0.943452	-0.217203	0.162214
H320	H	0.869393	-0.309615	0.163608
H321	H	0.908126	-0.313643	0.198180
H322	H	0.955557	-0.345975	0.143829
H323	H	0.916816	-0.341968	0.109257
H324	H	0.916477	-0.406108	0.146307
C325	C	0.484346	-0.013932	0.155681
C326	C	0.453832	0.030260	0.130450
C327	C	0.477285	0.080970	0.101771
H328	H	0.502569	0.020477	0.172899
H329	H	0.502727	-0.043926	0.136117
H330	H	0.435459	0.060252	0.150012
H331	H	0.435608	-0.004129	0.113223
H332	H	0.495666	0.050977	0.082206
H333	H	0.495508	0.115375	0.118992
H334	H	0.456585	0.110956	0.084645
H335	H	-0.094175	0.288925	0.164121
H336	H	0.262479	0.521922	0.297111
C337	C	0.560596	0.535630	0.694504
C338	C	0.531796	0.490935	0.721504
C339	C	0.503009	0.541207	0.744960
H340	H	0.577737	0.570049	0.712791
H341	H	0.543457	0.565623	0.673809
H342	H	0.548934	0.460955	0.742197
H343	H	0.514646	0.456517	0.703229
H344	H	0.485870	0.571201	0.724266
H345	H	0.520153	0.575625	0.763245
H346	H	0.483462	0.510889	0.763280
C347	C	0.708665	-0.014546	0.381602
C348	C	0.733713	0.029488	0.412313
C349	C	0.762497	0.080328	0.389084
H350	H	0.728343	-0.044413	0.363286
H351	H	0.691517	0.019952	0.363333
H352	H	0.750859	-0.005005	0.430573
H353	H	0.714046	0.059372	0.430630
H354	H	0.745349	0.114826	0.370815
H355	H	0.782173	0.050454	0.370768
H356	H	0.779493	0.110216	0.409917
H357	H	0.177374	0.521945	0.297114
C358	C	0.128026	0.535714	0.304932
C359	C	0.097447	0.579826	0.330088
C360	C	0.120827	0.630286	0.358845
H361	H	0.146299	0.505568	0.324545
H362	H	0.146350	0.570180	0.287761
H363	H	0.079130	0.545364	0.347258
H364	H	0.079172	0.609988	0.310487
H365	H	0.139151	0.664752	0.341674
H366	H	0.139100	0.600133	0.378455
H367	H	0.100083	0.660227	0.375914
C368	C	0.484531	0.275174	0.156215
C369	C	0.473149	0.292482	0.111767
C370	C	0.496531	0.242169	0.082946
H371	H	0.515842	0.282330	0.160268
H372	H	0.476794	0.222142	0.162756
H373	H	0.480889	0.345501	0.105228
H374	H	0.441842	0.285321	0.107699
H375	H	0.488794	0.189137	0.089488
H376	H	0.527841	0.249329	0.087004
H377	H	0.488809	0.253901	0.052786
H378	H	-0.094109	0.471639	0.268402
H379	H	-0.179231	0.471654	0.268402
H380	H	-0.179283	0.288935	0.164133
H381	H	0.121636	0.238544	0.135371
C382	C	0.170993	0.224842	0.127504
C383	C	0.201573	0.180767	0.102330
C384	C	0.178194	0.130385	0.073526
H385	H	0.152655	0.190343	0.144630
H386	H	0.152733	0.255067	0.107909
H387	H	0.219825	0.150543	0.121922
H388	H	0.219912	0.215244	0.085195
H389	H	0.159934	0.160610	0.053931
H390	H	0.159857	0.095891	0.090656
H391	H	0.198939	0.100479	0.056439
C392	C	0.709335	0.275302	0.953272
C393	C	0.738117	0.320012	0.926260
C394	C	0.766877	0.269750	0.902763
H395	H	0.726493	0.245279	0.973929
H396	H	0.692160	0.240909	0.934992
H397	H	0.755291	0.354391	0.944539
H398	H	0.720971	0.350034	0.905595
H399	H	0.749702	0.235357	0.884483
H400	H	0.784032	0.239730	0.923423
H401	H	0.786406	0.300078	0.884430
C402	C	0.709078	0.275109	0.380853
C403	C	0.702907	0.285864	0.334738
C404	C	0.731581	0.235491	0.311214
H405	H	0.739283	0.286663	0.388448
H406	H	0.702502	0.222083	0.388578
H407	H	0.709486	0.338878	0.327017
H408	H	0.672708	0.274304	0.327130
H409	H	0.725005	0.182465	0.318938
H410	H	0.761784	0.247049	0.318812
H411	H	0.727395	0.242776	0.279922
C412	C	0.709181	0.275010	0.478702
C413	C	0.734320	0.230864	0.448129
C414	C	0.763082	0.180364	0.471515
H415	H	0.728804	0.305129	0.496958
H416	H	0.692013	0.240567	0.497045
H417	H	0.751487	0.265302	0.429794
H418	H	0.714709	0.200728	0.429872
H419	H	0.745913	0.145921	0.489858
H420	H	0.782701	0.210489	0.489770
H421	H	0.780139	0.150400	0.450775
H422	H	0.730135	0.238410	0.603143
H423	H	0.730165	0.238428	0.688249
H424	H	0.568424	0.522062	0.603007
C425	C	0.709425	0.275359	1.051195
C426	C	0.738225	0.320135	1.078032
C427	C	0.767074	0.269940	1.101524
H428	H	0.692329	0.240918	1.069597
H429	H	0.726560	0.245386	1.030523
H430	H	0.721092	0.350095	1.098702
H431	H	0.755331	0.354574	1.059642
H432	H	0.784209	0.239966	1.080851
H433	H	0.749974	0.235501	1.119923
H434	H	0.786621	0.300313	1.119732
C435	C	0.589373	0.485348	0.478759
C436	C	0.614819	0.535949	0.505625
C437	C	0.586173	0.586402	0.529128
H438	H	0.572243	0.515428	0.458106
H439	H	0.569814	0.455164	0.497139
H440	H	0.634370	0.566131	0.487246
H441	H	0.631948	0.505891	0.526286
H442	H	0.566614	0.556218	0.547508
H443	H	0.569044	0.616477	0.508472
H444	H	0.603434	0.620736	0.547362
C445	C	0.589321	0.485259	0.380758
C446	C	0.595469	0.474474	0.334655
C447	C	0.566787	0.524838	0.311076
H448	H	0.559118	0.473716	0.388430
H449	H	0.595903	0.538288	0.388362
H450	H	0.588883	0.421457	0.327055
H451	H	0.625665	0.486023	0.326970
H452	H	0.573370	0.577868	0.318679
H453	H	0.536586	0.513291	0.318751
H454	H	0.570957	0.517533	0.279792
H455	H	0.730182	0.238438	0.743890
C456	C	0.560748	0.535898	0.835210
C457	C	0.570538	0.613954	0.823712
C458	C	0.541875	0.664515	0.847119
H459	H	0.530544	0.524404	0.827581
H460	H	0.564874	0.528749	0.866521
H461	H	0.566408	0.621100	0.792409
H462	H	0.600736	0.625473	0.831343
H463	H	0.546001	0.657366	0.878430
H464	H	0.511673	0.653013	0.839488
H465	H	0.548516	0.717482	0.839324
H466	H	0.730206	0.238461	0.829009
H467	H	0.702263	-0.209368	0.045258
