data_functionalizedCrystal
_audit_creation_method	'MofGen! by Chris Wilmer'
_symmetry_space_group_name_H-M	'P1'
_symmetry_Int_Tables_number	1
_symmetry_cell_setting	triclinic
loop_
_symmetry_equiv_pos_as_xyz
  x,y,z
_cell_length_a	27.732064
_cell_length_b	27.731996
_cell_length_c	13.330367
_cell_angle_alpha	89.989375
_cell_angle_beta	90.000086
_cell_angle_gamma	82.635407
loop_
_atom_site_label
_atom_site_type_symbol
_atom_site_fract_x
_atom_site_fract_y
_atom_site_fract_z
O1	O	0.640913	0.057556	-0.083257
O2	O	1.140913	0.557556	0.416743
O3	O	0.500119	0.066294	-0.083300
O4	O	1.000119	0.566294	0.416700
O5	O	0.574902	-0.008473	-0.083256
O6	O	1.074902	0.491527	0.416744
O7	O	0.566130	0.132323	-0.083302
O8	O	1.066130	0.632323	0.416698
O9	O	0.574891	-0.008475	0.083591
O10	O	1.074891	0.491525	0.583591
O11	O	0.500109	0.066292	0.083547
O12	O	1.000109	0.566292	0.583547
O13	O	0.640903	0.057555	0.083590
O14	O	1.140903	0.557555	0.583590
Cu15	Cu	0.570505	0.061923	0.098803
Cu16	Cu	1.070505	0.561923	0.598803
Cu17	Cu	0.570517	0.061925	-0.098513
Cu18	Cu	1.070517	0.561925	0.401487
O19	O	0.566120	0.132322	0.083545
O20	O	1.066120	0.632322	0.583545
C21	C	0.482107	0.066108	0.000118
C22	C	0.982107	0.566108	0.500118
C23	C	0.428453	0.065552	0.000102
C24	C	0.928453	0.565552	0.500102
C25	C	0.051389	0.017584	0.000175
C26	C	0.551389	0.517584	0.500175
C27	C	0.253049	0.019630	0.000149
C28	C	0.753049	0.519630	0.500149
O29	O	0.284309	-0.017592	0.000198
O30	O	0.784309	0.482408	0.500198
N31	N	0.272168	0.063966	0.000130
N32	N	0.772168	0.563966	0.500130
C33	C	0.240869	0.107793	0.000124
C34	C	0.740869	0.607793	0.500124
O35	O	0.261758	0.145549	0.000117
O36	O	0.761758	0.645549	0.500117
C37	C	0.039210	0.105746	0.000158
C38	C	0.539210	0.605746	0.500158
C39	C	0.020094	0.061407	0.000167
C40	C	0.520094	0.561407	0.500167
C41	C	0.032272	-0.026751	0.000185
C42	C	0.532272	0.473249	0.500185
C43	C	-0.018140	-0.027262	0.000186
C44	C	0.481860	0.472738	0.500186
C45	C	-0.049435	0.016562	0.000178
C46	C	0.450565	0.516562	0.500178
C47	C	-0.030318	0.060896	0.000168
C48	C	0.469682	0.560896	0.500168
C49	C	0.007912	0.149572	0.000159
C50	C	0.507912	0.649572	0.500159
C51	C	-0.042506	0.149057	0.000170
C52	C	0.457494	0.649057	0.500170
C53	C	-0.061622	0.104718	0.000179
C54	C	0.438378	0.604718	0.500179
C55	C	-0.112026	0.104209	0.000160
C56	C	0.387974	0.604209	0.500160
N57	N	-0.131145	0.059873	0.000179
N58	N	0.368855	0.559873	0.500179
C59	C	-0.099849	0.016050	0.000188
C60	C	0.400151	0.516050	0.500188
C61	C	0.346743	0.108864	0.000104
C62	C	0.846743	0.608864	0.500104
C63	C	0.397158	0.109376	0.000094
C64	C	0.897158	0.609376	0.500094
C65	C	0.409334	0.021213	0.000120
C66	C	0.909334	0.521213	0.500120
C67	C	0.358919	0.020702	0.000123
C68	C	0.858919	0.520702	0.500123
C69	C	0.327624	0.064529	0.000123
C70	C	0.827624	0.564529	0.500123
C71	C	-0.205719	0.014980	0.000190
C72	C	0.294281	0.514980	0.500190
C73	C	-0.256136	0.014473	0.000187
C74	C	0.243864	0.514473	0.500187
C75	C	-0.268308	0.102635	0.000166
C76	C	0.231692	0.602635	0.500166
C77	C	-0.217895	0.103142	0.000163
C78	C	0.282105	0.603142	0.500163
C79	C	-0.186601	0.059311	0.000179
C80	C	0.313399	0.559311	0.500179
O81	O	-0.143313	0.141411	0.000122
O82	O	0.356687	0.641411	0.500122
O83	O	-0.120748	-0.021702	0.000217
O84	O	0.379252	0.478298	0.500217
C85	C	0.101801	0.018095	0.000174
C86	C	0.601801	0.518095	0.500174
C87	C	0.120918	0.062430	0.000164
C88	C	0.620918	0.562430	0.500164
C89	C	0.089623	0.106253	0.000155
C90	C	0.589623	0.606253	0.500155
C91	C	0.171332	0.062941	0.000154
C92	C	0.671332	0.562941	0.500154
C93	C	0.202628	0.019118	0.000163
C94	C	0.702628	0.519118	0.500163
C95	C	0.183508	-0.025218	0.000182
C96	C	0.683508	0.474782	0.500182
C97	C	0.133096	-0.025729	0.000183
C98	C	0.633096	0.474271	0.500183
C99	C	0.108742	0.150589	0.000136
C100	C	0.608742	0.650589	0.500136
C101	C	0.159154	0.151096	0.000134
C102	C	0.659154	0.651096	0.500134
C103	C	0.190450	0.107273	0.000143
C104	C	0.690450	0.607273	0.500143
C105	C	0.574717	-0.026482	0.000171
C106	C	1.074717	0.473518	0.500171
C107	C	0.574174	-0.080138	0.000181
C108	C	1.074174	0.419862	0.500181
C109	C	0.570765	-0.412853	-0.090817
C110	C	1.070765	0.087147	0.409183
C111	C	0.568704	-0.614512	-0.090836
C112	C	1.068704	-0.114512	0.409164
O113	O	0.568422	-0.640582	-0.168184
O114	O	1.068422	-0.140582	0.331816
N115	N	0.568442	-0.639730	0.000112
N116	N	1.068442	-0.139730	0.500112
C117	C	0.568692	-0.614530	0.091070
C118	C	1.068692	-0.114530	0.591070
O119	O	0.568417	-0.640606	0.168426
O120	O	1.068417	-0.140606	0.668426
C121	C	0.570750	-0.412872	0.091088
C122	C	1.070750	0.087128	0.591088
C123	C	0.571017	-0.387657	0.000134
C124	C	1.071017	0.112343	0.500134
C125	C	0.571031	-0.387639	-0.181763
C126	C	1.071031	0.112361	0.318237
C127	C	0.571549	-0.337227	-0.181758
C128	C	1.071549	0.162773	0.318242
C129	C	0.571801	-0.312031	-0.090806
C130	C	1.071801	0.187969	0.409194
C131	C	0.571535	-0.337246	0.000140
C132	C	1.071535	0.162754	0.500140
C133	C	0.570997	-0.387672	0.182045
C134	C	1.070997	0.112328	0.682045
C135	C	0.571510	-0.337254	0.182041
C136	C	1.071510	0.162746	0.682041
C137	C	0.571777	-0.312040	0.091088
C138	C	1.071777	0.187960	0.591088
C139	C	0.572304	-0.261638	0.091097
C140	C	1.072304	0.238362	0.591097
N141	N	0.572566	-0.236420	0.000149
N142	N	1.072566	0.263580	0.500149
C143	C	0.572314	-0.261617	-0.090802
C144	C	1.072314	0.238383	0.409198
C145	C	0.567613	-0.720403	0.091055
C146	C	1.067613	-0.220403	0.591055
C147	C	0.567100	-0.770817	0.091051
C148	C	1.067100	-0.270817	0.591051
C149	C	0.567110	-0.770796	-0.090855
C150	C	1.067110	-0.270796	0.409145
C151	C	0.567627	-0.720381	-0.090850
C152	C	1.067627	-0.220381	0.409150
C153	C	0.567875	-0.695185	0.000107
C154	C	1.067875	-0.195185	0.500107
C155	C	0.573402	-0.155750	-0.090784
C156	C	1.073402	0.344250	0.409216
C157	C	0.573922	-0.105334	-0.090770
C158	C	1.073922	0.394666	0.409230
C159	C	0.573909	-0.105360	0.091135
C160	C	1.073909	0.394640	0.591135
C161	C	0.573392	-0.155771	0.091122
C162	C	1.073392	0.344229	0.591122
C163	C	0.573137	-0.180964	0.000155
C164	C	1.073137	0.319036	0.500155
O165	O	0.572581	-0.235537	0.168405
O166	O	1.072581	0.264463	0.668405
O167	O	0.572579	-0.235531	-0.168147
O168	O	1.072579	0.264469	0.331853
C169	C	0.570247	-0.463265	-0.090823
C170	C	1.070247	0.036735	0.409177
C171	C	0.569981	-0.488479	0.000123
C172	C	1.069981	0.011521	0.500123
C173	C	0.570233	-0.463283	0.091075
C174	C	1.070233	0.036717	0.591075
C175	C	0.569467	-0.538894	0.000119
C176	C	1.069467	-0.038894	0.500119
C177	C	0.569216	-0.564090	-0.090832
C178	C	1.069216	-0.064090	0.409168
C179	C	0.569478	-0.538872	-0.181780
C180	C	1.069478	-0.038872	0.318220
C181	C	0.569995	-0.488461	-0.181774
C182	C	1.069995	0.011539	0.318226
C183	C	0.569971	-0.488501	0.182022
C184	C	1.069971	0.011499	0.682022
C185	C	0.569453	-0.538912	0.182009
C186	C	1.069453	-0.038912	0.682009
C187	C	0.569202	-0.564109	0.091058
C188	C	1.069202	-0.064109	0.591058
C189	C	0.658915	0.057740	0.000169
C190	C	1.158915	0.557740	0.500169
C191	C	0.712569	0.058296	0.000178
C192	C	1.212569	0.558296	0.500178
C193	C	0.566305	0.150330	0.000116
C194	C	1.066305	0.650330	0.500116
C195	C	0.566848	0.203986	0.000099
C196	C	1.066848	0.703986	0.500099
N197	N	0.570499	0.061922	0.237584
N198	N	1.070499	0.561922	0.737584
N199	N	0.570527	0.061923	-0.237295
N200	N	1.070527	0.561923	0.262705
C201	C	0.537402	0.095019	0.710187
C202	C	1.037402	0.595019	1.210187
C203	C	0.603645	0.028827	0.710195
C204	C	1.103645	0.528827	1.210195
C205	C	0.603640	0.028826	0.605177
C206	C	1.103640	0.528826	1.105177
C207	C	0.570516	0.061922	0.552659
C208	C	1.070516	0.561922	1.052659
C209	C	0.537397	0.095020	0.605159
C210	C	1.037397	0.595020	1.105159
C211	C	0.636762	-0.004268	0.552668
C212	C	1.136762	0.495732	1.052668
C213	C	0.636758	-0.004270	0.447643
C214	C	1.136758	0.495730	0.947643
C215	C	0.603631	0.028824	0.395124
C216	C	1.103631	0.528824	0.895124
C217	C	0.570510	0.061923	0.447631
C218	C	1.070510	0.561923	0.947631
C219	C	0.537386	0.095019	0.395113
C220	C	1.037386	0.595019	0.895113
C221	C	0.504262	0.128115	0.447618
C222	C	1.004262	0.628115	0.947618
C223	C	0.504269	0.128114	0.552640
C224	C	1.004269	0.628114	1.052640
C225	C	0.603624	0.028825	0.290102
C226	C	1.103624	0.528825	0.790102
C227	C	0.537380	0.095019	0.290085
C228	C	1.037380	0.595019	0.790085
H229	H	0.343358	-0.015402	0.000131
H230	H	0.843358	0.484598	0.500131
Cl231	Cl	0.569121	-0.570605	0.296363
Cl232	Cl	1.069121	-0.070605	0.796363
Cl233	Cl	0.574225	-0.073675	0.205468
Cl234	Cl	1.074225	0.426325	0.705468
Cl235	Cl	0.109073	-0.081471	0.000190
Cl236	Cl	0.609073	0.418529	0.500190
H237	H	-0.180245	-0.020712	0.000202
H238	H	0.319755	0.479288	0.500202
Cl239	Cl	0.495733	0.136626	0.224071
Cl240	Cl	0.995733	0.636626	0.724071
Cl241	Cl	0.678405	-0.045870	0.618688
Cl242	Cl	1.178405	0.454130	1.118688
Cl243	Cl	0.222861	-0.080309	0.000189
Cl244	Cl	0.722861	0.419691	0.500189
H245	H	0.566906	-0.791319	-0.164912
H246	H	1.066906	-0.291319	0.335088
Cl247	Cl	0.448686	-0.033879	0.000131
Cl248	Cl	0.948686	0.466121	0.500131
H249	H	0.510432	0.121965	0.752940
H250	H	1.010432	0.621965	1.252940
Cl251	Cl	0.462625	0.169723	0.381584
Cl252	Cl	0.962625	0.669723	0.881584
H253	H	0.663728	-0.031219	0.404900
H254	H	1.163728	0.468781	0.904900
H255	H	0.570176	-0.467991	0.256087
H256	H	1.070176	0.032009	0.756087
H257	H	0.477302	0.155060	0.595396
H258	H	0.977302	0.655060	1.095396
Cl259	Cl	0.183179	0.206842	0.000116
Cl260	Cl	0.683179	0.706842	0.500116
Cl261	Cl	0.567922	-0.688735	0.205414
Cl262	Cl	1.067922	-0.188735	0.705414
H263	H	0.630594	0.001881	0.247357
H264	H	1.130594	0.501881	0.747357
Cl265	Cl	-0.042163	-0.083005	0.000189
Cl266	Cl	0.457837	0.416995	0.500189
Cl267	Cl	0.645289	-0.012775	0.776214
Cl268	Cl	1.145289	0.487225	1.276214
H269	H	0.573179	-0.176303	0.165184
H270	H	1.073179	0.323697	0.665184
Cl271	Cl	-0.280164	-0.041271	0.000191
Cl272	Cl	0.219836	0.458729	0.500191
Cl273	Cl	0.573083	-0.187414	-0.205145
Cl274	Cl	1.073083	0.312586	0.294855
Cl275	Cl	0.071607	-0.081851	0.000197
Cl276	Cl	0.571607	0.418149	0.500197
Cl277	Cl	-0.307660	0.157724	0.000150
Cl278	Cl	0.192340	0.657724	0.500150
Cl279	Cl	0.421183	0.165118	0.000062
Cl280	Cl	0.921183	0.665118	0.500062
Cl281	Cl	0.570658	-0.419358	0.296394
Cl282	Cl	1.070658	0.080642	0.796394
Cl283	Cl	0.571880	-0.305536	-0.296106
Cl284	Cl	1.071880	0.194464	0.203894
Cl285	Cl	0.307407	0.163966	0.000095
Cl286	Cl	0.807407	0.663966	0.500095
H287	H	0.571704	-0.316741	0.256112
H288	H	1.071704	0.183259	0.756112
H289	H	0.574140	-0.084807	-0.164839
H290	H	1.074140	0.415193	0.335161
Cl291	Cl	0.031931	0.205315	0.000149
Cl292	Cl	0.531931	0.705315	0.500149
H293	H	0.570212	-0.467936	-0.255838
H294	H	1.070212	0.032064	0.244162
Cl295	Cl	-0.193863	0.158882	0.000139
Cl296	Cl	0.306137	0.658882	0.500139
Cl297	Cl	0.069406	0.205687	0.000120
Cl298	Cl	0.569406	0.705687	0.500120
H299	H	0.570824	-0.408148	-0.255831
H300	H	1.070824	0.091852	0.244169
Cl301	Cl	-0.081845	0.204157	0.000174
Cl302	Cl	0.418155	0.704157	0.500174
H303	H	0.566890	-0.791344	0.165114
H304	H	1.066890	-0.291344	0.665114
Cl305	Cl	0.567961	-0.688688	-0.205196
Cl306	Cl	1.067961	-0.188688	0.294804
H307	H	0.569275	-0.559396	-0.255836
H308	H	1.069275	-0.059396	0.244164
