data_functionalizedCrystal
_audit_creation_method	'MofGen! by Chris Wilmer'
_symmetry_space_group_name_H-M	'P1'
_symmetry_Int_Tables_number	1
_symmetry_cell_setting	triclinic
loop_
_symmetry_equiv_pos_as_xyz
  x,y,z
_cell_length_a	18.101398
_cell_length_b	21.295416
_cell_length_c	18.101389
_cell_angle_alpha	90.020092
_cell_angle_beta	89.975673
_cell_angle_gamma	89.974402
loop_
_atom_site_label
_atom_site_type_symbol
_atom_site_fract_x
_atom_site_fract_y
_atom_site_fract_z
Zn1	Zn	1.132125	0.250755	-0.418830
Zn2	Zn	1.132023	0.356008	-0.294985
Zn3	Zn	1.008284	0.250748	-0.294991
Zn4	Zn	1.008236	0.355981	-0.418774
O5	O	1.070167	0.303373	-0.356895
O6	O	1.235744	0.264731	-0.402423
O7	O	1.115585	0.342054	-0.191353
O8	O	1.024774	0.162660	-0.311445
O9	O	1.235669	0.342060	-0.311434
O10	O	1.115760	0.162664	-0.402429
O11	O	1.024675	0.264720	-0.191357
O12	O	0.904645	0.264694	-0.311390
O13	O	1.024693	0.342014	-0.522414
O14	O	0.904610	0.342008	-0.402332
O15	O	1.115714	0.264705	-0.522456
O16	O	1.115539	0.444094	-0.311379
O17	O	1.024594	0.444074	-0.402326
C18	C	0.877756	0.303348	-0.356856
C19	C	0.795442	0.303352	-0.356857
C20	C	0.496351	0.303391	-0.356920
C21	C	0.527674	0.254504	-0.299980
C22	C	0.613292	0.254635	-0.299737
C23	C	0.644734	0.303371	-0.356889
C24	C	0.613617	0.369679	-0.335562
C25	C	0.527972	0.369407	-0.335166
C26	C	0.527966	0.286547	-0.435320
C27	C	0.613616	0.285070	-0.434892
C28	C	0.728593	0.303364	-0.356872
C29	C	0.412492	0.303403	-0.356934
C30	C	1.070070	0.466925	-0.356862
C31	C	1.070097	0.536893	-0.356873
C32	C	1.117494	0.569749	-0.309567
C33	C	1.117529	0.635491	-0.309587
C34	C	1.070154	0.668375	-0.356905
C35	C	1.022753	0.635511	-0.404220
C36	C	1.022725	0.569770	-0.404204
N37	N	1.005370	0.771637	-0.362543
N38	N	1.005399	0.834089	-0.362554
C39	C	1.070237	0.866450	-0.356958
N40	N	1.135047	0.834001	-0.351335
N41	N	1.135017	0.771543	-0.351321
C42	C	1.070179	0.739661	-0.356928
C43	C	1.117676	0.970592	-0.309671
C44	C	1.117713	1.036335	-0.309696
C45	C	1.022930	1.036354	-0.404326
C46	C	1.022900	0.970612	-0.404304
C47	C	1.070273	0.937734	-0.356973
C48	C	1.263329	0.303399	-0.356934
C49	C	1.345643	0.303410	-0.356951
C50	C	1.070285	1.139183	-0.356957
C51	C	1.070337	1.069215	-0.357016
C52	C	1.070210	0.303357	-0.550057
C53	C	1.070228	0.303350	-0.632371
C54	C	1.070271	0.303232	-0.931462
C55	C	1.012806	0.351719	-0.900111
C56	C	1.012962	0.351944	-0.814493
C57	C	1.070249	0.303291	-0.783080
C58	C	1.148275	0.321303	-0.814185
C59	C	1.147955	0.321621	-0.899830
C60	C	1.050389	0.236626	-0.899889
C61	C	1.048653	0.237011	-0.814238
C62	C	1.070241	0.303323	-0.699220
C63	C	1.070284	0.303202	-1.015322
C64	C	1.070167	0.303344	-0.164484
C65	C	1.070292	0.303173	-0.082171
H66	H	0.634332	0.205465	-0.313106
H67	H	0.633746	0.265769	-0.241644
H68	H	1.156069	0.542982	-0.271029
H69	H	0.506125	0.265512	-0.242225
H70	H	1.087453	0.198968	-0.792855
N71	N	0.974315	0.536206	-0.452537
N72	N	0.979195	0.543510	-0.520879
H73	H	0.945005	0.519805	-0.555016
H74	H	1.026088	0.401314	-0.794008
N75	N	1.165936	0.669056	-0.261246
N76	N	1.161044	0.661747	-0.192905
H77	H	1.195228	0.685451	-0.158760
N78	N	0.974526	1.069926	-0.452660
N79	N	0.932204	1.040578	-0.494891
H80	H	0.898018	1.064290	-0.529031
H81	H	1.156314	1.063086	-0.271176
N82	N	0.974478	0.937056	-0.452630
N83	N	0.932184	0.966421	-0.494879
H84	H	0.897985	0.942723	-0.529014
N85	N	0.976638	0.219941	-0.788710
N86	N	0.949042	0.168536	-0.807377
H87	H	0.898186	0.156476	-0.789336
H88	H	0.507960	0.383693	-0.277852
N89	N	1.029123	0.413274	-0.927110
N90	N	1.090181	0.437984	-0.913208
H91	H	1.101710	0.481457	-0.932277
N92	N	1.166068	0.937013	-0.261322
N93	N	1.208390	0.966361	-0.219090
H94	H	1.242568	0.942648	-0.184942
N95	N	0.974369	0.669108	-0.452555
N96	N	0.974399	0.727805	-0.452562
H97	H	0.940229	0.751533	-0.486702
N98	N	0.940376	0.337800	-0.788114
N99	N	0.889248	0.327694	-0.832958
H100	H	0.837981	0.317708	-0.814332
N101	N	1.102891	0.191311	-0.925339
N102	N	1.110788	0.181848	-0.993038
H103	H	1.147870	0.149848	-1.011017
N104	N	0.501871	0.192630	-0.316565
N105	N	0.516545	0.168161	-0.377613
H106	H	0.498315	0.124461	-0.389328
N107	N	0.501983	0.416652	-0.384919
N108	N	0.547100	0.449722	-0.419820
H109	H	0.528749	0.483092	-0.454954
N110	N	0.940005	0.337715	-0.925933
N111	N	0.929619	0.291839	-0.967748
H112	H	0.878201	0.281948	-0.985992
H113	H	1.192221	0.287839	-0.920571
N114	N	0.639165	0.416593	-0.385964
N115	N	0.680692	0.401645	-0.438289
H116	H	0.698737	0.434777	-0.473887
N117	N	1.169110	0.382697	-0.924905
N118	N	1.230840	0.404579	-0.907782
H119	H	1.245783	0.447714	-0.925489
N120	N	0.640484	0.387907	-0.264438
N121	N	0.682540	0.352179	-0.229334
H122	H	0.701515	0.365049	-0.179101
N123	N	1.203424	0.278389	-0.788662
N124	N	1.185795	0.233946	-0.747162
H125	H	1.224743	0.203637	-0.729135
H126	H	1.165421	0.369476	-0.792741
H127	H	0.507710	0.322155	-0.477745
N128	N	0.500894	0.226949	-0.459640
N129	N	0.457965	0.196163	-0.419480
H130	H	0.438843	0.154070	-0.436649
N131	N	0.980258	0.216032	-0.926971
N132	N	0.970189	0.209688	-0.994876
H133	H	0.920657	0.195149	-1.014005
H134	H	0.633960	0.236275	-0.450973
N135	N	0.640448	0.326516	-0.490943
N136	N	0.708322	0.331044	-0.502501
H137	H	0.727263	0.360334	-0.542076
