data_functionalizedCrystal
_audit_creation_method	'MofGen! by Chris Wilmer'
_symmetry_space_group_name_H-M	'P1'
_symmetry_Int_Tables_number	1
_symmetry_cell_setting	triclinic
loop_
_symmetry_equiv_pos_as_xyz
  x,y,z
_cell_length_a	10.654550
_cell_length_b	10.654548
_cell_length_c	9.730223
_cell_angle_alpha	89.999044
_cell_angle_beta	89.998797
_cell_angle_gamma	84.484615
loop_
_atom_site_label
_atom_site_type_symbol
_atom_site_fract_x
_atom_site_fract_y
_atom_site_fract_z
O1	O	1.667840	0.176396	-0.114181
O2	O	1.302362	0.193202	-0.114206
O3	O	1.493505	0.002059	-0.114190
O4	O	1.476697	0.367538	-0.114197
O5	O	1.493488	0.002060	0.114390
O6	O	1.302345	0.193203	0.114374
O7	O	1.667823	0.176397	0.114399
Zn8	Zn	1.485081	0.184800	0.150678
Zn9	Zn	1.485104	0.184798	-0.150486
O10	O	1.476680	0.367539	0.114383
C11	C	1.255555	0.191968	0.000081
C12	C	1.116112	0.188276	0.000071
C13	C	1.036626	0.300818	0.000073
C14	C	0.905605	0.297341	0.000097
C15	C	0.933570	0.068772	0.000112
C16	C	1.064588	0.072250	0.000098
C17	C	1.492263	-0.044738	0.000097
C18	C	1.488572	-0.184182	0.000091
C19	C	1.483359	-0.380714	-0.124510
C20	C	1.486842	-0.249694	-0.124510
C21	C	1.486830	-0.249698	0.124700
C22	C	1.483356	-0.380716	0.124699
C23	C	1.481616	-0.446217	-0.249119
C24	C	1.483360	-0.380711	-0.373729
C25	C	1.486844	-0.249691	-0.373729
C26	C	1.488584	-0.184178	-0.249120
C27	C	1.714630	0.177630	0.000109
C28	C	1.854073	0.181322	0.000109
C29	C	1.477922	0.414337	0.000092
C30	C	1.481613	0.553780	0.000090
N31	N	1.485075	0.184800	0.356215
N32	N	1.485120	0.184788	-0.356022
C33	C	1.400426	0.269400	0.428169
C34	C	1.400451	0.269398	0.572052
C35	C	1.569779	0.100184	0.572014
C36	C	1.569758	0.100194	0.428133
C37	C	1.315742	0.354007	0.356251
C38	C	1.231085	0.438613	0.428205
C39	C	1.231110	0.438610	0.572088
C40	C	1.315792	0.354002	0.644017
H41	H	1.078572	0.395294	0.000062
O42	O	1.481605	-0.444156	0.245856
C43	C	1.483907	-0.358252	0.355839
H44	H	1.446694	-0.260000	0.319316
H45	H	1.584853	-0.356622	0.394158
C46	C	1.446034	-0.520013	0.518413
C47	C	1.400318	-0.399340	0.473557
H48	H	1.394478	-0.545360	0.591031
H49	H	1.444488	-0.577891	0.444317
H50	H	1.530155	-0.518639	0.550336
H51	H	1.316205	-0.400719	0.441620
H52	H	1.401849	-0.341463	0.547652
O53	O	0.828446	0.406699	-0.000151
C54	C	0.851969	0.477077	-0.118529
H55	H	0.896156	0.411157	-0.201271
H56	H	0.919308	0.550353	-0.091783
C57	C	0.672741	0.624982	-0.070573
C58	C	0.727002	0.544016	-0.172202
H59	H	0.595657	0.666278	-0.103679
H60	H	0.656895	0.577571	0.009184
H61	H	0.728869	0.686034	-0.048294
H62	H	0.670881	0.482956	-0.194467
H63	H	0.742836	0.591419	-0.251964
H64	H	0.891602	-0.025693	0.000141
O65	O	1.651905	0.018040	0.642094
C66	C	1.633789	0.036193	0.784516
H67	H	1.534352	0.082206	0.804183
H68	H	1.705422	0.099843	0.825339
C69	C	1.773691	-0.148626	0.834222
C70	C	1.651556	-0.092123	0.858379
H71	H	1.784656	-0.227776	0.879787
H72	H	1.785900	-0.160854	0.738270
H73	H	1.833371	-0.095572	0.868242
H74	H	1.591879	-0.145169	0.824344
H75	H	1.639337	-0.079906	0.954327
O76	O	1.315589	0.354217	0.216485
C77	C	1.222675	0.447008	0.168433
H78	H	1.201422	0.521619	0.251351
H79	H	1.133043	0.401340	0.142924
C80	C	1.297069	0.417633	-0.063448
C81	C	1.270974	0.509278	0.038389
H82	H	1.326859	0.456041	-0.143669
H83	H	1.359665	0.355115	-0.031077
H84	H	1.222370	0.379584	-0.084689
H85	H	1.345676	0.547314	0.059640
H86	H	1.208392	0.571804	0.006018
O87	O	1.148787	0.520921	0.358554
C88	C	1.074060	0.595573	0.452921
H89	H	1.125580	0.597468	0.555472
H90	H	0.980418	0.553922	0.468245
C91	C	0.986057	0.728494	0.270819
C92	C	1.049339	0.730830	0.396770
H93	H	0.970802	0.811926	0.236181
H94	H	1.036398	0.678197	0.207240
H95	H	0.908029	0.693779	0.283606
H96	H	1.127372	0.765530	0.383979
H97	H	0.999011	0.781136	0.460346
H98	H	1.129309	-0.019401	0.000100
H99	H	1.488276	-0.196360	-0.475193
O100	O	1.488284	-0.185971	0.245698
C101	C	1.381727	-0.096886	0.253116
H102	H	1.304801	-0.127097	0.182401
H103	H	1.408908	-0.000593	0.219632
C104	C	1.427010	-0.051732	0.488827
C105	C	1.332523	-0.088845	0.401983
H106	H	1.396661	-0.046767	0.580656
H107	H	1.498802	-0.111747	0.483829
H108	H	1.449652	0.028508	0.460907
H109	H	1.309894	-0.169090	0.429893
H110	H	1.260726	-0.028843	0.406989
H111	H	1.162188	0.507508	0.630672
O112	O	1.652019	0.018216	0.358015
C113	C	1.633866	0.036396	0.215602
H114	H	1.587668	0.135774	0.196004
H115	H	1.570382	-0.035350	0.174695
C116	C	1.818943	-0.103126	0.165842
C117	C	1.762210	0.018935	0.141770
H118	H	1.898110	-0.113902	0.120296
H119	H	1.831171	-0.115379	0.261788
H120	H	1.766027	-0.162901	0.131752
H121	H	1.815119	0.078706	0.175875
H122	H	1.749994	0.031198	0.045828
H123	H	1.478775	-0.552900	-0.249132
H124	H	1.481953	-0.434061	-0.475181
H125	H	1.491432	-0.077494	-0.249130
H126	H	1.315814	0.354016	0.761176
