data_functionalizedCrystal
_audit_creation_method	'MofGen! by Chris Wilmer'
_symmetry_space_group_name_H-M	'P1'
_symmetry_Int_Tables_number	1
_symmetry_cell_setting	triclinic
loop_
_symmetry_equiv_pos_as_xyz
  x,y,z
_cell_length_a	18.050591
_cell_length_b	12.759399
_cell_length_c	12.759386
_cell_angle_alpha	89.937142
_cell_angle_beta	89.949676
_cell_angle_gamma	90.011122
loop_
_atom_site_label
_atom_site_type_symbol
_atom_site_fract_x
_atom_site_fract_y
_atom_site_fract_z
Zn1	Zn	1.135576	-0.417996	-0.594237
Zn2	Zn	1.135451	-0.593809	-0.418556
Zn3	Zn	1.011331	-0.418133	-0.418548
Zn4	Zn	1.011371	-0.593621	-0.594169
O5	O	1.073432	-0.505890	-0.506377
O6	O	1.239484	-0.441339	-0.570964
O7	O	1.118917	-0.570642	-0.271533
O8	O	1.027848	-0.271094	-0.441879
O9	O	1.239392	-0.570509	-0.441892
O10	O	1.119130	-0.270993	-0.570957
O11	O	1.027727	-0.441573	-0.271528
O12	O	0.907412	-0.441390	-0.441813
O13	O	1.027916	-0.570188	-0.741199
O14	O	0.907441	-0.570321	-0.570841
O15	O	1.119169	-0.441157	-0.741249
O16	O	1.118956	-0.740806	-0.441826
O17	O	1.027795	-0.740667	-0.570848
C18	C	1.073387	-0.778857	-0.506353
C19	C	1.073435	-0.895634	-0.506378
C20	C	0.880480	-0.505851	-0.506319
C21	C	0.797934	-0.505859	-0.506319
C22	C	1.120957	-0.950533	-0.439273
C23	C	1.121005	-1.060257	-0.439308
C24	C	1.026003	-1.060173	-0.573557
C25	C	1.025959	-0.950451	-0.573527
C26	C	1.208653	-1.210165	-0.401937
C27	C	1.256168	-1.265068	-0.334815
C28	C	1.267565	-1.229586	-0.232307
C29	C	1.231437	-1.139203	-0.196900
C30	C	1.183916	-1.084306	-0.264017
C31	C	1.172533	-1.119786	-0.366539
C32	C	0.938310	-0.800541	-0.610887
C33	C	0.890785	-0.745642	-0.677998
C34	C	0.879380	-0.781122	-0.780508
C35	C	0.915495	-0.871508	-0.815912
C36	C	0.963020	-0.926407	-0.748800
C37	C	0.974427	-0.890920	-0.646291
C38	C	0.598446	-0.435665	-0.436315
C39	C	0.549033	-0.531510	-0.410466
C40	C	0.646804	-0.505891	-0.506367
C41	C	0.549136	-0.410080	-0.532214
C42	C	0.500819	-0.505913	-0.506411
C43	C	0.598478	-0.601786	-0.480467
C44	C	0.598585	-0.480291	-0.602260
C45	C	0.549194	-0.576202	-0.576446
C46	C	0.730902	-0.505877	-0.506339
C47	C	0.416723	-0.505939	-0.506439
C48	C	1.267138	-0.505930	-0.506436
C49	C	1.349684	-0.505947	-0.506461
C50	C	1.073561	-0.505636	-0.780411
C51	C	1.073616	-0.505528	-0.897188
C52	C	1.073498	-0.231857	-0.506424
C53	C	1.073526	-0.115080	-0.506444
C54	C	1.073347	-0.506067	-0.233410
C55	C	1.073436	-0.505879	-0.116633
C56	C	1.025658	-0.439085	-0.061818
C57	C	1.025749	-0.438906	0.047906
C58	C	1.121399	-0.572325	0.047989
C59	C	1.121311	-0.572497	-0.061733
C60	C	0.998728	-0.315036	0.197603
C61	C	0.950939	-0.248252	0.252422
C62	C	0.878368	-0.232909	0.216977
C63	C	0.853573	-0.284366	0.126714
C64	C	0.901359	-0.351159	0.071901
C65	C	0.973939	-0.366481	0.107344
C66	C	1.148324	-0.696369	-0.211432
C67	C	1.196107	-0.763167	-0.266247
C68	C	1.268678	-0.778521	-0.230804
C69	C	1.293471	-0.727082	-0.140539
C70	C	1.245688	-0.660284	-0.085723
C71	C	1.173118	-0.644928	-0.121174
H72	H	1.159616	-0.905903	-0.384598
O73	O	1.371739	-0.743700	-0.102303
H74	H	1.370397	-0.776983	-0.021916
O75	O	1.320220	-0.850568	-0.289924
H76	H	1.290792	-0.883761	-0.358647
H77	H	0.527704	-0.635668	-0.635705
O78	O	0.627468	-0.451568	-0.709613
H79	H	0.580111	-0.436499	-0.762970
H80	H	0.527423	-0.329054	-0.554021
H81	H	0.620061	-0.682846	-0.458534
H82	H	0.840679	-0.736413	-0.835149
H83	H	0.986678	-0.384836	-0.106515
H84	H	0.947599	-0.771639	-0.527417
H85	H	1.175915	-0.805051	-0.339747
O86	O	0.874631	-0.406652	-0.025453
H87	H	0.816138	-0.384762	-0.040897
O88	O	0.775297	-0.267824	0.088484
H89	H	0.746236	-0.212728	0.141758
H90	H	1.057823	-0.327512	0.226464
O91	O	1.173028	-0.644185	0.107201
H92	H	1.165058	-0.632854	0.192707
H93	H	0.861383	-0.672040	-0.649167
O94	O	1.243730	-1.100942	-0.086330
H95	H	1.210622	-1.028877	-0.072986
H96	H	1.306254	-1.274295	-0.177656
H97	H	0.906209	-0.900396	-0.899384
H98	H	0.839458	-0.178530	0.261618
H99	H	0.971134	-0.206355	0.325914
H100	H	0.527269	-0.553180	-0.329389
H101	H	1.154503	-1.010717	-0.235190
O102	O	1.272426	-0.604788	0.011631
H103	H	1.330921	-0.626677	0.027067
H104	H	0.620073	-0.376342	-0.377011
O105	O	1.295138	-1.362548	-0.372995
H106	H	1.330558	-1.342560	-0.441306
O107	O	1.196341	-1.248451	-0.512495
H108	H	1.229428	-1.320537	-0.525823
O109	O	1.070046	-0.679806	-0.249658
H110	H	1.060830	-0.726811	-0.321623
H111	H	0.987348	-1.104819	-0.628226
H112	H	0.992430	-1.000002	-0.777635
