data_functionalizedCrystal
_audit_creation_method	'MofGen! by Chris Wilmer'
_symmetry_space_group_name_H-M	'P1'
_symmetry_Int_Tables_number	1
_symmetry_cell_setting	triclinic
loop_
_symmetry_equiv_pos_as_xyz
  x,y,z
_cell_length_a	14.908783
_cell_length_b	18.050589
_cell_length_c	14.908308
_cell_angle_alpha	86.730870
_cell_angle_beta	89.788727
_cell_angle_gamma	86.674230
loop_
_atom_site_label
_atom_site_type_symbol
_atom_site_fract_x
_atom_site_fract_y
_atom_site_fract_z
Zn1	Zn	1.345235	0.259755	-0.587845
Zn2	Zn	1.353780	0.376409	-0.437491
Zn3	Zn	1.203549	0.258952	-0.428816
Zn4	Zn	1.194801	0.390630	-0.579114
O5	O	1.274341	0.321436	-0.508316
O6	O	1.472198	0.269614	-0.575184
O7	O	1.341088	0.354540	-0.310517
O8	O	1.222428	0.155131	-0.449934
O9	O	1.478476	0.355319	-0.464721
O10	O	1.326525	0.155721	-0.566772
O11	O	1.230714	0.268245	-0.304143
O12	O	1.076559	0.282034	-0.441469
O13	O	1.207520	0.379557	-0.706096
O14	O	1.070132	0.378777	-0.551892
O15	O	1.318043	0.283404	-0.712510
O16	O	1.332606	0.482223	-0.456255
O17	O	1.215805	0.492671	-0.560304
C18	C	1.040719	0.331862	-0.494792
C19	C	0.940773	0.336342	-0.489027
C20	C	0.746416	0.255653	-0.593397
C21	C	0.652507	0.259859	-0.587984
C22	C	0.659048	0.348956	-0.472784
C23	C	0.752956	0.344750	-0.478197
C24	C	0.796636	0.298098	-0.538507
C25	C	0.890546	0.293896	-0.543924
C26	C	0.897085	0.382988	-0.428720
C27	C	0.803176	0.387194	-0.423306
C28	C	1.274207	0.514394	-0.508294
C29	C	1.274230	0.596940	-0.508320
C30	C	1.210747	0.802097	-0.564884
C31	C	1.193559	0.848398	-0.481571
C32	C	1.274297	0.748068	-0.508336
C33	C	1.291509	0.848847	-0.591660
C34	C	1.274360	0.894051	-0.508359
C35	C	1.257069	0.793281	-0.424977
C36	C	1.355054	0.793728	-0.535125
C37	C	1.337900	0.840002	-0.451757
C38	C	1.274259	0.663971	-0.508324
C39	C	1.274399	0.978146	-0.508362
C40	C	1.508875	0.310970	-0.521894
C41	C	1.608820	0.306510	-0.527680
C42	C	1.260852	0.333156	-0.742840
C43	C	1.255104	0.338151	-0.842779
C44	C	1.274465	1.127727	-0.508359
C45	C	1.274429	1.045183	-0.508374
C46	C	1.359388	0.247395	-1.037258
C47	C	1.353990	0.252085	-1.131160
C48	C	1.238906	0.352217	-1.124489
C49	C	1.244304	0.347527	-1.030586
C50	C	1.304548	0.295115	-0.986974
C51	C	1.309950	0.290429	-0.893070
C52	C	1.194862	0.390557	-0.886400
C53	C	1.189464	0.395247	-0.980302
C54	C	1.287829	0.309706	-0.274709
C55	C	1.293752	0.304495	-0.174779
H56	H	0.937984	0.417555	-0.384031
H57	H	0.781981	0.217671	-0.642508
O58	O	1.141673	0.437017	-0.837602
C59	C	1.159929	0.511306	-0.861692
H60	H	1.230278	0.513138	-0.891658
H61	H	1.155700	0.545262	-0.799486
H62	H	1.108574	0.535590	-0.913410
O63	O	1.180257	0.403048	-1.166808
C64	C	1.091975	0.389682	-1.138653
H65	H	1.088971	0.329265	-1.112583
H66	H	1.043990	0.401143	-1.197831
H67	H	1.071577	0.427828	-1.082780
H68	H	1.391673	0.856693	-0.403888
H69	H	1.156942	0.785264	-0.612628
H70	H	0.926109	0.255910	-0.593032
O71	O	0.603857	0.218606	-0.641400
C72	C	0.662553	0.176516	-0.695772
H73	H	0.729301	0.204093	-0.702681
H74	H	0.631368	0.173437	-0.765068
H75	H	0.674452	0.117984	-0.663534
O76	O	1.112186	0.877068	-0.454524
C77	C	1.113610	0.955084	-0.454152
H78	H	1.185933	0.971458	-0.447896
H79	H	1.072667	0.975623	-0.394820
H80	H	1.083379	0.981255	-0.519438
O81	O	1.436432	0.765203	-0.562330
C82	C	1.454293	0.793611	-0.650235
H83	H	1.388320	0.812311	-0.685286
H84	H	1.490732	0.748484	-0.689372
H85	H	1.498267	0.843006	-0.647129
H86	H	0.767599	0.425174	-0.374201
H87	H	0.623467	0.386929	-0.423673
H88	H	1.306042	0.873153	-0.662118
O89	O	1.239604	0.764282	-0.340955
C90	C	1.239766	0.686216	-0.341960
H91	H	1.225579	0.669795	-0.413018
H92	H	1.185612	0.665028	-0.294495
H93	H	1.308236	0.660699	-0.319181
O94	O	1.368368	0.239416	-0.850739
C95	C	1.347459	0.167424	-0.872582
H96	H	1.274143	0.168178	-0.894237
H97	H	1.358781	0.127300	-0.811285
H98	H	1.392545	0.148579	-0.929884
O99	O	1.417929	0.196424	-0.995029
C100	C	1.465198	0.155325	-1.059549
H101	H	1.424523	0.157738	-1.124356
H102	H	1.476399	0.095028	-1.032982
H103	H	1.532892	0.179975	-1.073482
O104	O	1.407131	0.205658	-1.180038
C105	C	1.352850	0.162704	-1.231417
H106	H	1.283660	0.159870	-1.199023
H107	H	1.385351	0.104148	-1.234372
H108	H	1.345647	0.189357	-1.302402
O109	O	1.131074	0.446232	-1.022719
C110	C	1.179109	0.494611	-1.080010
H111	H	1.251552	0.494619	-1.055809
H112	H	1.146486	0.553272	-1.079186
H113	H	1.178130	0.475062	-1.151359
