data_functionalizedCrystal
_audit_creation_method	'MofGen! by Chris Wilmer'
_symmetry_space_group_name_H-M	'P1'
_symmetry_Int_Tables_number	1
_symmetry_cell_setting	triclinic
loop_
_symmetry_equiv_pos_as_xyz
  x,y,z
_cell_length_a	8.597366
_cell_length_b	17.699083
_cell_length_c	16.176319
_cell_angle_alpha	90.007696
_cell_angle_beta	97.694587
_cell_angle_gamma	95.685316
loop_
_atom_site_label
_atom_site_type_symbol
_atom_site_fract_x
_atom_site_fract_y
_atom_site_fract_z
O1	O	2.081957	-0.112952	0.079546
O2	O	2.581957	0.387048	0.579546
O3	O	1.625002	-0.121620	0.046996
O4	O	2.125002	0.378380	0.546996
O5	O	1.866390	-0.007204	0.064198
O6	O	2.366390	0.492796	0.564198
O7	O	1.840569	-0.227368	0.062344
O8	O	2.340569	0.272632	0.562344
O9	O	1.866356	-0.007196	0.201689
O10	O	2.366356	0.492804	0.701689
O11	O	1.624969	-0.121613	0.184487
O12	O	2.124969	0.378387	0.684487
O13	O	2.081924	-0.112944	0.217037
O14	O	2.581924	0.387056	0.717037
Cu15	Cu	1.853443	-0.117278	0.213316
Cu16	Cu	2.353443	0.382722	0.713316
Cu17	Cu	1.853483	-0.117287	0.050717
Cu18	Cu	2.353483	0.382713	0.550717
O19	O	1.840536	-0.227361	0.199835
O20	O	2.340536	0.272639	0.699835
C21	C	1.566519	-0.120686	0.111577
C22	C	2.066519	0.379314	0.611577
C23	C	1.392308	-0.117905	0.099168
C24	C	1.892308	0.382095	0.599168
C25	C	1.865448	0.021005	0.132878
C26	C	2.365448	0.521005	0.632878
C27	C	1.862672	0.105046	0.132680
C28	C	2.362672	0.605046	0.632680
C29	C	2.140407	-0.113878	0.152454
C30	C	2.640407	0.386122	0.652454
C31	C	2.314618	-0.116659	0.164858
C32	C	2.814618	0.383341	0.664858
C33	C	1.841478	-0.255569	0.131153
C34	C	2.341478	0.244431	0.631153
C35	C	1.844254	-0.339610	0.131345
C36	C	2.344254	0.160390	0.631345
C37	C	2.004362	0.152494	0.142774
C38	C	2.504362	0.652494	0.642774
C39	C	2.001744	0.231459	0.142580
C40	C	2.501744	0.731459	0.642580
C41	C	1.857436	0.262974	0.132298
C42	C	2.357436	0.762974	0.632298
C43	C	1.715736	0.215520	0.122201
C44	C	2.215736	0.715520	0.622201
C45	C	1.718355	0.136557	0.122389
C46	C	2.218355	0.636557	0.622389
C47	C	1.705171	0.533971	0.121442
C48	C	2.205171	1.033971	0.621442
C49	C	1.702563	0.612941	0.121257
C50	C	2.202563	1.112941	0.621257
C51	C	1.988560	0.628873	0.141633
C52	C	2.488560	1.128873	0.641633
C53	C	1.991179	0.549909	0.141821
C54	C	2.491179	1.049909	0.641821
C55	C	1.849480	0.502462	0.131720
C56	C	2.349480	1.002462	0.631720
C57	C	1.852320	0.416839	0.131928
C58	C	2.352320	0.916839	0.631928
C59	C	1.854595	0.348595	0.132096
C60	C	2.354595	0.848595	0.632096
N61	N	1.853427	-0.117271	0.327680
N62	N	2.353427	0.382729	0.827680
N63	N	1.853511	-0.117288	-0.063646
N64	N	2.353511	0.382712	0.436354
C65	C	1.960346	-0.066628	0.378563
C66	C	2.460346	0.433372	0.878563
C67	C	1.960354	-0.066628	0.465111
C68	C	2.460354	0.433372	0.965111
C69	C	1.853449	-0.117274	0.500774
C70	C	2.353449	0.382726	1.000774
C71	C	1.746520	-0.167918	0.449884
C72	C	2.246520	0.332082	0.949884
C73	C	1.746505	-0.167915	0.363337
C74	C	2.246505	0.332085	0.863337
C75	C	1.746573	-0.167933	0.798916
C76	C	2.246573	0.332067	1.298916
C77	C	1.746599	-0.167934	0.885469
C78	C	2.246599	0.332066	1.385469
C79	C	1.960421	-0.066646	0.900690
C80	C	2.460421	0.433354	1.400690
C81	C	1.960407	-0.066642	0.814143
C82	C	2.460407	0.433358	1.314143
C83	C	1.853473	-0.117284	0.763260
C84	C	2.353473	0.382716	1.263260
C85	C	1.853463	-0.117283	0.669415
C86	C	2.353463	0.382717	1.169415
C87	C	1.853465	-0.117279	0.594618
C88	C	2.353465	0.382721	1.094618
H89	H	2.121874	0.126840	0.151152
H90	H	2.621874	0.626840	0.651152
F91	F	2.074138	-0.012726	0.340617
F92	F	2.574138	0.487274	0.840617
F93	F	1.632772	-0.221831	0.744769
F94	F	2.132772	0.278169	1.244769
H95	H	1.598237	0.241187	0.113824
H96	H	2.098237	0.741187	0.613824
F97	F	1.305049	-0.116508	0.013240
F98	F	1.805049	0.383492	0.513240
F99	F	1.632735	-0.221817	0.487839
F100	F	2.132735	0.278183	0.987839
H101	H	2.047413	-0.025390	0.506540
H102	H	2.547413	0.474610	1.006540
F103	F	1.401886	-0.118045	0.250790
F104	F	1.901886	0.381955	0.750790
H105	H	2.117122	0.270088	0.150802
H106	H	2.617122	0.770088	0.650802
H107	H	1.659539	-0.209178	0.914503
H108	H	2.159539	0.290822	1.414503
F109	F	2.144771	0.516373	0.152764
F110	F	2.644771	1.016373	0.652764
F111	F	2.139371	0.679376	0.152381
F112	F	2.639371	1.179376	0.652381
H113	H	2.047464	-0.025404	0.785110
H114	H	2.547464	0.474596	1.285110
H115	H	1.585043	0.638597	0.112886
H116	H	2.085043	1.138597	0.612886
H117	H	1.589790	0.495349	0.113217
H118	H	2.089790	0.995349	0.613217
H119	H	2.047489	-0.025408	0.942128
H120	H	2.547489	0.474592	1.442128
F121	F	1.632703	-0.221814	0.309184
F122	F	2.132703	0.278186	0.809184
H123	H	1.602977	0.097925	0.114169
H124	H	2.102977	0.597925	0.614169
