data_functionalizedCrystal
_audit_creation_method	'MofGen! by Chris Wilmer'
_symmetry_space_group_name_H-M	'P1'
_symmetry_Int_Tables_number	1
_symmetry_cell_setting	triclinic
loop_
_symmetry_equiv_pos_as_xyz
  x,y,z
_cell_length_a	11.026607
_cell_length_b	14.519709
_cell_length_c	10.065875
_cell_angle_alpha	98.804604
_cell_angle_beta	79.302338
_cell_angle_gamma	96.133081
loop_
_atom_site_label
_atom_site_type_symbol
_atom_site_fract_x
_atom_site_fract_y
_atom_site_fract_z
O1	O	1.628737	0.375708	-0.113512
O2	O	2.128737	0.875708	0.386488
O3	O	1.275335	0.331718	-0.113511
O4	O	1.775335	0.831718	0.386489
O5	O	1.461404	0.221020	-0.113499
O6	O	1.961404	0.721020	0.386501
O7	O	1.442668	0.486407	-0.113524
O8	O	1.942668	0.986407	0.386476
O9	O	1.425923	0.242237	0.113487
O10	O	1.925923	0.742237	0.613487
O11	O	1.239855	0.352935	0.113475
O12	O	1.739855	0.852935	0.613475
O13	O	1.593256	0.396926	0.113475
O14	O	2.093256	0.896926	0.613475
Zn15	Zn	1.410922	0.378299	0.149514
Zn16	Zn	1.910922	0.878299	0.649514
Zn17	Zn	1.457669	0.350345	-0.149550
Zn18	Zn	1.957669	0.850345	0.350450
O19	O	1.407187	0.507624	0.113463
O20	O	1.907187	1.007624	0.613463
C21	C	1.212366	0.334211	-0.000018
C22	C	1.712366	0.834211	0.499982
C23	C	1.077600	0.310019	-0.000017
C24	C	1.577600	0.810019	0.499983
C25	C	1.442790	0.197125	-0.000006
C26	C	1.942790	0.697125	0.499994
C27	C	1.440173	0.094312	-0.000005
C28	C	1.940173	0.594312	0.499995
C29	C	1.003940	0.376818	-0.000024
C30	C	1.503940	0.876818	0.499976
C31	C	0.864652	0.351815	-0.000024
C32	C	1.364652	0.851815	0.499976
C33	C	1.430544	-0.282174	-0.000040
C34	C	1.930544	0.217826	0.499960
C35	C	1.433218	-0.177425	-0.000030
C36	C	1.933218	0.322575	0.499970
C37	C	1.435358	-0.093934	-0.000021
C38	C	1.935358	0.406066	0.499979
C39	C	1.438033	0.010822	-0.000014
C40	C	1.938033	0.510822	0.499986
C41	C	1.656225	0.394432	-0.000022
C42	C	2.156225	0.894432	0.499978
C43	C	1.790993	0.418624	-0.000031
C44	C	2.290993	0.918624	0.499969
C45	C	1.425802	0.531519	-0.000034
C46	C	1.925802	1.031519	0.499966
C47	C	1.428420	0.634330	-0.000043
C48	C	1.928420	1.134330	0.499957
N49	N	1.379027	0.397378	0.353617
N50	N	1.879027	0.897378	0.853617
N51	N	1.489574	0.331260	-0.353654
N52	N	1.989574	0.831260	0.146346
C53	C	1.446564	0.356976	0.421401
C54	C	1.946564	0.856976	0.921401
C55	C	1.422027	0.371668	0.578566
C56	C	1.922027	0.871668	1.078566
H57	H	1.043996	0.452517	-0.000024
H58	H	1.543996	0.952517	0.499976
H59	H	0.824606	0.276108	-0.000052
H60	H	1.324606	0.776108	0.499948
C61	C	0.972575	0.525810	-0.000087
C62	C	1.472575	1.025810	0.499913
C63	C	0.845052	0.520821	-0.000073
C64	C	1.345052	1.020821	0.499927
H65	H	1.005948	0.588900	-0.000130
H66	H	1.505948	1.088900	0.499870
H67	H	0.986767	0.503380	0.079077
H68	H	1.486767	1.003380	0.579077
H69	H	1.011496	0.488543	-0.079234
H70	H	1.511496	0.988543	0.420766
H71	H	0.806129	0.558082	0.079080
H72	H	1.306129	1.058082	0.579080
H73	H	0.830850	0.543262	-0.079245
H74	H	1.330850	1.043262	0.420755
C75	C	0.896019	0.202836	-0.000020
C76	C	1.396019	0.702836	0.499980
C77	C	1.023539	0.207824	-0.000015
C78	C	1.523539	0.707824	0.499985
H79	H	0.862652	0.139742	-0.000028
H80	H	1.362652	0.639742	0.499972
H81	H	0.857089	0.240077	0.079130
H82	H	1.357089	0.740077	0.579130
H83	H	0.881838	0.225293	-0.079181
H84	H	1.381838	0.725293	0.420819
H85	H	1.037720	0.185373	0.079152
H86	H	1.537720	0.685373	0.579152
H87	H	1.062482	0.170569	-0.079173
H88	H	1.562482	0.670569	0.420827
H89	H	1.565562	0.285786	0.588030
H90	H	2.065562	0.785786	1.088030
H91	H	1.522548	0.311504	0.363081
H92	H	2.022548	0.811504	0.863081
C93	C	1.344759	0.523823	0.622823
C94	C	1.844759	1.023823	1.122823
C95	C	1.319434	0.433051	0.657275
C96	C	1.819434	0.933051	1.157275
H97	H	1.281418	0.561713	0.671410
H98	H	1.781418	1.061713	1.171410
H99	H	1.422220	0.549326	0.646166
H100	H	1.922220	1.049326	1.146166
H101	H	1.347793	0.521990	0.527529
H102	H	1.847793	1.021990	1.027529
H103	H	1.316410	0.434882	0.752568
H104	H	1.816410	0.934882	1.252568
H105	H	1.241952	0.407542	0.633942
H106	H	1.741952	0.907542	1.133942
C107	C	1.162252	0.421139	0.397931
C108	C	1.662252	0.921139	0.897931
C109	C	1.276440	0.458755	0.432339
C110	C	1.776440	0.958755	0.932339
H111	H	1.098919	0.459030	0.446536
H112	H	1.598919	0.959030	0.946536
H113	H	1.165290	0.419327	0.302652
H114	H	1.665290	0.919327	0.802652
H115	H	1.145099	0.359554	0.421293
H116	H	1.645099	0.859554	0.921293
H117	H	1.293598	0.520339	0.408968
H118	H	1.793598	1.020339	0.908968
H119	H	1.273404	0.460578	0.527639
H120	H	1.773404	0.960578	1.027639
