data_functionalizedCrystal
_audit_creation_method	'MofGen! by Chris Wilmer'
_symmetry_space_group_name_H-M	'P1'
_symmetry_Int_Tables_number	1
_symmetry_cell_setting	triclinic
loop_
_symmetry_equiv_pos_as_xyz
  x,y,z
_cell_length_a	19.851628
_cell_length_b	14.560432
_cell_length_c	14.560432
_cell_angle_alpha	90.001728
_cell_angle_beta	60.004283
_cell_angle_gamma	59.997764
loop_
_atom_site_label
_atom_site_type_symbol
_atom_site_fract_x
_atom_site_fract_y
_atom_site_fract_z
Zr1	Zr	0.737318	-0.120548	0.884838
O2	O	0.877849	-0.267207	0.738203
O3	O	0.596787	-0.075583	0.929781
O4	O	0.737315	-0.267193	0.929794
O5	O	0.737324	0.075540	0.738190
O6	O	0.737313	-0.267189	1.080935
O7	O	0.737321	-0.075597	0.738190
O8	O	0.485934	0.075565	1.080911
O9	O	0.988703	-0.267214	0.738214
O10	O	0.654588	-0.056411	1.061754
O11	O	0.654592	0.056378	0.948959
O12	O	0.820046	-0.169217	0.948975
O13	O	0.820049	-0.056428	0.836180
Zr14	Zr	0.737320	0.120505	1.125890
Zr15	Zr	0.737315	-0.120542	1.125891
Zr16	Zr	0.737323	0.120499	0.884838
Zr17	Zr	0.914118	-0.120560	0.884855
Zr18	Zr	0.560520	0.120516	1.125874
O19	O	0.877851	0.075540	1.080948
O20	O	0.877845	-0.267198	1.080948
O21	O	0.877856	0.075531	0.738203
O22	O	0.596789	0.267163	1.272526
O23	O	0.596782	-0.075575	1.272526
O24	O	0.596793	0.267155	0.929780
O25	O	0.737314	-0.075584	1.272539
O26	O	0.737323	0.267149	1.080935
O27	O	0.737325	0.267145	0.929794
O28	O	0.737317	0.075554	1.272539
O29	O	0.988701	-0.267209	0.929818
O30	O	0.485937	0.267166	1.080911
O31	O	0.485935	0.267171	1.272515
O32	O	0.485931	0.075570	1.272515
O33	O	0.988707	-0.075614	0.738214
O34	O	0.988704	-0.075609	0.929818
O35	O	0.654592	0.169174	1.061754
O36	O	0.654589	0.056384	1.174549
O37	O	0.820046	-0.056422	1.061770
O38	O	0.820050	0.056368	0.948975
C39	C	0.516170	-0.000007	1.005343
C40	C	0.441114	-0.000003	1.005336
C41	C	0.737323	-0.000029	0.703845
C42	C	0.737324	-0.000032	0.601512
C43	C	0.737325	0.301491	1.005364
C44	C	0.737327	0.403822	1.005364
C45	C	0.259757	0.061485	0.943855
C46	C	0.270094	-0.044578	0.899284
C47	C	0.303694	-0.000018	1.005354
C48	C	0.159642	0.106019	1.049891
C49	C	0.170949	-0.000024	1.005371
C50	C	0.315065	-0.106143	0.960722
C51	C	0.204567	0.044529	1.111387
C52	C	0.214938	-0.061597	1.066843
C53	C	0.380165	-0.000013	1.005342
C54	C	0.094484	-0.000040	1.005382
C55	C	0.958468	-0.000036	1.005386
C56	C	1.033524	-0.000041	1.005393
C57	C	0.737313	-0.301535	1.005364
C58	C	0.737311	-0.403866	1.005365
C59	C	0.910066	0.286069	0.887633
C60	C	0.996433	0.275269	0.828772
C61	C	0.996429	0.371422	0.828775
C62	C	0.910049	0.478382	0.887641
C63	C	0.823682	0.489182	0.946502
C64	C	0.823695	0.393021	0.946496
C65	C	0.650945	0.606934	1.064225
C66	C	0.650947	0.510783	1.064231
C67	C	0.564565	0.713895	1.123091
C68	C	0.478196	0.724696	1.181960
C69	C	0.478204	0.628535	1.181956
C70	C	0.564580	0.521583	1.123091
C71	C	0.737332	-0.166573	0.601487
C72	C	0.737340	-0.249842	0.553398
C73	C	0.737340	-0.249839	0.457248
C74	C	0.737329	-0.166554	0.409188
C75	C	0.737322	-0.083285	0.457277
C76	C	0.737325	-0.083299	0.553427
C77	C	0.737307	0.083259	0.457306
C78	C	0.737313	0.083252	0.553451
C79	C	0.737296	0.166543	0.409246
C80	C	0.737295	0.249810	0.457330
C81	C	0.737297	0.249802	0.553485
C82	C	0.737306	0.166522	0.601541
C83	C	0.737315	-0.000014	1.306884
C84	C	0.737314	-0.000011	1.409217
C85	C	0.516166	0.000000	1.306863
C86	C	0.441109	0.000008	1.409189
C87	C	0.516176	0.301506	1.005343
C88	C	0.441122	0.403841	1.005336
C89	C	0.516172	0.301514	1.306863
C90	C	0.441117	0.403852	1.409189
C91	C	0.958466	-0.301557	0.703866
C92	C	1.033521	-0.403895	0.601540
C93	C	0.958472	-0.000044	0.703866
C94	C	1.033529	-0.000051	0.601540
C95	C	0.958462	-0.301549	1.005386
C96	C	1.033516	-0.403885	1.005393
C97	C	0.405861	-0.058877	1.398364
C98	C	0.335346	-0.058892	1.494501
C99	C	0.300077	-0.000016	1.601461
C100	C	0.335332	0.058871	1.612283
C101	C	0.405850	0.058879	1.516148
C102	C	0.405876	0.510787	1.064210
C103	C	0.335365	0.606952	1.064199
C104	C	0.300095	0.596168	1.005320
C105	C	0.335348	0.489211	0.946438
C106	C	0.405863	0.393049	0.946443
C107	C	0.405868	0.393036	1.516130
C108	C	0.335356	0.489185	1.612285
C109	C	0.300088	0.596148	1.601496
C110	C	0.335344	0.606961	1.494544
C111	C	0.405860	0.510814	1.398391
C112	C	1.068779	-0.393079	0.494599
C113	C	1.139313	-0.489228	0.398444
C114	C	1.174584	-0.596191	0.409232
C115	C	1.139324	-0.607005	0.516185
C116	C	1.068796	-0.510857	0.612337
C117	C	1.068784	0.058823	0.612364
C118	C	1.139318	0.058812	0.516228
C119	C	1.174591	-0.000068	0.409268
C120	C	1.139332	-0.058949	0.398445
C121	C	1.068805	-0.058944	0.494581
C122	C	1.068763	-0.393065	1.064284
C123	C	1.139275	-0.489211	1.064312
C124	C	1.174544	-0.596176	1.005443
C125	C	1.139290	-0.606994	0.946550
C126	C	1.068775	-0.510849	0.946529
H127	H	0.279502	0.113416	0.891779
Cl128	Cl	0.737279	0.354497	0.613937
H129	H	0.434584	0.519590	1.112157
Cl130	Cl	0.290997	0.475673	0.872427
Cl131	Cl	0.564597	0.400696	1.123088
H132	H	0.306618	0.694064	1.485777
Cl133	Cl	0.450158	0.524431	1.263955
Cl134	Cl	0.311724	-0.102764	0.760851
Cl135	Cl	1.263248	-0.717053	0.288342
H136	H	0.434573	0.305950	1.524935
Cl137	Cl	0.291045	0.475565	1.746725
Cl138	Cl	0.450158	0.258606	0.872430
Cl139	Cl	0.417575	-0.244664	0.902419
Cl140	Cl	1.183681	-0.132959	0.263972
Cl141	Cl	0.211436	0.717010	1.722387
H142	H	1.040084	-0.519674	0.898568
Cl143	Cl	0.737311	-0.166538	0.288326
Cl144	Cl	0.184763	-0.142010	1.147132
H145	H	0.306670	0.694031	1.112152
Cl146	Cl	0.162957	0.102754	1.249793
H147	H	0.242678	0.674478	1.005325
Cl148	Cl	1.105004	0.357847	0.754780
H149	H	0.093213	0.195695	1.087548
Cl150	Cl	1.024452	-0.258623	0.481007
Cl151	Cl	0.910046	0.599259	0.887627
H152	H	1.040102	-0.106884	0.485752
H153	H	1.040090	-0.519677	0.699411
H154	H	0.564567	0.792183	1.123084
Cl155	Cl	1.183672	-0.741482	0.529728
H156	H	1.168010	-0.480401	0.311368
H157	H	1.040071	0.106778	0.699448
H158	H	1.168014	0.106765	0.525061
H159	H	0.737290	0.166546	0.330960
Cl160	Cl	1.263254	-0.000060	0.288421
H161	H	1.040058	-0.305977	1.112222
Cl162	Cl	0.291036	-0.132921	1.480870
H163	H	1.167971	-0.480381	1.112268
Cl164	Cl	1.263196	-0.717034	1.005477
H165	H	0.910078	0.207771	0.887639
Cl166	Cl	1.105019	0.140804	0.754763
H167	H	0.407872	0.811786	1.229878
Cl168	Cl	0.369621	0.642125	1.255950
Cl169	Cl	1.183647	-0.741473	0.872536
H170	H	0.737344	-0.166592	0.679770
H171	H	0.737346	-0.317650	0.592539
Cl172	Cl	0.737342	-0.354517	0.396797
H173	H	0.434577	-0.106835	1.311281
H174	H	0.242655	-0.000031	1.679732
Cl175	Cl	0.737274	0.354505	0.396915
H176	H	0.737312	0.166505	0.679827
H177	H	0.306604	0.106805	1.699383
H178	H	0.434540	0.106836	1.524977
