data_functionalizedCrystal
_audit_creation_method	'MofGen! by Chris Wilmer'
_symmetry_space_group_name_H-M	'P1'
_symmetry_Int_Tables_number	1
_symmetry_cell_setting	triclinic
loop_
_symmetry_equiv_pos_as_xyz
  x,y,z
_cell_length_a	25.639242
_cell_length_b	25.639242
_cell_length_c	25.639233
_cell_angle_alpha	90.023596
_cell_angle_beta	89.994437
_cell_angle_gamma	89.998001
loop_
_atom_site_label
_atom_site_type_symbol
_atom_site_fract_x
_atom_site_fract_y
_atom_site_fract_z
Zn1	Zn	-0.208284	-0.799340	-0.295810
Zn2	Zn	-0.295702	-0.799312	-0.208395
Zn3	Zn	-0.208275	-0.711917	-0.208372
Zn4	Zn	-0.295682	-0.711910	-0.295782
O5	O	-0.251986	-0.755620	-0.252090
O6	O	-0.219892	-0.872502	-0.284235
O7	O	-0.284110	-0.787710	-0.135226
O8	O	-0.135111	-0.723528	-0.219973
O9	O	-0.284118	-0.872481	-0.220012
O10	O	-0.135117	-0.787758	-0.284213
O11	O	-0.219878	-0.723501	-0.135210
O12	O	-0.219858	-0.638751	-0.219946
O13	O	-0.284084	-0.723517	-0.368951
O14	O	-0.284076	-0.638746	-0.284166
O15	O	-0.219872	-0.787752	-0.368972
O16	O	-0.368865	-0.787704	-0.219985
O17	O	-0.368850	-0.723490	-0.284188
C18	C	-0.251964	-0.619777	-0.252051
C19	C	-0.251967	-0.561663	-0.252047
C20	C	-0.387828	-0.755607	-0.252097
C21	C	-0.445942	-0.755650	-0.252118
C22	C	-0.285475	-0.201307	-0.285484
C23	C	-0.285478	-0.146702	-0.285490
O24	O	-0.313944	-0.118471	-0.313897
N25	N	-0.251995	-0.119381	-0.252108
C26	C	-0.218503	-0.146666	-0.218720
O27	O	-0.190023	-0.118413	-0.190327
C28	C	-0.218498	-0.201270	-0.218716
C29	C	-0.251987	-0.228588	-0.252097
C30	C	-0.318961	-0.228625	-0.318862
C31	C	-0.318959	-0.283226	-0.318855
C32	C	-0.285471	-0.310508	-0.285468
C33	C	-0.251985	-0.283189	-0.252090
C34	C	-0.185004	-0.228554	-0.185332
C35	C	-0.185002	-0.283161	-0.185331
C36	C	-0.218491	-0.310480	-0.218712
C37	C	-0.218495	-0.365071	-0.218696
N38	N	-0.251978	-0.392393	-0.252078
C39	C	-0.285466	-0.365111	-0.285464
C40	C	-0.218515	-0.031996	-0.218732
C41	C	-0.218523	0.022607	-0.218732
C42	C	-0.285497	0.022567	-0.285503
C43	C	-0.285492	-0.032036	-0.285500
C44	C	-0.251998	-0.059317	-0.252114
C45	C	-0.285459	-0.479776	-0.285445
C46	C	-0.285455	-0.534381	-0.285433
C47	C	-0.218480	-0.534337	-0.218664
C48	C	-0.218485	-0.479736	-0.218674
C49	C	-0.251976	-0.452457	-0.252069
O50	O	-0.190042	-0.393337	-0.190305
O51	O	-0.313936	-0.393371	-0.313858
C52	C	-0.115613	-0.755647	-0.252094
C53	C	-0.057499	-0.755658	-0.252096
C54	C	0.193686	-0.789092	-0.285561
C55	C	0.139081	-0.789092	-0.285559
O56	O	0.110837	-0.817518	-0.314014
N57	N	0.111775	-0.755653	-0.252109
C58	C	0.139076	-0.722209	-0.218663
O59	O	0.110836	-0.693766	-0.190212
C60	C	0.193679	-0.722207	-0.218668
C61	C	0.220983	-0.755651	-0.252116
C62	C	0.220989	-0.822534	-0.319006
C63	C	0.275590	-0.822534	-0.319007
C64	C	0.302887	-0.789094	-0.285562
C65	C	0.275583	-0.755652	-0.252117
C66	C	0.220979	-0.688760	-0.185224
C67	C	0.275586	-0.688761	-0.185232
C68	C	0.302890	-0.722205	-0.218680
C69	C	0.357481	-0.722212	-0.218673
N70	N	0.384787	-0.755651	-0.252122
C71	C	0.357490	-0.789092	-0.285567
C72	C	0.024405	-0.722215	-0.218656
C73	C	-0.030197	-0.722219	-0.218649
C74	C	-0.030188	-0.789102	-0.285545
C75	C	0.024415	-0.789100	-0.285550
C76	C	0.051712	-0.755654	-0.252106
C77	C	0.472155	-0.789091	-0.285566
C78	C	0.526760	-0.789090	-0.285563
C79	C	0.526746	-0.722206	-0.218668
C80	C	0.472146	-0.722208	-0.218669
C81	C	0.444852	-0.755653	-0.252123
O82	O	0.385760	-0.693799	-0.190234
O83	O	0.385737	-0.817525	-0.314019
C84	C	-0.251977	-0.755637	-0.388463
C85	C	-0.251973	-0.755644	-0.446577
C86	C	-0.252006	0.108007	-0.252123
C87	C	-0.252009	0.049893	-0.252121
C88	C	-0.218439	-0.789133	-0.806956
C89	C	-0.218424	-0.789140	-0.861561
O90	O	-0.189974	-0.817571	-0.889811
N91	N	-0.251850	-0.755701	-0.888860
C92	C	-0.285289	-0.722251	-0.861551
O93	O	-0.313719	-0.693809	-0.889785
C94	C	-0.285301	-0.722242	-0.806948
C95	C	-0.251876	-0.755686	-0.779652
C96	C	-0.185016	-0.822574	-0.779660
C97	C	-0.185032	-0.822568	-0.725060
C98	C	-0.218469	-0.789121	-0.697755
C99	C	-0.251891	-0.755680	-0.725051
C100	C	-0.318737	-0.688789	-0.779641
C101	C	-0.318745	-0.688783	-0.725034
C102	C	-0.285320	-0.722227	-0.697738
C103	C	-0.285344	-0.722228	-0.643146
N104	N	-0.251918	-0.755666	-0.615847
C105	C	-0.218481	-0.789113	-0.643152
C106	C	-0.285262	-0.722271	-0.976222
C107	C	-0.285254	-0.722282	-1.030824
C108	C	-0.218388	-0.789170	-1.030830
C109	C	-0.218399	-0.789162	-0.976227
C110	C	-0.251836	-0.755709	-0.948923
C111	C	-0.218516	-0.789098	-0.528487
C112	C	-0.218535	-0.789091	-0.473881
C113	C	-0.285399	-0.722201	-0.473880
C114	C	-0.285381	-0.722210	-0.528481
C115	C	-0.251935	-0.755660	-0.555783
O116	O	-0.313779	-0.693809	-0.614861
O117	O	-0.190051	-0.817545	-0.614911
C118	C	-0.251957	-0.755633	-0.116247
C119	C	-0.251814	-0.755727	-0.058134
H120	H	-0.312728	-0.556622	-0.312616
N121	N	-0.319671	-0.451924	-0.319561
N122	N	-0.349564	-0.476331	-0.349359
H123	H	-0.373728	-0.456662	-0.373452
H124	H	-0.157724	-0.305371	-0.158147
H125	H	-0.191181	-0.816394	-0.954006
H126	H	0.046643	-0.816333	-0.312787
H127	H	-0.312493	-0.695030	-0.953995
N128	N	0.193095	-0.654585	-0.151072
N129	N	0.162631	-0.621270	-0.169465
H130	H	0.142936	-0.597130	-0.145345
N131	N	-0.319543	-0.688029	-0.445982
N132	N	-0.316058	-0.639785	-0.452062
H133	H	-0.340170	-0.615647	-0.432357
H134	H	-0.346228	-0.305464	-0.346038
N135	N	0.554658	-0.823256	-0.319723
N136	N	0.603410	-0.823261	-0.319716
H137	H	0.623112	-0.847393	-0.343838
N138	N	0.444272	-0.823249	-0.319735
N139	N	0.413804	-0.804863	-0.353049
H140	H	0.394110	-0.828989	-0.377179
N141	N	0.303467	-0.856700	-0.353178
N142	N	0.279079	-0.886552	-0.383035
H143	H	0.298764	-0.910683	-0.407172
H144	H	-0.312763	0.044790	-0.312690
H145	H	-0.157785	-0.849811	-0.801886
H146	H	-0.312603	-0.694982	-0.550707
H147	H	-0.157813	-0.849801	-0.702840
H148	H	0.198770	-0.849765	-0.346244
N149	N	-0.058085	-0.823261	-0.319704
N150	N	-0.106837	-0.823253	-0.319692
H151	H	-0.126542	-0.847377	-0.343814
N152	N	-0.353172	-0.200771	-0.352974
N153	N	-0.383063	-0.225180	-0.382772
H154	H	-0.407229	-0.205512	-0.406865
N155	N	-0.184280	-0.451836	-0.184569
N156	N	-0.154384	-0.476204	-0.154760
H157	H	-0.130222	-0.456503	-0.130676
H158	H	-0.191160	-0.816403	-1.053071
H159	H	-0.312477	-0.695054	-1.053044
H160	H	-0.312761	-0.054276	-0.312682
H161	H	-0.052423	-0.694991	-0.191406
H162	H	-0.345954	-0.661555	-0.801856
N163	N	0.052287	-0.688060	-0.184481
N164	N	0.082755	-0.706448	-0.151170
H165	H	0.102445	-0.682325	-0.127035
N166	N	-0.184280	-0.562219	-0.184563
N167	N	-0.184286	-0.610971	-0.184566
H168	H	-0.160131	-0.630665	-0.160484
N169	N	-0.184319	0.050500	-0.184623
N170	N	-0.154426	0.026128	-0.154816
H171	H	-0.130267	0.045826	-0.130726
N172	N	-0.352894	-0.654605	-0.697144
N173	N	-0.349411	-0.606362	-0.703230
H174	H	-0.373529	-0.582223	-0.683533
H175	H	-0.191279	-0.816335	-0.550709
N176	N	0.303459	-0.654589	-0.151069
N177	N	0.279070	-0.624732	-0.121211
H178	H	0.298754	-0.600598	-0.097082
H179	H	0.449914	-0.694979	-0.191429
N180	N	-0.150790	-0.200650	-0.151246
N181	N	-0.150785	-0.151898	-0.151252
H182	H	-0.126617	-0.132190	-0.127179
N183	N	0.554646	-0.688050	-0.184513
N184	N	0.585117	-0.654741	-0.202908
H185	H	0.604824	-0.630617	-0.178788
N186	N	-0.184298	-0.059852	-0.184622
N187	N	-0.154407	-0.035447	-0.154822
H188	H	-0.130240	-0.055117	-0.130732
N189	N	-0.184391	-0.823261	-0.446008
N190	N	-0.154539	-0.853120	-0.470398
H191	H	-0.130424	-0.877252	-0.450714
