data_functionalizedCrystal
_audit_creation_method	'MofGen! by Chris Wilmer'
_symmetry_space_group_name_H-M	'P1'
_symmetry_Int_Tables_number	1
_symmetry_cell_setting	triclinic
loop_
_symmetry_equiv_pos_as_xyz
  x,y,z
_cell_length_a	10.654545
_cell_length_b	15.944551
_cell_length_c	9.730223
_cell_angle_alpha	89.994648
_cell_angle_beta	89.997167
_cell_angle_gamma	83.990908
loop_
_atom_site_label
_atom_site_type_symbol
_atom_site_fract_x
_atom_site_fract_y
_atom_site_fract_z
O1	O	1.666316	0.117958	-0.114279
O2	O	1.300691	0.129202	-0.114286
O3	O	1.493488	0.001363	-0.114270
O4	O	1.473519	0.245797	-0.114295
O5	O	1.493476	0.001360	0.114310
O6	O	1.300679	0.129199	0.114294
O7	O	1.666304	0.117955	0.114300
Zn8	Zn	1.483489	0.123576	0.150589
Zn9	Zn	1.483506	0.123581	-0.150575
O10	O	1.473507	0.245794	0.114285
C11	C	1.253898	0.128376	0.000004
C12	C	1.114486	0.125908	0.000002
C13	C	1.048990	0.124745	0.124602
C14	C	0.918001	0.122412	0.124602
C15	C	0.918015	0.122410	-0.124608
C16	C	1.049003	0.124737	-0.124607
C17	C	1.492653	-0.029937	0.000020
C18	C	1.490168	-0.123198	0.000021
C19	C	1.364723	-0.338779	-0.000000
C20	C	1.422969	-0.399462	0.112705
C21	C	1.485672	-0.293950	0.000010
C22	C	1.423010	-0.399441	-0.112657
C23	C	1.481320	-0.458887	-0.000006
C24	C	1.543951	-0.353404	0.112808
C25	C	1.543975	-0.353377	-0.112655
C26	C	1.602309	-0.414042	0.000077
C27	C	1.488175	-0.198933	0.000021
C28	C	1.478825	-0.553903	-0.000007
C29	C	1.713097	0.118781	0.000008
C30	C	1.852509	0.121249	0.000001
C31	C	1.474342	0.277094	-0.000008
C32	C	1.476827	0.370355	-0.000018
N33	N	1.483488	0.123573	0.356126
N34	N	1.483518	0.123578	-0.356111
C35	C	1.568887	0.066989	0.428059
C36	C	1.568899	0.066990	0.571942
C37	C	1.398109	0.180164	0.571946
C38	C	1.398092	0.180159	0.428066
H39	H	1.102303	0.125698	0.226066
C40	C	1.305311	0.241690	0.350205
C41	C	1.230559	0.291267	0.443999
C42	C	1.145089	0.347961	0.372323
H43	H	1.252915	0.211242	0.294092
H44	H	1.350446	0.276981	0.294086
H45	H	1.185427	0.255981	0.500093
H46	H	1.282920	0.321734	0.500114
H47	H	1.190223	0.383251	0.316205
H48	H	1.092701	0.317505	0.316213
H49	H	1.094367	0.381610	0.435951
C50	C	1.661562	0.005423	0.649864
C51	C	1.641223	-0.077246	0.614857
C52	C	1.726573	-0.133987	0.686597
H53	H	1.649434	0.013408	0.745879
H54	H	1.745392	0.015019	0.626236
H55	H	1.557413	-0.086839	0.638494
H56	H	1.653361	-0.085258	0.518855
H57	H	1.810403	-0.124391	0.662970
H58	H	1.714438	-0.125994	0.782609
H59	H	1.712792	-0.190084	0.662846
H60	H	1.595059	-0.333119	0.208196
H61	H	1.102332	0.125682	-0.226078
C62	C	0.847108	0.121199	0.260028
C63	C	0.932493	0.122743	0.369147
C64	C	0.867231	0.121636	0.493926
H65	H	0.805583	0.071408	0.265415
H66	H	0.786451	0.169206	0.265272
H67	H	0.993127	0.074741	0.363905
H68	H	0.974021	0.172531	0.363805
H69	H	0.806575	0.169643	0.499170
H70	H	0.825709	0.071844	0.499299
H71	H	0.925153	0.122692	0.567978
C72	C	1.230839	-0.295178	0.000423
C73	C	1.168086	-0.318396	0.118705
C74	C	1.044761	-0.278238	0.119156
H75	H	1.187292	-0.311568	-0.078736
H76	H	1.233300	-0.235789	-0.000322
H77	H	1.165618	-0.377772	0.119437
H78	H	1.211595	-0.302005	0.197883
H79	H	1.047222	-0.218849	0.118412
H80	H	1.001226	-0.294631	0.039993
H81	H	1.002171	-0.293980	0.199415
C82	C	1.736385	-0.457320	0.000244
C83	C	1.821762	-0.396275	0.001459
C84	C	1.945284	-0.436107	0.001646
H85	H	1.749656	-0.491183	-0.079806
H86	H	1.748997	-0.491877	0.079620
H87	H	1.809156	-0.361732	-0.077909
H88	H	1.808532	-0.362409	0.081503
H89	H	1.957895	-0.470665	0.081022
H90	H	1.958541	-0.469969	-0.078406
H91	H	2.003227	-0.394695	0.002483
C92	C	1.611921	-0.326159	-0.239869
C93	C	1.548173	-0.349216	-0.357562
C94	C	1.610707	-0.324143	-0.474788
H95	H	1.695853	-0.352951	-0.240871
H96	H	1.613631	-0.266710	-0.238562
H97	H	1.546477	-0.408654	-0.358870
H98	H	1.464245	-0.322426	-0.356607
H99	H	1.612417	-0.264694	-0.473480
H100	H	1.694637	-0.350937	-0.475775
H101	H	1.567457	-0.339777	-0.554656
H102	H	1.371807	-0.419867	0.207986
H103	H	0.864682	0.121457	-0.226061
C104	C	1.661359	0.005467	0.349812
C105	C	1.594410	-0.046353	0.267255
C106	C	1.679539	-0.103052	0.195162
H107	H	1.712223	-0.028312	0.413136
H108	H	1.713645	0.035941	0.293560
H109	H	1.542147	-0.076825	0.323501
H110	H	1.543551	-0.012598	0.203904
H111	H	1.731825	-0.072577	0.138910
H112	H	1.730399	-0.136824	0.258496
H113	H	1.634127	-0.138213	0.139129
C114	C	1.354588	-0.426485	-0.239660
C115	C	1.230282	-0.388011	-0.239130
C116	C	1.167210	-0.412890	-0.356105
H117	H	1.354032	-0.486019	-0.239309
H118	H	1.396675	-0.409910	-0.319727
H119	H	1.188205	-0.404591	-0.159084
H120	H	1.230800	-0.328477	-0.239501
H121	H	1.209297	-0.396315	-0.436171
H122	H	1.166664	-0.472424	-0.355744
H123	H	1.082866	-0.386783	-0.355767
C124	C	1.305346	0.241467	0.650236
C125	C	1.228512	0.196247	0.732897
C126	C	1.143056	0.252694	0.805048
H127	H	1.254357	0.275189	0.586947
H128	H	1.350495	0.276704	0.706423
H129	H	1.183366	0.161025	0.676715
H130	H	1.279466	0.162528	0.796212
H131	H	1.188205	0.287930	0.861235
H132	H	1.092076	0.286413	0.741749
H133	H	1.090922	0.222021	0.861151
