data_functionalizedCrystal
_audit_creation_method	'MofGen! by Chris Wilmer'
_symmetry_space_group_name_H-M	'P1'
_symmetry_Int_Tables_number	1
_symmetry_cell_setting	triclinic
loop_
_symmetry_equiv_pos_as_xyz
  x,y,z
_cell_length_a	19.805407
_cell_length_b	12.594516
_cell_length_c	12.594510
_cell_angle_alpha	89.967330
_cell_angle_beta	90.021753
_cell_angle_gamma	89.973268
loop_
_atom_site_label
_atom_site_type_symbol
_atom_site_fract_x
_atom_site_fract_y
_atom_site_fract_z
Zn1	Zn	1.034749	0.423646	0.601890
Zn2	Zn	1.534749	0.923646	1.101890
Zn3	Zn	1.034659	0.601675	0.423917
Zn4	Zn	1.534659	1.101675	0.923917
Zn5	Zn	0.921559	0.423711	0.423917
Zn6	Zn	1.421559	0.923711	0.923917
Zn7	Zn	0.921526	0.601583	0.601845
Zn8	Zn	1.421526	1.101583	1.101845
O9	O	0.978123	0.512654	0.512893
O10	O	1.478123	1.012654	1.012893
O11	O	1.129453	0.447273	0.578301
O12	O	1.629453	0.947273	1.078301
O13	O	1.019632	0.578134	0.274971
O14	O	1.519632	1.078134	0.774971
O15	O	0.936625	0.274756	0.447545
O16	O	1.436625	0.774756	0.947545
O17	O	1.129387	0.578070	0.447545
O18	O	1.629387	1.078070	0.947545
O19	O	1.019785	0.274709	0.578301
O20	O	1.519785	0.774709	1.078301
O21	O	0.936538	0.447384	0.274971
O22	O	1.436538	0.947384	0.774971
O23	O	0.826838	0.447295	0.447501
O24	O	1.326838	0.947295	0.947501
O25	O	0.936569	0.577913	0.750797
O26	O	1.436569	1.077913	1.250797
O27	O	0.826814	0.577976	0.578224
O28	O	1.326814	1.077976	1.078224
O29	O	1.019754	0.447184	0.750830
O30	O	1.519754	0.947184	1.250830
O31	O	1.019600	0.750609	0.447501
O32	O	1.519600	1.250609	0.947501
O33	O	0.936482	0.750541	0.578224
O34	O	1.436482	1.250541	1.078224
C35	C	0.802267	0.512633	0.512858
C36	C	1.302267	1.012633	1.012858
C37	C	0.727035	0.512650	0.512869
C38	C	1.227035	1.012650	1.012869
C39	C	0.691696	0.580799	0.580826
C40	C	1.191696	1.080799	1.080826
C41	C	0.621008	0.580800	0.580841
C42	C	1.121008	1.080800	1.080841
C43	C	0.585660	0.512658	0.512893
C44	C	1.085660	1.012658	1.012893
C45	C	0.621004	0.444503	0.444932
C46	C	1.121004	0.944503	0.944932
C47	C	0.691691	0.444496	0.444923
C48	C	1.191691	0.944496	0.944923
C49	C	0.335930	0.444526	0.444967
C50	C	0.835930	0.944526	0.944967
C51	C	0.265238	0.444540	0.444979
C52	C	0.765238	0.944540	0.944979
C53	C	0.265247	0.580830	0.580885
C54	C	0.765247	1.080830	1.080885
C55	C	0.335934	0.580824	0.580876
C56	C	0.835934	1.080824	1.080876
C57	C	0.371272	0.512665	0.512920
C58	C	0.871272	1.012665	1.012920
C59	C	0.447921	0.512662	0.512906
C60	C	0.947921	1.012662	1.012906
C61	C	0.509012	0.512666	0.512900
C62	C	1.009012	1.012666	1.012900
C63	C	0.978046	0.789195	0.512880
C64	C	1.478046	1.289195	1.012880
C65	C	0.978075	0.907500	0.512911
C66	C	1.478075	1.407500	1.012911
C67	C	0.932855	0.976755	0.583961
C68	C	1.432855	1.476755	1.083961
C69	C	0.916355	1.047631	0.486837
C70	C	1.416355	1.547631	0.986837
C71	C	0.994611	1.047423	0.610050
C72	C	1.494611	1.547423	1.110050
C73	C	0.961543	0.976818	0.415735
C74	C	1.461543	1.476818	0.915735
C75	C	1.039828	0.976604	0.539014
C76	C	1.539828	1.476604	1.039014
C77	C	1.023352	1.047448	0.441823
C78	C	1.523352	1.547448	0.941823
C79	C	1.154666	0.512675	0.512928
C80	C	1.654666	1.012675	1.012928
C81	C	1.229898	0.512684	0.512943
C82	C	1.729898	1.012684	1.012943
C83	C	0.978168	0.512531	0.790514
C84	C	1.478168	1.012531	1.290514
C85	C	0.978187	0.512478	0.908819
C86	C	1.478187	1.012478	1.408819
C87	C	0.978189	1.235033	0.512926
C88	C	1.478189	1.735033	1.012926
C89	C	0.978141	1.116727	0.512937
C90	C	1.478141	1.616727	1.012937
C91	C	0.978118	0.512699	0.236352
C92	C	1.478118	1.012699	0.736352
C93	C	0.978230	0.512452	0.118047
C94	C	1.478230	1.012452	0.618047
C95	C	1.023444	0.441369	0.978090
C96	C	1.523444	0.941369	1.478090
C97	C	0.961715	0.415317	1.048879
C98	C	1.461715	0.915317	1.548879
C99	C	1.039952	0.538457	1.048829
C100	C	1.539952	1.038457	1.548829
C101	C	0.916425	0.486376	0.978050
C102	C	1.416425	0.986376	1.478050
C103	C	0.994703	0.609561	0.977993
C104	C	1.494703	1.109561	1.477993
C105	C	0.932932	0.583545	1.048751
C106	C	1.432932	1.083545	1.548751
H107	H	0.720472	0.636291	0.636154
H108	H	1.220472	1.136291	1.136154
H109	H	0.592238	0.636295	0.636177
H110	H	1.092238	1.136295	1.136177
H111	H	1.061649	0.381200	0.947061
H112	H	1.561649	0.881200	1.447061
Br113	Br	0.938178	0.925346	0.278790
Br114	Br	1.438178	1.425346	0.778790
Br115	Br	1.017877	1.099126	0.746950
Br116	Br	1.517877	1.599126	1.246950
H117	H	0.894633	0.643668	1.079581
H118	H	1.394633	1.143668	1.579581
Br119	Br	1.017994	0.746382	0.926055
Br120	Br	1.517994	1.246382	1.426055
H121	H	0.947760	0.333205	1.080017
H122	H	1.447760	0.833205	1.580017
Br123	Br	1.087141	1.098858	0.341589
Br124	Br	1.587141	1.598858	0.841589
H125	H	0.236467	0.636325	0.636222
H126	H	0.736467	1.136325	1.136222
H127	H	0.864194	0.464297	0.947090
H128	H	1.364194	0.964297	1.447090
Br129	Br	1.126799	0.924567	0.575853
Br130	Br	1.626799	1.424567	1.075853
H131	H	1.092168	0.560438	1.079923
H132	H	1.592168	1.060438	1.579923
Br133	Br	0.383904	0.673312	0.673088
Br134	Br	0.883904	1.173312	1.173088
H135	H	0.236460	0.389044	0.389647
H136	H	0.736460	0.889044	0.889647
H137	H	0.364694	0.389035	0.389626
H138	H	0.864694	0.889035	0.889626
Br139	Br	0.573032	0.352013	0.352725
Br140	Br	1.073032	0.852013	0.852725
Br141	Br	0.829362	1.099625	0.450040
Br142	Br	1.329362	1.599625	0.950040
Br143	Br	0.739652	0.352000	0.352698
Br144	Br	1.239652	0.852000	0.852698
Br145	Br	0.869025	0.925015	0.683965
Br146	Br	1.369025	1.425015	1.183965
