data_functionalizedCrystal
_audit_creation_method	'MofGen! by Chris Wilmer'
_symmetry_space_group_name_H-M	'P1'
_symmetry_Int_Tables_number	1
_symmetry_cell_setting	triclinic
loop_
_symmetry_equiv_pos_as_xyz
  x,y,z
_cell_length_a	19.121063
_cell_length_b	10.686220
_cell_length_c	10.686551
_cell_angle_alpha	90.308082
_cell_angle_beta	88.212799
_cell_angle_gamma	96.652836
loop_
_atom_site_label
_atom_site_type_symbol
_atom_site_fract_x
_atom_site_fract_y
_atom_site_fract_z
Zn1	Zn	-0.171149	1.960178	-0.576393
Zn2	Zn	-0.298212	1.934959	-0.377034
Zn3	Zn	-0.189107	1.733026	-0.384180
Zn4	Zn	-0.296789	1.741490	-0.602695
O5	O	-0.238814	1.842413	-0.485075
O6	O	-0.181084	2.132864	-0.535949
O7	O	-0.291850	1.894076	-0.203100
O8	O	-0.088483	1.770171	-0.401661
O9	O	-0.274436	2.114336	-0.389481
O10	O	-0.075289	1.937058	-0.542879
O11	O	-0.211691	1.745717	-0.208351
O12	O	-0.210311	1.558117	-0.427165
O13	O	-0.272012	1.784596	-0.774087
O14	O	-0.289425	1.564336	-0.587707
O15	O	-0.179704	1.945265	-0.754764
O16	O	-0.396264	1.902282	-0.414984
O17	O	-0.395219	1.760141	-0.580777
C18	C	-0.251663	1.515583	-0.511066
C19	C	-0.257175	1.375765	-0.522216
C20	C	-0.421212	1.829430	-0.499984
C21	C	-0.499236	1.823994	-0.506394
C22	C	-0.536407	1.895514	-0.423148
C23	C	-0.609719	1.890409	-0.429183
C24	C	-0.645858	1.813778	-0.518461
C25	C	-0.608681	1.742256	-0.601716
C26	C	-0.535371	1.747368	-0.595685
C27	C	-0.867182	1.794644	-0.540991
C28	C	-0.940498	1.789534	-0.547013
C29	C	-0.941530	1.937690	-0.374481
C30	C	-0.868219	1.942789	-0.368454
C31	C	-0.831048	1.871272	-0.451713
C32	C	-0.720794	1.808556	-0.524630
C33	C	-0.756113	1.876502	-0.445549
C34	C	-0.055701	1.855484	-0.470134
C35	C	0.022331	1.861053	-0.463766
C36	C	-0.223696	1.868688	-0.811038
C37	C	-0.217254	1.879884	-0.949944
C38	C	-0.225915	2.170519	-0.458984
C39	C	-0.220419	2.310339	-0.447865
C40	C	-0.253820	1.816317	-0.160371
C41	C	-0.260055	1.805378	-0.021430
H42	H	-0.184734	1.361289	-0.375679
H43	H	-0.292868	1.324808	-0.594399
H44	H	-0.836924	1.736409	-0.608781
H45	H	-0.175681	1.952248	-0.995015
N46	N	-0.499498	1.973771	-0.331933
N47	N	-0.513394	1.955647	-0.217943
H48	H	-0.487328	2.010919	-0.153519
H49	H	-0.638111	1.679867	-0.674412
N50	N	-0.647676	1.963493	-0.344157
N51	N	-0.615400	2.031914	-0.264456
H52	H	-0.642205	2.083541	-0.204407
N53	N	-0.497409	1.674314	-0.680736
N54	N	-0.529682	1.605900	-0.760445
H55	H	-0.502872	1.554307	-0.820521
H56	H	-0.838796	2.005188	-0.295757
H57	H	-0.726686	1.938901	-0.372863
H58	H	-0.971802	1.995916	-0.306698
N59	N	-0.977405	1.711235	-0.638211
N60	N	-0.944210	1.647382	-0.712537
H61	H	-0.970275	1.592081	-0.776939
H62	H	-0.750227	1.746160	-0.597317
H63	H	-0.301629	1.733028	-0.976364
