data_functionalizedCrystal
_audit_creation_method	'MofGen! by Chris Wilmer'
_symmetry_space_group_name_H-M	'P1'
_symmetry_Int_Tables_number	1
_symmetry_cell_setting	triclinic
loop_
_symmetry_equiv_pos_as_xyz
  x,y,z
_cell_length_a	12.759401
_cell_length_b	13.897448
_cell_length_c	12.759401
_cell_angle_alpha	90.009687
_cell_angle_beta	90.006940
_cell_angle_gamma	90.019217
loop_
_atom_site_label
_atom_site_type_symbol
_atom_site_fract_x
_atom_site_fract_y
_atom_site_fract_z
Zn1	Zn	1.606099	-0.384144	0.594007
Zn2	Zn	1.606024	-0.545407	0.418321
Zn3	Zn	1.430441	-0.384132	0.418342
Zn4	Zn	1.430381	-0.545403	0.593959
O5	O	1.518236	-0.464771	0.506157
O6	O	1.753110	-0.405543	0.570713
O7	O	1.582726	-0.524010	0.271303
O8	O	1.453799	-0.249152	0.441673
O9	O	1.753055	-0.524022	0.441638
O10	O	1.582855	-0.249161	0.570733
O11	O	1.453726	-0.405522	0.271318
O12	O	1.283412	-0.405518	0.441626
O13	O	1.453696	-0.524015	0.740986
O14	O	1.283368	-0.524003	0.570651
O15	O	1.582796	-0.405539	0.741021
O16	O	1.582668	-0.680388	0.441591
O17	O	1.453624	-0.680385	0.570631
C18	C	1.245269	-0.464760	0.506136
C19	C	1.128492	-0.464778	0.506152
C20	C	1.073635	-0.526567	0.573230
C21	C	0.963911	-0.526571	0.573251
C22	C	0.963911	-0.402993	0.439108
C23	C	1.073633	-0.402986	0.439093
C24	C	1.518160	-0.715386	0.506127
C25	C	1.518223	-0.822600	0.506149
C26	C	1.518333	-1.018895	0.506215
C27	C	1.518269	-0.909662	0.506181
C28	C	1.792270	-0.464784	0.506179
C29	C	1.909046	-0.464789	0.506188
C30	C	1.518248	-0.464778	0.780190
C31	C	1.518253	-0.464781	0.896967
C32	C	1.518342	-0.213178	0.506211
C33	C	1.518387	-0.105964	0.506233
C34	C	1.585467	-0.403100	0.951849
C35	C	1.585458	-0.403098	1.061573
C36	C	1.451018	-0.526466	1.061523
C37	C	1.451023	-0.526462	0.951801
C38	C	1.518224	-0.464786	1.233190
C39	C	1.518239	-0.464783	1.116413
H40	H	1.118300	-0.352663	0.384470
C41	C	1.399776	-0.689799	0.917958
C42	C	1.377140	-0.594269	0.891464
H43	H	1.354169	-0.731655	0.880701
H44	H	1.390146	-0.698627	0.991142
H45	H	1.470365	-0.703906	0.899981
H46	H	1.306554	-0.580160	0.909447
H47	H	1.386762	-0.585437	0.818263
C48	C	1.718343	-0.281148	0.962923
C49	C	1.659354	-0.335291	0.891574
H50	H	1.763951	-0.239280	0.925712
H51	H	1.758510	-0.323177	1.005712
H52	H	1.672568	-0.244256	1.005722
H53	H	1.705129	-0.372189	0.848780
H54	H	1.619183	-0.293257	0.848767
H55	H	1.396284	-0.576687	1.106183
C56	C	1.062609	-0.648706	0.705837
C57	C	1.133937	-0.594477	0.646952
H58	H	1.099837	-0.690625	0.751357
H59	H	1.019796	-0.685540	0.659999
H60	H	1.019833	-0.606728	0.746104
H61	H	1.176709	-0.636455	0.606679
H62	H	1.176768	-0.557640	0.692796
C63	C	0.840565	-0.540192	0.714571
C64	C	0.903613	-0.594493	0.646984
H65	H	0.803346	-0.582127	0.760097
H66	H	0.792191	-0.503406	0.674637
H67	H	0.883406	-0.498226	0.754829
H68	H	0.860771	-0.636453	0.606721
H69	H	0.951992	-0.631294	0.686922
C70	C	1.600104	-0.273342	1.184975
C71	C	1.659340	-0.335292	1.121895
H72	H	1.645718	-0.231474	1.222208
H73	H	1.560082	-0.310075	1.233337
H74	H	1.554349	-0.236450	1.142156
H75	H	1.705089	-0.372189	1.164716
H76	H	1.699379	-0.298555	1.073527
H77	H	0.919232	-0.352686	0.384508
