data_functionalizedCrystal
_audit_creation_method	'MofGen! by Chris Wilmer'
_symmetry_space_group_name_H-M	'P1'
_symmetry_Int_Tables_number	1
_symmetry_cell_setting	triclinic
loop_
_symmetry_equiv_pos_as_xyz
  x,y,z
_cell_length_a	19.188930
_cell_length_b	10.723024
_cell_length_c	9.798715
_cell_angle_alpha	89.998022
_cell_angle_beta	89.982440
_cell_angle_gamma	83.806325
loop_
_atom_site_label
_atom_site_type_symbol
_atom_site_fract_x
_atom_site_fract_y
_atom_site_fract_z
O1	O	-0.927157	-0.155778	0.113927
O2	O	-0.723981	-0.176749	0.113833
O3	O	-0.830256	0.015410	0.113877
O4	O	-0.820882	-0.347937	0.113883
O5	O	-0.830248	0.015410	-0.113105
O6	O	-0.723974	-0.176749	-0.113149
O7	O	-0.927149	-0.155778	-0.113055
Zn8	Zn	-0.825560	-0.166263	-0.149141
Zn9	Zn	-0.825570	-0.166264	0.149918
O10	O	-0.820874	-0.347937	-0.113099
C11	C	-0.697962	-0.176070	0.000330
C12	C	-0.620444	-0.174031	0.000294
C13	C	-0.829569	0.061895	0.000387
C14	C	-0.827529	0.200407	0.000391
C15	C	-0.953168	-0.156457	0.000451
C16	C	-1.030686	-0.158496	0.000496
C17	C	-0.576253	-0.286784	0.000317
C18	C	-0.503417	-0.284869	0.000332
C19	C	-0.474775	-0.170195	0.000351
C20	C	-0.518976	-0.057427	0.000320
C21	C	-0.591811	-0.059346	0.000292
N22	N	-0.366228	-0.082541	0.077657
N23	N	-0.297038	-0.080726	0.077687
C24	C	-0.255329	-0.164408	0.000435
N25	N	-0.285423	-0.249992	-0.076832
N26	N	-0.354620	-0.251810	-0.076856
C27	C	-0.395799	-0.168102	0.000381
C28	C	-0.132160	-0.275091	0.000472
C29	C	-0.059322	-0.273171	0.000479
C30	C	-0.074883	-0.045726	0.000481
C31	C	-0.147719	-0.047650	0.000460
C32	C	-0.176353	-0.162335	0.000463
C33	C	-0.821561	-0.394423	0.000393
C34	C	-0.823601	-0.532935	0.000398
N35	N	-0.825558	-0.166262	-0.353240
C36	C	-0.886994	0.276624	0.000420
C37	C	-0.884886	0.419784	0.000424
C38	C	-0.870179	-0.085229	-0.420999
C39	C	-0.870190	-0.085224	-0.578161
N40	N	-0.825578	-0.166255	0.354018
H41	H	-0.599562	-0.380170	0.000322
O42	O	-0.949639	0.228194	0.000271
C43	C	-0.987836	0.269150	-0.117281
H44	H	-0.968445	0.359372	-0.156487
H45	H	-1.045896	0.287397	-0.090810
H46	H	-0.980055	0.193801	-0.199601
H47	H	-0.908371	-0.015851	-0.362660
H48	H	-0.935793	0.485273	0.000444
H49	H	-0.787361	-0.235631	-0.411581
O50	O	-0.762882	0.388903	0.000612
C51	C	-0.760256	0.312687	0.118146
H52	H	-0.795706	0.360613	0.200327
H53	H	-0.704092	0.297621	0.157582
H54	H	-0.778847	0.218199	0.091570
O55	O	-0.780069	-0.249201	-0.576548
C56	C	-0.792176	-0.372605	-0.611382
H57	H	-0.848075	-0.372721	-0.650703
H58	H	-0.784579	-0.435206	-0.517357
H59	H	-0.753666	-0.409676	-0.694249
O60	O	-0.764885	0.248840	0.000185
C61	C	-0.726681	0.207898	-0.117407
H62	H	-0.746068	0.117677	-0.156598
H63	H	-0.668622	0.189652	-0.090994
H64	H	-0.734459	0.283254	-0.199716
O65	O	-0.634642	0.050303	0.000339
C66	C	-0.593748	0.151933	0.000318
H67	H	-0.539557	0.119965	0.043303
H68	H	-0.620249	0.230911	0.066211
H69	H	-0.588370	0.187103	-0.108575
O70	O	-0.460579	-0.394516	0.000427
C71	C	-0.501471	-0.496150	0.000387
H72	H	-0.555684	-0.464180	0.043325
H73	H	-0.475003	-0.575117	0.066312
H74	H	-0.506790	-0.531338	-0.108506
H75	H	-0.495651	0.035941	0.000355
H76	H	-0.155474	-0.368475	0.000454
O77	O	-0.915736	-0.002282	-0.647518
C78	C	-0.903601	0.121122	-0.612742
H79	H	-0.876728	0.120802	-0.508983
H80	H	-0.955706	0.183057	-0.607958
H81	H	-0.868560	0.159295	-0.693162
H82	H	-0.023342	-0.364992	0.000490
H83	H	-0.183701	0.044166	0.000449
O84	O	-0.046954	0.065560	0.000562
C85	C	0.026809	0.043079	0.000554
H86	H	0.043432	-0.054392	0.043527
H87	H	0.049505	0.116432	0.066466
H88	H	0.047136	0.049018	-0.108333
