data_functionalizedCrystal
_audit_creation_method	'MofGen! by Chris Wilmer'
_symmetry_space_group_name_H-M	'P1'
_symmetry_Int_Tables_number	1
_symmetry_cell_setting	triclinic
loop_
_symmetry_equiv_pos_as_xyz
  x,y,z
_cell_length_a	10.654541
_cell_length_b	17.699083
_cell_length_c	16.776229
_cell_angle_alpha	89.999509
_cell_angle_beta	90.007196
_cell_angle_gamma	96.116695
loop_
_atom_site_label
_atom_site_type_symbol
_atom_site_fract_x
_atom_site_fract_y
_atom_site_fract_z
O1	O	0.158807	-1.005081	0.066274
O2	O	0.658807	-0.505081	0.566274
O3	O	0.179469	-0.784834	0.066279
O4	O	0.679469	-0.284834	0.566279
O5	O	-0.013690	-0.900022	0.066272
O6	O	0.486310	-0.400022	0.566272
O7	O	0.351966	-0.889892	0.066282
O8	O	0.851966	-0.389892	0.566282
O9	O	-0.013707	-0.900020	-0.066305
O10	O	0.486293	-0.400020	0.433695
O11	O	0.179452	-0.784832	-0.066298
O12	O	0.679452	-0.284832	0.433702
O13	O	0.158790	-1.005079	-0.066302
O14	O	0.658790	-0.505079	0.433698
Zn15	Zn	0.169118	-0.894955	-0.087349
Zn16	Zn	0.669118	-0.394955	0.412651
Zn17	Zn	0.169141	-0.894958	0.087326
Zn18	Zn	0.669141	-0.394958	0.587326
O19	O	0.351949	-0.889890	-0.066295
O20	O	0.851949	-0.389890	0.433705
C21	C	0.178720	-0.756631	-0.000009
C22	C	0.678720	-0.256631	0.499991
C23	C	0.176500	-0.672599	-0.000007
C24	C	0.676500	-0.172599	0.499993
C25	C	0.175444	-0.633124	-0.072275
C26	C	0.675444	-0.133124	0.427725
C27	C	0.173338	-0.554168	-0.072276
C28	C	0.673338	-0.054168	0.427724
C29	C	0.172296	-0.514688	-0.000008
C30	C	0.672296	-0.014688	0.499992
C31	C	0.173348	-0.554169	0.072266
C32	C	0.673348	-0.054169	0.572266
C33	C	0.175445	-0.633124	0.072266
C34	C	0.675445	-0.133124	0.572266
C35	C	0.164887	-0.235753	0.072268
C36	C	0.664887	0.264247	0.572268
C37	C	0.162793	-0.156792	0.072263
C38	C	0.662793	0.343208	0.572263
C39	C	0.162779	-0.156797	-0.072274
C40	C	0.662779	0.343203	0.427726
C41	C	0.164877	-0.235752	-0.072274
C42	C	0.664877	0.264248	0.427726
C43	C	0.165922	-0.275226	-0.000001
C44	C	0.665922	0.224774	0.499999
C45	C	0.168204	-0.360839	-0.000001
C46	C	0.668204	0.139161	0.499999
C47	C	0.170023	-0.429076	-0.000007
C48	C	0.670023	0.070924	0.499993
C49	C	-0.060484	-0.899278	-0.000016
C50	C	0.439516	-0.399278	0.499984
C51	C	-0.199888	-0.897054	-0.000015
C52	C	0.300112	-0.397054	0.499985
C53	C	-0.230271	-1.034793	-0.000028
C54	C	0.269729	-0.534793	0.499972
C55	C	-0.310953	-1.102614	-0.000036
C56	C	0.189047	-0.602614	0.499964
C57	C	-0.441934	-1.100520	-0.000033
C58	C	0.058066	-0.600520	0.499967
C59	C	-0.492235	-1.030596	-0.000020
C60	C	0.007765	-0.530596	0.499980
C61	C	-0.411553	-0.962775	-0.000012
C62	C	0.088447	-0.462775	0.499988
C63	C	-0.280571	-0.964877	-0.000017
C64	C	0.219429	-0.464877	0.499983
C65	C	-0.381171	-0.825037	0.000006
C66	C	0.118829	-0.325037	0.500006
C67	C	-0.250189	-0.827130	-0.000002
C68	C	0.249811	-0.327130	0.499998
C69	C	-0.431472	-0.755114	0.000019
C70	C	0.068528	-0.255114	0.500019
C71	C	-0.350790	-0.687291	0.000022
C72	C	0.149210	-0.187291	0.500022
C73	C	-0.219801	-0.689388	0.000018
C74	C	0.280199	-0.189388	0.500018
C75	C	-0.169508	-0.759309	0.000006
C76	C	0.330492	-0.259309	0.500006
C77	C	0.398743	-0.890635	-0.000005
C78	C	0.898743	-0.390635	0.499995
C79	C	0.538147	-0.892859	-0.000002
C80	C	1.038147	-0.392859	0.499998
C81	C	0.159531	-0.033282	-0.000012
C82	C	0.659531	0.466718	0.499988
C83	C	0.161728	-0.117316	-0.000006
C84	C	0.661728	0.382684	0.499994
N85	N	0.169147	-0.894960	0.206537
N86	N	0.669147	-0.394960	0.706537
N87	N	0.169102	-0.894959	-0.206560
N88	N	0.669102	-0.394959	0.293440
C89	C	0.083784	-0.946062	0.248251
C90	C	0.583784	-0.446062	0.748251
C91	C	0.083781	-0.946065	0.331703
C92	C	0.583781	-0.446065	0.831703
C93	C	0.169135	-0.894962	0.373440
C94	C	0.669135	-0.394962	0.873440
C95	C	0.254508	-0.843857	0.331720
C96	C	0.754508	-0.343857	0.831720
C97	C	0.254516	-0.843858	0.248270
C98	C	0.754516	-0.343858	0.748270
C99	C	0.254477	-0.843851	0.668268
C100	C	0.754477	-0.343851	1.168268
C101	C	0.254460	-0.843852	0.751724
C102	C	0.754460	-0.343852	1.251724
C103	C	0.083742	-0.946058	0.751701
C104	C	0.583742	-0.446058	1.251701
C105	C	0.083750	-0.946059	0.668251
C106	C	0.583750	-0.446059	1.168251
C107	C	0.169126	-0.894958	0.626538
C108	C	0.669126	-0.394958	1.126538
C109	C	0.169130	-0.894956	0.536050
C110	C	0.669130	-0.394956	1.036050
C111	C	0.169126	-0.894959	0.463927
C112	C	0.669126	-0.394959	0.963927
H113	H	0.161944	-0.124650	0.131116
H114	H	0.661944	0.375350	0.631116
H115	H	0.014243	-0.987670	0.634271
H116	H	0.514243	-0.487670	1.134271
H117	H	-0.391756	-0.630365	0.000038
H118	H	0.108244	-0.130365	0.500038
H119	H	0.172491	-0.522019	0.131108
H120	H	0.672491	-0.022019	0.631108
H121	H	-0.123621	-1.036505	-0.000040
H122	H	0.376379	-0.536505	0.499960
H123	H	-0.538125	-0.753414	0.000026
H124	H	-0.038125	-0.253414	0.500026
H125	H	-0.154116	-0.634159	0.000028
H126	H	0.345884	-0.134159	0.500028
H127	H	0.165731	-0.267892	-0.131122
H128	H	0.665731	0.232108	0.368878
N129	N	-0.008359	-1.001169	0.796691
N130	N	0.491641	-0.501169	1.296691
H131	H	0.004580	-0.993415	0.855890
H132	H	0.504580	-0.493415	1.355890
H133	H	0.006186	-1.054911	0.782110
H134	H	0.506186	-0.554911	1.282110
H135	H	0.172457	-0.522032	-0.131124
H136	H	0.672457	-0.022032	0.368876
N137	N	-0.008289	-1.001183	0.376694
N138	N	0.491711	-0.501183	0.876694
H139	H	0.006233	-1.054943	0.362167
H140	H	0.506233	-0.554943	0.862167
H141	H	-0.097405	-0.992037	0.362143
H142	H	0.402595	-0.492037	0.862143
H143	H	0.324029	-0.802247	0.214307
H144	H	0.824029	-0.302247	0.714307
H145	H	-0.598888	-1.028897	-0.000008
H146	H	-0.098888	-0.528897	0.499992
N147	N	-0.028237	-0.761574	0.000012
N148	N	0.471763	-0.261574	0.500012
H149	H	0.015246	-0.708001	0.000022
H150	H	0.515246	-0.208001	0.500022
H151	H	-0.002764	-0.789146	-0.049139
H152	H	0.497236	-0.289146	0.450861
N153	N	0.166044	-0.278318	0.150218
N154	N	0.666044	0.221682	0.650218
H155	H	0.167529	-0.334327	0.139258
H156	H	0.667529	0.165673	0.639258
H157	H	0.087867	-0.270246	0.181779
H158	H	0.587867	0.229754	0.681779
H159	H	0.176307	-0.665263	0.131114
H160	H	0.676307	-0.165263	0.631114
H161	H	-0.269983	-1.159545	-0.000053
H162	H	0.230017	-0.659545	0.499947
N163	N	0.176581	-0.675702	-0.150223
N164	N	0.676581	-0.175702	0.349777
H165	H	0.175591	-0.638711	-0.196004
H166	H	0.675591	-0.138711	0.303996
H167	H	0.099633	-0.714193	-0.153376
H168	H	0.599633	-0.214193	0.346624
N169	N	0.161648	-0.114220	-0.150229
N170	N	0.661648	0.385780	0.349771
H171	H	0.161910	-0.058092	-0.139271
H172	H	0.661910	0.441908	0.360729
H173	H	0.083312	-0.133028	-0.181311
H174	H	0.583312	0.366972	0.318689
H175	H	0.014273	-0.987673	0.214275
H176	H	0.514273	-0.487673	0.714275
H177	H	0.323971	-0.802236	0.785705
H178	H	0.823971	-0.302236	1.285705
H179	H	0.323991	-0.802241	0.634312
H180	H	0.823991	-0.302241	1.134312
H181	H	-0.507626	-1.155746	-0.000033
H182	H	-0.007626	-0.655746	0.499967
H183	H	0.324011	-0.802250	0.365707
H184	H	0.824011	-0.302250	0.865707
