data_functionalizedCrystal
_audit_creation_method	'MofGen! by Chris Wilmer'
_symmetry_space_group_name_H-M	'P1'
_symmetry_Int_Tables_number	1
_symmetry_cell_setting	triclinic
loop_
_symmetry_equiv_pos_as_xyz
  x,y,z
_cell_length_a	19.121215
_cell_length_b	19.121063
_cell_length_c	14.908308
_cell_angle_alpha	84.445373
_cell_angle_beta	89.306701
_cell_angle_gamma	95.002544
loop_
_atom_site_label
_atom_site_type_symbol
_atom_site_fract_x
_atom_site_fract_y
_atom_site_fract_z
Zn1	Zn	1.036454	-0.261605	0.581341
Zn2	Zn	1.536454	0.238395	1.081341
Zn3	Zn	1.038135	-0.372493	0.436642
Zn4	Zn	1.538135	0.127507	0.936642
Zn5	Zn	0.926158	-0.259273	0.424313
Zn6	Zn	1.426158	0.240727	0.924313
Zn7	Zn	0.913733	-0.384239	0.581258
Zn8	Zn	1.413733	0.115761	1.081258
O9	O	0.978620	-0.319402	0.505889
O10	O	1.478620	0.180598	1.005889
O11	O	1.134899	-0.272375	0.567341
O12	O	1.634899	0.227625	1.067341
O13	O	1.029184	-0.351582	0.308768
O14	O	1.529184	0.148418	0.808768
O15	O	0.945285	-0.160876	0.440018
O16	O	1.445285	0.339124	0.940018
O17	O	1.136134	-0.353844	0.461032
O18	O	1.636134	0.146156	0.961032
O19	O	1.026319	-0.162589	0.555386
O20	O	1.526319	0.337411	1.055386
O21	O	0.946915	-0.268400	0.299709
O22	O	1.446915	0.231600	0.799709
O23	O	0.826287	-0.279789	0.439937
O24	O	1.326287	0.220211	0.939937
O25	O	0.924109	-0.373863	0.707508
O26	O	1.424109	0.126137	1.207508
O27	O	0.817159	-0.371602	0.555244
O28	O	1.317159	0.128398	1.055244
O29	O	1.014271	-0.283765	0.707569
O30	O	1.514271	0.216235	1.207569
O31	O	1.017137	-0.472757	0.460951
O32	O	1.517137	0.027243	0.960951
O33	O	0.925739	-0.481387	0.567200
O34	O	1.425739	0.018613	1.067200
C35	C	0.796255	-0.326718	0.496244
C36	C	1.296255	0.173282	0.996244
C37	C	0.718237	-0.329865	0.492140
C38	C	1.218237	0.170135	0.992140
C39	C	0.277013	-0.349791	0.466180
C40	C	0.777013	0.150209	0.966180
C41	C	0.350320	-0.346830	0.470028
C42	C	0.850320	0.153170	0.970028
C43	C	0.386325	-0.303011	0.527400
C44	C	0.886325	0.196989	1.027400
C45	C	0.349019	-0.262145	0.580920
C46	C	0.849019	0.237855	1.080920
C47	C	0.275714	-0.265103	0.577066
C48	C	0.775714	0.234897	1.077066
C49	C	0.607627	-0.291957	0.541806
C50	C	1.107627	0.208043	1.041806
C51	C	0.680937	-0.289004	0.545658
C52	C	1.180937	0.210996	1.045658
C53	C	0.682233	-0.373688	0.434765
C54	C	1.182233	0.126312	0.934765
C55	C	0.608926	-0.376646	0.430920
C56	C	1.108926	0.123354	0.930920
C57	C	0.571627	-0.335777	0.484436
C58	C	1.071627	0.164223	0.984436
C59	C	0.461256	-0.299984	0.531338
C60	C	0.961256	0.200016	1.031338
C61	C	0.496698	-0.338800	0.480493
C62	C	0.996698	0.161200	0.980493
C63	C	0.970290	-0.502666	0.515425
C64	C	1.470290	-0.002666	1.015425
C65	C	0.966789	-0.581065	0.519538
C66	C	1.466789	-0.081065	1.019538
C67	C	1.012763	-0.613382	0.466203
C68	C	1.512763	-0.113382	0.966203
C69	C	1.009475	-0.687047	0.470077
C70	C	1.509475	-0.187047	0.970077
C71	C	0.960208	-0.728394	0.527282
C72	C	1.460208	-0.228394	1.027282
C73	C	0.914232	-0.696073	0.580624
C74	C	1.414232	-0.196073	1.080624
C75	C	0.917525	-0.622409	0.576754
C76	C	1.417525	-0.122409	1.076754
C77	C	0.947888	-0.951037	0.541737
C78	C	1.447888	-0.451037	1.041737
C79	C	0.944598	-1.024706	0.545601
C80	C	1.444598	-0.524706	1.045601
C81	C	1.039841	-1.015676	0.435054
C82	C	1.539841	-0.515676	0.935054
C83	C	1.043127	-0.942011	0.431185
C84	C	1.543127	-0.442011	0.931185
C85	C	0.997153	-0.909696	0.484530
C86	C	1.497153	-0.409696	0.984530
C87	C	0.956844	-0.803692	0.531242
C88	C	1.456844	-0.303692	1.031242
C89	C	1.000521	-0.834399	0.480575
C90	C	1.500521	-0.334399	0.980575
C91	C	1.161696	-0.312059	0.515571
C92	C	1.661696	0.187941	1.015571
C93	C	1.239713	-0.308930	0.519697
C94	C	1.739713	0.191070	1.019697
C95	C	0.967617	-0.330384	0.741187
C96	C	1.467617	0.169616	1.241187
C97	C	0.962928	-0.335064	0.841456
C98	C	1.462928	0.164936	1.341456
C99	C	0.987000	-0.135424	0.496336
C100	C	1.487000	0.364576	0.996336
C101	C	0.990572	-0.057023	0.492265
C102	C	1.490572	0.442977	0.992265
C103	C	0.989623	-0.308411	0.271506
C104	C	1.489623	0.191589	0.771506
C105	C	0.994457	-0.303527	0.171233
C106	C	1.494457	0.196473	0.671233
C107	C	1.048001	-0.250022	1.029939
C108	C	1.548001	0.249978	1.529939
C109	C	1.043598	-0.254416	1.124151
C110	C	1.543598	0.245584	1.624151
C111	C	0.949715	-0.348244	1.124095
C112	C	1.449715	0.151756	1.624095
C113	C	0.954118	-0.343850	1.029883
C114	C	1.454118	0.156150	1.529883
C115	C	1.003264	-0.294737	0.982808
C116	C	1.503264	0.205263	1.482808
C117	C	1.007670	-0.290347	0.888594
C118	C	1.507670	0.209653	1.388594
C119	C	0.913784	-0.384171	0.888540
C120	C	1.413784	0.115829	1.388540
C121	C	0.909380	-0.388565	0.982752
C122	C	1.409380	0.111435	1.482752
H123	H	0.710250	-0.253316	0.592376
H124	H	1.210250	0.246684	1.092376
H125	H	0.577266	-0.258683	0.585388
H126	H	1.077266	0.241317	1.085388
H127	H	0.904487	-1.058370	0.592201
H128	H	1.404487	-0.558370	1.092201
O129	O	1.054163	-0.718326	0.418174
O130	O	1.554163	-0.218326	0.918174
C131	C	1.098360	-0.666036	0.366865
C132	C	1.598360	-0.166036	0.866865
H133	H	1.072103	-0.614560	0.359436
H134	H	1.572103	-0.114560	0.859436
H135	H	1.108261	-0.683719	0.297312
H136	H	1.608261	-0.183719	0.797312
H137	H	1.150455	-0.657547	0.402354
H138	H	1.650455	-0.157547	0.902354
H139	H	0.467380	-0.374475	0.433779
H140	H	0.967380	0.125525	0.933779
H141	H	1.077271	-1.041995	0.391624
H142	H	1.577271	-0.541995	0.891624
O143	O	1.087131	-0.210950	1.169798
O144	O	1.587131	0.289050	1.669798
C145	C	1.131437	-0.166650	1.108040
C146	C	1.631437	0.333350	1.608040
H147	H	1.135692	-0.192311	1.042512
H148	H	1.635692	0.307689	1.542512
H149	H	1.185810	-0.158173	1.137791
H150	H	1.685810	0.341827	1.637791
H151	H	1.108638	-0.113644	1.093878
H152	H	1.608638	0.386356	1.593878
H153	H	0.247703	-0.385477	0.419466
H154	H	0.747703	0.114523	0.919466
O155	O	0.901878	-0.395872	1.169776
O156	O	1.401878	0.104128	1.669776
C157	C	0.833703	-0.382200	1.142231
C158	C	1.333703	0.117800	1.642231
H159	H	0.833939	-0.324785	1.113212
H160	H	1.333939	0.175215	1.613212
H161	H	0.795849	-0.392554	1.202667
H162	H	1.295849	0.107446	1.702667
H163	H	0.816193	-0.418204	1.088541
H164	H	1.316193	0.081796	1.588541
O165	O	1.090958	-0.901925	0.375497
O166	O	1.590958	-0.401925	0.875497
C167	C	1.079067	-0.916372	0.285707
C168	C	1.579067	-0.416372	0.785707
H169	H	1.049780	-0.970874	0.285191
H170	H	1.549780	-0.470874	0.785191
H171	H	1.131528	-0.914947	0.248125
H172	H	1.631528	-0.414947	0.748125
H173	H	1.046277	-0.874981	0.251198
H174	H	1.546277	-0.374981	0.751198
H175	H	0.378340	-0.226463	0.627630
H176	H	0.878340	0.273537	1.127630
O177	O	1.055314	-0.242603	0.842758
O178	O	1.555314	0.257397	1.342758
C179	C	1.019967	-0.196099	0.783801
C180	C	1.519967	0.303901	1.283801
H181	H	0.966305	-0.222460	0.768166
H182	H	1.466305	0.277540	1.268166
H183	H	1.052084	-0.182402	0.718571
H184	H	1.552084	0.317598	1.218571
H185	H	1.012929	-0.145834	0.816990
H186	H	1.512929	0.354166	1.316990
O187	O	1.095650	-0.202286	0.984098
O188	O	1.595650	0.297714	1.484098
C189	C	1.060312	-0.155778	0.925137
C190	C	1.560312	0.344222	1.425137
H191	H	1.006644	-0.182128	0.909507
H192	H	1.506644	0.317872	1.409507
H193	H	1.092429	-0.142093	0.859905
H194	H	1.592429	0.357907	1.359905
H195	H	1.053288	-0.105507	0.958319
H196	H	1.553288	0.394493	1.458319
H197	H	0.869366	-0.428549	1.021093
H198	H	1.369366	0.071451	1.521093
H199	H	0.877356	-0.420583	0.850156
H200	H	1.377356	0.079417	1.350156
O201	O	0.239583	-0.225390	0.629147
O202	O	0.739583	0.274610	1.129147
C203	C	0.287080	-0.186068	0.680596
C204	C	0.787080	0.313932	1.180596
H205	H	0.337882	-0.212997	0.687910
H206	H	0.837882	0.287003	1.187910
H207	H	0.262925	-0.182805	0.750189
H208	H	0.762925	0.317195	1.250189
H209	H	0.298841	-0.130605	0.645297
H210	H	0.798841	0.369395	1.145297
H211	H	0.380687	-0.380102	0.426447
H212	H	0.880687	0.119898	0.926447
H213	H	0.579616	-0.412327	0.384200
H214	H	1.079616	0.087673	0.884200
O215	O	0.718576	-0.413311	0.382808
O216	O	1.218576	0.086689	0.882808
C217	C	0.790996	-0.401320	0.398525
C218	C	1.290996	0.098680	0.898525
H219	H	0.802094	-0.347904	0.425885
H220	H	1.302094	0.152096	0.925885
H221	H	0.821789	-0.401740	0.332649
H222	H	1.321789	0.098260	0.832649
H223	H	0.807666	-0.444619	0.449746
H224	H	1.307666	0.055381	0.949746
H225	H	1.052878	-0.579722	0.419615
H226	H	1.552878	-0.079722	0.919615
O227	O	1.048343	-0.794311	0.424882
O228	O	1.548343	-0.294311	0.924882
C229	C	1.036442	-0.808754	0.335092
C230	C	1.536442	-0.308754	0.835092
H231	H	1.007163	-0.863260	0.334576
H232	H	1.507163	-0.363260	0.834576
H233	H	1.088899	-0.807316	0.297497
H234	H	1.588899	-0.307316	0.797497
H235	H	1.003640	-0.767367	0.300597
H236	H	1.503640	-0.267367	0.800597
H237	H	0.490579	-0.264308	0.578052
H238	H	0.990579	0.235692	1.078052
H239	H	0.874122	-0.729744	0.627207
H240	H	1.374122	-0.229744	1.127207
O241	O	0.903149	-0.919766	0.593571
O242	O	1.403149	-0.419766	1.093571
C243	C	0.858968	-0.972058	0.644899
C244	C	1.358968	-0.472058	1.144899
H245	H	0.855952	-1.022955	0.610577
H246	H	1.355952	-0.522955	1.110577
H247	H	0.804159	-0.953491	0.650410
H248	H	1.304159	-0.453491	1.150410
H249	H	0.881066	-0.982014	0.715211
H250	H	1.381066	-0.482014	1.215211
O251	O	0.872795	-0.591127	0.628598
O252	O	1.372795	-0.091127	1.128598
C253	C	0.828618	-0.643416	0.679939
C254	C	1.328618	-0.143416	1.179939
H255	H	0.825585	-0.694311	0.645614
H256	H	1.325585	-0.194311	1.145614
H257	H	0.773814	-0.624840	0.685474
H258	H	1.273814	-0.124840	1.185474
H259	H	0.850731	-0.653377	0.750241
H260	H	1.350731	-0.153377	1.250241
H261	H	0.916730	-0.837365	0.577817
H262	H	1.416730	-0.337365	1.077817
