data_functionalizedCrystal
_audit_creation_method	'MofGen! by Chris Wilmer'
_symmetry_space_group_name_H-M	'P1'
_symmetry_Int_Tables_number	1
_symmetry_cell_setting	triclinic
loop_
_symmetry_equiv_pos_as_xyz
  x,y,z
_cell_length_a	19.288864
_cell_length_b	15.072220
_cell_length_c	19.288865
_cell_angle_alpha	89.998082
_cell_angle_beta	96.863755
_cell_angle_gamma	90.019619
loop_
_atom_site_label
_atom_site_type_symbol
_atom_site_fract_x
_atom_site_fract_y
_atom_site_fract_z
O1	O	0.921351	0.074077	-0.086639
O2	O	0.719090	0.074018	-0.098328
O3	O	0.826065	0.074032	0.008647
O4	O	0.814376	0.074063	-0.193614
O5	O	0.826051	-0.073534	0.008633
O6	O	0.719076	-0.073547	-0.098341
O7	O	0.921337	-0.073488	-0.086653
Zn8	Zn	0.820204	-0.096947	-0.092499
Zn9	Zn	0.820222	0.097477	-0.092481
O10	O	0.814362	-0.073502	-0.193627
C11	C	0.693207	0.000227	-0.097959
C12	C	0.616103	0.000204	-0.096830
C13	C	0.571407	0.000228	-0.159598
C14	C	0.498960	0.000237	-0.158537
C15	C	0.471212	0.000241	-0.094705
C16	C	0.515918	0.000212	-0.031929
C17	C	0.588364	0.000194	-0.032991
C18	C	0.362955	0.051962	-0.044521
C19	C	0.290510	0.051986	-0.043461
C20	C	0.247767	0.000294	-0.091425
C21	C	0.277474	-0.051410	-0.140461
C22	C	0.349920	-0.051428	-0.141523
C23	C	0.392658	0.000261	-0.093546
C24	C	0.124514	0.000327	-0.153047
C25	C	0.052066	0.000331	-0.151984
C26	C	0.069026	0.000315	-0.025374
C27	C	0.141473	0.000302	-0.026439
C28	C	0.169212	0.000312	-0.090277
N29	N	0.820197	-0.229636	-0.092511
C30	C	0.820210	-0.410633	-0.092495
C31	C	0.762961	-0.448309	-0.149714
C32	C	0.762766	-0.551135	-0.149559
C33	C	0.820222	-0.588837	-0.092480
C34	C	0.804916	-0.551512	-0.019967
C35	C	0.804498	-0.448655	-0.020311
C36	C	0.892943	-0.448497	-0.107134
C37	C	0.892457	-0.551362	-0.108774
C38	C	0.820231	-0.689550	-0.092467
C39	C	0.820200	-0.309920	-0.092503
C40	C	0.947220	0.000304	-0.087022
C41	C	1.024324	0.000334	-0.088151
C42	C	0.825682	0.000246	0.034516
C43	C	0.824553	0.000238	0.111620
N44	N	0.820235	0.230165	-0.092464
C45	C	0.814745	0.000285	-0.219497
C46	C	0.815874	0.000299	-0.296601
C47	C	0.887321	0.000252	0.156316
C48	C	0.886260	0.000266	0.228763
C49	C	0.822428	0.000248	0.256511
C50	C	0.759652	0.000239	0.211805
C51	C	0.760714	0.000234	0.139359
C52	C	0.772243	-0.051456	0.364794
C53	C	0.771184	-0.051456	0.437238
C54	C	0.819148	0.000267	0.479956
C55	C	0.868184	0.051979	0.450223
C56	C	0.869247	0.051974	0.377778
C57	C	0.821269	0.000254	0.335065
C58	C	0.880770	0.000297	0.603209
C59	C	0.879707	0.000316	0.675657
C60	C	0.753097	0.000280	0.658697
C61	C	0.754162	0.000270	0.586250
C62	C	0.818001	0.000274	0.558511
H63	H	0.266328	0.094090	-0.003536
H64	H	0.703049	0.000253	0.549857
O65	O	0.912587	-0.414141	-0.175693
H66	H	0.915708	-0.340629	-0.173855
H67	H	0.907241	0.094097	0.485003
H68	H	0.397752	0.094060	-0.005461
O69	O	0.189689	0.000284	0.041261
H70	H	0.158225	0.000294	0.085827
H71	H	0.909172	0.094082	0.353572
O72	O	0.485997	0.000217	0.036921
H73	H	0.428112	0.000242	0.027116
O74	O	0.858706	-0.583859	0.037809
H75	H	0.897010	-0.626987	0.015399
H76	H	0.242673	-0.093502	-0.179517
H77	H	0.707679	0.000226	0.234401
H78	H	0.046435	0.000373	0.026600
O79	O	0.636579	0.000172	0.034711
H80	H	0.605117	0.000179	0.079278
H81	H	0.751470	-0.424698	-0.007419
H82	H	0.147101	0.000323	-0.205028
H83	H	0.930822	0.000332	0.712049
O84	O	0.381976	-0.107195	-0.194396
H85	H	0.418728	-0.155739	-0.166765
H86	H	0.932751	0.000304	0.580622
O87	O	0.774748	-0.584577	-0.220951
H88	H	0.780729	-0.527282	-0.255900
H89	H	0.904077	-0.575742	-0.162124
H90	H	0.771841	-0.423573	-0.203799
O91	O	0.720507	-0.107250	0.318724
H92	H	0.749094	-0.155786	0.289483
H93	H	0.701123	0.000270	0.681288
O94	O	0.003857	0.000350	-0.219690
H95	H	-0.051180	0.000349	-0.208228
O96	O	0.718300	-0.107230	0.469308
H97	H	0.685117	-0.143184	0.427433
O98	O	0.693008	0.000207	0.091150
H99	H	0.690464	0.060349	0.057735
O100	O	0.691848	-0.414143	-0.137492
H101	H	0.697100	-0.370444	-0.090841
O102	O	0.601317	0.000224	-0.228454
H103	H	0.633940	0.060362	-0.231970
H104	H	0.708787	-0.575777	-0.140195
O105	O	0.857658	-0.415634	0.037793
H106	H	0.883444	-0.473136	0.066098
H107	H	0.752505	-0.577313	-0.006753
O108	O	0.951493	-0.585350	-0.057153
H109	H	0.942933	-0.564460	-0.003656
O110	O	0.949374	-0.416215	-0.051870
H111	H	0.925779	-0.373410	-0.014155
H112	H	0.939303	0.000259	0.133736
H113	H	0.462561	0.000254	-0.209652
O114	O	0.953961	0.000269	0.276986
H115	H	0.998530	0.000264	0.245525
