data_functionalizedCrystal
_audit_creation_method	'MofGen! by Chris Wilmer'
_symmetry_space_group_name_H-M	'P1'
_symmetry_Int_Tables_number	1
_symmetry_cell_setting	triclinic
loop_
_symmetry_equiv_pos_as_xyz
  x,y,z
_cell_length_a	11.792241
_cell_length_b	15.624803
_cell_length_c	14.185569
_cell_angle_alpha	85.691254
_cell_angle_beta	103.241863
_cell_angle_gamma	95.787447
loop_
_atom_site_label
_atom_site_type_symbol
_atom_site_fract_x
_atom_site_fract_y
_atom_site_fract_z
O1	O	-0.294955	1.080888	-0.476683
O2	O	-0.285607	0.839846	-0.388981
O3	O	-0.125728	0.966215	-0.434965
O4	O	-0.454834	0.954519	-0.430698
O5	O	-0.078504	1.003546	-0.281715
O6	O	-0.238383	0.877177	-0.235730
O7	O	-0.247731	1.118219	-0.323432
Cu8	Cu	-0.238745	1.001106	-0.265588
Cu9	Cu	-0.294593	0.956959	-0.446825
O10	O	-0.407610	0.991850	-0.277448
C11	C	-0.257738	0.827653	-0.301128
C12	C	-0.245042	0.735703	-0.267673
C13	C	-0.331960	0.331619	-0.575421
C14	C	-0.320008	0.245221	-0.543984
C15	C	-0.268523	0.285896	-0.376909
C16	C	-0.280466	0.372300	-0.408332
C17	C	-0.312186	0.395154	-0.507589
C18	C	-0.260692	0.435835	-0.340500
C19	C	-0.272640	0.522231	-0.371921
C20	C	-0.304362	0.545092	-0.471173
C21	C	-0.324134	0.481550	-0.539009
C22	C	-0.228980	0.412979	-0.241243
C23	C	-0.209206	0.476514	-0.173412
C24	C	-0.221146	0.562912	-0.204832
C25	C	-0.252868	0.585773	-0.304085
C26	C	-0.201374	0.626454	-0.136996
C27	C	-0.213322	0.712849	-0.168416
C28	C	-0.264816	0.672168	-0.335505
C29	C	-0.473590	0.973920	-0.354339
C30	C	-0.599834	0.976120	-0.355135
C31	C	-0.830979	0.980159	-0.356630
C32	C	-0.702353	0.977915	-0.355799
C33	C	-0.059749	0.984145	-0.358076
C34	C	0.066494	0.981943	-0.357286
C35	C	-0.275600	1.130412	-0.411287
C36	C	-0.288298	1.222360	-0.444748
N37	N	-0.199464	1.032164	-0.138119
N38	N	-0.333865	0.925908	-0.574297
C39	C	-0.449221	0.834662	0.301400
C40	C	-0.419475	0.858193	0.397859
C41	C	-0.277962	0.970116	0.357092
C42	C	-0.307693	0.946591	0.260629
C43	C	-0.393324	0.878864	0.232791
C44	C	-0.251795	0.990794	0.192020
C45	C	-0.281528	0.967274	0.095564
C46	C	-0.367158	0.899551	0.067717
C47	C	-0.423056	0.855344	0.136335
C48	C	-0.166170	1.058525	0.219858
C49	C	-0.110273	1.102727	0.151249
C50	C	-0.139999	1.079204	0.054793
C51	C	-0.225629	1.011481	0.026946
C52	C	-0.084101	1.123411	-0.013825
C53	C	-0.113833	1.099891	-0.110281
C54	C	-0.255362	0.987961	-0.069510
H55	H	-0.197226	0.764581	-0.113181
Br56	Br	-0.212775	0.295725	-0.198600
Br57	Br	-0.565421	0.742733	0.263620
Br58	Br	-0.407520	0.867635	-0.063190
Br59	Br	-0.346857	0.158993	-0.636053
H60	H	-0.492777	0.800188	0.113673
H61	H	-0.465003	0.822192	0.453719
Br62	Br	-0.125831	1.090448	0.350763
Br63	Br	-0.158350	0.595424	-0.002294
H64	H	-0.208244	1.025262	0.379769
H65	H	-0.040554	1.157874	0.173926
H66	H	-0.014387	1.178560	0.008852
H67	H	-0.242700	0.267276	-0.296094
H68	H	-0.068316	1.135886	-0.166145
H69	H	-0.325083	0.932805	-0.092173
H70	H	-0.183383	0.457893	-0.092596
Br71	Br	-0.320588	0.662343	-0.513820
Br72	Br	-0.374990	0.362645	-0.710129
Br73	Br	-0.367164	0.512575	-0.673718
H74	H	-0.290642	0.690776	-0.416330
