data_functionalizedCrystal
_audit_creation_method	'MofGen! by Chris Wilmer'
_symmetry_space_group_name_H-M	'P1'
_symmetry_Int_Tables_number	1
_symmetry_cell_setting	triclinic
loop_
_symmetry_equiv_pos_as_xyz
  x,y,z
_cell_length_a	14.044220
_cell_length_b	18.366186
_cell_length_c	19.288857
_cell_angle_alpha	89.991598
_cell_angle_beta	88.160993
_cell_angle_gamma	89.996026
loop_
_atom_site_label
_atom_site_type_symbol
_atom_site_fract_x
_atom_site_fract_y
_atom_site_fract_z
O1	O	1.256992	-0.060479	0.167413
O2	O	0.981048	-0.060497	0.161372
O3	O	1.126997	-0.060479	0.063774
O4	O	1.111043	-0.060497	0.265011
O5	O	1.126973	0.060621	0.063768
O6	O	0.981024	0.060602	0.161365
O7	O	1.256967	0.060620	0.167406
Zn8	Zn	1.118991	0.079838	0.164385
Zn9	Zn	1.119024	-0.079715	0.164394
O10	O	1.111018	0.060602	0.265004
C11	C	0.945733	0.000050	0.158724
C12	C	0.840541	0.000044	0.150836
N13	N	1.118976	0.188730	0.164379
N14	N	1.119047	-0.188606	0.164395
C15	C	0.647942	0.000059	0.136416
C16	C	0.590068	0.000057	0.192359
C17	C	0.482899	0.000066	0.184336
C18	C	0.755121	0.000051	0.144439
C19	C	1.292282	0.000071	0.170054
C20	C	1.397474	0.000073	0.177942
C21	C	1.126473	0.000072	0.037862
C22	C	1.124935	0.000073	-0.039341
C23	C	1.183623	0.226838	0.121187
C24	C	1.183629	0.303066	0.121184
C25	C	1.118997	0.341182	0.164386
C26	C	1.054338	0.303065	0.207580
C27	C	1.054327	0.226838	0.207577
C28	C	1.106309	0.461936	0.226858
C29	C	1.106326	0.538161	0.226863
C30	C	1.119024	0.576290	0.164396
C31	C	1.131725	0.538184	0.101922
C32	C	1.131714	0.461958	0.101919
C33	C	1.119001	0.423837	0.164394
C34	C	1.183681	0.697053	0.121198
C35	C	1.183681	0.773283	0.121194
C36	C	1.054394	0.773280	0.207596
C37	C	1.054390	0.697052	0.207594
C38	C	1.119039	0.658943	0.164396
C39	C	1.124231	-0.065938	-0.075594
C40	C	1.122773	-0.065943	-0.148134
C41	C	1.122038	0.000066	-0.184418
C42	C	1.122737	0.066086	-0.148156
C43	C	1.124186	0.066090	-0.075618
C44	C	1.175238	0.050637	-0.301234
C45	C	1.173795	0.050631	-0.373771
C46	C	1.117567	0.000058	-0.408152
C47	C	1.062793	-0.050521	-0.369986
C48	C	1.064242	-0.050518	-0.297447
C49	C	1.120467	0.000070	-0.263074
C50	C	1.115280	-0.065964	-0.523060
C51	C	1.113816	-0.065967	-0.595601
C52	C	1.113790	0.066065	-0.595623
C53	C	1.115244	0.066066	-0.523083
C54	C	1.115994	0.000049	-0.486806
C55	C	1.111543	0.000050	0.290917
C56	C	1.113080	0.000043	0.368119
H57	H	0.621007	0.000049	0.246280
H58	H	1.115825	0.119819	-0.493566
C59	C	0.606147	0.000064	0.063576
N60	N	0.574655	0.000065	0.008713
H61	H	1.095991	0.569181	0.277733
H62	H	1.236262	0.195812	0.086011
H63	H	1.236274	0.334100	0.086011
H64	H	1.001752	0.666022	0.242767
H65	H	1.142053	0.430935	0.051051
C66	C	1.145691	0.580120	0.033202
N67	N	1.156210	0.611709	-0.018556
C68	C	1.254787	0.655131	0.073673
N69	N	1.308343	0.623558	0.037875
C70	C	1.254786	0.815202	0.073664
N71	N	1.308339	0.846776	0.037860
H72	H	1.001765	0.804313	0.242769
C73	C	1.092340	0.420003	0.295582
N74	N	1.081819	0.388419	0.347343
C75	C	0.983238	0.344994	0.255099
N76	N	0.929680	0.376575	0.290888
C77	C	1.125047	-0.138558	-0.035694
N78	N	1.125659	-0.193257	-0.005639
C79	C	0.983248	0.184918	0.255126
N80	N	0.929726	0.153342	0.290953
C81	C	1.234043	0.106271	-0.415747
N82	N	1.279421	0.148182	-0.447361
H83	H	1.122194	-0.119700	-0.177657
C84	C	1.003984	-0.106148	-0.255467
N85	N	0.958593	-0.148047	-0.223848
H86	H	1.017007	-0.091703	-0.397976
H87	H	1.115885	-0.119719	-0.493522
H88	H	1.113238	-0.119724	-0.625117
C89	C	1.112981	0.138677	-0.635532
N90	N	1.112371	0.193370	-0.665594
C91	C	1.237101	0.106273	-0.263423
N92	N	1.283697	0.148175	-0.234945
H93	H	1.122136	0.119832	-0.177704
C94	C	1.124966	0.138711	-0.035738
N95	N	1.125557	0.193410	-0.005700
