data_functionalizedCrystal
_audit_creation_method	'MofGen! by Chris Wilmer'
_symmetry_space_group_name_H-M	'P1'
_symmetry_Int_Tables_number	1
_symmetry_cell_setting	triclinic
loop_
_symmetry_equiv_pos_as_xyz
  x,y,z
_cell_length_a	21.295418
_cell_length_b	25.639233
_cell_length_c	21.295418
_cell_angle_alpha	90.016707
_cell_angle_beta	89.955800
_cell_angle_gamma	89.967403
loop_
_atom_site_label
_atom_site_type_symbol
_atom_site_fract_x
_atom_site_fract_y
_atom_site_fract_z
Zn1	Zn	0.962296	-0.295895	0.250420
Zn2	Zn	1.212296	-0.045895	0.500420
Zn3	Zn	1.462296	0.204105	0.750420
Zn4	Zn	1.712296	0.454105	1.000420
Zn5	Zn	0.962223	-0.208463	0.355671
Zn6	Zn	1.212223	0.041537	0.605671
Zn7	Zn	1.462223	0.291537	0.855671
Zn8	Zn	1.712223	0.541537	1.105671
Zn9	Zn	0.857039	-0.208443	0.250448
Zn10	Zn	1.107039	0.041557	0.500448
Zn11	Zn	1.357039	0.291557	0.750448
Zn12	Zn	1.607039	0.541557	1.000448
Zn13	Zn	0.856992	-0.295837	0.355684
Zn14	Zn	1.106992	-0.045837	0.605684
Zn15	Zn	1.356992	0.204163	0.855684
Zn16	Zn	1.606992	0.454163	1.105684
O17	O	0.909638	-0.252160	0.303056
O18	O	1.159638	-0.002160	0.553056
O19	O	1.409638	0.247840	0.803056
O20	O	1.659638	0.497840	1.053056
O21	O	1.050375	-0.284330	0.264364
O22	O	1.300375	-0.034330	0.514364
O23	O	1.550375	0.215670	0.764364
O24	O	1.800375	0.465670	1.014364
O25	O	0.948259	-0.135295	0.341718
O26	O	1.198259	0.114705	0.591718
O27	O	1.448259	0.364705	0.841718
O28	O	1.698259	0.614705	1.091718
O29	O	0.871052	-0.220061	0.162355
O30	O	1.121052	0.029939	0.412355
O31	O	1.371052	0.279939	0.662355
O32	O	1.621052	0.529939	0.912355
O33	O	1.050322	-0.220093	0.341691
O34	O	1.300322	0.029907	0.591691
O35	O	1.550322	0.279907	0.841691
O36	O	1.800322	0.529907	1.091691
O37	O	0.948384	-0.284311	0.162334
O38	O	1.198384	-0.034311	0.412334
O39	O	1.448384	0.215689	0.662334
O40	O	1.698384	0.465689	0.912334
O41	O	0.870981	-0.135281	0.264412
O42	O	1.120981	0.114719	0.514412
O43	O	1.370981	0.364719	0.764412
O44	O	1.620981	0.614719	1.014412
O45	O	0.768944	-0.220004	0.264426
O46	O	1.018944	0.029996	0.514426
O47	O	1.268944	0.279996	0.764426
O48	O	1.518944	0.529996	1.014426
O49	O	0.870972	-0.369010	0.341715
O50	O	1.120972	-0.119010	0.591715
O51	O	1.370972	0.130990	0.841715
O52	O	1.620972	0.380990	1.091715
O53	O	0.768909	-0.284211	0.341742
O54	O	1.018909	-0.034211	0.591742
O55	O	1.268909	0.215789	0.841742
O56	O	1.518909	0.465789	1.091742
O57	O	0.948338	-0.369053	0.264378
O58	O	1.198338	-0.119053	0.514378
O59	O	1.448338	0.130947	0.764378
O60	O	1.698338	0.380947	1.014378
O61	O	0.948213	-0.220037	0.443762
O62	O	1.198213	0.029963	0.693762
O63	O	1.448213	0.279963	0.943762
O64	O	1.698213	0.529963	1.193762
O65	O	0.870901	-0.284230	0.443772
O66	O	1.120901	-0.034230	0.693772
O67	O	1.370901	0.215770	0.943772
O68	O	1.620901	0.465770	1.193772
C69	C	0.746086	-0.252099	0.303089
C70	C	0.996086	-0.002099	0.553089
C71	C	1.246086	0.247901	0.803089
C72	C	1.496086	0.497901	1.053089
C73	C	0.676118	-0.252086	0.303118
C74	C	0.926118	-0.002086	0.553118
C75	C	1.176118	0.247914	0.803118
C76	C	1.426118	0.497914	1.053118
C77	C	0.909658	-0.388533	0.303045
C78	C	1.159658	-0.138533	0.553045
C79	C	1.409658	0.111467	0.803045
C80	C	1.659658	0.361467	1.053045
C81	C	0.909666	-0.446647	0.303040
C82	C	1.159666	-0.196647	0.553040
C83	C	1.409666	0.053353	0.803040
C84	C	1.659666	0.303353	1.053040
C85	C	0.643250	-0.285469	0.343430
C86	C	0.893250	-0.035469	0.593430
C87	C	1.143250	0.214531	0.843430
C88	C	1.393250	0.464531	1.093430
C89	C	0.577507	-0.285492	0.343415
C90	C	0.827507	-0.035492	0.593415
C91	C	1.077507	0.214508	0.843415
C92	C	1.327507	0.464508	1.093415
C93	C	0.544635	-0.252124	0.303094
C94	C	0.794635	-0.002124	0.553094
C95	C	1.044635	0.247876	0.803094
C96	C	1.294635	0.497876	1.053094
C97	C	0.577511	-0.218738	0.262774
C98	C	0.827511	0.031262	0.512774
C99	C	1.077511	0.281262	0.762774
C100	C	1.327511	0.531262	1.012774
C101	C	0.643253	-0.218720	0.262786
C102	C	0.893253	0.031280	0.512786
C103	C	1.143253	0.281280	0.762786
C104	C	1.393253	0.531280	1.012786
N105	N	0.441370	-0.206394	0.298166
N106	N	0.691370	0.043606	0.548166
N107	N	0.941370	0.293606	0.798166
N108	N	1.191370	0.543606	1.048166
N109	N	0.378918	-0.206413	0.298158
N110	N	0.628918	0.043587	0.548158
N111	N	0.878918	0.293587	0.798158
N112	N	1.128918	0.543587	1.048158
C113	C	0.346561	-0.252179	0.303054
C114	C	0.596561	-0.002179	0.553054
C115	C	0.846561	0.247821	0.803054
C116	C	1.096561	0.497821	1.053054
N117	N	0.379013	-0.297926	0.307970
N118	N	0.629013	-0.047926	0.557970
N119	N	0.879013	0.202074	0.807970
N120	N	1.129013	0.452074	1.057970
N121	N	0.441471	-0.297906	0.307981
N122	N	0.691471	-0.047906	0.557981
N123	N	0.941471	0.202094	0.807981
N124	N	1.191471	0.452094	1.057981
C125	C	0.473350	-0.252141	0.303076
C126	C	0.723350	-0.002141	0.553076
C127	C	0.973350	0.247859	0.803076
C128	C	1.223350	0.497859	1.053076
C129	C	0.242407	-0.285590	0.343351
C130	C	0.492407	-0.035590	0.593351
C131	C	0.742407	0.214410	0.843351
C132	C	0.992407	0.464410	1.093351
C133	C	0.176663	-0.285615	0.343331
C134	C	0.426663	-0.035615	0.593331
C135	C	0.676663	0.214385	0.843331
C136	C	0.926663	0.464385	1.093331
C137	C	0.176669	-0.218856	0.262694
C138	C	0.426669	0.031144	0.512694
C139	C	0.676669	0.281144	0.762694
C140	C	0.926669	0.531144	1.012694
C141	C	0.242411	-0.218836	0.262710
C142	C	0.492411	0.031164	0.512710
C143	C	0.742411	0.281164	0.762710
C144	C	0.992411	0.531164	1.012710
C145	C	0.275276	-0.252203	0.303042
C146	C	0.525276	-0.002203	0.553042
C147	C	0.775276	0.247797	0.803042
C148	C	1.025276	0.497797	1.053042
C149	C	0.950002	-0.807038	0.262651
C150	C	1.200002	-0.557038	0.512651
C151	C	1.450002	-0.307038	0.762651
C152	C	1.700002	-0.057038	1.012651
C153	C	0.950010	-0.861642	0.262634
C154	C	1.200010	-0.611642	0.512634
C155	C	1.450010	-0.361642	0.762634
C156	C	1.700010	-0.111642	1.012634
O157	O	0.984254	-0.889903	0.228367
O158	O	1.234254	-0.639903	0.478367
O159	O	1.484254	-0.389903	0.728367
O160	O	1.734254	-0.139903	0.978367
N161	N	0.909736	-0.888929	0.302892
N162	N	1.159736	-0.638929	0.552892
N163	N	1.409736	-0.388929	0.802892
N164	N	1.659736	-0.138929	1.052892
C165	C	0.869447	-0.861609	0.343167
C166	C	1.119447	-0.611609	0.593167
C167	C	1.369447	-0.361609	0.843167
C168	C	1.619447	-0.111609	1.093167
O169	O	0.835191	-0.889833	0.377408
O170	O	1.085191	-0.639833	0.627408
O171	O	1.335191	-0.389833	0.877408
O172	O	1.585191	-0.139833	1.127408
C173	C	0.869436	-0.807006	0.343181
C174	C	1.119436	-0.557006	0.593181
C175	C	1.369436	-0.307006	0.843181
C176	C	1.619436	-0.057006	1.093181
C177	C	0.909718	-0.779722	0.302924
C178	C	1.159718	-0.529722	0.552924
C179	C	1.409718	-0.279722	0.802924
C180	C	1.659718	-0.029722	1.052924
C181	C	0.990279	-0.779754	0.222397
C182	C	1.240279	-0.529754	0.472397
C183	C	1.490279	-0.279754	0.722397
C184	C	1.740279	-0.029754	0.972397
C185	C	0.990272	-0.725153	0.222415
C186	C	1.240272	-0.475153	0.472415
C187	C	1.490272	-0.225153	0.722415
C188	C	1.740272	0.024847	0.972415
C189	C	0.949988	-0.697837	0.262688
C190	C	1.199988	-0.447837	0.512688
C191	C	1.449988	-0.197837	0.762688
C192	C	1.699988	0.052163	1.012688
C193	C	0.909710	-0.725121	0.302942
C194	C	1.159710	-0.475121	0.552942
C195	C	1.409710	-0.225121	0.802942
C196	C	1.659710	0.024879	1.052942
C197	C	0.829145	-0.779687	0.383452
C198	C	1.079145	-0.529687	0.633452
C199	C	1.329145	-0.279687	0.883452
C200	C	1.579145	-0.029687	1.133452
C201	C	0.829138	-0.725080	0.383461
C202	C	1.079138	-0.475080	0.633461
C203	C	1.329138	-0.225080	0.883461
C204	C	1.579138	0.024920	1.133461
C205	C	0.869419	-0.697795	0.343204
C206	C	1.119419	-0.447795	0.593204
C207	C	1.369419	-0.197795	0.843204
C208	C	1.619419	0.052205	1.093204
C209	C	0.869419	-0.643204	0.343233
C210	C	1.119419	-0.393204	0.593233
C211	C	1.369419	-0.143204	0.843233
C212	C	1.619419	0.106796	1.093233
N213	N	0.909693	-0.615917	0.302974
N214	N	1.159693	-0.365917	0.552974
N215	N	1.409693	-0.115917	0.802974
N216	N	1.659693	0.134083	1.052974
C217	C	0.949977	-0.643233	0.262701
C218	C	1.199977	-0.393233	0.512701
C219	C	1.449977	-0.143233	0.762701
C220	C	1.699977	0.106767	1.012701
C221	C	0.869471	-0.976280	0.343134
C222	C	1.119471	-0.726280	0.593134
C223	C	1.369471	-0.476280	0.843134
C224	C	1.619471	-0.226280	1.093134
C225	C	0.869484	-1.030882	0.343124
C226	C	1.119484	-0.780882	0.593124
C227	C	1.369484	-0.530882	0.843124
C228	C	1.619484	-0.280882	1.093124
C229	C	0.950047	-1.030912	0.262590
C230	C	1.200047	-0.780912	0.512590
C231	C	1.450047	-0.530912	0.762590
C232	C	1.700047	-0.280912	1.012590
C233	C	0.950036	-0.976308	0.262603
C234	C	1.200036	-0.726308	0.512603
C235	C	1.450036	-0.476308	0.762603
C236	C	1.700036	-0.226308	1.012603
C237	C	0.909745	-0.948993	0.302875
C238	C	1.159745	-0.698993	0.552875
C239	C	1.409745	-0.448993	0.802875
C240	C	1.659745	-0.198993	1.052875
C241	C	0.949960	-0.528568	0.262744
C242	C	1.199960	-0.278568	0.512744
C243	C	1.449960	-0.028568	0.762744
C244	C	1.699960	0.221432	1.012744
C245	C	0.949951	-0.473963	0.262767
C246	C	1.199951	-0.223963	0.512767
C247	C	1.449951	0.026037	0.762767
C248	C	1.699951	0.276037	1.012767
C249	C	0.869387	-0.473938	0.343299
C250	C	1.119387	-0.223938	0.593299
C251	C	1.369387	0.026062	0.843299
C252	C	1.619387	0.276062	1.093299
C253	C	0.869398	-0.528539	0.343278
C254	C	1.119398	-0.278539	0.593278
C255	C	1.369398	-0.028539	0.843278
C256	C	1.619398	0.221461	1.093278
C257	C	0.909686	-0.555853	0.302995
C258	C	1.159686	-0.305853	0.552995
C259	C	1.409686	-0.055853	0.802995
C260	C	1.659686	0.194147	1.052995
O261	O	0.835191	-0.614909	0.377480
O262	O	1.085191	-0.364909	0.627480
O263	O	1.335191	-0.114909	0.877480
O264	O	1.585191	0.135091	1.127480
O265	O	0.984222	-0.615003	0.228460
O266	O	1.234222	-0.365003	0.478460
O267	O	1.484222	-0.115003	0.728460
O268	O	1.734222	0.134997	0.978460
C269	C	1.073828	-0.252220	0.303023
C270	C	1.323828	-0.002220	0.553023
C271	C	1.573828	0.247780	0.803023
C272	C	1.823828	0.497780	1.053023
C273	C	1.143796	-0.252246	0.303009
C274	C	1.393796	-0.002246	0.553009
C275	C	1.643796	0.247754	0.803009
C276	C	1.893796	0.497754	1.053009
C277	C	0.909561	-0.252140	0.466607
C278	C	1.159561	-0.002140	0.716607
C279	C	1.409561	0.247860	0.966607
C280	C	1.659561	0.497860	1.216607
C281	C	0.909586	-0.252150	0.536576
C282	C	1.159586	-0.002150	0.786576
C283	C	1.409586	0.247850	1.036576
C284	C	1.659586	0.497850	1.286576
C285	C	0.909654	-0.116317	0.303021
C286	C	1.159654	0.133683	0.553021
C287	C	1.409654	0.383683	0.803021
C288	C	1.659654	0.633683	1.053021
C289	C	0.909767	-0.058203	0.302849
C290	C	1.159767	0.191797	0.552849
C291	C	1.409767	0.441797	0.802849
C292	C	1.659767	0.691797	1.052849
C293	C	0.909731	-0.252190	0.138866
C294	C	1.159731	-0.002190	0.388866
C295	C	1.409731	0.247810	0.638866
C296	C	1.659731	0.497810	0.888866
C297	C	0.909771	-0.252203	0.068897
C298	C	1.159771	-0.002203	0.318897
C299	C	1.409771	0.247797	0.568897
C300	C	1.659771	0.497797	0.818897
C301	C	0.949982	-0.285682	1.035969
C302	C	1.199982	-0.035682	1.285969
C303	C	1.449982	0.214318	1.535969
C304	C	1.699982	0.464318	1.785969
C305	C	0.949964	-0.285674	0.970227
C306	C	1.199964	-0.035674	1.220227
C307	C	1.449964	0.214326	1.470227
C308	C	1.699964	0.464326	1.720227
C309	C	0.909723	-0.252192	0.937415
C310	C	1.159723	-0.002192	1.187415
C311	C	1.409723	0.247808	1.437415
C312	C	1.659723	0.497808	1.687415
C313	C	0.869510	-0.218707	0.970351
C314	C	1.119510	0.031293	1.220351
C315	C	1.369510	0.281293	1.470351
C316	C	1.619510	0.531293	1.720351
C317	C	0.869534	-0.218713	1.036092
C318	C	1.119534	0.031287	1.286092
C319	C	1.369534	0.281287	1.536092
C320	C	1.619534	0.531287	1.786092
N321	N	0.854587	-0.248115	0.834260
N322	N	1.104587	0.001885	1.084260
N323	N	1.354587	0.251885	1.334260
N324	N	1.604587	0.501885	1.584260
N325	N	0.854566	-0.248112	0.771808
N326	N	1.104566	0.001888	1.021808
N327	N	1.354566	0.251888	1.271808
N328	N	1.604566	0.501888	1.521808
C329	C	0.909649	-0.252173	0.739340
C330	C	1.159649	-0.002173	0.989340
C331	C	1.409649	0.247827	1.239340
C332	C	1.659649	0.497827	1.489340
N333	N	0.964756	-0.256245	0.771683
N334	N	1.214756	-0.006245	1.021683
N335	N	1.464756	0.243755	1.271683
N336	N	1.714756	0.493755	1.521683
N337	N	0.964776	-0.256250	0.834140
N338	N	1.214776	-0.006250	1.084140
N339	N	1.464776	0.243750	1.334140
N340	N	1.714776	0.493750	1.584140
C341	C	0.909693	-0.252182	0.866130
C342	C	1.159693	-0.002182	1.116130
C343	C	1.409693	0.247818	1.366130
C344	C	1.659693	0.497818	1.616130
C345	C	0.949844	-0.285644	0.635127
C346	C	1.199844	-0.035644	0.885127
C347	C	1.449844	0.214356	1.135127
C348	C	1.699844	0.464356	1.385127
C349	C	0.949826	-0.285632	0.569383
C350	C	1.199826	-0.035632	0.819383
C351	C	1.449826	0.214368	1.069383
C352	C	1.699826	0.464368	1.319383
C353	C	0.869366	-0.218668	0.569508
C354	C	1.119366	0.031332	0.819508
C355	C	1.369366	0.281332	1.069508
C356	C	1.619366	0.531332	1.319508
C357	C	0.869389	-0.218678	0.635251
C358	C	1.119389	0.031322	0.885251
C359	C	1.369389	0.281322	1.135251
C360	C	1.619389	0.531322	1.385251
C361	C	0.909627	-0.252168	0.668056
C362	C	1.159627	-0.002168	0.918056
C363	C	1.409627	0.247832	1.168056
C364	C	1.659627	0.497832	1.418056
H365	H	0.670004	-0.312639	0.376271
H366	H	0.920004	-0.062639	0.626271
H367	H	1.170004	0.187361	0.876271
H368	H	1.420004	0.437361	1.126271
H369	H	0.982755	-0.451750	0.229985
H370	H	1.232755	-0.201750	0.479985
H371	H	1.482755	0.048250	0.729985
H372	H	1.732755	0.298250	0.979985
H373	H	0.836604	-0.191405	0.542793
H374	H	1.086604	0.058595	0.792793
H375	H	1.336604	0.308595	1.042793
H376	H	1.586604	0.558595	1.292793
Br377	Br	0.132055	-0.330929	0.398040
Br378	Br	0.382055	-0.080929	0.648040
Br379	Br	0.632055	0.169071	0.898040
Br380	Br	0.882055	0.419071	1.148040
Br381	Br	0.814827	-1.067904	0.397773
Br382	Br	1.064827	-0.817904	0.647773
Br383	Br	1.314827	-0.567904	0.897773
Br384	Br	1.564827	-0.317904	1.147773
Br385	Br	1.004633	-0.565628	0.208069
Br386	Br	1.254633	-0.315628	0.458069
Br387	Br	1.504633	-0.065628	0.708069
Br388	Br	1.754633	0.184372	0.958069
H389	H	0.836590	-0.451688	0.376090
H390	H	1.086590	-0.201688	0.626090
H391	H	1.336590	0.048312	0.876090
H392	H	1.586590	0.298312	1.126090
Br393	Br	0.814811	-0.173242	0.679942
Br394	Br	1.064811	0.076758	0.929942
Br395	Br	1.314811	0.326758	1.179942
Br396	Br	1.564811	0.576758	1.429942
H397	H	0.796344	-0.801892	0.416233
H398	H	1.046344	-0.551892	0.666233
H399	H	1.296344	-0.301892	0.916233
H400	H	1.546344	-0.051892	1.166233
H401	H	0.149905	-0.191689	0.229861
H402	H	0.399905	0.058311	0.479861
H403	H	0.649905	0.308311	0.729861
H404	H	0.899905	0.558311	0.979861
Br405	Br	1.004719	-1.067994	0.207933
Br406	Br	1.254719	-0.817994	0.457933
Br407	Br	1.504719	-0.567994	0.707933
Br408	Br	1.754719	-0.317994	0.957933
H409	H	0.550740	-0.312679	0.376241
H410	H	0.800740	-0.062679	0.626241
H411	H	1.050740	0.187321	0.876241
H412	H	1.300740	0.437321	1.126241
H413	H	0.796320	-0.702842	0.416250
H414	H	1.046320	-0.452842	0.666250
H415	H	1.296320	-0.202842	0.916250
H416	H	1.546320	0.047158	1.166250
Br417	Br	1.044939	-0.688133	0.167774
Br418	Br	1.294939	-0.438133	0.417774
Br419	Br	1.544939	-0.188133	0.667774
Br420	Br	1.794939	0.061867	0.917774
Br421	Br	1.004457	-0.331089	0.679652
Br422	Br	1.254457	-0.081089	0.929652
Br423	Br	1.504457	0.168911	1.179652
Br424	Br	1.754457	0.418911	1.429652
H425	H	0.550743	-0.191570	0.229943
H426	H	0.800743	0.058430	0.479943
H427	H	1.050743	0.308430	0.729943
H428	H	1.300743	0.558430	0.979943
Br429	Br	0.814789	-0.939215	0.397798
Br430	Br	1.064789	-0.689215	0.647798
Br431	Br	1.314789	-0.439215	0.897798
Br432	Br	1.564789	-0.189215	1.147798
H433	H	0.836603	-0.550755	0.376064
H434	H	1.086603	-0.300755	0.626064
H435	H	1.336603	-0.050755	0.876064
H436	H	1.586603	0.199245	1.126064
H437	H	0.982752	-0.312948	1.062676
H438	H	1.232752	-0.062948	1.312676
H439	H	1.482752	0.187052	1.562676
H440	H	1.732752	0.437052	1.812676
H441	H	0.269167	-0.312762	0.376189
H442	H	0.519167	-0.062762	0.626189
H443	H	0.769167	0.187238	0.876189
H444	H	1.019167	0.437238	1.126189
Br445	Br	1.044966	-0.816815	0.167741
Br446	Br	1.294966	-0.566815	0.417741
Br447	Br	1.544966	-0.316815	0.667741
Br448	Br	1.794966	-0.066815	0.917741
Br449	Br	0.814901	-0.173264	0.925822
Br450	Br	1.064901	0.076736	1.175822
Br451	Br	1.314901	0.326736	1.425822
Br452	Br	1.564901	0.576736	1.675822
Br453	Br	0.687863	-0.173412	0.208071
Br454	Br	0.937863	0.076588	0.458071
Br455	Br	1.187863	0.326588	0.708071
Br456	Br	1.437863	0.576588	0.958071
Br457	Br	0.287021	-0.173528	0.207998
Br458	Br	0.537021	0.076472	0.457998
Br459	Br	0.787021	0.326472	0.707998
Br460	Br	1.037021	0.576472	0.957998
Br461	Br	1.004541	-0.331111	0.925529
Br462	Br	1.254541	-0.081111	1.175529
Br463	Br	1.504541	0.168889	1.425529
Br464	Br	1.754541	0.418889	1.675529
H465	H	0.982836	-0.954097	0.229821
H466	H	1.232836	-0.704097	0.479821
H467	H	1.482836	-0.454097	0.729821
H468	H	1.732836	-0.204097	0.979821
H469	H	0.836788	-0.191450	1.062902
H470	H	1.086788	0.058550	1.312902
H471	H	1.336788	0.308550	1.562902
H472	H	1.586788	0.558550	1.812902
H473	H	0.982574	-0.312893	0.542573
H474	H	1.232574	-0.062893	0.792573
H475	H	1.482574	0.187107	1.042573
H476	H	1.732574	0.437107	1.292573
