data_functionalizedCrystal
_audit_creation_method	'MofGen! by Chris Wilmer'
_symmetry_space_group_name_H-M	'P1'
_symmetry_Int_Tables_number	1
_symmetry_cell_setting	triclinic
loop_
_symmetry_equiv_pos_as_xyz
  x,y,z
_cell_length_a	16.109301
_cell_length_b	8.965430
_cell_length_c	16.109301
_cell_angle_alpha	90.000690
_cell_angle_beta	83.461532
_cell_angle_gamma	89.994369
loop_
_atom_site_label
_atom_site_type_symbol
_atom_site_fract_x
_atom_site_fract_y
_atom_site_fract_z
O1	O	1.103123	0.123945	0.106863
O2	O	1.603123	0.623945	0.606863
O3	O	0.861062	0.123969	0.120162
O4	O	1.361062	0.623969	0.620162
O5	O	0.988742	0.123946	-0.007518
O6	O	1.488742	0.623946	0.492482
O7	O	0.975443	0.123967	0.234544
O8	O	1.475443	0.623967	0.734544
O9	O	0.988748	-0.124132	-0.007514
O10	O	1.488748	0.375868	0.492486
O11	O	0.861067	-0.124110	0.120166
O12	O	1.361067	0.375890	0.620166
O13	O	1.103129	-0.124134	0.106867
O14	O	1.603129	0.375866	0.606867
Cu15	Cu	0.982099	-0.146774	0.113517
Cu16	Cu	1.482099	0.353226	0.613517
Cu17	Cu	0.982092	0.146608	0.113512
Cu18	Cu	1.482092	0.646608	0.613512
O19	O	0.975449	-0.124111	0.234548
O20	O	1.475449	0.375889	0.734548
C21	C	0.830090	-0.000068	0.119626
C22	C	1.330090	0.499932	0.619626
C23	C	0.737794	-0.000059	0.118011
C24	C	1.237794	0.499941	0.618011
C25	C	0.515522	-0.000070	0.190018
C26	C	1.015522	0.499930	0.690018
C27	C	0.428802	-0.000080	0.188494
C28	C	0.928802	0.499920	0.688494
C29	C	0.448676	-0.000087	0.037006
C30	C	0.948676	0.499913	0.537006
C31	C	0.535395	-0.000087	0.038530
C32	C	1.035395	0.499913	0.538530
C33	C	0.568815	-0.000072	0.115039
C34	C	1.068815	0.499928	0.615039
C35	C	0.395376	-0.000080	0.111990
C36	C	0.895376	0.499920	0.611990
C37	C	0.301350	-0.000091	0.110337
C38	C	0.801350	0.499909	0.610337
C39	C	0.662847	-0.000064	0.116693
C40	C	1.162847	0.499936	0.616693
N41	N	0.982110	-0.353123	0.113520
N42	N	1.482110	0.146877	0.613520
C43	C	1.041177	-0.450399	0.054476
C44	C	1.541177	0.049601	0.554476
C45	C	0.966052	-0.549798	0.038348
C46	C	1.466052	-0.049798	0.538348
C47	C	1.057206	-0.549851	0.129594
C48	C	1.557206	-0.049851	0.629594
C49	C	0.906948	-0.450332	0.097355
C50	C	1.406948	0.049668	0.597355
C51	C	0.998150	-0.450377	0.188634
C52	C	1.498150	0.049623	0.688634
C53	C	0.922971	-0.549731	0.172538
C54	C	1.422971	-0.049731	0.672538
C55	C	1.134101	-0.000094	0.107404
C56	C	1.634101	0.499906	0.607404
C57	C	1.226397	-0.000093	0.109019
C58	C	1.726397	0.499907	0.609019
C59	C	0.988206	-0.000092	-0.038491
C60	C	1.488206	0.499908	0.461509
C61	C	0.986591	-0.000090	-0.130786
C62	C	1.486591	0.499910	0.369214
N63	N	0.982088	0.352958	0.113503
N64	N	1.482088	0.852958	0.613503
C65	C	1.057074	-0.000071	-0.439785
C66	C	1.557074	0.499929	0.060215
C67	C	1.058600	-0.000080	-0.353064
C68	C	1.558600	0.499920	0.146936
C69	C	0.907111	-0.000085	-0.333191
C70	C	1.407111	0.499915	0.166809
C71	C	0.905586	-0.000087	-0.419910
C72	C	1.405586	0.499913	0.080090
C73	C	0.980571	-0.000073	-0.473205
C74	C	1.480571	0.499927	0.026795
C75	C	0.983620	-0.000079	-0.299766
C76	C	1.483620	0.499921	0.200234
C77	C	0.985274	-0.000089	-0.205740
C78	C	1.485274	0.499911	0.294260
C79	C	0.978917	-0.000066	-0.567237
C80	C	1.478917	0.499934	-0.067237
C81	C	0.975985	-0.000069	0.265521
C82	C	1.475985	0.499931	0.765521
C83	C	0.977600	-0.000062	0.357816
C84	C	1.477600	0.499938	0.857816
H85	H	0.421454	-0.000108	-0.025285
H86	H	0.921454	0.499892	0.474715
Br87	Br	1.162430	-0.000078	-0.307712
Br88	Br	1.662430	0.499922	0.192288
Br89	Br	0.356477	-0.000085	0.290256
Br90	Br	0.856477	0.499915	0.790256
Br91	Br	1.124355	-0.377698	-0.028784
Br92	Br	1.624355	0.122302	0.471216
H93	H	0.846062	-0.000093	-0.289788
H94	H	1.346062	0.499907	0.210212
H95	H	0.843284	-0.000095	-0.447120
H96	H	1.343284	0.499905	0.052880
H97	H	0.843416	-0.406802	0.083680
H98	H	1.343416	0.093198	0.583680
H99	H	0.542730	-0.000068	0.252317
H100	H	1.042730	0.499932	0.752317
H101	H	0.578788	-0.000093	-0.022530
H102	H	1.078788	0.499907	0.477470
H103	H	0.952470	-0.593469	-0.025181
H104	H	1.452470	-0.093469	0.474819
Br105	Br	0.839615	-0.621972	0.255757
Br106	Br	1.339615	-0.121972	0.755757
Br107	Br	1.020828	-0.377524	0.294488
Br108	Br	1.520828	0.122476	0.794488
Br109	Br	1.158838	-0.000055	-0.512111
Br110	Br	1.658838	0.499945	-0.012111
Br111	Br	1.163067	-0.622726	0.152265
Br112	Br	1.663067	-0.122726	0.652265
