data_functionalizedCrystal
_audit_creation_method	'MofGen! by Chris Wilmer'
_symmetry_space_group_name_H-M	'P1'
_symmetry_Int_Tables_number	1
_symmetry_cell_setting	triclinic
loop_
_symmetry_equiv_pos_as_xyz
  x,y,z
_cell_length_a	6.394989
_cell_length_b	16.992694
_cell_length_c	15.455313
_cell_angle_alpha	87.142206
_cell_angle_beta	92.745973
_cell_angle_gamma	88.582967
loop_
_atom_site_label
_atom_site_type_symbol
_atom_site_fract_x
_atom_site_fract_y
_atom_site_fract_z
O1	O	0.435072	1.048122	-0.072012
O2	O	0.935072	1.548122	0.427988
O3	O	0.430202	0.819790	-0.072038
O4	O	0.930202	1.319790	0.427962
O5	O	0.129113	0.937197	-0.072025
O6	O	0.629113	1.437197	0.427975
O7	O	0.736160	0.930715	-0.072024
O8	O	1.236160	1.430715	0.427976
O9	O	0.146255	0.930482	0.072236
O10	O	0.646255	1.430482	0.572236
O11	O	0.447344	0.813075	0.072224
O12	O	0.947344	1.313075	0.572224
O13	O	0.452214	1.041407	0.072249
O14	O	0.952214	1.541407	0.572249
Cu15	Cu	0.451344	0.926628	0.085409
Cu16	Cu	0.951344	1.426628	0.585409
Cu17	Cu	0.431071	0.934569	-0.085197
Cu18	Cu	0.931071	1.434569	0.414803
O19	O	0.753302	0.924000	0.072237
O20	O	1.253302	1.424000	0.572237
C21	C	0.432511	0.787158	0.000090
C22	C	0.932511	1.287158	0.500090
C23	C	0.413829	0.699930	0.000079
C24	C	0.913829	1.199930	0.500079
C25	C	0.594077	0.651470	0.000080
C26	C	1.094077	1.151470	0.500080
C27	C	0.576513	0.569510	0.000092
C28	C	1.076513	1.069510	0.500092
C29	C	0.378698	0.536010	0.000097
C30	C	0.878698	1.036010	0.500097
C31	C	0.198437	0.584476	0.000099
C32	C	0.698437	1.084476	0.500099
C33	C	0.216003	0.666434	0.000093
C34	C	0.716003	1.166434	0.500093
C35	C	0.305891	0.291692	0.000120
C36	C	0.805891	0.791692	0.500120
C37	C	0.288338	0.209727	0.000123
C38	C	0.788338	0.709727	0.500123
C39	C	0.666416	0.194766	0.000119
C40	C	1.166416	0.694766	0.500119
C41	C	0.683964	0.276728	0.000108
C42	C	1.183964	0.776728	0.500108
C43	C	0.503704	0.325186	0.000114
C44	C	1.003704	0.825186	0.500114
N45	N	0.360740	0.452233	0.000107
N46	N	0.860740	0.952233	0.500107
N47	N	0.521664	0.408961	0.000111
N48	N	1.021664	0.908961	0.500111
C49	C	0.822766	0.928639	0.000103
C50	C	1.322766	1.428639	0.500103
C51	C	1.059654	0.932556	0.000100
C52	C	1.559654	1.432556	0.500100
C53	C	0.449904	1.074039	0.000120
C54	C	0.949904	1.574039	0.500120
C55	C	0.468586	1.161267	0.000124
C56	C	0.968586	1.661267	0.500124
N57	N	0.465602	0.921049	0.205404
N58	N	0.965602	1.421049	0.705404
N59	N	0.416798	0.940154	-0.205192
N60	N	0.916798	1.440154	0.294808
C61	C	0.337742	0.970946	0.250803
C62	C	0.837742	1.470946	0.750803
C63	C	0.348545	0.966733	0.341610
C64	C	0.848545	1.466733	0.841610
C65	C	0.487221	0.912628	0.387017
C66	C	0.987221	1.412628	0.887017
C67	C	0.615085	0.862725	0.341611
C68	C	1.115085	1.362725	0.841611
C69	C	0.604270	0.866934	0.250805
C70	C	1.104270	1.366934	0.750805
C71	C	0.533847	0.894461	0.658596
C72	C	1.033847	1.394461	1.158596
C73	C	0.544658	0.890257	0.749409
C74	C	1.044658	1.390257	1.249409
C75	C	0.278114	0.994265	0.749402
C76	C	0.778114	1.494265	1.249402
C77	C	0.267319	0.998472	0.658594
C78	C	0.767319	1.498472	1.158594
C79	C	0.395176	0.948567	0.613196
C80	C	0.895176	1.448567	1.113196
N81	N	0.498271	0.908323	0.479837
N82	N	0.998271	1.408323	0.979837
N83	N	0.384114	0.952869	0.520378
N84	N	0.884114	1.452869	1.020378
H85	H	0.813173	0.155303	0.000115
H86	H	1.313173	0.655303	0.500115
H87	H	0.224828	1.015007	0.213839
H88	H	0.724828	1.515007	0.713839
H89	H	0.845045	0.303997	0.000094
H90	H	1.345045	0.803997	0.500094
H91	H	0.657592	0.846196	0.786374
H92	H	1.157592	1.346196	1.286374
H93	H	0.708384	0.826302	0.213842
H94	H	1.208384	1.326302	0.713842
H95	H	0.244431	1.007363	0.378574
H96	H	0.744431	1.507363	0.878574
H97	H	0.127245	0.182455	0.000126
H98	H	0.627245	0.682455	0.500126
H99	H	0.159109	0.331137	0.000126
H100	H	0.659109	0.831137	0.500126
H101	H	0.037373	0.557193	0.000115
H102	H	0.537373	1.057193	0.500115
H103	H	0.069226	0.705890	0.000092
H104	H	0.569226	1.205890	0.500092
H105	H	0.637958	0.853827	0.621641
H106	H	1.137958	1.353827	1.121641
H107	H	0.154399	1.042529	0.621626
H108	H	0.654399	1.542529	1.121626
H109	H	0.727990	0.818667	0.378586
H110	H	1.227990	1.318667	0.878586
H111	H	0.723291	0.530057	0.000092
H112	H	1.223291	1.030057	0.500092
H113	H	0.755159	0.678739	0.000076
H114	H	1.255159	1.178739	0.500076
H115	H	0.174016	1.034894	0.786373
H116	H	0.674016	1.534894	1.286373
