data_functionalizedCrystal
_audit_creation_method	'MofGen! by Chris Wilmer'
_symmetry_space_group_name_H-M	'P1'
_symmetry_Int_Tables_number	1
_symmetry_cell_setting	triclinic
loop_
_symmetry_equiv_pos_as_xyz
  x,y,z
_cell_length_a	19.805407
_cell_length_b	29.839125
_cell_length_c	19.805405
_cell_angle_alpha	90.017444
_cell_angle_beta	89.976273
_cell_angle_gamma	89.988572
loop_
_atom_site_label
_atom_site_type_symbol
_atom_site_fract_x
_atom_site_fract_y
_atom_site_fract_z
Zn1	Zn	1.034693	-0.253999	0.269607
Zn2	Zn	1.284693	-0.003999	0.519607
Zn3	Zn	1.534693	0.246001	0.769607
Zn4	Zn	1.784693	0.496001	1.019607
Zn5	Zn	1.034620	-0.178870	0.382771
Zn6	Zn	1.284620	0.071130	0.632771
Zn7	Zn	1.534620	0.321130	0.882771
Zn8	Zn	1.784620	0.571130	1.132771
Zn9	Zn	0.921520	-0.178883	0.269596
Zn10	Zn	1.171520	0.071117	0.519596
Zn11	Zn	1.421520	0.321117	0.769596
Zn12	Zn	1.671520	0.571117	1.019596
Zn13	Zn	0.921471	-0.253972	0.382754
Zn14	Zn	1.171471	-0.003972	0.632754
Zn15	Zn	1.421471	0.246028	0.882754
Zn16	Zn	1.671471	0.496028	1.132754
O17	O	0.978076	-0.216431	0.326182
O18	O	1.228076	0.033569	0.576182
O19	O	1.478076	0.283569	0.826182
O20	O	1.728076	0.533569	1.076182
O21	O	1.129400	-0.244039	0.284630
O22	O	1.379400	0.005961	0.534630
O23	O	1.629400	0.255961	0.784630
O24	O	1.879400	0.505961	1.034630
O25	O	1.019608	-0.116004	0.367762
O26	O	1.269608	0.133996	0.617762
O27	O	1.519608	0.383996	0.867762
O28	O	1.769608	0.633996	1.117762
O29	O	0.936584	-0.188864	0.174881
O30	O	1.186584	0.061136	0.424881
O31	O	1.436584	0.311136	0.674881
O32	O	1.686584	0.561136	0.924881
O33	O	1.129347	-0.188842	0.367772
O34	O	1.379347	0.061158	0.617772
O35	O	1.629347	0.311158	0.867772
O36	O	1.879347	0.561158	1.117772
O37	O	1.019731	-0.244052	0.174889
O38	O	1.269731	0.005948	0.424889
O39	O	1.519731	0.255948	0.674889
O40	O	1.769731	0.505948	0.924889
O41	O	0.936513	-0.116014	0.284613
O42	O	1.186513	0.133986	0.534613
O43	O	1.436513	0.383986	0.784613
O44	O	1.686513	0.633986	1.034613
O45	O	0.826797	-0.188838	0.284595
O46	O	1.076797	0.061162	0.534595
O47	O	1.326797	0.311162	0.784595
O48	O	1.576797	0.561162	1.034595
O49	O	0.936500	-0.316843	0.367741
O50	O	1.186500	-0.066843	0.617741
O51	O	1.436500	0.183157	0.867741
O52	O	1.686500	0.433157	1.117741
O53	O	0.826761	-0.244005	0.367731
O54	O	1.076761	0.005995	0.617731
O55	O	1.326761	0.255995	0.867731
O56	O	1.576761	0.505995	1.117731
O57	O	1.019684	-0.316863	0.284612
O58	O	1.269684	-0.066863	0.534612
O59	O	1.519684	0.183137	0.784612
O60	O	1.769684	0.433137	1.034612
O61	O	1.019560	-0.188815	0.477486
O62	O	1.269560	0.061185	0.727486
O63	O	1.519560	0.311185	0.977486
O64	O	1.769560	0.561185	1.227486
O65	O	0.936430	-0.243992	0.477473
O66	O	1.186430	0.006008	0.727473
O67	O	1.436430	0.256008	0.977473
O68	O	1.686430	0.506008	1.227473
C69	C	0.802220	-0.216420	0.326161
C70	C	1.052220	0.033580	0.576161
C71	C	1.302220	0.283580	0.826161
C72	C	1.552220	0.533580	1.076161
C73	C	0.726988	-0.216426	0.326168
C74	C	0.976988	0.033574	0.576168
C75	C	1.226988	0.283574	0.826168
C76	C	1.476988	0.533574	1.076168
C77	C	0.691672	-0.245211	0.282953
C78	C	0.941672	0.004789	0.532953
C79	C	1.191672	0.254789	0.782953
C80	C	1.441672	0.504789	1.032953
C81	C	0.620984	-0.245213	0.282956
C82	C	0.870984	0.004787	0.532956
C83	C	1.120984	0.254787	0.782956
C84	C	1.370984	0.504787	1.032956
C85	C	0.585613	-0.216431	0.326179
C86	C	0.835613	0.033569	0.576179
C87	C	1.085613	0.283569	0.826179
C88	C	1.335613	0.533569	1.076179
C89	C	0.620933	-0.187643	0.369396
C90	C	0.870933	0.062357	0.619396
C91	C	1.120933	0.312357	0.869396
C92	C	1.370933	0.562357	1.119396
C93	C	0.691621	-0.187640	0.369389
C94	C	0.941621	0.062360	0.619389
C95	C	1.191621	0.312360	0.869389
C96	C	1.441621	0.562360	1.119389
C97	C	0.335860	-0.187657	0.369427
C98	C	0.585860	0.062343	0.619427
C99	C	0.835860	0.312343	0.869427
C100	C	1.085860	0.562343	1.119427
C101	C	0.265168	-0.187664	0.369432
C102	C	0.515168	0.062336	0.619432
C103	C	0.765168	0.312336	0.869432
C104	C	1.015168	0.562336	1.119432
C105	C	0.265224	-0.245230	0.282994
C106	C	0.515224	0.004770	0.532994
C107	C	0.765224	0.254770	0.782994
C108	C	1.015224	0.504770	1.032994
C109	C	0.335911	-0.245227	0.282987
C110	C	0.585911	0.004773	0.532987
C111	C	0.835911	0.254773	0.782987
C112	C	1.085911	0.504773	1.032987
C113	C	0.371225	-0.216437	0.326201
C114	C	0.621225	0.033563	0.576201
C115	C	0.871225	0.283563	0.826201
C116	C	1.121225	0.533563	1.076201
C117	C	0.447874	-0.216435	0.326196
C118	C	0.697874	0.033565	0.576196
C119	C	0.947874	0.283565	0.826196
C120	C	1.197874	0.533565	1.076196
C121	C	0.508966	-0.216436	0.326188
C122	C	0.758966	0.033564	0.576188
C123	C	1.008966	0.283564	0.826188
C124	C	1.258966	0.533564	1.076188
C125	C	0.978095	-0.333609	0.326176
C126	C	1.228095	-0.083609	0.576176
C127	C	1.478095	0.166391	0.826176
C128	C	1.728095	0.416391	1.076176
C129	C	0.978102	-0.383544	0.326173
C130	C	1.228102	-0.133544	0.576173
C131	C	1.478102	0.116456	0.826173
C132	C	1.728102	0.366456	1.076173
C133	C	1.021462	-0.693201	0.282775
C134	C	1.271462	-0.443201	0.532775
C135	C	1.521462	-0.193201	0.782775
C136	C	1.771462	0.056799	1.032775
C137	C	1.021495	-0.880874	0.282717
C138	C	1.271495	-0.630874	0.532717
C139	C	1.521495	-0.380874	0.782717
C140	C	1.771495	-0.130874	1.032717
O141	O	1.058310	-0.905150	0.245882
O142	O	1.308310	-0.655150	0.495882
O143	O	1.558310	-0.405150	0.745882
O144	O	1.808310	-0.155150	0.995882
N145	N	0.978192	-0.904329	0.325992
N146	N	1.228192	-0.654329	0.575992
N147	N	1.478192	-0.404329	0.825992
N148	N	1.728192	-0.154329	1.075992
C149	C	0.934874	-0.880863	0.369281
C150	C	1.184874	-0.630863	0.619281
C151	C	1.434874	-0.380863	0.869281
C152	C	1.684874	-0.130863	1.119281
O153	O	0.898038	-0.905119	0.406083
O154	O	1.148038	-0.655119	0.656083
O155	O	1.398038	-0.405119	0.906083
O156	O	1.648038	-0.155119	1.156083
C157	C	0.934838	-0.693191	0.369335
C158	C	1.184838	-0.443191	0.619335
C159	C	1.434838	-0.193191	0.869335
C160	C	1.684838	0.056809	1.119335
C161	C	0.978149	-0.669738	0.326062
C162	C	1.228149	-0.419738	0.576062
C163	C	1.478149	-0.169738	0.826062
C164	C	1.728149	0.080262	1.076062
C165	C	1.064768	-0.669748	0.239505
C166	C	1.314768	-0.419748	0.489505
C167	C	1.564768	-0.169748	0.739505
C168	C	1.814768	0.080252	0.989505
C169	C	1.064762	-0.622833	0.239522
C170	C	1.314762	-0.372833	0.489522
C171	C	1.564762	-0.122833	0.739522
C172	C	1.814762	0.127167	0.989522
C173	C	1.021449	-0.599370	0.282810
C174	C	1.271449	-0.349370	0.532810
C175	C	1.521449	-0.099370	0.782810
C176	C	1.771449	0.150630	1.032810
C177	C	0.978142	-0.622823	0.326080
C178	C	1.228142	-0.372823	0.576080
C179	C	1.478142	-0.122823	0.826080
C180	C	1.728142	0.127177	1.076080
C181	C	0.891517	-0.669726	0.412621
C182	C	1.141517	-0.419726	0.662621
C183	C	1.391517	-0.169726	0.912621
C184	C	1.641517	0.080274	1.162621
C185	C	0.891511	-0.622805	0.412629
C186	C	1.141511	-0.372805	0.662629
C187	C	1.391511	-0.122805	0.912629
C188	C	1.641511	0.127195	1.162629
C189	C	0.934822	-0.599352	0.369356
C190	C	1.184822	-0.349352	0.619356
C191	C	1.434822	-0.099352	0.869356
C192	C	1.684822	0.150648	1.119356
C193	C	0.934823	-0.552444	0.369385
C194	C	1.184823	-0.302444	0.619385
C195	C	1.434823	-0.052444	0.869385
C196	C	1.684823	0.197556	1.119385
N197	N	0.978126	-0.528989	0.326110
N198	N	1.228126	-0.278989	0.576110
N199	N	1.478126	-0.028989	0.826110
N200	N	1.728126	0.221011	1.076110
C201	C	1.021439	-0.552452	0.282822
C202	C	1.271439	-0.302452	0.532822
C203	C	1.521439	-0.052452	0.782822
C204	C	1.771439	0.197548	1.032822
C205	C	0.934898	-0.979394	0.369251
C206	C	1.184898	-0.729394	0.619251
C207	C	1.434898	-0.479394	0.869251
C208	C	1.684898	-0.229394	1.119251
C209	C	0.934907	-1.026312	0.369239
C210	C	1.184907	-0.776312	0.619239
C211	C	1.434907	-0.526312	0.869239
C212	C	1.684907	-0.276312	1.119239
C213	C	1.021527	-1.026319	0.282673
C214	C	1.271527	-0.776319	0.532673
C215	C	1.521527	-0.526319	0.782673
C216	C	1.771527	-0.276319	1.032673
C217	C	1.021521	-0.979400	0.282690
C218	C	1.271521	-0.729400	0.532690
C219	C	1.521521	-0.479400	0.782690
C220	C	1.771521	-0.229400	1.032690
C221	C	0.978201	-0.955939	0.325976
C222	C	1.228201	-0.705939	0.575976
C223	C	1.478201	-0.455939	0.825976
C224	C	1.728201	-0.205939	1.075976
C225	C	1.021423	-0.453926	0.282863
C226	C	1.271423	-0.203926	0.532863
C227	C	1.521423	0.046074	0.782863
C228	C	1.771423	0.296074	1.032863
C229	C	1.021415	-0.407006	0.282886
C230	C	1.271415	-0.157006	0.532886
C231	C	1.521415	0.092994	0.782886
C232	C	1.771415	0.342994	1.032886
C233	C	0.934793	-0.407003	0.369448
C234	C	1.184793	-0.157003	0.619448
C235	C	1.434793	0.092997	0.869448
C236	C	1.684793	0.342997	1.119448
C237	C	0.934803	-0.453918	0.369428
C238	C	1.184803	-0.203918	0.619428
C239	C	1.434803	0.046082	0.869428
C240	C	1.684803	0.296082	1.119428
C241	C	0.978121	-0.477379	0.326130
C242	C	1.228121	-0.227379	0.576130
C243	C	1.478121	0.022621	0.826130
C244	C	1.728121	0.272621	1.076130
O245	O	0.898022	-0.528139	0.406195
O246	O	1.148022	-0.278139	0.656195
O247	O	1.398022	-0.028139	0.906195
O248	O	1.648022	0.221861	1.156195
O249	O	1.058259	-0.528188	0.246016
O250	O	1.308259	-0.278188	0.496016
O251	O	1.558259	-0.028188	0.746016
O252	O	1.808259	0.221812	0.996016
C253	C	1.021468	-0.740116	0.282757
C254	C	1.271468	-0.490116	0.532757
C255	C	1.521468	-0.240116	0.782757
C256	C	1.771468	0.009884	1.032757
C257	C	0.978161	-0.763569	0.326027
C258	C	1.228161	-0.513569	0.576027
C259	C	1.478161	-0.263569	0.826027
C260	C	1.728161	-0.013569	1.076027
C261	C	0.934848	-0.740106	0.369315
C262	C	1.184848	-0.490106	0.619315
C263	C	1.434848	-0.240106	0.869315
C264	C	1.684848	0.009894	1.119315
C265	C	0.978171	-0.810487	0.326015
C266	C	1.228171	-0.560487	0.576015
C267	C	1.478171	-0.310487	0.826015
C268	C	1.728171	-0.060487	1.076015
C269	C	1.021484	-0.833950	0.282728
C270	C	1.271484	-0.583950	0.532728
C271	C	1.521484	-0.333950	0.782728
C272	C	1.771484	-0.083950	1.032728
C273	C	1.064787	-0.810494	0.239453
C274	C	1.314787	-0.560494	0.489453
C275	C	1.564787	-0.310494	0.739453
C276	C	1.814787	-0.060494	0.989453
C277	C	1.064781	-0.763579	0.239470
C278	C	1.314781	-0.513579	0.489470
C279	C	1.564781	-0.263579	0.739470
C280	C	1.814781	-0.013579	0.989470
C281	C	0.891545	-0.763561	0.412590
C282	C	1.141545	-0.513561	0.662590
C283	C	1.391545	-0.263561	0.912590
C284	C	1.641545	-0.013561	1.162590
C285	C	0.891555	-0.810477	0.412569
C286	C	1.141555	-0.560477	0.662569
C287	C	1.391555	-0.310477	0.912569
C288	C	1.641555	-0.060477	1.162569
C289	C	0.934868	-0.833940	0.369282
C290	C	1.184868	-0.583940	0.619282
C291	C	1.434868	-0.333940	0.869282
C292	C	1.684868	-0.083940	1.119282
C293	C	1.154619	-0.216442	0.326204
C294	C	1.404619	0.033558	0.576204
C295	C	1.654619	0.283558	0.826204
C296	C	1.904619	0.533558	1.076204
C297	C	1.229851	-0.216447	0.326213
C298	C	1.479851	0.033553	0.576213
C299	C	1.729851	0.283553	0.826213
C300	C	1.979851	0.533553	1.076213
C301	C	0.978000	-0.216409	0.502038
C302	C	1.228000	0.033591	0.752038
C303	C	1.478000	0.283591	1.002038
C304	C	1.728000	0.533591	1.252038
C305	C	0.978029	-0.216415	0.577270
C306	C	1.228029	0.033585	0.827270
C307	C	1.478029	0.283585	1.077270
C308	C	1.728029	0.533585	1.327270
C309	C	0.978097	-0.099708	0.326139
C310	C	1.228097	0.150292	0.576139
C311	C	1.478097	0.400292	0.826139
C312	C	1.728097	0.650292	1.076139
C313	C	0.978220	-0.049774	0.325951
C314	C	1.228220	0.200226	0.575951
C315	C	1.478220	0.450226	0.825951
C316	C	1.728220	0.700226	1.075951
C317	C	0.978171	-0.216463	0.149639
C318	C	1.228171	0.033537	0.399639
C319	C	1.478171	0.283537	0.649639
C320	C	1.728171	0.533537	0.899639
C321	C	0.978212	-0.216476	0.074407
C322	C	1.228212	0.033524	0.324407
C323	C	1.478212	0.283524	0.574407
C324	C	1.728212	0.533524	0.824407
C325	C	1.021357	-0.187714	0.612599
C326	C	1.271357	0.062286	0.862599
C327	C	1.521357	0.312286	1.112599
C328	C	1.771357	0.562286	1.362599
C329	C	1.021386	-0.187724	0.683287
C330	C	1.271386	0.062276	0.933287
C331	C	1.521386	0.312276	1.183287
C332	C	1.771386	0.562276	1.433287
C333	C	0.978083	-0.216433	0.718646
C334	C	1.228083	0.033567	0.968646
C335	C	1.478083	0.283567	1.218646
C336	C	1.728083	0.533567	1.468646
C337	C	0.934753	-0.245137	0.683312
C338	C	1.184753	0.004863	0.933312
C339	C	1.434753	0.254863	1.183312
C340	C	1.684753	0.504863	1.433312
C341	C	0.934728	-0.245129	0.612625
C342	C	1.184728	0.004871	0.862625
C343	C	1.434728	0.254871	1.112625
C344	C	1.684728	0.504871	1.362625
C345	C	0.934853	-0.245170	0.968385
C346	C	1.184853	0.004830	1.218385
C347	C	1.434853	0.254830	1.468385
C348	C	1.684853	0.504830	1.718385
C349	C	0.934880	-0.245175	1.039077
C350	C	1.184880	0.004825	1.289077
C351	C	1.434880	0.254825	1.539077
C352	C	1.684880	0.504825	1.789077
C353	C	1.021511	-0.187765	1.039047
C354	C	1.271511	0.062235	1.289047
C355	C	1.521511	0.312235	1.539047
C356	C	1.771511	0.562235	1.789047
C357	C	1.021486	-0.187757	0.968360
C358	C	1.271486	0.062243	1.218360
C359	C	1.521486	0.312243	1.468360
C360	C	1.771486	0.562243	1.718360
C361	C	0.978159	-0.216463	0.933033
C362	C	1.228159	0.033537	1.183033
C363	C	1.478159	0.283537	1.433033
C364	C	1.728159	0.533537	1.683033
C365	C	0.978129	-0.216452	0.856385
C366	C	1.228129	0.033548	1.106385
C367	C	1.478129	0.283548	1.356385
C368	C	1.728129	0.533548	1.606385
C369	C	0.978109	-0.216441	0.795293
C370	C	1.228109	0.033559	1.045293
C371	C	1.478109	0.283559	1.295293
C372	C	1.728109	0.533559	1.545293
H373	H	0.236371	-0.164225	0.404631
H374	H	0.486371	0.085775	0.654631
H375	H	0.736371	0.335775	0.904631
H376	H	0.986371	0.585775	1.154631
H377	H	1.056668	-0.164353	0.712048
H378	H	1.306668	0.085647	0.962048
H379	H	1.556668	0.335647	1.212048
H380	H	1.806668	0.585647	1.462048
H381	H	0.592233	-0.268653	0.247767
H382	H	0.842233	-0.018653	0.497767
H383	H	1.092233	0.231347	0.747767
H384	H	1.342233	0.481347	0.997767
H385	H	1.056792	-0.164394	1.067819
H386	H	1.306792	0.085606	1.317819
H387	H	1.556792	0.335606	1.567819
H388	H	1.806792	0.585606	1.817819
H389	H	0.899447	-0.268500	0.583861
H390	H	1.149447	-0.018500	0.833861
H391	H	1.399447	0.231500	1.083861
H392	H	1.649447	0.481500	1.333861
H393	H	0.856226	-0.603704	0.447872
H394	H	1.106226	-0.353704	0.697872
H395	H	1.356226	-0.103704	0.947872
H396	H	1.606226	0.146296	1.197872
H397	H	1.100049	-0.744488	0.204232
H398	H	1.350049	-0.494488	0.454232
H399	H	1.600049	-0.244488	0.704232
H400	H	1.850049	0.005512	0.954232
H401	H	1.056694	-0.473022	0.247603
H402	H	1.306694	-0.223022	0.497603
H403	H	1.556694	0.026978	0.747603
H404	H	1.806694	0.276978	0.997603
H405	H	0.364605	-0.164215	0.404615
H406	H	0.614605	0.085785	0.654615
H407	H	0.864605	0.335785	0.904615
H408	H	1.114605	0.585785	1.154615
H409	H	0.720467	-0.268649	0.247757
H410	H	0.970467	-0.018649	0.497757
H411	H	1.220467	0.231351	0.747757
H412	H	1.470467	0.481351	0.997757
H413	H	0.899618	-0.268556	1.067865
H414	H	1.149618	-0.018556	1.317865
H415	H	1.399618	0.231444	1.567865
H416	H	1.649618	0.481444	1.817865
H417	H	1.100056	-0.829606	0.204209
H418	H	1.350056	-0.579606	0.454209
H419	H	1.600056	-0.329606	0.704209
H420	H	1.850056	-0.079606	0.954209
H421	H	0.899573	-0.268542	0.939627
H422	H	1.149573	-0.018542	1.189627
H423	H	1.399573	0.231458	1.439627
H424	H	1.649573	0.481458	1.689627
H425	H	1.056617	-0.164334	0.583814
H426	H	1.306617	0.085666	0.833814
H427	H	1.556617	0.335666	1.083814
H428	H	1.806617	0.585666	1.333814
H429	H	0.364707	-0.268665	0.247793
H430	H	0.614707	-0.018665	0.497793
H431	H	0.864707	0.231335	0.747793
H432	H	1.114707	0.481335	0.997793
H433	H	0.236462	-0.268671	0.247805
H434	H	0.486462	-0.018671	0.497805
H435	H	0.736462	0.231329	0.747805
H436	H	0.986462	0.481329	0.997805
H437	H	0.899498	-0.268514	0.712107
H438	H	1.149498	-0.018514	0.962107
H439	H	1.399498	0.231486	1.212107
H440	H	1.649498	0.481486	1.462107
H441	H	0.592128	-0.164207	0.404586
H442	H	0.842128	0.085793	0.654586
H443	H	1.092128	0.335793	0.904586
H444	H	1.342128	0.585793	1.154586
H445	H	1.056795	-1.045431	0.247427
H446	H	1.306795	-0.795431	0.497427
H447	H	1.556795	-0.545431	0.747427
H448	H	1.806795	-0.295431	0.997427
H449	H	0.899647	-1.045403	0.404483
H450	H	1.149647	-0.795403	0.654483
H451	H	1.399647	-0.545403	0.904483
H452	H	1.649647	-0.295403	1.154483
H453	H	0.899543	-0.473015	0.404671
H454	H	1.149543	-0.223015	0.654671
H455	H	1.399543	0.026985	0.904671
H456	H	1.649543	0.276985	1.154671
H457	H	1.056745	-0.164379	0.939573
H458	H	1.306745	0.085621	1.189573
H459	H	1.556745	0.335621	1.439573
H460	H	1.806745	0.585621	1.689573
H461	H	0.720374	-0.164200	0.404579
H462	H	0.970374	0.085800	0.654579
H463	H	1.220374	0.335800	0.904579
H464	H	1.470374	0.585800	1.154579
H465	H	1.056687	-0.387913	0.247647
H466	H	1.306687	-0.137913	0.497647
H467	H	1.556687	0.112087	0.747647
H468	H	1.806687	0.362087	0.997647
H469	H	0.899531	-0.387891	0.404694
H470	H	1.149531	-0.137891	0.654694
H471	H	1.399531	0.112109	0.904694
H472	H	1.649531	0.362109	1.154694
H473	H	1.100029	-0.603742	0.204284
H474	H	1.350029	-0.353742	0.454284
H475	H	1.600029	-0.103742	0.704284
H476	H	1.850029	0.146258	0.954284
H477	H	1.100039	-0.688846	0.204251
H478	H	1.350039	-0.438846	0.454251
H479	H	1.600039	-0.188846	0.704251
H480	H	1.850039	0.061154	0.954251
H481	H	1.056787	-0.960308	0.247452
H482	H	1.306787	-0.710308	0.497452
H483	H	1.556787	-0.460308	0.747452
H484	H	1.806787	-0.210308	0.997452
H485	H	0.899622	-0.960295	0.404504
H486	H	1.149622	-0.710295	0.654504
H487	H	1.399622	-0.460295	0.904504
H488	H	1.649622	-0.210295	1.154504
H489	H	0.856249	-0.688813	0.447858
H490	H	1.106249	-0.438813	0.697858
H491	H	1.356249	-0.188813	0.947858
H492	H	1.606249	0.061187	1.197858
H493	H	0.856288	-0.829568	0.447814
H494	H	1.106288	-0.579568	0.697814
H495	H	1.356288	-0.329568	0.947814
H496	H	1.606288	-0.079568	1.197814
H497	H	0.856275	-0.744463	0.447841
H498	H	1.106275	-0.494463	0.697841
H499	H	1.356275	-0.244463	0.947841
H500	H	1.606275	0.005537	1.197841
