data_functionalizedCrystal
_audit_creation_method	'MofGen! by Chris Wilmer'
_symmetry_space_group_name_H-M	'P1'
_symmetry_Int_Tables_number	1
_symmetry_cell_setting	triclinic
loop_
_symmetry_equiv_pos_as_xyz
  x,y,z
_cell_length_a	15.995292
_cell_length_b	15.995292
_cell_length_c	13.330367
_cell_angle_alpha	89.998548
_cell_angle_beta	89.991273
_cell_angle_gamma	83.468616
loop_
_atom_site_label
_atom_site_type_symbol
_atom_site_fract_x
_atom_site_fract_y
_atom_site_fract_z
O1	O	1.110997	0.107697	-0.083443
O2	O	1.610997	0.607697	0.416557
O3	O	0.867212	0.121076	-0.083439
O4	O	1.367212	0.621076	0.416561
O5	O	0.995794	-0.007506	-0.083443
O6	O	1.495794	0.492494	0.416557
O7	O	0.982415	0.236279	-0.083439
O8	O	1.482415	0.736279	0.416561
O9	O	0.995776	-0.007509	0.083404
O10	O	1.495776	0.492491	0.583404
O11	O	0.867194	0.121073	0.083409
O12	O	1.367194	0.621073	0.583409
O13	O	1.110979	0.107694	0.083404
O14	O	1.610979	0.607694	0.583404
Cu15	Cu	0.989084	0.114383	0.098641
Cu16	Cu	1.489084	0.614383	0.598641
Cu17	Cu	0.989107	0.114387	-0.098676
Cu18	Cu	1.489107	0.614387	0.401324
O19	O	0.982397	0.236276	0.083408
O20	O	1.482397	0.736276	0.583408
C21	C	0.836008	0.120530	-0.000015
C22	C	1.336008	0.620530	0.499985
C23	C	0.743055	0.118898	-0.000013
C24	C	1.243055	0.618898	0.499987
C25	C	0.995240	-0.038703	-0.000022
C26	C	1.495240	0.461297	0.499978
C27	C	0.993608	-0.131655	-0.000029
C28	C	1.493608	0.368345	0.499971
C29	C	0.405318	0.112896	-0.000024
C30	C	0.905318	0.612896	0.499976
C31	C	0.428611	0.205703	-0.000396
C32	C	0.928611	0.705703	0.499604
C33	C	0.525286	0.207467	-0.000015
C34	C	1.025286	0.707467	0.499985
C35	C	0.572873	0.115874	-0.000019
C36	C	1.072873	0.615874	0.499981
C37	C	0.543770	0.069473	0.095255
C38	C	1.043770	0.569473	0.595255
C39	C	0.446980	0.068356	0.095330
C40	C	0.946980	0.568356	0.595330
C41	C	0.447146	0.066464	-0.094406
C42	C	0.947146	0.566464	0.405594
C43	C	0.543638	0.069903	-0.095661
C44	C	1.043638	0.569903	0.404339
C45	C	0.667569	0.117552	-0.000013
C46	C	1.167569	0.617552	0.499987
C47	C	0.310622	0.111215	-0.000024
C48	C	0.810622	0.611215	0.499976
C49	C	0.987607	-0.469393	-0.000020
C50	C	1.487607	0.030607	0.499980
C51	C	1.080413	-0.446100	0.000351
C52	C	1.580413	0.053900	0.500351
C53	C	1.082177	-0.349424	-0.000029
C54	C	1.582177	0.150576	0.499971
C55	C	0.990584	-0.301837	-0.000024
C56	C	1.490584	0.198163	0.499976
C57	C	0.944196	-0.330927	-0.095298
C58	C	1.444196	0.169073	0.404702
C59	C	0.943079	-0.427717	-0.095374
C60	C	1.443079	0.072283	0.404626
C61	C	0.941162	-0.427577	0.094363
C62	C	1.441162	0.072423	0.594363
C63	C	0.944602	-0.331085	0.095618
C64	C	1.444602	0.168915	0.595618
C65	C	0.992263	-0.207141	-0.000030
C66	C	1.492263	0.292859	0.499970
C67	C	0.985926	-0.564088	-0.000021
C68	C	1.485926	-0.064088	0.499979
C69	C	1.142183	0.108240	-0.000023
C70	C	1.642183	0.608240	0.499977
C71	C	1.235136	0.109873	-0.000031
C72	C	1.735136	0.609873	0.499969
C73	C	0.982951	0.267473	-0.000016
C74	C	1.482951	0.767473	0.499984
C75	C	0.984583	0.360426	-0.000015
C76	C	1.484583	0.860426	0.499985
N77	N	0.989075	0.114380	0.237422
N78	N	1.489075	0.614380	0.737422
N79	N	0.989123	0.114383	-0.237457
N80	N	1.489123	0.614383	0.262543
C81	C	0.932168	0.171300	0.710047
C82	C	1.432168	0.671300	1.210047
C83	C	1.046067	0.057467	0.710011
C84	C	1.546067	0.557467	1.210011
C85	C	1.046058	0.057464	0.604993
C86	C	1.546058	0.557464	1.104993
C87	C	0.989104	0.114381	0.552497
C88	C	1.489104	0.614381	1.052497
C89	C	0.932159	0.171301	0.605019
C90	C	1.432159	0.671301	1.105019
C91	C	1.103008	0.000551	0.552463
C92	C	1.603008	0.500551	1.052463
C93	C	1.103001	0.000547	0.447438
C94	C	1.603001	0.500547	0.947438
C95	C	1.046042	0.057461	0.394940
C96	C	1.546042	0.557461	0.894940
C97	C	0.989094	0.114382	0.447468
C98	C	1.489094	0.614382	0.947468
C99	C	0.932140	0.171300	0.394972
C100	C	1.432140	0.671300	0.894972
C101	C	0.875187	0.228218	0.447499
C102	C	1.375187	0.728218	0.947499
C103	C	0.875199	0.228215	0.552521
C104	C	1.375199	0.728215	1.052521
C105	C	1.046030	0.057463	0.289918
C106	C	1.546030	0.557463	0.789918
C107	C	0.932130	0.171300	0.289944
C108	C	1.432130	0.671300	0.789944
H109	H	0.544313	0.243801	-0.068314
H110	H	1.044313	0.743801	0.431686
Cl111	Cl	0.860570	0.242849	0.776075
Cl112	Cl	1.360570	0.742849	1.276075
Cl113	Cl	1.117670	-0.014079	0.776004
Cl114	Cl	1.617670	0.485921	1.276004
H115	H	0.432443	0.000310	0.099655
H116	H	0.932443	0.500310	0.599655
H117	H	1.118738	-0.331026	-0.068445
H118	H	1.618738	0.168974	0.431555
H119	H	1.092403	0.011125	0.247156
H120	H	1.592403	0.511125	0.747156
H121	H	0.399577	0.241275	0.067547
H122	H	0.899577	0.741275	0.567547
H123	H	0.876796	-0.299045	-0.098836
H124	H	1.376796	0.200955	0.401164
H125	H	0.575652	0.002073	0.098794
H126	H	1.075652	0.502073	0.598794
Cl127	Cl	0.403427	0.111263	-0.205898
Cl128	Cl	0.903427	0.611263	0.294102
Cl129	Cl	1.174610	-0.070994	0.618455
Cl130	Cl	1.674610	0.429006	1.118455
Cl131	Cl	0.572348	0.122036	-0.204486
Cl132	Cl	1.072348	0.622036	0.295514
H133	H	0.828818	0.274564	0.404744
H134	H	1.328818	0.774564	0.904744
Cl135	Cl	1.174593	-0.071008	0.381411
Cl136	Cl	1.674593	0.428992	0.881411
H137	H	0.400615	0.241476	-0.068721
H138	H	0.900615	0.741476	0.431279
Cl139	Cl	0.594556	-0.033318	-0.104548
Cl140	Cl	1.094556	0.466682	0.395452
Cl141	Cl	1.138249	-0.320058	0.105428
Cl142	Cl	1.638249	0.179942	0.605428
H143	H	0.543674	0.244023	0.068398
H144	H	1.043674	0.744023	0.568398
H145	H	1.116178	-0.474105	0.068676
H146	H	1.616178	0.025895	0.568676
Cl147	Cl	0.993955	-0.299971	-0.204774
Cl148	Cl	1.493955	0.200029	0.295226
Cl149	Cl	0.405550	0.117971	0.205288
Cl150	Cl	0.905550	0.617971	0.705288
H151	H	0.885748	0.217647	0.247208
H152	H	1.385748	0.717647	0.747208
H153	H	0.975221	-0.454539	-0.166596
H154	H	1.475221	0.045461	0.333404
H155	H	0.872850	-0.441553	0.095008
H156	H	1.372850	0.058447	0.595008
H157	H	0.828831	0.274557	0.595294
H158	H	1.328831	0.774557	1.095294
H159	H	0.877747	-0.298102	0.101376
H160	H	1.377747	0.201898	0.601376
Cl161	Cl	0.574713	0.119217	0.204730
Cl162	Cl	1.074713	0.619217	0.704730
Cl163	Cl	0.996743	-0.302427	0.204442
Cl164	Cl	1.496743	0.197573	0.704442
H165	H	1.115994	-0.475124	-0.067592
H166	H	1.615994	0.024876	0.432408
Cl167	Cl	0.425569	-0.039005	-0.095404
Cl168	Cl	0.925569	0.460995	0.404596
H169	H	0.875033	-0.442253	-0.099687
H170	H	1.375033	0.057747	0.400313
H171	H	0.970381	-0.455673	0.166580
H172	H	1.470381	0.044327	0.666580
