data_functionalizedCrystal
_audit_creation_method	'MofGen! by Chris Wilmer'
_symmetry_space_group_name_H-M	'P1'
_symmetry_Int_Tables_number	1
_symmetry_cell_setting	triclinic
loop_
_symmetry_equiv_pos_as_xyz
  x,y,z
_cell_length_a	6.817900
_cell_length_b	9.582860
_cell_length_c	11.168136
_cell_angle_alpha	91.014244
_cell_angle_beta	108.508683
_cell_angle_gamma	111.206767
loop_
_atom_site_label
_atom_site_type_symbol
_atom_site_fract_x
_atom_site_fract_y
_atom_site_fract_z
V1	V	-4.124186	-0.207078	-0.393468
O2	O	-4.068781	0.009928	-0.386216
O3	O	-4.114531	-0.410579	-0.390548
O4	O	-4.100258	-0.203903	-0.565177
O5	O	-4.083153	-0.198179	-0.210378
V6	V	-4.599623	-0.181120	-0.371597
O7	O	-4.403183	-0.264018	-0.441444
O8	O	-4.770824	-0.124180	-0.323620
O9	O	-4.386071	0.022380	-0.374517
O10	O	-4.772426	-0.398126	-0.378848
O11	O	-4.758053	-0.190020	-0.554687
O12	O	-4.400345	-0.184296	-0.199887
C13	C	-3.968166	-0.460188	-0.384281
C14	C	-4.041722	-0.626552	-0.383039
C15	C	-3.949957	-0.196550	-0.607037
C16	C	-4.011932	-0.195301	-0.747409
C17	C	-4.214892	-0.201841	-0.816093
C18	C	-4.278951	-0.200550	-0.961175
C19	C	-4.195780	0.071981	-0.380779
C20	C	-4.101464	0.238344	-0.382030
C21	C	-4.213988	-0.191653	-0.158021
C22	C	-4.131250	-0.192895	-0.017648
H23	H	-4.341224	-0.208387	-0.767487
C24	C	-3.843559	-0.186326	-0.812340
C25	C	-3.801055	-0.055890	-0.870845
C26	C	-3.645977	-0.047582	-0.930682
H27	H	-3.707770	-0.182304	-0.750564
H28	H	-3.903011	-0.273189	-0.875041
H29	H	-3.741596	0.030951	-0.808150
H30	H	-3.936797	-0.059883	-0.932640
H31	H	-3.705429	-0.134446	-0.993384
H32	H	-3.510201	-0.043565	-0.868898
H33	H	-3.617133	0.040910	-0.970395
C34	C	-4.510832	-0.208246	-1.040083
C35	C	-4.620223	-0.337333	-1.133076
C36	C	-4.833830	-0.344464	-1.205804
H37	H	-4.595467	-0.213299	-0.985997
H38	H	-4.496885	-0.120466	-1.080446
H39	H	-4.634180	-0.425092	-1.092715
H40	H	-4.535655	-0.332309	-1.187190
H41	H	-4.819883	-0.256683	-1.246167
H42	H	-4.918444	-0.349512	-1.151708
H43	H	-4.908070	-0.432040	-1.268915
H44	H	-3.957382	-0.187305	-0.958613
