data_functionalizedCrystal
_audit_creation_method	'MofGen! by Chris Wilmer'
_symmetry_space_group_name_H-M	'P1'
_symmetry_Int_Tables_number	1
_symmetry_cell_setting	triclinic
loop_
_symmetry_equiv_pos_as_xyz
  x,y,z
_cell_length_a	16.120484
_cell_length_b	19.805407
_cell_length_c	19.805399
_cell_angle_alpha	89.980427
_cell_angle_beta	87.128957
_cell_angle_gamma	87.074392
loop_
_atom_site_label
_atom_site_type_symbol
_atom_site_fract_x
_atom_site_fract_y
_atom_site_fract_z
Zn1	Zn	-0.331927	-1.021075	0.396377
Zn2	Zn	0.168073	-0.521075	0.896377
Zn3	Zn	-0.471346	-1.015252	0.288925
Zn4	Zn	0.028654	-0.515252	0.788925
Zn5	Zn	-0.331950	-0.907889	0.283203
Zn6	Zn	0.168050	-0.407889	0.783203
Zn7	Zn	-0.471302	-0.902117	0.402070
Zn8	Zn	0.028698	-0.402117	0.902070
O9	O	-0.401631	-0.961584	0.342644
O10	O	0.098369	-0.461584	0.842644
O11	O	-0.350431	-1.115019	0.382136
O12	O	0.149569	-0.615019	0.882136
O13	O	-0.452883	-1.000989	0.193451
O14	O	0.047117	-0.500989	0.693451
O15	O	-0.215281	-0.927756	0.293438
O16	O	0.284719	-0.427756	0.793438
O17	O	-0.452861	-1.110741	0.303191
O18	O	0.047139	-0.610741	0.803191
O19	O	-0.215264	-1.010913	0.376587
O20	O	0.284736	-0.510913	0.876587
O21	O	-0.350470	-0.922109	0.189246
O22	O	0.149530	-0.422109	0.689246
O23	O	-0.350427	-0.812407	0.298958
O24	O	0.149573	-0.312407	0.798958
O25	O	-0.452785	-0.917919	0.496030
O26	O	0.047215	-0.417919	0.996030
O27	O	-0.452807	-0.808167	0.386290
O28	O	0.047193	-0.308167	0.886290
O29	O	-0.350388	-1.005317	0.491848
O30	O	0.149612	-0.505317	0.991848
O31	O	-0.588006	-0.995392	0.308712
O32	O	-0.088006	-0.495392	0.808712
O33	O	-0.587974	-0.912273	0.391839
O34	O	-0.087974	-0.412273	0.891839
C35	C	-0.401615	-0.785728	0.342621
C36	C	0.098385	-0.285728	0.842621
C37	C	-0.401629	-0.710496	0.342628
C38	C	0.098371	-0.210496	0.842628
C39	C	-0.618240	-0.952593	0.351529
C40	C	-0.118240	-0.452593	0.851529
C41	C	-0.710906	-0.948809	0.355353
C42	C	-0.210906	-0.448809	0.855353
C43	C	-0.401579	-0.961624	0.519184
C44	C	0.098421	-0.461624	1.019184
C45	C	-0.401556	-0.961641	0.594416
C46	C	0.098444	-0.461641	1.094416
C47	C	-0.880568	-0.941903	0.362347
C48	C	-0.380568	-0.441903	0.862347
C49	C	-0.921854	-0.981385	0.322951
C50	C	-0.421854	-0.481385	0.822951
C51	C	-1.016260	-0.977543	0.326843
C52	C	-0.516260	-0.477543	0.826843
C53	C	-0.786154	-0.945745	0.358456
C54	C	-0.286154	-0.445745	0.858456
C55	C	-0.184177	-0.970628	0.333739
C56	C	0.315823	-0.470628	0.833739
C57	C	-0.091511	-0.974482	0.329944
C58	C	0.408489	-0.474482	0.829944
C59	C	-0.401648	-1.138126	0.342667
C60	C	0.098352	-0.638126	0.842667
C61	C	-0.401655	-1.213357	0.342677
C62	C	0.098345	-0.713357	0.842677
C63	C	-0.455019	-0.672958	0.388035
C64	C	0.044981	-0.172958	0.888035
C65	C	-0.455020	-0.602269	0.388045
C66	C	0.044980	-0.102269	0.888045
C67	C	-0.401635	-0.569120	0.342644
C68	C	0.098365	-0.069120	0.842644
C69	C	-0.348239	-0.606663	0.297235
C70	C	0.151761	-0.106663	0.797235
C71	C	-0.348234	-0.677350	0.297229
C72	C	0.151766	-0.177350	0.797229
C73	C	-0.348258	-0.321589	0.297258
C74	C	0.151742	0.178411	0.797258
C75	C	-0.348269	-0.250896	0.297266
C76	C	0.151731	0.249104	0.797266
C77	C	-0.455043	-0.246508	0.388074
C78	C	0.044957	0.253492	0.888074
C79	C	-0.455038	-0.317195	0.388068
C80	C	0.044962	0.182805	0.888068
C81	C	-0.401640	-0.354732	0.342662
C82	C	0.098360	0.145268	0.842662
C83	C	-0.401638	-0.431381	0.342653
C84	C	0.098362	0.068619	0.842653
C85	C	-0.401641	-0.492472	0.342649
C86	C	0.098359	0.007528	0.842649
C87	C	-0.401623	-0.961585	0.166787
C88	C	0.098377	-0.461585	0.666787
C89	C	-0.401411	-0.961709	0.091547
C90	C	0.098589	-0.461709	0.591547
C91	C	-0.348235	-1.007150	0.627583
C92	C	0.151765	-0.507150	1.127583
C93	C	-0.348211	-1.007158	0.698270
C94	C	0.151789	-0.507158	1.198270
C95	C	-0.401513	-0.961659	0.735789
C96	C	0.098487	-0.461659	1.235789
C97	C	-0.454836	-0.916145	0.702617
C98	C	0.045164	-0.416145	1.202617
C99	C	-0.454856	-0.916135	0.631931
C100	C	0.045144	-0.416135	1.131931
C101	C	-0.454759	-0.916187	0.987688
C102	C	0.045241	-0.416187	1.487688
C103	C	-0.454737	-0.916202	1.058379
C104	C	0.045263	-0.416202	1.558379
C105	C	-0.348114	-1.007210	1.054027
C106	C	0.151886	-0.507210	1.554027
C107	C	-0.348133	-1.007199	0.983340
C108	C	0.151867	-0.507199	1.483340
C109	C	-0.401453	-0.961683	0.950174
C110	C	0.098547	-0.461683	1.450174
C111	C	-0.401478	-0.961674	0.873527
C112	C	0.098522	-0.461674	1.373527
C113	C	-0.401493	-0.961671	0.812436
C114	C	0.098507	-0.461671	1.312436
H115	H	-0.916121	-0.905219	0.398995
H116	H	-0.416121	-0.405219	0.898995
H117	H	-0.304791	-0.223908	0.260295
H118	H	0.195209	0.276092	0.760295
H119	H	-0.304754	-0.707913	0.260258
H120	H	0.195246	-0.207913	0.760258
N121	N	-0.509563	-0.706805	0.434411
N122	N	-0.009563	-0.206805	0.934411
N123	N	-0.557229	-0.673278	0.474949
N124	N	-0.057229	-0.173278	0.974949
H125	H	-0.595753	-0.697180	0.507704
H126	H	-0.095753	-0.197180	1.007704
H127	H	-0.498496	-0.571709	0.425019
H128	H	0.001504	-0.071709	0.925019
N129	N	-0.877263	-1.027408	0.276967
N130	N	-0.377263	-0.527408	0.776967
N131	N	-0.886823	-1.089482	0.281888
N132	N	-0.386823	-0.589482	0.781888
H133	H	-0.855325	-1.121982	0.249410
H134	H	-0.355325	-0.621982	0.749410
N135	N	-0.509581	-0.351045	0.434444
N136	N	-0.009581	0.148955	0.934444
N137	N	-0.557247	-0.317521	0.474984
N138	N	-0.057247	0.182479	0.974984
H139	H	-0.595768	-0.341426	0.507740
H140	H	-0.095768	0.158574	1.007740
N141	N	-0.293715	-0.359915	0.250870
N142	N	0.206285	0.140085	0.750870
N143	N	-0.246060	-0.330306	0.210335
N144	N	0.253940	0.169694	0.710335
H145	H	-0.207538	-0.357375	0.177569
H146	H	0.292462	0.142625	0.677569
H147	H	-0.304733	-1.044251	0.952796
H148	H	0.195267	-0.544251	1.452796
H149	H	-0.498520	-0.215937	0.425048
H150	H	0.001480	0.284063	0.925048
N151	N	-0.293798	-1.053626	0.589251
N152	N	0.206202	-0.553626	1.089251
N153	N	-0.323145	-1.095531	0.551016
N154	N	0.176855	-0.595531	1.051016
H155	H	-0.284696	-1.128355	0.523945
H156	H	0.215304	-0.628355	1.023945
N157	N	-0.293706	-0.572793	0.250868
N158	N	0.206294	-0.072793	0.750868
N159	N	-0.293717	-0.509680	0.250878
N160	N	0.206283	-0.009680	0.750878
H161	H	-0.255203	-0.485759	0.218129
H162	H	0.244797	0.014241	0.718129
N163	N	-0.293652	-1.053700	1.087917
N164	N	0.206348	-0.553700	1.587917
N165	N	-0.293638	-1.053707	1.151029
N166	N	0.206362	-0.553707	1.651029
H167	H	-0.255178	-1.086541	1.174964
H168	H	0.244822	-0.586541	1.674964
H169	H	-0.304794	-1.044217	0.725272
H170	H	0.195206	-0.544217	1.225272
H171	H	-0.498187	-0.879134	0.960693
H172	H	0.001813	-0.379134	1.460693
N173	N	-0.509311	-0.869640	0.598048
N174	N	-0.009311	-0.369640	1.098048
N175	N	-0.503766	-0.807416	0.605704
N176	N	-0.003766	-0.307416	1.105704
H177	H	-0.542223	-0.774575	0.581774
H178	H	-0.042223	-0.274575	1.081774
N179	N	-0.509188	-0.869717	1.096695
N180	N	-0.009188	-0.369717	1.596695
N181	N	-0.556788	-0.829079	1.067075
N182	N	-0.056788	-0.329079	1.567075
H183	H	-0.595242	-0.796250	1.094135
H184	H	-0.095242	-0.296250	1.594135
H185	H	-0.498232	-0.879097	0.733171
H186	H	0.001768	-0.379097	1.233171
