data_functionalizedCrystal
_audit_creation_method	'MofGen! by Chris Wilmer'
_symmetry_space_group_name_H-M	'P1'
_symmetry_Int_Tables_number	1
_symmetry_cell_setting	triclinic
loop_
_symmetry_equiv_pos_as_xyz
  x,y,z
_cell_length_a	18.101398
_cell_length_b	21.395355
_cell_length_c	21.395362
_cell_angle_alpha	89.982663
_cell_angle_beta	90.023647
_cell_angle_gamma	89.970130
loop_
_atom_site_label
_atom_site_type_symbol
_atom_site_fract_x
_atom_site_fract_y
_atom_site_fract_z
Zn1	Zn	1.132176	-0.354355	-0.249590
Zn2	Zn	1.132065	-0.249580	-0.354350
Zn3	Zn	1.008322	-0.249582	-0.249582
Zn4	Zn	1.008291	-0.354311	-0.354325
O5	O	1.070214	-0.301957	-0.301962
O6	O	1.235794	-0.340475	-0.263501
O7	O	1.115618	-0.161902	-0.340459
O8	O	1.024811	-0.263501	-0.161905
O9	O	1.235713	-0.263497	-0.340467
O10	O	1.115805	-0.340477	-0.161911
O11	O	1.024704	-0.161904	-0.263486
O12	O	0.904685	-0.263457	-0.263462
O13	O	1.024758	-0.441994	-0.340425
O14	O	0.904662	-0.340400	-0.340417
O15	O	1.115775	-0.442027	-0.263477
O16	O	1.115587	-0.263453	-0.442025
O17	O	1.024651	-0.340398	-0.442006
C18	C	0.877803	-0.301924	-0.301936
C19	C	0.795489	-0.301925	-0.301941
C20	C	1.070124	-0.301934	-0.464749
C21	C	1.070153	-0.301945	-0.534391
C22	C	1.070275	-0.465380	-0.301949
C23	C	1.070301	-0.535022	-0.301944
C24	C	0.496398	-0.301978	-0.301980
C25	C	0.527713	-0.253803	-0.253320
C26	C	0.613331	-0.253598	-0.253450
C27	C	0.644781	-0.301952	-0.301960
C28	C	0.613664	-0.283910	-0.367957
C29	C	0.528019	-0.283575	-0.367687
C30	C	0.528019	-0.368307	-0.285215
C31	C	0.613670	-0.367945	-0.283746
C32	C	0.728640	-0.301938	-0.301952
C33	C	0.412539	-0.301990	-0.301991
C34	C	1.263375	-0.301990	-0.301988
C35	C	1.345690	-0.302004	-0.301999
C36	C	1.117692	-0.567753	-0.261875
C37	C	1.117691	-0.633188	-0.261848
C38	C	1.070307	-0.665890	-0.301901
C39	C	1.022907	-0.633151	-0.341973
C40	C	1.022904	-0.567717	-0.341994
C41	C	1.064428	-0.769556	-0.358316
C42	C	1.064436	-0.834989	-0.358296
C43	C	1.070312	-0.867711	-0.301835
C44	C	1.076194	-0.834992	-0.245393
C45	C	1.076191	-0.769557	-0.245414
C46	C	1.070305	-0.736843	-0.301882
C47	C	1.117704	-0.971395	-0.261733
C48	C	1.117698	-1.036832	-0.261705
C49	C	1.022918	-1.036793	-0.341836
C50	C	1.022920	-0.971357	-0.341858
C51	C	1.070317	-0.938662	-0.301808
C52	C	1.070195	-0.139170	-0.301929
C53	C	1.070312	-0.069529	-0.301758
C54	C	1.117687	-0.342119	-1.036137
C55	C	1.117665	-0.342109	-0.970702
C56	C	1.070314	-0.301996	-0.938029
C57	C	1.022996	-0.261879	-0.970797
C58	C	1.023024	-0.261886	-1.036231
C59	C	1.003551	-0.296981	-0.834408
C60	C	1.003521	-0.296979	-0.768975
C61	C	1.070228	-0.301972	-0.736208
C62	C	1.136965	-0.306982	-0.768883
C63	C	1.136994	-0.306988	-0.834317
C64	C	1.070279	-0.301985	-0.867077
C65	C	1.117523	-0.342074	-0.632495
C66	C	1.117503	-0.342059	-0.567059
C67	C	1.022827	-0.261832	-0.567155
C68	C	1.022854	-0.261843	-0.632591
C69	C	1.070201	-0.301967	-0.665257
C70	C	1.070324	-0.301994	-0.138538
C71	C	1.070371	-0.302010	-0.068897
H72	H	0.634370	-0.264907	-0.204510
H73	H	0.949181	-0.292904	-0.742374
H74	H	1.080980	-0.861632	-0.199417
H75	H	1.059446	-0.742920	-0.404281
Br76	Br	0.647420	-0.171677	-0.271915
H77	H	0.507303	-0.317133	-0.405169
H78	H	0.635081	-0.405762	-0.316605
Br79	Br	1.227561	-0.313784	-0.878659
H80	H	0.984444	-0.229217	-0.944192
Br81	Br	1.181729	-0.396494	-0.522597
Br82	Br	0.494652	-0.202756	-0.391384
H83	H	0.507141	-0.264988	-0.204230
Br84	Br	0.958574	-0.207385	-0.522821
Br85	Br	0.958595	-0.677530	-0.396326
Br86	Br	1.182013	-0.523384	-0.207519
Br87	Br	0.958582	-0.523292	-0.396376
H88	H	0.949227	-0.292917	-0.861081
Br89	Br	1.227502	-0.313760	-0.724423
Br90	Br	1.181938	-0.396577	-1.080467
Br91	Br	1.084171	-0.725154	-0.168818
H92	H	0.634013	-0.381549	-0.235179
H93	H	1.156071	-0.374749	-0.659094
H94	H	0.506159	-0.204940	-0.264276
Br95	Br	0.647602	-0.340567	-0.430005
Br96	Br	0.649345	-0.203963	-0.392071
Br97	Br	0.494269	-0.428134	-0.344287
Br98	Br	0.492067	-0.395647	-0.206399
Br99	Br	1.181993	-0.677620	-0.207450
Br100	Br	1.182024	-0.927019	-0.207379
Br101	Br	0.958602	-0.926933	-0.396241
H102	H	0.984322	-0.229184	-0.659264
H103	H	0.984493	-0.229223	-1.062904
Br104	Br	1.182031	-1.081254	-0.207331
Br105	Br	0.958600	-1.081166	-0.396186
H106	H	1.059651	-0.861624	-0.404254
Br107	Br	1.181885	-0.396546	-0.926231
