data_functionalizedCrystal
_audit_creation_method	'MofGen! by Chris Wilmer'
_symmetry_space_group_name_H-M	'P1'
_symmetry_Int_Tables_number	1
_symmetry_cell_setting	triclinic
loop_
_symmetry_equiv_pos_as_xyz
  x,y,z
_cell_length_a	17.000371
_cell_length_b	27.731996
_cell_length_c	15.500215
_cell_angle_alpha	93.210307
_cell_angle_beta	93.371385
_cell_angle_gamma	79.110317
loop_
_atom_site_label
_atom_site_type_symbol
_atom_site_fract_x
_atom_site_fract_y
_atom_site_fract_z
O1	O	1.059160	0.019292	0.071952
O2	O	1.559160	0.519292	0.571952
O3	O	0.827207	0.036845	0.071956
O4	O	1.327207	0.536845	0.571956
O5	O	0.950408	-0.042605	0.071935
O6	O	1.450408	0.457395	0.571935
O7	O	0.935959	0.098742	0.071973
O8	O	1.435959	0.598742	0.571973
O9	O	0.943843	-0.046336	-0.071955
O10	O	1.443843	0.453664	0.428045
O11	O	0.820642	0.033114	-0.071934
O12	O	1.320642	0.533114	0.428066
O13	O	1.052595	0.015561	-0.071938
O14	O	1.552595	0.515561	0.428062
Cu15	Cu	0.936019	0.023996	-0.085075
Cu16	Cu	1.436019	0.523996	0.414925
Cu17	Cu	0.943783	0.028409	0.085092
Cu18	Cu	1.443783	0.528409	0.585092
O19	O	0.929394	0.095010	-0.071917
O20	O	1.429394	0.595010	0.428083
C21	C	0.794259	0.035922	0.000011
C22	C	1.294259	0.535922	0.500011
C23	C	0.705865	0.038726	0.000012
C24	C	1.205865	0.538726	0.500012
C25	C	0.946829	-0.062467	-0.000013
C26	C	1.446829	0.437533	0.499987
C27	C	0.945934	-0.116089	-0.000022
C28	C	1.445934	0.383911	0.499978
C29	C	0.674382	-0.004417	-0.000001
C30	C	1.174382	0.495583	0.499999
C31	C	0.591326	-0.001780	0.000006
C32	C	1.091326	0.498220	0.500006
C33	C	0.539754	0.044001	0.000020
C34	C	1.039754	0.544001	0.500020
C35	C	0.571241	0.087147	0.000035
C36	C	1.071241	0.587147	0.500035
C37	C	0.654296	0.084509	0.000035
C38	C	1.154296	0.584509	0.500035
C39	C	0.288480	0.054189	0.000028
C40	C	0.788480	0.554189	0.500028
C41	C	0.205420	0.056823	0.000026
C42	C	0.705420	0.556823	0.500026
C43	C	0.225511	-0.032104	-0.000001
C44	C	0.725511	0.467896	0.499999
C45	C	0.308566	-0.034737	-0.000007
C46	C	0.808566	0.465263	0.499993
C47	C	0.340047	0.008409	0.000013
C48	C	0.840047	0.508409	0.500013
C49	C	0.454857	0.046697	0.000024
C50	C	0.954857	0.546697	0.500024
C51	C	0.424942	0.005712	0.000015
C52	C	0.924942	0.505712	0.500015
C53	C	0.943889	-0.446557	0.078455
C54	C	1.443889	0.053443	0.578455
C55	C	0.940494	-0.648086	0.078471
C56	C	1.440494	-0.148086	0.578471
O57	O	0.943064	-0.672408	0.145177
O58	O	1.443064	-0.172408	0.645177
N59	N	0.936494	-0.675321	0.000037
N60	N	1.436494	-0.175321	0.500037
C61	C	0.933337	-0.652170	-0.078407
C62	C	1.433337	-0.152170	0.421593
O63	O	0.929848	-0.679959	-0.145119
O64	O	1.429848	-0.179959	0.354881
C65	C	0.936726	-0.450642	-0.078421
C66	C	1.436726	0.049358	0.421579
C67	C	0.940735	-0.423410	0.000018
C68	C	1.440735	0.076590	0.500018
C69	C	0.947896	-0.419325	0.156888
C70	C	1.447896	0.080675	0.656888
C71	C	0.948749	-0.368946	0.156883
C72	C	1.448749	0.131054	0.656883
C73	C	0.945595	-0.345799	0.078446
C74	C	1.445595	0.154201	0.578446
C75	C	0.941588	-0.373031	0.000013
C76	C	1.441588	0.126969	0.500013
C77	C	0.933563	-0.427491	-0.156863
C78	C	1.433563	0.072509	0.343137
C79	C	0.934409	-0.377105	-0.156860
C80	C	1.434409	0.122895	0.343140
C81	C	0.938418	-0.349874	-0.078421
C82	C	1.438418	0.150126	0.421579
C83	C	0.939286	-0.299506	-0.078428
C84	C	1.439286	0.200494	0.421572
N85	N	0.943286	-0.272270	0.000005
N86	N	1.443286	0.227730	0.500005
C87	C	0.946441	-0.295417	0.078443
C88	C	1.446441	0.204583	0.578443
C89	C	0.931560	-0.757976	-0.078393
C90	C	1.431560	-0.257976	0.421607
C91	C	0.930714	-0.808358	-0.078390
C92	C	1.430714	-0.308358	0.421610
C93	C	0.937870	-0.804270	0.078487
C94	C	1.437870	-0.304270	0.578487
C95	C	0.938721	-0.753887	0.078483
C96	C	1.438721	-0.253887	0.578483
C97	C	0.935560	-0.730741	0.000040
C98	C	1.435560	-0.230741	0.500040
C99	C	0.948233	-0.189619	0.078427
C100	C	1.448233	0.310381	0.578427
C101	C	0.949089	-0.139236	0.078415
C102	C	1.449089	0.360764	0.578415
C103	C	0.941929	-0.143328	-0.078461
C104	C	1.441929	0.356672	0.421539
C105	C	0.941077	-0.193707	-0.078450
C106	C	1.441077	0.306293	0.421550
C107	C	0.944226	-0.216850	0.000001
C108	C	1.444226	0.283150	0.500001
O109	O	0.936709	-0.275150	-0.145099
O110	O	1.436709	0.224850	0.354901
O111	O	0.949911	-0.267618	0.145145
O112	O	1.449911	0.232382	0.645145
C113	C	0.943036	-0.496935	0.078460
C114	C	1.443036	0.003065	0.578460
C115	C	0.939029	-0.524167	0.000027
C116	C	1.439029	-0.024167	0.500027
C117	C	0.935874	-0.501020	-0.078410
C118	C	1.435874	-0.001020	0.421590
C119	C	0.938183	-0.574549	0.000031
C120	C	1.438183	-0.074549	0.500031
C121	C	0.941337	-0.597696	0.078468
C122	C	1.441337	-0.097696	0.578468
C123	C	0.945337	-0.570461	0.156902
C124	C	1.445337	-0.070461	0.656902
C125	C	0.946190	-0.520082	0.156897
C126	C	1.446190	-0.020082	0.656897
C127	C	0.931874	-0.528255	-0.156844
C128	C	1.431874	-0.028255	0.343156
C129	C	0.931022	-0.578634	-0.156833
C130	C	1.431022	-0.078634	0.343167
C131	C	0.934177	-0.601781	-0.078396
C132	C	1.434177	-0.101781	0.421604
C133	C	1.085544	0.016484	0.000008
C134	C	1.585544	0.516484	0.500008
C135	C	1.173938	0.013680	0.000013
C136	C	1.673938	0.513680	0.500013
C137	C	0.932973	0.114873	0.000033
C138	C	1.432973	0.614873	0.500033
C139	C	0.933868	0.168495	0.000047
C140	C	1.433868	0.668495	0.500047
N141	N	0.930564	0.020892	-0.204761
N142	N	1.430564	0.520892	0.295239
C143	C	0.976428	0.047016	-0.250027
C144	C	1.476428	0.547016	0.249973
C145	C	0.972314	0.044665	-0.340600
C146	C	1.472314	0.544665	0.159400
C147	C	0.922330	0.016192	-0.385907
C148	C	1.422330	0.516192	0.114093
C149	C	0.876464	-0.009936	-0.340634
C150	C	1.376464	0.490064	0.159366
C151	C	0.880584	-0.007587	-0.250062
C152	C	1.380584	0.492413	0.249938
C153	C	0.907498	0.007731	-0.659377
C154	C	1.407498	0.507731	-0.159377
C155	C	0.903380	0.005385	-0.749956
C156	C	1.403380	0.505385	-0.249956
C157	C	0.999231	0.059986	-0.749915
C158	C	1.499231	0.559986	-0.249915
C159	C	1.003343	0.062334	-0.659341
C160	C	1.503343	0.562334	-0.159341
C161	C	0.957480	0.036205	-0.614077
C162	C	1.457480	0.536205	-0.114077
C163	C	0.918121	0.013789	-0.478488
C164	C	1.418121	0.513789	0.021512
C165	C	0.961694	0.038605	-0.521498
C166	C	1.461694	0.538605	-0.021498
N167	N	0.949244	0.031510	0.204779
N168	N	1.449244	0.531510	0.704779
H169	H	0.565698	-0.036911	-0.000004
H170	H	1.065698	0.463089	0.499996
N171	N	0.361240	-0.081503	-0.000032
N172	N	0.861240	0.418497	0.499968
N173	N	0.355920	-0.112551	-0.060695
N174	N	0.855920	0.387449	0.439305
H175	H	0.393121	-0.145580	-0.060716
H176	H	0.893121	0.354420	0.439284
N177	N	0.825394	-0.039012	-0.386912
N178	N	1.325394	0.460988	0.113088
N179	N	0.751569	-0.029829	-0.376806
N180	N	1.251569	0.470171	0.123194
H181	H	0.715496	-0.050363	-0.409489
H182	H	1.215496	0.449637	0.090511
H183	H	0.927462	-0.830527	-0.142263
H184	H	1.427462	-0.330527	0.357737
N185	N	0.727059	-0.051182	-0.000035
N186	N	1.227059	0.448818	0.499965
N187	N	0.721738	-0.082229	-0.060699
N188	N	1.221738	0.417771	0.439301
H189	H	0.758941	-0.115258	-0.060724
H190	H	1.258941	0.384742	0.439276
H191	H	0.870154	-0.013546	-0.622534
H192	H	1.370154	0.486454	-0.122534
N193	N	0.193340	-0.076169	-0.000024
N194	N	0.693340	0.423831	0.499976
N195	N	0.119184	-0.073810	-0.000025
N196	N	0.619184	0.426190	0.499975
H197	H	0.096463	-0.104933	-0.000039
H198	H	0.596463	0.395067	0.499961
H199	H	1.002393	0.061786	-0.484606
H200	H	1.502393	0.561786	0.015394
N201	N	0.936975	-0.221520	-0.158577
N202	N	1.436975	0.278480	0.341423
N203	N	0.878513	-0.210407	-0.211088
N204	N	1.378513	0.289593	0.288912
H205	H	0.875607	-0.230046	-0.267679
H206	H	1.375607	0.269954	0.232321
H207	H	0.679927	0.119640	0.000041
H208	H	1.179927	0.619640	0.500041
H209	H	0.163430	0.094105	0.000034
H210	H	0.663430	0.594105	0.500034
N211	N	0.951147	-0.442964	0.237019
N212	N	1.451147	0.057036	0.737019
N213	N	1.007641	-0.477460	0.254522
N214	N	1.507641	0.022540	0.754522
H215	H	1.009946	-0.494153	0.311121
H216	H	1.509946	0.005847	0.811121
N217	N	0.320617	0.098265	0.000055
N218	N	0.820617	0.598265	0.500055
N219	N	0.274558	0.139136	0.000068
N220	N	0.774558	0.639136	0.500068
H221	H	0.297256	0.170267	0.000088
H222	H	0.797256	0.670267	0.500088
N223	N	0.852337	-0.023713	-0.796232
N224	N	1.352337	0.476287	-0.296232
N225	N	0.881548	-0.058309	-0.846777
N226	N	1.381548	0.441691	-0.346777
H227	H	0.845501	-0.078860	-0.879460
H228	H	1.345501	0.421140	-0.379460
H229	H	1.009663	0.065937	-0.377452
H230	H	1.509663	0.565937	0.122548
N231	N	0.518553	0.133907	0.000063
N232	N	1.018553	0.633907	0.500063
N233	N	0.444399	0.136257	0.000065
N234	N	0.944399	0.636257	0.500065
H235	H	0.407188	0.169282	0.000084
H236	H	0.907188	0.669282	0.500084
H237	H	0.952355	-0.117066	0.142293
H238	H	1.452355	0.382934	0.642293
N239	N	0.941110	-0.827918	0.158613
N240	N	1.441110	-0.327918	0.658613
N241	N	0.997594	-0.862420	0.176113
N242	N	1.497594	-0.362420	0.676113
H243	H	0.999881	-0.879123	0.232699
H244	H	1.499881	-0.379123	0.732699
N245	N	0.867060	-0.015286	-0.524785
N246	N	1.367060	0.484714	-0.024785
N247	N	0.811881	0.004512	-0.575334
N248	N	1.311881	0.504512	-0.075334
H249	H	0.775820	-0.016022	-0.608036
H250	H	1.275820	0.483978	-0.108036
H251	H	0.466936	-0.031562	0.000009
H252	H	0.966936	0.468438	0.500009
H253	H	0.412857	0.083972	0.000034
H254	H	0.912857	0.583972	0.500034
N255	N	0.926918	-0.606454	-0.236955
N256	N	1.426918	-0.106454	0.263045
N257	N	0.926148	-0.651435	-0.236952
N258	N	1.426148	-0.151435	0.263048
H259	H	0.923242	-0.671081	-0.293536
H260	H	1.423242	-0.171081	0.206464
N261	N	0.928648	-0.504623	-0.236978
N262	N	1.428648	-0.004623	0.263022
N263	N	0.925075	-0.528951	-0.306996
N264	N	1.425075	-0.028951	0.193004
H265	H	0.922800	-0.512263	-0.363597
H266	H	1.422800	-0.012263	0.136403
H267	H	1.017126	0.070205	-0.213145
H268	H	1.517126	0.570205	0.286855
H269	H	0.950793	-0.208455	0.142309
H270	H	1.450793	0.291545	0.642309
N271	N	0.833758	-0.034284	-0.203814
N272	N	1.333758	0.465716	0.296186
N273	N	0.843421	-0.080021	-0.213943
N274	N	1.343421	0.419979	0.286057
H275	H	0.810357	-0.098880	-0.181278
H276	H	1.310357	0.401120	0.318722
N277	N	0.952850	-0.341135	0.237009
N278	N	1.452850	0.158865	0.737009
N279	N	1.011306	-0.352245	0.289527
N280	N	1.511306	0.147755	0.789527
H281	H	1.014202	-0.332606	0.346121
H282	H	1.514202	0.167394	0.846121
N283	N	0.942819	-0.726081	0.158613
N284	N	1.442819	-0.226081	0.658613
N285	N	0.945641	-0.746761	0.228637
N286	N	1.445641	-0.246761	0.728637
H287	H	0.948536	-0.727125	0.285233
H288	H	1.448536	-0.227125	0.785233
H289	H	0.939364	-0.124473	-0.142323
H290	H	1.439364	0.375527	0.357677
H291	H	0.928989	-0.739135	-0.142274
H292	H	1.428989	-0.239135	0.357726
N293	N	1.046093	0.086670	-0.796139
N294	N	1.546093	0.586670	-0.296139
N295	N	1.090722	0.112087	-0.755676
N296	N	1.590722	0.612087	-0.255676
H297	H	1.123824	0.130933	-0.788320
H298	H	1.623824	0.630933	-0.288320
H299	H	0.930300	-0.449655	-0.220737
H300	H	1.430300	0.050345	0.279263
H301	H	0.949454	-0.497914	0.220770
H302	H	1.449454	0.002086	0.720770
N303	N	0.931164	-0.353460	-0.236989
N304	N	1.431164	0.146540	0.263011
N305	N	0.872511	-0.353608	-0.289499
N306	N	1.372511	0.146392	0.210501
H307	H	0.870219	-0.336909	-0.346090
H308	H	1.370219	0.163091	0.153910
N309	N	0.948570	-0.594119	0.237017
N310	N	1.448570	-0.094119	0.737017
N311	N	0.947812	-0.639103	0.236997
N312	N	1.447812	-0.139103	0.736997
H313	H	0.950093	-0.655815	0.293574
H314	H	1.450093	-0.155815	0.793574
N315	N	1.054376	0.091440	-0.613079
N316	N	1.554376	0.591440	-0.113079
N317	N	1.095305	0.114775	-0.653506
N318	N	1.595305	0.614775	-0.153506
H319	H	1.131337	0.135339	-0.620834
H320	H	1.631337	0.635339	-0.120834
