data_functionalizedCrystal
_audit_creation_method	'MofGen! by Chris Wilmer'
_symmetry_space_group_name_H-M	'P1'
_symmetry_Int_Tables_number	1
_symmetry_cell_setting	triclinic
loop_
_symmetry_equiv_pos_as_xyz
  x,y,z
_cell_length_a	27.440280
_cell_length_b	23.196402
_cell_length_c	23.196401
_cell_angle_alpha	60.007332
_cell_angle_beta	90.017084
_cell_angle_gamma	60.002720
loop_
_atom_site_label
_atom_site_type_symbol
_atom_site_fract_x
_atom_site_fract_y
_atom_site_fract_z
Zr1	Zr	0.469540	0.630912	-0.075561
O2	O	0.391713	0.751186	-0.167620
O3	O	0.493391	0.510648	-0.047343
O4	O	0.493377	0.630911	-0.167609
O5	O	0.391746	0.630921	0.047517
O6	O	0.573580	0.630899	-0.167598
O7	O	0.391727	0.630923	-0.047354
O8	O	0.573605	0.415771	0.047536
O9	O	0.391721	0.846050	-0.167616
O10	O	0.563426	0.560103	-0.035296
O11	O	0.503586	0.560110	0.035496
O12	O	0.503570	0.701704	-0.106101
O13	O	0.443730	0.701711	-0.035309
Zr14	Zr	0.597485	0.630892	0.075767
Zr15	Zr	0.597454	0.630895	-0.075542
Zr16	Zr	0.469571	0.630910	0.075748
Zr17	Zr	0.469553	0.782210	-0.075556
Zr18	Zr	0.597472	0.479595	0.075761
O19	O	0.573634	0.751157	0.047549
O20	O	0.573590	0.751161	-0.167593
O21	O	0.391756	0.751182	0.047522
O22	O	0.675312	0.510619	0.167825
O23	O	0.675269	0.510622	-0.047317
O24	O	0.493435	0.510644	0.167798
O25	O	0.675279	0.630883	-0.047312
O26	O	0.573648	0.630894	0.167815
O27	O	0.493445	0.630905	0.167803
O28	O	0.675298	0.630882	0.047559
O29	O	0.493395	0.846036	-0.167601
O30	O	0.573629	0.415769	0.167807
O31	O	0.675304	0.415755	0.167822
O32	O	0.675280	0.415757	0.047551
O33	O	0.391745	0.846048	-0.047346
O34	O	0.493420	0.846034	-0.047331
O35	O	0.563455	0.560101	0.106307
O36	O	0.623295	0.560093	0.035514
O37	O	0.563438	0.701695	-0.035291
O38	O	0.503598	0.701702	0.035502
C39	C	0.533496	0.441653	0.000096
C40	C	0.533491	0.377423	0.000093
C41	C	0.577686	0.294988	0.052360
C42	C	0.577690	0.234627	0.052367
C43	C	0.533503	0.256707	0.000095
C44	C	0.489300	0.339157	-0.052176
C45	C	0.489294	0.399515	-0.052177
C46	C	0.519733	0.201123	-0.063699
C47	C	0.519743	0.140764	-0.063698
C48	C	0.533519	0.070545	0.000098
C49	C	0.547298	0.060684	0.063898
C50	C	0.547292	0.121042	0.063897
C51	C	0.533505	0.191265	0.000091
C52	C	0.577722	-0.077343	0.052377
C53	C	0.577722	-0.137703	0.052384
C54	C	0.489334	-0.033171	-0.052165
C55	C	0.489332	0.027186	-0.052167
C56	C	0.533529	0.005095	0.000104
C57	C	0.373511	0.630925	0.000079
C58	C	0.319208	0.630932	0.000071
C59	C	0.013755	0.556974	0.037082
C60	C	-0.037263	0.556970	0.037088
O61	O	-0.037079	0.494109	0.068542
N62	N	-0.094025	0.630884	0.000128
C63	C	-0.099767	0.704807	-0.036835
O64	O	-0.152731	0.767676	-0.068272
C65	C	-0.048749	0.704810	-0.036837
C66	C	0.008012	0.630892	0.000120
C67	C	0.070513	0.483062	0.074036
C68	C	0.121528	0.483067	0.074029
C69	C	0.115785	0.556984	0.037067
C70	C	0.059027	0.630897	0.000112
C71	C	-0.054492	0.778732	-0.073795
C72	C	-0.003468	0.778730	-0.073794
C73	C	0.053293	0.704811	-0.036837
C74	C	0.104298	0.704819	-0.036857
N75	N	0.161059	0.630905	0.000103
C76	C	0.166803	0.556988	0.037065
C77	C	-0.206905	0.704793	-0.036828
C78	C	-0.257923	0.704791	-0.036831
C79	C	-0.195416	0.556954	0.037094
C80	C	-0.144398	0.556957	0.037092
C81	C	-0.150144	0.630880	0.000132
C82	C	0.273935	0.557003	0.037046
C83	C	0.324952	0.557015	0.037033
C84	C	0.262440	0.704851	-0.036888
C85	C	0.211428	0.704840	-0.036878
C86	C	0.217179	0.630910	0.000094
O87	O	0.104160	0.767648	-0.068293
O88	O	0.219769	0.494129	0.068504
C89	C	0.693514	0.630880	0.000126
C90	C	0.747816	0.630873	0.000134
C91	C	0.533474	0.630905	-0.189162
C92	C	0.533461	0.630906	-0.253396
C93	C	0.533529	0.820152	0.000110
C94	C	0.533534	0.884382	0.000112
C95	C	0.502220	0.704819	-0.320529
C96	C	0.502235	0.704820	-0.380884
C97	C	0.533483	0.630904	-0.374103
C98	C	0.564732	0.556982	-0.306958
C99	C	0.564721	0.556983	-0.246605
C100	C	0.529040	0.574279	-0.441423
C101	C	0.529047	0.574281	-0.501776
C102	C	0.533521	0.630898	-0.560250
C103	C	0.537976	0.687527	-0.558370
C104	C	0.537965	0.687528	-0.498017
C105	C	0.533499	0.630895	-0.439541
C106	C	0.502294	0.704817	-0.692829
C107	C	0.502314	0.704815	-0.753184
C108	C	0.564807	0.556975	-0.679256
C109	C	0.564792	0.556979	-0.618903
C110	C	0.533532	0.630902	-0.625695
C111	C	0.533551	0.630899	0.189367
C112	C	0.533564	0.630898	0.253602
C113	C	0.693497	0.441630	0.000119
C114	C	0.747795	0.377393	0.000125
C115	C	0.533534	0.441650	0.189360
C116	C	0.533542	0.377419	0.253592
C117	C	0.693536	0.441627	0.189384
C118	C	0.747846	0.377389	0.253624
C119	C	0.373489	0.820177	-0.189178
C120	C	0.319179	0.884416	-0.253419
C121	C	0.373527	0.820174	0.000086
C122	C	0.319230	0.884412	0.000080
C123	C	0.533490	0.820155	-0.189155
C124	C	0.533483	0.884386	-0.253387
C125	C	0.742043	0.347232	-0.036841
C126	C	0.793056	0.286882	-0.036850
C127	C	0.849821	0.256692	0.000112
C128	C	0.855572	0.286859	0.037079
C129	C	0.804559	0.347211	0.037083
C130	C	0.564796	0.347251	0.320725
C131	C	0.564801	0.286908	0.381084
C132	C	0.533555	0.256730	0.374308
C133	C	0.502296	0.286904	0.307168
C134	C	0.502289	0.347250	0.246811
C135	C	0.804592	0.347219	0.246839
C136	C	0.855627	0.286868	0.307194
C137	C	0.849915	0.256686	0.374333
C138	C	0.793163	0.286863	0.381116
C139	C	0.742129	0.347216	0.320762
C140	C	0.262433	0.914594	-0.246634
C141	C	0.211397	0.974962	-0.306988
C142	C	0.217109	1.005148	-0.374127
C143	C	0.273861	0.974968	-0.380911
C144	C	0.324895	0.914604	-0.320557
C145	C	0.324982	0.914579	0.037040
C146	C	0.273969	0.974945	0.037032
C147	C	0.217204	1.005138	0.000068
C148	C	0.211453	0.974968	-0.036896
C149	C	0.262466	0.914607	-0.036892
C150	C	0.564735	0.914544	-0.246589
C151	C	0.564740	0.974888	-0.306936
C152	C	0.533488	1.005076	-0.374081
C153	C	0.502235	0.974911	-0.380877
C154	C	0.502234	0.914565	-0.320531
H155	H	0.613707	-0.095332	0.094942
H156	H	0.371198	0.890001	0.067145
H157	H	0.590257	0.262347	0.435746
H158	H	0.371099	0.890033	-0.326090
H159	H	0.901833	0.262305	0.301658
H160	H	0.165192	0.999525	-0.301451
H161	H	0.590162	0.496793	-0.191941
H162	H	0.891354	0.207548	0.000103
H163	H	0.613674	0.276993	0.094924
H164	H	0.901797	0.262269	0.067172
H165	H	0.788362	0.262327	-0.066953
H166	H	0.476856	0.262324	0.301662
H167	H	0.809251	0.371761	0.067189
H168	H	0.476839	0.371805	0.192151
H169	H	0.590189	0.999442	-0.301388
H170	H	0.788521	0.262279	0.435789
H171	H	0.891475	0.207542	0.423471
H172	H	0.278663	0.999500	0.067136
H173	H	0.175549	1.054300	-0.423266
H174	H	0.590241	0.371815	0.326255
H175	H	0.257770	0.890020	-0.191971
H176	H	0.476768	0.765012	-0.326065
H177	H	0.165228	0.999560	-0.066991
H178	H	0.695926	0.371773	0.326297
H179	H	0.278505	0.999553	-0.435583
H180	H	0.175671	1.054288	0.000071
H181	H	0.257774	0.890046	-0.066987
H182	H	0.533493	1.054214	-0.423213
H183	H	0.371169	0.496819	0.067130
H184	H	0.590184	0.889975	-0.191922
H185	H	0.613680	0.167496	0.094931
H186	H	0.476790	0.999500	-0.435555
H187	H	0.476782	0.890016	-0.326076
H188	H	0.508509	0.258300	-0.115654
H189	H	0.809254	0.371784	0.192176
H190	H	0.558509	0.113010	0.115845
H191	H	0.695826	0.371812	-0.066948
H192	H	-0.100701	0.838925	-0.103889
H193	H	0.453346	0.094311	-0.094732
H194	H	0.533566	0.207592	0.423461
H195	H	0.278627	0.496802	0.067153
H196	H	0.558511	0.003512	0.115847
H197	H	0.541594	0.733636	-0.496489
H198	H	0.453356	-0.015191	-0.094725
H199	H	0.508527	0.148798	-0.115647
H200	H	0.613711	-0.204829	0.094950
H201	H	0.453322	0.357131	-0.094736
H202	H	0.453302	0.466641	-0.094739
H203	H	0.075200	0.422866	0.104138
H204	H	-0.098184	0.496766	0.067192
H205	H	-0.190747	0.496766	0.067188
H206	H	0.167741	0.422875	0.104120
H207	H	0.476875	0.765005	-0.807848
H208	H	-0.211593	0.764994	-0.066928
H209	H	-0.304136	0.764982	-0.066934
H210	H	0.165210	0.765031	-0.066981
H211	H	0.257774	0.765033	-0.066984
H212	H	-0.008153	0.838928	-0.103882
H213	H	0.476792	0.765010	-0.435554
H214	H	0.541616	0.733633	-0.605983
H215	H	0.476841	0.765009	-0.698360
H216	H	0.590229	0.496792	-0.564240
H217	H	0.590251	0.496792	-0.673733
H218	H	0.525393	0.528175	-0.393815
H219	H	0.525416	0.528173	-0.503302
H220	H	0.590175	0.496800	-0.301440
