data_functionalizedCrystal
_audit_creation_method	'MofGen! by Chris Wilmer'
_symmetry_space_group_name_H-M	'P1'
_symmetry_Int_Tables_number	1
_symmetry_cell_setting	triclinic
loop_
_symmetry_equiv_pos_as_xyz
  x,y,z
_cell_length_a	17.038272
_cell_length_b	17.000371
_cell_length_c	16.098524
_cell_angle_alpha	93.245923
_cell_angle_beta	92.870584
_cell_angle_gamma	83.355402
loop_
_atom_site_label
_atom_site_type_symbol
_atom_site_fract_x
_atom_site_fract_y
_atom_site_fract_z
O1	O	1.028469	0.175408	0.069154
O2	O	1.361802	0.508741	0.402488
O3	O	1.695135	0.842074	0.735821
O4	O	0.801026	0.172677	0.069179
O5	O	1.134359	0.506011	0.402512
O6	O	1.467693	0.839344	0.735846
O7	O	0.928869	0.059132	0.069159
O8	O	1.262203	0.392465	0.402493
O9	O	1.595536	0.725799	0.735826
O10	O	0.900625	0.288953	0.069174
O11	O	1.233958	0.622286	0.402507
O12	O	1.567292	0.955620	0.735841
O13	O	0.923081	0.052383	-0.069354
O14	O	1.256414	0.385716	0.263980
O15	O	1.589748	0.719050	0.597313
O16	O	0.795238	0.165928	-0.069334
O17	O	1.128571	0.499261	0.263999
O18	O	1.461904	0.832595	0.597332
O19	O	1.022680	0.168659	-0.069359
O20	O	1.356014	0.501992	0.263975
O21	O	1.689347	0.835325	0.597308
Zn22	Zn	0.908040	0.166222	-0.091338
Zn23	Zn	1.241373	0.499555	0.241995
Zn24	Zn	1.574707	0.832888	0.575328
Zn25	Zn	0.915666	0.175114	0.091159
Zn26	Zn	1.249000	0.508447	0.424492
Zn27	Zn	1.582333	0.841781	0.757825
O28	O	0.894837	0.282204	-0.069339
O29	O	1.228170	0.615537	0.263994
O30	O	1.561504	0.948870	0.597328
C31	C	0.769174	0.166818	-0.000075
C32	C	1.102507	0.500151	0.333259
C33	C	1.435841	0.833485	0.666592
C34	C	0.682889	0.159406	-0.000065
C35	C	1.016222	0.492739	0.333268
C36	C	1.349556	0.826072	0.666601
C37	C	0.927492	0.026206	-0.000097
C38	C	1.260826	0.359540	0.333236
C39	C	1.594159	0.692873	0.666570
C40	C	0.932004	-0.061847	-0.000097
C41	C	1.265337	0.271487	0.333236
C42	C	1.598670	0.604820	0.666570
C43	C	0.862582	-0.098572	-0.000086
C44	C	1.195916	0.234761	0.333248
C45	C	1.529249	0.568094	0.666581
C46	C	0.866826	-0.181308	-0.000088
C47	C	1.200159	0.152025	0.333245
C48	C	1.533492	0.485358	0.666578
C49	C	0.940491	-0.227316	-0.000096
C50	C	1.273824	0.106017	0.333237
C51	C	1.607158	0.439350	0.666570
C52	C	1.009918	-0.190585	-0.000110
C53	C	1.343251	0.142748	0.333223
C54	C	1.676584	0.476081	0.666557
C55	C	1.005673	-0.107851	-0.000113
C56	C	1.339007	0.225482	0.333220
C57	C	1.672340	0.558815	0.666553
C58	C	0.956885	-0.477352	-0.000092
C59	C	1.290218	-0.144019	0.333241
C60	C	1.623552	0.189315	0.666574
C61	C	0.961124	-0.560091	-0.000087
C62	C	1.294458	-0.226758	0.333247
C63	C	1.627791	0.106575	0.666580
C64	C	0.818032	-0.550809	-0.000067
C65	C	1.151365	-0.217475	0.333267
C66	C	1.484698	0.115858	0.666600
C67	C	0.813794	-0.468073	-0.000065
C68	C	1.147128	-0.134740	0.333268
C69	C	1.480461	0.198593	0.666602
C70	C	0.883220	-0.431350	-0.000083
C71	C	1.216554	-0.098016	0.333250
C72	C	1.549887	0.235317	0.666584
C73	C	0.944830	-0.311886	-0.000096
C74	C	1.278164	0.021448	0.333237
C75	C	1.611497	0.354781	0.666570
C76	C	0.878880	-0.346782	-0.000089
C77	C	1.212213	-0.013449	0.333245
C78	C	1.545547	0.319885	0.666578
C79	C	0.628114	0.227464	-0.000062
C80	C	0.961447	0.560798	0.333272
C81	C	1.294780	0.894131	0.666605
C82	C	0.547040	0.220494	-0.000074
C83	C	0.880373	0.553827	0.333260
C84	C	1.213707	0.887161	0.666593
C85	C	0.520744	0.145464	-0.000083
C86	C	0.854077	0.478798	0.333250
C87	C	1.187410	0.812131	0.666583
C88	C	0.575526	0.077401	-0.000090
C89	C	0.908859	0.410734	0.333244
C90	C	1.242192	0.744067	0.666577
C91	C	0.656597	0.084371	-0.000084
C92	C	0.989931	0.417705	0.333250
C93	C	1.323264	0.751038	0.666583
C94	C	0.276671	0.120837	-0.000107
C95	C	0.610005	0.454171	0.333226
C96	C	0.943338	0.787504	0.666559
C97	C	0.195593	0.113872	-0.000111
C98	C	0.528926	0.447205	0.333223
C99	C	0.862260	0.780538	0.666556
C100	C	0.167113	0.256966	-0.000096
C101	C	0.500446	0.590299	0.333237
C102	C	0.833779	0.923632	0.666570
C103	C	0.248188	0.263930	-0.000085
C104	C	0.581521	0.597264	0.333248
C105	C	0.914854	0.930597	0.666581
C106	C	0.302962	0.195866	-0.000096
C107	C	0.636296	0.529200	0.333237
C108	C	0.969629	0.862533	0.666571
C109	C	0.437874	0.138338	-0.000093
C110	C	0.771207	0.471671	0.333240
C111	C	1.104540	0.805005	0.666574
C112	C	0.385830	0.202993	-0.000092
C113	C	0.719164	0.536327	0.333241
C114	C	1.052497	0.869660	0.666574
C115	C	1.054532	0.174518	-0.000103
C116	C	1.387866	0.507851	0.333230
C117	C	1.721199	0.841184	0.666563
C118	C	1.140818	0.181930	-0.000107
C119	C	1.474151	0.515264	0.333226
C120	C	1.807484	0.848597	0.666560
C121	C	0.896214	0.315129	-0.000081
C122	C	1.229547	0.648463	0.333253
C123	C	1.562881	0.981796	0.666586
C124	C	0.891703	0.403183	-0.000076
C125	C	1.225036	0.736516	0.333258
C126	C	1.558370	1.069850	0.666591
N127	N	0.902841	0.160153	-0.215888
N128	N	1.236174	0.493486	0.117446
N129	N	1.569508	0.826819	0.450779
C130	C	0.944914	0.209306	-0.259471
C131	C	1.278247	0.542639	0.073862
C132	C	1.611580	0.875973	0.407195
C133	C	0.941288	0.205056	-0.346660
C134	C	1.274621	0.538389	-0.013327
C135	C	1.607954	0.871723	0.320006
C136	C	0.895584	0.151656	-0.390264
C137	C	1.228917	0.484989	-0.056931
C138	C	1.562251	0.818323	0.276402
C139	C	0.853510	0.102498	-0.346675
C140	C	1.186843	0.435831	-0.013341
C141	C	1.520177	0.769164	0.319992
C142	C	0.857141	0.106744	-0.259487
C143	C	1.190474	0.440078	0.073846
C144	C	1.523808	0.773411	0.407180
C145	C	0.882429	0.136265	-0.653515
C146	C	1.215762	0.469599	-0.320181
C147	C	1.549096	0.802932	0.013152
C148	C	0.878799	0.132024	-0.740708
C149	C	1.212133	0.465357	-0.407375
C150	C	1.545466	0.798691	-0.074042
C151	C	0.966578	0.234582	-0.740688
C152	C	1.299912	0.567915	-0.407355
C153	C	1.633245	0.901248	-0.074022
C154	C	0.970202	0.238827	-0.653499
C155	C	1.303535	0.572160	-0.320166
C156	C	1.636868	0.905494	0.013168
C157	C	0.928131	0.189666	-0.609917
C158	C	1.261464	0.522999	-0.276584
C159	C	1.594798	0.856332	0.056750
C160	C	0.891874	0.147312	-0.479386
C161	C	1.225208	0.480646	-0.146052
C162	C	1.558541	0.813979	0.187281
C163	C	0.931845	0.194006	-0.520797
C164	C	1.265179	0.527339	-0.187464
C165	C	1.598512	0.860673	0.145869
N166	N	0.920872	0.181177	0.215708
N167	N	1.254205	0.514511	0.549041
N168	N	1.587539	0.847844	0.882375
H169	H	0.802596	-0.061118	-0.000075
H170	H	1.135929	0.272216	0.333258
H171	H	1.469262	0.605549	0.666591
H172	H	0.753808	-0.430618	-0.000056
H173	H	1.087141	-0.097285	0.333277
H174	H	1.420474	0.236048	0.666611
H175	H	0.848172	0.096234	-0.618041
H176	H	1.181506	0.429567	-0.284707
H177	H	1.514839	0.762901	0.048626
H178	H	0.174187	0.052771	-0.000118
H179	H	0.507520	0.386104	0.333216
H180	H	0.840854	0.719437	0.666549
F181	F	0.993556	0.266143	-0.213073
F182	F	1.326890	0.599477	0.120261
F183	F	1.660223	0.932810	0.453594
F184	F	0.986066	0.257373	-0.393042
F185	F	1.319400	0.590706	-0.059708
F186	F	1.652733	0.924039	0.273625
F187	F	0.744149	-0.589899	-0.000048
F188	F	1.077482	-0.256565	0.333285
F189	F	1.410815	0.076768	0.666618
F190	F	1.088318	-0.239553	-0.000127
F191	F	1.421651	0.093780	0.333206
F192	F	1.754985	0.427113	0.666539
H193	H	0.841578	0.088539	-0.776208
H194	H	1.174911	0.421873	-0.442875
H195	H	1.508244	0.755206	-0.109542
F196	F	0.792937	-0.220391	-0.000075
F197	F	1.126271	0.112943	0.333258
F198	F	1.459604	0.446276	0.666591
H199	H	0.816301	0.059015	-0.382184
H200	H	1.149635	0.392348	-0.048850
H201	H	1.482968	0.725681	0.284483
F202	F	1.018818	0.295687	-0.607099
F203	F	1.352151	0.629020	-0.273765
F204	F	1.685484	0.962354	0.059568
H205	H	0.701196	0.028951	-0.000086
H206	H	1.034529	0.362284	0.333247
H207	H	1.367863	0.695617	0.666581
F208	F	1.030776	-0.438277	-0.000089
F209	F	1.364110	-0.104944	0.333244
F210	F	1.697443	0.228389	0.666578
H211	H	1.021115	-0.597550	-0.000088
H212	H	1.354448	-0.264216	0.333246
H213	H	1.687782	0.069117	0.666579
F214	F	1.079561	-0.068766	-0.000132
F215	F	1.412894	0.264567	0.333201
F216	F	1.746227	0.597901	0.666535
F217	F	0.812368	0.054423	-0.213103
F218	F	1.145702	0.387756	0.120231
F219	F	1.479035	0.721089	0.453564
H220	H	0.818902	-0.309319	-0.000087
H221	H	1.152235	0.024014	0.333246
H222	H	1.485568	0.357348	0.666579
F223	F	0.334957	0.048397	-0.000118
F224	F	0.668290	0.381730	0.333215
F225	F	1.001623	0.715063	0.666548
H226	H	0.854662	0.103834	-0.514898
H227	H	1.187995	0.437168	-0.181564
H228	H	1.521329	0.770501	0.151769
H229	H	1.000830	0.274605	-0.776182
H230	H	1.334164	0.607939	-0.442849
H231	H	1.667497	0.941272	-0.109515
H232	H	0.649517	0.288561	-0.000053
H233	H	0.982850	0.621895	0.333280
H234	H	1.316183	0.955228	0.666613
F235	F	1.023229	-0.360858	-0.000108
F236	F	1.356562	-0.027525	0.333226
F237	F	1.689895	0.305809	0.666559
F238	F	0.488747	0.292932	-0.000066
F239	F	0.822080	0.626266	0.333267
F240	F	1.155413	0.959599	0.666601
F241	F	0.409880	0.058488	-0.000100
F242	F	0.743213	0.391821	0.333233
F243	F	1.076546	0.725155	0.666566
H244	H	0.969060	0.237481	-0.485291
H245	H	1.302393	0.570814	-0.151958
H246	H	1.635727	0.904148	0.181375
H247	H	0.269591	0.325028	-0.000068
H248	H	0.602925	0.658361	0.333266
H249	H	0.936258	0.991694	0.666599
F250	F	0.108813	0.329399	-0.000087
F251	F	0.442146	0.662732	0.333246
F252	F	0.775480	0.996066	0.666580
F253	F	0.547537	-0.002452	-0.000105
F254	F	0.880870	0.330881	0.333228
F255	F	1.214203	0.664214	0.666561
F256	F	0.413819	0.282842	-0.000085
F257	F	0.747152	0.616176	0.333248
F258	F	1.080485	0.949509	0.666581
