data_functionalizedCrystal
_audit_creation_method	'MofGen! by Chris Wilmer'
_symmetry_space_group_name_H-M	'P1'
_symmetry_Int_Tables_number	1
_symmetry_cell_setting	triclinic
loop_
_symmetry_equiv_pos_as_xyz
  x,y,z
_cell_length_a	13.897449
_cell_length_b	12.594516
_cell_length_c	12.594509
_cell_angle_alpha	89.973801
_cell_angle_beta	89.980142
_cell_angle_gamma	90.017332
loop_
_atom_site_label
_atom_site_type_symbol
_atom_site_fract_x
_atom_site_fract_y
_atom_site_fract_z
Zn1	Zn	1.474705	-0.423674	-0.601833
Zn2	Zn	1.474606	-0.601684	-0.423861
Zn3	Zn	1.313397	-0.423724	-0.423867
Zn4	Zn	1.313381	-0.601615	-0.601796
O5	O	1.394022	-0.512674	-0.512839
O6	O	1.609674	-0.447295	-0.578238
O7	O	1.453187	-0.578127	-0.274916
O8	O	1.334843	-0.274771	-0.447493
O9	O	1.609601	-0.578079	-0.447483
O10	O	1.453356	-0.274735	-0.578244
O11	O	1.334747	-0.447381	-0.274920
O12	O	1.178413	-0.447313	-0.447456
O13	O	1.334815	-0.577960	-0.750747
O14	O	1.178401	-0.578009	-0.578180
O15	O	1.453340	-0.447228	-0.750774
O16	O	1.453171	-0.750621	-0.447446
O17	O	1.334720	-0.750570	-0.578174
C18	C	1.143408	-0.512660	-0.512815
C19	C	1.036194	-0.512679	-0.512830
C20	C	0.839899	-0.512683	-0.512858
C21	C	0.949131	-0.512678	-0.512839
C22	C	1.393959	-0.789215	-0.512829
C23	C	1.394020	-0.907520	-0.512860
C24	C	1.329588	-0.976784	-0.583913
C25	C	1.306086	-1.047650	-0.486790
C26	C	1.417610	-1.047453	-0.609999
C27	C	1.370472	-0.976828	-0.415686
C28	C	1.482037	-0.976625	-0.538960
C29	C	1.458568	-1.047459	-0.441771
C30	C	1.645615	-0.512689	-0.512864
C31	C	1.752829	-0.512695	-0.512875
C32	C	1.394087	-0.512581	-0.790460
C33	C	1.394114	-0.512541	-0.908766
C34	C	1.394112	-0.235053	-0.512873
C35	C	1.394150	-0.116748	-0.512887
C36	C	1.329669	-0.583606	-0.978004
C37	C	1.417684	-0.609610	-1.048793
C38	C	1.306168	-0.486473	-1.048776
C39	C	1.482176	-0.538596	-0.977996
C40	C	1.370600	-0.415414	-0.977974
C41	C	1.458676	-0.441381	-1.048730
C42	C	1.394013	-0.512690	-0.236298
C43	C	1.394173	-0.512430	-0.117993
H44	H	1.275003	-0.945751	-0.643912
H45	H	1.350653	-0.333346	-0.946843
F46	F	1.344351	-0.936451	-0.308294
H47	H	1.556597	-0.560691	-0.947036
F48	F	1.579227	-0.935818	-0.567846
H49	H	1.437510	-1.078477	-0.692138
F50	F	1.208870	-1.088425	-0.457940
F51	F	1.529863	-1.087765	-0.363161
F52	F	1.258490	-0.662276	-0.937410
F53	F	1.443724	-0.716907	-1.089454
F54	F	1.530022	-0.362768	-1.089071
F55	F	1.208923	-0.457713	-1.089416
