data_functionalizedCrystal
_audit_creation_method	'MofGen! by Chris Wilmer'
_symmetry_space_group_name_H-M	'P1'
_symmetry_Int_Tables_number	1
_symmetry_cell_setting	triclinic
loop_
_symmetry_equiv_pos_as_xyz
  x,y,z
_cell_length_a	21.395362
_cell_length_b	21.295417
_cell_length_c	21.395355
_cell_angle_alpha	90.020404
_cell_angle_beta	90.043940
_cell_angle_gamma	90.045579
loop_
_atom_site_label
_atom_site_type_symbol
_atom_site_fract_x
_atom_site_fract_y
_atom_site_fract_z
Zn1	Zn	0.957864	-0.250415	0.354577
Zn2	Zn	1.291197	0.082918	0.687911
Zn3	Zn	1.624531	0.416251	1.021244
Zn4	Zn	0.957768	-0.355667	0.249796
Zn5	Zn	1.291102	-0.022334	0.583130
Zn6	Zn	1.624435	0.311000	0.916463
Zn7	Zn	0.853079	-0.250445	0.249779
Zn8	Zn	1.186412	0.082889	0.583112
Zn9	Zn	1.519745	0.416222	0.916445
Zn10	Zn	0.853050	-0.355680	0.354501
Zn11	Zn	1.186383	-0.022346	0.687834
Zn12	Zn	1.519716	0.310987	1.021168
O13	O	0.905440	-0.303052	0.302163
O14	O	1.238774	0.030282	0.635497
O15	O	1.572107	0.363615	0.968830
O16	O	1.045529	-0.264359	0.340717
O17	O	1.378862	0.068974	0.674051
O18	O	1.712196	0.402307	1.007384
O19	O	0.943853	-0.341716	0.162116
O20	O	1.277186	-0.008382	0.495449
O21	O	1.610520	0.324951	0.828783
O22	O	0.867031	-0.162351	0.263705
O23	O	1.200364	0.170982	0.597038
O24	O	1.533698	0.504315	0.930372
O25	O	1.045459	-0.341687	0.263735
O26	O	1.378792	-0.008354	0.597069
O27	O	1.712125	0.324979	0.930402
O28	O	0.944016	-0.162330	0.340700
O29	O	1.277349	0.171004	0.674033
O30	O	1.610683	0.504337	1.007367
O31	O	0.866938	-0.264409	0.162103
O32	O	1.200272	0.068924	0.495436
O33	O	1.533605	0.402257	0.828770
O34	O	0.765397	-0.264422	0.263631
O35	O	1.098730	0.068911	0.596964
O36	O	1.432064	0.402245	0.930298
O37	O	0.866982	-0.341709	0.442189
O38	O	1.200315	-0.008376	0.775523
O39	O	1.533648	0.324957	1.108856
O40	O	0.765376	-0.341738	0.340570
O41	O	1.098709	-0.008404	0.673903
O42	O	1.432042	0.324929	1.007237
O43	O	0.943988	-0.264372	0.442245
O44	O	1.277321	0.068961	0.775579
O45	O	1.610655	0.402295	1.108912
O46	O	0.943825	-0.443758	0.263661
O47	O	1.277158	-0.110425	0.596995
O48	O	1.610492	0.222909	0.930328
O49	O	0.866889	-0.443767	0.340587
O50	O	1.200222	-0.110434	0.673921
O51	O	1.533555	0.222899	1.007254
C52	C	0.742652	-0.303085	0.302091
C53	C	1.075986	0.030248	0.635424
C54	C	1.409319	0.363582	0.968757
C55	C	0.673011	-0.303114	0.302074
C56	C	1.006345	0.030219	0.635408
C57	C	1.339678	0.363552	0.968741
C58	C	0.905360	-0.466603	0.302132
C59	C	1.238694	-0.133270	0.635465
C60	C	1.572027	0.200063	0.968798
C61	C	0.905383	-0.536571	0.302139
C62	C	1.238717	-0.203238	0.635472
C63	C	1.572050	0.130095	0.968806
C64	C	0.640303	-0.343426	0.342077
C65	C	0.973637	-0.010093	0.675410
C66	C	1.306970	0.323241	1.008743
C67	C	0.574868	-0.343411	0.342105
C68	C	0.908201	-0.010077	0.675438
C69	C	1.241535	0.323256	1.008771
C70	C	0.542143	-0.303090	0.302119
C71	C	0.875476	0.030243	0.635452
C72	C	1.208810	0.363577	0.968786
C73	C	0.574859	-0.262771	0.262114
C74	C	0.908192	0.070563	0.595447
C75	C	1.241525	0.403896	0.928781
C76	C	0.640293	-0.262783	0.262092
C77	C	0.973626	0.070551	0.595425
C78	C	1.306959	0.403884	0.928758
C79	C	0.438418	-0.298019	0.245714
C80	C	0.771751	0.035314	0.579047
C81	C	1.105085	0.368648	0.912381
C82	C	0.372985	-0.298011	0.245735
C83	C	0.706319	0.035322	0.579069
C84	C	1.039652	0.368655	0.912402
C85	C	0.340322	-0.303049	0.302188
C86	C	0.673656	0.030284	0.635522
C87	C	1.006989	0.363618	0.968855
C88	C	0.373100	-0.308108	0.358622
C89	C	0.706434	0.025226	0.691955
C90	C	1.039767	0.358559	1.025288
C91	C	0.438534	-0.308120	0.358599
C92	C	0.771868	0.025213	0.691933
C93	C	1.105201	0.358547	1.025266
C94	C	0.471191	-0.303072	0.302139
C95	C	0.804524	0.030261	0.635472
C96	C	1.137857	0.363595	0.968806
C97	C	0.236662	-0.343346	0.342224
C98	C	0.569995	-0.010013	0.675558
C99	C	0.903329	0.323321	1.008891
C100	C	0.171225	-0.343326	0.342253
C101	C	0.504559	-0.009993	0.675586
C102	C	0.837892	0.323340	1.008920
C103	C	0.171217	-0.262690	0.262257
C104	C	0.504551	0.070644	0.595590
C105	C	0.837884	0.403977	0.928924
C106	C	0.236653	-0.262706	0.262234
C107	C	0.569986	0.070627	0.595567
C108	C	0.903319	0.403961	0.928900
C109	C	0.269371	-0.303038	0.302216
C110	C	0.602704	0.030296	0.635550
C111	C	0.936038	0.363629	0.968883
C112	C	0.945447	-0.569370	0.342259
C113	C	1.278780	-0.236036	0.675592
C114	C	1.612113	0.097297	1.008926
C115	C	0.945469	-0.635112	0.342275
C116	C	1.278802	-0.301779	0.675608
C117	C	1.612135	0.031555	1.008941
C118	C	0.905434	-0.668054	0.302159
C119	C	1.238768	-0.334721	0.635492
C120	C	1.572101	-0.001387	0.968825
C121	C	0.865363	-0.635248	0.262036
C122	C	1.198697	-0.301914	0.595369
C123	C	1.532030	0.031419	0.928703
C124	C	0.865338	-0.569506	0.262026
C125	C	1.198671	-0.236173	0.595359
C126	C	1.532005	0.097160	0.928693
N127	N	0.900697	-0.771307	0.247324
N128	N	1.234030	-0.437974	0.580657
N129	N	1.567364	-0.104641	0.913990
N130	N	0.900725	-0.833759	0.247335
N131	N	1.234058	-0.500425	0.580668
N132	N	1.567392	-0.167092	0.914001
C133	C	0.905507	-0.866129	0.302187
C134	C	1.238841	-0.532795	0.635520
C135	C	1.572174	-0.199462	0.968854
N136	N	0.910273	-0.833688	0.357029
N137	N	1.243607	-0.500354	0.690363
N138	N	1.576940	-0.167021	1.023696
N139	N	0.910249	-0.771230	0.357017
N140	N	1.243582	-0.437897	0.690351
N141	N	1.576916	-0.104564	1.023684
C142	C	0.905457	-0.739339	0.302165
C143	C	1.238790	-0.406006	0.635499
C144	C	1.572124	-0.072673	0.968832
C145	C	0.945597	-0.970212	0.342327
C146	C	1.278930	-0.636879	0.675661
C147	C	1.612263	-0.303546	1.008994
C148	C	0.945615	-1.035956	0.342344
C149	C	1.278948	-0.702623	0.675677
C150	C	1.612281	-0.369289	1.009010
C151	C	0.865512	-1.036090	0.262100
C152	C	1.198846	-0.702757	0.595433
C153	C	1.532179	-0.369424	0.928766
C154	C	0.865491	-0.970348	0.262089
C155	C	1.198825	-0.637014	0.595422
C156	C	1.532158	-0.303681	0.928755
C157	C	0.905537	-0.937413	0.302202
C158	C	1.238870	-0.604079	0.635535
C159	C	1.572204	-0.270746	0.968868
C160	C	1.068864	-0.303019	0.302237
C161	C	1.402197	0.030315	0.635570
C162	C	1.735530	0.363648	0.968903
C163	C	1.138505	-0.303005	0.302268
C164	C	1.471838	0.030329	0.635601
C165	C	1.805171	0.363662	0.968935
C166	C	0.905492	-0.303039	0.465587
C167	C	1.238826	0.030294	0.798920
C168	C	1.572159	0.363628	1.132253
C169	C	0.905514	-0.303033	0.535228
C170	C	1.238848	0.030300	0.868561
C171	C	1.572181	0.363633	1.201895
C172	C	0.905537	-0.138861	0.302209
C173	C	1.238871	0.194472	0.635542
C174	C	1.572204	0.527805	0.968876
C175	C	0.905579	-0.068893	0.302228
C176	C	1.238912	0.264440	0.635562
C177	C	1.572246	0.597773	0.968895
C178	C	0.905424	-0.303019	0.139376
C179	C	1.238758	0.030314	0.472709
C180	C	1.572091	0.363648	0.806043
C181	C	0.905524	-0.302847	0.069735
C182	C	1.238857	0.030486	0.403068
C183	C	1.572190	0.363820	0.736402
C184	C	0.945610	-0.262762	0.567971
C185	C	1.278943	0.070571	0.901305
C186	C	1.612277	0.403904	1.234638
C187	C	0.945609	-0.262735	0.633407
C188	C	1.278942	0.070598	0.966740
C189	C	1.612276	0.403932	1.300073
C190	C	0.905519	-0.302991	0.666096
C191	C	1.238853	0.030343	0.999430
C192	C	1.572186	0.363676	1.332763
C193	C	0.865416	-0.343265	0.633345
C194	C	1.198749	-0.009931	0.966679
C195	C	1.532083	0.323402	1.300012
C196	C	0.865413	-0.343286	0.567911
C197	C	1.198747	-0.009953	0.901244
C198	C	1.532080	0.323381	1.234578
C199	C	0.900544	-0.359672	0.769758
C200	C	1.233878	-0.026339	1.103092
C201	C	1.567211	0.306995	1.436425
C202	C	0.900551	-0.359652	0.835191
C203	C	1.233884	-0.026318	1.168525
C204	C	1.567218	0.307015	1.501858
C205	C	0.905523	-0.302924	0.867917
C206	C	1.238856	0.030409	1.201251
C207	C	1.572190	0.363743	1.534584
C208	C	0.910501	-0.246215	0.835202
C209	C	1.243835	0.087118	1.168535
C210	C	1.577168	0.420452	1.501869
C211	C	0.910499	-0.246237	0.769768
C212	C	1.243832	0.087097	1.103101
C213	C	1.577166	0.420430	1.436435
C214	C	0.905517	-0.302971	0.737049
C215	C	1.238850	0.030362	1.070382
C216	C	1.572184	0.363695	1.403716
C217	C	0.945620	-0.262620	0.971613
C218	C	1.278953	0.070713	1.304947
C219	C	1.612287	0.404047	1.638280
C220	C	0.945615	-0.262592	1.037050
C221	C	1.278948	0.070741	1.370383
C222	C	1.612281	0.404075	1.703717
C223	C	0.865425	-0.343127	1.036987
C224	C	1.198758	-0.009794	1.370320
C225	C	1.532091	0.323540	1.703654
C226	C	0.865427	-0.343150	0.971552
C227	C	1.198760	-0.009816	1.304885
C228	C	1.532093	0.323517	1.638218
C229	C	0.905528	-0.302897	0.938869
C230	C	1.238861	0.030436	1.272202
C231	C	1.572194	0.363770	1.605535
H232	H	0.548232	-0.376237	0.374682
H233	H	0.881565	-0.042904	0.708015
H234	H	1.214899	0.290430	1.041348
H235	H	0.346302	-0.293896	0.199784
H236	H	0.679636	0.039437	0.533117
H237	H	1.012969	0.372771	0.866450
H238	H	0.978269	-0.229840	0.945001
H239	H	1.311602	0.103493	1.278335
H240	H	1.644936	0.436826	1.611668
H241	H	0.832760	-0.376079	0.541252
H242	H	1.166093	-0.042746	0.874585
H243	H	1.499427	0.290588	1.207918
C244	C	0.989541	-0.671201	0.386405
C245	C	1.322874	-0.337868	0.719738
C246	C	1.656207	-0.004534	1.053072
H247	H	0.983817	-0.715071	0.380667
H248	H	1.317150	-0.381738	0.714001
H249	H	1.650484	-0.048404	1.047334
H250	H	1.031638	-0.660382	0.377284
H251	H	1.364971	-0.327049	0.710618
H252	H	1.698305	0.006285	1.043951
H253	H	0.980346	-0.660419	0.428493
H254	H	1.313680	-0.327086	0.761827
H255	H	1.647013	0.006248	1.095160
H256	H	0.832871	-0.943642	0.229417
H257	H	1.166204	-0.610308	0.562750
H258	H	1.499537	-0.276975	0.896083
H259	H	0.465220	-0.312237	0.404549
H260	H	0.798553	0.021096	0.737883
H261	H	1.131886	0.354430	1.071216
H262	H	0.914551	-0.200022	0.861846
H263	H	1.247884	0.133311	1.195179
H264	H	1.581218	0.466645	1.528513
C265	C	0.989488	-0.533142	0.386386
C266	C	1.322822	-0.199808	0.719719
C267	C	1.656155	0.133525	1.053052
H268	H	0.983740	-0.489290	0.380632
H269	H	1.317073	-0.155957	0.713966
H270	H	1.650406	0.177376	1.047299
H271	H	0.980304	-0.543907	0.428473
H272	H	1.313637	-0.210574	0.761806
H273	H	1.646971	0.122760	1.095139
H274	H	1.031597	-0.543870	0.377265
H275	H	1.364930	-0.210536	0.710599
H276	H	1.698264	0.122797	1.043932
C277	C	0.135246	-0.387680	0.386249
C278	C	0.468580	-0.054347	0.719582
C279	C	0.801913	0.278986	1.052916
H280	H	0.164106	-0.411707	0.410049
H281	H	0.497440	-0.078374	0.743383
H282	H	0.830773	0.254960	1.076716
H283	H	0.109771	-0.363647	0.413608
H284	H	0.443104	-0.030314	0.746941
H285	H	0.776437	0.303019	1.080274
H286	H	0.109671	-0.415064	0.362226
H287	H	0.443005	-0.081730	0.695559
H288	H	0.776338	0.251603	1.028892
C289	C	0.821269	-0.533424	0.217892
C290	C	1.154602	-0.200091	0.551225
C291	C	1.487936	0.133243	0.884559
H292	H	0.826986	-0.489554	0.223634
H293	H	1.160320	-0.156220	0.556967
H294	H	1.493653	0.177113	0.890301
H295	H	0.830460	-0.544209	0.175807
H296	H	1.163793	-0.210876	0.509140
H297	H	1.497126	0.122458	0.842474
H298	H	0.779169	-0.544241	0.227017
H299	H	1.112502	-0.210908	0.560350
H300	H	1.445836	0.122425	0.893684
H301	H	0.832911	-1.062911	0.229441
H302	H	1.166245	-0.729577	0.562774
H303	H	1.499578	-0.396244	0.896107
C304	C	0.989714	-0.218481	0.532023
C305	C	1.323047	0.114852	0.865357
C306	C	1.656381	0.448185	1.198690
H307	H	1.013590	-0.194489	0.560900
H308	H	1.346923	0.138844	0.894233
H309	H	1.680256	0.472177	1.227567
H310	H	1.016998	-0.242563	0.506515
H311	H	1.350331	0.090771	0.839848
H312	H	1.683664	0.424104	1.173182
H313	H	0.965758	-0.191062	0.506483
H314	H	1.299091	0.142271	0.839817
H315	H	1.632425	0.475604	1.173150
H316	H	0.978202	-0.943396	0.374992
H317	H	1.311536	-0.610062	0.708325
H318	H	1.644869	-0.276729	1.041658
C319	C	0.989721	-0.218440	0.669432
C320	C	1.323054	0.114893	1.002765
C321	C	1.656387	0.448227	1.336099
H322	H	1.013605	-0.194474	0.640595
H323	H	1.346939	0.138859	0.973929
H324	H	1.680272	0.472193	1.307262
H325	H	0.965776	-0.191007	0.694945
H326	H	1.299109	0.142326	1.028278
H327	H	1.632443	0.475659	1.361612
H328	H	1.017005	-0.242518	0.694973
H329	H	1.350339	0.090815	1.028307
H330	H	1.683672	0.424149	1.361640
H331	H	0.914551	-0.200062	0.743134
H332	H	1.247884	0.133271	1.076467
H333	H	1.581218	0.466604	1.409801
C334	C	0.821321	-0.387547	0.669301
C335	C	1.154655	-0.054214	1.002634
C336	C	1.487988	0.279119	1.335968
H337	H	0.827070	-0.381772	0.712961
H338	H	1.160403	-0.048439	1.046295
H339	H	1.493737	0.284894	1.379628
H340	H	0.779228	-0.378349	0.658550
H341	H	1.112561	-0.045015	0.991883
H342	H	1.445895	0.288318	1.325216
H343	H	0.830471	-0.429846	0.658580
H344	H	1.163804	-0.096512	0.991914
H345	H	1.497137	0.236821	1.325247
H346	H	0.896501	-0.405828	0.861823
H347	H	1.229835	-0.072494	1.195156
H348	H	1.563168	0.260839	1.528490
C349	C	0.895075	-0.422075	0.733763
C350	C	1.228408	-0.088741	1.067097
C351	C	1.561742	0.244592	1.400430
H352	H	0.895780	-0.413966	0.690108
H353	H	1.229114	-0.080633	1.023441
H354	H	1.562447	0.252700	1.356775
H355	H	0.929143	-0.448543	0.744511
H356	H	1.262476	-0.115210	1.077844
H357	H	1.595810	0.218123	1.411177
H358	H	0.856916	-0.442207	0.744458
H359	H	1.190249	-0.108873	1.077792
H360	H	1.523583	0.224460	1.411125
C361	C	0.989723	-0.218292	1.073068
C362	C	1.323056	0.115042	1.406401
C363	C	1.656389	0.448375	1.739734
H364	H	1.013607	-0.194328	1.044229
H365	H	1.346940	0.139005	1.377562
H366	H	1.680274	0.472339	1.710895
H367	H	0.965776	-0.190857	1.098576
H368	H	1.299109	0.142476	1.431909
H369	H	1.632442	0.475810	1.765243
H370	H	1.017008	-0.242365	1.098613
H371	H	1.350341	0.090969	1.431946
H372	H	1.683674	0.424302	1.765280
H373	H	0.978239	-1.062659	0.375017
H374	H	1.311572	-0.729326	0.708351
H375	H	1.644905	-0.395993	1.041684
C376	C	0.821328	-0.387453	0.935529
C377	C	1.154661	-0.054119	1.268863
C378	C	1.487994	0.279214	1.602196
H379	H	0.827065	-0.381697	0.891878
H380	H	1.160398	-0.048364	1.225211
H381	H	1.493731	0.284969	1.558544
H382	H	0.830471	-0.429743	0.946258
H383	H	1.163805	-0.096409	1.279592
H384	H	1.497138	0.236924	1.612925
H385	H	0.779234	-0.378241	0.946222
H386	H	1.112567	-0.044907	1.279555
H387	H	1.445900	0.288426	1.612889
C388	C	0.676290	-0.387782	0.386063
C389	C	1.009624	-0.054449	0.719396
C390	C	1.342957	0.278885	1.052729
H391	H	0.647435	-0.411784	0.409895
H392	H	0.980768	-0.078450	0.743228
H393	H	1.314102	0.254883	1.076562
H394	H	0.701766	-0.415179	0.362040
H395	H	1.035099	-0.081845	0.695373
H396	H	1.368432	0.251488	1.028707
H397	H	0.701866	-0.363741	0.413401
H398	H	1.035200	-0.030408	0.746734
H399	H	1.368533	0.302925	1.080068
H400	H	0.263303	-0.376183	0.374784
H401	H	0.596636	-0.042850	0.708117
H402	H	0.929969	0.290483	1.041450
H403	H	0.548210	-0.229940	0.229559
H404	H	0.881543	0.103393	0.562892
H405	H	1.214876	0.436726	0.896225
C406	C	0.821331	-0.387411	1.072938
C407	C	1.154664	-0.054078	1.406271
C408	C	1.487997	0.279255	1.739604
H409	H	0.827078	-0.381635	1.116598
H410	H	1.160411	-0.048302	1.449931
H411	H	1.493744	0.285031	1.783265
H412	H	0.779237	-0.378217	1.062185
H413	H	1.112570	-0.044883	1.395518
H414	H	1.445904	0.288450	1.728851
H415	H	0.830484	-0.429709	1.062218
H416	H	1.163817	-0.096376	1.395551
H417	H	1.497151	0.236957	1.728885
H418	H	0.346508	-0.312209	0.404591
H419	H	0.679841	0.021124	0.737925
H420	H	1.013174	0.354458	1.071258
H421	H	0.144573	-0.229857	0.229703
H422	H	0.477906	0.103476	0.563036
H423	H	0.811240	0.436810	0.896370
H424	H	0.263284	-0.229883	0.229656
H425	H	0.596617	0.103450	0.562990
H426	H	0.929950	0.436784	0.896323
H427	H	0.666923	-0.229954	0.229517
H428	H	1.000256	0.103379	0.562850
H429	H	1.333590	0.436713	0.896184
C430	C	0.474341	-0.292442	0.183615
C431	C	0.807675	0.040891	0.516948
C432	C	1.141008	0.374224	0.850282
H433	H	0.445450	-0.289427	0.150010
H434	H	0.778783	0.043907	0.483344
H435	H	1.112117	0.377240	0.816677
H436	H	0.499891	-0.255951	0.184508
H437	H	0.833225	0.077382	0.517841
H438	H	1.166558	0.410715	0.851174
H439	H	0.499837	-0.328508	0.178013
H440	H	0.833171	0.004825	0.511347
H441	H	1.166504	0.338159	0.844680
C442	C	0.821328	-0.671481	0.217909
C443	C	1.154661	-0.338147	0.551242
C444	C	1.487994	-0.004814	0.884576
H445	H	0.827085	-0.715332	0.223656
H446	H	1.160418	-0.381998	0.556989
H447	H	1.493752	-0.048665	0.890323
H448	H	0.779221	-0.660754	0.227023
H449	H	1.112554	-0.327420	0.560357
H450	H	1.445888	0.005913	0.893690
H451	H	0.830518	-0.660716	0.175819
H452	H	1.163851	-0.327382	0.509152
H453	H	1.497184	0.005951	0.842486
