data_functionalizedCrystal
_audit_creation_method	'MofGen! by Chris Wilmer'
_symmetry_space_group_name_H-M	'P1'
_symmetry_Int_Tables_number	1
_symmetry_cell_setting	triclinic
loop_
_symmetry_equiv_pos_as_xyz
  x,y,z
_cell_length_a	16.109318
_cell_length_b	26.809956
_cell_length_c	16.109301
_cell_angle_alpha	90.005977
_cell_angle_beta	83.465022
_cell_angle_gamma	90.012481
loop_
_atom_site_label
_atom_site_type_symbol
_atom_site_fract_x
_atom_site_fract_y
_atom_site_fract_z
O1	O	1.103137	0.041440	0.106934
O2	O	1.436470	0.374773	0.440267
O3	O	1.769804	0.708106	0.773601
O4	O	0.861077	0.041450	0.120218
O5	O	1.194410	0.374783	0.453552
O6	O	1.527744	0.708117	0.786885
O7	O	0.988757	0.041439	-0.007455
O8	O	1.322090	0.374773	0.325879
O9	O	1.655423	0.708106	0.659212
O10	O	0.975457	0.041450	0.234607
O11	O	1.308791	0.374784	0.567940
O12	O	1.642124	0.708117	0.901273
O13	O	0.988717	-0.041520	-0.007455
O14	O	1.322051	0.291814	0.325879
O15	O	1.655384	0.625147	0.659212
O16	O	0.861038	-0.041509	0.120218
O17	O	1.194371	0.291824	0.453551
O18	O	1.527704	0.625157	0.786885
O19	O	1.103098	-0.041520	0.106934
O20	O	1.436431	0.291814	0.440267
O21	O	1.769764	0.625147	0.773600
Zn22	Zn	0.982061	-0.054686	0.113576
Zn23	Zn	1.315395	0.278647	0.446909
Zn24	Zn	1.648728	0.611981	0.780242
Zn25	Zn	0.982113	0.054616	0.113576
Zn26	Zn	1.315447	0.387950	0.446909
Zn27	Zn	1.648780	0.721283	0.780243
O28	O	0.975418	-0.041509	0.234606
O29	O	1.308751	0.291824	0.567940
O30	O	1.642085	0.625158	0.901273
C31	C	0.830083	-0.000028	0.119677
C32	C	1.163416	0.333305	0.453011
C33	C	1.496749	0.666638	0.786344
C34	C	0.737788	-0.000025	0.118057
C35	C	1.071122	0.333309	0.451390
C36	C	1.404455	0.666642	0.784723
N37	N	0.982032	-0.129282	0.113575
N38	N	1.315366	0.204051	0.446908
N39	N	1.648699	0.537385	0.780242
C40	C	0.438736	0.045187	0.112822
C41	C	0.772069	0.378521	0.446155
C42	C	1.105403	0.711854	0.779488
C43	C	0.525457	0.045191	0.114339
C44	C	0.858790	0.378524	0.447672
C45	C	1.192124	0.711857	0.781006
C46	C	0.525433	-0.045256	0.114327
C47	C	0.858766	0.288077	0.447661
C48	C	1.192100	0.621411	0.780994
C49	C	0.438714	-0.045259	0.112804
C50	C	0.772048	0.288075	0.446137
C51	C	1.105381	0.621408	0.779471
C52	C	0.395367	-0.000035	0.112056
C53	C	0.728701	0.333298	0.445389
C54	C	1.062034	0.666631	0.778722
C55	C	0.568807	-0.000030	0.115096
C56	C	0.902141	0.333304	0.448430
C57	C	1.235474	0.666637	0.781763
C58	C	0.662834	-0.000027	0.116742
C59	C	0.996168	0.333307	0.450075
C60	C	1.329501	0.666640	0.783408
C61	C	0.301334	-0.000038	0.110409
C62	C	0.634668	0.333295	0.443742
C63	C	0.968001	0.666628	0.777075
C64	C	1.032510	-0.473908	0.164011
C65	C	1.365843	-0.140575	0.497344
C66	C	1.699177	0.192759	0.830678
C67	C	1.032537	-0.682786	0.164010
C68	C	1.365870	-0.349452	0.497344
C69	C	1.699204	-0.016119	0.830677
O70	O	1.075433	-0.709789	0.206884
O71	O	1.408767	-0.376456	0.540217
O72	O	1.742100	-0.043123	0.873550
N73	N	0.982133	-0.708909	0.113568
N74	N	1.315466	-0.375576	0.446901
N75	N	1.648800	-0.042242	0.780234
C76	C	0.931723	-0.682810	0.063117
C77	C	1.265056	-0.349476	0.396451
C78	C	1.598390	-0.016143	0.729784
O79	O	0.888858	-0.709822	0.020206
O80	O	1.222192	-0.376489	0.353540
O81	O	1.555525	-0.043155	0.686873
C82	C	0.931701	-0.473933	0.063114
C83	C	1.265034	-0.140600	0.396447
C84	C	1.598368	0.192734	0.729781
C85	C	0.982102	-0.447812	0.113566
C86	C	1.315435	-0.114479	0.446900
C87	C	1.648769	0.218854	0.780233
C88	C	1.082908	-0.447787	0.214459
C89	C	1.416241	-0.114454	0.547792
C90	C	1.749574	0.218879	0.881125
C91	C	1.082897	-0.395571	0.214462
C92	C	1.416230	-0.062238	0.547795
C93	C	1.749564	0.271096	0.881128
C94	C	1.032489	-0.369475	0.164017
C95	C	1.365822	-0.036142	0.497350
C96	C	1.699156	0.297191	0.830684
C97	C	0.982091	-0.395596	0.113570
C98	C	1.315425	-0.062263	0.446903
C99	C	1.648758	0.271071	0.780236
C100	C	0.881296	-0.447835	0.012660
C101	C	1.214629	-0.114501	0.345993
C102	C	1.547963	0.218832	0.679326
C103	C	0.881297	-0.395612	0.012662
C104	C	1.214630	-0.062279	0.345995
C105	C	1.547963	0.271054	0.679329
C106	C	0.931698	-0.369492	0.063114
C107	C	1.265031	-0.036158	0.396448
C108	C	1.598364	0.297175	0.729781
C109	C	0.931673	-0.317284	0.063128
C110	C	1.265006	0.016049	0.396461
C111	C	1.598339	0.349382	0.729795
N112	N	0.982077	-0.291161	0.113571
N113	N	1.315410	0.042172	0.446904
N114	N	1.648743	0.375506	0.780237
C115	C	1.032485	-0.317256	0.164015
C116	C	1.365818	0.016077	0.497349
C117	C	1.699151	0.349410	0.830682
C118	C	0.931737	-0.792473	0.063124
C119	C	1.265070	-0.459140	0.396457
C120	C	1.598403	-0.125806	0.729791
C121	C	0.931741	-0.844692	0.063126
C122	C	1.265074	-0.511359	0.396459
C123	C	1.598408	-0.178025	0.729792
C124	C	1.032556	-0.844664	0.164018
C125	C	1.365890	-0.511331	0.497351
C126	C	1.699223	-0.177998	0.830685
C127	C	1.032547	-0.792444	0.164020
C128	C	1.365881	-0.459111	0.497353
C129	C	1.699214	-0.125778	0.830687
C130	C	0.982141	-0.766350	0.113567
C131	C	1.315474	-0.433016	0.446900
C132	C	1.648807	-0.099683	0.780233
C133	C	1.032458	-0.207598	0.164018
C134	C	1.365791	0.125735	0.497352
C135	C	1.699125	0.459068	0.830685
C136	C	1.032440	-0.155378	0.164020
C137	C	1.365774	0.177956	0.497353
C138	C	1.699107	0.511289	0.830686
C139	C	0.931629	-0.155410	0.063124
C140	C	1.264962	0.177924	0.396458
C141	C	1.598295	0.511257	0.729791
C142	C	0.931643	-0.207626	0.063126
C143	C	1.264976	0.125707	0.396460
C144	C	1.598309	0.459040	0.729793
C145	C	0.982064	-0.233719	0.113576
C146	C	1.315397	0.099614	0.446909
C147	C	1.648731	0.432947	0.780242
O148	O	0.888806	-0.290248	0.020270
O149	O	1.222139	0.043085	0.353604
O150	O	1.555473	0.376418	0.686937
O151	O	1.075357	-0.290235	0.206906
O152	O	1.408690	0.043098	0.540240
O153	O	1.742023	0.376432	0.873573
C154	C	1.032521	-0.526124	0.164008
C155	C	1.365854	-0.192791	0.497341
C156	C	1.699187	0.140542	0.830675
C157	C	0.982123	-0.552245	0.113560
C158	C	1.315457	-0.218912	0.446894
C159	C	1.648790	0.114422	0.780227
C160	C	0.931715	-0.526149	0.063116
C161	C	1.265049	-0.192816	0.396449
C162	C	1.598382	0.140517	0.729782
C163	C	0.982128	-0.604464	0.113562
C164	C	1.315461	-0.271131	0.446896
C165	C	1.648794	0.062203	0.780229
C166	C	1.032536	-0.630560	0.164007
C167	C	1.365869	-0.297226	0.497340
C168	C	1.699202	0.036107	0.830673
C169	C	1.082940	-0.604436	0.214450
C170	C	1.416273	-0.271103	0.547783
C171	C	1.749606	0.062231	0.881116
C172	C	1.082929	-0.552220	0.214453
C173	C	1.416262	-0.218887	0.547786
C174	C	1.749596	0.114447	0.881119
C175	C	0.881311	-0.552273	0.012673
C176	C	1.214645	-0.218939	0.346006
C177	C	1.547978	0.114394	0.679340
C178	C	0.881325	-0.604489	0.012675
C179	C	1.214659	-0.271156	0.346008
C180	C	1.547992	0.062178	0.679341
C181	C	0.931733	-0.630585	0.063119
C182	C	1.265067	-0.297251	0.396453
C183	C	1.598400	0.036082	0.729786
C184	C	1.134092	-0.000040	0.107474
C185	C	1.467425	0.333293	0.440808
C186	C	1.800759	0.666627	0.774141
C187	C	1.226387	-0.000041	0.109095
C188	C	1.559720	0.333293	0.442429
C189	C	1.893053	0.666626	0.775762
C190	C	0.988198	-0.000040	-0.038430
C191	C	1.321532	0.333293	0.294904
C192	C	1.654865	0.666626	0.628237
C193	C	0.986583	-0.000041	-0.130725
C194	C	1.319916	0.333292	0.202608
C195	C	1.653250	0.666626	0.535942
N196	N	0.982149	0.129212	0.113570
N197	N	1.315482	0.462546	0.446904
N198	N	1.648816	0.795879	0.780237
C199	C	1.058590	-0.000036	-0.352993
C200	C	1.391924	0.333297	-0.019660
C201	C	1.725257	0.666630	0.313674
C202	C	1.057066	-0.000032	-0.439713
C203	C	1.390400	0.333301	-0.106380
C204	C	1.723733	0.666635	0.226953
C205	C	0.905579	-0.000028	-0.419848
C206	C	1.238912	0.333306	-0.086515
C207	C	1.572245	0.666639	0.246818
C208	C	0.907104	-0.000028	-0.333130
C209	C	1.240437	0.333305	0.000204
C210	C	1.573770	0.666639	0.333537
C211	C	0.983612	-0.000035	-0.299704
C212	C	1.316945	0.333298	0.033629
C213	C	1.650278	0.666632	0.366962
C214	C	0.980563	-0.000030	-0.473144
C215	C	1.313896	0.333303	-0.139810
C216	C	1.647230	0.666636	0.193523
C217	C	0.978910	-0.000026	-0.567170
C218	C	1.312243	0.333308	-0.233837
C219	C	1.645577	0.666641	0.099497
C220	C	0.985265	-0.000039	-0.205672
C221	C	1.318599	0.333295	0.127661
C222	C	1.651932	0.666628	0.460994
C223	C	0.975976	-0.000028	0.265581
C224	C	1.309310	0.333305	0.598915
C225	C	1.642643	0.666639	0.932248
C226	C	0.977592	-0.000024	0.357877
C227	C	1.310925	0.333309	0.691210
C228	C	1.644258	0.666642	1.024543
H229	H	0.403446	0.082011	0.112211
H230	H	0.736779	0.415345	0.445544
H231	H	1.070112	0.748678	0.778878
Cl232	Cl	0.579975	0.102045	0.115299
Cl233	Cl	0.913308	0.435378	0.448632
Cl234	Cl	1.246641	0.768712	0.781966
H235	H	1.120888	-0.000041	-0.325781
H236	H	1.454221	0.333293	0.007552
H237	H	1.787555	0.666626	0.340885
H238	H	0.403403	-0.082087	0.112179
H239	H	0.736736	0.251246	0.445513
H240	H	1.070069	0.584580	0.778846
Cl241	Cl	0.817953	-0.637320	-0.050754
Cl242	Cl	1.151286	-0.303987	0.282580
Cl243	Cl	1.484620	0.029347	0.615913
Cl244	Cl	0.579931	-0.102105	0.115278
Cl245	Cl	0.913264	0.231228	0.448611
Cl246	Cl	1.246598	0.564562	0.781944
H247	H	0.840249	-0.374369	-0.028425
H248	H	1.173583	-0.041035	0.304908
H249	H	1.506916	0.292298	0.638242
Cl250	Cl	1.095845	-0.240393	0.227442
Cl251	Cl	1.429178	0.092940	0.560776
Cl252	Cl	1.762511	0.426274	0.894109
Cl253	Cl	1.095800	-0.122543	0.227456
Cl254	Cl	1.429134	0.210790	0.560789
Cl255	Cl	1.762467	0.544123	0.894123
Cl256	Cl	1.151329	-0.000033	-0.506702
Cl257	Cl	1.484663	0.333301	-0.173368
Cl258	Cl	1.817996	0.666634	0.159965
Cl259	Cl	0.868345	-0.759676	-0.000293
Cl260	Cl	1.201678	-0.426342	0.333040
Cl261	Cl	1.535012	-0.093009	0.666373
Cl262	Cl	1.146249	-0.362741	0.277904
Cl263	Cl	1.479582	-0.029408	0.611237
Cl264	Cl	1.812916	0.303925	0.944571
H265	H	1.123960	-0.469029	0.255537
H266	H	1.457294	-0.135695	0.588870
H267	H	1.790627	0.197638	0.922204
H268	H	1.073588	-0.771180	0.205103
H269	H	1.406921	-0.437847	0.538437
H270	H	1.740254	-0.104514	0.871770
Cl271	Cl	0.812837	-0.000022	-0.266133
Cl272	Cl	1.146170	0.333311	0.067200
Cl273	Cl	1.479504	0.666644	0.400534
Cl274	Cl	1.095929	-0.877480	0.227430
Cl275	Cl	1.429263	-0.544146	0.560764
Cl276	Cl	1.762596	-0.210813	0.894097
H277	H	0.890591	-0.228895	0.022054
H278	H	1.223925	0.104439	0.355388
H279	H	1.557258	0.437772	0.688721
Cl280	Cl	0.809402	-0.000019	-0.461875
Cl281	Cl	1.142736	0.333314	-0.128542
Cl282	Cl	1.476069	0.666648	0.204791
Cl283	Cl	0.817931	-0.480659	-0.050771
Cl284	Cl	1.151264	-0.147326	0.282563
Cl285	Cl	1.484597	0.186007	0.615896
H286	H	0.890585	-0.134153	0.022056
H287	H	1.223918	0.199180	0.355389
H288	H	1.557252	0.532513	0.688723
Cl289	Cl	1.146289	-0.519390	0.277887
Cl290	Cl	1.479622	-0.186057	0.611220
Cl291	Cl	1.812955	0.147276	0.944554
Cl292	Cl	0.868364	-0.877523	-0.000290
Cl293	Cl	1.201697	-0.544190	0.333043
Cl294	Cl	1.535031	-0.210856	0.666377
H295	H	1.123980	-0.625692	0.255528
H296	H	1.457313	-0.292359	0.588861
H297	H	1.790646	0.040974	0.922194
H298	H	0.840263	-0.531031	-0.028407
H299	H	1.173597	-0.197698	0.304926
H300	H	1.506930	0.135636	0.638259
