data_functionalizedCrystal
_audit_creation_method	'MofGen! by Chris Wilmer'
_symmetry_space_group_name_H-M	'P1'
_symmetry_Int_Tables_number	1
_symmetry_cell_setting	triclinic
loop_
_symmetry_equiv_pos_as_xyz
  x,y,z
_cell_length_a	17.019365
_cell_length_b	11.792241
_cell_length_c	10.268362
_cell_angle_alpha	90.005428
_cell_angle_beta	86.119472
_cell_angle_gamma	96.207932
loop_
_atom_site_label
_atom_site_type_symbol
_atom_site_fract_x
_atom_site_fract_y
_atom_site_fract_z
O1	O	1.047294	-0.144581	-0.225637
O2	O	1.547294	0.355419	0.274363
O3	O	0.817708	-0.163023	-0.199918
O4	O	1.317708	0.336977	0.300082
O5	O	0.938072	0.011427	-0.213392
O6	O	1.438072	0.511427	0.286608
O7	O	0.926930	-0.319031	-0.212162
O8	O	1.426930	0.180969	0.287838
O9	O	0.938062	0.011434	0.003209
O10	O	1.438062	0.511434	0.503209
O11	O	0.817698	-0.163016	0.016684
O12	O	1.317698	0.336984	0.516684
O13	O	1.047283	-0.144574	-0.009035
O14	O	1.547283	0.355426	0.490965
Cu15	Cu	0.932489	-0.153794	0.023602
Cu16	Cu	1.432489	0.346206	0.523602
Cu17	Cu	0.932502	-0.153803	-0.232555
Cu18	Cu	1.432502	0.346197	0.267445
O19	O	0.926919	-0.319024	0.004439
O20	O	1.426919	0.180976	0.504439
C21	C	0.788311	-0.162321	-0.088324
C22	C	1.288311	0.337679	0.411676
C23	C	0.700732	-0.160225	-0.078513
C24	C	1.200732	0.339775	0.421487
C25	C	0.937367	0.053714	-0.105014
C26	C	1.437367	0.553714	0.394986
C27	C	0.935272	0.179706	-0.104780
C28	C	1.435272	0.679706	0.395220
C29	C	1.076680	-0.145277	-0.120632
C30	C	1.576680	0.354723	0.379368
C31	C	1.164259	-0.147372	-0.130452
C32	C	1.664259	0.352628	0.369548
C33	C	1.205405	-0.148352	-0.017001
C34	C	1.705405	0.351648	0.482999
C35	C	1.287694	-0.150330	-0.026239
C36	C	1.787694	0.349670	0.473761
C37	C	1.328836	-0.151321	-0.148929
C38	C	1.828836	0.348679	0.351071
C39	C	1.287684	-0.150345	-0.262388
C40	C	1.787684	0.349655	0.237612
C41	C	1.205396	-0.148375	-0.253149
C42	C	1.705396	0.351625	0.246851
C43	C	1.577292	-0.157278	-0.182732
C44	C	2.077292	0.342722	0.317268
C45	C	1.659586	-0.159246	-0.191963
C46	C	2.159586	0.340754	0.308037
C47	C	1.659591	-0.159233	0.044187
C48	C	2.159591	0.340767	0.544187
C49	C	1.577302	-0.157255	0.053415
C50	C	2.077302	0.342745	0.553415
C51	C	1.536156	-0.156285	-0.060044
C52	C	2.036156	0.343715	0.439956
C53	C	1.412949	-0.153340	-0.158375
C54	C	1.912949	0.346660	0.341625
C55	C	1.452044	-0.154275	-0.050597
C56	C	1.952044	0.345725	0.449403
C57	C	0.927624	-0.361311	-0.103942
C58	C	1.427624	0.138689	0.396058
C59	C	0.929719	-0.487303	-0.104184
C60	C	1.429719	0.012697	0.395816
N61	N	0.932486	-0.153788	0.203768
N62	N	1.432486	0.346212	0.703768
C63	C	0.931420	0.410377	-0.104370
C64	C	1.431420	0.910377	0.395630
C65	C	0.933560	0.282015	-0.104598
C66	C	1.433560	0.782015	0.395402
N67	N	0.932511	-0.153801	-0.412722
N68	N	1.432511	0.346199	0.087278
C69	C	0.932498	-0.153801	0.469437
C70	C	1.432498	0.346199	0.969437
C71	C	0.932489	-0.153797	0.321600
C72	C	1.432489	0.346203	0.821600
H73	H	1.171913	-0.147550	0.082906
H74	H	1.671913	0.352450	0.582906
H75	H	1.321187	-0.151159	-0.362285
H76	H	1.821187	0.348841	0.137715
C77	C	1.406786	-0.153183	0.084358
C78	C	1.906786	0.346817	0.584358
N79	N	1.372691	-0.152355	0.186007
N80	N	1.872691	0.347645	0.686007
H81	H	1.543812	-0.156424	0.153322
H82	H	2.043812	0.343576	0.653322
H83	H	1.693100	-0.160025	0.136558
H84	H	2.193100	0.339975	0.636558
H85	H	1.543801	-0.156485	-0.275119
H86	H	2.043801	0.343515	0.224881
C87	C	1.704839	-0.160353	-0.326937
C88	C	2.204839	0.339647	0.173063
N89	N	1.738923	-0.161191	-0.428594
N90	N	2.238923	0.338809	0.071406
H91	H	1.446456	-0.154144	-0.258269
H92	H	1.946456	0.345856	0.241731
H93	H	1.171895	-0.147580	-0.345532
H94	H	1.671895	0.352420	0.154468
H95	H	1.321192	-0.151125	0.066144
H96	H	1.821192	0.348875	0.566144
