data_functionalizedCrystal
_audit_creation_method	'MofGen! by Chris Wilmer'
_symmetry_space_group_name_H-M	'P1'
_symmetry_Int_Tables_number	1
_symmetry_cell_setting	triclinic
loop_
_symmetry_equiv_pos_as_xyz
  x,y,z
_cell_length_a	18.215405
_cell_length_b	18.215407
_cell_length_c	18.215399
_cell_angle_alpha	89.980167
_cell_angle_beta	89.969449
_cell_angle_gamma	90.025333
loop_
_atom_site_label
_atom_site_type_symbol
_atom_site_fract_x
_atom_site_fract_y
_atom_site_fract_z
Zn1	Zn	-0.292983	1.125072	-0.416103
Zn2	Zn	0.207017	1.625072	0.083897
Zn3	Zn	-0.416054	1.124980	-0.293031
Zn4	Zn	0.083946	1.624980	0.206969
Zn5	Zn	-0.293007	1.002005	-0.293050
Zn6	Zn	0.206993	1.502005	0.206950
Zn7	Zn	-0.416013	1.001970	-0.416056
Zn8	Zn	0.083987	1.501970	0.083944
O9	O	-0.354514	1.063507	-0.354560
O10	O	0.145486	1.563507	0.145440
O11	O	-0.309316	1.228044	-0.399788
O12	O	0.190684	1.728044	0.100212
O13	O	-0.399759	1.108643	-0.190049
O14	O	0.100241	1.608643	0.309951
O15	O	-0.190020	1.018382	-0.309401
O16	O	0.309980	1.518382	0.190599
O17	O	-0.399736	1.227977	-0.309368
O18	O	0.100264	1.727977	0.190632
O19	O	-0.190002	1.108799	-0.399807
O20	O	0.309998	1.608799	0.100193
O21	O	-0.309357	1.018293	-0.190063
O22	O	0.190643	1.518293	0.309937
O23	O	-0.309317	0.899016	-0.309355
O24	O	0.190683	1.399016	0.190645
O25	O	-0.399666	1.018324	-0.519046
O26	O	0.100334	1.518324	-0.019046
O27	O	-0.399689	0.898991	-0.399727
O28	O	0.100311	1.398991	0.100273
O29	O	-0.309276	1.108766	-0.519081
O30	O	0.190724	1.608766	-0.019081
O31	O	-0.519033	1.108610	-0.309322
O32	O	-0.019033	1.608610	0.190678
O33	O	-0.519003	1.018235	-0.399708
O34	O	-0.019003	1.518235	0.100292
C35	C	-0.354502	0.872301	-0.354539
C36	C	0.145498	1.372301	0.145461
C37	C	-0.354514	0.790502	-0.354547
C38	C	0.145486	1.290502	0.145453
C39	C	-0.401645	0.602314	-0.401544
C40	C	0.098355	1.102314	0.098456
C41	C	-0.401647	0.525455	-0.401554
C42	C	0.098353	1.025455	0.098446
C43	C	-0.307397	0.525452	-0.307591
C44	C	0.192603	1.025452	0.192409
C45	C	-0.307392	0.602309	-0.307586
C46	C	0.192608	1.102309	0.192414
C47	C	-0.354520	0.640738	-0.354562
C48	C	0.145480	1.140738	0.145438
C49	C	-0.354528	0.487022	-0.354576
C50	C	0.145472	0.987022	0.145424
C51	C	-0.354530	0.403688	-0.354585
C52	C	0.145470	0.903688	0.145415
C53	C	-0.354517	0.724077	-0.354553
C54	C	0.145483	1.224077	0.145447
C55	C	-0.545721	1.063429	-0.354524
C56	C	-0.045721	1.563429	0.145476
C57	C	-0.627520	1.063463	-0.354534
C58	C	-0.127520	1.563463	0.145466
C59	C	-0.815705	1.110632	-0.307556
C60	C	-0.315705	1.610632	0.192444
C61	C	-0.892563	1.110665	-0.307574
C62	C	-0.392563	1.610665	0.192426
C63	C	-0.892572	1.016476	-0.401616
C64	C	-0.392572	1.516476	0.098384
C65	C	-0.815715	1.016447	-0.401601
C66	C	-0.315715	1.516447	0.098399
C67	C	-0.777283	1.063524	-0.354567
C68	C	-0.277283	1.563524	0.145433
C69	C	-0.930999	1.063586	-0.354600
C70	C	-0.430999	1.563586	0.145400
C71	C	-1.014333	1.063621	-0.354619
C72	C	-0.514333	1.563621	0.145381
C73	C	-0.693944	1.063490	-0.354548
C74	C	-0.193944	1.563490	0.145452
C75	C	-0.162561	1.063605	-0.354611
C76	C	0.337439	1.563605	0.145389
C77	C	-0.080763	1.063647	-0.354633
C78	C	0.419237	1.563647	0.145367
C79	C	-0.354464	1.063552	-0.546513
C80	C	0.145536	1.563552	-0.046513
C81	C	-0.354442	1.063571	-0.628312
C82	C	0.145558	1.563571	-0.128312
C83	C	-0.354528	1.255460	-0.354581
C84	C	0.145472	1.755460	0.145419
C85	C	-0.354533	1.337259	-0.354591
C86	C	0.145467	1.837259	0.145409
C87	C	-0.307332	1.110681	-0.816525
C88	C	0.192668	1.610681	-0.316525
C89	C	-0.307311	1.110690	-0.893384
C90	C	0.192689	1.610690	-0.393384
C91	C	-0.401438	1.016513	-0.893336
C92	C	0.098562	1.516513	-0.393336
C93	C	-0.401455	1.016501	-0.816479
C94	C	0.098545	1.516501	-0.316479
C95	C	-0.354403	1.063589	-0.778075
C96	C	0.145597	1.563589	-0.278075
C97	C	-0.354365	1.063610	-0.931791
C98	C	0.145635	1.563610	-0.431791
C99	C	-0.354342	1.063619	-1.015125
C100	C	0.145658	1.563619	-0.515125
C101	C	-0.354425	1.063579	-0.694736
C102	C	0.145575	1.563579	-0.194736
C103	C	-0.354512	1.063504	-0.163353
C104	C	0.145488	1.563504	0.336647
C105	C	-0.354326	1.063628	-0.081555
C106	C	0.145674	1.563628	0.418445
H107	H	-0.269012	0.633595	-0.269327
H108	H	0.230988	1.133595	0.230673
H109	H	-0.269017	1.149021	-0.785259
H110	H	0.230983	1.649021	-0.285259
H111	H	-0.440020	0.494174	-0.439813
H112	H	0.059980	0.994174	0.060187
H113	H	-0.269028	0.494153	-0.269344
H114	H	0.230972	0.994153	0.230656
H115	H	-0.784430	0.978086	-0.439887
H116	H	-0.284430	1.478086	0.060113
H117	H	-0.268979	1.149035	-0.924686
H118	H	0.231021	1.649035	-0.424686
H119	H	-0.784415	1.148966	-0.269260
H120	H	-0.284415	1.648966	0.230740
H121	H	-0.923843	1.149026	-0.269294
H122	H	-0.423843	1.649026	0.230706
H123	H	-0.439748	0.978177	-0.924614
H124	H	0.060252	1.478177	-0.424614
Br125	Br	-0.465336	0.952579	-0.764292
Br126	Br	0.034664	1.452579	-0.264292
Br127	Br	-0.944734	0.952588	-0.465444
Br128	Br	-0.444734	1.452588	0.034556
H129	H	-0.440018	0.633601	-0.439797
H130	H	0.059982	1.133601	0.060203
