data_functionalizedCrystal
_audit_creation_method	'MofGen! by Chris Wilmer'
_symmetry_space_group_name_H-M	'P1'
_symmetry_Int_Tables_number	1
_symmetry_cell_setting	triclinic
loop_
_symmetry_equiv_pos_as_xyz
  x,y,z
_cell_length_a	10.723024
_cell_length_b	13.596369
_cell_length_c	10.723024
_cell_angle_alpha	89.999201
_cell_angle_beta	84.467869
_cell_angle_gamma	90.005655
loop_
_atom_site_label
_atom_site_type_symbol
_atom_site_fract_x
_atom_site_fract_y
_atom_site_fract_z
O1	O	1.657192	0.081782	0.175019
O2	O	1.294040	0.081785	0.191772
O3	O	1.483992	0.081780	0.001819
O4	O	1.467239	0.081788	0.364972
O5	O	1.483969	-0.081803	0.001830
O6	O	1.294016	-0.081797	0.191783
O7	O	1.657168	-0.081801	0.175029
Zn8	Zn	1.475589	-0.107771	0.183408
Zn9	Zn	1.475619	0.107756	0.183394
O10	O	1.467216	-0.081795	0.364982
C11	C	1.247528	-0.000006	0.190558
C12	C	1.108974	-0.000004	0.186911
N13	N	1.475577	-0.254863	0.183416
C14	C	0.917217	-0.000005	0.073603
C15	C	1.060420	-0.000006	0.077371
C16	C	1.475583	-0.343861	0.183419
C17	C	1.475595	-0.455512	0.183411
C18	C	1.475611	-0.544503	0.183397
C19	C	1.475625	-0.656161	0.183389
C20	C	1.703680	-0.000007	0.176243
C21	C	1.842234	-0.000002	0.179891
C22	C	1.482762	-0.000010	-0.044675
C23	C	1.479114	-0.000007	-0.183229
N24	N	1.475641	0.254848	0.183376
C25	C	1.585401	-0.000006	-0.258212
C26	C	1.581634	-0.000003	-0.401415
C27	C	1.468447	-0.000003	0.411477
C28	C	1.472094	0.000000	0.550031
H29	H	0.875395	-0.000022	-0.020182
O30	O	1.363565	0.000175	-0.373067
C31	C	1.358877	0.084881	-0.296911
H32	H	1.422243	0.144096	-0.344106
H33	H	1.258491	0.113321	-0.283013
H34	H	1.392104	0.065722	-0.202036
O35	O	1.031997	0.000131	0.295390
C36	C	0.955902	0.084867	0.300117
H37	H	0.948600	0.113110	0.200986
H38	H	0.858423	0.065817	0.345651
H39	H	0.999147	0.144191	0.357534
H40	H	0.884056	-0.000006	0.273677
O41	O	1.697216	0.000123	-0.208181
C42	C	1.705918	0.084856	-0.133715
H43	H	1.607812	0.113103	-0.102272
H44	H	1.756264	0.065801	-0.047974
H45	H	1.760714	0.144181	-0.190683
O46	O	1.137405	0.000123	-0.031103
C47	C	1.213525	0.084857	-0.035840
H48	H	1.220834	0.113105	0.063287
H49	H	1.310998	0.065803	-0.081371
H50	H	1.170298	0.144180	-0.093266
O51	O	1.690074	0.000043	-0.478451
C52	C	1.662172	0.000020	-0.604282
H53	H	1.564095	0.030989	-0.609990
H54	H	1.733332	0.047514	-0.662720
H55	H	1.666526	-0.078458	-0.641885
O56	O	1.367145	-0.000133	-0.232963
C57	C	1.298855	-0.084867	-0.192808
H58	H	1.333505	-0.113118	-0.102183
H59	H	1.195082	-0.065811	-0.175768
H60	H	1.312755	-0.144188	-0.267998
