data_functionalizedCrystal
_audit_creation_method	'MofGen! by Chris Wilmer'
_symmetry_space_group_name_H-M	'P1'
_symmetry_Int_Tables_number	1
_symmetry_cell_setting	triclinic
loop_
_symmetry_equiv_pos_as_xyz
  x,y,z
_cell_length_a	12.759401
_cell_length_b	12.759394
_cell_length_c	12.759393
_cell_angle_alpha	89.969195
_cell_angle_beta	89.982020
_cell_angle_gamma	90.013839
loop_
_atom_site_label
_atom_site_type_symbol
_atom_site_fract_x
_atom_site_fract_y
_atom_site_fract_z
Zn1	Zn	1.606250	-0.418203	-0.594005
Zn2	Zn	1.606150	-0.593922	-0.418328
Zn3	Zn	1.430555	-0.418258	-0.418343
Zn4	Zn	1.430543	-0.593840	-0.593968
O5	O	1.518375	-0.506056	-0.506161
O6	O	1.753258	-0.441524	-0.570711
O7	O	1.582821	-0.570678	-0.271309
O8	O	1.453908	-0.271230	-0.441666
O9	O	1.753185	-0.570624	-0.441642
O10	O	1.582991	-0.271189	-0.570725
O11	O	1.453812	-0.441618	-0.271320
O12	O	1.283533	-0.441538	-0.441630
O13	O	1.453888	-0.570484	-0.740994
O14	O	1.283524	-0.570538	-0.570661
O15	O	1.582979	-0.441444	-0.741021
O16	O	1.582809	-0.740933	-0.441606
O17	O	1.453791	-0.740872	-0.570647
C18	C	1.245407	-0.506036	-0.506144
C19	C	1.128631	-0.506052	-0.506162
C20	C	0.964077	-0.438965	-0.573481
C21	C	1.073801	-0.438950	-0.573471
C22	C	1.073731	-0.573181	-0.438864
C23	C	0.964009	-0.573200	-0.438880
C24	C	0.909253	-0.371850	-0.640787
C25	C	0.964146	-0.304723	-0.708086
C26	C	1.073870	-0.304708	-0.708077
C27	C	1.128701	-0.371821	-0.640768
C28	C	1.518316	-0.779023	-0.506144
C29	C	1.518387	-0.895800	-0.506171
C30	C	1.652700	-0.895600	-0.640661
C31	C	1.719889	-0.950360	-0.707913
C32	C	1.719952	-1.060082	-0.707936
C33	C	1.652815	-1.115045	-0.640701
C34	C	1.585626	-1.060285	-0.573449
C35	C	1.585573	-0.950561	-0.573431
C36	C	1.451310	-1.060485	-0.438966
C37	C	1.451251	-0.950764	-0.438937
C38	C	1.384173	-1.115449	-0.371731
C39	C	1.316988	-1.060688	-0.304472
C40	C	1.316929	-0.950960	-0.304451
C41	C	1.384062	-0.896003	-0.371684
C42	C	1.792408	-0.506077	-0.506179
C43	C	1.909185	-0.506086	-0.506186
C44	C	1.518443	-0.505949	-0.780195
C45	C	1.518472	-0.505903	-0.896971
C46	C	1.518462	-0.232022	-0.506201
C47	C	1.518499	-0.115246	-0.506219
C48	C	1.451326	-0.438689	-0.951845
C49	C	1.451357	-0.438658	-1.061569
C50	C	1.585691	-0.573058	-1.061536
C51	C	1.585653	-0.573093	-0.951814
C52	C	1.384144	-0.371499	-0.897002
C53	C	1.316993	-0.304279	-0.951876
C54	C	1.317025	-0.304248	-1.061600
C55	C	1.384208	-0.371437	-1.116450
C56	C	1.518367	-0.506087	-0.233194
C57	C	1.518542	-0.505836	-0.116418
H58	H	1.652666	-0.806259	-0.640639
C59	C	1.384256	-1.236145	-0.371746
N60	N	1.384325	-1.327056	-0.371747
H61	H	0.919314	-0.627858	-0.384085
H62	H	0.919495	-0.250088	-0.762892
H63	H	1.640391	-0.627757	-1.106204
C64	C	1.134248	-0.230869	-0.782107
N65	N	1.179723	-0.175245	-0.837864
H66	H	1.262211	-0.906379	-0.249690
C67	C	0.788555	-0.371861	-0.640805
N68	N	0.697644	-0.371870	-0.640816
H69	H	1.262290	-0.249582	-0.907209
C70	C	1.243193	-1.121154	-0.230474
N71	N	1.187630	-1.166702	-0.174719
C72	C	1.659511	-0.647039	-0.891450
N73	N	1.715137	-0.702743	-0.845983
C74	C	1.384102	-0.371529	-0.776303
N75	N	1.384070	-0.371552	-0.685393
H76	H	1.774652	-1.104668	-0.762710
H77	H	1.384025	-0.806662	-0.371669
H78	H	1.118383	-0.627821	-0.384065
C79	C	1.793739	-0.889893	-0.781865
N80	N	1.849363	-0.844351	-0.837565
H81	H	1.218046	-0.371797	-0.640759
H82	H	1.262341	-0.249521	-1.106275
H83	H	1.652863	-1.204387	-0.640734
H84	H	1.384226	-0.371409	-1.205795
