data_functionalizedCrystal
_audit_creation_method	'MofGen! by Chris Wilmer'
_symmetry_space_group_name_H-M	'P1'
_symmetry_Int_Tables_number	1
_symmetry_cell_setting	triclinic
loop_
_symmetry_equiv_pos_as_xyz
  x,y,z
_cell_length_a	18.215407
_cell_length_b	29.839131
_cell_length_c	18.215399
_cell_angle_alpha	90.030873
_cell_angle_beta	90.019833
_cell_angle_gamma	90.041868
loop_
_atom_site_label
_atom_site_type_symbol
_atom_site_fract_x
_atom_site_fract_y
_atom_site_fract_z
Zn1	Zn	1.124987	-0.178853	0.416101
Zn2	Zn	1.458321	0.154481	0.749434
Zn3	Zn	1.791654	0.487814	1.082768
Zn4	Zn	1.124860	-0.253982	0.293028
Zn5	Zn	1.458194	0.079351	0.626362
Zn6	Zn	1.791527	0.412685	0.959695
Zn7	Zn	1.001920	-0.178867	0.293048
Zn8	Zn	1.335253	0.154466	0.626382
Zn9	Zn	1.668587	0.487799	0.959715
Zn10	Zn	1.001850	-0.253957	0.416053
Zn11	Zn	1.335184	0.079376	0.749387
Zn12	Zn	1.668517	0.412710	1.082720
O13	O	1.063404	-0.216415	0.354558
O14	O	1.396738	0.116919	0.687891
O15	O	1.730071	0.450252	1.021224
O16	O	1.227955	-0.188823	0.399787
O17	O	1.561288	0.144510	0.733120
O18	O	1.894621	0.477844	1.066453
O19	O	1.108528	-0.244034	0.190047
O20	O	1.441861	0.089299	0.523380
O21	O	1.775195	0.422632	0.856713
O22	O	1.018327	-0.115998	0.309400
O23	O	1.351661	0.217335	0.642733
O24	O	1.684994	0.550668	0.976066
O25	O	1.227861	-0.244020	0.309366
O26	O	1.561195	0.089313	0.642699
O27	O	1.894528	0.422647	0.976032
O28	O	1.108745	-0.115987	0.399806
O29	O	1.442078	0.217346	0.733139
O30	O	1.775411	0.550679	1.066473
O31	O	1.018204	-0.188848	0.190061
O32	O	1.351538	0.144485	0.523395
O33	O	1.684871	0.477819	0.856728
O34	O	0.898926	-0.188824	0.309354
O35	O	1.232260	0.144510	0.642687
O36	O	1.565593	0.477843	0.976020
O37	O	1.018209	-0.243978	0.519044
O38	O	1.351542	0.089356	0.852377
O39	O	1.684875	0.422689	1.185711
O40	O	0.898875	-0.243992	0.399725
O41	O	1.232209	0.089342	0.733058
O42	O	1.565542	0.422675	1.066391
O43	O	1.108677	-0.188799	0.519079
O44	O	1.442010	0.144535	0.852412
O45	O	1.775344	0.477868	1.185746
O46	O	1.108460	-0.316846	0.309320
O47	O	1.441794	0.016488	0.642653
O48	O	1.775127	0.349821	0.975986
O49	O	1.018086	-0.316827	0.399705
O50	O	1.351419	0.016506	0.733039
O51	O	1.684752	0.349839	1.066372
C52	C	0.872198	-0.216407	0.354537
C53	C	1.205532	0.116926	0.687870
C54	C	1.538865	0.450260	1.021203
C55	C	0.790399	-0.216414	0.354545
C56	C	1.123733	0.116919	0.687878
C57	C	1.457066	0.450252	1.021212
C58	C	1.063272	-0.333137	0.354521
C59	C	1.396605	0.000196	0.687855
C60	C	1.729938	0.333529	1.021188
C61	C	1.063282	-0.383072	0.354530
C62	C	1.396615	-0.049738	0.687863
C63	C	1.729949	0.283595	1.021197
C64	C	0.602198	-0.245186	0.401542
C65	C	0.935531	0.088148	0.734876
C66	C	1.268865	0.421481	1.068209
C67	C	0.525339	-0.245187	0.401551
C68	C	0.858673	0.088146	0.734885
C69	C	1.192006	0.421480	1.068218
C70	C	0.525363	-0.187652	0.307589
C71	C	0.858696	0.145682	0.640923
C72	C	1.192030	0.479015	0.974256
C73	C	0.602220	-0.187648	0.307584
C74	C	0.935554	0.145685	0.640918
C75	C	1.268887	0.479018	0.974251
C76	C	0.640636	-0.216418	0.354560
C77	C	0.973969	0.116915	0.687893
C78	C	1.307303	0.450249	1.021226
C79	C	0.486920	-0.216423	0.354574
C80	C	0.820253	0.116911	0.687907
C81	C	1.153586	0.450244	1.021240
C82	C	0.403586	-0.216424	0.354583
C83	C	0.736919	0.116909	0.687917
C84	C	1.070253	0.450243	1.021250
C85	C	0.723975	-0.216416	0.354551
C86	C	1.057308	0.116917	0.687885
C87	C	1.390641	0.450251	1.021218
C88	C	1.110548	-0.692712	0.307563
C89	C	1.443882	-0.359379	0.640896
C90	C	1.777215	-0.026045	0.974229
C91	C	1.110639	-0.880385	0.307591
C92	C	1.443972	-0.547052	0.640924
C93	C	1.777306	-0.213718	0.974258
O94	O	1.150721	-0.904647	0.267629
O95	O	1.484054	-0.571314	0.600963
O96	O	1.817388	-0.237980	0.934296
N97	N	1.063557	-0.903857	0.354613
N98	N	1.396890	-0.570523	0.687946
N99	N	1.730224	-0.237190	1.021280
C100	C	1.016452	-0.880407	0.401635
C101	C	1.349786	-0.547074	0.734968
C102	C	1.683119	-0.213741	1.068302
O103	O	0.976414	-0.904678	0.441636
O104	O	1.309747	-0.571344	0.774969
O105	O	1.643080	-0.238011	1.108303
C106	C	1.016366	-0.692735	0.401609
C107	C	1.349699	-0.359402	0.734943
C108	C	1.683033	-0.026068	1.068276
C109	C	1.063446	-0.669266	0.354579
C110	C	1.396779	-0.335932	0.687912
C111	C	1.730112	-0.002599	1.021246
C112	C	1.157625	-0.669243	0.260536
C113	C	1.490958	-0.335909	0.593870
C114	C	1.824291	-0.002576	0.927203
C115	C	1.157599	-0.622327	0.260527
C116	C	1.490932	-0.288994	0.593860
C117	C	1.824265	0.044339	0.927194
C118	C	1.110496	-0.598881	0.307544
C119	C	1.443830	-0.265548	0.640877
C120	C	1.777163	0.067786	0.974210
C121	C	1.063420	-0.622350	0.354570
C122	C	1.396753	-0.289017	0.687903
C123	C	1.730086	0.044316	1.021236
C124	C	0.969265	-0.669287	0.448634
C125	C	1.302599	-0.335953	0.781968
C126	C	1.635932	-0.002620	1.115301
C127	C	0.969249	-0.622365	0.448625
C128	C	1.302583	-0.289032	0.781958
C129	C	1.635916	0.044301	1.115292
C130	C	1.016329	-0.598896	0.401595
C131	C	1.349662	-0.265563	0.734928
C132	C	1.682996	0.067770	1.068261
C133	C	1.016291	-0.551989	0.401577
C134	C	1.349624	-0.218655	0.734910
C135	C	1.682958	0.114678	1.068243
N136	N	1.063373	-0.528517	0.354554
N137	N	1.396706	-0.195184	0.687888
N138	N	1.730040	0.138150	1.021221
C139	C	1.110476	-0.551963	0.307538
C140	C	1.443809	-0.218630	0.640871
C141	C	1.777142	0.114703	0.974205
C142	C	1.016500	-0.978938	0.401644
C143	C	1.349834	-0.645605	0.734977
C144	C	1.683167	-0.312271	1.068311
C145	C	1.016521	-1.025856	0.401649
C146	C	1.349854	-0.692522	0.734983
C147	C	1.683187	-0.359189	1.068316
C148	C	1.110709	-1.025830	0.307606
C149	C	1.444042	-0.692497	0.640940
C150	C	1.777375	-0.359163	0.974273
C151	C	1.110684	-0.978911	0.307598
C152	C	1.444017	-0.645578	0.640931
C153	C	1.777350	-0.312245	0.974264
C154	C	1.063582	-0.955466	0.354622
C155	C	1.396916	-0.622133	0.687955
C156	C	1.730249	-0.288799	1.021288
C157	C	1.110417	-0.453437	0.307521
C158	C	1.443750	-0.120104	0.640854
C159	C	1.777084	0.213229	0.974188
C160	C	1.110385	-0.406518	0.307514
C161	C	1.443718	-0.073184	0.640847
C162	C	1.777051	0.260149	0.974180
C163	C	1.016200	-0.406547	0.401559
C164	C	1.349533	-0.073214	0.734892
C165	C	1.682867	0.260119	1.068226
C166	C	1.016229	-0.453463	0.401564
C167	C	1.349563	-0.120130	0.734897
C168	C	1.682896	0.213204	1.068231
C169	C	1.063344	-0.476907	0.354543
C170	C	1.396677	-0.143573	0.687876
C171	C	1.730010	0.189760	1.021209
O172	O	0.976236	-0.527698	0.441523
O173	O	1.309569	-0.194364	0.774856
O174	O	1.642903	0.138969	1.108190
O175	O	1.150520	-0.527685	0.267554
O176	O	1.483853	-0.194351	0.600888
O177	O	1.817187	0.138982	0.934221
C178	C	1.110574	-0.739627	0.307572
C179	C	1.443908	-0.406294	0.640905
C180	C	1.777241	-0.072961	0.974239
C181	C	1.063498	-0.763097	0.354598
C182	C	1.396831	-0.429763	0.687931
C183	C	1.730164	-0.096430	1.021265
C184	C	1.016395	-0.739651	0.401615
C185	C	1.349728	-0.406317	0.734948
C186	C	1.683062	-0.072984	1.068281
C187	C	1.063518	-0.810015	0.354604
C188	C	1.396852	-0.476681	0.687937
C189	C	1.730185	-0.143348	1.021270
C190	C	1.110621	-0.833461	0.307587
C191	C	1.443954	-0.500127	0.640920
C192	C	1.777288	-0.166794	0.974254
C193	C	1.157703	-0.809989	0.260565
C194	C	1.491036	-0.476656	0.593898
C195	C	1.824370	-0.143322	0.927232
C196	C	1.157677	-0.763074	0.260555
C197	C	1.491010	-0.429740	0.593889
C198	C	1.824344	-0.096407	0.927222
C199	C	0.969313	-0.763122	0.448637
C200	C	1.302646	-0.429789	0.781970
C201	C	1.635980	-0.096456	1.115303
C202	C	0.969342	-0.810038	0.448642
C203	C	1.302676	-0.476704	0.781975
C204	C	1.636009	-0.143371	1.115308
C205	C	1.016445	-0.833484	0.401625
C206	C	1.349778	-0.500151	0.734959
C207	C	1.683112	-0.166817	1.068292
C208	C	1.255357	-0.216423	0.354579
C209	C	1.588691	0.116911	0.687913
C210	C	1.922024	0.450244	1.021246
C211	C	1.337156	-0.216426	0.354589
C212	C	1.670490	0.116907	0.687922
C213	C	2.003823	0.450241	1.021255
C214	C	1.063449	-0.216384	0.546511
C215	C	1.396783	0.116950	0.879844
C216	C	1.730116	0.450283	1.213177
C217	C	1.063468	-0.216370	0.628310
C218	C	1.396802	0.116963	0.961643
C219	C	1.730135	0.450296	1.294976
C220	C	1.063558	-0.099236	0.354610
C221	C	1.396891	0.234097	0.687944
C222	C	1.730225	0.567430	1.021277
C223	C	1.063623	-0.049302	0.354633
C224	C	1.396957	0.284032	0.687966
C225	C	1.730290	0.617365	1.021300
C226	C	1.063402	-0.216413	0.163351
C227	C	1.396736	0.116920	0.496685
C228	C	1.730069	0.450254	0.830018
C229	C	1.063526	-0.216300	0.081553
C230	C	1.396859	0.117034	0.414886
C231	C	1.730192	0.450367	0.748220
C232	C	1.110592	-0.187612	0.816523
C233	C	1.443926	0.145721	1.149856
C234	C	1.777259	0.479055	1.483190
C235	C	1.110601	-0.187599	0.893382
C236	C	1.443934	0.145734	1.226715
C237	C	1.777268	0.479068	1.560049
C238	C	1.016397	-0.245059	0.893334
C239	C	1.349730	0.088274	1.226667
C240	C	1.683063	0.421607	1.560001
C241	C	1.016385	-0.245070	0.816477
C242	C	1.349718	0.088263	1.149810
C243	C	1.683051	0.421597	1.483143
C244	C	1.063487	-0.216347	0.778073
C245	C	1.396820	0.116986	1.111407
C246	C	1.730153	0.450320	1.444740
C247	C	1.063507	-0.216323	0.931789
C248	C	1.396841	0.117010	1.265123
C249	C	1.730174	0.450343	1.598456
C250	C	1.063517	-0.216309	1.015123
C251	C	1.396850	0.117024	1.348456
C252	C	1.730183	0.450357	1.681790
C253	C	1.063477	-0.216360	0.694734
C254	C	1.396810	0.116973	1.028068
C255	C	1.730143	0.450307	1.361401
H256	H	0.633474	-0.268610	0.439794
H257	H	0.966807	0.064723	0.773128
H258	H	1.300140	0.398056	1.106461
H259	H	1.148944	-0.164223	0.785257
H260	H	1.482277	0.169111	1.118590
H261	H	1.815610	0.502444	1.451924
Cl262	Cl	0.477064	-0.151488	0.248536
Cl263	Cl	0.810397	0.181846	0.581869
Cl264	Cl	1.143731	0.515179	0.915203
H265	H	0.494047	-0.268612	0.439810
H266	H	0.827380	0.064721	0.773144
H267	H	1.160713	0.398055	1.106477
Cl268	Cl	0.650546	-0.151477	0.248520
Cl269	Cl	0.983879	0.181856	0.581854
Cl270	Cl	1.317213	0.515189	0.915187
Cl271	Cl	1.169646	-0.482902	0.248406
Cl272	Cl	1.502979	-0.149569	0.581740
Cl273	Cl	1.836313	0.183764	0.915073
Cl274	Cl	1.169829	-0.151477	0.941716
Cl275	Cl	1.503162	0.181856	1.275049
Cl276	Cl	1.836495	0.515189	1.608382
H277	H	0.930924	-0.688387	0.486928
H278	H	1.264258	-0.355054	0.820261
H279	H	1.597591	-0.021720	1.153595
H280	H	1.148723	-0.387411	0.269213
H281	H	1.482056	-0.054077	0.602547
H282	H	1.815389	0.279256	0.935880
H283	H	1.195937	-0.603221	0.222233
H284	H	1.529271	-0.269888	0.555566
H285	H	1.862604	0.063445	0.888900
H286	H	0.978050	-0.268446	0.924612
H287	H	1.311383	0.064888	1.257945
H288	H	1.644716	0.398221	1.591278
H289	H	0.930894	-0.603279	0.486920
H290	H	1.264228	-0.269945	0.820254
H291	H	1.597561	0.063388	1.153587
Cl292	Cl	0.957157	-0.281194	0.768136
Cl293	Cl	1.290491	0.052139	1.101469
Cl294	Cl	1.623824	0.385472	1.434803
H295	H	0.978177	-1.044960	0.439939
H296	H	1.311510	-0.711627	0.773273
H297	H	1.644843	-0.378294	1.106606
H298	H	1.195985	-0.688328	0.222250
H299	H	1.529319	-0.354994	0.555583
H300	H	1.862652	-0.021661	0.888916
Cl301	Cl	1.169873	-0.949412	0.248473
Cl302	Cl	1.503206	-0.616079	0.581806
Cl303	Cl	1.836540	-0.282746	0.915139
H304	H	1.196053	-0.829087	0.222280
H305	H	1.529387	-0.495754	0.555614
H306	H	1.862720	-0.162420	0.888947
Cl307	Cl	0.957028	-0.482968	0.460674
Cl308	Cl	1.290361	-0.149635	0.794007
Cl309	Cl	1.623694	0.183699	1.127340
H310	H	1.149062	-1.044928	0.269324
H311	H	1.482395	-0.711595	0.602657
H312	H	1.815728	-0.378261	0.935991
H313	H	0.977847	-0.387450	0.439837
H314	H	1.311181	-0.054117	0.773171
H315	H	1.644514	0.279216	1.106504
Cl316	Cl	0.910092	-0.733654	0.507749
Cl317	Cl	1.243425	-0.400321	0.841083
Cl318	Cl	1.576759	-0.066988	1.174416
Cl319	Cl	1.216870	-0.733576	0.201431
Cl320	Cl	1.550203	-0.400243	0.534765
Cl321	Cl	1.883536	-0.066910	0.868098
Cl322	Cl	0.957279	-0.949470	0.460764
Cl323	Cl	1.290612	-0.616137	0.794098
Cl324	Cl	1.623945	-0.282804	1.127431
H325	H	0.930998	-0.829142	0.486939
H326	H	1.264331	-0.495809	0.820272
H327	H	1.597665	-0.162476	1.153606
