data_functionalizedCrystal
_audit_creation_method	'MofGen! by Chris Wilmer'
_symmetry_space_group_name_H-M	'P1'
_symmetry_Int_Tables_number	1
_symmetry_cell_setting	triclinic
loop_
_symmetry_equiv_pos_as_xyz
  x,y,z
_cell_length_a	13.032831
_cell_length_b	25.639240
_cell_length_c	13.032268
_cell_angle_alpha	82.861728
_cell_angle_beta	90.886977
_cell_angle_gamma	97.152369
loop_
_atom_site_label
_atom_site_type_symbol
_atom_site_fract_x
_atom_site_fract_y
_atom_site_fract_z
Zn1	Zn	1.498174	0.353069	-0.780699
Zn2	Zn	1.519849	0.430962	-0.608689
Zn3	Zn	1.348052	0.331229	-0.586948
Zn4	Zn	1.326100	0.428135	-0.758815
O5	O	1.423044	0.385849	-0.683788
O6	O	1.644961	0.373724	-0.776138
O7	O	1.515318	0.409775	-0.461891
O8	O	1.368082	0.260972	-0.612710
O9	O	1.660886	0.430952	-0.649763
O10	O	1.478376	0.277018	-0.755057
O11	O	1.389099	0.336502	-0.445919
O12	O	1.201228	0.333761	-0.591490
O13	O	1.330668	0.426134	-0.905632
O14	O	1.185100	0.404957	-0.717760
O15	O	1.457090	0.370983	-0.921710
O16	O	1.494032	0.503741	-0.628544
O17	O	1.351686	0.501664	-0.738841
C18	C	1.155849	0.366683	-0.649892
C19	C	1.041539	0.358497	-0.635415
C20	C	0.982636	0.390121	-0.691343
C21	C	0.864490	0.381662	-0.676382
C22	C	1.422854	0.521674	-0.683703
C23	C	1.422863	0.579789	-0.683713
C24	C	1.348847	0.829921	-0.741154
C25	C	1.348819	0.775314	-0.741142
O26	O	1.285760	0.746164	-0.789949
N27	N	1.422960	0.749072	-0.683766
C28	C	1.497140	0.777442	-0.626406
O29	O	1.560201	0.750107	-0.577603
C30	C	1.497172	0.832048	-0.626424
C31	C	1.423020	0.858286	-0.683796
C32	C	1.274702	0.856159	-0.798521
C33	C	1.274729	0.910761	-0.798531
C34	C	1.348902	0.939126	-0.741173
C35	C	1.423047	0.912889	-0.683805
C36	C	1.571356	0.860417	-0.569071
C37	C	1.571382	0.915027	-0.569094
C38	C	1.497230	0.941265	-0.626466
C39	C	1.497248	0.995856	-0.626457
N40	N	1.423107	1.022098	-0.683833
C41	C	1.348934	0.993733	-0.741191
C42	C	1.497068	0.662764	-0.626374
C43	C	1.497033	0.608158	-0.626350
C44	C	1.348712	0.606034	-0.741088
C45	C	1.348744	0.660641	-0.741106
C46	C	1.422927	0.689006	-0.683750
C47	C	1.348997	1.108403	-0.741206
C48	C	1.349028	1.163010	-0.741208
C49	C	1.497352	1.165130	-0.626474
C50	C	1.497317	1.110527	-0.626469
C51	C	1.423135	1.082165	-0.683842
O52	O	1.560277	1.025041	-0.577679
O53	O	1.285892	1.021076	-0.789997
C54	C	1.691282	0.405090	-0.717817
C55	C	1.805589	0.413289	-0.732318
C56	C	1.389013	0.400680	-0.952029
C57	C	1.374511	0.407000	-1.066338
C58	C	1.423222	1.249492	-0.683875
C59	C	1.423201	1.191375	-0.683850
C60	C	1.430597	0.382530	-1.125255
C61	C	1.415610	0.389062	-1.243399
C62	C	1.457002	0.371042	-0.416598
C63	C	1.471703	0.364588	-0.302315
H64	H	0.827457	0.348321	-0.617424
F65	F	1.507842	0.348814	-1.076865
F66	F	1.548985	0.330889	-1.253936
F67	F	1.297239	0.440701	-1.114725
H68	H	1.019673	0.423455	-0.750305
F69	F	0.993134	0.314921	-0.558356
H70	H	1.356486	0.414845	-1.280418
H71	H	0.842619	0.446625	-0.791287
F72	F	1.270102	1.190931	-0.802272
H73	H	1.214301	0.833069	-0.845234
H74	H	1.288592	1.085317	-0.787927
H75	H	1.214345	0.932119	-0.845247
F76	F	1.269769	0.575836	-0.802132
H77	H	1.631796	0.938119	-0.522391
H78	H	1.288368	0.682001	-0.787829
F79	F	1.575945	0.580239	-0.565274
H80	H	1.631738	0.839062	-0.522354
F81	F	1.576024	0.692947	-0.565317
F82	F	1.576290	1.195328	-0.565436
F83	F	1.576221	1.082599	-0.565387
