data_functionalizedCrystal
_audit_creation_method	'MofGen! by Chris Wilmer'
_symmetry_space_group_name_H-M	'P1'
_symmetry_Int_Tables_number	1
_symmetry_cell_setting	triclinic
loop_
_symmetry_equiv_pos_as_xyz
  x,y,z
_cell_length_a	6.817900
_cell_length_b	15.300912
_cell_length_c	11.102291
_cell_angle_alpha	93.599389
_cell_angle_beta	108.605752
_cell_angle_gamma	104.173621
loop_
_atom_site_label
_atom_site_type_symbol
_atom_site_fract_x
_atom_site_fract_y
_atom_site_fract_z
V1	V	-4.088938	-0.124770	-0.396644
O2	O	-4.071655	0.005984	-0.388697
O3	O	-4.043504	-0.247386	-0.394313
O4	O	-4.066069	-0.122855	-0.569461
O5	O	-4.048934	-0.119408	-0.212337
V6	V	-4.568873	-0.109129	-0.374553
O7	O	-4.358066	-0.159078	-0.445103
O8	O	-4.749942	-0.074821	-0.326095
O9	O	-4.391101	0.013487	-0.376885
O10	O	-4.703553	-0.239883	-0.382501
O11	O	-4.726274	-0.114490	-0.558861
O12	O	-4.368535	-0.111043	-0.201737
C13	C	-3.888400	-0.277277	-0.388154
C14	C	-3.932710	-0.377517	-0.387400
C15	C	-4.306830	-0.813882	-0.390510
C16	C	-4.265177	-0.719694	-0.391210
C17	C	-4.061173	-0.668014	-0.385212
C18	C	-3.898805	-0.710525	-0.378500
C19	C	-3.940455	-0.804710	-0.377791
C20	C	-3.812008	-0.514214	-0.379981
C21	C	-3.770355	-0.420022	-0.380693
C22	C	-4.136730	-0.429198	-0.393400
C23	C	-4.178380	-0.523383	-0.392691
C24	C	-4.016010	-0.565888	-0.385982
C25	C	-3.917183	-0.118425	-0.611571
C26	C	-3.979789	-0.117671	-0.752852
C27	C	-4.192393	-0.121814	-0.825712
C28	C	-4.251196	-0.121089	-0.958456
C29	C	-3.884771	-0.112080	-0.945467
C30	C	-3.825968	-0.112799	-0.812724
C31	C	-4.403948	-0.127019	-0.833213
C32	C	-4.462751	-0.126294	-0.965957
C33	C	-4.209546	0.043373	-0.383040
C34	C	-4.144476	0.143613	-0.383802
C35	C	-4.180762	-0.115477	-0.159620
C36	C	-4.097395	-0.116226	-0.018338
H37	H	-4.344500	-0.565461	-0.397585
H38	H	-4.487163	-0.194265	-0.808958
H39	H	-3.652851	-0.109427	-0.753406
C40	C	-3.674388	-0.653671	-0.371885
N41	N	-3.505352	-0.610849	-0.366902
H42	H	-4.510810	-0.062270	-0.994861
H43	H	-4.594638	-0.191493	-1.019006
H44	H	-3.679791	-0.548819	-0.374530
H45	H	-4.397389	-0.685092	-0.396677
C46	C	-4.531249	-0.870722	-0.397108
N47	N	-4.700284	-0.913531	-0.402072
C48	C	-4.315334	-0.382441	-0.400773
N49	N	-4.449853	-0.347219	-0.406328
C50	C	-4.445211	-0.044334	-0.769326
N51	N	-4.476282	0.017945	-0.721206
H52	H	-3.604242	-0.377947	-0.375814
H53	H	-3.759543	-0.108112	-0.994232
H54	H	-3.808252	-0.839317	-0.372340
