data_functionalizedCrystal
_audit_creation_method	'MofGen! by Chris Wilmer'
_symmetry_space_group_name_H-M	'P1'
_symmetry_Int_Tables_number	1
_symmetry_cell_setting	triclinic
loop_
_symmetry_equiv_pos_as_xyz
  x,y,z
_cell_length_a	29.839125
_cell_length_b	12.759401
_cell_length_c	29.839131
_cell_angle_alpha	89.966237
_cell_angle_beta	89.974637
_cell_angle_gamma	90.009620
loop_
_atom_site_label
_atom_site_type_symbol
_atom_site_fract_x
_atom_site_fract_y
_atom_site_fract_z
Zn1	Zn	-0.253953	-1.606008	-0.178934
Zn2	Zn	-0.178813	-1.605868	-0.254046
Zn3	Zn	-0.178839	-1.430338	-0.178929
Zn4	Zn	-0.253918	-1.430235	-0.254036
O5	O	-0.216381	-1.518112	-0.216486
O6	O	-0.243990	-1.753010	-0.188904
O7	O	-0.115949	-1.582568	-0.244084
O8	O	-0.188828	-1.453743	-0.116062
O9	O	-0.188784	-1.752907	-0.244089
O10	O	-0.244015	-1.582806	-0.116066
O11	O	-0.115968	-1.453608	-0.188895
O12	O	-0.188794	-1.283304	-0.188885
O13	O	-0.316789	-1.453567	-0.244071
O14	O	-0.243954	-1.283228	-0.244066
O15	O	-0.316815	-1.582706	-0.188894
O16	O	-0.188750	-1.582468	-0.316912
O17	O	-0.243929	-1.453432	-0.316904
C18	C	-0.216373	-1.245145	-0.216474
C19	C	-0.216381	-1.128368	-0.216480
C20	C	-0.245060	-0.963763	-0.245261
C21	C	-0.245056	-1.073487	-0.245258
C22	C	-0.187705	-1.073520	-0.187708
C23	C	-0.187708	-0.963798	-0.187714
C24	C	-0.333559	-1.518141	-0.216482
C25	C	-0.383493	-1.518153	-0.216480
C26	C	-0.693153	-1.585466	-0.187674
C27	C	-0.880827	-1.585518	-0.187636
O28	O	-0.905106	-1.642673	-0.163187
N29	N	-0.904279	-1.518292	-0.216360
C30	C	-0.880810	-1.451043	-0.245093
O31	O	-0.905063	-1.393857	-0.269521
C32	C	-0.693137	-1.450987	-0.245129
C33	C	-0.669688	-1.518225	-0.216407
C34	C	-0.669704	-1.652698	-0.158954
C35	C	-0.622788	-1.652689	-0.158966
C36	C	-0.599323	-1.585447	-0.187698
C37	C	-0.622772	-1.518215	-0.216418
C38	C	-0.669669	-1.383733	-0.273860
C39	C	-0.622748	-1.383723	-0.273866
C40	C	-0.599298	-1.450961	-0.245143
C41	C	-0.552391	-1.450964	-0.245162
N42	N	-0.528939	-1.518190	-0.216438
C43	C	-0.552405	-1.585432	-0.187706
C44	C	-0.979340	-1.451079	-0.245073
C45	C	-1.026258	-1.451094	-0.245065
C46	C	-1.026272	-1.585569	-0.187607
C47	C	-0.979353	-1.585558	-0.187618
C48	C	-0.955888	-1.518305	-0.216349
C49	C	-0.453879	-1.585407	-0.187733
C50	C	-0.406959	-1.585394	-0.187748
C51	C	-0.406949	-1.450917	-0.245204
C52	C	-0.453865	-1.450933	-0.245191
C53	C	-0.477329	-1.518181	-0.216451
O54	O	-0.528083	-1.393831	-0.269595
O55	O	-0.528143	-1.642593	-0.163275
C56	C	-0.740069	-1.585476	-0.187663
C57	C	-0.763519	-1.518244	-0.216383
C58	C	-0.740053	-1.451003	-0.245116
C59	C	-0.810436	-1.518259	-0.216375
C60	C	-0.833902	-1.585501	-0.187643
C61	C	-0.810450	-1.652727	-0.158919
C62	C	-0.763535	-1.652718	-0.158931
C63	C	-0.763505	-1.383776	-0.273839
C64	C	-0.810420	-1.383792	-0.273826
C65	C	-0.833886	-1.451034	-0.245094
C66	C	-0.099658	-1.518144	-0.216458
C67	C	-0.049724	-1.518336	-0.216333
C68	C	-0.216343	-1.517952	-0.333209
C69	C	-0.216342	-1.517980	-0.383143
C70	C	-0.216387	-0.792146	-0.216495
C71	C	-0.216387	-0.908922	-0.216490
C72	C	-0.245157	-1.585301	-0.692754
C73	C	-0.245184	-1.585415	-0.880427
O74	O	-0.269656	-1.642497	-0.904663
N75	N	-0.216430	-1.518291	-0.903928
C76	C	-0.187670	-1.451128	-0.880509
O77	O	-0.163217	-1.394030	-0.904804
C78	C	-0.187646	-1.451010	-0.692836
C79	C	-0.216398	-1.518146	-0.669337
C80	C	-0.273907	-1.652431	-0.669254
C81	C	-0.273898	-1.652406	-0.622339
C82	C	-0.245139	-1.585251	-0.598923
C83	C	-0.216389	-1.518121	-0.622422
C84	C	-0.158888	-1.383843	-0.669418
C85	C	-0.158885	-1.383817	-0.622497
C86	C	-0.187638	-1.450953	-0.598998
C87	C	-0.187621	-1.450941	-0.552090
N88	N	-0.216375	-1.518065	-0.528589
C89	C	-0.245134	-1.585220	-0.552005
C90	C	-0.187684	-1.451197	-0.979039
C91	C	-0.187690	-1.451228	-1.025957
C92	C	-0.245204	-1.585513	-1.025872
C93	C	-0.245196	-1.585487	-0.978953
C94	C	-0.216438	-1.518321	-0.955538
C95	C	-0.245113	-1.585163	-0.453479
C96	C	-0.245100	-1.585135	-0.406559
C97	C	-0.187588	-1.450846	-0.406649
C98	C	-0.187599	-1.450877	-0.453564
C99	C	-0.216365	-1.518039	-0.476978
O100	O	-0.163166	-1.393880	-0.527824
O101	O	-0.269590	-1.642293	-0.527701
C102	C	-0.245166	-1.585326	-0.739669
C103	C	-0.216415	-1.518196	-0.763168
C104	C	-0.187657	-1.451041	-0.739752
C105	C	-0.216421	-1.518227	-0.810086
C106	C	-0.245180	-1.585382	-0.833502
C107	C	-0.273933	-1.652506	-0.810001
C108	C	-0.273925	-1.652481	-0.763085
C109	C	-0.158903	-1.383917	-0.763253
C110	C	-0.158914	-1.383948	-0.810169
C111	C	-0.187673	-1.451103	-0.833585
C112	C	-0.216428	-1.518302	-0.099308
C113	C	-0.216449	-1.518383	-0.049373
H114	H	-0.164357	-0.919145	-0.164284
F115	F	-1.051210	-1.379545	-0.275642
H116	H	-0.164265	-1.396501	-0.959977
H117	H	-0.297337	-1.707149	-0.743956
H118	H	-0.268403	-1.118134	-0.268687
H119	H	-0.387869	-1.640152	-0.164358
H120	H	-0.135467	-1.329119	-0.603434
F121	F	-0.157186	-1.131931	-0.157082
F122	F	-0.478844	-1.656976	-0.157143
H123	H	-0.960239	-1.396315	-0.268473
H124	H	-0.135475	-1.329174	-0.688543
H125	H	-0.603700	-1.707439	-0.135576
H126	H	-0.744446	-1.707469	-0.135542
H127	H	-0.164171	-1.396172	-0.387576
F128	F	-0.694671	-1.724281	-0.128374
F129	F	-0.381967	-1.379356	-0.275781
F130	F	-0.954400	-1.657120	-0.157047
H131	H	-0.688754	-1.328980	-0.297249
H132	H	-0.603645	-1.328946	-0.297258
F133	F	-0.156992	-1.379437	-0.478575
H134	H	-1.045386	-1.640320	-0.164212
H135	H	-0.268514	-1.639809	-0.387428
H136	H	-0.268609	-1.640154	-0.959823
H137	H	-0.268413	-0.919087	-0.268693
F138	F	-0.478823	-1.379378	-0.275763
H139	H	-0.829564	-1.707481	-0.135526
F140	F	-0.835372	-1.312230	-0.304402
F141	F	-0.738537	-1.312203	-0.304421
H142	H	-0.297348	-1.707190	-0.829074
F143	F	-0.275729	-1.656645	-0.478391
H144	H	-0.135496	-1.329280	-0.829298
F145	F	-0.275812	-1.656985	-1.050801
F146	F	-0.128294	-1.312433	-0.738338
F147	F	-0.157082	-1.379786	-1.050962
H148	H	-0.297312	-1.707070	-0.603209
H149	H	-0.297329	-1.707116	-0.688315
