data_functionalizedCrystal
_audit_creation_method	'MofGen! by Chris Wilmer'
_symmetry_space_group_name_H-M	'P1'
_symmetry_Int_Tables_number	1
_symmetry_cell_setting	triclinic
loop_
_symmetry_equiv_pos_as_xyz
  x,y,z
_cell_length_a	16.120530
_cell_length_b	25.639239
_cell_length_c	25.639233
_cell_angle_alpha	89.981253
_cell_angle_beta	87.090206
_cell_angle_gamma	87.134054
loop_
_atom_site_label
_atom_site_type_symbol
_atom_site_fract_x
_atom_site_fract_y
_atom_site_fract_z
Zn1	Zn	1.274382	-0.248803	-0.336095
Zn2	Zn	1.774382	0.251197	0.163905
Zn3	Zn	1.274260	-0.336218	-0.248655
Zn4	Zn	1.774260	0.163782	0.251345
Zn5	Zn	1.134983	-0.244363	-0.244245
Zn6	Zn	1.634983	0.255637	0.255755
Zn7	Zn	1.134896	-0.331767	-0.331632
Zn8	Zn	1.634896	0.168233	0.168368
O9	O	1.204630	-0.290288	-0.290157
O10	O	1.704630	0.209712	0.209843
O11	O	1.391030	-0.264120	-0.328209
O12	O	1.891030	0.235880	0.171791
O13	O	1.255770	-0.324038	-0.174904
O14	O	1.755770	0.175962	0.325096
O15	O	1.153562	-0.171789	-0.256451
O16	O	1.653562	0.328211	0.243549
O17	O	1.390940	-0.328344	-0.263968
O18	O	1.890940	0.171656	0.236032
O19	O	1.255978	-0.175052	-0.323932
O20	O	1.755978	0.324948	0.176068
O21	O	1.153444	-0.256552	-0.171664
O22	O	1.653444	0.243448	0.328336
O23	O	1.018308	-0.252236	-0.252124
O24	O	1.518308	0.247764	0.247876
O25	O	1.153413	-0.320757	-0.405390
O26	O	1.653413	0.179243	0.094610
O27	O	1.018244	-0.316451	-0.316327
O28	O	1.518244	0.183549	0.183673
O29	O	1.255893	-0.259804	-0.408668
O30	O	1.755893	0.240196	0.091332
O31	O	1.255686	-0.408790	-0.259640
O32	O	1.755686	0.091210	0.240360
O33	O	1.153295	-0.405520	-0.320603
O34	O	1.653295	0.094480	0.179397
C35	C	0.988026	-0.283379	-0.283263
C36	C	1.488026	0.216621	0.216737
C37	C	0.895362	-0.280436	-0.280326
C38	C	1.395362	0.219564	0.219674
C39	C	0.725704	-0.275051	-0.274968
C40	C	1.225704	0.224949	0.225032
C41	C	0.684397	-0.305564	-0.305383
C42	C	1.184397	0.194436	0.194617
C43	C	0.589994	-0.302567	-0.302402
C44	C	1.089994	0.197433	0.197598
C45	C	0.820116	-0.278046	-0.277949
C46	C	1.320116	0.221954	0.222051
C47	C	1.204490	-0.426126	-0.290128
C48	C	1.704490	0.073874	0.209872
C49	C	1.204506	-0.484240	-0.290136
C50	C	1.704506	0.015760	0.209864
C51	C	1.258084	-0.846302	-0.258475
C52	C	1.758084	-0.346302	0.241525
C53	C	1.258116	-0.900907	-0.258483
C54	C	1.758116	-0.400907	0.241517
O55	O	1.303525	-0.930584	-0.231532
O56	O	1.803525	-0.430584	0.268468
N57	N	1.204777	-0.926531	-0.290196
N58	N	1.704777	-0.426531	0.209804
C59	C	1.151407	-0.897547	-0.321907
C60	C	1.651407	-0.397547	0.178093
O61	O	1.106041	-0.924357	-0.348883
O62	O	1.606041	-0.424357	0.151117
C63	C	1.151380	-0.842943	-0.321902
C64	C	1.651380	-0.342943	0.178098
C65	C	1.204717	-0.817322	-0.290182
C66	C	1.704717	-0.317322	0.209818
C67	C	1.311418	-0.820681	-0.226759
C68	C	1.811418	-0.320681	0.273241
C69	C	1.311384	-0.766079	-0.226750
C70	C	1.811384	-0.266079	0.273250
C71	C	1.258017	-0.737099	-0.258458
C72	C	1.758017	-0.237099	0.241542
C73	C	1.204683	-0.762720	-0.290174
C74	C	1.704683	-0.262720	0.209826
C75	C	1.098015	-0.813960	-0.353615
C76	C	1.598015	-0.313960	0.146385
C77	C	1.097993	-0.759353	-0.353607
C78	C	1.597993	-0.259353	0.146393
C79	C	1.151330	-0.733731	-0.321888
C80	C	1.651330	-0.233731	0.178112
C81	C	1.151283	-0.679139	-0.321873
C82	C	1.651283	-0.179139	0.178127
N83	N	1.204622	-0.653515	-0.290160
N84	N	1.704622	-0.153515	0.209840
C85	C	1.257989	-0.682495	-0.258452
C86	C	1.757989	-0.182495	0.241548
C87	C	1.151470	-1.012220	-0.321917
C88	C	1.651470	-0.512220	0.178083
C89	C	1.151493	-1.066823	-0.321921
C90	C	1.651493	-0.566823	0.178079
C91	C	1.258203	-1.070179	-0.258497
C92	C	1.758203	-0.570179	0.241503
C93	C	1.258176	-1.015575	-0.258491
C94	C	1.758176	-0.515575	0.241509
C95	C	1.204810	-0.986596	-0.290204
C96	C	1.704810	-0.486596	0.209796
C97	C	1.257914	-0.567827	-0.258436
C98	C	1.757914	-0.067827	0.241564
C99	C	1.257874	-0.513221	-0.258428
C100	C	1.757874	-0.013221	0.241572
C101	C	1.151167	-0.509869	-0.321854
C102	C	1.651167	-0.009869	0.178146
C103	C	1.151204	-0.564471	-0.321860
C104	C	1.651204	-0.064471	0.178140
C105	C	1.204585	-0.593449	-0.290149
C106	C	1.704585	-0.093449	0.209851
O107	O	1.105900	-0.649428	-0.348811
O108	O	1.605900	-0.149428	0.151189
O109	O	1.303356	-0.655679	-0.231486
O110	O	1.803356	-0.155679	0.268514
C111	C	1.422080	-0.297224	-0.297078
C112	C	1.922080	0.202776	0.202922
C113	C	1.514744	-0.300180	-0.300027
C114	C	2.014744	0.199820	0.199973
C115	C	1.204657	-0.290279	-0.426531
C116	C	1.704657	0.209721	0.073469
C117	C	1.204669	-0.290276	-0.484645
C118	C	1.704669	0.209724	0.015355
C119	C	1.204794	-0.153920	-0.290197
C120	C	1.704794	0.346080	0.209803
C121	C	1.204863	-0.095808	-0.290215
C122	C	1.704863	0.404192	0.209785
C123	C	1.258098	-0.258441	-0.846723
C124	C	1.758098	0.241559	-0.346723
C125	C	1.258108	-0.258426	-0.901328
C126	C	1.758108	0.241574	-0.401328
O127	O	1.303468	-0.231418	-0.931021
O128	O	1.803468	0.268582	-0.431021
N129	N	1.204761	-0.290156	-0.926931
N130	N	1.704761	0.209844	-0.426931
C131	C	1.151393	-0.321898	-0.897926
C132	C	1.651393	0.178102	-0.397926
O133	O	1.106018	-0.348886	-0.924717
O134	O	1.606018	0.151114	-0.424717
C135	C	1.151380	-0.321909	-0.843322
C136	C	1.651380	0.178091	-0.343322
C137	C	1.204736	-0.290181	-0.817722
C138	C	1.704736	0.209819	-0.317722
C139	C	1.311450	-0.226715	-0.821123
C140	C	1.811450	0.273285	-0.321123
C141	C	1.311440	-0.226730	-0.766522
C142	C	1.811440	0.273270	-0.266522
C143	C	1.258079	-0.258470	-0.737521
C144	C	1.758079	0.241530	-0.237521
C145	C	1.204727	-0.290196	-0.763121
C146	C	1.704727	0.209804	-0.263121
C147	C	1.098009	-0.353648	-0.814318
C148	C	1.598009	0.146352	-0.314318
C149	C	1.097999	-0.353656	-0.759710
C150	C	1.597999	0.146344	-0.259710
C151	C	1.151356	-0.321928	-0.734111
C152	C	1.651356	0.178072	-0.234111
C153	C	1.151356	-0.321952	-0.679519
C154	C	1.651356	0.178048	-0.179519
N155	N	1.204704	-0.290222	-0.653917
N156	N	1.704704	0.209778	-0.153917
C157	C	1.258065	-0.258481	-0.682918
C158	C	1.758065	0.241519	-0.182918
C159	C	1.151426	-0.321872	-1.012597
C160	C	1.651426	0.178128	-0.512597
C161	C	1.151443	-0.321864	-1.067200
C162	C	1.651443	0.178136	-0.567200
C163	C	1.258157	-0.258391	-1.070599
C164	C	1.758157	0.241609	-0.570599
C165	C	1.258143	-0.258402	-1.015995
C166	C	1.758143	0.241598	-0.515995
C167	C	1.204773	-0.290142	-0.986995
C168	C	1.704773	0.209858	-0.486995
C169	C	1.258042	-0.258516	-0.568252
C170	C	1.758042	0.241484	-0.068252
C171	C	1.258030	-0.258535	-0.513646
C172	C	1.758030	0.241465	-0.013646
C173	C	1.151314	-0.322006	-0.510252
C174	C	1.651314	0.177994	-0.010252
C175	C	1.151328	-0.321989	-0.564853
C176	C	1.651328	0.178011	-0.064853
C177	C	1.204695	-0.290239	-0.593852
C178	C	1.704695	0.209761	-0.093852
O179	O	1.106017	-0.348945	-0.649793
O180	O	1.606017	0.151055	-0.149793
O181	O	1.303426	-0.231494	-0.656119
O182	O	1.803426	0.268506	-0.156119
C183	C	1.204652	-0.290260	-0.154315
C184	C	1.704652	0.209740	0.345685
C185	C	1.204802	-0.290121	-0.096206
C186	C	1.704802	0.209879	0.403794
H187	H	0.690170	-0.246680	-0.246692
H188	H	1.190170	0.253320	0.253308
O189	O	1.315409	-0.485585	-0.224220
O190	O	1.815409	0.014415	0.275780
H191	H	1.352531	-0.514914	-0.202179
H192	H	1.852531	-0.014914	0.297821
H193	H	1.301384	-0.591415	-0.232615
H194	H	1.801384	-0.091415	0.267385
O195	O	0.731460	-0.343149	-0.342843
O196	O	1.231460	0.156851	0.157157
H197	H	0.771086	-0.370950	-0.320618
H198	H	1.271086	0.129050	0.179382
O199	O	1.368924	-0.738448	-0.192547
O200	O	1.868924	-0.238448	0.307453
H201	H	1.406042	-0.767780	-0.170508
H202	H	1.906042	-0.267780	0.329492
O203	O	1.368977	-0.851934	-0.192553
O204	O	1.868977	-0.351934	0.307447
H205	H	1.406047	-0.824936	-0.170499
H206	H	1.906047	-0.324936	0.329501
O207	O	1.315711	-0.987942	-0.224286
O208	O	1.815711	-0.487942	0.275714
H209	H	1.352826	-1.017272	-0.202243
H210	H	1.852826	-0.517272	0.297757
O211	O	1.315782	-1.101441	-0.224306
O212	O	1.815782	-0.601441	0.275694
H213	H	1.306846	-1.143715	-0.229648
H214	H	1.806846	-0.643715	0.270352
H215	H	1.108053	-1.087679	-0.347744
H216	H	1.608053	-0.587679	0.152256
H217	H	1.108006	-0.988627	-0.347740
H218	H	1.608006	-0.488627	0.152260
O219	O	1.040492	-0.841587	-0.387831
O220	O	1.540492	-0.341587	0.112169
H221	H	1.003393	-0.812254	-0.409880
H222	H	1.503393	-0.312254	0.090120
O223	O	1.040422	-0.728095	-0.387806
O224	O	1.540422	-0.228095	0.112194
H225	H	1.003336	-0.755088	-0.409856
H226	H	1.503336	-0.255088	0.090144
H227	H	1.107775	-0.585333	-0.347690
H228	H	1.607775	-0.085333	0.152310
H229	H	1.107713	-0.486265	-0.347669
H230	H	1.607713	0.013735	0.152331
H231	H	1.301483	-0.232698	-0.492806
H232	H	1.801483	0.267302	0.007194
O233	O	1.315607	-0.224278	-0.599526
O234	O	1.815607	0.275722	-0.099526
H235	H	1.352706	-0.202226	-0.572544
H236	H	1.852706	0.297774	-0.072544
H237	H	1.354887	-0.200892	-0.745684
H238	H	1.854887	0.299108	-0.245684
H239	H	1.354903	-0.200864	-0.844730
H240	H	1.854903	0.299136	-0.344730
O241	O	1.315686	-0.224179	-0.988384
O242	O	1.815686	0.275821	-0.488384
H243	H	1.352788	-0.202106	-1.017729
H244	H	1.852788	0.297894	-0.517729
O245	O	1.040448	-0.387867	-0.841915
O246	O	1.540448	0.112133	-0.341915
H247	H	1.077719	-0.415662	-0.867974
H248	H	1.577719	0.084338	-0.367974
O249	O	1.315699	-0.224144	-1.101882
O250	O	1.815699	0.275856	-0.601882
H251	H	1.306730	-0.229463	-1.144151
H252	H	1.806730	0.270537	-0.644151
O253	O	1.093897	-0.356086	-1.094810
O254	O	1.593897	0.143914	-0.594810
H255	H	1.056788	-0.378155	-1.065465
H256	H	1.556788	0.121845	-0.565465
H257	H	1.107964	-0.347721	-0.988988
H258	H	1.607964	0.152279	-0.488988
H259	H	1.054529	-0.379498	-0.736101
H260	H	1.554529	0.120502	-0.236101
O261	O	1.093783	-0.356209	-0.592470
O262	O	1.593783	0.143791	-0.092470
H263	H	1.056674	-0.378281	-0.563128
H264	H	1.556674	0.121719	-0.063128
O265	O	1.093754	-0.356236	-0.478968
O266	O	1.593754	0.143764	0.021032
H267	H	1.102708	-0.350907	-0.436699
H268	H	1.602708	0.149093	0.063301
