data_functionalizedCrystal
_audit_creation_method	'MofGen! by Chris Wilmer'
_symmetry_space_group_name_H-M	'P1'
_symmetry_Int_Tables_number	1
_symmetry_cell_setting	triclinic
loop_
_symmetry_equiv_pos_as_xyz
  x,y,z
_cell_length_a	17.766277
_cell_length_b	19.288864
_cell_length_c	19.288865
_cell_angle_alpha	96.863755
_cell_angle_beta	89.988397
_cell_angle_gamma	90.023209
loop_
_atom_site_label
_atom_site_type_symbol
_atom_site_fract_x
_atom_site_fract_y
_atom_site_fract_z
O1	O	-0.062844	-0.921353	0.086649
O2	O	0.437156	-0.421353	0.586649
O3	O	-0.062794	-0.719092	0.098337
O4	O	0.437206	-0.219092	0.598337
O5	O	-0.062806	-0.826067	-0.008637
O6	O	0.437194	-0.326067	0.491363
O7	O	-0.062832	-0.814378	0.193623
O8	O	0.437168	-0.314378	0.693623
O9	O	0.062383	-0.826048	-0.008643
O10	O	0.562383	-0.326048	0.491357
O11	O	0.062395	-0.719074	0.098332
O12	O	0.562395	-0.219074	0.598332
O13	O	0.062344	-0.921334	0.086643
O14	O	0.562344	-0.421334	0.586643
Cu15	Cu	0.073800	-0.820202	0.092487
Cu16	Cu	0.573800	-0.320202	0.592487
Cu17	Cu	-0.074250	-0.820224	0.092494
Cu18	Cu	0.425750	-0.320224	0.592494
O19	O	0.062356	-0.814360	0.193618
O20	O	0.562356	-0.314360	0.693618
C21	C	-0.000193	-0.693207	0.097959
C22	C	0.499807	-0.193207	0.597959
C23	C	-0.000173	-0.616103	0.096830
C24	C	0.499827	-0.116103	0.596830
N25	N	0.177931	-0.820192	0.092482
N26	N	0.677931	-0.320192	0.592482
N27	N	-0.178380	-0.820241	0.092493
N28	N	0.321620	-0.320241	0.592493
C29	C	-0.000209	-0.825682	-0.034516
C30	C	0.499791	-0.325682	0.465484
C31	C	-0.000202	-0.824553	-0.111620
C32	C	0.499798	-0.324553	0.388380
C33	C	0.217312	-0.867575	0.045137
C34	C	0.717312	-0.367575	0.545137
C35	C	0.296114	-0.867579	0.045134
C36	C	0.796114	-0.367579	0.545134
C37	C	0.335531	-0.820206	0.092488
C38	C	0.835531	-0.320206	0.592488
C39	C	0.296140	-0.772814	0.139837
C40	C	0.796140	-0.272814	0.639837
C41	C	0.217340	-0.772807	0.139834
C42	C	0.717340	-0.272807	0.639834
C43	C	0.460362	-0.810908	0.155775
C44	C	0.960362	-0.310908	0.655775
C45	C	0.539161	-0.810920	0.155779
C46	C	1.039161	-0.310920	0.655779
C47	C	0.578577	-0.820225	0.092496
C48	C	1.078577	-0.320225	0.592496
C49	C	0.539185	-0.829533	0.029207
C50	C	1.039185	-0.329533	0.529207
C51	C	0.460385	-0.829525	0.029204
C52	C	0.960385	-0.329525	0.529204
C53	C	0.420977	-0.820209	0.092496
C54	C	0.920977	-0.320209	0.592496
C55	C	0.703405	-0.867616	0.045143
C56	C	1.203405	-0.367616	0.545143
C57	C	0.782208	-0.867615	0.045139
C58	C	1.282208	-0.367615	0.545139
C59	C	0.782233	-0.772853	0.139848
C60	C	1.282233	-0.272853	0.639848
C61	C	0.703431	-0.772850	0.139846
C62	C	1.203431	-0.272850	0.639846
C63	C	0.664022	-0.820235	0.092495
C64	C	1.164022	-0.320235	0.592495
C65	C	-0.000258	-0.947220	0.087022
C66	C	0.499742	-0.447220	0.587022
C67	C	-0.000283	-1.024324	0.088151
C68	C	0.499717	-0.524324	0.588151
C69	C	-0.000193	-0.571407	0.159598
C70	C	0.499807	-0.071407	0.659598
C71	C	-0.000201	-0.498960	0.158537
C72	C	0.499799	0.001040	0.658537
C73	C	-0.000205	-0.471212	0.094705
C74	C	0.499795	0.028788	0.594705
C75	C	-0.000180	-0.515918	0.031929
C76	C	0.499820	-0.015918	0.531929
C77	C	-0.000164	-0.588364	0.032991
C78	C	0.499836	-0.088364	0.532991
C79	C	-0.044082	-0.362957	0.044527
C80	C	0.455918	0.137043	0.544527
C81	C	-0.044103	-0.290512	0.043468
C82	C	0.455897	0.209488	0.543468
C83	C	-0.000250	-0.247767	0.091425
C84	C	0.499750	0.252233	0.591425
C85	C	0.043614	-0.277473	0.140454
C86	C	0.543614	0.222527	0.640454
C87	C	0.043630	-0.349918	0.141517
C88	C	0.543630	0.150082	0.641517
C89	C	-0.000221	-0.392658	0.093546
C90	C	0.499779	0.107342	0.593546
C91	C	-0.000278	-0.124514	0.153047
C92	C	0.499722	0.375486	0.653047
C93	C	-0.000281	-0.052066	0.151984
C94	C	0.499719	0.447934	0.651984
C95	C	-0.000267	-0.069026	0.025374
C96	C	0.499733	0.430974	0.525374
C97	C	-0.000256	-0.141473	0.026439
C98	C	0.499744	0.358527	0.526439
C99	C	-0.000265	-0.169212	0.090278
C100	C	0.499735	0.330788	0.590278
C101	C	-0.000214	-0.887321	-0.156316
C102	C	0.499786	-0.387321	0.343684
C103	C	-0.000226	-0.886260	-0.228763
C104	C	0.499774	-0.386260	0.271237
C105	C	-0.000210	-0.822428	-0.256511
C106	C	0.499790	-0.322428	0.243489
C107	C	-0.000203	-0.759652	-0.211805
C108	C	0.499797	-0.259652	0.288195
C109	C	-0.000198	-0.760714	-0.139359
C110	C	0.499802	-0.260714	0.360641
C111	C	0.043653	-0.772242	-0.364800
C112	C	0.543653	-0.272242	0.135200
C113	C	0.043654	-0.771182	-0.437245
C114	C	0.543654	-0.271182	0.062755
C115	C	-0.000226	-0.819148	-0.479956
C116	C	0.499774	-0.319148	0.020044
C117	C	-0.044097	-0.868186	-0.450216
C118	C	0.455903	-0.368186	0.049784
C119	C	-0.044093	-0.869249	-0.377771
C120	C	0.455907	-0.369249	0.122229
C121	C	-0.000215	-0.821269	-0.335065
C122	C	0.499785	-0.321269	0.164935
C123	C	-0.000252	-0.880770	-0.603209
C124	C	0.499748	-0.380770	-0.103209
C125	C	-0.000268	-0.879707	-0.675657
C126	C	0.499732	-0.379707	-0.175657
C127	C	-0.000238	-0.753097	-0.658697
C128	C	0.499762	-0.253097	-0.158697
C129	C	-0.000229	-0.754162	-0.586250
C130	C	0.499771	-0.254162	-0.086250
C131	C	-0.000232	-0.818001	-0.558511
C132	C	0.499768	-0.318001	-0.058511
C133	C	-0.000242	-0.814745	0.219497
C134	C	0.499758	-0.314745	0.719497
C135	C	-0.000254	-0.815874	0.296601
C136	C	0.499746	-0.315874	0.796601
H137	H	0.185228	-0.906158	0.006579
H138	H	0.685228	-0.406158	0.506579
C139	C	-0.000267	-0.038516	-0.044842
C140	C	0.499733	0.461484	0.455158
H141	H	-0.000250	-0.075515	-0.082074
H142	H	0.499750	0.424485	0.417926
H143	H	-0.043926	-0.010629	-0.047889
H144	H	0.456074	0.489371	0.452111
H145	H	0.043391	-0.010587	-0.047888
H146	H	0.543391	0.489413	0.452112
C147	C	0.339443	-0.919705	-0.006947
C148	C	0.839443	-0.419705	0.493053
H149	H	0.304686	-0.947926	-0.035145
H150	H	0.804686	-0.447926	0.464855
H151	H	0.370207	-0.894817	-0.035797
H152	H	0.870207	-0.394817	0.464203
H153	H	0.370158	-0.948539	0.017977
H154	H	0.870158	-0.448539	0.517977
H155	H	-0.000192	-0.707679	-0.234401
H156	H	0.499808	-0.207679	0.265599
H157	H	-0.079797	-0.397755	0.005473
H158	H	0.420203	0.102245	0.505473
H159	H	-0.000202	-0.593987	0.211580
H160	H	0.499798	-0.093987	0.711580
H161	H	0.428276	-0.803318	0.207311
H162	H	0.928276	-0.303318	0.707311
H163	H	0.079371	-0.731249	-0.461453
H164	H	0.579371	-0.231249	0.038547
H165	H	-0.079822	-0.266331	0.003548
H166	H	0.420178	0.233669	0.503548
H167	H	0.814325	-0.734278	0.178402
H168	H	1.314325	-0.234278	0.678402
H169	H	-0.000258	-0.932751	-0.580622
H170	H	0.499742	-0.432751	-0.080622
C171	C	-0.000178	-0.691666	-0.090191
C172	C	0.499822	-0.191666	0.409809
H173	H	-0.000167	-0.653497	-0.117090
H174	H	0.499833	-0.153497	0.382910
H175	H	-0.043829	-0.689456	-0.061564
H176	H	0.456171	-0.189456	0.438436
H177	H	0.043489	-0.689445	-0.061592
H178	H	0.543489	-0.189445	0.438408
C179	C	0.339495	-0.720707	0.191927
C180	C	0.839495	-0.220707	0.691927
H181	H	0.392067	-0.727502	0.185153
H182	H	0.892067	-0.227502	0.685153
H183	H	0.326611	-0.674375	0.184501
H184	H	0.826611	-0.174375	0.684501
H185	H	0.326562	-0.728106	0.238267
H186	H	0.826562	-0.228106	0.738267
C187	C	-0.000246	-0.190641	-0.042607
C188	C	0.499754	0.309359	0.457393
H189	H	-0.000255	-0.163742	-0.080776
H190	H	0.499745	0.336258	0.419224
H191	H	0.043415	-0.219232	-0.044828
H192	H	0.543415	0.280768	0.455172
H193	H	-0.043902	-0.219276	-0.044819
H194	H	0.456098	0.280724	0.455181
C195	C	-0.000188	-0.485399	-0.038285
C196	C	0.499812	0.014601	0.461715
H197	H	-0.000209	-0.435851	-0.029928
H198	H	0.499791	0.064149	0.470072
H199	H	0.043473	-0.500729	-0.064125
H200	H	0.543473	-0.000729	0.435875
H201	H	-0.043844	-0.500782	-0.064116
H202	H	0.456156	-0.000782	0.435884
H203	H	0.079347	-0.374102	0.181436
H204	H	0.579347	0.125898	0.681436
C205	C	0.091850	-0.230462	0.193214
C206	C	0.591850	0.269538	0.693214
H207	H	0.085566	-0.183062	0.185558
H208	H	0.585566	0.316938	0.685558
H209	H	0.076422	-0.236188	0.239342
H210	H	0.576422	0.263812	0.739342
H211	H	0.143324	-0.243125	0.187282
H212	H	0.643324	0.256875	0.687282
H213	H	0.571228	-0.803345	0.207313
H214	H	1.071228	-0.303345	0.707313
H215	H	0.079389	-0.733180	-0.330029
H216	H	0.579389	-0.233180	0.169971
C217	C	-0.000290	-0.948753	-0.724826
C218	C	0.499710	-0.448753	-0.224826
H219	H	-0.000303	-0.938979	-0.771946
H220	H	0.499697	-0.438979	-0.271946
H221	H	0.043361	-0.974932	-0.716453
H222	H	0.543361	-0.474932	-0.216453
H223	H	-0.043956	-0.974942	-0.716423
H224	H	0.456044	-0.474942	-0.216423
H225	H	0.185274	-0.734220	0.178389
H226	H	0.685274	-0.234220	0.678389
H227	H	-0.000229	-0.701123	-0.681288
H228	H	0.499771	-0.201123	-0.181288
H229	H	-0.000216	-0.462561	0.209652
H230	H	0.499784	0.037439	0.709652
H231	H	-0.000148	-0.624756	-0.018124
H232	H	0.499852	-0.124756	0.481876
H233	H	-0.079815	-0.909176	-0.353560
H234	H	0.420185	-0.409176	0.146440
H235	H	0.428315	-0.837102	-0.022328
H236	H	0.928315	-0.337102	0.477672
H237	H	0.814274	-0.906198	0.006581
H238	H	1.314274	-0.406198	0.506581
H239	H	-0.000274	-0.147101	0.205028
H240	H	0.499726	0.352899	0.705028
H241	H	-0.000220	-0.939303	-0.133736
H242	H	0.499780	-0.439303	0.366264
C243	C	0.582532	-0.839763	-0.040408
C244	C	1.082532	-0.339763	0.459592
H245	H	0.635105	-0.838426	-0.031346
H246	H	1.135105	-0.338426	0.468654
H247	H	0.569605	-0.883645	-0.065293
H248	H	1.069605	-0.383645	0.434707
H249	H	0.569640	-0.803518	-0.067530
H250	H	1.069640	-0.303518	0.432470
H251	H	-0.079829	-0.907245	-0.484991
H252	H	0.420171	-0.407245	0.015009
C253	C	-0.000233	-0.955307	-0.277938
C254	C	0.499767	-0.455307	0.222062
H255	H	-0.000230	-0.993478	-0.251041
H256	H	0.499770	-0.493478	0.248959
H257	H	-0.043889	-0.957535	-0.306545
H258	H	0.456111	-0.457535	0.193455
H259	H	0.043429	-0.957509	-0.306557
H260	H	0.543429	-0.457509	0.193443
H261	H	-0.000215	-0.703049	-0.549857
H262	H	0.499785	-0.203049	-0.049857
H263	H	0.671317	-0.906198	0.006585
H264	H	1.171317	-0.406198	0.506585
H265	H	0.671364	-0.734269	0.178402
H266	H	1.171364	-0.234269	0.678402
C267	C	-0.000304	-0.002900	0.221032
C268	C	0.499696	0.497100	0.721032
H269	H	-0.000313	-0.029799	0.259201
H270	H	0.499687	0.470201	0.759201
H271	H	0.043347	0.025738	0.223253
H272	H	0.543347	0.525738	0.723253
H273	H	-0.043971	0.025690	0.223246
H274	H	0.456029	0.525690	0.723246
