data_functionalizedCrystal
_audit_creation_method	'MofGen! by Chris Wilmer'
_symmetry_space_group_name_H-M	'P1'
_symmetry_Int_Tables_number	1
_symmetry_cell_setting	triclinic
loop_
_symmetry_equiv_pos_as_xyz
  x,y,z
_cell_length_a	17.019383
_cell_length_b	17.038274
_cell_length_c	13.448316
_cell_angle_alpha	90.014482
_cell_angle_beta	86.117264
_cell_angle_gamma	92.753530
loop_
_atom_site_label
_atom_site_type_symbol
_atom_site_fract_x
_atom_site_fract_y
_atom_site_fract_z
O1	O	1.053360	-0.099663	-0.172821
O2	O	0.824548	-0.112351	-0.153252
O3	O	0.937594	0.007808	-0.162893
O4	O	0.940314	-0.219821	-0.163180
O5	O	0.937578	0.007815	0.002493
O6	O	0.824533	-0.112343	0.012134
O7	O	1.053344	-0.099655	-0.007436
Cu8	Cu	0.938937	-0.105999	0.017450
Cu9	Cu	0.938955	-0.106007	-0.178137
O10	O	0.940298	-0.219814	0.002205
C11	C	0.795119	-0.111864	-0.068042
C12	C	0.707453	-0.110414	-0.060543
C13	C	0.666268	-0.109739	-0.147164
C14	C	0.583895	-0.108390	-0.140103
C15	C	0.542709	-0.107710	-0.046420
C16	C	0.583899	-0.108388	0.040207
C17	C	0.666270	-0.109742	0.033145
C18	C	0.294001	-0.103624	-0.020588
C19	C	0.211624	-0.102267	-0.013532
C20	C	0.211626	-0.102271	-0.193843
C21	C	0.293999	-0.103621	-0.200897
C22	C	0.335182	-0.104302	-0.114270
C23	C	0.458510	-0.106328	-0.039201
C24	C	0.419378	-0.105690	-0.121490
C25	C	0.935112	0.036938	-0.079983
C26	C	0.927732	0.123724	-0.079338
C27	C	0.995491	0.173893	-0.085124
C28	C	0.988552	0.255438	-0.084526
C29	C	0.913852	0.286813	-0.078134
C30	C	0.846088	0.236638	-0.072350
C31	C	0.853028	0.155095	-0.072956
C32	C	0.889334	0.532551	-0.076008
C33	C	0.882399	0.614101	-0.075400
C34	C	1.024864	0.632895	-0.087577
C35	C	1.031798	0.551349	-0.088176
C36	C	0.964033	0.501182	-0.082398
C37	C	0.906757	0.370165	-0.077519
C38	C	0.971129	0.417832	-0.083020
C39	C	1.082773	-0.100142	-0.092648
C40	C	1.170440	-0.101592	-0.100153
C41	C	0.942780	0.751056	-0.080663
C42	C	0.950158	0.664269	-0.081186
N43	N	0.938930	-0.105992	0.155015
N44	N	0.938969	-0.106008	-0.315703
C45	C	0.989004	-0.052808	0.202784
C46	C	0.989009	-0.052807	0.306887
C47	C	0.938943	-0.105995	0.363218
C48	C	0.888863	-0.159182	0.315442
C49	C	0.888854	-0.159178	0.211341
C50	C	0.888885	-0.159187	0.532420
C51	C	0.888894	-0.159192	0.636527
C52	C	0.989040	-0.052816	0.627966
C53	C	0.989031	-0.052812	0.523865
C54	C	0.938952	-0.106000	0.476096
H55	H	0.178091	-0.101735	0.062759
N56	N	1.051694	0.383993	-0.089902
H57	H	1.093572	0.428146	-0.093472
H58	H	1.057685	0.350563	-0.151728
H59	H	0.848077	-0.202485	0.172448
H60	H	0.834155	0.491714	-0.071302
N61	N	0.765516	0.270471	-0.065449
H62	H	0.735588	0.252166	-0.124200
H63	H	0.771464	0.329735	-0.065906
N64	N	0.801827	0.647944	-0.068516
H65	H	0.795764	0.681360	-0.006682
H66	H	0.760000	0.603747	-0.064991
N67	N	0.167205	-0.101550	-0.287270
H68	H	0.205796	-0.102188	-0.347688
H69	H	0.136167	-0.052548	-0.288529
H70	H	1.029783	-0.009500	0.345781
N71	N	1.043070	0.004542	0.679474
H72	H	1.030284	0.060032	0.662474
H73	H	1.099624	-0.004527	0.656460
H74	H	0.797850	0.114247	-0.068244
H75	H	0.452915	-0.106248	-0.197766
H76	H	0.699796	-0.110290	-0.223451
H77	H	1.080034	0.673750	-0.092284
H78	H	0.424967	-0.105772	0.037076
N79	N	1.043001	0.004574	0.142048
H80	H	1.010530	0.039176	0.101662
H81	H	1.079923	-0.025326	0.095729
N82	N	1.076061	0.140056	-0.092008
H83	H	1.117933	0.184214	-0.095585
H84	H	1.082051	0.106625	-0.153834
H85	H	1.092626	0.525811	-0.093381
N86	N	0.834868	-0.216549	0.480894
H87	H	0.803154	-0.250246	0.532373
H88	H	0.867380	-0.251095	0.434897
N89	N	0.834867	-0.216554	0.376196
H90	H	0.803143	-0.250245	0.330134
H91	H	0.797994	-0.186643	0.422568
N92	N	1.043027	0.004553	0.463103
H93	H	1.079948	-0.025307	0.416731
H94	H	1.074700	0.038236	0.509224
N95	N	0.338416	-0.104369	-0.301942
H96	H	0.396847	-0.105330	-0.293271
H97	H	0.327159	-0.055695	-0.340339
H98	H	0.845936	0.395719	-0.072313
N99	N	0.834901	-0.216555	0.697300
H100	H	0.847700	-0.272039	0.678065
H101	H	0.778333	-0.207509	0.684035
N102	N	0.539474	-0.107656	-0.233529
H103	H	0.578065	-0.108284	-0.293948
H104	H	0.508438	-0.058651	-0.234773
H105	H	0.327522	-0.104174	0.049951
H106	H	0.550358	-0.107839	0.116486
H107	H	0.699801	-0.110295	0.103682
N108	N	1.061635	0.309549	-0.090761
H109	H	1.110010	0.277300	-0.094893
H110	H	1.061845	0.343797	-0.029463
