data_functionalizedCrystal
_audit_creation_method	'MofGen! by Chris Wilmer'
_symmetry_space_group_name_H-M	'P1'
_symmetry_Int_Tables_number	1
_symmetry_cell_setting	triclinic
loop_
_symmetry_equiv_pos_as_xyz
  x,y,z
_cell_length_a	10.686285
_cell_length_b	12.759401
_cell_length_c	10.685314
_cell_angle_alpha	85.648661
_cell_angle_beta	90.303498
_cell_angle_gamma	94.370041
loop_
_atom_site_label
_atom_site_type_symbol
_atom_site_fract_x
_atom_site_fract_y
_atom_site_fract_z
Zn1	Zn	-0.553750	-1.598850	-0.671022
Zn2	Zn	-0.747492	-1.625557	-0.445195
Zn3	Zn	-0.537738	-1.435517	-0.461272
Zn4	Zn	-0.763456	-1.437587	-0.654917
O5	O	-0.650609	-1.524378	-0.558101
O6	O	-0.579470	-1.749414	-0.641076
O7	O	-0.706286	-1.610659	-0.271777
O8	O	-0.364317	-1.445141	-0.502564
O9	O	-0.721812	-1.769036	-0.475162
O10	O	-0.376081	-1.565141	-0.656666
O11	O	-0.552181	-1.471037	-0.283589
O12	O	-0.567660	-1.288770	-0.486949
O13	O	-0.749020	-1.448668	-0.832604
O14	O	-0.733494	-1.290290	-0.629218
O15	O	-0.594950	-1.567147	-0.844436
O16	O	-0.925155	-1.612665	-0.459546
O17	O	-0.936884	-1.474564	-0.613628
C18	C	-0.650573	-1.251409	-0.558081
C19	C	-0.650590	-1.134633	-0.558100
C20	C	-0.576625	-1.069557	-0.644603
C21	C	-0.576633	-0.959833	-0.644609
C22	C	-0.724582	-0.980271	-0.471604
C23	C	-0.724567	-1.089993	-0.471593
C24	C	-0.432215	-0.797071	-0.701023
C25	C	-0.358262	-0.731992	-0.787545
C26	C	-0.348522	-0.759116	-0.911442
C27	C	-0.412756	-0.851318	-0.948840
C28	C	-0.486718	-0.916392	-0.862324
C29	C	-0.496433	-0.889269	-0.738412
C30	C	-0.868988	-1.252756	-0.415192
C31	C	-0.942958	-1.317832	-0.328681
C32	C	-0.952710	-1.290711	-0.204781
C33	C	-0.888499	-1.198507	-0.167385
C34	C	-0.814529	-1.133431	-0.253897
C35	C	-0.804775	-1.160559	-0.377795
C36	C	-0.976538	-1.546764	-0.533123
C37	C	-1.115975	-1.556434	-0.522478
C38	C	-0.323409	-1.501931	-0.583205
C39	C	-0.183976	-1.492366	-0.593903
C40	C	-0.675552	-1.505159	-0.885311
C41	C	-0.686181	-1.496969	-1.024748
C42	C	-0.650634	-0.798411	-0.558119
C43	C	-0.650614	-0.915187	-0.558116
C44	C	-0.625673	-1.543576	-0.232172
C45	C	-0.614690	-1.551945	-0.092763
H46	H	-0.539009	-0.991464	-0.892771
O47	O	-0.403257	-0.877843	-1.069123
C48	C	-0.352352	-0.976557	-1.069647
H49	H	-0.369805	-1.022358	-0.974770
H50	H	-0.247062	-0.964243	-1.087962
C51	C	-0.393963	-0.982901	-1.290172
C52	C	-0.415409	-1.039158	-1.173646
H53	H	-0.432855	-1.021515	-1.354327
H54	H	-0.428255	-0.916393	-1.289821
H55	H	-0.306220	-0.972642	-1.305417
H56	H	-0.503150	-1.049404	-1.158396
H57	H	-0.381134	-1.105669	-1.173997
H58	H	-0.516384	-1.105899	-0.715039
H59	H	-1.135523	-1.430116	-0.663198
O60	O	-1.173624	-1.630846	-0.439872
C61	C	-1.143688	-1.731716	-0.469864
H62	H	-1.052184	-1.724479	-0.525294
H63	H	-1.222275	-1.768323	-0.528829
C64	C	-1.240820	-1.811113	-0.280013
C65	C	-1.128428	-1.802226	-0.348085
H66	H	-1.231413	-1.854610	-0.204896
H67	H	-1.260993	-1.743156	-0.259809
H68	H	-1.306298	-1.841615	-0.329165
H69	H	-1.062957	-1.771712	-0.298939
H70	H	-1.108244	-1.870180	-0.368279
H71	H	-0.545341	-1.605266	-1.044321
H72	H	-0.755522	-1.443632	-1.073197
H73	H	-0.305963	-0.656921	-0.757084
O74	O	-0.276778	-0.695744	-0.995417
C75	C	-0.322667	-0.594755	-1.007499
H76	H	-0.377895	-0.581911	-0.919685
H77	H	-0.386650	-0.588339	-1.093013
C78	C	-0.143927	-0.526232	-1.131657
C79	C	-0.211751	-0.510454	-1.023798
H80	H	-0.075511	-0.474230	-1.141717
H81	H	-0.113012	-0.594271	-1.123523
H82	H	-0.197260	-0.520887	-1.202908
H83	H	-0.158423	-0.515812	-0.952549
H84	H	-0.242655	-0.442413	-1.031921
O85	O	-0.796628	-0.937028	-0.387633
C86	C	-0.923772	-0.970829	-0.405279
H87	H	-0.930108	-1.047855	-0.453283
H88	H	-0.971044	-0.908217	-0.466471
C89	C	-0.982457	-0.893679	-0.218090
C90	C	-0.990239	-0.988288	-0.277039
H91	H	-1.023460	-0.904444	-0.138987
H92	H	-0.896799	-0.870902	-0.206203
H93	H	-1.021849	-0.841511	-0.269096
H94	H	-0.950833	-1.040449	-0.226041
H95	H	-1.075892	-1.011074	-0.288914
H96	H	-0.440123	-0.774985	-0.600134
H97	H	-0.896446	-1.176421	-0.066498
O98	O	-0.752187	-1.043925	-0.217351
C99	C	-0.776680	-1.033920	-0.089450
H100	H	-0.806128	-1.114806	-0.041403
H101	H	-0.855393	-0.979396	-0.080843
C102	C	-0.621159	-0.888036	-0.085282
C103	C	-0.657317	-0.987383	-0.026267
H104	H	-0.547533	-0.859326	-0.046307
H105	H	-0.604660	-0.894773	-0.171453
H106	H	-0.686763	-0.842612	-0.078105
H107	H	-0.591720	-1.032809	-0.033459
H108	H	-0.673802	-0.980653	0.059904
H109	H	-1.012980	-1.343689	-0.134355
O110	O	-0.859550	-1.278932	-0.535626
C111	C	-0.903936	-1.198349	-0.617909
H112	H	-0.897714	-1.121280	-0.569998
H113	H	-1.005769	-1.220287	-0.643554
C114	C	-0.830911	-1.279454	-0.796715
C115	C	-0.823258	-1.184795	-0.737872
H116	H	-0.781149	-1.271095	-0.870717
H117	H	-0.801011	-1.333747	-0.741280
H118	H	-0.915774	-1.297726	-0.818074
H119	H	-0.738398	-1.166532	-0.716500
H120	H	-0.853142	-1.130498	-0.793306
H121	H	-0.995225	-1.392919	-0.359133
