data_functionalizedCrystal
_audit_creation_method	'MofGen! by Chris Wilmer'
_symmetry_space_group_name_H-M	'P1'
_symmetry_Int_Tables_number	1
_symmetry_cell_setting	triclinic
loop_
_symmetry_equiv_pos_as_xyz
  x,y,z
_cell_length_a	14.044190
_cell_length_b	9.065215
_cell_length_c	8.140239
_cell_angle_alpha	89.997810
_cell_angle_beta	89.991557
_cell_angle_gamma	89.103237
loop_
_atom_site_label
_atom_site_type_symbol
_atom_site_fract_x
_atom_site_fract_y
_atom_site_fract_z
O1	O	0.139128	1.975824	-0.136616
O2	O	0.150544	1.547804	-0.136625
O3	O	0.006796	1.755384	-0.136588
O4	O	0.282876	1.768244	-0.136653
O5	O	0.006794	1.755372	0.136639
O6	O	0.150542	1.547792	0.136602
O7	O	0.139126	1.975812	0.136611
Zn8	Zn	0.144834	1.761800	0.179987
Zn9	Zn	0.144836	1.761816	-0.180001
O10	O	0.282874	1.768232	0.136574
C11	C	-0.028568	1.749752	0.000030
C12	C	-0.133938	1.732971	0.000044
C13	C	0.149446	1.492690	-0.000012
C14	C	0.146168	1.328483	-0.000014
C15	C	-0.383466	1.821307	-0.000019
C16	C	-0.326858	1.702315	-0.000010
C17	C	-0.219507	1.719376	0.000020
C18	C	-0.490827	1.804249	-0.000048
C19	C	0.318238	1.773864	-0.000048
C20	C	0.423608	1.790645	-0.000072
N21	N	0.144832	1.761799	0.425670
C22	C	0.140224	2.030926	-0.000005
C23	C	0.143502	2.195133	-0.000014
N24	N	0.144831	1.761828	-0.425684
H25	H	-0.359017	1.587630	-0.000022
N26	N	-0.340878	1.973215	0.000031
H27	H	-0.269115	1.964021	0.000062
H28	H	-0.362583	2.028585	0.101331
