data_functionalizedCrystal
_audit_creation_method	'MofGen! by Chris Wilmer'
_symmetry_space_group_name_H-M	'P1'
_symmetry_Int_Tables_number	1
_symmetry_cell_setting	triclinic
loop_
_symmetry_equiv_pos_as_xyz
  x,y,z
_cell_length_a	16.959453
_cell_length_b	25.639242
_cell_length_c	16.959447
_cell_angle_alpha	90.025646
_cell_angle_beta	89.968904
_cell_angle_gamma	89.980153
loop_
_atom_site_label
_atom_site_type_symbol
_atom_site_fract_x
_atom_site_fract_y
_atom_site_fract_z
Zn1	Zn	-0.314771	-0.799286	-0.447143
Zn2	Zn	0.185229	-0.299286	0.052857
Zn3	Zn	-0.446963	-0.799228	-0.314963
Zn4	Zn	0.053037	-0.299228	0.185037
Zn5	Zn	-0.314791	-0.711859	-0.314955
Zn6	Zn	0.185209	-0.211859	0.185045
Zn7	Zn	-0.446900	-0.711829	-0.447075
Zn8	Zn	0.053100	-0.211829	0.052925
O9	O	-0.380856	-0.755550	-0.381034
O10	O	0.119144	-0.255550	0.118966
O11	O	-0.332324	-0.872443	-0.429641
O12	O	0.167676	-0.372443	0.070359
O13	O	-0.429465	-0.787626	-0.204351
O14	O	0.070535	-0.287626	0.295649
O15	O	-0.204178	-0.723494	-0.332515
O16	O	0.295822	-0.223494	0.167485
O17	O	-0.429446	-0.872401	-0.332529
O18	O	0.070554	-0.372401	0.167471
O19	O	-0.204163	-0.787726	-0.429633
O20	O	0.295837	-0.287726	0.070367
O21	O	-0.332359	-0.723437	-0.204345
O22	O	0.167641	-0.223437	0.295655
O23	O	-0.332298	-0.638690	-0.332449
O24	O	0.167702	-0.138690	0.167551
O25	O	-0.429337	-0.723442	-0.557695
O26	O	0.070663	-0.223442	-0.057695
O27	O	-0.429357	-0.638667	-0.429517
O28	O	0.070643	-0.138667	0.070483
O29	O	-0.332263	-0.787696	-0.557745
O30	O	0.167737	-0.287696	-0.057745
O31	O	-0.557566	-0.787597	-0.332463
O32	O	-0.057566	-0.287597	0.167537
O33	O	-0.557519	-0.723385	-0.429525
O34	O	-0.057519	-0.223385	0.070475
C35	C	-0.380823	-0.619708	-0.380975
C36	C	0.119177	-0.119708	0.119025
C37	C	-0.380828	-0.561594	-0.380969
C38	C	0.119172	-0.061594	0.119031
C39	C	-0.586223	-0.755495	-0.381005
C40	C	-0.086223	-0.255495	0.118995
C41	C	-0.674079	-0.755520	-0.381019
C42	C	-0.174079	-0.255520	0.118981
C43	C	-0.715358	-0.722071	-0.431519
C44	C	-0.215358	-0.222071	0.068481
C45	C	-0.715354	-0.788994	-0.330536
C46	C	-0.215354	-0.288994	0.169464
C47	C	-0.797900	-0.789020	-0.330551
C48	C	-0.297900	-0.289020	0.169449
C49	C	-0.839178	-0.755572	-0.381051
C50	C	-0.339178	-0.255572	0.118949
C51	C	-0.797911	-0.722097	-0.431537
C52	C	-0.297911	-0.222097	0.068463
C53	C	-0.839173	-0.822498	-0.280071
C54	C	-0.339173	-0.322498	0.219929
C55	C	-0.921724	-0.822525	-0.280084
C56	C	-0.421724	-0.322525	0.219916
C57	C	-0.963004	-0.789074	-0.330581
C58	C	-0.463004	-0.289074	0.169419
C59	C	-0.921732	-0.755598	-0.381068
C60	C	-0.421732	-0.255598	0.118932
C61	C	-0.963011	-0.722149	-0.431569
C62	C	-0.463011	-0.222149	0.068431
C63	C	-0.921740	-0.688670	-0.482052
C64	C	-0.421740	-0.188670	0.017948
C65	C	-0.839192	-0.688646	-0.482034
C66	C	-0.339192	-0.188646	0.017966
C67	C	-1.045553	-0.789098	-0.330600
C68	C	-0.545553	-0.289098	0.169400
C69	C	-1.045564	-0.722175	-0.431586
C70	C	-0.545564	-0.222175	0.068414
C71	C	-0.431472	-0.201228	-0.431509
C72	C	0.068528	0.298772	0.068491
C73	C	-0.431476	-0.146624	-0.431519
C74	C	0.068524	0.353376	0.068481
O75	O	-0.474501	-0.118384	-0.474455
O76	O	0.025499	0.381616	0.025545
N77	N	-0.380870	-0.119311	-0.381062
N78	N	0.119130	0.380689	0.118938
C79	C	-0.330250	-0.146606	-0.330596
C80	C	0.169750	0.353394	0.169404
O81	O	-0.287204	-0.118361	-0.287679
O82	O	0.212796	0.381639	0.212321
C83	C	-0.330242	-0.201209	-0.330590
C84	C	0.169758	0.298791	0.169410
C85	C	-0.380858	-0.228519	-0.381045
C86	C	0.119142	0.271481	0.118955
C87	C	-0.482083	-0.228537	-0.481961
C88	C	0.017917	0.271463	0.018039
C89	C	-0.482080	-0.283138	-0.481949
C90	C	0.017920	0.216862	0.018051
C91	C	-0.431466	-0.310429	-0.431485
C92	C	0.068534	0.189571	0.068515
C93	C	-0.380855	-0.283119	-0.381034
C94	C	0.119145	0.216881	0.118966
C95	C	-0.279619	-0.228503	-0.280129
C96	C	0.220381	0.271497	0.219871
C97	C	-0.279615	-0.283110	-0.280128
C98	C	0.220385	0.216890	0.219872
C99	C	-0.330231	-0.310420	-0.330583
C100	C	0.169769	0.189580	0.169417
C101	C	-0.330237	-0.365011	-0.330559
C102	C	0.169763	0.134989	0.169441
N103	N	-0.380844	-0.392323	-0.381016
N104	N	0.119156	0.107677	0.118984
C105	C	-0.431458	-0.365032	-0.431480
C106	C	0.068542	0.134968	0.068520
C107	C	-0.330268	-0.031936	-0.330613
C108	C	0.169732	0.468064	0.169387
C109	C	-0.330279	0.022667	-0.330614
C110	C	0.169721	0.522667	0.169386
C111	C	-0.431505	0.022646	-0.431539
C112	C	0.068495	0.522646	0.068461
C113	C	-0.431498	-0.031958	-0.431533
C114	C	0.068502	0.468042	0.068467
C115	C	-0.380875	-0.059248	-0.381071
C116	C	0.119125	0.440752	0.118929
C117	C	-0.431448	-0.479697	-0.431451
C118	C	0.068552	0.020303	0.068549
C119	C	-0.431443	-0.534303	-0.431432
C120	C	0.068557	-0.034303	0.068568
C121	C	-0.330214	-0.534277	-0.330511
C122	C	0.169786	-0.034277	0.169489
C123	C	-0.330222	-0.479676	-0.330526
C124	C	0.169778	0.020324	0.169474
C125	C	-0.380842	-0.452388	-0.381003
C126	C	0.119158	0.047612	0.118997
O127	O	-0.287232	-0.393285	-0.287647
O128	O	0.212768	0.106715	0.212353
O129	O	-0.474489	-0.393284	-0.474396
O130	O	0.025511	0.106716	0.025604
C131	C	-0.174688	-0.755620	-0.381081
C132	C	0.325312	-0.255620	0.118919
C133	C	-0.086831	-0.755650	-0.381100
C134	C	0.413169	-0.255650	0.118900
C135	C	-0.380791	-0.755572	-0.587202
C136	C	0.119209	-0.255572	-0.087202
C137	C	-0.380763	-0.755581	-0.675059
C138	C	0.119237	-0.255581	-0.175059
C139	C	-0.380887	0.108077	-0.381084
C140	C	0.119113	0.608077	0.118916
C141	C	-0.380891	0.049963	-0.381081
C142	C	0.119109	0.549963	0.118919
C143	C	-0.431222	-0.722189	-1.046511
C144	C	0.068778	-0.222189	-0.546511
C145	C	-0.330137	-0.789098	-1.046558
C146	C	0.169863	-0.289098	-0.546558
C147	C	-0.330154	-0.789084	-0.964012
C148	C	0.169846	-0.289084	-0.464012
C149	C	-0.380706	-0.755623	-0.922712
C150	C	0.119294	-0.255623	-0.422712
C151	C	-0.431242	-0.722176	-0.963958
C152	C	0.068758	-0.222176	-0.463958
C153	C	-0.279625	-0.822535	-0.922761
C154	C	0.220375	-0.322535	-0.422761
C155	C	-0.279641	-0.822523	-0.840210
C156	C	0.220359	-0.322523	-0.340210
C157	C	-0.330189	-0.789058	-0.798908
C158	C	0.169811	-0.289058	-0.298908
C159	C	-0.380726	-0.755609	-0.840158
C160	C	0.119274	-0.255609	-0.340158
C161	C	-0.431278	-0.722148	-0.798858
C162	C	0.068722	-0.222148	-0.298858
C163	C	-0.481812	-0.688696	-0.840107
C164	C	0.018188	-0.188696	-0.340107
C165	C	-0.481791	-0.688711	-0.922656
C166	C	0.018209	-0.188711	-0.422656
C167	C	-0.330211	-0.789043	-0.716359
C168	C	0.169789	-0.289043	-0.216359
C169	C	-0.431298	-0.722134	-0.716305
C170	C	0.068702	-0.222134	-0.216305
C171	C	-0.380864	-0.755559	-0.175668
C172	C	0.119136	-0.255559	0.324332
C173	C	-0.380670	-0.755651	-0.087812
C174	C	0.119330	-0.255651	0.412188
H175	H	-0.955360	-0.661439	-0.523173
H176	H	-0.455360	-0.161439	-0.023173
H177	H	-0.522935	-0.661478	-0.956248
H178	H	-0.022935	-0.161478	-0.456248
O179	O	-0.225110	-0.858625	-0.967308
O180	O	0.274890	-0.358625	-0.467308
H181	H	-0.189982	-0.881888	-0.924759
H182	H	0.310018	-0.381888	-0.424759
H183	H	-0.472663	-0.556536	-0.472520
H184	H	0.027337	-0.056536	0.027480
O185	O	-0.275718	-0.825124	-0.671873
O186	O	0.224282	-0.325124	-0.171873
H187	H	-0.284227	-0.819496	-0.607533
H188	H	0.215773	-0.319496	-0.107533
O189	O	-0.966227	-0.858633	-0.225631
O190	O	-0.466227	-0.358633	0.274369
H191	H	-1.003772	-0.885232	-0.261062
H192	H	-0.503772	-0.385232	0.238938
H193	H	-0.805561	-0.849733	-0.238959
H194	H	-0.305561	-0.349733	0.261041
H195	H	-0.681742	-0.816230	-0.289424
H196	H	-0.181742	-0.316230	0.210576
H197	H	-0.289071	0.044898	-0.289521
H198	H	0.210929	0.544898	0.210479
H199	H	-0.472363	-0.694952	-1.080100
H200	H	0.027637	-0.194952	-0.580100
H201	H	-0.805584	-0.661389	-0.523136
H202	H	-0.305584	-0.161389	-0.023136
O203	O	-0.536325	-0.652597	-0.795561
O204	O	-0.036325	-0.152597	-0.295561
H205	H	-0.598364	-0.661539	-0.811380
H206	H	-0.098364	-0.161539	-0.311380
H207	H	-0.238404	-0.206277	-0.239041
H208	H	0.261596	0.293723	0.260959
H209	H	-0.523300	-0.206323	-0.523058
H210	H	-0.023300	0.293677	-0.023058
O211	O	-0.275623	-0.563715	-0.276083
O212	O	0.224377	-0.063715	0.223917
H213	H	-0.235450	-0.588609	-0.311535
H214	H	0.264550	-0.088609	0.188465
O215	O	-0.225139	-0.858602	-0.795725
O216	O	0.274861	-0.358602	-0.295725
H217	H	-0.184928	-0.835209	-0.758118
H218	H	0.315072	-0.335209	-0.258118
H219	H	-0.681753	-0.694811	-0.472620
H220	H	-0.181753	-0.194811	0.027380
O221	O	-0.486081	-0.061412	-0.485959
O222	O	0.013919	0.438588	0.014041
H223	H	-0.521271	-0.033256	-0.521051
H224	H	-0.021271	0.466744	-0.021051
O225	O	-1.090069	-0.825201	-0.276156
O226	O	-0.590069	-0.325201	0.223844
H227	H	-1.047497	-0.848454	-0.241036
H228	H	-0.547497	-0.348454	0.258964
O229	O	-0.275685	-0.061370	-0.276163
O230	O	0.224315	0.438630	0.223837
H231	H	-0.240509	-0.033200	-0.241073
H232	H	0.259491	0.466800	0.258927
H233	H	-0.472666	-0.457486	-0.472555
H234	H	0.027334	0.042514	0.027445
H235	H	-0.523295	-0.305368	-0.523036
H236	H	-0.023295	0.194632	-0.023036
H237	H	-0.472716	0.044876	-0.472631
H238	H	0.027284	0.544876	0.027369
O239	O	-0.225012	-0.312542	-0.225696
O240	O	0.274988	0.187458	0.274304
H241	H	-0.233503	-0.355100	-0.234166
H242	H	0.266497	0.144900	0.265834
H243	H	-0.472458	-0.694881	-0.682684
H244	H	0.027542	-0.194881	-0.182684
O245	O	-0.275634	-0.450216	-0.276107
O246	O	0.224366	0.049784	0.223893
H247	H	-0.240436	-0.478369	-0.241018
H248	H	0.259564	0.021631	0.258982
H249	H	-0.288984	-0.816344	-1.080190
H250	H	0.211016	-0.316344	-0.580190
H251	H	-1.079168	-0.694937	-0.472710
H252	H	-0.579168	-0.194937	0.027290
