data_functionalizedCrystal
_audit_creation_method	'MofGen! by Chris Wilmer'
_symmetry_space_group_name_H-M	'P1'
_symmetry_Int_Tables_number	1
_symmetry_cell_setting	triclinic
loop_
_symmetry_equiv_pos_as_xyz
  x,y,z
_cell_length_a	23.532407
_cell_length_b	8.140239
_cell_length_c	9.065218
_cell_angle_alpha	90.001686
_cell_angle_beta	96.067719
_cell_angle_gamma	90.002624
loop_
_atom_site_label
_atom_site_type_symbol
_atom_site_fract_x
_atom_site_fract_y
_atom_site_fract_z
O1	O	0.756573	-0.136402	-0.179072
O2	O	0.590900	-0.136449	-0.204983
O3	O	0.677161	-0.136422	0.022784
O4	O	0.670312	-0.136430	-0.406838
O5	O	0.677156	0.136806	0.022786
O6	O	0.590895	0.136778	-0.204980
O7	O	0.756568	0.136825	-0.179069
Zn8	Zn	0.673731	0.180182	-0.192024
Zn9	Zn	0.673737	-0.179807	-0.192028
O10	O	0.670307	0.136797	-0.406836
C11	C	0.569676	0.000158	-0.204321
C12	C	0.506445	0.000140	-0.202338
N13	N	0.673731	0.425865	-0.192021
N14	N	0.673742	-0.425489	-0.192019
C15	C	0.108240	0.000212	-0.324683
C16	C	0.048826	0.000222	-0.322840
O17	O	0.012914	0.000279	-0.436255
N18	N	0.025206	0.000222	-0.187433
C19	C	0.061003	0.000228	-0.053860
O20	O	0.035456	0.000231	0.061484
C21	C	0.120415	0.000230	-0.055704
C22	C	0.144032	0.000213	-0.191120
C23	C	0.131857	0.000197	-0.460088
C24	C	0.191267	0.000184	-0.461930
C25	C	0.227059	0.000185	-0.328367
C26	C	0.203442	0.000200	-0.192962
C27	C	0.156211	0.000248	0.077867
C28	C	0.215627	0.000251	0.076011
C29	C	0.239244	0.000235	-0.059405
C30	C	0.298644	0.000189	-0.061242
N31	N	0.322264	0.000189	-0.196649
C32	C	0.286472	0.000187	-0.330211
C33	C	-0.063768	0.000228	-0.049997
C34	C	-0.123180	0.000214	-0.048151
C35	C	-0.135352	0.000211	-0.317131
C36	C	-0.075939	0.000212	-0.318976
C37	C	-0.040148	0.000228	-0.185404
C38	C	0.411237	0.000158	-0.334070
C39	C	0.470653	0.000138	-0.335900
C40	C	0.482820	0.000150	-0.066921
C41	C	0.423410	0.000162	-0.065089
C42	C	0.387619	0.000171	-0.198676
O43	O	0.334591	0.000138	0.052114
O44	O	0.312027	0.000206	-0.445536
C45	C	0.777791	0.000214	-0.179731
C46	C	0.841023	0.000221	-0.181714
C47	C	0.676500	0.000189	0.077739
C48	C	0.674532	0.000181	0.241485
C49	C	0.670968	0.000183	-0.461791
C50	C	0.672936	0.000180	-0.625537
H51	H	0.489878	0.000123	-0.446177
H52	H	-0.164505	0.000217	-0.425885
H53	H	0.404180	0.000151	0.045177
N54	N	-0.050466	0.000217	-0.465025
H55	H	-0.026088	-0.101066	-0.471792
H56	H	-0.082191	0.000275	-0.549267
H57	H	0.136993	0.000263	0.188137
H58	H	0.244767	0.000265	0.184784
H59	H	0.382103	0.000171	-0.442849
N60	N	0.216727	0.000191	-0.607997
H61	H	0.241106	0.101477	-0.614765
H62	H	0.241074	-0.101161	-0.614698
N63	N	0.521430	0.000153	0.077131
H64	H	0.562650	0.000152	0.055404
H65	H	0.513707	0.101452	0.136173
N66	N	0.093258	0.000288	-0.604157
H67	H	0.117244	0.000310	-0.690201
H68	H	0.068327	-0.100975	-0.609314
N69	N	-0.025166	0.000236	0.094079
H70	H	-0.049149	0.000235	0.180129
H71	H	-0.000251	-0.101052	0.099181
N72	N	-0.148649	0.000202	0.097904
H73	H	-0.116954	0.000200	0.182227
H74	H	-0.173030	0.101496	0.104536
