data_functionalizedCrystal
_audit_creation_method	'MofGen! by Chris Wilmer'
_symmetry_space_group_name_H-M	'P1'
_symmetry_Int_Tables_number	1
_symmetry_cell_setting	triclinic
loop_
_symmetry_equiv_pos_as_xyz
  x,y,z
_cell_length_a	14.971486
_cell_length_b	14.971491
_cell_length_c	9.730223
_cell_angle_alpha	89.994861
_cell_angle_beta	89.998890
_cell_angle_gamma	96.384818
loop_
_atom_site_label
_atom_site_type_symbol
_atom_site_fract_x
_atom_site_fract_y
_atom_site_fract_z
O1	O	-0.116584	1.186940	-0.114332
O2	O	-0.130538	0.926541	-0.114319
O3	O	0.006639	1.063720	-0.114336
O4	O	-0.253761	1.049761	-0.114315
O5	O	0.006642	1.063711	0.114244
O6	O	-0.130535	0.926532	0.114261
O7	O	-0.116581	1.186932	0.114248
Zn8	Zn	-0.123557	1.056730	0.150547
Zn9	Zn	-0.123562	1.056742	-0.150617
O10	O	-0.253758	1.049752	0.114265
C11	C	-0.129912	0.893212	-0.000028
C12	C	-0.128039	0.793915	-0.000024
C13	C	-0.119961	0.366214	-0.124656
C14	C	-0.121718	0.459514	-0.124650
C15	C	-0.122600	0.506155	-0.000047
C16	C	-0.121716	0.459492	0.124560
C17	C	-0.119953	0.366195	0.124553
C18	C	-0.125393	0.653954	0.124565
C19	C	-0.127158	0.747258	0.124573
C20	C	-0.127158	0.747274	-0.124638
C21	C	-0.125395	0.653976	-0.124645
C22	C	-0.124513	0.607319	-0.000038
C23	C	-0.287084	1.050381	-0.000022
C24	C	-0.386381	1.052252	-0.000015
C25	C	-0.443605	0.971663	-0.000013
C26	C	-0.536905	0.973426	-0.000031
C27	C	-0.572978	1.055779	-0.000043
C28	C	-0.515747	1.136374	-0.000049
C29	C	-0.422450	1.134610	-0.000040
C30	C	-0.710210	1.140045	-0.000064
C31	C	-0.803514	1.141810	-0.000070
C32	C	-0.824665	0.978861	-0.000055
C33	C	-0.731367	0.977097	-0.000046
C34	C	-0.674142	1.057693	-0.000050
C35	C	0.039965	1.063091	-0.000051
C36	C	0.139262	1.061221	-0.000068
C37	C	-0.117207	1.220261	-0.000046
C38	C	-0.119080	1.319557	-0.000059
N39	N	-0.123553	1.056729	0.356083
N40	N	-0.123559	1.056750	-0.356154
C41	C	-0.062837	1.117492	0.428001
C42	C	-0.062837	1.117501	0.571884
C43	C	-0.184278	0.995980	0.571918
C44	C	-0.184273	0.995968	0.428037
H45	H	-0.119249	0.328245	-0.226123
H46	H	-0.124683	0.616003	-0.226108
H47	H	-0.013395	1.166979	0.630437
H48	H	-0.871262	0.913237	-0.000047
O49	O	-0.118940	0.320850	0.245552
C50	C	-0.040523	0.276916	0.252984
H51	H	0.013047	0.312064	0.182275
H52	H	-0.014520	0.279222	0.363187
H53	H	-0.056685	0.203938	0.219504
H54	H	-0.701999	0.910038	-0.000031
O55	O	-0.128168	0.792583	0.245578
C56	C	-0.206584	0.836516	0.253038
H57	H	-0.260159	0.801380	0.182338
H58	H	-0.232580	0.834193	0.363247
H59	H	-0.190424	0.909500	0.219562
O60	O	-0.243230	0.937052	0.642030
C61	C	-0.230204	0.950078	0.784445
H62	H	-0.196893	1.021155	0.804073
H63	H	-0.297929	0.940202	0.839123
H64	H	-0.185259	0.899412	0.825301
H65	H	-0.124686	0.615968	0.226034
O66	O	-0.243344	0.936906	0.358379
C67	C	-0.296928	0.883269	0.452737
H68	H	-0.298009	0.919947	0.555289
H69	H	-0.368335	0.869691	0.411158
H70	H	-0.267770	0.816800	0.468065
O71	O	-0.122688	0.504682	0.245690
C72	C	-0.199674	0.471840	0.321480
H73	H	-0.224200	0.400753	0.286044
H74	H	-0.182204	0.470897	0.435468
H75	H	-0.254870	0.517313	0.304216
O76	O	-0.408716	0.891586	-0.000065
C77	C	-0.479234	0.820835	-0.000036
H78	H	-0.542636	0.845982	-0.043316
H79	H	-0.459674	0.763347	-0.066397
H80	H	-0.492416	0.795965	0.109624
O81	O	-0.592585	0.895202	0.000156
C82	C	-0.647181	0.891337	0.118547
H83	H	-0.651975	0.962339	0.158005
H84	H	-0.717264	0.858099	0.091912
H85	H	-0.616455	0.850449	0.201454
H86	H	-0.545126	1.203427	-0.000056
H87	H	-0.375858	1.200234	-0.000048
O88	O	-0.128165	0.792530	-0.245721
C89	C	-0.205131	0.759675	-0.321535
H90	H	-0.258750	0.727003	-0.248626
H91	H	-0.232268	0.817663	-0.378056
H92	H	-0.186610	0.707793	-0.399228
O93	O	-0.122732	0.504772	-0.245723
C94	C	-0.199697	0.471917	-0.321536
H95	H	-0.253317	0.439247	-0.248626
H96	H	-0.226834	0.529904	-0.378060
H97	H	-0.181176	0.420034	-0.399226
O98	O	-0.838409	1.221883	-0.000169
C99	C	-0.767898	1.292641	-0.000158
H100	H	-0.704487	1.267499	-0.043408
H101	H	-0.787456	1.350120	-0.066554
H102	H	-0.754733	1.317522	0.109493
H103	H	-0.663619	1.205675	-0.000079
O104	O	-0.003765	1.176541	0.358317
C105	C	0.049810	1.230188	0.452655
H106	H	0.050877	1.193524	0.555230
H107	H	0.121223	1.243756	0.411087
H108	H	0.020656	1.296661	0.467933
