data_functionalizedCrystal
_audit_creation_method	'MofGen! by Chris Wilmer'
_symmetry_space_group_name_H-M	'P1'
_symmetry_Int_Tables_number	1
_symmetry_cell_setting	triclinic
loop_
_symmetry_equiv_pos_as_xyz
  x,y,z
_cell_length_a	10.685194
_cell_length_b	16.959455
_cell_length_c	10.686551
_cell_angle_alpha	94.405634
_cell_angle_beta	81.584560
_cell_angle_gamma	85.628622
loop_
_atom_site_label
_atom_site_type_symbol
_atom_site_fract_x
_atom_site_fract_y
_atom_site_fract_z
Zn1	Zn	-0.450374	-1.219533	-0.679250
Zn2	Zn	-0.678983	-1.197504	-0.450707
Zn3	Zn	-0.466713	-1.076356	-0.466973
Zn4	Zn	-0.662583	-1.076377	-0.662883
O5	O	-0.564663	-1.142442	-0.564953
O6	O	-0.480725	-1.327222	-0.648976
O7	O	-0.664526	-1.172205	-0.275230
O8	O	-0.286900	-1.104559	-0.508789
O9	O	-0.648683	-1.311037	-0.481067
O10	O	-0.274896	-1.209750	-0.664748
O11	O	-0.508572	-1.083198	-0.287181
O12	O	-0.492670	-0.965747	-0.492918
O13	O	-0.620732	-1.104595	-0.842689
O14	O	-0.636575	-0.965763	-0.636852
O15	O	-0.464823	-1.209771	-0.854714
O16	O	-0.854453	-1.172226	-0.465196
O17	O	-0.842405	-1.083235	-0.621080
C18	C	-0.564617	-0.937075	-0.564875
C19	C	-0.564625	-0.849217	-0.564869
C20	C	-0.652009	-0.469307	-0.477430
C21	C	-0.477346	-0.486181	-0.652507
C22	C	-0.477331	-0.568727	-0.652485
C23	C	-0.564658	-0.601566	-0.564935
C24	C	-0.651999	-0.551860	-0.477407
C25	C	-0.390000	-0.618439	-0.740020
C26	C	-0.389983	-0.700990	-0.740002
C27	C	-0.477305	-0.733831	-0.652445
C28	C	-0.564649	-0.684119	-0.564913
C29	C	-0.651976	-0.716958	-0.477363
C30	C	-0.739315	-0.667248	-0.389824
C31	C	-0.739321	-0.584700	-0.389850
C32	C	-0.477298	-0.816378	-0.652419
C33	C	-0.651966	-0.799511	-0.477341
C34	C	-0.894488	-1.125365	-0.539624
C35	C	-1.035586	-1.118134	-0.528831
C36	C	-0.233548	-1.159609	-0.590409
C37	C	-0.092447	-1.166925	-0.601257
C38	C	-0.539126	-1.159643	-0.896048
C39	C	-0.528243	-1.166973	-1.037140
C40	C	-0.564699	-0.348612	-0.565011
C41	C	-0.564682	-0.436468	-0.564980
C42	C	-0.590010	-1.125359	-0.235154
C43	C	-0.600535	-1.118201	-0.094090
H44	H	-0.723076	-0.826242	-0.406042
H45	H	-0.670756	-1.070839	-1.034906
H46	H	-0.810422	-0.693996	-0.318547
C47	C	-1.012387	-1.230838	-0.696183
N48	N	-0.952078	-1.278980	-0.767682
H49	H	-1.094855	-1.070819	-0.458568
H50	H	-0.458026	-1.214342	-1.096330
C51	C	-0.293919	-0.582311	-0.836290
N52	N	-0.221534	-0.555095	-0.908791
H53	H	-0.723115	-0.428829	-0.406154
C54	C	-0.381273	-0.450055	-0.748789
N55	N	-0.308898	-0.422841	-0.821302
C56	C	-0.293897	-0.755664	-0.836285
N57	N	-0.221519	-0.796845	-0.908801
C58	C	-0.835392	-0.530014	-0.293572
N59	N	-0.907755	-0.488821	-0.221059
C60	C	-0.381232	-0.871055	-0.748707
N61	N	-0.308868	-0.912237	-0.821234
