data_functionalizedCrystal
_audit_creation_method	'MofGen! by Chris Wilmer'
_symmetry_space_group_name_H-M	'P1'
_symmetry_Int_Tables_number	1
_symmetry_cell_setting	triclinic
loop_
_symmetry_equiv_pos_as_xyz
  x,y,z
_cell_length_a	10.685980
_cell_length_b	12.827892
_cell_length_c	10.685880
_cell_angle_alpha	94.339766
_cell_angle_beta	80.918858
_cell_angle_gamma	94.382190
loop_
_atom_site_label
_atom_site_type_symbol
_atom_site_fract_x
_atom_site_fract_y
_atom_site_fract_z
Zn1	Zn	1.995735	-0.344322	-0.866677
Zn2	Zn	2.495735	0.155678	-0.366677
Zn3	Zn	1.979324	-0.506673	-0.654423
Zn4	Zn	2.479324	-0.006673	-0.154423
Zn5	Zn	1.767175	-0.344377	-0.638150
Zn6	Zn	2.267175	0.155623	-0.138150
Zn7	Zn	1.783436	-0.531457	-0.850327
Zn8	Zn	2.283436	-0.031457	-0.350327
O9	O	1.881418	-0.431707	-0.752394
O10	O	2.381418	0.068293	-0.252394
O11	O	2.171191	-0.355463	-0.852175
O12	O	2.671191	0.144537	-0.352175
O13	O	1.937508	-0.474795	-0.474639
O14	O	2.437508	0.025205	0.025361
O15	O	1.797558	-0.198132	-0.668497
O16	O	2.297558	0.301868	-0.168497
O17	O	2.159133	-0.474741	-0.696232
O18	O	2.659133	0.025259	-0.196232
O19	O	1.965480	-0.198091	-0.836395
O20	O	2.465480	0.301909	-0.336395
O21	O	1.781644	-0.355557	-0.462683
O22	O	2.281644	0.144443	0.037317
O23	O	1.591700	-0.379589	-0.652642
O24	O	2.091700	0.120411	-0.152642
O25	O	1.825271	-0.516982	-1.030122
O26	O	2.325271	-0.016982	-0.530122
O27	O	1.603646	-0.517036	-0.808528
O28	O	2.103646	-0.017036	-0.308528
O29	O	1.981247	-0.379495	-1.042134
O30	O	2.481247	0.120505	-0.542134
O31	O	1.953275	-0.656198	-0.680378
O32	O	2.453275	-0.156198	-0.180378
O33	O	1.809357	-0.674407	-0.824308
O34	O	2.309357	-0.174407	-0.324308
C35	C	1.551615	-0.451009	-0.727046
C36	C	2.051615	0.048991	-0.227046
C37	C	1.410526	-0.459293	-0.716232
C38	C	1.910526	0.040707	-0.216232
C39	C	1.881336	-0.703220	-0.752365
C40	C	2.381336	-0.203220	-0.252365
C41	C	1.881421	-0.819370	-0.752404
C42	C	2.381421	-0.319370	-0.252404
C43	C	1.964485	-0.871058	-0.835552
C44	C	2.464485	-0.371058	-0.335552
C45	C	1.964574	-0.991105	-0.835593
C46	C	2.464574	-0.491105	-0.335593
C47	C	2.212508	-0.412331	-0.777843
C48	C	2.712508	0.087669	-0.277843
C49	C	2.353599	-0.404074	-0.788687
C50	C	2.853599	0.095926	-0.288687
C51	C	1.906903	-0.450997	-1.083472
C52	C	2.406903	0.049003	-0.583472
C53	C	1.917764	-0.459217	-1.224558
C54	C	2.417764	0.040783	-0.724558
C55	C	1.881536	-0.159133	-0.752455
C56	C	2.381536	0.340867	-0.252455
C57	C	1.881586	-0.042979	-0.752480
C58	C	2.381586	0.457021	-0.252480
C59	C	1.856104	-0.412413	-0.422610
C60	C	2.356104	0.087587	0.077390
C61	C	1.845489	-0.403884	-0.281544
C62	C	2.345489	0.096116	0.218456
H63	H	1.351319	-0.512908	-0.645916
H64	H	1.851319	-0.012908	-0.145916
H65	H	2.035530	-0.826438	-0.906712
H66	H	2.535530	-0.326438	-0.406712
H67	H	1.987960	-0.512884	-1.283712
H68	H	2.487960	-0.012884	-0.783712
H69	H	1.775293	-0.350225	-1.222396
H70	H	2.275293	0.149775	-0.722396
C71	C	1.433561	-0.331643	-0.883672
C72	C	1.933561	0.168357	-0.383672
H73	H	1.378930	-0.298106	-0.927671
H74	H	1.878930	0.201894	-0.427671
H75	H	1.489536	-0.371901	-0.942813
H76	H	1.989536	0.128099	-0.442813
H77	H	1.481538	-0.280217	-0.839120
H78	H	1.981538	0.219783	-0.339120
C79	C	2.060654	-1.051140	-0.931763
C80	C	2.560654	-0.551140	-0.431763
H81	H	2.112714	-1.003021	-0.983895
H82	H	2.612714	-0.503021	-0.483895
H83	H	2.016292	-1.099806	-0.983258
H84	H	2.516292	-0.599806	-0.483258
H85	H	2.112253	-1.087620	-0.887459
H86	H	2.612253	-0.587620	-0.387459
C87	C	1.785507	-0.982950	-0.656303
C88	C	2.285507	-0.482950	-0.156303
H89	H	1.733459	-1.031067	-0.604160
H90	H	2.233459	-0.531067	-0.104160
H91	H	1.733914	-0.946462	-0.700594
H92	H	2.233914	-0.446462	-0.200594
H93	H	1.829882	-0.934291	-0.604802
H94	H	2.329882	-0.434291	-0.104802
H95	H	1.810367	-0.863994	-0.681254
H96	H	2.310367	-0.363994	-0.181254
