data_functionalizedCrystal
_audit_creation_method	'MofGen! by Chris Wilmer'
_symmetry_space_group_name_H-M	'P1'
_symmetry_Int_Tables_number	1
_symmetry_cell_setting	triclinic
loop_
_symmetry_equiv_pos_as_xyz
  x,y,z
_cell_length_a	8.597340
_cell_length_b	27.732048
_cell_length_c	7.681187
_cell_angle_alpha	84.322135
_cell_angle_beta	88.174630
_cell_angle_gamma	83.998371
loop_
_atom_site_label
_atom_site_type_symbol
_atom_site_fract_x
_atom_site_fract_y
_atom_site_fract_z
O1	O	2.063642	0.077261	-0.166644
O2	O	1.613553	0.080695	-0.098350
O3	O	1.852573	0.008747	-0.134651
O4	O	1.824622	0.149209	-0.130343
O5	O	1.823117	0.017615	-0.423047
O6	O	1.584096	0.089563	-0.386747
O7	O	2.034186	0.086129	-0.455040
Zn8	Zn	1.804464	0.089254	-0.466683
Zn9	Zn	1.843274	0.077570	-0.086708
O10	O	1.795166	0.158077	-0.418739
C11	C	1.541260	0.084266	-0.233814
C12	C	1.369736	0.081689	-0.207790
C13	C	1.837257	-0.004833	-0.278765
C14	C	1.835489	-0.058508	-0.278511
C15	C	1.965620	-0.395790	-0.298166
C16	C	1.959066	-0.597528	-0.297147
O17	O	2.078061	-0.627381	-0.315125
N18	N	1.817334	-0.618324	-0.275643
C19	C	1.677233	-0.588683	-0.254381
O20	O	1.556533	-0.611001	-0.236050
C21	C	1.683790	-0.386947	-0.255388
C22	C	1.825529	-0.366153	-0.276911
C23	C	2.107347	-0.374996	-0.319685
C24	C	2.108983	-0.324564	-0.319949
C25	C	1.968892	-0.294926	-0.298694
C26	C	1.827165	-0.315721	-0.277175
C27	C	1.543691	-0.357307	-0.234114
C28	C	1.545344	-0.306870	-0.234363
C29	C	1.687082	-0.286076	-0.255886
C30	C	1.688710	-0.235652	-0.256184
N31	N	1.830441	-0.214855	-0.277687
C32	C	1.970532	-0.244493	-0.298942
C33	C	1.673800	-0.694598	-0.253858
C34	C	1.672160	-0.745031	-0.253609
C35	C	1.953994	-0.753873	-0.296371
C36	C	1.955631	-0.703438	-0.296632
C37	C	1.815531	-0.673801	-0.275361
C38	C	1.973957	-0.138582	-0.299497
C39	C	1.975580	-0.088145	-0.299766
C40	C	1.693748	-0.079309	-0.256995
C41	C	1.692123	-0.129741	-0.256734
C42	C	1.832241	-0.159377	-0.277981
O43	O	1.569780	-0.205769	-0.238196
O44	O	2.091218	-0.222167	-0.317233
C45	C	1.963984	-0.446222	-0.297902
C46	C	1.822256	-0.467016	-0.276383
C47	C	1.682165	-0.437379	-0.255128
C48	C	1.820616	-0.517450	-0.276134
C49	C	1.960708	-0.547087	-0.297389
C50	C	2.102439	-0.526291	-0.318893
C51	C	2.104075	-0.475859	-0.319157
C52	C	1.540434	-0.458175	-0.233624
C53	C	1.538809	-0.508607	-0.233364
C54	C	1.678901	-0.538245	-0.254619
C55	C	2.106479	0.082558	-0.319572
C56	C	2.278004	0.085135	-0.345585
C57	C	1.810481	0.171656	-0.274621
C58	C	1.812251	0.225331	-0.274864
N59	N	1.777989	0.097228	-0.726007
N60	N	1.869762	0.069592	0.172615
H61	H	1.317043	0.076767	-0.069892
H62	H	2.088055	-0.162706	-0.316791
C63	C	1.651479	0.135330	-0.808435
N64	N	1.556189	0.164028	-0.870531
H65	H	1.963402	0.041384	-0.766360
C66	C	2.256540	-0.558902	-0.342270
N67	N	2.372603	-0.583467	-0.359866
H68	H	2.091005	-0.071218	-0.317298
H69	H	1.330691	0.090053	-0.483474
H70	H	1.576703	-0.146670	-0.239257
H71	H	2.221433	-0.399122	-0.336988
H72	H	2.224402	-0.307639	-0.337468
H73	H	2.071047	-0.686511	-0.314156
H74	H	2.068061	-0.778012	-0.313679
H75	H	1.556739	-0.761956	-0.236113
H76	H	1.428274	-0.374229	-0.216578
C77	C	1.519669	-0.662003	-0.230458
N78	N	1.403574	-0.637455	-0.212838
H79	H	1.431255	-0.282742	-0.217039
H80	H	1.579689	-0.055169	-0.239696
H81	H	2.219493	-0.458934	-0.336682
C82	C	1.382875	-0.531474	-0.209687
N83	N	1.265429	-0.548696	-0.191838
H84	H	1.426353	-0.434049	-0.216312
