data_functionalizedCrystal
_audit_creation_method	'MofGen! by Chris Wilmer'
_symmetry_space_group_name_H-M	'P1'
_symmetry_Int_Tables_number	1
_symmetry_cell_setting	triclinic
loop_
_symmetry_equiv_pos_as_xyz
  x,y,z
_cell_length_a	13.635800
_cell_length_b	27.924317
_cell_length_c	27.923463
_cell_angle_alpha	79.577735
_cell_angle_beta	98.963500
_cell_angle_gamma	98.979858
loop_
_atom_site_label
_atom_site_type_symbol
_atom_site_fract_x
_atom_site_fract_y
_atom_site_fract_z
V1	V	1.933948	0.151592	-0.067876
O2	O	1.984725	0.148388	0.002491
O3	O	1.856865	0.150861	-0.133846
O4	O	1.899460	0.217567	-0.067171
O5	O	1.941834	0.081221	-0.064646
V6	V	2.183948	0.143138	-0.059420
O7	O	2.046506	0.170137	-0.086427
O8	O	2.296488	0.124593	-0.040869
O9	O	2.149428	0.143869	0.006550
O10	O	2.191870	0.146342	-0.129787
O11	O	2.234760	0.213509	-0.062650
O12	O	2.106832	0.077163	-0.060126
V13	V	2.433948	0.151592	-0.067876
O14	O	2.484725	0.148388	0.002491
O15	O	2.356865	0.150861	-0.133846
O16	O	2.399460	0.217567	-0.067171
O17	O	2.441834	0.081221	-0.064646
V18	V	2.683948	0.143138	-0.059420
O19	O	2.546506	0.170137	-0.086427
O20	O	2.796488	0.124593	-0.040869
O21	O	2.649428	0.143869	0.006550
O22	O	2.691870	0.146342	-0.129787
O23	O	2.734760	0.213509	-0.062650
O24	O	2.606832	0.077163	-0.060126
C25	C	1.821168	0.233638	-0.064866
C26	C	1.833262	0.287575	-0.064725
C27	C	1.766833	0.148548	-0.149918
C28	C	1.744383	0.148391	-0.203851
C29	C	2.071129	0.146180	0.022619
C30	C	2.083197	0.146341	0.076552
C31	C	2.016795	0.061089	-0.062432
C32	C	1.994322	0.007152	-0.062570
C33	C	2.266833	0.148548	-0.149918
C34	C	2.244383	0.148391	-0.203851
C35	C	1.902678	0.679856	-0.108042
C36	C	1.857315	0.477156	-0.108647
O37	O	1.837150	0.457020	-0.146539
N38	N	1.868412	0.444666	-0.064257
C39	C	1.890845	0.462855	-0.019712
O40	O	1.899233	0.430569	0.018031
C41	C	1.936201	0.665554	-0.019108
C42	C	1.925112	0.698042	-0.063501
C43	C	1.891590	0.712343	-0.152432
C44	C	1.902936	0.763015	-0.152280
C45	C	1.925370	0.781201	-0.107739
C46	C	1.936458	0.748714	-0.063350
C47	C	1.958627	0.683742	0.025437
C48	C	1.969962	0.734420	0.025584
C49	C	1.958874	0.766908	-0.018810
C50	C	1.970238	0.817572	-0.018657
N51	N	1.959141	0.850061	-0.063047
C52	C	1.936707	0.831875	-0.107588
C53	C	1.867033	0.356435	-0.020033
C54	C	1.855696	0.305760	-0.020184
C55	C	1.822165	0.320065	-0.109119
C56	C	1.833510	0.370740	-0.108967
C57	C	1.855936	0.388924	-0.064423
C58	C	1.960536	0.938290	-0.107267
C59	C	1.971888	0.988967	-0.107111
C60	C	2.005413	0.974658	-0.018177
C61	C	1.994067	0.923986	-0.018332
C62	C	1.971624	0.905804	-0.062881
O63	O	1.990391	0.837742	0.019216
O64	O	1.928302	0.864168	-0.145325
C65	C	1.891333	0.629184	-0.108194
C66	C	1.902421	0.596697	-0.063804
C67	C	1.924855	0.614883	-0.019263
C68	C	1.891084	0.546023	-0.063955
C69	C	1.868650	0.527837	-0.108496
C70	C	1.857553	0.560326	-0.152886
C71	C	1.868899	0.610999	-0.152735
C72	C	1.935952	0.582394	0.025127
C73	C	1.924606	0.531722	0.024972
C74	C	1.902172	0.513536	-0.019569
C75	C	1.822510	0.150752	-0.231664
C76	C	1.801431	0.150611	-0.282342
C77	C	1.702223	0.148105	-0.305204
C78	C	1.624091	0.145745	-0.277387
C79	C	1.645171	0.145890	-0.226711
C80	C	2.246812	0.144851	0.413486
C81	C	2.292213	0.145431	0.616192
O82	O	2.373504	0.143416	0.644518
N83	N	2.209197	0.147938	0.639054
C84	C	2.114823	0.150297	0.611238
O85	O	2.045253	0.152437	0.635336
C86	C	2.069421	0.149713	0.408533
C87	C	2.152446	0.147211	0.385673
C88	C	2.329829	0.142348	0.390625
C89	C	2.318479	0.142206	0.339952
C90	C	2.224113	0.144566	0.312138
C91	C	2.141096	0.147069	0.334999
C92	C	1.975047	0.152068	0.380718
C93	C	1.963703	0.151921	0.330039
C94	C	2.046727	0.149419	0.307179
C95	C	2.035380	0.149286	0.256512
N96	N	2.118396	0.146779	0.233650
C97	C	2.212762	0.144419	0.261463
C98	C	2.138666	0.150604	0.717660
C99	C	2.150016	0.150751	0.768336
C100	C	2.327406	0.145884	0.773287
C101	C	2.316056	0.145741	0.722610
C102	C	2.221682	0.148097	0.694798
C103	C	2.188921	0.144121	0.155044
C104	C	2.177563	0.143981	0.104365
C105	C	2.000174	0.148845	0.099419
C106	C	2.011531	0.148988	0.150093
C107	C	2.105912	0.146624	0.177905
O108	O	1.954120	0.151295	0.228157
O109	O	2.282315	0.142268	0.237357
C110	C	2.258161	0.144993	0.464160
C111	C	2.175145	0.147496	0.487021
C112	C	2.080778	0.149856	0.459207
C113	C	2.186495	0.147642	0.537696
C114	C	2.280861	0.145282	0.565509
C115	C	2.363877	0.142775	0.542647
C116	C	2.352528	0.142633	0.491973
C117	C	1.997763	0.152363	0.482070
C118	C	2.009120	0.152505	0.532744
C119	C	2.103486	0.150145	0.560557
C120	C	2.321168	0.233638	-0.064866
C121	C	2.333262	0.287575	-0.064725
C122	C	2.571129	0.146180	0.022619
C123	C	2.583197	0.146341	0.076552
C124	C	2.516795	0.061089	-0.062432
C125	C	2.494322	0.007152	-0.062570
C126	C	2.427645	0.315388	-0.067090
C127	C	2.439025	0.366067	-0.066952
C128	C	2.356020	0.388932	-0.064452
C129	C	2.261630	0.361114	-0.062085
C130	C	2.250252	0.310436	-0.062220
C131	C	2.677563	0.143981	0.104365
C132	C	2.688914	0.144124	0.155042
C133	C	2.605898	0.146631	0.177905
C134	C	2.511523	0.148990	0.150088
C135	C	2.500173	0.148843	0.099412
C136	C	2.395099	-0.015700	-0.065065
C137	C	2.373970	-0.066381	-0.065189
C138	C	2.452065	-0.094208	-0.062822
C139	C	2.551297	-0.071352	-0.060325
C140	C	2.572424	-0.020673	-0.060198
H141	H	1.962858	1.015417	-0.143263
H142	H	2.194052	0.379739	-0.060049
C143	C	2.409813	0.139447	0.314813
N144	N	2.478610	0.137366	0.295882
H145	H	2.173393	0.287794	-0.060295
H146	H	2.745170	0.141940	0.085757
C147	C	2.407387	0.142984	0.697469
N148	N	2.476183	0.140905	0.678536
C149	C	1.832875	0.540313	-0.201882
N150	N	1.814283	0.525235	-0.238783
C151	C	2.433654	0.139773	0.421209
N152	N	2.511865	0.137845	0.444239
C153	C	1.936804	0.495990	0.073812
N154	N	1.945981	0.469079	0.110597
C155	C	2.431210	0.143284	0.803891
N156	N	2.509391	0.141321	0.826946
H157	H	2.365298	0.430198	-0.064342
C158	C	1.935857	0.918298	-0.156273
N159	N	1.917278	0.903241	-0.193185
C160	C	1.931649	0.153512	-0.206526
N161	N	2.013857	0.155595	-0.187596
C162	C	1.893950	0.154962	0.451482
N163	N	1.815753	0.156924	0.428444
C164	C	2.792742	0.141549	0.185628
N165	N	2.870948	0.139617	0.208663
H166	H	1.581545	0.143964	-0.204069
C167	C	1.970814	0.648016	0.074274
N168	N	1.979988	0.621107	0.111062
C169	C	1.679050	0.147943	-0.360950
N170	N	1.661602	0.147820	-0.402937
C171	C	2.618398	0.146786	0.233651
N172	N	2.627819	0.146902	0.275640
C173	C	1.887390	0.153202	-0.312931
N174	N	1.952135	0.155153	-0.335968
C175	C	1.797478	0.300051	-0.158114
N176	N	1.778876	0.284974	-0.195015
C177	C	2.264808	-0.091510	-0.067943
N178	N	2.182586	-0.110436	-0.070021
C179	C	1.890702	0.798744	-0.201116
N180	N	1.881474	0.825653	-0.237901
H181	H	2.443936	0.151031	0.168710
H182	H	2.423329	0.150769	0.076769
H183	H	2.331497	0.006950	-0.066992
C184	C	2.268901	0.141226	0.079222
N185	N	2.337694	0.139150	0.060286
C186	C	2.292745	0.141529	0.185628
N187	N	2.370948	0.139582	0.208663
C188	C	1.994637	0.754419	0.074587
N189	N	2.013226	0.769481	0.111497
H190	H	2.434847	-0.135472	-0.062932
H191	H	2.495243	0.296779	-0.069128
H192	H	2.614876	-0.094017	-0.058397
H193	H	1.941506	0.154547	0.551351
H194	H	2.003108	0.897534	0.017816
C195	C	1.859884	0.154515	0.299449
N196	N	1.781688	0.156471	0.276409
H197	H	2.653222	-0.002071	-0.058169
C198	C	1.856680	0.646728	-0.201571
N199	N	1.847469	0.673637	-0.238357
C200	C	1.867905	0.270030	0.028652
N201	N	1.877094	0.243118	0.065437
C202	C	1.821297	0.406472	-0.157803
N203	N	1.812092	0.433382	-0.194587
H204	H	2.082411	0.152796	0.786943
C205	C	1.891711	0.376430	0.028973
N206	N	1.910303	0.391488	0.065884
C207	C	2.467682	0.140178	0.573252
N208	N	2.545863	0.138218	0.596306
C209	C	1.896371	0.151434	0.068816
N210	N	1.818183	0.153377	0.045765
C211	C	2.030081	0.994671	0.030817
N212	N	2.048651	1.009747	0.067719
H213	H	1.873319	0.697543	-0.188705
C214	C	2.542862	0.396658	-0.069559
N215	N	2.621072	0.419697	-0.071523
H216	H	1.954214	0.597194	0.061399
H217	H	2.420136	0.140595	0.473365
H218	H	1.543316	0.143705	-0.296010
H219	H	1.907437	0.154105	0.399322
H220	H	1.943929	0.151034	0.168705
H221	H	2.061812	0.152519	0.695021
