data_functionalizedCrystal
_audit_creation_method	'MofGen! by Chris Wilmer'
_symmetry_space_group_name_H-M	'P1'
_symmetry_Int_Tables_number	1
_symmetry_cell_setting	triclinic
loop_
_symmetry_equiv_pos_as_xyz
  x,y,z
_cell_length_a	12.759395
_cell_length_b	18.101397
_cell_length_c	18.101389
_cell_angle_alpha	89.981649
_cell_angle_beta	89.984463
_cell_angle_gamma	90.019612
loop_
_atom_site_label
_atom_site_type_symbol
_atom_site_fract_x
_atom_site_fract_y
_atom_site_fract_z
Zn1	Zn	1.606191	-0.294910	-0.418665
Zn2	Zn	1.606078	-0.418736	-0.294824
Zn3	Zn	1.430501	-0.294913	-0.294846
Zn4	Zn	1.430466	-0.418714	-0.418632
O5	O	1.518309	-0.356818	-0.356742
O6	O	1.753197	-0.311344	-0.402243
O7	O	1.582755	-0.402321	-0.191194
O8	O	1.453869	-0.191279	-0.311294
O9	O	1.753114	-0.402318	-0.311257
O10	O	1.582948	-0.191278	-0.402264
O11	O	1.453759	-0.311348	-0.191210
O12	O	1.283476	-0.311327	-0.311261
O13	O	1.453809	-0.402281	-0.522269
O14	O	1.283450	-0.402283	-0.402206
O15	O	1.582914	-0.311323	-0.522294
O16	O	1.582721	-0.522366	-0.311224
O17	O	1.453700	-0.522350	-0.402185
C18	C	1.245342	-0.356804	-0.356733
C19	C	1.128565	-0.356815	-0.356746
C20	C	1.128632	-0.262237	-0.451643
C21	C	1.073805	-0.214957	-0.499097
C22	C	0.964083	-0.214970	-0.499106
C23	C	0.909186	-0.262267	-0.451654
C24	C	0.964014	-0.309547	-0.404200
C25	C	1.073738	-0.309530	-0.404198
C26	C	0.963947	-0.404120	-0.309301
C27	C	1.073668	-0.404112	-0.309295
C28	C	0.909050	-0.451417	-0.261850
C29	C	0.963877	-0.498702	-0.214398
C30	C	1.073605	-0.498687	-0.214391
C31	C	1.128495	-0.451392	-0.261840
C32	C	1.518223	-0.549229	-0.356715
C33	C	1.518282	-0.631543	-0.356728
C34	C	1.518346	-0.782251	-0.356753
C35	C	1.599603	-0.813584	-0.299579
C36	C	1.599400	-0.899202	-0.299368
C37	C	1.518410	-0.930634	-0.356778
C38	C	1.407609	-0.899614	-0.335776
C39	C	1.408042	-0.813969	-0.335346
C40	C	1.546935	-0.813759	-0.435079
C41	C	1.549415	-0.899409	-0.434676
C42	C	1.518440	-1.014493	-0.356793
C43	C	1.518308	-0.698392	-0.356736
C44	C	1.792343	-0.356834	-0.356751
C45	C	1.909119	-0.356840	-0.356755
C46	C	1.518370	-0.356800	-0.549904
C47	C	1.518396	-0.356792	-0.632218
C48	C	1.518425	-0.163656	-0.356785
C49	C	1.518474	-0.081342	-0.356803
C50	C	1.518457	-0.356653	-0.931309
C51	C	1.436948	-0.413699	-0.899968
C52	C	1.437169	-0.413964	-0.814350
C53	C	1.518426	-0.356722	-0.782926
C54	C	1.629124	-0.377906	-0.814020
C55	C	1.628670	-0.378280	-0.899665
C56	C	1.490230	-0.278295	-0.899736
C57	C	1.487767	-0.278748	-0.814085
C58	C	1.518415	-0.356759	-0.699067
C59	C	1.518475	-0.356617	-1.015168
C60	C	1.518309	-0.356783	-0.164331
C61	C	1.518487	-0.356583	-0.082017
H62	H	1.118239	-0.537186	-0.175746
H63	H	0.919443	-0.176466	-0.537743
C64	C	1.323448	-0.785963	-0.389162
H65	H	1.323143	-0.733480	-0.389267
H66	H	1.256756	-0.803643	-0.373911
H67	H	1.338268	-0.803484	-0.437514
C68	C	1.467000	-0.786381	-0.492627
H69	H	1.416446	-0.755896	-0.469075
H70	H	1.432960	-0.827562	-0.514586
H71	H	1.502281	-0.758776	-0.529715
H72	H	0.919171	-0.537204	-0.175764
H73	H	1.455806	-0.472045	-0.793865
C74	C	1.710909	-0.785704	-0.317082
H75	H	1.758767	-0.805241	-0.281951
H76	H	1.712117	-0.733279	-0.314884
H77	H	1.730520	-0.801404	-0.365213
C78	C	1.249323	-0.262228	-0.451643
H79	H	1.274164	-0.227289	-0.486696
H80	H	1.274133	-0.310037	-0.464356
H81	H	1.274130	-0.249338	-0.403874
C82	C	1.134192	-0.162936	-0.551292
H83	H	1.207391	-0.169703	-0.544498
H84	H	1.116217	-0.113163	-0.540551
H85	H	1.116231	-0.173862	-0.601033
H86	H	1.410911	-0.258995	-0.921331
C87	C	1.326283	-0.396046	-0.785944
H88	H	1.280694	-0.388544	-0.826748
H89	H	1.328524	-0.352518	-0.756688
H90	H	1.301211	-0.436034	-0.756883
H91	H	1.354615	-0.400578	-0.920563
C92	C	1.249186	-0.451374	-0.261836
H93	H	1.274024	-0.416432	-0.296888
H94	H	1.274008	-0.499180	-0.274549
H95	H	1.273985	-0.438483	-0.214066
H96	H	0.819845	-0.262267	-0.451660
H97	H	1.653464	-0.434577	-0.792575
C98	C	1.713479	-0.324583	-0.927682
H99	H	1.713766	-0.324441	-0.980166
H100	H	1.780116	-0.339951	-0.910055
H101	H	1.698858	-0.276222	-0.910117
H102	H	1.580473	-0.919734	-0.241339
C103	C	1.377724	-0.257157	-0.786624
H104	H	1.350572	-0.295496	-0.756293
H105	H	1.332699	-0.249916	-0.827778
H106	H	1.382021	-0.212743	-0.758842
C107	C	1.713379	-0.323546	-0.786529
H108	H	1.779688	-0.337374	-0.805986
H109	H	1.715971	-0.324709	-0.734095
H110	H	1.696461	-0.275016	-0.802559
H111	H	0.819709	-0.451422	-0.261858
C112	C	1.375373	-0.787039	-0.258008
H113	H	1.361968	-0.828440	-0.227147
H114	H	1.313773	-0.757835	-0.261862
H115	H	1.430242	-0.758238	-0.237296
H116	H	1.549597	-0.235793	-0.920006
H117	H	1.345434	-0.919975	-0.376146
H118	H	1.681552	-0.920173	-0.312486
H119	H	1.580891	-0.792100	-0.241873
C120	C	1.562115	-0.218280	-0.785198
H121	H	1.613059	-0.239894	-0.753620
H122	H	1.522988	-0.182550	-0.758444
H123	H	1.596191	-0.195101	-0.825716
H124	H	1.455401	-0.471426	-0.921492
H125	H	1.626335	-0.792108	-0.454223
C126	C	1.659565	-0.926789	-0.456084
H127	H	1.677875	-0.907712	-0.503255
H128	H	1.659831	-0.979240	-0.457757
H129	H	1.708950	-0.910296	-0.420448
C130	C	1.374386	-0.928641	-0.259294
H131	H	1.427882	-0.959655	-0.240060
H132	H	1.311192	-0.956023	-0.263831
H133	H	1.363611	-0.888145	-0.226800
H134	H	1.652597	-0.435561	-0.919646
H135	H	1.494591	-0.920802	-0.479549
