data_functionalizedCrystal
_audit_creation_method	'MofGen! by Chris Wilmer'
_symmetry_space_group_name_H-M	'P1'
_symmetry_Int_Tables_number	1
_symmetry_cell_setting	triclinic
loop_
_symmetry_equiv_pos_as_xyz
  x,y,z
_cell_length_a	10.654562
_cell_length_b	19.188924
_cell_length_c	9.730223
_cell_angle_alpha	89.996615
_cell_angle_beta	89.996961
_cell_angle_gamma	83.816034
loop_
_atom_site_label
_atom_site_type_symbol
_atom_site_fract_x
_atom_site_fract_y
_atom_site_fract_z
O1	O	1.665745	0.098101	-0.114387
O2	O	1.300070	0.107435	-0.114371
O3	O	1.493464	0.001181	-0.114363
O4	O	1.472350	0.204355	-0.114395
O5	O	1.493462	0.001184	0.114217
O6	O	1.300068	0.107437	0.114209
O7	O	1.665742	0.098104	0.114193
Zn8	Zn	1.482905	0.102771	0.150493
Zn9	Zn	1.482908	0.102768	-0.150671
O10	O	1.472348	0.204357	0.114185
C11	C	1.253286	0.106749	-0.000079
C12	C	1.113887	0.104693	-0.000072
C13	C	1.048375	0.103736	0.124517
C14	C	0.917394	0.101809	0.124494
C15	C	0.917447	0.101801	-0.124716
C16	C	1.048427	0.103722	-0.124692
C17	C	1.048343	0.103743	0.268397
C18	C	0.917362	0.101817	0.268374
C19	C	1.492781	-0.024833	-0.000072
C20	C	1.490733	-0.102351	-0.000068
C21	C	1.489778	-0.138758	-0.124667
C22	C	1.487836	-0.211593	-0.124678
C23	C	1.486873	-0.248021	-0.000082
C24	C	1.487821	-0.211605	0.124534
C25	C	1.489751	-0.138770	0.124541
N26	N	1.555305	-0.367234	0.092649
N27	N	1.553475	-0.436424	0.092634
C28	C	1.481057	-0.467468	-0.000095
N29	N	1.410554	-0.426709	-0.092829
N30	N	1.412390	-0.357513	-0.092818
C31	C	1.484780	-0.326998	-0.000075
C32	C	1.477994	-0.582851	-0.124714
C33	C	1.476044	-0.655688	-0.124719
C34	C	1.476042	-0.655699	0.124496
C35	C	1.477980	-0.582863	0.124498
C36	C	1.478961	-0.546444	-0.000111
C37	C	1.712527	0.098790	-0.000103
C38	C	1.851925	0.100846	-0.000118
C39	C	1.473031	0.230372	-0.000109
C40	C	1.475080	0.307890	-0.000122
N41	N	1.482912	0.102773	0.356029
N42	N	1.482911	0.102760	-0.356207
C43	C	1.568568	0.055740	0.427959
C44	C	1.568565	0.055732	0.571842
C45	C	1.397245	0.149795	0.571853
C46	C	1.397243	0.149800	0.427973
C47	C	1.667483	0.001435	0.427953
C48	C	1.667480	0.001427	0.571836
H49	H	1.490574	-0.109110	-0.226134
H50	H	1.101764	0.104491	-0.226144
H51	H	1.490523	-0.109128	0.226007
H52	H	1.076838	0.154663	0.313032
N53	N	1.486825	-0.248800	0.251818
N54	N	1.398535	-0.234663	0.335246
H55	H	1.397824	-0.260930	0.425146
N56	N	1.475040	-0.692909	0.251758
N57	N	1.473308	-0.757939	0.251738
H58	H	1.472593	-0.784223	0.341619
H59	H	1.763737	0.013392	0.610880
H60	H	1.095626	0.055494	0.323657
N61	N	0.858021	0.162349	0.337658
N62	N	0.923624	0.206578	0.386479
H63	H	0.881716	0.249328	0.435410
N64	N	1.641968	-0.065879	0.378981
N65	N	1.623984	-0.113308	0.462471
H66	H	1.605946	-0.160845	0.427886
N67	N	1.781414	0.022756	0.371925
N68	N	1.795650	0.025423	0.244587
H69	H	1.876114	0.040481	0.205013
H70	H	1.487051	-0.241241	-0.226145
N71	N	1.479011	-0.545644	-0.251989
N72	N	1.567297	-0.559782	-0.335421
H73	H	1.568018	-0.533505	-0.425310
N74	N	0.881606	0.037938	0.324383
N75	N	0.964358	-0.008288	0.366349
H76	H	0.939106	-0.053403	0.405900
H77	H	1.478767	-0.553221	0.225960
N78	N	0.850560	0.100805	-0.251994
N79	N	0.733616	0.099084	-0.252001
H80	H	0.686377	0.098380	-0.341894
N81	N	1.475053	-0.692867	-0.252014
N82	N	1.475926	-0.660337	-0.363253
H83	H	1.475225	-0.686595	-0.453159
H84	H	1.327484	0.188092	0.369409
H85	H	1.327495	0.188083	0.630445
H86	H	1.638042	-0.049286	0.616461
