data_functionalizedCrystal
_audit_creation_method	'MofGen! by Chris Wilmer'
_symmetry_space_group_name_H-M	'P1'
_symmetry_Int_Tables_number	1
_symmetry_cell_setting	triclinic
loop_
_symmetry_equiv_pos_as_xyz
  x,y,z
_cell_length_a	16.992695
_cell_length_b	16.992694
_cell_length_c	16.053934
_cell_angle_alpha	87.253259
_cell_angle_beta	92.750093
_cell_angle_gamma	90.668223
loop_
_atom_site_label
_atom_site_type_symbol
_atom_site_fract_x
_atom_site_fract_y
_atom_site_fract_z
O1	O	0.170017	1.047750	0.069325
O2	O	0.670017	1.547750	0.569325
O3	O	0.168187	0.819348	0.069349
O4	O	0.668187	1.319348	0.569349
O5	O	0.054902	0.932634	0.069331
O6	O	0.554902	1.432634	0.569331
O7	O	0.283302	0.934464	0.069344
O8	O	0.783302	1.434464	0.569344
O9	O	0.048687	0.938834	-0.069527
O10	O	0.548687	1.438834	0.430473
O11	O	0.161972	0.825549	-0.069508
O12	O	0.661972	1.325549	0.430492
O13	O	0.163802	1.053950	-0.069533
O14	O	0.663802	1.553950	0.430467
Zn15	Zn	0.161901	0.940734	-0.091567
Zn16	Zn	0.661901	1.440734	0.408433
Zn17	Zn	0.170089	0.932564	0.091384
Zn18	Zn	0.670089	1.432564	0.591384
O19	O	0.277088	0.940665	-0.069514
O20	O	0.777088	1.440665	0.430486
C21	C	0.162724	0.793088	-0.000076
C22	C	0.662724	1.293088	0.499924
C23	C	0.155696	0.705603	-0.000067
C24	C	0.655696	1.205603	0.499933
C25	C	0.223514	0.659612	-0.000064
C26	C	0.723514	1.159612	0.499936
C27	C	0.216904	0.577412	-0.000076
C28	C	0.716904	1.077412	0.499924
C29	C	0.142476	0.541204	-0.000085
C30	C	0.642476	1.041204	0.499915
C31	C	0.074653	0.587202	-0.000091
C32	C	0.574653	1.087202	0.499909
C33	C	0.081263	0.669400	-0.000085
C34	C	0.581263	1.169400	0.499915
C35	C	0.115081	0.295891	-0.000109
C36	C	0.615081	0.795891	0.499891
C37	C	0.108476	0.213686	-0.000112
C38	C	0.608476	0.713686	0.499888
C39	C	0.250728	0.203902	-0.000099
C40	C	0.750728	0.703902	0.499901
C41	C	0.257332	0.286103	-0.000088
C42	C	0.757332	0.786103	0.499912
C43	C	0.189508	0.332093	-0.000098
C44	C	0.689508	0.832093	0.499902
N45	N	0.135719	0.457182	-0.000094
N46	N	0.635719	0.957182	0.499906
N47	N	0.196266	0.416114	-0.000094
N48	N	0.696266	0.916114	0.499906
C49	C	0.022434	0.933378	-0.000098
C50	C	0.522434	1.433378	0.499902
C51	C	-0.065050	0.926349	-0.000097
C52	C	0.434950	1.426349	0.499903
C53	C	-0.111042	0.994168	-0.000105
C54	C	0.388958	1.494168	0.499895
C55	C	-0.193242	0.987558	-0.000096
C56	C	0.306758	1.487558	0.499904
C57	C	-0.229450	0.913130	-0.000086
C58	C	0.270550	1.413130	0.499914
C59	C	-0.183452	0.845307	-0.000075
C60	C	0.316548	1.345307	0.499925
C61	C	-0.101253	0.851917	-0.000078
C62	C	0.398747	1.351917	0.499922
C63	C	-0.474763	0.885735	-0.000071
C64	C	0.025237	1.385735	0.499929
C65	C	-0.556969	0.879131	-0.000071
C66	C	-0.056969	1.379131	0.499929
C67	C	-0.566753	1.021383	-0.000091
C68	C	-0.066753	1.521383	0.499909
C69	C	-0.484552	1.027986	-0.000099
C70	C	0.015448	1.527986	0.499901
C71	C	-0.438561	0.960163	-0.000083
C72	C	0.061439	1.460163	0.499917
N73	N	-0.313472	0.906373	-0.000079
N74	N	0.186528	1.406373	0.499921
N75	N	-0.354541	0.966921	-0.000084
N76	N	0.145459	1.466921	0.499916
C77	C	0.309555	0.939920	-0.000084
C78	C	0.809555	1.439920	0.499916
C79	C	0.397040	0.946949	-0.000079
C80	C	0.897040	1.446949	0.499921
C81	C	0.169265	1.080210	-0.000105
C82	C	0.669265	1.580210	0.499895
C83	C	0.176294	1.167695	-0.000109
C84	C	0.676294	1.667695	0.499891
N85	N	0.156312	0.946316	-0.216426
N86	N	0.656312	1.446316	0.283574
C87	C	0.204496	0.898101	-0.260132
C88	C	0.704496	1.398101	0.239868
C89	C	0.200584	0.902029	-0.347538
C90	C	0.700584	1.402029	0.152462
C91	C	0.148485	0.954166	-0.391236
C92	C	0.648485	1.454166	0.108764
C93	C	0.100300	1.002386	-0.347523
C94	C	0.600300	1.502386	0.152477
C95	C	0.104216	0.998462	-0.260119
C96	C	0.604216	1.498462	0.239881
C97	C	0.131402	0.971285	-0.652641
C98	C	0.631402	1.471285	-0.152641
C99	C	0.127488	0.975203	-0.740051
C100	C	0.627488	1.475203	-0.240051
C101	C	0.227774	0.874846	-0.740060
C102	C	0.727774	1.374846	-0.240060
C103	C	0.231682	0.870924	-0.652654
C104	C	0.731682	1.370924	-0.152654
C105	C	0.183499	0.919146	-0.608949
C106	C	0.683499	1.419146	-0.108949
N107	N	0.144485	0.958180	-0.480578
N108	N	0.644485	1.458180	0.019422
N109	N	0.187505	0.915136	-0.519608
N110	N	0.687505	1.415136	-0.019608
N111	N	0.175671	0.926989	0.216242
N112	N	0.675671	1.426989	0.716242
H113	H	0.047865	0.184208	-0.000119
H114	H	0.547865	0.684208	0.499881
O115	O	0.247422	0.855114	-0.389865
O116	O	0.747422	1.355114	0.110135
C117	C	0.294257	0.808267	-0.332554
C118	C	0.794257	1.308267	0.167446
H119	H	0.264712	0.802558	-0.270253
H120	H	0.764712	1.302558	0.229747
H121	H	0.301161	0.747290	-0.357819
H122	H	0.801161	1.247290	0.142181
H123	H	0.354768	0.837071	-0.323247
H124	H	0.854768	1.337071	0.176753
O125	O	0.329579	0.321379	-0.000171
O126	O	0.829579	0.821379	0.499829
C127	C	0.334462	0.371856	-0.072079
C128	C	0.834462	0.871856	0.427921
H129	H	0.272630	0.389482	-0.096082
H130	H	0.772630	0.889482	0.403918
H131	H	0.369915	0.426869	-0.055872
H132	H	0.869915	0.926869	0.444128
H133	H	0.364791	0.340038	-0.122430
H134	H	0.864791	0.840038	0.377570
H135	H	0.246917	0.855642	-0.224559
H136	H	0.746917	1.355642	0.275441
O137	O	0.316525	0.159112	-0.000133
O138	O	0.816525	0.659112	0.499867
C139	C	0.294737	0.078796	-0.000119
C140	C	0.794737	0.578796	0.499881
H141	H	0.231533	0.072951	-0.026411
H142	H	0.731533	0.572951	0.473589
H143	H	0.335845	0.046239	-0.040434
H144	H	0.835845	0.546239	0.459566
H145	H	0.299216	0.052252	0.066496
H146	H	0.799216	0.552252	0.566496
H147	H	0.267003	0.835587	-0.775653
H148	H	0.767003	1.335587	-0.275653
H149	H	0.026038	0.706846	-0.000087
H150	H	0.526038	1.206846	0.499913
H151	H	-0.455077	1.088593	-0.000108
H152	H	0.044923	1.588593	0.499892
H153	H	-0.604207	1.076601	-0.000102
H154	H	-0.104207	1.576601	0.499898
H155	H	0.274105	0.828469	-0.617077
H156	H	0.774105	1.328469	-0.117077
H157	H	-0.586447	0.818520	-0.000076
H158	H	-0.086447	1.318520	0.499924
O159	O	0.002415	0.551904	-0.000064
O160	O	0.502415	1.051904	0.499936
C161	C	0.011120	0.469491	-0.000087
C162	C	0.511120	0.969491	0.499913
H163	H	0.072519	0.452880	0.026206
H164	H	0.572519	0.952880	0.526206
H165	H	-0.035012	0.439572	0.040222
H166	H	0.464988	0.939572	0.540222
H167	H	0.002893	0.449380	-0.066705
H168	H	0.502893	0.949380	0.433295
H169	H	-0.437328	0.830508	-0.000059
H170	H	0.062672	1.330508	0.499941
O171	O	-0.218750	0.773069	-0.000101
O172	O	0.281250	1.273069	0.499899
C173	C	-0.301163	0.781774	-0.000082
C174	C	0.198837	1.281774	0.499918
H175	H	-0.317774	0.843171	-0.026378
H176	H	0.182226	1.343171	0.473622
H177	H	-0.331083	0.735639	-0.040391
H178	H	0.168917	1.235639	0.459609
H179	H	-0.321273	0.773553	0.066535
H180	H	0.178727	1.273553	0.566535
O181	O	0.049121	0.340440	-0.000078
O182	O	0.549121	0.840440	0.499922
C183	C	-0.017986	0.290853	-0.000106
C184	C	0.482014	0.790853	0.499894
H185	H	-0.000666	0.229649	0.026185
H186	H	0.499334	0.729649	0.526185
H187	H	-0.064020	0.316218	0.040203
H188	H	0.435980	0.816218	0.540203
H189	H	-0.043536	0.286596	-0.066725
H190	H	0.456464	0.786596	0.433275
O191	O	-0.075844	1.066458	-0.000262
O192	O	0.424156	1.566458	0.499738
C193	C	-0.031797	1.077746	-0.072168
C194	C	0.468203	1.577746	0.427832
H195	H	-0.056042	1.037639	-0.122430
H196	H	0.443958	1.537639	0.377570
H197	H	-0.036278	1.141805	-0.096312
H198	H	0.463722	1.641805	0.403688
H199	H	0.032544	1.062923	-0.055909
H200	H	0.532544	1.562923	0.444091
H201	H	0.064981	1.037724	-0.224534
H202	H	0.564981	1.537724	0.275466
O203	O	-0.237803	1.053519	-0.000147
O204	O	0.262197	1.553519	0.499853
C205	C	-0.188218	1.120627	-0.000144
C206	C	0.311782	1.620627	0.499856
H207	H	-0.129367	1.105657	-0.026430
H208	H	0.370633	1.605657	0.473570
H209	H	-0.217197	1.170258	-0.040468
H210	H	0.282803	1.670258	0.459532
H211	H	-0.177993	1.140232	0.066468
H212	H	0.322007	1.640232	0.566468
O213	O	-0.056693	0.785960	-0.000107
O214	O	0.443307	1.285960	0.499893
C215	C	-0.106274	0.718848	-0.000075
C216	C	0.393726	1.218848	0.499925
H217	H	-0.167481	0.736160	-0.026369
H218	H	0.332519	1.236160	0.473631
H219	H	-0.080906	0.672811	-0.040379
H220	H	0.419094	1.172811	0.459621
H221	H	-0.110528	0.693306	0.066546
H222	H	0.389472	1.193306	0.566546
H223	H	0.085060	1.017662	-0.775626
H224	H	0.585060	1.517662	-0.275626
O225	O	0.084514	1.018151	-0.610323
O226	O	0.584514	1.518151	-0.110323
C227	C	0.037704	1.065019	-0.667637
C228	C	0.537704	1.565019	-0.167637
H229	H	0.031985	1.035483	-0.729945
H230	H	0.531985	1.535483	-0.229945
H231	H	-0.023273	1.071959	-0.642386
H232	H	0.476727	1.571959	-0.142386
H233	H	0.066545	1.125513	-0.676926
H234	H	0.566545	1.625513	-0.176926
O235	O	0.049604	1.052919	-0.390009
O236	O	0.549604	1.552919	0.109991
C237	C	-0.003878	1.009987	-0.440587
C238	C	0.496122	1.509987	0.059413
H239	H	-0.007952	0.946644	-0.414251
H240	H	0.492048	1.446644	0.085749
H241	H	-0.064462	1.038229	-0.441579
H242	H	0.435538	1.538229	0.058421
H243	H	0.017531	1.010373	-0.506828
H244	H	0.517531	1.510373	-0.006828
O245	O	0.295873	0.694656	-0.000091
O246	O	0.795873	1.194656	0.499909
C247	C	0.354313	0.636432	-0.000071
C248	C	0.854313	1.136432	0.499929
H249	H	0.327573	0.580451	-0.026365
H250	H	0.827573	1.080451	0.473635
H251	H	0.404164	0.658564	-0.040380
H252	H	0.904164	1.158564	0.459620
H253	H	0.378460	0.623199	0.066547
H254	H	0.878460	1.123199	0.566547
H255	H	0.272129	0.539969	-0.000072
H256	H	0.772129	1.039969	0.499928
