data_functionalizedCrystal
_audit_creation_method	'MofGen! by Chris Wilmer'
_symmetry_space_group_name_H-M	'P1'
_symmetry_Int_Tables_number	1
_symmetry_cell_setting	triclinic
loop_
_symmetry_equiv_pos_as_xyz
  x,y,z
_cell_length_a	12.759401
_cell_length_b	12.759400
_cell_length_c	12.759393
_cell_angle_alpha	90.030879
_cell_angle_beta	90.018496
_cell_angle_gamma	90.014805
loop_
_atom_site_label
_atom_site_type_symbol
_atom_site_fract_x
_atom_site_fract_y
_atom_site_fract_z
Zn1	Zn	1.606256	-0.418200	0.593986
Zn2	Zn	1.606150	-0.593919	0.418309
Zn3	Zn	1.430558	-0.418255	0.418326
Zn4	Zn	1.430547	-0.593838	0.593950
O5	O	1.518378	-0.506053	0.506143
O6	O	1.753263	-0.441520	0.570690
O7	O	1.582818	-0.570673	0.271290
O8	O	1.453913	-0.271226	0.441650
O9	O	1.753185	-0.570620	0.441621
O10	O	1.582998	-0.271186	0.570707
O11	O	1.453811	-0.441614	0.271302
O12	O	1.283535	-0.441535	0.441615
O13	O	1.453894	-0.570482	0.740976
O14	O	1.283527	-0.570536	0.570645
O15	O	1.582987	-0.441442	0.741003
O16	O	1.582807	-0.740929	0.441585
O17	O	1.453792	-0.740870	0.570628
C18	C	1.245410	-0.506033	0.506128
C19	C	1.128634	-0.506050	0.506147
C20	C	1.073795	-0.573328	0.573222
C21	C	0.964071	-0.573342	0.573234
C22	C	0.964034	-0.438796	0.439086
C23	C	1.073756	-0.438778	0.439081
C24	C	1.073815	-0.651010	0.650668
C25	C	0.964091	-0.651024	0.650680
C26	C	1.518315	-0.779020	0.506124
C27	C	1.518385	-0.895797	0.506151
C28	C	1.585570	-0.950548	0.573408
C29	C	1.585629	-1.060272	0.573437
C30	C	1.451315	-1.060484	0.438942
C31	C	1.451251	-0.950762	0.438920
C32	C	1.623188	-1.210099	0.697405
C33	C	1.690390	-1.264853	0.764653
C34	C	1.792875	-1.229145	0.780863
C35	C	1.828179	-1.138683	0.729811
C36	C	1.760984	-1.083934	0.662555
C37	C	1.658484	-1.119641	0.646364
C38	C	1.413703	-0.800934	0.314950
C39	C	1.346512	-0.746182	0.247688
C40	C	1.244025	-0.781889	0.231467
C41	C	1.208724	-0.872354	0.282501
C42	C	1.275915	-0.927105	0.349763
C43	C	1.378401	-0.891391	0.365986
C44	C	1.792411	-0.506073	0.506158
C45	C	1.909187	-0.506082	0.506164
C46	C	1.518451	-0.505947	0.780176
C47	C	1.518483	-0.505902	0.896953
C48	C	1.518469	-0.232019	0.506184
C49	C	1.518507	-0.115243	0.506202
C50	C	1.518365	-0.506083	0.233175
C51	C	1.518537	-0.505832	0.116399
C52	C	1.585710	-0.438704	0.951831
C53	C	1.585735	-0.438666	1.061555
C54	C	1.451302	-0.573033	1.061514
C55	C	1.451272	-0.573064	0.951792
C56	C	1.663328	-0.361131	0.951855
C57	C	1.663353	-0.361093	1.061579
H58	H	0.919339	-0.384025	0.384484
F59	F	1.764328	-0.399252	0.907363
H60	H	1.539733	-1.239175	0.684223
H61	H	1.107829	-0.728262	0.621385
F62	F	0.925141	-0.757343	0.621987
F63	F	1.864394	-1.287423	0.852433
H64	H	1.634239	-0.283784	1.095626
F65	F	1.769710	-0.389565	1.100507
H66	H	0.930093	-0.621980	0.728031
H67	H	1.103623	-0.629311	0.732075
H68	H	1.247165	-1.000767	0.391318
F69	F	1.132116	-0.367156	0.367707
F70	F	1.099648	-0.910364	0.265232
H71	H	1.640233	-0.905798	0.628154
H72	H	1.789729	-1.010283	0.620986
F73	F	1.937265	-1.100694	0.747055
F74	F	1.652814	-1.361128	0.818983
F75	F	1.634875	-0.254785	0.912955
F76	F	1.379869	-1.118991	0.367395
H77	H	1.375265	-0.672524	0.206128
F78	F	1.172520	-0.723621	0.159867
H79	H	1.497151	-0.771842	0.328167
H80	H	1.396525	-0.627780	0.907114
H81	H	1.396579	-0.627712	1.106177
