data_functionalizedCrystal
_audit_creation_method	'MofGen! by Chris Wilmer'
_symmetry_space_group_name_H-M	'P1'
_symmetry_Int_Tables_number	1
_symmetry_cell_setting	triclinic
loop_
_symmetry_equiv_pos_as_xyz
  x,y,z
_cell_length_a	16.959455
_cell_length_b	29.839131
_cell_length_c	29.839125
_cell_angle_alpha	89.982291
_cell_angle_beta	89.988873
_cell_angle_gamma	90.038367
loop_
_atom_site_label
_atom_site_type_symbol
_atom_site_fract_x
_atom_site_fract_y
_atom_site_fract_z
Zn1	Zn	1.208242	-0.178953	-0.253995
Zn2	Zn	1.208122	-0.254065	-0.178865
Zn3	Zn	1.076077	-0.178946	-0.178879
Zn4	Zn	1.075985	-0.254053	-0.253968
O5	O	1.142107	-0.216504	-0.216427
O6	O	1.318837	-0.188925	-0.244034
O7	O	1.190595	-0.244102	-0.116000
O8	O	1.093698	-0.116080	-0.188860
O9	O	1.318749	-0.244109	-0.188837
O10	O	1.190798	-0.116085	-0.244048
O11	O	1.093582	-0.188913	-0.116010
O12	O	0.965454	-0.188901	-0.188834
O13	O	1.093541	-0.244088	-0.316838
O14	O	0.965387	-0.244081	-0.244001
O15	O	1.190709	-0.188913	-0.316858
O16	O	1.190505	-0.316930	-0.188810
O17	O	1.093425	-0.316921	-0.243988
C18	C	0.936740	-0.216489	-0.216416
C19	C	0.848884	-0.216494	-0.216422
C20	C	1.141964	-0.333227	-0.216404
C21	C	1.141975	-0.383161	-0.216410
C22	C	0.477419	-0.187748	-0.187761
C23	C	0.477397	-0.245297	-0.245118
C24	C	0.559943	-0.245291	-0.245115
C25	C	0.601231	-0.216513	-0.216434
C26	C	0.559972	-0.187742	-0.187756
C27	C	0.601208	-0.274065	-0.273789
C28	C	0.683759	-0.274060	-0.273788
C29	C	0.725048	-0.245279	-0.245109
C30	C	0.683784	-0.216507	-0.216430
C31	C	0.725072	-0.187729	-0.187749
C32	C	0.683810	-0.158953	-0.159072
C33	C	0.601261	-0.158961	-0.159077
C34	C	0.807596	-0.245272	-0.245103
C35	C	0.807625	-0.187722	-0.187744
C36	C	1.192748	-0.692797	-0.187738
C37	C	1.192846	-0.880470	-0.187755
O38	O	1.235902	-0.904728	-0.163360
N39	N	1.142270	-0.903946	-0.216460
C40	C	1.091671	-0.880502	-0.245166
O41	O	1.048661	-0.904776	-0.269585
C42	C	1.091578	-0.692829	-0.245150
C43	C	1.142151	-0.669355	-0.216440
C44	C	1.243318	-0.669322	-0.159030
C45	C	1.243290	-0.622407	-0.159024
C46	C	1.192692	-0.598966	-0.187726
C47	C	1.142123	-0.622440	-0.216434
C48	C	1.040983	-0.669386	-0.273857
C49	C	1.040966	-0.622465	-0.273852
C50	C	1.091538	-0.598990	-0.245141
C51	C	1.091498	-0.552083	-0.245130
N52	N	1.142073	-0.528606	-0.216425
C53	C	1.192670	-0.552048	-0.187723
C54	C	1.091722	-0.979032	-0.245171
C55	C	1.091744	-1.025950	-0.245174
C56	C	1.192920	-1.025915	-0.187764
C57	C	1.192894	-0.978996	-0.187759
C58	C	1.142297	-0.955556	-0.216466
C59	C	1.192607	-0.453522	-0.187712
C60	C	1.192572	-0.406602	-0.187708
C61	C	1.091400	-0.406642	-0.245119
C62	C	1.091431	-0.453557	-0.245122
C63	C	1.142041	-0.476996	-0.216417
O64	O	1.048471	-0.527796	-0.269516
O65	O	1.235686	-0.527765	-0.163314
C66	C	1.192776	-0.739712	-0.187743
C67	C	1.142207	-0.763186	-0.216451
C68	C	1.091609	-0.739745	-0.245153
C69	C	1.142229	-0.810104	-0.216455
C70	C	1.192826	-0.833545	-0.187753
C71	C	1.243401	-0.810069	-0.159047
C72	C	1.243374	-0.763153	-0.159041
C73	C	1.041034	-0.763221	-0.273859
C74	C	1.041065	-0.810137	-0.273862
C75	C	1.091663	-0.833578	-0.245160
C76	C	1.348275	-0.216519	-0.216437
C77	C	1.436131	-0.216526	-0.216442
C78	C	1.142128	-0.216500	-0.333605
C79	C	1.142137	-0.216498	-0.383539
C80	C	1.142271	-0.099326	-0.216459
C81	C	1.142342	-0.049391	-0.216472
C82	C	1.192786	-0.187693	-0.693196
C83	C	1.192825	-0.187655	-0.880870
O84	O	1.235829	-0.163206	-0.905146
N85	N	1.142242	-0.216378	-0.904325
C86	C	1.091642	-0.245111	-0.880859
O87	O	1.048613	-0.269537	-0.905115
C88	C	1.091599	-0.245146	-0.693186
C89	C	1.142191	-0.216425	-0.669734
C90	C	1.243373	-0.158973	-0.669744
C91	C	1.243366	-0.158985	-0.622828
C92	C	1.192771	-0.187716	-0.599365
C93	C	1.142184	-0.216436	-0.622818
C94	C	1.040996	-0.273876	-0.669721
C95	C	1.040988	-0.273882	-0.622800
C96	C	1.091580	-0.245160	-0.599347
C97	C	1.091582	-0.245179	-0.552440
N98	N	1.142165	-0.216456	-0.528985
C99	C	1.192760	-0.187725	-0.552448
C100	C	1.091669	-0.245090	-0.979389
C101	C	1.091680	-0.245082	-1.026307
C102	C	1.192863	-0.187626	-1.026315
C103	C	1.192855	-0.187637	-0.979396
C104	C	1.142252	-0.216367	-0.955934
C105	C	1.192741	-0.187751	-0.453922
C106	C	1.192732	-0.187767	-0.407002
C107	C	1.091547	-0.245221	-0.406999
C108	C	1.091559	-0.245208	-0.453914
C109	C	1.142159	-0.216469	-0.477374
O110	O	1.048594	-0.269611	-0.528135
O111	O	1.235770	-0.163295	-0.528183
C112	C	1.192793	-0.187682	-0.740112
C113	C	1.142206	-0.216401	-0.763565
C114	C	1.091611	-0.245133	-0.740102
C115	C	1.142217	-0.216393	-0.810482
C116	C	1.192812	-0.187662	-0.833945
C117	C	1.243395	-0.158939	-0.810490
C118	C	1.243387	-0.158950	-0.763575
C119	C	1.041028	-0.273856	-0.763557
C120	C	1.041040	-0.273842	-0.810473
C121	C	1.091635	-0.245111	-0.833935
C122	C	1.142131	-0.216476	-0.099704
C123	C	1.142275	-0.216351	-0.049770
H124	H	0.841236	-0.164285	-0.164391
Cl125	Cl	0.977419	-0.733760	-0.309945
H126	H	0.717437	-0.135524	-0.135718
H127	H	0.999772	-0.297274	-0.603700
H128	H	0.999876	-0.829245	-0.297241
Cl129	Cl	0.977393	-0.309988	-0.699193
H130	H	0.717347	-0.297490	-0.297138
H131	H	1.284473	-0.603297	-0.135647
H132	H	1.234075	-0.959886	-0.164381
H133	H	1.233932	-0.164378	-0.387909
H134	H	0.567659	-0.135534	-0.135730
H135	H	0.443820	-0.164318	-0.164414
Cl136	Cl	1.256527	-1.055392	-0.151681
Cl137	Cl	1.027961	-0.281318	-0.483398
Cl138	Cl	1.256350	-0.151621	-0.483407
Cl139	Cl	0.549300	-0.310254	-0.309828
H140	H	0.999828	-0.297253	-0.744458
H141	H	1.050492	-0.268475	-1.045398
H142	H	1.284593	-0.135546	-0.829602
H143	H	1.284524	-0.688403	-0.135657
H144	H	1.050463	-0.268489	-0.960291
H145	H	0.841188	-0.268701	-0.268450
H146	H	1.050357	-0.268615	-0.387887
H147	H	0.999844	-0.297235	-0.829564
Cl148	Cl	0.425492	-0.281482	-0.281162
Cl149	Cl	1.306965	-0.122872	-0.593352
Cl150	Cl	1.256155	-0.377095	-0.151612
Cl151	Cl	1.306996	-0.122855	-0.699231
H152	H	1.233821	-0.472600	-0.164339
H153	H	1.050555	-1.045059	-0.268549
Cl154	Cl	1.028107	-0.949571	-0.281262
Cl155	Cl	0.977410	-0.698884	-0.309958
Cl156	Cl	0.977356	-0.593000	-0.309943
Cl157	Cl	1.256456	-0.151527	-0.949918
Cl158	Cl	1.306991	-0.122840	-0.734098
H159	H	1.050253	-0.472671	-0.268502
Cl160	Cl	1.027799	-0.377164	-0.281202
Cl161	Cl	1.256465	-0.151506	-1.055819
H162	H	1.284555	-0.744044	-0.135663
H163	H	1.284597	-0.829163	-0.135676
