data_functionalizedCrystal
_audit_creation_method	'MofGen! by Chris Wilmer'
_symmetry_space_group_name_H-M	'P1'
_symmetry_Int_Tables_number	1
_symmetry_cell_setting	triclinic
loop_
_symmetry_equiv_pos_as_xyz
  x,y,z
_cell_length_a	19.077105
_cell_length_b	12.759400
_cell_length_c	12.759393
_cell_angle_alpha	90.030609
_cell_angle_beta	87.681091
_cell_angle_gamma	92.288832
loop_
_atom_site_label
_atom_site_type_symbol
_atom_site_fract_x
_atom_site_fract_y
_atom_site_fract_z
Zn1	Zn	1.076055	0.482844	-0.658529
Zn2	Zn	1.075985	0.658556	-0.482845
Zn3	Zn	0.958353	0.475826	-0.475808
Zn4	Zn	0.958345	0.651412	-0.651429
O5	O	1.017184	0.567160	-0.567153
O6	O	1.174538	0.512080	-0.641140
O7	O	1.060355	0.634369	-0.334889
O8	O	0.973999	0.329738	-0.500072
O9	O	1.174486	0.641174	-0.512066
O10	O	1.060475	0.334894	-0.634317
O11	O	0.973931	0.500119	-0.329719
O12	O	0.859860	0.493191	-0.493188
O13	O	0.973986	0.628998	-0.799394
O14	O	0.859854	0.622193	-0.622217
O15	O	1.060467	0.505152	-0.804610
O16	O	1.060347	0.804627	-0.505182
O17	O	0.973917	0.799379	-0.629040
C18	C	1.017143	0.840125	-0.567128
C19	C	1.017189	0.956904	-0.567157
C20	C	0.834319	0.556156	-0.556169
C21	C	0.756089	0.551474	-0.551495
C22	C	1.017233	0.567061	-0.841189
C23	C	1.017254	0.567019	-0.957967
C24	C	0.719351	0.616540	-0.616372
C25	C	0.645845	0.612127	-0.611986
C26	C	0.609078	0.542653	-0.542716
C27	C	0.645821	0.477580	-0.477837
C28	C	0.719325	0.481988	-0.482229
C29	C	0.389241	0.522250	-0.522392
C30	C	0.315732	0.517848	-0.518002
C31	C	0.315761	0.652395	-0.652153
C32	C	0.389267	0.656802	-0.656535
C33	C	0.426003	0.591725	-0.591659
N34	N	0.533943	0.538143	-0.538229
N35	N	0.501137	0.596231	-0.596153
C36	C	1.200764	0.578207	-0.578180
C37	C	1.278994	0.582914	-0.582879
C38	C	1.017246	0.293130	-0.567201
C39	C	1.017272	0.176355	-0.567222
C40	C	1.062243	1.014467	-0.502741
C41	C	1.062286	1.124194	-0.502776
C42	C	0.972216	1.118784	-0.631645
C43	C	0.972177	1.009060	-0.631615
C44	C	1.114242	1.017591	-0.428336
C45	C	1.114286	1.127318	-0.428371
C46	C	1.062307	0.502477	-1.125273
C47	C	1.062290	0.502520	-1.015548
C48	C	0.972237	0.631488	-1.010117
C49	C	0.972258	0.631450	-1.119841
C50	C	1.114296	0.428015	-1.128407
C51	C	1.114279	0.428058	-1.018682
C52	C	1.017176	0.567184	-0.294185
C53	C	1.017292	0.566939	-0.177416
H54	H	0.749282	0.673118	-0.672775
O55	O	0.428849	0.452084	-0.452386
H56	H	0.414751	0.368800	-0.469679
H57	H	1.166073	1.164373	-0.460689
O58	O	1.182856	0.470796	-0.977713
H59	H	1.173014	0.540631	-0.928172
H60	H	0.615879	0.421007	-0.421441
O61	O	1.094949	0.319135	-0.978078
H62	H	1.085492	0.265778	-1.045217
O63	O	1.186422	0.982370	-0.461615
H64	H	1.207545	0.935358	-0.397781
O65	O	0.606219	0.682506	-0.681757
H66	H	0.644134	0.731638	-0.730579
H67	H	1.094731	0.982471	-0.349839
O68	O	1.094991	1.165729	-0.319426
H69	H	1.085502	1.097514	-0.266064
O70	O	0.923708	0.700976	-1.176086
H71	H	0.892386	0.745829	-1.117614
H72	H	1.168808	0.453074	-1.161452
H73	H	0.935573	0.684011	-0.963227
H74	H	0.419198	0.713378	-0.712939
H75	H	1.094790	0.349538	-1.161282
O76	O	0.758955	0.411823	-0.412244
H77	H	0.721041	0.362782	-0.363328
H78	H	0.285843	0.705376	-0.704972
H79	H	0.285798	0.461262	-0.461601
H80	H	0.935569	1.161263	-0.684126
O81	O	0.923576	0.946968	-0.701079
H82	H	0.892275	1.001671	-0.745889
