data_functionalizedCrystal
_audit_creation_method	'MofGen! by Chris Wilmer'
_symmetry_space_group_name_H-M	'P1'
_symmetry_Int_Tables_number	1
_symmetry_cell_setting	triclinic
loop_
_symmetry_equiv_pos_as_xyz
  x,y,z
_cell_length_a	13.339070
_cell_length_b	16.109302
_cell_length_c	15.186229
_cell_angle_alpha	89.994701
_cell_angle_beta	89.998719
_cell_angle_gamma	99.545538
loop_
_atom_site_label
_atom_site_type_symbol
_atom_site_fract_x
_atom_site_fract_y
_atom_site_fract_z
O1	O	0.130024	1.133153	-0.073266
O2	O	0.146204	0.894828	-0.073259
O3	O	-0.009140	0.986638	-0.073259
O4	O	0.285369	1.041343	-0.073266
O5	O	-0.009143	0.986629	0.073198
O6	O	0.146202	0.894819	0.073198
O7	O	0.130022	1.133144	0.073191
Zn8	Zn	0.138112	1.013980	0.096448
Zn9	Zn	0.138115	1.013992	-0.096516
O10	O	0.285367	1.041334	0.073191
C11	C	0.145548	0.863697	-0.000030
C12	C	0.143582	0.770948	-0.000027
C13	C	0.139037	0.557553	0.079798
C14	C	0.137179	0.470404	0.079795
C15	C	0.137187	0.470425	-0.079880
C16	C	0.139037	0.557572	-0.079876
C17	C	0.139967	0.601134	-0.000034
C18	C	0.136259	0.426838	-0.000041
C19	C	0.134245	0.332348	-0.000045
C20	C	0.141979	0.695630	-0.000030
C21	C	-0.046828	0.977393	-0.000031
C22	C	-0.159121	0.949849	-0.000034
C23	C	-0.523983	1.164017	-0.000040
C24	C	-0.418479	1.189899	-0.000033
C25	C	-0.353634	1.129889	-0.000033
C26	C	-0.394304	1.043992	-0.000041
C27	C	-0.499819	1.018108	-0.000042
C28	C	-0.329470	0.983980	-0.000035
C29	C	-0.370139	0.898083	-0.000042
C30	C	-0.475644	0.872203	-0.000044
C31	C	-0.540489	0.932214	-0.000043
C32	C	-0.223955	1.009864	-0.000034
C33	C	-0.199790	0.863955	-0.000036
C34	C	-0.305295	0.838073	-0.000043
C35	C	0.323054	1.050579	-0.000038
C36	C	0.435347	1.078123	-0.000041
C37	C	0.130679	1.164275	-0.000040
C38	C	0.132644	1.257024	-0.000049
N39	N	0.138109	1.013978	0.228141
N40	N	0.138109	1.013999	-0.228209
C41	C	0.069346	1.054656	0.453863
C42	C	0.069343	1.054658	0.546053
C43	C	0.206876	0.973315	0.546062
C44	C	0.206873	0.973309	0.453874
C45	C	0.138109	1.013984	0.407777
C46	C	0.138110	1.013993	0.592155
C47	C	0.138107	1.013995	0.692111
C48	C	0.138109	1.013981	0.307815
H49	H	-0.190853	1.079801	-0.000028
H50	H	0.136431	0.434946	-0.144885
O51	O	0.136225	0.427934	0.157266
C52	C	0.134411	0.341677	0.140148
H53	H	0.102159	0.325844	0.071533
H54	H	0.214987	0.326925	0.143935
C55	C	0.106765	0.308215	0.293292
C56	C	0.067144	0.288768	0.209021
H57	H	0.065276	0.275577	0.335778
H58	H	0.107991	0.366329	0.304826
H59	H	0.173910	0.295922	0.296436
H60	H	0.000005	0.301071	0.205875
H61	H	0.065906	0.230655	0.197488
O62	O	-0.378859	1.273308	-0.000148
C63	C	-0.318567	1.292658	-0.076009
H64	H	-0.292263	1.233200	-0.101297
H65	H	-0.365192	1.318687	-0.129125
C66	C	-0.257566	1.431983	-0.021909
C67	C	-0.225251	1.358956	-0.052963
H68	H	-0.200006	1.472880	-0.007695
H69	H	-0.298188	1.418948	0.029199
H70	H	-0.296420	1.453662	-0.066177
H71	H	-0.186409	1.337271	-0.008691
H72	H	-0.184620	1.371989	-0.104063
O73	O	0.273580	0.933810	0.408964
C74	C	0.258846	0.942545	0.317712
H75	H	0.178431	0.955065	0.305126
H76	H	0.316111	0.997454	0.291541
C77	C	0.372789	0.845623	0.285849
C78	C	0.274019	0.860994	0.270390
H79	H	0.382152	0.795321	0.256657
H80	H	0.382719	0.839741	0.347327
H81	H	0.420498	0.891387	0.264039
H82	H	0.226312	0.815236	0.292209
H83	H	0.264081	0.866867	0.208914
O84	O	0.273710	0.933736	0.590706
C85	C	0.334416	0.897851	0.530257
H86	H	0.292940	0.887343	0.464545
H87	H	0.409572	0.942177	0.520443
C88	C	0.406171	0.825874	0.646958
C89	C	0.355226	0.812962	0.566251
H90	H	0.419012	0.773512	0.669161
H91	H	0.365275	0.850053	0.687684
H92	H	0.468796	0.862815	0.638768
H93	H	0.292597	0.776030	0.574444
H94	H	0.396112	0.788774	0.525527
H95	H	0.139794	0.593018	0.144811
H96	H	0.013349	1.087776	0.583574
O97	O	0.140081	0.600020	-0.157375
C98	C	0.228717	0.661197	-0.162157
H99	H	0.258180	0.677833	-0.092838
H100	H	0.289316	0.635167	-0.201558
C101	C	0.167692	0.720277	-0.292931
C102	C	0.203874	0.740716	-0.207792
H103	H	0.152371	0.769328	-0.321084
H104	H	0.107978	0.679060	-0.289712
H105	H	0.218197	0.698585	-0.325754
H106	H	0.153365	0.762397	-0.174967
H107	H	0.263580	0.781939	-0.211006
H108	H	-0.267729	1.150967	-0.000027
H109	H	-0.338423	0.768135	-0.000049
O110	O	-0.587115	1.222193	-0.000074
C111	C	-0.688959	1.180926	-0.000048
H112	H	-0.692978	1.114699	-0.027780
H113	H	-0.719470	1.177026	0.070217
C114	C	-0.748624	1.311918	-0.023414
C115	C	-0.753562	1.230579	-0.057482
H116	H	-0.788477	1.342548	-0.058839
H117	H	-0.680011	1.339722	-0.023428
H118	H	-0.774049	1.308657	0.035139
H119	H	-0.728126	1.233841	-0.116030
H120	H	-0.822173	1.202777	-0.057479
H121	H	-0.626400	0.911145	-0.000052
O122	O	-0.136667	0.805764	-0.000079
C123	C	-0.034822	0.847027	-0.000059
H124	H	-0.030800	0.913262	-0.027785
H125	H	-0.004309	0.850908	0.070204
C126	C	0.024835	0.716037	-0.023441
C127	C	0.029777	0.797385	-0.057503
H128	H	0.064685	0.685415	-0.058872
H129	H	-0.043779	0.688236	-0.023452
H130	H	0.050261	0.719283	0.035110
H131	H	0.004340	0.794139	-0.116049
H132	H	0.098389	0.825185	-0.057504
H133	H	-0.508753	0.802261	-0.000043
H134	H	0.013352	1.087775	0.416333
