data_functionalizedCrystal
_audit_creation_method	'MofGen! by Chris Wilmer'
_symmetry_space_group_name_H-M	'P1'
_symmetry_Int_Tables_number	1
_symmetry_cell_setting	triclinic
loop_
_symmetry_equiv_pos_as_xyz
  x,y,z
_cell_length_a	27.732048
_cell_length_b	17.038272
_cell_length_c	16.098538
_cell_angle_alpha	87.079695
_cell_angle_beta	92.710451
_cell_angle_gamma	86.877106
loop_
_atom_site_label
_atom_site_type_symbol
_atom_site_fract_x
_atom_site_fract_y
_atom_site_fract_z
O1	O	-0.647197	-0.089471	-0.069149
O2	O	-0.507051	-0.103608	-0.069174
O3	O	-0.576291	0.017266	-0.069155
O4	O	-0.577957	-0.210345	-0.069168
O5	O	-0.572245	0.010233	0.069357
O6	O	-0.503005	-0.110641	0.069338
O7	O	-0.643151	-0.096504	0.069363
Zn8	Zn	-0.572436	-0.104689	0.091342
Zn9	Zn	-0.577766	-0.095423	-0.091153
O10	O	-0.573911	-0.217378	0.069344
C11	C	-0.487008	-0.106827	0.000078
C12	C	-0.433312	-0.105933	0.000069
C13	C	-0.572753	0.042860	0.000100
C14	C	-0.568232	0.129600	0.000099
C15	C	-0.663194	-0.093284	0.000108
C16	C	-0.716890	-0.094178	0.000112
C17	C	-0.097506	-0.171738	0.000101
C18	C	0.104306	-0.168423	0.000109
O19	O	0.132810	-0.228597	0.000142
N20	N	0.126708	-0.096749	0.000112
C21	C	0.098654	-0.025900	0.000118
O22	O	0.122340	0.035139	0.000129
C23	C	-0.103156	-0.029216	0.000116
C24	C	-0.125556	-0.100894	0.000105
C25	C	-0.119906	-0.243410	0.000091
C26	C	-0.170356	-0.244238	0.000085
C27	C	-0.198406	-0.173394	0.000088
C28	C	-0.176006	-0.101722	0.000099
C29	C	-0.131209	0.041632	0.000128
C30	C	-0.181664	0.040797	0.000130
C31	C	-0.204064	-0.030881	0.000119
C32	C	-0.254506	-0.031705	0.000096
N33	N	-0.276908	-0.103379	0.000093
C34	C	-0.248858	-0.174223	0.000090
C35	C	0.204608	-0.024163	0.000117
C36	C	0.255060	-0.023334	0.000116
C37	C	0.260708	-0.165858	0.000109
C38	C	0.210254	-0.166686	0.000104
C39	C	0.182205	-0.095837	0.000114
C40	C	-0.354807	-0.175956	0.000075
C41	C	-0.405262	-0.176778	0.000065
C42	C	-0.410905	-0.034255	0.000077
C43	C	-0.360455	-0.033433	0.000082
C44	C	-0.332407	-0.104290	0.000084
O45	O	-0.283040	0.028436	0.000072
O46	O	-0.272552	-0.235254	0.000097
C47	C	-0.047056	-0.170910	0.000108
C48	C	-0.024656	-0.099238	0.000118
C49	C	-0.052706	-0.028394	0.000122
C50	C	0.025796	-0.098409	0.000117
C51	C	0.053846	-0.169253	0.000113
C52	C	0.031444	-0.240927	0.000111
C53	C	-0.019006	-0.241754	0.000104
C54	C	-0.030304	0.043280	0.000124
C55	C	0.020147	0.044102	0.000130
C56	C	0.048197	-0.026742	0.000126
C57	C	-0.577449	-0.242972	0.000086
C58	C	-0.581970	-0.329712	0.000082
N59	N	-0.568801	-0.111013	0.215890
C60	C	-0.609735	0.180198	0.000108
C61	C	-0.605485	0.261699	0.000099
C62	C	-0.559732	0.292601	0.000088
C63	C	-0.518226	0.241997	0.000077
C64	C	-0.522477	0.160498	0.000080
C65	C	-0.544715	0.538185	0.000074
C66	C	-0.540467	0.619691	0.000074
C67	C	-0.627727	0.639387	0.000094
C68	C	-0.631973	0.557885	0.000102
C69	C	-0.590468	0.507288	0.000086
C70	C	-0.555386	0.375908	0.000082
C71	C	-0.594814	0.423983	0.000087
N72	N	-0.581404	-0.089092	-0.215702
C73	C	-0.598202	-0.059727	0.259483
C74	C	-0.595664	-0.064159	0.346672
C75	C	-0.563728	-0.119880	0.390265
C76	C	-0.534324	-0.171168	0.346666
C77	C	-0.536860	-0.166732	0.259479
C78	C	-0.554536	-0.135945	0.653513
C79	C	-0.552004	-0.140378	0.740705
C80	C	-0.613343	-0.033367	0.740705
C81	C	-0.615878	-0.028940	0.653517
C82	C	-0.586472	-0.080225	0.609925
C83	C	-0.561135	-0.124412	0.479385
C84	C	-0.589064	-0.075689	0.520806
H85	H	-0.423497	-0.235149	0.000056
H86	H	0.054291	-0.298610	0.000104
H87	H	-0.525996	-0.185756	0.776195
H88	H	-0.512918	-0.208494	0.223986
H89	H	-0.641883	0.016432	0.618025
H90	H	0.181774	0.033534	0.000126
H91	H	-0.204500	0.098492	0.000139
H92	H	0.192020	-0.225052	0.000100
H93	H	-0.646992	0.155044	0.000122
H94	H	-0.637283	0.008387	0.776205
H95	H	-0.433753	0.023425	0.000077
H96	H	-0.508319	-0.216535	0.382165
H97	H	-0.480973	0.267164	0.000063
H98	H	-0.624209	-0.014357	0.223995
H99	H	-0.615064	-0.030318	0.485310
H100	H	-0.619604	-0.022397	0.382165
H101	H	-0.669230	0.532731	0.000111
H102	H	-0.661518	0.680591	0.000105
H103	H	-0.097072	-0.301103	0.000091
H104	H	-0.535133	-0.169783	0.514886
H105	H	-0.530594	-0.177705	0.618027
H106	H	-0.488681	0.119301	0.000073
H107	H	-0.331976	-0.233655	0.000080
H108	H	-0.503207	0.644846	0.000078
H109	H	-0.632066	0.398820	0.000077
H110	H	-0.188589	-0.302605	0.000076
H111	H	0.283555	-0.223542	0.000106
H112	H	0.273293	0.035034	0.000112
H113	H	-0.112980	0.100000	0.000138
H114	H	-0.342217	0.024934	0.000079
H115	H	-0.037239	-0.300122	0.000096
H116	H	0.038379	0.102475	0.000132
H117	H	-0.053137	0.100971	0.000129
H118	H	-0.639281	0.302893	0.000108
H119	H	-0.510918	0.496998	0.000062
H120	H	-0.518134	0.401078	0.000075
