data_functionalizedCrystal
_audit_creation_method	'MofGen! by Chris Wilmer'
_symmetry_space_group_name_H-M	'P1'
_symmetry_Int_Tables_number	1
_symmetry_cell_setting	triclinic
loop_
_symmetry_equiv_pos_as_xyz
  x,y,z
_cell_length_a	16.992694
_cell_length_b	16.992696
_cell_length_c	26.210047
_cell_angle_alpha	90.026770
_cell_angle_beta	90.014337
_cell_angle_gamma	90.668339
loop_
_atom_site_label
_atom_site_type_symbol
_atom_site_fract_x
_atom_site_fract_y
_atom_site_fract_z
O1	O	-1.050869	-0.166933	-0.042380
O2	O	-0.822469	-0.165101	-0.042395
O3	O	-0.935753	-0.051817	-0.042374
O4	O	-0.937585	-0.280217	-0.042402
O5	O	-0.935706	-0.051780	0.042484
O6	O	-0.822422	-0.165065	0.042463
O7	O	-1.050822	-0.166896	0.042478
Cu8	Cu	-0.936618	-0.165977	0.050219
Cu9	Cu	-0.936673	-0.166020	-0.050136
O10	O	-0.937538	-0.280180	0.042456
C11	C	-0.793085	-0.162727	0.000032
C12	C	-0.705601	-0.155699	0.000027
C13	C	-0.933374	-0.022439	0.000058
C14	C	-0.926345	0.065046	0.000065
C15	C	-1.080206	-0.169270	0.000049
C16	C	-1.167690	-0.176299	0.000051
N17	N	-0.936585	-0.165946	0.120803
C18	C	-0.659610	-0.223517	0.000019
C19	C	-0.577409	-0.216908	0.000027
C20	C	-0.541201	-0.142480	0.000039
C21	C	-0.587198	-0.074657	0.000049
C22	C	-0.669397	-0.081267	0.000045
C23	C	-0.295886	-0.115086	0.000056
C24	C	-0.213681	-0.108481	0.000059
C25	C	-0.203898	-0.250732	0.000038
C26	C	-0.286100	-0.257335	0.000031
C27	C	-0.332089	-0.189512	0.000043
N28	N	-0.457179	-0.135723	0.000046
N29	N	-0.416110	-0.196270	0.000040
C30	C	-0.994163	0.111037	0.000074
C31	C	-0.987554	0.193238	0.000076
C32	C	-0.913126	0.229446	0.000073
C33	C	-0.845303	0.183449	0.000062
C34	C	-0.851913	0.101250	0.000056
C35	C	-0.885731	0.474760	0.000085
C36	C	-0.879126	0.556966	0.000093
C37	C	-1.021378	0.566749	0.000106
C38	C	-1.027981	0.484547	0.000103
C39	C	-0.960158	0.438558	0.000090
N40	N	-0.906369	0.313468	0.000076
N41	N	-0.966916	0.354537	0.000083
C42	C	-0.939917	0.690441	0.000046
C43	C	-0.946944	0.602956	0.000102
N44	N	-0.936712	-0.166045	-0.120720
C45	C	-0.885925	-0.115220	0.526783
C46	C	-0.885889	-0.115198	0.313124
O47	O	-0.842763	-0.072003	0.285517
N48	N	-0.936616	-0.165959	0.286386
C49	C	-0.987359	-0.216726	0.313066
O50	O	-1.030510	-0.259895	0.285421
C51	C	-0.987398	-0.216743	0.526724
C52	C	-0.936662	-0.165985	0.553459
C53	C	-0.835194	-0.064465	0.553518
C54	C	-0.835201	-0.064474	0.606930
C55	C	-0.885938	-0.115239	0.633606
C56	C	-0.936669	-0.165994	0.606870
C57	C	-1.038144	-0.267505	0.553403
C58	C	-1.038151	-0.267504	0.606820
C59	C	-0.987415	-0.216745	0.633556
C60	C	-0.987413	-0.216767	0.686958
N61	N	-0.936686	-0.166006	0.713696
C62	C	-0.885949	-0.115242	0.687020
C63	C	-0.987333	-0.216714	0.200893
C64	C	-0.987322	-0.216711	0.147479
C65	C	-0.885854	-0.115182	0.147540
C66	C	-0.885861	-0.115190	0.200956
C67	C	-0.936606	-0.165953	0.227631
C68	C	-0.885966	-0.115265	0.799188
C69	C	-0.885974	-0.115281	0.852604
C70	C	-0.987446	-0.216806	0.852537
C71	C	-0.987435	-0.216794	0.799126
C72	C	-0.936692	-0.166017	0.772452
O73	O	-1.030522	-0.259934	0.714599
O74	O	-0.842816	-0.072067	0.714674
C75	C	-0.885918	-0.115211	0.473371
C76	C	-0.936649	-0.165966	0.446636
C77	C	-0.987387	-0.216731	0.473312
C78	C	-0.936639	-0.165963	0.393222
C79	C	-0.885901	-0.115199	0.366546
C80	C	-0.835175	-0.064438	0.393284
C81	C	-0.835181	-0.064447	0.446695
C82	C	-1.038113	-0.267492	0.446574
C83	C	-1.038102	-0.267479	0.393163
C84	C	-0.987365	-0.216715	0.366487
H85	H	-0.689084	-0.284124	0.000009
Cl86	Cl	-0.168163	-0.014908	0.000086
H87	H	-0.796688	0.063805	0.000049
H88	H	-1.079432	-0.308830	0.468288
H89	H	-0.333322	-0.059859	0.000067
H90	H	-0.844656	-0.073947	0.874369
H91	H	-0.830504	0.437325	0.000075
H92	H	-1.028658	-0.258054	0.222607
Cl93	Cl	-0.519595	-0.302169	0.000014
Cl94	Cl	-1.101914	-0.331336	0.519806
Cl95	Cl	-0.541678	0.018910	0.000067
Cl96	Cl	-0.331613	-0.350905	0.000012
Cl97	Cl	-1.101952	-0.331322	0.640352
Cl98	Cl	-0.146079	-0.335990	0.000025
H99	H	-0.844646	-0.073918	0.777477
H100	H	-0.793877	-0.023123	0.531804
Cl101	Cl	-1.051227	-0.280595	0.765515
H102	H	-0.706842	-0.026042	0.000051
H103	H	-0.793867	-0.023114	0.468458
H104	H	-0.793889	-0.023139	0.628693
Cl105	Cl	-1.087734	0.065526	0.000084
Cl106	Cl	-0.785553	0.602483	0.000091
H107	H	-1.042778	0.230680	0.000084
Cl108	Cl	-1.121551	0.439035	0.000091
H109	H	-1.076595	0.604202	0.000116
Cl110	Cl	-1.051223	-0.280625	0.886083
H111	H	-0.784702	0.212936	0.000056
Cl112	Cl	-0.822079	-0.051375	0.234560
H113	H	-0.844539	-0.073850	0.125812
Cl114	Cl	-1.051092	-0.280540	0.113875
H115	H	-0.793859	-0.023107	0.371555
Cl116	Cl	-1.101881	-0.331306	0.359559
