data_functionalizedCrystal
_audit_creation_method	'MofGen! by Chris Wilmer'
_symmetry_space_group_name_H-M	'P1'
_symmetry_Int_Tables_number	1
_symmetry_cell_setting	triclinic
loop_
_symmetry_equiv_pos_as_xyz
  x,y,z
_cell_length_a	19.288867
_cell_length_b	19.288857
_cell_length_c	9.130313
_cell_angle_alpha	89.993335
_cell_angle_beta	89.997966
_cell_angle_gamma	83.135089
loop_
_atom_site_label
_atom_site_type_symbol
_atom_site_fract_x
_atom_site_fract_y
_atom_site_fract_z
O1	O	0.921344	0.086655	-0.121755
O2	O	0.719083	0.098342	-0.121770
O3	O	0.826061	-0.008632	-0.121744
O4	O	0.814366	0.193629	-0.121780
O5	O	0.826053	-0.008636	0.121854
O6	O	0.719076	0.098339	0.121829
O7	O	0.921337	0.086651	0.121844
Cu8	Cu	0.820206	0.092495	0.144079
Cu9	Cu	0.820214	0.092498	-0.144005
O10	O	0.814359	0.193626	0.121818
C11	C	0.693203	0.097964	0.000028
C12	C	0.616100	0.096834	0.000023
C13	C	0.060538	0.088700	-0.132745
C14	C	0.132986	0.089757	-0.132750
C15	C	0.169211	0.090287	0.000035
C16	C	0.132984	0.089742	0.132836
C17	C	0.060539	0.088678	0.132837
C18	C	0.278534	0.132654	0.101758
C19	C	0.350977	0.133722	0.101751
C20	C	0.392656	0.093566	0.000035
C21	C	0.361882	0.052351	-0.101699
C22	C	0.289437	0.051287	-0.101697
C23	C	0.247765	0.091441	0.000048
C24	C	0.507430	0.095253	-0.132764
C25	C	0.579880	0.096305	-0.132764
C26	C	0.579876	0.096298	0.132826
C27	C	0.507429	0.095238	0.132822
C28	C	0.471210	0.094719	0.000023
C29	C	0.825682	-0.034511	0.000056
C30	C	0.824555	-0.111614	0.000060
C31	C	0.824033	-0.147823	-0.132726
C32	C	0.822964	-0.220269	-0.132737
C33	C	0.822431	-0.256506	0.000046
C34	C	0.822950	-0.220287	0.132850
C35	C	0.824011	-0.147842	0.132857
C36	C	0.861430	-0.376738	0.101768
C37	C	0.860373	-0.449183	0.101756
C38	C	0.819154	-0.479951	0.000029
C39	C	0.779001	-0.438267	-0.101709
C40	C	0.780063	-0.365822	-0.101702
C41	C	0.821280	-0.335061	0.000053
C42	C	0.817472	-0.594714	-0.132778
C43	C	0.816399	-0.667161	-0.132783
C44	C	0.816391	-0.667179	0.132807
C45	C	0.817457	-0.594732	0.132808
C46	C	0.818001	-0.558505	0.000012
C47	C	0.947217	0.087029	0.000043
C48	C	1.024320	0.088159	0.000038
C49	C	0.814738	0.219504	0.000014
C50	C	0.815865	0.296608	0.000001
N51	N	0.820205	0.092492	0.346702
N52	N	0.820221	0.092496	-0.346628
C53	C	0.867590	0.045143	0.423365
C54	C	0.867597	0.045143	0.576702
C55	C	0.772830	0.139847	0.576698
C56	C	0.772821	0.139843	0.423364
H57	H	0.477940	0.094828	-0.240897
H58	H	0.906181	0.006587	0.639116
O59	O	0.380891	0.173837	0.200375
C60	C	0.416312	0.222956	0.125379
H61	H	0.393256	0.231763	0.010979
H62	H	0.410244	0.274413	0.188145
H63	H	0.474076	0.202414	0.116371
H64	H	0.817888	-0.565252	0.240937
O65	O	0.614954	0.096858	-0.261888
C66	C	0.567450	0.096154	-0.379090
H67	H	0.512863	0.117382	-0.340159
H68	H	0.583867	0.130180	-0.471962
H69	H	0.567205	0.040332	-0.419923
H70	H	0.244604	0.165350	0.184604
H71	H	0.824473	-0.118331	-0.240859
H72	H	0.906172	0.006586	0.360949
H73	H	0.822535	-0.249756	-0.240870
O74	O	0.726780	0.185749	0.651337
C75	C	0.684047	0.148659	0.740038
H76	H	0.711887	0.094236	0.763017
H77	H	0.672975	0.177682	0.847857
H78	H	0.632725	0.144068	0.680969
O79	O	0.726762	0.185908	0.349111
C80	C	0.684934	0.227694	0.449652
H81	H	0.713413	0.228414	0.558945
H82	H	0.674155	0.283190	0.405323
H83	H	0.633413	0.205269	0.465987
O84	O	0.899393	-0.489566	0.200720
C85	C	0.936006	-0.446877	0.290499
H86	H	0.907991	-0.391382	0.290319
H87	H	0.938321	-0.468170	0.407102
H88	H	0.991312	-0.446560	0.246678
H89	H	0.747368	-0.331885	-0.184538
H90	H	0.815970	-0.696641	-0.240918
H91	H	0.031054	0.088274	-0.240880
O92	O	0.168258	0.090166	0.261730
C93	C	0.218212	0.030631	0.269693
H94	H	0.231752	0.010745	0.154400
H95	H	0.267342	0.044905	0.325891
H96	H	0.195936	-0.011897	0.335226
H97	H	0.162480	0.090201	-0.240882
O98	O	0.025456	0.088189	0.261961
C99	C	0.072962	0.088862	0.379165
H100	H	0.121661	0.111604	0.340237
H101	H	0.047513	0.122267	0.472035
H102	H	0.088127	0.033261	0.419999
H103	H	0.815952	-0.696681	0.240921
H104	H	0.745437	-0.463317	-0.184545
H105	H	0.264384	0.017727	-0.184529
O106	O	0.817960	-0.559620	-0.261900
C107	C	0.817280	-0.607120	-0.379107
H108	H	0.794534	-0.655818	-0.340184
H109	H	0.783874	-0.581663	-0.471978
H110	H	0.872879	-0.622287	-0.419937
O111	O	0.901520	-0.346770	0.200370
C112	C	0.950642	-0.311375	0.125322
H113	H	0.930824	-0.297858	0.009966
H114	H	0.958245	-0.261343	0.186580
H115	H	1.002578	-0.346300	0.118736
H116	H	0.395816	0.019654	-0.184530
H117	H	0.822514	-0.249795	0.240962
O118	O	0.615143	0.096718	0.261724
C119	C	0.665092	0.037179	0.269689
H120	H	0.678633	0.017292	0.154397
H121	H	0.714223	0.051448	0.325893
H122	H	0.642811	-0.005348	0.335218
H123	H	0.824433	-0.118360	0.240990
O124	O	0.472344	0.094754	0.261941
C125	C	0.519851	0.095431	0.379143
H126	H	0.568548	0.118174	0.340211
H127	H	0.494402	0.128836	0.472011
H128	H	0.535019	0.039831	0.419981
