data_functionalizedCrystal
_audit_creation_method	'MofGen! by Chris Wilmer'
_symmetry_space_group_name_H-M	'P1'
_symmetry_Int_Tables_number	1
_symmetry_cell_setting	triclinic
loop_
_symmetry_equiv_pos_as_xyz
  x,y,z
_cell_length_a	16.120490
_cell_length_b	12.827892
_cell_length_c	12.827885
_cell_angle_alpha	89.970214
_cell_angle_beta	87.082877
_cell_angle_gamma	87.107940
loop_
_atom_site_label
_atom_site_type_symbol
_atom_site_fract_x
_atom_site_fract_y
_atom_site_fract_z
Zn1	Zn	1.274622	-0.497187	-0.671786
Zn2	Zn	1.774622	0.002813	-0.171786
Zn3	Zn	1.274538	-0.671959	-0.497041
Zn4	Zn	1.774538	-0.171959	0.002959
Zn5	Zn	1.135200	-0.488355	-0.488207
Zn6	Zn	1.635200	0.011645	0.011793
Zn7	Zn	1.135188	-0.663003	-0.662893
Zn8	Zn	1.635188	-0.163003	-0.162893
O9	O	1.204887	-0.580126	-0.579982
O10	O	1.704887	-0.080126	-0.079982
O11	O	1.391278	-0.527815	-0.656025
O12	O	1.891278	-0.027815	-0.156025
O13	O	1.256024	-0.647655	-0.349631
O14	O	1.756024	-0.147655	0.150369
O15	O	1.153735	-0.343293	-0.512584
O16	O	1.653735	0.156707	-0.012584
O17	O	1.391216	-0.656219	-0.527641
O18	O	1.891216	-0.156219	-0.027641
O19	O	1.256168	-0.349782	-0.647459
O20	O	1.756168	0.150218	-0.147459
O21	O	1.153653	-0.512763	-0.343141
O22	O	1.653653	-0.012763	0.156859
O23	O	1.018531	-0.504079	-0.503960
O24	O	1.518531	-0.004079	-0.003960
O25	O	1.153715	-0.640956	-0.810310
O26	O	1.653715	-0.140956	-0.310310
O27	O	1.018522	-0.632392	-0.632301
O28	O	1.518522	-0.132392	-0.132301
O29	O	1.256156	-0.519131	-0.816845
O30	O	1.756156	-0.019131	-0.316845
O31	O	1.256012	-0.817004	-0.519017
O32	O	1.756012	-0.317004	-0.019017
O33	O	1.153633	-0.810425	-0.640867
O34	O	1.653633	-0.310425	-0.140867
C35	C	1.204835	-0.851633	-0.579960
C36	C	1.704835	-0.351633	-0.079960
C37	C	1.204889	-0.967789	-0.579990
C38	C	1.704889	-0.467789	-0.079990
C39	C	0.988276	-0.566306	-0.566207
C40	C	1.488276	-0.066306	-0.066207
C41	C	0.895609	-0.560419	-0.560339
C42	C	1.395609	-0.060419	-0.060339
C43	C	1.255610	-1.022799	-0.519769
C44	C	1.755610	-0.522799	-0.019769
C45	C	1.255667	-1.142853	-0.519799
C46	C	1.755667	-0.642853	-0.019799
C47	C	0.684675	-0.610655	-0.610422
C48	C	1.184675	-0.110655	-0.110422
C49	C	0.725951	-0.549680	-0.549624
C50	C	1.225951	-0.049680	-0.049624
C51	C	0.820357	-0.555657	-0.555588
C52	C	1.320357	-0.055657	-0.055588
C53	C	0.590259	-0.604680	-0.604459
C54	C	1.090259	-0.104680	-0.104459
C55	C	1.422344	-0.594001	-0.593811
C56	C	1.922344	-0.094001	-0.093811
C57	C	1.515011	-0.599913	-0.599704
C58	C	2.015011	-0.099913	-0.099704
C59	C	1.204944	-0.580029	-0.852556
C60	C	1.704944	-0.080029	-0.352556
C61	C	1.204968	-0.579988	-0.968710
C62	C	1.704968	-0.079988	-0.468710
C63	C	1.204962	-0.307561	-0.580028
C64	C	1.704962	0.192439	-0.080028
C65	C	1.204994	-0.191410	-0.580047
C66	C	1.704994	0.308590	-0.080047
C67	C	1.255665	-0.519693	-1.023729
C68	C	1.755665	-0.019693	-0.523729
C69	C	1.255691	-0.519649	-1.143781
C70	C	1.755691	-0.019649	-0.643781
C71	C	1.204878	-0.580150	-0.308471
C72	C	1.704878	-0.080150	0.191529
C73	C	1.205016	-0.579907	-0.192327
C74	C	1.705016	-0.079907	0.307673
H75	H	1.299088	-1.190147	-0.468239
H76	H	1.799088	-0.690147	0.031761
N77	N	1.147514	-0.648276	-1.129673
N78	N	1.647514	-0.148276	-0.629673
H79	H	1.087942	-0.628247	-1.144828
H80	H	1.587942	-0.128247	-0.644828
H81	H	1.160494	-0.723756	-1.149442
H82	H	1.660494	-0.223756	-0.649442
N83	N	1.313193	-0.451274	-1.206426
N84	N	1.813193	0.048726	-0.706426
H85	H	1.305062	-0.460936	-1.283307
H86	H	1.805062	0.039064	-0.783307
H87	H	1.300247	-0.375803	-1.186592
H88	H	1.800247	0.124197	-0.686592
H89	H	1.161578	-0.631569	-1.010485
H90	H	1.661578	-0.131569	-0.510485
N91	N	0.731777	-0.685759	-0.685283
N92	N	1.231777	-0.185759	-0.185283
H93	H	0.691080	-0.725628	-0.725027
H94	H	1.191080	-0.225628	-0.225027
H95	H	0.767932	-0.645529	-0.735956
H96	H	1.267932	-0.145529	-0.235956
N97	N	0.678842	-0.474597	-0.474736
N98	N	1.178842	0.025403	0.025264
H99	H	0.693916	-0.491683	-0.400979
H100	H	1.193916	0.008317	0.099021
H101	H	0.693967	-0.400914	-0.492109
H102	H	1.193967	0.099086	0.007891
H103	H	1.161564	-1.144122	-0.631604
H104	H	1.661564	-0.644122	-0.131604
N105	N	1.313076	-0.967471	-0.451435
N106	N	1.813076	-0.467471	0.048565
H107	H	1.372660	-0.990132	-0.471501
H108	H	1.872660	-0.490132	0.028499
H109	H	1.304821	-0.889566	-0.461124
H110	H	1.804821	-0.389566	0.038876
H111	H	1.299046	-0.468102	-0.981954
H112	H	1.799046	0.031898	-0.481954
N113	N	1.147419	-1.023116	-0.648321
N114	N	1.647419	-0.523116	-0.148321
H115	H	1.181331	-1.070490	-0.698910
H116	H	1.681331	-0.570490	-0.198910
H117	H	1.108866	-1.065959	-0.603258
H118	H	1.608866	-0.565959	-0.103258
