data_functionalizedCrystal
_audit_creation_method	'MofGen! by Chris Wilmer'
_symmetry_space_group_name_H-M	'P1'
_symmetry_Int_Tables_number	1
_symmetry_cell_setting	triclinic
loop_
_symmetry_equiv_pos_as_xyz
  x,y,z
_cell_length_a	13.032721
_cell_length_b	19.077142
_cell_length_c	19.076919
_cell_angle_alpha	89.925643
_cell_angle_beta	99.138159
_cell_angle_gamma	84.799210
loop_
_atom_site_label
_atom_site_type_symbol
_atom_site_fract_x
_atom_site_fract_y
_atom_site_fract_z
Zn1	Zn	-0.505384	-1.013394	-0.481868
Zn2	Zn	-0.005384	-0.513394	0.018132
Zn3	Zn	-0.673341	-1.003120	-0.378125
Zn4	Zn	-0.173341	-0.503120	0.121875
Zn5	Zn	-0.491387	-0.901855	-0.358511
Zn6	Zn	0.008613	-0.401855	0.141489
Zn7	Zn	-0.672708	-0.880998	-0.490822
Zn8	Zn	-0.172708	-0.380998	0.009178
O9	O	-0.585705	-0.949842	-0.427331
O10	O	-0.085705	-0.449842	0.072669
O11	O	-0.533786	-1.109819	-0.472568
O12	O	-0.033786	-0.609819	0.027432
O13	O	-0.643612	-0.994116	-0.276734
O14	O	-0.143612	-0.494116	0.223266
O15	O	-0.347070	-0.929679	-0.362918
O16	O	0.152930	-0.429679	0.137082
O17	O	-0.657184	-1.102271	-0.396348
O18	O	-0.157184	-0.602271	0.103652
O19	O	-0.357353	-1.011626	-0.453548
O20	O	0.142647	-0.511626	0.046452
O21	O	-0.509931	-0.919717	-0.262323
O22	O	-0.009931	-0.419717	0.237677
O23	O	-0.509318	-0.801300	-0.371600
O24	O	-0.009318	-0.301300	0.128400
O25	O	-0.656105	-0.894132	-0.588423
O26	O	-0.156105	-0.394132	-0.088423
O27	O	-0.642533	-0.785977	-0.468809
O28	O	-0.142533	-0.285977	0.031191
O29	O	-0.533172	-0.991402	-0.581845
O30	O	-0.033172	-0.491402	-0.081845
O31	O	-0.819431	-0.973892	-0.405030
O32	O	-0.319431	-0.473892	0.094970
O33	O	-0.818966	-0.884170	-0.487828
O34	O	-0.318966	-0.384170	0.012172
C35	C	-0.574339	-0.768283	-0.419048
C36	C	-0.074339	-0.268283	0.080952
C37	C	-0.569502	-0.690608	-0.415523
C38	C	-0.069502	-0.190608	0.084477
C39	C	-0.857102	-0.925671	-0.449545
C40	C	-0.357102	-0.425671	0.050455
C41	C	-0.973212	-0.915394	-0.459075
C42	C	-0.473212	-0.415394	0.040925
C43	C	-0.636685	-0.646151	-0.464416
C44	C	-0.136685	-0.146151	0.035584
C45	C	-0.632127	-0.573169	-0.461106
C46	C	-0.132127	-0.073169	0.038894
C47	C	-0.560391	-0.544645	-0.408901
C48	C	-0.060391	-0.044645	0.091099
C49	C	-0.493201	-0.589107	-0.360006
C50	C	0.006799	-0.089107	0.139994
C51	C	-0.497755	-0.662089	-0.363319
C52	C	0.002245	-0.162089	0.136681
C53	C	-0.539319	-0.327229	-0.393574
C54	C	-0.039319	0.172771	0.106426
C55	C	-0.534773	-0.254241	-0.390263
C56	C	-0.034773	0.245759	0.109737
C57	C	-0.673698	-0.238308	-0.491365
C58	C	-0.173698	0.261692	0.008635
C59	C	-0.678250	-0.311291	-0.494671
C60	C	-0.178250	0.188709	0.005329
C61	C	-0.611056	-0.355748	-0.445778
C62	C	-0.111056	0.144252	0.054222
N63	N	-0.555732	-0.470045	-0.405515
N64	N	-0.055732	0.029955	0.094485
N65	N	-0.615710	-0.430347	-0.449168
N66	N	-0.115710	0.069653	0.050832
C67	C	-1.025178	-0.955241	-0.422391
C68	C	-0.525178	-0.455241	0.077609
C69	C	-1.145184	-0.944620	-0.432240
C70	C	-0.645184	-0.444620	0.067760
C71	C	-0.313250	-0.974125	-0.405047
C72	C	0.186750	-0.474125	0.094953
C73	C	-0.197146	-0.984473	-0.395550
C74	C	0.302854	-0.484473	0.104450
C75	C	-0.596129	-0.941587	-0.611465
C76	C	-0.096129	-0.441587	-0.111465
C77	C	-0.600571	-0.938069	-0.689932
C78	C	-0.100571	-0.438069	-0.189932
C79	C	-0.597111	-0.132110	-0.435638
C80	C	-0.097111	0.367890	0.064362
C81	C	-0.601956	-0.209784	-0.439156
C82	C	-0.101956	0.290216	0.060844
C83	C	-0.538657	-0.987057	-0.723373
C84	C	-0.038657	-0.487057	-0.223373
C85	C	-0.542826	-0.983744	-0.797100
C86	C	-0.042826	-0.483744	-0.297100
C87	C	-0.608916	-0.931444	-0.837386
C88	C	-0.108916	-0.431444	-0.337386
C89	C	-0.670833	-0.882451	-0.803941
C90	C	-0.170833	-0.382451	-0.303941
C91	C	-0.666658	-0.885762	-0.730214
C92	C	-0.166658	-0.385762	-0.230214
C93	C	-0.628262	-0.916109	-1.058252
C94	C	-0.128262	-0.416109	-0.558252
C95	C	-0.632435	-0.912803	-1.131984
C96	C	-0.132435	-0.412803	-0.631984
C97	C	-0.504426	-1.014095	-1.125138
C98	C	-0.004426	-0.514095	-0.625138
C99	C	-0.500261	-1.017404	-1.051411
C100	C	-0.000261	-0.517404	-0.551411
C101	C	-0.562174	-0.968408	-1.017971
C102	C	-0.062174	-0.468408	-0.517971
N103	N	-0.613182	-0.928058	-0.912748
N104	N	-0.113182	-0.428058	-0.412748
N105	N	-0.557902	-0.971793	-0.942610
N106	N	-0.057902	-0.471793	-0.442610
C107	C	-0.575249	-0.958112	-0.243909
C108	C	-0.075249	-0.458112	0.256091
C109	C	-0.570521	-0.961791	-0.165425
C110	C	-0.070521	-0.461791	0.334575
H111	H	-0.695104	-0.669370	-0.506926
H112	H	-0.195104	-0.169370	-0.006926
O113	O	-1.198048	-0.894611	-0.478512
O114	O	-0.698048	-0.394611	0.021488
C115	C	-1.176316	-0.909002	-0.547404
C116	C	-0.676316	-0.409002	-0.047404
H117	H	-1.149872	-0.967312	-0.551105
H118	H	-0.649872	-0.467312	-0.051105
H119	H	-1.249701	-0.895084	-0.587851
H120	H	-0.749701	-0.395084	-0.087851
H121	H	-1.111806	-0.876250	-0.558965
H122	H	-0.611806	-0.376250	-0.058965
H123	H	-1.152797	-1.026456	-0.356852
H124	H	-0.652797	-0.526456	0.143148
H125	H	-1.017567	-0.873419	-0.497776
H126	H	-0.517567	-0.373419	0.002224
O127	O	-0.738913	-0.195199	-0.538959
O128	O	-0.238913	0.304801	-0.038959
C129	C	-0.721315	-0.211902	-0.608295
C130	C	-0.221315	0.288098	-0.108295
H131	H	-0.684558	-0.268400	-0.608917
H132	H	-0.184558	0.231600	-0.108917
H133	H	-0.798714	-0.206269	-0.646163
H134	H	-0.298714	0.293731	-0.146163
H135	H	-0.666444	-0.174543	-0.625873
H136	H	-0.166444	0.325457	-0.125873
O137	O	-0.464988	-0.226650	-0.339523
O138	O	0.035012	0.273350	0.160477
C139	C	-0.406674	-0.281536	-0.297069
C140	C	0.093326	0.218464	0.202931
H141	H	-0.408001	-0.332586	-0.328058
H142	H	0.091999	0.167414	0.171942
H143	H	-0.322621	-0.268105	-0.281937
H144	H	0.177379	0.231895	0.218063
H145	H	-0.442243	-0.288300	-0.246881
H146	H	0.057757	0.211700	0.253119
H147	H	-0.484842	-1.029647	-0.690577
H148	H	0.015158	-0.529647	-0.190577
O149	O	-0.688245	-0.868462	-1.025721
O150	O	-0.188245	-0.368462	-0.525721
C151	C	-0.623525	-0.830559	-0.976139
C152	C	-0.123525	-0.330559	-0.476139
H153	H	-0.542247	-0.832578	-0.991438
H154	H	-0.042247	-0.332578	-0.491438
H155	H	-0.657886	-0.773451	-0.975929
H156	H	-0.157886	-0.273451	-0.475929
H157	H	-0.618107	-0.854998	-0.920956
H158	H	-0.118107	-0.354998	-0.420956
H159	H	-0.484613	-0.363416	-0.353757
H160	H	0.015387	0.136584	0.146243
H161	H	-0.686836	-0.536974	-0.500919
H162	H	-0.186836	-0.036974	-0.000919
O163	O	-0.482651	-1.031407	-0.829475
O164	O	0.017349	-0.531407	-0.329475
C165	C	-0.423411	-1.078270	-0.778107
C166	C	0.076589	-0.578270	-0.278107
H167	H	-0.463374	-1.079234	-0.729162
H168	H	0.036626	-0.579234	-0.229162
H169	H	-0.416928	-1.133364	-0.801014
H170	H	0.083072	-0.633364	-0.301014
H171	H	-0.342028	-1.060108	-0.762606
H172	H	0.157972	-0.560108	-0.262606
H173	H	-0.446447	-1.059993	-1.018615
H174	H	0.053553	-0.559993	-0.518615
H175	H	-0.443042	-0.698286	-0.323509
H176	H	0.056958	-0.198286	0.176491
O177	O	-0.735008	-0.831710	-0.843182
O178	O	-0.235008	-0.331710	-0.343182
C179	C	-0.725401	-0.839281	-0.915425
C180	C	-0.225401	-0.339281	-0.415425
H181	H	-0.695141	-0.895807	-0.925161
H182	H	-0.195141	-0.395807	-0.425161
H183	H	-0.804934	-0.826307	-0.949626
H184	H	-0.304934	-0.326307	-0.449626
H185	H	-0.668363	-0.801851	-0.929904
H186	H	-0.168363	-0.301851	-0.429904
O187	O	-0.423566	-0.561476	-0.309204
O188	O	0.076434	-0.061476	0.190796
C189	C	-0.443373	-0.580417	-0.241482
C190	C	0.056627	-0.080417	0.258518
H191	H	-0.486742	-0.629901	-0.245664
H192	H	0.013258	-0.129901	0.254336
H193	H	-0.366278	-0.591039	-0.203847
H194	H	0.133722	-0.091039	0.296153
H195	H	-0.493112	-0.535631	-0.220171
H196	H	0.006888	-0.035631	0.279829
H197	H	-0.454019	-1.053983	-1.152372
H198	H	0.045981	-0.553983	-0.652372
H199	H	-0.686256	-0.870212	-1.164784
H200	H	-0.186256	-0.370212	-0.664784
H201	H	-0.717064	-0.845865	-0.702987
H202	H	-0.217064	-0.345865	-0.202987
O203	O	-0.747791	-0.339083	-0.545417
O204	O	-0.247791	0.160917	-0.045417
C205	C	-0.693638	-0.384530	-0.588147
C206	C	-0.193638	0.115470	-0.088147
H207	H	-0.613699	-0.403627	-0.557345
H208	H	-0.113699	0.096373	-0.057345
H209	H	-0.739943	-0.431639	-0.603381
H210	H	-0.239943	0.068361	-0.103381
H211	H	-0.683482	-0.355077	-0.638267
H212	H	-0.183482	0.144923	-0.138267
O213	O	-0.972214	-1.005229	-0.376139
O214	O	-0.472214	-0.505229	0.123861
C215	C	-0.904090	-0.973065	-0.323573
C216	C	-0.404090	-0.473065	0.176427
H217	H	-0.933422	-0.915327	-0.319348
H218	H	-0.433422	-0.415327	0.180652
H219	H	-0.901246	-1.000936	-0.270309
H220	H	-0.401246	-0.500936	0.229691
H221	H	-0.822517	-0.976925	-0.338555
H222	H	-0.322517	-0.476925	0.161445
