data_functionalizedCrystal
_audit_creation_method	'MofGen! by Chris Wilmer'
_symmetry_space_group_name_H-M	'P1'
_symmetry_Int_Tables_number	1
_symmetry_cell_setting	triclinic
loop_
_symmetry_equiv_pos_as_xyz
  x,y,z
_cell_length_a	12.759401
_cell_length_b	25.639239
_cell_length_c	12.759393
_cell_angle_alpha	89.964103
_cell_angle_beta	89.979541
_cell_angle_gamma	90.040809
loop_
_atom_site_label
_atom_site_type_symbol
_atom_site_fract_x
_atom_site_fract_y
_atom_site_fract_z
Zn1	Zn	1.606082	-0.208108	-0.593976
Zn2	Zn	2.106082	0.291892	-0.093976
Zn3	Zn	1.605899	-0.295552	-0.418278
Zn4	Zn	2.105899	0.204448	0.081722
Zn5	Zn	1.430382	-0.208134	-0.418311
Zn6	Zn	1.930382	0.291866	0.081689
Zn7	Zn	1.430297	-0.295516	-0.593915
Zn8	Zn	1.930297	0.204484	-0.093915
O9	O	1.518165	-0.251827	-0.506120
O10	O	2.018165	0.248173	-0.006120
O11	O	1.753079	-0.219711	-0.570681
O12	O	2.253079	0.280289	-0.070681
O13	O	1.582575	-0.283982	-0.271261
O14	O	2.082575	0.216018	0.228739
O15	O	1.453801	-0.134966	-0.441653
O16	O	1.953801	0.365034	0.058347
O17	O	1.752944	-0.283956	-0.441596
O18	O	2.252944	0.216044	0.058404
O19	O	1.582887	-0.134946	-0.570713
O20	O	2.082887	0.365054	-0.070713
O21	O	1.453624	-0.219757	-0.271286
O22	O	1.953624	0.280243	0.228714
O23	O	1.283350	-0.219722	-0.441594
O24	O	1.783350	0.280278	0.058406
O25	O	1.453656	-0.283895	-0.740944
O26	O	1.953656	0.216105	-0.240944
O27	O	1.283287	-0.283921	-0.570609
O28	O	1.783287	0.216079	-0.070609
O29	O	1.582805	-0.219676	-0.740989
O30	O	2.082805	0.280324	-0.240989
O31	O	1.582493	-0.368712	-0.441537
O32	O	2.082493	0.131288	0.058463
O33	O	1.453479	-0.368686	-0.570576
O34	O	1.953479	0.131314	-0.070576
C35	C	1.245198	-0.251821	-0.506099
C36	C	1.745198	0.248179	-0.006099
C37	C	1.128421	-0.251831	-0.506115
C38	C	1.628421	0.248169	-0.006115
C39	C	1.073554	-0.285310	-0.573188
C40	C	1.573554	0.214690	-0.073188
C41	C	0.963830	-0.285312	-0.573208
C42	C	1.463830	0.214688	-0.073208
C43	C	0.963850	-0.218354	-0.439075
C44	C	1.463850	0.281646	0.060925
C45	C	1.073572	-0.218350	-0.439060
C46	C	1.573572	0.281650	0.060940
C47	C	1.517986	-0.387670	-0.506069
C48	C	2.017986	0.112330	-0.006069
C49	C	1.518005	-0.445784	-0.506083
C50	C	2.018005	0.054216	-0.006083
C51	C	1.450975	-0.696976	-0.573290
C52	C	1.950975	-0.196976	-0.073290
C53	C	1.450936	-0.642372	-0.573277
C54	C	1.950936	-0.142372	-0.073277
O55	O	1.393772	-0.614134	-0.630384
O56	O	1.893772	-0.114134	-0.130384
N57	N	1.518137	-0.615058	-0.506137
N58	N	2.018137	-0.115058	-0.006137
C59	C	1.585389	-0.642351	-0.439013
C60	C	2.085389	-0.142351	0.060987
O61	O	1.642546	-0.614104	-0.381905
O62	O	2.142546	-0.114104	0.118095
C63	C	1.585432	-0.696954	-0.439031
C64	C	2.085432	-0.196954	0.060969
C65	C	1.518219	-0.724265	-0.506168
C66	C	2.018219	-0.224265	-0.006168
C67	C	1.383768	-0.724288	-0.640422
C68	C	1.883768	-0.224288	-0.140422
C69	C	1.383806	-0.778888	-0.640432
C70	C	1.883806	-0.278888	-0.140432
C71	C	1.451050	-0.806177	-0.573311
C72	C	1.951050	-0.306177	-0.073311
C73	C	1.518257	-0.778866	-0.506179
C74	C	2.018257	-0.278866	-0.006179
C75	C	1.652689	-0.724246	-0.371913
C76	C	2.152689	-0.224246	0.128087
C77	C	1.652727	-0.778853	-0.371937
C78	C	2.152727	-0.278853	0.128063
C79	C	1.585514	-0.806165	-0.439074
C80	C	2.085514	-0.306165	0.060926
C81	C	1.585540	-0.860756	-0.439068
C82	C	2.085540	-0.360756	0.060932
N83	N	1.518338	-0.888070	-0.506207
N84	N	2.018338	-0.388070	-0.006207
C85	C	1.451094	-0.860781	-0.573329
C86	C	1.951094	-0.360781	-0.073329
C87	C	1.585294	-0.527680	-0.438981
C88	C	2.085294	-0.027680	0.061019
C89	C	1.585246	-0.473078	-0.438957
C90	C	2.085246	0.026922	0.061043
C91	C	1.450794	-0.473103	-0.573223
C92	C	1.950794	0.026897	-0.073223
C93	C	1.450837	-0.527706	-0.573241
C94	C	1.950837	-0.027706	-0.073241
C95	C	1.518093	-0.554994	-0.506121
C96	C	2.018093	-0.054994	-0.006121
C97	C	1.451178	-0.975446	-0.573345
C98	C	1.951178	-0.475446	-0.073345
C99	C	1.451218	-1.030051	-0.573347
C100	C	1.951218	-0.530051	-0.073347
C101	C	1.585674	-1.030021	-0.439085
C102	C	2.085674	-0.530021	0.060915
C103	C	1.585630	-0.975421	-0.439079
C104	C	2.085630	-0.475421	0.060921
C105	C	1.518378	-0.948134	-0.506218
C106	C	2.018378	-0.448134	-0.006218
O107	O	1.642677	-0.889028	-0.381993
O108	O	2.142677	-0.389028	0.118007
O109	O	1.393956	-0.889034	-0.630437
O110	O	1.893956	-0.389034	-0.130437
C111	C	1.792198	-0.251834	-0.506141
C112	C	2.292198	0.248166	-0.006141
C113	C	1.908975	-0.251837	-0.506151
C114	C	2.408975	0.248163	-0.006151
C115	C	1.518241	-0.251779	-0.780153
C116	C	2.018241	0.248221	-0.280153
C117	C	1.518274	-0.251758	-0.896930
C118	C	2.018274	0.248242	-0.396930
C119	C	1.518374	-0.115454	-0.506194
C120	C	2.018374	0.384546	-0.006194
C121	C	1.518463	-0.057340	-0.506225
C122	C	2.018463	0.442660	-0.006225
C123	C	1.585447	-0.285161	-1.061515
C124	C	2.085447	0.214839	-0.561515
C125	C	1.585421	-0.285186	-0.951791
C126	C	2.085421	0.214814	-0.451791
C127	C	1.451140	-0.218307	-0.951799
C128	C	1.951140	0.281693	-0.451799
C129	C	1.451161	-0.218285	-1.061522
C130	C	1.951161	0.281715	-0.561522
C131	C	1.518150	-0.251838	-0.233153
C132	C	2.018150	0.248162	0.266847
C133	C	1.518321	-0.251712	-0.116376
C134	C	2.018321	0.248288	0.383624
H135	H	0.919162	-0.312574	-0.627827
H136	H	1.419162	0.187426	-0.127827
C137	C	1.377198	-0.945438	-0.647201
C138	C	1.877198	-0.445438	-0.147201
N139	N	1.321472	-0.922837	-0.702826
N140	N	1.821472	-0.422837	-0.202826
C141	C	1.659315	-0.321935	-1.121851
C142	C	2.159315	0.178065	-0.621851
N143	N	1.714951	-0.349637	-1.167294
N144	N	2.214951	0.150363	-0.667294
C145	C	1.659288	-0.321972	-0.891448
C146	C	2.159288	0.178028	-0.391448
N147	N	1.714935	-0.349677	-0.845998
N148	N	2.214935	0.150323	-0.345998
C149	C	1.309873	-0.808923	-0.714296
C150	C	1.809873	-0.308923	-0.214296
N151	N	1.254185	-0.831543	-0.769937
N152	N	1.754185	-0.331543	-0.269937
H153	H	1.118209	-0.312571	-0.627790
H154	H	1.618209	0.187429	-0.127790
C155	C	1.377317	-0.181484	-1.121873
C156	C	1.877317	0.318516	-0.621873
N157	N	1.321700	-0.153767	-1.167330
N158	N	1.821700	0.346233	-0.667330
C159	C	0.903505	-0.181530	-0.365313
C160	C	1.403505	0.318470	0.134687
N161	N	0.858055	-0.153794	-0.309752
N162	N	1.358055	0.346206	0.190248
H163	H	1.118246	-0.191084	-0.384442
H164	H	1.618246	0.308916	0.115558
C165	C	1.726712	-0.808867	-0.298094
C166	C	2.226712	-0.308867	0.201906
N167	N	1.782434	-0.831472	-0.242473
N168	N	2.282434	-0.331472	0.257527
H169	H	1.396483	-1.052285	-0.628020
H170	H	1.896483	-0.552285	-0.128020
C171	C	1.309807	-0.694278	-0.714288
C172	C	1.809807	-0.194278	-0.214288
N173	N	1.254097	-0.671678	-0.769931
N174	N	1.754097	-0.171678	-0.269931
C175	C	1.376905	-0.557743	-0.647102
C176	C	1.876905	-0.057743	-0.147102
N177	N	1.321218	-0.580365	-0.702741
N178	N	1.821218	-0.080365	-0.202741
C179	C	1.377286	-0.181531	-0.891449
C180	C	1.877286	0.318469	-0.391449
N181	N	1.321665	-0.153828	-0.845994
N182	N	1.821665	0.346172	-0.345994
H183	H	1.396041	-0.450874	-0.627878
H184	H	1.896041	0.049126	-0.127878
H185	H	1.639965	-0.450845	-0.384276
H186	H	2.139965	0.049155	0.115724
H187	H	1.640059	-0.549895	-0.384315
H188	H	2.140059	-0.049895	0.115685
C189	C	1.726617	-0.694216	-0.298042
C190	C	2.226617	-0.194216	0.201958
N191	N	1.782299	-0.671598	-0.242394
N192	N	2.282299	-0.171598	0.257606
H193	H	1.640350	-0.953184	-0.384400
H194	H	2.140350	-0.453184	0.115600
H195	H	1.640419	-1.052250	-0.384433
H196	H	2.140419	-0.552250	0.115567
