data_functionalizedCrystal
_audit_creation_method	'MofGen! by Chris Wilmer'
_symmetry_space_group_name_H-M	'P1'
_symmetry_Int_Tables_number	1
_symmetry_cell_setting	triclinic
loop_
_symmetry_equiv_pos_as_xyz
  x,y,z
_cell_length_a	13.032831
_cell_length_b	16.120484
_cell_length_c	13.032268
_cell_angle_alpha	99.642751
_cell_angle_beta	90.886977
_cell_angle_gamma	86.078521
loop_
_atom_site_label
_atom_site_type_symbol
_atom_site_fract_x
_atom_site_fract_y
_atom_site_fract_z
Zn1	Zn	1.458766	-0.562103	-0.811459
Zn2	Zn	1.471747	-0.686112	-0.646236
Zn3	Zn	1.311081	-0.527333	-0.615806
Zn4	Zn	1.278313	-0.681612	-0.796116
O5	O	1.379976	-0.614290	-0.717404
O6	O	1.603247	-0.594988	-0.808698
O7	O	1.469580	-0.652382	-0.497592
O8	O	1.338953	-0.415480	-0.635446
O9	O	1.612784	-0.686097	-0.687309
O10	O	1.447456	-0.441026	-0.779192
O11	O	1.351539	-0.535727	-0.475236
O12	O	1.163974	-0.531364	-0.620568
O13	O	1.283104	-0.678427	-0.942758
O14	O	1.139900	-0.644712	-0.753041
O15	O	1.415682	-0.590624	-0.954031
O16	O	1.437806	-0.801980	-0.672431
O17	O	1.295691	-0.798674	-0.782547
C18	C	1.114921	-0.583777	-0.681838
C19	C	1.001525	-0.570746	-0.666648
C20	C	0.939092	-0.621091	-0.725332
C21	C	0.821890	-0.607624	-0.709634
C22	C	1.364626	-0.830530	-0.729153
C23	C	1.358148	-0.923053	-0.734226
C24	C	1.346324	-1.092455	-0.743510
C25	C	1.413810	-1.135307	-0.691340
C26	C	1.407231	-1.229569	-0.696506
C27	C	1.352901	-0.998185	-0.738345
C28	C	1.646067	-0.644923	-0.753110
C29	C	1.759458	-0.657977	-0.768325
C30	C	1.344290	-0.637902	-0.986938
C31	C	1.329082	-0.647964	-1.101797
C32	C	1.395412	-0.397210	-0.705636
C33	C	1.401989	-0.304704	-0.700622
C34	C	1.387900	-0.609007	-1.158582
C35	C	1.372183	-0.619405	-1.277296
C36	C	1.415587	-0.590717	-0.448924
C37	C	1.431009	-0.580443	-0.334079
H38	H	0.788578	-0.554544	-0.647771
H39	H	1.283610	-1.126557	-0.792048
H40	H	1.449887	-0.567952	-1.119311
H41	H	1.310182	-0.660453	-1.316561
H42	H	1.492999	-0.539383	-1.294813
H43	H	1.267086	-0.689009	-1.141066
H44	H	0.792768	-0.711049	-0.830198
H45	H	0.968208	-0.517670	-0.604790
H46	H	0.972408	-0.674162	-0.787198
H47	H	1.476527	-1.101202	-0.642796
