data_functionalizedCrystal
_audit_creation_method	'MofGen! by Chris Wilmer'
_symmetry_space_group_name_H-M	'P1'
_symmetry_Int_Tables_number	1
_symmetry_cell_setting	triclinic
loop_
_symmetry_equiv_pos_as_xyz
  x,y,z
_cell_length_a	19.288864
_cell_length_b	15.995350
_cell_length_c	18.366186
_cell_angle_alpha	89.995992
_cell_angle_beta	89.977106
_cell_angle_gamma	83.314311
loop_
_atom_site_label
_atom_site_type_symbol
_atom_site_fract_x
_atom_site_fract_y
_atom_site_fract_z
O1	O	0.921624	0.104451	-0.060780
O2	O	1.254957	0.437785	0.272554
O3	O	1.588291	0.771118	0.605887
O4	O	0.719400	0.118542	-0.060729
O5	O	1.052733	0.451875	0.272604
O6	O	1.386066	0.785208	0.605937
O7	O	0.826040	-0.010412	-0.060755
O8	O	1.159373	0.322921	0.272578
O9	O	1.492706	0.656255	0.605911
O10	O	0.814984	0.233405	-0.060754
O11	O	1.148317	0.566738	0.272579
O12	O	1.481651	0.900072	0.605913
O13	O	0.826022	-0.010418	0.060344
O14	O	1.159355	0.322915	0.393677
O15	O	1.492688	0.656248	0.727011
O16	O	0.719382	0.118535	0.060370
O17	O	1.052715	0.451869	0.393703
O18	O	1.386048	0.785202	0.727037
O19	O	0.921606	0.104445	0.060320
O20	O	1.254939	0.437778	0.393653
O21	O	1.588272	0.771112	0.726986
Zn22	Zn	0.820491	0.111489	0.079572
Zn23	Zn	1.153824	0.444823	0.412905
Zn24	Zn	1.487158	0.778156	0.746239
Zn25	Zn	0.820515	0.111498	-0.079982
Zn26	Zn	1.153848	0.444831	0.253352
Zn27	Zn	1.487181	0.778164	0.586685
O28	O	0.814966	0.233399	0.060346
O29	O	1.148299	0.566732	0.393679
O30	O	1.481632	0.900065	0.727012
C31	C	0.693513	0.118085	-0.000173
C32	C	1.026846	0.451419	0.333160
C33	C	1.360180	0.784752	0.666493
C34	C	0.616406	0.116724	-0.000154
C35	C	0.949739	0.450058	0.333179
C36	C	1.283073	0.783391	0.666512
C37	C	0.571906	0.192388	-0.000165
C38	C	0.905239	0.525722	0.333168
C39	C	1.238573	0.859055	0.666501
C40	C	0.499456	0.191110	-0.000173
C41	C	0.832789	0.524443	0.333160
C42	C	1.166122	0.857776	0.666493
C43	C	0.471508	0.114163	-0.000185
C44	C	0.804842	0.447496	0.333148
C45	C	1.138175	0.780829	0.666482
C46	C	0.516018	0.038489	-0.000170
C47	C	0.849351	0.371822	0.333163
C48	C	1.182685	0.705155	0.666497
C49	C	0.588467	0.039769	-0.000155
C50	C	0.921800	0.373103	0.333179
C51	C	1.255134	0.706436	0.666512
C52	C	0.363096	0.053676	-0.042636
C53	C	0.696429	0.387009	0.290697
C54	C	1.029762	0.720343	0.624030
C55	C	0.290648	0.052398	-0.042656
C56	C	0.623981	0.385732	0.290677
C57	C	0.957315	0.719065	0.624011
C58	C	0.248053	0.110209	-0.000229
C59	C	0.581386	0.443543	0.333104
C60	C	0.914719	0.776876	0.666438
C61	C	0.277912	0.169312	0.042208
C62	C	0.611246	0.502645	0.375542
C63	C	0.944579	0.835979	0.708875
C64	C	0.350361	0.170593	0.042224
C65	C	0.683695	0.503926	0.375557
C66	C	1.017028	0.837259	0.708890
C67	C	0.392951	0.112765	-0.000201
C68	C	0.726284	0.446099	0.333132
C69	C	1.059617	0.779432	0.666465
C70	C	0.124993	0.184492	-0.000248
C71	C	0.458327	0.517826	0.333086
C72	C	0.791660	0.851159	0.666419
C73	C	0.052542	0.183210	-0.000251
C74	C	0.385875	0.516544	0.333082
C75	C	0.719208	0.849877	0.666415
C76	C	0.069106	0.030587	-0.000255
C77	C	0.402439	0.363920	0.333078
C78	C	0.735773	0.697254	0.666411
C79	C	0.141556	0.031871	-0.000244
C80	C	0.474889	0.365204	0.333089
C81	C	0.808222	0.698538	0.666422
C82	C	0.169495	0.108826	-0.000244
C83	C	0.502828	0.442159	0.333089
C84	C	0.836161	0.775493	0.666423
C85	C	0.825574	-0.041608	-0.000207
C86	C	1.158907	0.291725	0.333127
C87	C	1.492240	0.625059	0.666460
C88	C	0.824203	-0.134553	-0.000211
C89	C	1.157537	0.198780	0.333123
C90	C	1.490870	0.532113	0.666456
C91	C	0.819282	-0.472282	-0.000207
C92	C	1.152616	-0.138949	0.333126
C93	C	1.485949	0.194384	0.666460
C94	C	0.743335	-0.424562	-0.000460
C95	C	1.076669	-0.091228	0.332874
C96	C	1.410002	0.242105	0.666207
C97	C	0.744706	-0.327877	-0.000187
C98	C	1.078039	0.005457	0.333146
C99	C	1.411373	0.338790	0.666480
C100	C	0.821723	-0.304731	-0.000209
C101	C	1.155057	0.028602	0.333124
C102	C	1.488390	0.361936	0.666458
C103	C	0.859173	-0.345953	0.068934
C104	C	1.192506	-0.012620	0.402267
C105	C	1.525839	0.320713	0.735601
C106	C	0.857265	-0.442582	0.068992
C107	C	1.190598	-0.109249	0.402326
C108	C	1.523931	0.224085	0.735659
C109	C	0.858854	-0.442939	-0.068721
C110	C	1.192188	-0.109605	0.264613
C111	C	1.525521	0.223728	0.597946
C112	C	0.858836	-0.345993	-0.069635
C113	C	1.192170	-0.012660	0.263699
C114	C	1.525503	0.320673	0.597032
C115	C	0.823107	-0.210039	-0.000208
C116	C	1.156440	0.123295	0.333125
C117	C	1.489774	0.456628	0.666459
C118	C	0.817901	-0.566975	-0.000203
C119	C	1.151234	-0.233642	0.333130
C120	C	1.484568	0.099692	0.666463
C121	C	0.947492	0.104902	-0.000238
C122	C	1.280826	0.438235	0.333095
C123	C	1.614159	0.771568	0.666429
C124	C	1.024600	0.106263	-0.000262
C125	C	1.357933	0.439596	0.333072
C126	C	1.691266	0.772929	0.666405
C127	C	0.815432	0.264595	-0.000204
C128	C	1.148765	0.597928	0.333129
C129	C	1.482099	0.931262	0.666462
C130	C	0.816802	0.357540	-0.000206
C131	C	1.150136	0.690873	0.333128
C132	C	1.483469	1.024207	0.666461
N133	N	0.820480	0.111483	0.188463
N134	N	1.153813	0.444816	0.521796
N135	N	1.487146	0.778150	0.855130
N136	N	0.820531	0.111497	-0.188873
N137	N	1.153865	0.444830	0.144461
N138	N	1.487198	0.778164	0.477794
C139	C	0.867715	0.054410	0.226552
C140	C	1.201049	0.387744	0.559885
C141	C	1.534382	0.721077	0.893219
C142	C	0.867720	0.054407	0.302780
C143	C	1.201053	0.387740	0.636113
C144	C	1.534386	0.721073	0.969447
C145	C	0.820495	0.111490	0.340916
C146	C	1.153828	0.444823	0.674249
C147	C	1.487162	0.778157	1.007583
C148	C	0.773250	0.168567	0.302818
C149	C	1.106584	0.501900	0.636151
C150	C	1.439917	0.835234	0.969484
C151	C	0.773243	0.168564	0.226591
C152	C	1.106576	0.501897	0.559925
C153	C	1.439909	0.835230	0.893258
C154	C	0.811395	0.187781	0.461678
C155	C	1.144728	0.521114	0.795011
C156	C	1.478062	0.854448	1.128345
C157	C	0.811407	0.187785	0.537903
C158	C	1.144741	0.521119	0.871236
C159	C	1.478074	0.854452	1.204570
C160	C	0.820515	0.111500	0.576023
C161	C	1.153848	0.444834	0.909357
C162	C	1.487181	0.778167	1.242690
C163	C	0.829624	0.035208	0.537909
C164	C	1.162958	0.368541	0.871243
C165	C	1.496291	0.701874	1.204576
C166	C	0.829617	0.035204	0.461683
C167	C	1.162950	0.368537	0.795016
C168	C	1.496283	0.701871	1.128350
C169	C	0.820498	0.111500	0.423571
C170	C	1.153831	0.444833	0.756904
C171	C	1.487165	0.778166	1.090237
C172	C	0.867758	0.054419	0.696767
C173	C	1.201091	0.387752	1.030101
C174	C	1.534425	0.721086	1.363434
C175	C	0.867757	0.054414	0.772996
C176	C	1.201091	0.387747	1.106330
C177	C	1.534424	0.721081	1.439663
C178	C	0.773292	0.168582	0.773033
C179	C	1.106625	0.501915	1.106366
C180	C	1.439958	0.835248	1.439699
C181	C	0.773289	0.168579	0.696805
C182	C	1.106622	0.501913	1.030138
C183	C	1.439955	0.835246	1.363472
C184	C	0.820525	0.111499	0.658677
C185	C	1.153859	0.444832	0.992010
C186	C	1.487192	0.778166	1.325344
H187	H	0.624700	-0.021848	-0.000146
H188	H	0.958033	0.311486	0.333187
H189	H	1.291366	0.644819	0.666521
Br190	Br	0.692749	-0.455249	-0.083103
Br191	Br	1.026082	-0.121915	0.250230
Br192	Br	1.359415	0.211418	0.583563
H193	H	0.906220	0.007934	0.804009
H194	H	1.239554	0.341267	1.137342
H195	H	1.572887	0.674601	1.470676
Br196	Br	0.478092	-0.065941	-0.000178
Br197	Br	0.811425	0.267393	0.333155
Br198	Br	1.144759	0.600726	0.666488
H199	H	0.715267	-0.299341	-0.049751
H200	H	1.048601	0.033992	0.283583
H201	H	1.381934	0.367326	0.616916
Br202	Br	-0.007854	0.285907	-0.000260
Br203	Br	0.325480	0.619240	0.333074
Br204	Br	0.658813	0.952574	0.666407
Br205	Br	0.817475	-0.476999	-0.156071
Br206	Br	1.150808	-0.143666	0.177262
Br207	Br	1.484142	0.189667	0.510596
Br208	Br	0.709154	0.246033	0.354571
Br209	Br	1.042487	0.579366	0.687904
Br210	Br	1.375821	0.912699	1.021237
Br211	Br	0.420897	-0.024791	-0.100219
Br212	Br	0.754231	0.308542	0.233114
Br213	Br	1.087564	0.641876	0.566448
H214	H	0.243232	0.216387	0.076757
H215	H	0.576566	0.549720	0.410091
H216	H	0.909899	0.883053	0.743424
Br217	Br	0.813584	-0.299863	-0.154904
Br218	Br	1.146917	0.033471	0.178429
Br219	Br	1.480251	0.366804	0.511763
H220	H	0.734838	0.215057	0.804083
H221	H	1.068171	0.548390	1.137416
H222	H	1.401504	0.881724	1.470749
H223	H	0.837032	-0.026916	0.430654
H224	H	1.170365	0.306417	0.763987
H225	H	1.503699	0.639751	1.097321
Br226	Br	0.931830	-0.023057	0.354481
Br227	Br	1.265163	0.310276	0.687815
Br228	Br	1.598496	0.643610	1.021148
Br229	Br	0.841994	-0.068330	0.589634
Br230	Br	1.175327	0.265004	0.922967
Br231	Br	1.508660	0.598337	1.256301
H232	H	0.829941	-0.460783	0.120694
H233	H	1.163275	-0.127450	0.454027
H234	H	1.496608	0.205884	0.787360
Br235	Br	0.709132	0.246024	0.174895
Br236	Br	1.042465	0.579358	0.508228
Br237	Br	1.375798	0.912691	0.841561
H238	H	0.734828	0.215057	0.665791
H239	H	1.068161	0.548390	0.999124
H240	H	1.401494	0.881723	1.332458
Br241	Br	0.950196	-0.496686	0.074204
Br242	Br	1.283529	-0.163353	0.407538
Br243	Br	1.616863	0.169980	0.740871
H244	H	0.594649	0.255051	-0.000166
H245	H	0.927982	0.588384	0.333167
H246	H	1.261316	0.921718	0.666500
Br247	Br	0.692807	-0.457432	0.081495
Br248	Br	1.026140	-0.124098	0.414828
Br249	Br	1.359474	0.209235	0.748162
Br250	Br	0.815798	-0.298494	0.154723
Br251	Br	1.149131	0.034839	0.488056
Br252	Br	1.482465	0.368173	0.821389
Br253	Br	0.695281	-0.281243	0.082585
Br254	Br	1.028614	0.052090	0.415919
Br255	Br	1.361947	0.385424	0.749252
Br256	Br	0.162915	0.288928	-0.000242
Br257	Br	0.496248	0.622261	0.333091
Br258	Br	0.829582	0.955595	0.666424
H259	H	0.374670	0.218714	0.076780
H260	H	0.708003	0.552047	0.410114
H261	H	1.041337	0.885380	0.743447
Br262	Br	0.031186	-0.073843	-0.000259
Br263	Br	0.364519	0.259490	0.333074
Br264	Br	0.697852	0.592823	0.666408
H265	H	0.915001	-0.330843	-0.073826
H266	H	1.248335	0.002490	0.259507
H267	H	1.581668	0.335824	0.592841
H268	H	0.177789	-0.029743	-0.000239
H269	H	0.511122	0.303590	0.333094
H270	H	0.844455	0.636924	0.666427
H271	H	0.803966	0.249905	0.430647
H272	H	1.137300	0.583239	0.763980
H273	H	1.470633	0.916572	1.097313
H274	H	0.906219	0.007938	0.665722
H275	H	1.239552	0.341271	0.999055
H276	H	1.572886	0.674605	1.332389
H277	H	0.914850	-0.474911	-0.069202
H278	H	1.248183	-0.141577	0.264132
H279	H	1.581516	0.191756	0.597465
Br280	Br	0.250130	-0.027800	-0.100259
Br281	Br	0.583463	0.305533	0.233074
Br282	Br	0.916797	0.638866	0.566408
H283	H	0.915755	-0.332041	0.071489
H284	H	1.249088	0.001292	0.404823
H285	H	1.582422	0.334626	0.738156
Br286	Br	0.439051	0.293804	-0.000184
Br287	Br	0.772384	0.627137	0.333149
Br288	Br	1.105718	0.960471	0.666483
Br289	Br	0.931818	-0.023056	0.174806
Br290	Br	1.265151	0.310277	0.508139
Br291	Br	1.598485	0.643610	0.841473
Br292	Br	0.799053	0.291324	0.589621
Br293	Br	1.132386	0.624657	0.922955
Br294	Br	1.465719	0.957990	1.256288
