data_functionalizedCrystal
_audit_creation_method	'MofGen! by Chris Wilmer'
_symmetry_space_group_name_H-M	'P1'
_symmetry_Int_Tables_number	1
_symmetry_cell_setting	triclinic
loop_
_symmetry_equiv_pos_as_xyz
  x,y,z
_cell_length_a	14.044220
_cell_length_b	17.699103
_cell_length_c	16.176319
_cell_angle_alpha	89.988235
_cell_angle_beta	89.997715
_cell_angle_gamma	88.239969
loop_
_atom_site_label
_atom_site_type_symbol
_atom_site_fract_x
_atom_site_fract_y
_atom_site_fract_z
O1	O	1.257306	0.182443	-0.068676
O2	O	1.757306	0.682443	0.431324
O3	O	0.981352	0.175860	-0.068696
O4	O	1.481352	0.675860	0.431304
O5	O	1.127116	0.069500	-0.068670
O6	O	1.627116	0.569500	0.431330
O7	O	1.111542	0.288802	-0.068703
O8	O	1.611542	0.788802	0.431297
O9	O	1.127096	0.069492	0.068823
O10	O	1.627096	0.569492	0.568823
O11	O	0.981332	0.175851	0.068797
O12	O	1.481332	0.675851	0.568797
O13	O	1.257286	0.182434	0.068817
O14	O	1.757286	0.682434	0.568817
Cu15	Cu	1.119307	0.179142	0.081361
Cu16	Cu	1.619307	0.679142	0.581361
Cu17	Cu	1.119331	0.179152	-0.081240
Cu18	Cu	1.619331	0.679152	0.418760
O19	O	1.111522	0.288794	0.068791
O20	O	1.611522	0.788794	0.568791
C21	C	0.946034	0.172974	0.000048
C22	C	1.446034	0.672974	0.500048
C23	C	0.840827	0.164378	0.000041
C24	C	1.340827	0.664378	0.500041
C25	C	1.126545	0.041261	0.000079
C26	C	1.626545	0.541261	0.500079
C27	C	1.124861	-0.042873	0.000086
C28	C	1.624861	0.457127	0.500086
C29	C	1.114574	-0.559290	-0.074917
C30	C	1.614574	-0.059290	0.425083
C31	C	1.116154	-0.480238	-0.074909
C32	C	1.616154	0.019762	0.425091
C33	C	1.116932	-0.440730	0.000043
C34	C	1.616932	0.059270	0.500043
C35	C	1.116138	-0.480278	0.074993
C36	C	1.616138	0.019722	0.574993
C37	C	1.114564	-0.559330	0.074985
C38	C	1.614564	-0.059330	0.574985
C39	C	1.122487	-0.161474	0.075028
C40	C	1.622487	0.338526	0.575028
C41	C	1.124058	-0.082417	0.075031
C42	C	1.624058	0.417583	0.575031
C43	C	1.124077	-0.082382	-0.074866
C44	C	1.624077	0.417618	0.425134
C45	C	1.122503	-0.161433	-0.074874
C46	C	1.622503	0.338567	0.425126
C47	C	1.121714	-0.200975	0.000075
C48	C	1.621714	0.299025	0.500075
C49	C	1.120002	-0.286693	0.000066
C50	C	1.620002	0.213307	0.500066
C51	C	1.118637	-0.355013	0.000053
C52	C	1.618637	0.144987	0.500053
C53	C	0.648200	0.148662	0.000060
C54	C	1.148200	0.648662	0.500060
C55	C	0.590432	0.209628	0.000054
C56	C	1.090432	0.709628	0.500054
C57	C	0.483248	0.200884	0.000064
C58	C	0.983248	0.700884	0.500064
C59	C	0.755394	0.157405	0.000049
C60	C	1.255394	0.657405	0.500049
C61	C	1.292604	0.185321	0.000071
C62	C	1.792604	0.685321	0.500071
C63	C	1.397811	0.193916	0.000073
C64	C	1.897811	0.693916	0.500073
C65	C	1.112094	0.317033	0.000040
C66	C	1.612094	0.817033	0.500040
C67	C	1.113777	0.401167	0.000028
C68	C	1.613777	0.901167	0.500028
N69	N	1.119297	0.179135	0.195726
N70	N	1.619297	0.679135	0.695726
N71	N	1.119348	0.179154	-0.195606
N72	N	1.619348	0.679154	0.304394
C73	C	1.183861	0.132061	0.239002
C74	C	1.683861	0.632061	0.739002
C75	C	1.183866	0.132061	0.325549
C76	C	1.683866	0.632061	0.825549
C77	C	1.119311	0.179138	0.368819
C78	C	1.619311	0.679138	0.868819
C79	C	1.054740	0.226214	0.325537
C80	C	1.554740	0.726214	0.825537
C81	C	1.054732	0.226210	0.238991
C82	C	1.554732	0.726210	0.738991
C83	C	1.054773	0.226230	0.674565
C84	C	1.554773	0.726230	1.174565
C85	C	1.054788	0.226232	0.761117
C86	C	1.554788	0.726232	1.261117
C87	C	1.183907	0.132081	0.761123
C88	C	1.683907	0.632081	1.261123
C89	C	1.183898	0.132077	0.674578
C90	C	1.683898	0.632077	1.174578
C91	C	1.119325	0.179149	0.631303
C92	C	1.619325	0.679149	1.131303
C93	C	1.119319	0.179148	0.537459
C94	C	1.619319	0.679148	1.037459
C95	C	1.119320	0.179144	0.462662
C96	C	1.619320	0.679144	0.962662
H97	H	1.116804	-0.448045	-0.135936
H98	H	1.616804	0.051955	0.364064
H99	H	0.621473	0.268390	0.000041
H100	H	1.121473	0.768390	0.500041
N101	N	1.124925	-0.039759	-0.155724
N102	N	1.624925	0.460241	0.344276
H103	H	1.065920	-0.051359	-0.188476
H104	H	1.565920	0.448641	0.311524
H105	H	1.126075	0.016305	-0.144312
H106	H	1.626075	0.516305	0.355688
N107	N	1.253556	0.081307	0.807797
N108	N	1.753556	0.581307	1.307797
H109	H	1.243768	0.088448	0.869190
H110	H	1.743768	0.588448	1.369190
H111	H	1.242734	0.026877	0.792683
H112	H	1.742734	0.526877	1.292683
N113	N	0.607083	0.070833	0.000077
N114	N	1.107083	0.570833	0.500077
H115	H	0.566562	0.064503	-0.050888
H116	H	1.066562	0.564503	0.449112
H117	H	0.660616	0.031404	0.000110
H118	H	1.160616	0.531404	0.500110
N119	N	1.116975	-0.437662	0.155832
N120	N	1.616975	0.062338	0.655832
H121	H	1.057971	-0.449263	0.188594
H122	H	1.557971	0.050737	0.688594
H123	H	1.175463	-0.453609	0.188537
H124	H	1.675463	0.046391	0.688537
H125	H	1.113932	-0.591451	-0.135952
H126	H	1.613932	-0.091451	0.364048
N127	N	1.253495	0.081289	0.192336
N128	N	1.753495	0.581289	0.692336
H129	H	1.294395	0.051467	0.232887
H130	H	1.794395	0.551467	0.732887
H131	H	1.217288	0.045365	0.156441
H132	H	1.717288	0.545365	0.656441
N133	N	1.121686	-0.204060	-0.155707
N134	N	1.621686	0.295940	0.344293
H135	H	1.179767	-0.239019	-0.159018
H136	H	1.679767	0.260981	0.340982
H137	H	1.062275	-0.234654	-0.159007
H138	H	1.562275	0.265346	0.340993
N139	N	1.253535	0.081317	0.372227
N140	N	1.753535	0.581317	0.872227
H141	H	1.294443	0.051506	0.331683
H142	H	1.794443	0.551506	0.831683
H143	H	1.295349	0.113168	0.408105
H144	H	1.795349	0.613168	0.908105
N145	N	0.985100	0.276987	0.192314
N146	N	1.485100	0.776987	0.692314
H147	H	0.994887	0.269840	0.130922
H148	H	1.494887	0.769840	0.630922
H149	H	0.917893	0.263674	0.207454
H150	H	1.417893	0.763674	0.707454
H151	H	1.236468	0.093745	0.639350
H152	H	1.736468	0.593745	1.139350
H153	H	1.124686	-0.050252	0.136070
H154	H	1.624686	0.449748	0.636070
H155	H	1.002216	0.264569	0.796345
H156	H	1.502216	0.764569	1.296345
H157	H	1.002197	0.264559	0.639338
H158	H	1.502197	0.764559	1.139338
H159	H	1.121846	-0.193660	0.136057
H160	H	1.621846	0.306340	0.636057
H161	H	1.113915	-0.591525	0.136013
H162	H	1.613915	-0.091525	0.636013
H163	H	1.002174	0.264542	0.360772
H164	H	1.502174	0.764542	0.860772
