data_functionalizedCrystal
_audit_creation_method	'MofGen! by Chris Wilmer'
_symmetry_space_group_name_H-M	'P1'
_symmetry_Int_Tables_number	1
_symmetry_cell_setting	triclinic
loop_
_symmetry_equiv_pos_as_xyz
  x,y,z
_cell_length_a	19.121063
_cell_length_b	19.121141
_cell_length_c	16.959447
_cell_angle_alpha	92.456185
_cell_angle_beta	92.406624
_cell_angle_gamma	89.873858
loop_
_atom_site_label
_atom_site_type_symbol
_atom_site_fract_x
_atom_site_fract_y
_atom_site_fract_z
Zn1	Zn	-0.324898	-1.059818	-0.513363
Zn2	Zn	0.175102	-0.559818	-0.013363
Zn3	Zn	-0.442141	-1.054732	-0.386559
Zn4	Zn	0.057859	-0.554732	0.113441
Zn5	Zn	-0.319915	-0.942589	-0.375333
Zn6	Zn	0.180085	-0.442589	0.124667
Zn7	Zn	-0.437086	-0.937543	-0.512829
Zn8	Zn	0.062914	-0.437543	-0.012829
O9	O	-0.381010	-0.998671	-0.447021
O10	O	0.118990	-0.498671	0.052979
O11	O	-0.344651	-1.157248	-0.501464
O12	O	0.155349	-0.657248	-0.001464
O13	O	-0.425958	-1.039839	-0.274460
O14	O	0.074042	-0.539839	0.225540
O15	O	-0.222473	-0.962380	-0.389169
O16	O	0.277527	-0.462380	0.110831
O17	O	-0.430789	-1.153511	-0.408302
O18	O	0.069211	-0.653511	0.091698
O19	O	-0.226134	-1.048508	-0.490578
O20	O	0.273866	-0.548508	0.009422
O21	O	-0.336159	-0.957448	-0.266212
O22	O	0.163841	-0.457448	0.233788
O23	O	-0.331258	-0.843815	-0.388651
O24	O	0.168742	-0.343815	0.111349
O25	O	-0.422174	-0.953780	-0.623510
O26	O	0.077826	-0.453780	-0.123510
O27	O	-0.417343	-0.840108	-0.489669
O28	O	0.082657	-0.340108	0.010331
O29	O	-0.339749	-1.043615	-0.623903
O30	O	0.160251	-0.543615	-0.123903
O31	O	-0.539574	-1.034946	-0.407784
O32	O	-0.039574	-0.534946	0.092216
O33	O	-0.535860	-0.948848	-0.500554
O34	O	-0.035860	-0.448848	-0.000554
C35	C	-0.373211	-0.816524	-0.437884
C36	C	0.126789	-0.316524	0.062116
C37	C	-0.369892	-0.738600	-0.433995
C38	C	0.130108	-0.238600	0.066005
C39	C	-0.413220	-0.700077	-0.484686
C40	C	0.086780	-0.200077	0.015314
C41	C	-0.410092	-0.626859	-0.481035
C42	C	0.089908	-0.126859	0.018965
C43	C	-0.363639	-0.592167	-0.426689
C44	C	0.136361	-0.092167	0.073311
C45	C	-0.320306	-0.630695	-0.375995
C46	C	0.179694	-0.130695	0.124005
C47	C	-0.323431	-0.703912	-0.379651
C48	C	0.176569	-0.203912	0.120349
C49	C	-0.351954	-0.371197	-0.413028
C50	C	0.148046	0.128803	0.086972
C51	C	-0.348834	-0.297976	-0.409374
C52	C	0.151166	0.202024	0.090626
C53	C	-0.438619	-0.294145	-0.514415
C54	C	0.061381	0.205855	-0.014415
C55	C	-0.441743	-0.367362	-0.518063
C56	C	0.058257	0.132638	-0.018063
C57	C	-0.398408	-0.405885	-0.467373
C58	C	0.101592	0.094115	0.032627
C59	C	-0.360442	-0.517327	-0.422954
C60	C	0.139558	-0.017327	0.077046
C61	C	-0.401602	-0.480724	-0.471112
C62	C	0.098398	0.019276	0.028888
C63	C	-0.563155	-0.990817	-0.455348
C64	C	-0.063155	-0.490817	0.044652
C65	C	-0.641080	-0.987521	-0.458939
C66	C	-0.141080	-0.487521	0.041061
C67	C	-0.679601	-1.030834	-0.412370
C68	C	-0.179601	-0.530834	0.087630
C69	C	-0.752820	-1.027739	-0.415753
C70	C	-0.252820	-0.527739	0.084247
C71	C	-0.787516	-0.981326	-0.465701
C72	C	-0.287516	-0.481326	0.034299
C73	C	-0.748990	-0.938011	-0.512276
C74	C	-0.248990	-0.438011	-0.012276
C75	C	-0.675772	-0.941111	-0.508897
C76	C	-0.175772	-0.441111	-0.008897
C77	C	-1.008489	-0.969727	-0.478322
C78	C	-0.508489	-0.469727	0.021678
C79	C	-1.081712	-0.966629	-0.481696
C80	C	-0.581712	-0.466629	0.018304
C81	C	-1.085537	-1.056358	-0.385173
C82	C	-0.585537	-0.556358	0.114827
C83	C	-1.012318	-1.059450	-0.381795
C84	C	-0.512318	-0.559450	0.118205
C85	C	-0.973798	-1.016138	-0.428373
C86	C	-0.473798	-0.516138	0.071627
C87	C	-0.862357	-0.978160	-0.469158
C88	C	-0.362357	-0.478160	0.030842
C89	C	-0.898958	-1.019309	-0.424919
C90	C	-0.398958	-0.519309	0.075081
C91	C	-0.198155	-1.006574	-0.438681
C92	C	0.301845	-0.506574	0.061319
C93	C	-0.120233	-1.009942	-0.435127
C94	C	0.379767	-0.509942	0.064873
C95	C	-0.380953	-0.998702	-0.653188
C96	C	0.119047	-0.498702	-0.153188
C97	C	-0.380929	-0.998716	-0.741045
C98	C	0.119071	-0.498716	-0.241045
C99	C	-0.388836	-0.181529	-0.456185
C100	C	0.111164	0.318471	0.043815
C101	C	-0.392162	-0.259452	-0.460065
C102	C	0.107838	0.240548	0.039935
C103	C	-0.423773	-0.952030	-1.112319
C104	C	0.076227	-0.452030	-0.612319
C105	C	-0.337944	-1.045576	-1.112723
C106	C	0.162056	-0.545576	-0.612723
C107	C	-0.337958	-1.045556	-1.030177
C108	C	0.162042	-0.545556	-0.530177
C109	C	-0.380881	-0.998774	-0.988698
C110	C	0.119119	-0.498774	-0.488698
C111	C	-0.423790	-0.952011	-1.029766
C112	C	0.076210	-0.452011	-0.529766
C113	C	-0.295055	-1.092324	-0.989103
C114	C	0.204945	-0.592324	-0.489103
C115	C	-0.295068	-1.092307	-0.906552
C116	C	0.204932	-0.592307	-0.406552
C117	C	-0.337988	-1.045520	-0.865072
C118	C	0.162012	-0.545520	-0.365072
C119	C	-0.380898	-0.998754	-0.906144
C120	C	0.119102	-0.498754	-0.406144
C121	C	-0.423821	-0.951972	-0.864666
C122	C	0.076179	-0.451972	-0.364666
C123	C	-0.466728	-0.905202	-0.905737
C124	C	0.033272	-0.405202	-0.405737
C125	C	-0.466710	-0.905224	-0.988285
C126	C	0.033290	-0.405224	-0.488285
C127	C	-0.338006	-1.045498	-0.782523
C128	C	0.161994	-0.545498	-0.282523
C129	C	-0.423838	-0.951953	-0.782112
C130	C	0.076162	-0.451953	-0.282112
C131	C	-0.381018	-0.998682	-0.241656
C132	C	0.118982	-0.498682	0.258344
C133	C	-0.380850	-0.998812	-0.153798
C134	C	0.119150	-0.498812	0.346202
H135	H	-0.322621	-0.489072	-0.378703
H136	H	0.177379	0.010928	0.121297
H137	H	-0.439420	-0.508974	-0.515364
H138	H	0.060580	-0.008974	-0.015364
C139	C	-1.127910	-1.104002	-0.333949
C140	C	-0.627910	-0.604002	0.166051
H141	H	-1.176485	-1.095515	-0.343118
H142	H	-0.676485	-0.595515	0.156882
H143	H	-1.115517	-1.094282	-0.279766
H144	H	-0.615517	-0.594282	0.220234
H145	H	-1.117876	-1.151611	-0.347375
H146	H	-0.617876	-0.651611	0.152625
C147	C	-0.275772	-0.746291	-0.323893
C148	C	0.224228	-0.246291	0.176107
H149	H	-0.284281	-0.794864	-0.333858
H150	H	0.215719	-0.294864	0.166142
H151	H	-0.285457	-0.733837	-0.270630
H152	H	0.214543	-0.233837	0.229370
H153	H	-0.228168	-0.736323	-0.332804
H154	H	0.271832	-0.236323	0.167196
H155	H	-0.501679	-0.867115	-0.871954
H156	H	-0.001679	-0.367115	-0.371954
H157	H	-0.473899	-0.262772	-0.555686
H158	H	0.026101	0.237228	-0.055686
H159	H	-0.984070	-1.097243	-0.341123
H160	H	-0.484070	-0.597243	0.158877
C161	C	-0.247835	-1.143771	-1.034728
C162	C	0.252165	-0.643771	-0.534728
H163	H	-0.253962	-1.137074	-1.089772
H164	H	0.246038	-0.637074	-0.589772
H165	H	-0.260106	-1.190432	-1.024035
H166	H	0.239894	-0.690432	-0.524035
H167	H	-0.200296	-1.135531	-1.018534
H168	H	0.299704	-0.635531	-0.518534
H169	H	-0.977132	-0.934459	-0.516246
H170	H	-0.477132	-0.434459	-0.016246
H171	H	-0.651356	-1.068625	-0.371693
H172	H	-0.151356	-0.568625	0.128307
C173	C	-0.492837	-0.405520	-0.577849
C174	C	0.007163	0.094480	-0.077849
H175	H	-0.518190	-0.372090	-0.607521
H176	H	-0.018190	0.127910	-0.107521
H177	H	-0.524568	-0.432758	-0.550378
H178	H	-0.024568	0.067242	-0.050378
H179	H	-0.467270	-0.435245	-0.612542
H180	H	0.032730	0.064755	-0.112542
C181	C	-0.297740	-0.259811	-0.349586
C182	C	0.202260	0.240189	0.150414
H183	H	-0.302096	-0.210689	-0.354662
H184	H	0.197904	0.289311	0.145338
H185	H	-0.251158	-0.273834	-0.359680
H186	H	0.248842	0.226166	0.140320
H187	H	-0.308462	-0.271358	-0.297523
H188	H	0.191538	0.228642	0.202477
C189	C	-0.464322	-0.738236	-0.544461
C190	C	0.035678	-0.238236	-0.044461
H191	H	-0.459985	-0.787358	-0.539374
H192	H	0.040015	-0.287358	-0.039374
H193	H	-0.453614	-0.726695	-0.596526
H194	H	0.046386	-0.226695	-0.096526
H195	H	-0.510901	-0.724200	-0.534350
H196	H	-0.010901	-0.224200	-0.034350
H197	H	-1.109960	-0.928843	-0.522384
H198	H	-0.609960	-0.428843	-0.022384
C199	C	-0.304299	-0.413562	-0.357257
C200	C	0.195701	0.086438	0.142743
H201	H	-0.276195	-0.382412	-0.324360
H202	H	0.223805	0.117588	0.175640
H203	H	-0.275001	-0.443452	-0.387571
H204	H	0.224999	0.056548	0.112429
H205	H	-0.332308	-0.440954	-0.325417
H206	H	0.167692	0.059046	0.174583
C207	C	-0.900522	-0.927105	-0.524098
C208	C	-0.400522	-0.427105	-0.024098
H209	H	-0.867097	-0.901752	-0.551354
H210	H	-0.367097	-0.401752	-0.051354
H211	H	-0.927829	-0.895370	-0.493622
H212	H	-0.427829	-0.395370	0.006378
H213	H	-0.930182	-0.952704	-0.561225
H214	H	-0.430182	-0.452704	-0.061225
H215	H	-0.303002	-1.083668	-1.146500
H216	H	0.196998	-0.583668	-0.646500
C217	C	-0.787150	-0.886960	-0.567222
C218	C	-0.287150	-0.386960	-0.067222
H219	H	-0.753720	-0.861613	-0.594479
H220	H	-0.253720	-0.361613	-0.094479
H221	H	-0.814453	-0.855219	-0.536749
H222	H	-0.314453	-0.355219	-0.036749
H223	H	-0.816812	-0.912557	-0.604349
H224	H	-0.316812	-0.412557	-0.104349
H225	H	-0.458785	-0.913850	-0.748346
H226	H	0.041215	-0.413850	-0.248346
H227	H	-0.784181	-1.063009	-0.377830
H228	H	-0.284181	-0.563009	0.122170
H229	H	-0.260130	-1.130389	-0.873119
H230	H	0.239870	-0.630389	-0.373119
C231	C	-0.290818	-1.096938	-0.737345
C232	C	0.209182	-0.596938	-0.237345
H233	H	-0.296977	-1.090230	-0.682241
H234	H	0.203023	-0.590230	-0.182241
H235	H	-0.243272	-1.088724	-0.748217
H236	H	0.256728	-0.588724	-0.248217
H237	H	-0.303103	-1.143603	-0.753698
H238	H	0.196897	-0.643603	-0.253698
C239	C	-0.269211	-0.592535	-0.316213
C240	C	0.230789	-0.092535	0.183787
H241	H	-0.273560	-0.543412	-0.321289
H242	H	0.226440	-0.043412	0.178711
H243	H	-0.222631	-0.606565	-0.326311
H244	H	0.277369	-0.106565	0.173689
H245	H	-0.279931	-0.604080	-0.264149
H246	H	0.220069	-0.104080	0.235851
H247	H	-0.644409	-0.905842	-0.546819
H248	H	-0.144409	-0.405842	-0.046819
H249	H	-0.870707	-1.057101	-0.384254
H250	H	-0.370707	-0.557101	0.115746
C251	C	-0.457796	-0.584485	-0.536749
C252	C	0.042204	-0.084485	-0.036749
H253	H	-0.485927	-0.615632	-0.569618
H254	H	0.014073	-0.115632	-0.069618
H255	H	-0.429838	-0.557066	-0.568608
H256	H	0.070162	-0.057066	-0.068608
H257	H	-0.487076	-0.554620	-0.506375
H258	H	0.012924	-0.054620	-0.006375
C259	C	-0.513907	-0.853788	-1.033464
C260	C	-0.013907	-0.353788	-0.533464
H261	H	-0.507754	-0.860507	-1.088568
H262	H	-0.007754	-0.360507	-0.588568
H263	H	-0.501636	-0.807123	-1.017116
H264	H	-0.001636	-0.307123	-0.517116
H265	H	-0.561454	-0.862015	-1.022593
H266	H	-0.061454	-0.362015	-0.522593
C267	C	-0.470970	-0.900589	-1.157492
C268	C	0.029030	-0.400589	-0.657492
H269	H	-0.464817	-0.907301	-1.212597
H270	H	0.035183	-0.407301	-0.712597
H271	H	-0.458698	-0.853926	-1.141135
H272	H	0.041302	-0.353926	-0.641135
H273	H	-0.518517	-0.908817	-1.146622
H274	H	-0.018517	-0.408817	-0.646622
