data_functionalizedCrystal
_audit_creation_method	'MofGen! by Chris Wilmer'
_symmetry_space_group_name_H-M	'P1'
_symmetry_Int_Tables_number	1
_symmetry_cell_setting	triclinic
loop_
_symmetry_equiv_pos_as_xyz
  x,y,z
_cell_length_a	22.610064
_cell_length_b	15.995350
_cell_length_c	15.995350
_cell_angle_alpha	96.507625
_cell_angle_beta	89.993698
_cell_angle_gamma	89.995416
loop_
_atom_site_label
_atom_site_type_symbol
_atom_site_fract_x
_atom_site_fract_y
_atom_site_fract_z
O1	O	0.049131	-1.110991	0.107915
O2	O	0.049143	-0.867216	0.121243
O3	O	0.049137	-0.995767	-0.007309
O4	O	0.049138	-0.982440	0.236467
O5	O	-0.049233	-0.995745	-0.007290
O6	O	-0.049226	-0.867193	0.121261
O7	O	-0.049238	-1.110969	0.107934
Zn8	Zn	-0.064850	-0.989077	0.114601
Zn9	Zn	0.064756	-0.989107	0.114576
O10	O	-0.049231	-0.982417	0.236485
C11	C	-0.000040	-0.836010	0.120701
C12	C	-0.000035	-0.743060	0.119049
N13	N	-0.153302	-0.989063	0.114617
C14	C	-0.000047	-0.995205	-0.038494
C15	C	-0.000044	-0.993553	-0.131444
C16	C	-0.561947	-1.046032	0.057662
C17	C	-0.623867	-1.046037	0.057656
O18	O	-0.655888	-1.094438	0.009243
N19	N	-0.654840	-0.989107	0.114559
C20	C	-0.623889	-0.932163	0.171465
O21	O	-0.655920	-0.883739	0.219864
C22	C	-0.561971	-0.932155	0.171467
C23	C	-0.531001	-0.989095	0.114566
C24	C	-0.530977	-1.102967	0.000766
C25	C	-0.469062	-1.102963	0.000773
C26	C	-0.438116	-1.046026	0.057677
C27	C	-0.469085	-0.989091	0.114573
C28	C	-0.531021	-0.875208	0.228369
C29	C	-0.469098	-0.875205	0.228365
C30	C	-0.438129	-0.932145	0.171464
C31	C	-0.376224	-0.932150	0.171485
N32	N	-0.345251	-0.989080	0.114582
C33	C	-0.376197	-1.046018	0.057678
C34	C	-0.753923	-0.932182	0.171457
C35	C	-0.815841	-0.932193	0.171460
C36	C	-0.815814	-1.046066	0.057650
C37	C	-0.753895	-1.046059	0.057651
C38	C	-0.722950	-0.989112	0.114554
C39	C	-0.246170	-1.046007	0.057698
C40	C	-0.184248	-1.046001	0.057713
C41	C	-0.184281	-0.932125	0.171520
C42	C	-0.246196	-0.932134	0.171509
C43	C	-0.277139	-0.989078	0.114591
O44	O	-0.344163	-0.883771	0.219870
O45	O	-0.344159	-1.094426	0.009280
N46	N	0.153208	-0.989128	0.114553
C47	C	-0.000053	-1.142175	0.108476
C48	C	-0.000054	-1.235125	0.110127
C49	C	-0.000048	-0.405312	0.113117
C50	C	-0.000268	-0.452746	0.021565
C51	C	-0.000042	-0.549436	0.023217
C52	C	-0.000042	-0.572873	0.116060
C53	C	0.056130	-0.531799	0.161205
C54	C	0.056173	-0.435163	0.158906
C55	C	-0.055691	-0.434798	0.160818
C56	C	-0.056430	-0.531743	0.160797
C57	C	-0.000036	-0.667570	0.117727
C58	C	-0.000049	-0.310614	0.111452
C59	C	-0.000045	-0.987621	-0.469192
C60	C	0.000180	-0.896069	-0.421758
C61	C	-0.000042	-0.897721	-0.325068
C62	C	-0.000044	-0.990564	-0.301631
C63	C	-0.056219	-1.035707	-0.342698
C64	C	-0.056266	-1.033407	-0.439334
C65	C	0.055598	-1.035325	-0.439713
C66	C	0.056341	-1.035303	-0.342768
C67	C	-0.000045	-0.992231	-0.206934
C68	C	-0.000048	-0.985956	-0.563890
C69	C	-0.000046	-0.982980	0.267671
C70	C	-0.000046	-0.984631	0.360621
H71	H	-0.159035	-1.092371	0.011378
N72	N	-0.279538	-1.107433	-0.003680
H73	H	-0.305228	-1.075455	-0.040785
H74	H	-0.250479	-1.143482	-0.039658
N75	N	0.052795	-0.426795	-0.026693
H76	H	0.077885	-0.477858	-0.044960
H77	H	0.039037	-0.400671	-0.077905
N78	N	-0.053370	-0.587089	-0.023807
H79	H	-0.053322	-0.650113	-0.022826
H80	H	-0.090584	-0.562497	0.003944
H81	H	0.040294	-0.577304	-0.012526
N82	N	-0.056205	-0.392714	0.250224
H83	H	-0.092050	-0.411893	0.280560
H84	H	-0.019139	-0.408418	0.280033
N85	N	-0.053472	-0.850389	-0.288138
H86	H	-0.040175	-0.801664	-0.246701
H87	H	-0.076951	-0.828426	-0.334729
N88	N	-0.435663	-1.164373	-0.060602
H89	H	-0.464670	-1.200437	-0.096648
H90	H	-0.409974	-1.132320	-0.097639
N91	N	-0.111478	-0.567905	0.117145
H92	H	-0.136420	-0.595946	0.158330
H93	H	-0.134902	-0.521209	0.095272
N94	N	-0.564349	-1.164396	-0.060601
H95	H	-0.535325	-1.200461	-0.096634
H96	H	-0.590029	-1.201409	-0.028509
N97	N	-0.720494	-1.107471	-0.003719
H98	H	-0.749500	-1.143540	-0.039763
H99	H	-0.694806	-1.075419	-0.040759
H100	H	-0.058309	-1.103916	-0.328572
N101	N	-0.435722	-0.813779	0.289736
H102	H	-0.464741	-0.777713	0.325777
H103	H	-0.410033	-0.845823	0.326779
N104	N	0.111790	-0.410915	0.115275
H105	H	0.136048	-0.462978	0.097713
H106	H	0.100853	-0.382963	0.063886
N107	N	-0.279604	-0.870737	0.232892
H108	H	-0.250601	-0.834671	0.268944
H109	H	-0.305292	-0.833721	0.200815
N110	N	-0.053619	-0.428196	-0.026915
H111	H	-0.078224	-0.479828	-0.044825
H112	H	-0.078126	-0.386067	0.010035
H113	H	-0.841052	-0.885837	0.217803
N114	N	-0.059660	-1.122440	-0.482046
H115	H	-0.096482	-1.129204	-0.517915
H116	H	-0.023630	-1.134711	-0.518718
H117	H	0.058722	-0.402915	0.226121
N118	N	0.053536	-0.847602	-0.446320
H119	H	0.052824	-0.789038	-0.415180
H120	H	0.090744	-0.877500	-0.431322
N121	N	0.111396	-0.991659	-0.306620
H122	H	0.134862	-0.969789	-0.353283
H123	H	0.099825	-0.943139	-0.263764
H124	H	0.058219	-0.545924	0.229414
N125	N	-0.112093	-0.407602	0.121182
H126	H	-0.135431	-0.369880	0.164117
H127	H	-0.102097	-0.375919	0.071893
H128	H	0.097934	-0.560182	0.129834
N129	N	-0.849197	-1.107480	-0.003728
H130	H	-0.893121	-1.098838	0.004908
H131	H	-0.838371	-1.097809	-0.063133
N132	N	-0.720555	-0.870764	0.232849
H133	H	-0.694865	-0.902751	0.269945
H134	H	-0.694900	-0.833698	0.200780
H135	H	-0.556228	-0.828843	0.274702
N136	N	-0.150897	-0.870716	0.232893
H137	H	-0.106974	-0.879356	0.224255
H138	H	-0.161724	-0.811323	0.223178
H139	H	-0.059823	-0.547108	0.228501
H140	H	0.040226	-0.862235	-0.296653
N141	N	-0.052878	-0.847793	-0.447689
H142	H	-0.051496	-0.844500	-0.510344
H143	H	-0.090264	-0.877515	-0.433114
H144	H	-0.098256	-1.000469	-0.457627
N145	N	-0.111593	-0.994167	-0.305088
H146	H	-0.100420	-0.946114	-0.261460
H147	H	-0.135671	-0.971936	-0.350945
N148	N	0.111997	-0.995693	-0.466932
H149	H	0.113855	-0.935049	-0.441362
H150	H	0.147104	-1.027332	-0.447366
H151	H	0.059731	-1.103008	-0.327407
H152	H	0.055974	-1.102825	-0.471474
