data_functionalizedCrystal
_audit_creation_method	'MofGen! by Chris Wilmer'
_symmetry_space_group_name_H-M	'P1'
_symmetry_Int_Tables_number	1
_symmetry_cell_setting	triclinic
loop_
_symmetry_equiv_pos_as_xyz
  x,y,z
_cell_length_a	19.121102
_cell_length_b	13.032721
_cell_length_c	13.032268
_cell_angle_alpha	103.289627
_cell_angle_beta	84.957231
_cell_angle_gamma	84.922575
loop_
_atom_site_label
_atom_site_type_symbol
_atom_site_fract_x
_atom_site_fract_y
_atom_site_fract_z
Zn1	Zn	0.963320	0.569211	0.724190
Zn2	Zn	0.963245	0.724290	0.569133
Zn3	Zn	0.864186	0.539489	0.539408
Zn4	Zn	0.830418	0.737094	0.737024
O5	O	0.905292	0.642521	0.642439
O6	O	1.060387	0.596863	0.710691
O7	O	0.964204	0.681978	0.417594
O8	O	0.891500	0.395832	0.546108
O9	O	1.060331	0.710798	0.596771
O10	O	0.964334	0.417669	0.681867
O11	O	0.891426	0.546206	0.395755
O12	O	0.762630	0.558621	0.558553
O13	O	0.833948	0.732621	0.882917
O14	O	0.737821	0.703801	0.703741
O15	O	0.931591	0.609278	0.873488
O16	O	0.931462	0.873588	0.609215
O17	O	0.833874	0.882995	0.732564
C18	C	0.879012	0.916566	0.675532
C19	C	0.867830	1.033813	0.689730
C20	C	0.725054	0.629376	0.629315
C21	C	0.647943	0.623781	0.623728
C22	C	0.879011	0.675693	0.917543
C23	C	0.867812	0.689830	1.034776
C24	C	0.598818	0.696829	0.696602
C25	C	0.526364	0.691558	0.691356
C26	C	0.503037	0.613244	0.613232
C27	C	0.552168	0.540189	0.540355
C28	C	0.624620	0.545456	0.545606
C29	C	0.284924	0.593553	0.593604
C30	C	0.212466	0.588294	0.588356
C31	C	0.186667	0.739662	0.739360
C32	C	0.259121	0.744926	0.744600
C33	C	0.308246	0.671867	0.671726
C34	C	0.428978	0.607857	0.607866
C35	C	0.382303	0.677250	0.677098
C36	C	1.086234	0.655718	0.655615
C37	C	1.163341	0.661341	0.661230
C38	C	0.931692	0.367409	0.609241
C39	C	0.942941	0.250173	0.595093
C40	C	0.911161	1.081404	0.635079
C41	C	0.899604	1.202585	0.649752
C42	C	0.931518	0.609404	0.368399
C43	C	0.942881	0.594981	0.251140
C44	C	0.911130	0.635104	1.082377
C45	C	0.899556	0.649713	1.203543
H46	H	0.617804	0.760604	0.760216
C47	C	1.004565	0.517068	1.185022
N48	N	1.051026	0.458387	1.135221
H49	H	0.664618	0.485968	0.486269
H50	H	0.822152	0.747490	1.083725
H51	H	0.278108	0.808700	0.808215
C52	C	0.972838	1.015255	0.557193
N53	N	1.019293	0.965432	0.498525
H54	H	0.956783	0.577433	1.033426
C55	C	0.837923	1.268730	0.727640
N56	N	0.791464	1.318552	0.786302
H57	H	0.401299	0.741009	0.740710
C58	C	0.806151	1.099962	0.767614
N59	N	0.759693	1.149784	0.826276
H60	H	0.988600	1.201210	0.537443
C61	C	0.837871	0.727622	1.269663
N62	N	0.791410	0.786302	1.319466
H63	H	0.486368	0.751043	0.750697
C64	C	0.403311	0.521717	0.521927
N65	N	0.383975	0.456835	0.457200
H66	H	0.146662	0.799141	0.798690
H67	H	0.324913	0.534070	0.534258
C68	C	0.186809	0.502137	0.502410
N69	N	0.167484	0.437248	0.437678
H70	H	0.533170	0.476420	0.476748
