data_functionalizedCrystal
_audit_creation_method	'MofGen! by Chris Wilmer'
_symmetry_space_group_name_H-M	'P1'
_symmetry_Int_Tables_number	1
_symmetry_cell_setting	triclinic
loop_
_symmetry_equiv_pos_as_xyz
  x,y,z
_cell_length_a	6.817900
_cell_length_b	11.102289
_cell_length_c	11.102193
_cell_angle_alpha	91.948902
_cell_angle_beta	108.604059
_cell_angle_gamma	108.605707
loop_
_atom_site_label
_atom_site_type_symbol
_atom_site_fract_x
_atom_site_fract_y
_atom_site_fract_z
V1	V	-4.111515	-0.175848	-0.396257
O2	O	-4.070547	0.008441	-0.388714
O3	O	-4.088292	-0.348668	-0.393547
O4	O	-4.088289	-0.173147	-0.569079
O5	O	-4.070550	-0.168295	-0.211967
V6	V	-4.588618	-0.153805	-0.374215
O7	O	-4.386854	-0.224203	-0.444609
O8	O	-4.763475	-0.105450	-0.325863
O9	O	-4.388634	0.019016	-0.376925
O10	O	-4.746982	-0.338094	-0.381758
O11	O	-4.746979	-0.161358	-0.558505
O12	O	-4.388637	-0.156505	-0.201393
C13	C	-3.938603	-0.390798	-0.387296
C14	C	-4.001070	-0.532081	-0.386232
C15	C	-4.214424	-0.604929	-0.392072
C16	C	-4.273112	-0.737681	-0.391083
C17	C	-3.905068	-0.724722	-0.378409
C18	C	-3.846388	-0.591975	-0.379406
C19	C	-4.426910	-0.612411	-0.399384
C20	C	-4.485598	-0.745162	-0.398395
C21	C	-3.938598	-0.166902	-0.611203
C22	C	-4.001058	-0.165837	-0.752485
C23	C	-4.121387	-0.398616	-0.788812
C24	C	-4.210886	-0.514499	-0.873348
C25	C	-4.269572	-0.513492	-1.006094
C26	C	-4.238760	-0.396588	-1.054305
C27	C	-4.149261	-0.280704	-0.969769
C28	C	-4.090574	-0.281724	-0.837022
C29	C	-4.028948	-0.047929	-0.933443
C30	C	-3.970246	-0.048934	-0.800696
C31	C	-3.998135	0.068974	-0.981655
C32	C	-3.908620	0.184861	-0.897118
C33	C	-3.849930	0.183849	-0.764364
C34	C	-3.880746	0.066950	-0.716161
C35	C	-4.201666	0.061139	-0.383173
C36	C	-4.118438	0.202420	-0.384245
C37	C	-4.201670	-0.162755	-0.159263
C38	C	-4.118447	-0.163813	-0.017979
H39	H	-4.538772	-0.593192	-0.491813
H40	H	-3.672667	-0.532668	-0.374666
C41	C	-4.661600	-0.822491	-0.523789
C42	C	-4.848432	-0.898474	-0.499215
C43	C	-5.010591	-0.969738	-0.614691
H44	H	-4.700562	-0.765596	-0.581202
H45	H	-4.605905	-0.876209	-0.561368
H46	H	-4.904119	-0.844761	-0.461654
H47	H	-4.809541	-0.955394	-0.441821
H48	H	-4.954897	-1.023456	-0.652271
H49	H	-5.049534	-0.912833	-0.672096
H50	H	-5.137367	-1.021309	-0.598032
H51	H	-3.779140	-0.773505	-0.372853
H52	H	-4.426981	-0.559182	-0.309775
C53	C	-4.061828	0.070337	-1.125741
C54	C	-4.015746	0.197512	-1.149867
C55	C	-4.074415	0.198821	-1.282584
H56	H	-3.979658	0.031736	-1.158491
H57	H	-4.215082	0.023572	-1.166653
H58	H	-3.862518	0.244258	-1.108970
H59	H	-4.097910	0.236137	-1.117148
H60	H	-4.227670	0.152056	-1.323497
H61	H	-3.992241	0.160215	-1.315322
H62	H	-4.043176	0.285106	-1.298972
H63	H	-4.235973	-0.609680	-0.834079
C64	C	-3.875557	0.311794	-0.949408
C65	C	-3.998706	0.375753	-0.912289
C66	C	-3.968330	0.492680	-0.960455
H67	H	-3.723583	0.363670	-0.916100
H68	H	-3.923433	0.295842	-1.040581
H69	H	-3.950818	0.391710	-0.821134
H70	H	-4.150689	0.323915	-0.945594
H71	H	-4.016206	0.476729	-1.051629
H72	H	-3.816353	0.544545	-0.927144
H73	H	-4.051897	0.536086	-0.935287
C74	C	-4.553683	-0.778604	-0.282559
C75	C	-4.414594	-0.836241	-0.204502
C76	C	-4.477234	-0.867071	-0.097787
H77	H	-4.542323	-0.702486	-0.234854
H78	H	-4.701891	-0.836562	-0.310830
H79	H	-4.266423	-0.778286	-0.176231
H80	H	-4.425935	-0.912371	-0.252169
H81	H	-4.625442	-0.925029	-0.126057
H82	H	-4.465872	-0.790947	-0.050092
H83	H	-4.382886	-0.906191	-0.044818
H84	H	-3.777066	0.278215	-0.695541
C85	C	-4.057925	-0.399983	-0.644733
C86	C	-4.104118	-0.527160	-0.620607
C87	C	-4.045727	-0.528474	-0.487898
H88	H	-3.904719	-0.353247	-0.603702
H89	H	-4.140229	-0.361358	-0.612111
H90	H	-4.021811	-0.565768	-0.653214
H91	H	-4.257312	-0.573920	-0.661606
H92	H	-4.128031	-0.489849	-0.455276
H93	H	-3.892522	-0.481733	-0.446879
H94	H	-4.077079	-0.614762	-0.471512
H95	H	-4.342453	-0.607854	-1.074924
H96	H	-4.286577	-0.395779	-1.162396
H97	H	-3.832952	0.066115	-0.608074
