data_functionalizedCrystal
_audit_creation_method	'MofGen! by Chris Wilmer'
_symmetry_space_group_name_H-M	'P1'
_symmetry_Int_Tables_number	1
_symmetry_cell_setting	triclinic
loop_
_symmetry_equiv_pos_as_xyz
  x,y,z
_cell_length_a	10.908937
_cell_length_b	11.804365
_cell_length_c	10.967829
_cell_angle_alpha	89.857761
_cell_angle_beta	72.684843
_cell_angle_gamma	98.885734
loop_
_atom_site_label
_atom_site_type_symbol
_atom_site_fract_x
_atom_site_fract_y
_atom_site_fract_z
O1	O	1.716672	0.056045	-0.209635
O2	O	1.348534	0.074811	-0.118157
O3	O	1.532025	0.030020	-0.336418
O4	O	1.533181	0.100836	0.008626
O5	O	1.483716	-0.156254	-0.279006
O6	O	1.300225	-0.111463	-0.060745
O7	O	1.668363	-0.130229	-0.152223
Cu8	Cu	1.479883	-0.137854	-0.101242
Cu9	Cu	1.537014	0.082436	-0.169138
O10	O	1.484872	-0.085438	0.066038
C11	C	1.277073	-0.016573	-0.080902
C12	C	1.136115	-0.011351	-0.055442
C13	C	0.935610	-0.024998	-0.122043
C14	C	1.081294	-0.030413	-0.148354
N15	N	1.439709	-0.292795	-0.053490
C16	C	1.673667	-0.723816	-0.331595
C17	C	1.704057	-0.606568	-0.367724
C18	C	1.637972	-0.528120	-0.289169
C19	C	1.541494	-0.566929	-0.174478
C20	C	1.511108	-0.684187	-0.138340
C21	C	1.475413	-0.488491	-0.095914
C22	C	1.378934	-0.527301	0.018777
C23	C	1.348553	-0.644548	0.054908
C24	C	1.414638	-0.722996	-0.023647
C25	C	1.505798	-0.371233	-0.132052
C26	C	1.343239	-0.331605	0.061203
C27	C	1.312850	-0.448852	0.097332
C28	C	1.739824	-0.038843	-0.189479
C29	C	1.880785	-0.044058	-0.214941
C30	C	1.504304	-0.072038	-0.351192
C31	C	1.493664	-0.098620	-0.480746
N32	N	1.577197	0.237375	-0.216902
C33	C	1.513946	-0.013974	-0.568241
C34	C	1.502950	-0.041446	-0.702142
C35	C	1.512593	0.016622	0.080811
C36	C	1.523235	0.043212	0.210363
H37	H	1.584352	-0.339645	-0.225433
O38	O	1.797364	-0.568993	-0.479421
C39	C	1.847798	-0.471272	-0.685799
C40	C	1.742171	-0.513580	-0.559182
H41	H	1.803208	-0.426483	-0.750332
H42	H	1.928867	-0.408414	-0.665301
H43	H	1.889507	-0.547682	-0.735537
H44	H	1.700359	-0.437242	-0.509381
H45	H	1.661180	-0.576474	-0.579764
O46	O	1.553809	0.153961	-0.760906
C47	C	1.710861	0.328035	-0.811626
C48	C	1.676408	0.202649	-0.844358
H49	H	1.809996	0.367429	-0.879062
H50	H	1.633916	0.379093	-0.822760
H51	H	1.714209	0.330380	-0.708748
H52	H	1.673078	0.200196	-0.947235
H53	H	1.753363	0.151645	-0.833137
H54	H	1.477435	-0.134258	-0.726357
H55	H	1.727472	-0.787694	-0.395540
O56	O	0.953274	-0.068465	-0.333073
C57	C	0.983477	-0.204986	-0.498135
C58	C	0.901259	-0.177479	-0.364347
H59	H	0.941472	-0.293134	-0.523451
H60	H	0.981867	-0.137244	-0.571664
H61	H	1.088031	-0.204970	-0.498295
H62	H	0.796670	-0.177512	-0.364061
H63	H	0.902979	-0.245226	-0.290876
H64	H	1.075205	0.008980	0.043576
O65	O	1.463290	-0.209280	-0.509856
C66	C	1.424486	-0.337547	-0.669806
C67	C	1.458933	-0.212174	-0.637027
H68	H	1.420925	-0.339927	-0.772615
H69	H	1.501497	-0.388589	-0.658809
H70	H	1.325433	-0.376940	-0.602215
H71	H	1.557952	-0.172680	-0.704591
H72	H	1.381841	-0.161214	-0.647985
H73	H	1.539446	0.078832	-0.544015
H74	H	1.289429	-0.267731	0.125172
H75	H	1.142208	-0.050733	-0.247375
O76	O	1.667250	-0.414215	-0.324207
C77	C	1.588937	-0.246022	-0.376270
C78	C	1.555595	-0.375016	-0.336553
H79	H	1.498691	-0.214296	-0.386290
H80	H	1.623559	-0.196515	-0.300314
H81	H	1.669286	-0.231777	-0.471705
H82	H	1.475220	-0.389368	-0.241147
H83	H	1.521049	-0.424459	-0.412589
H84	H	1.270005	-0.676144	0.148303
O85	O	0.863150	-0.000681	-0.003861
C86	C	0.860080	0.043413	0.211323
C87	C	0.942292	0.015910	0.077531
H88	H	0.924026	0.056810	0.277173
H89	H	0.817918	0.124818	0.203971
H90	H	0.777395	-0.031119	0.251896
H91	H	1.025039	0.090369	0.036881
H92	H	0.984357	-0.065534	0.084964
H93	H	1.389891	-0.818470	0.005766
H94	H	1.234295	-0.480466	0.190717
