data_functionalizedCrystal
_audit_creation_method	'MofGen! by Chris Wilmer'
_symmetry_space_group_name_H-M	'P1'
_symmetry_Int_Tables_number	1
_symmetry_cell_setting	triclinic
loop_
_symmetry_equiv_pos_as_xyz
  x,y,z
_cell_length_a	17.077404
_cell_length_b	18.101395
_cell_length_c	17.077396
_cell_angle_alpha	89.972533
_cell_angle_beta	89.981638
_cell_angle_gamma	90.029074
loop_
_atom_site_label
_atom_site_type_symbol
_atom_site_fract_x
_atom_site_fract_y
_atom_site_fract_z
Zn1	Zn	1.200010	-0.294870	-0.443824
Zn2	Zn	1.199898	-0.418718	-0.312561
Zn3	Zn	1.068742	-0.294891	-0.312575
Zn4	Zn	1.068691	-0.418670	-0.443787
O5	O	1.134335	-0.356787	-0.378187
O6	O	1.309842	-0.311310	-0.426422
O7	O	1.182474	-0.402322	-0.202716
O8	O	1.086223	-0.191255	-0.330007
O9	O	1.309760	-0.402301	-0.329983
O10	O	1.182665	-0.191240	-0.426435
O11	O	1.086114	-0.311346	-0.202726
O12	O	0.958888	-0.311299	-0.329971
O13	O	1.086136	-0.402218	-0.553639
O14	O	0.958851	-0.402238	-0.426372
O15	O	1.182616	-0.311263	-0.553666
O16	O	1.182425	-0.522345	-0.329946
O17	O	1.086028	-0.522309	-0.426358
C18	C	0.930387	-0.356766	-0.378169
C19	C	0.843137	-0.356775	-0.378180
C20	C	0.802191	-0.309480	-0.428473
C21	C	0.720210	-0.309485	-0.428476
C22	C	0.679178	-0.356789	-0.378191
C23	C	0.720130	-0.404086	-0.327893
C24	C	0.802109	-0.404077	-0.327886
C25	C	0.549260	-0.404103	-0.327912
C26	C	0.467276	-0.404113	-0.327920
C27	C	0.467361	-0.309511	-0.428503
C28	C	0.549340	-0.309502	-0.428496
C29	C	0.590287	-0.356800	-0.378199
C30	C	1.134230	-0.549198	-0.378164
C31	C	1.134257	-0.631512	-0.378180
C32	C	1.134429	-0.930603	-0.378222
C33	C	1.073919	-0.899286	-0.439032
C34	C	1.073632	-0.813668	-0.438842
C35	C	1.134344	-0.782220	-0.378202
C36	C	1.111947	-0.813371	-0.295473
C37	C	1.111557	-0.899016	-0.295837
C38	C	1.217469	-0.898949	-0.399413
C39	C	1.216980	-0.813298	-0.401227
C40	C	1.134297	-0.698361	-0.378185
C41	C	1.134474	-1.014462	-0.378233
C42	C	1.339079	-0.356809	-0.378205
C43	C	1.426329	-0.356818	-0.378213
C44	C	1.134383	-0.356733	-0.582931
C45	C	1.134403	-0.356709	-0.670181
C46	C	1.134462	-0.163625	-0.378227
C47	C	1.134516	-0.081311	-0.378244
C48	C	1.184641	-0.309345	-0.711187
C49	C	1.184651	-0.309320	-0.793167
C50	C	1.134425	-0.356664	-0.834140
C51	C	1.084181	-0.404031	-0.793129
C52	C	1.084168	-0.404051	-0.711150
C53	C	1.084212	-0.403986	-0.963999
C54	C	1.084226	-0.403967	-1.045984
C55	C	1.184695	-0.309255	-1.046016
C56	C	1.184683	-0.309276	-0.964037
C57	C	1.134439	-0.356643	-0.923031
C58	C	1.134333	-0.356788	-0.174239
C59	C	1.134465	-0.356603	-0.086989
H60	H	0.835593	-0.270962	-0.469423
O61	O	1.233497	-0.263218	-0.924356
C62	C	1.277859	-0.221418	-0.978125
H63	H	1.245722	-0.218832	-1.036560
H64	H	1.337460	-0.248542	-0.986846
C65	C	1.328691	-0.145787	-0.874374
C66	C	1.289216	-0.142606	-0.946143
H67	H	1.335701	-0.097173	-0.854646
H68	H	1.298806	-0.173950	-0.838148
H69	H	1.378355	-0.168394	-0.881651
H70	H	1.239551	-0.120008	-0.938864
H71	H	1.319093	-0.114437	-0.982368
O72	O	1.035360	-0.449976	-1.085665
C73	C	0.991020	-0.491797	-1.031896
H74	H	0.988311	-0.461480	-0.973464
H75	H	1.019720	-0.548050	-1.023169
C76	C	0.910802	-0.539681	-1.135649
C77	C	0.907470	-0.502442	-1.063884
H78	H	0.859265	-0.546250	-1.155381
H79	H	0.940677	-0.511508	-1.171876
H80	H	0.934723	-0.586555	-1.128367
H81	H	0.883559	-0.455566	-1.071169
H82	H	0.877589	-0.530607	-1.027659
O83	O	1.233419	-0.263256	-1.085966
C84	C	1.222669	-0.273393	-1.167109
H85	H	1.162078	-0.297644	-1.178288
H86	H	1.269211	-0.312822	-1.190381
C87	C	1.304325	-0.168663	-1.195476
C88	C	1.229903	-0.198442	-1.209207
H89	H	1.308790	-0.122430	-1.221446
H90	H	1.311570	-0.161834	-1.140809
H91	H	1.343101	-0.201527	-1.214870
H92	H	1.191129	-0.165582	-1.189806
H93	H	1.222652	-0.205263	-1.263872
O94	O	1.035481	-0.450099	-0.671223
C95	C	1.080139	-0.497955	-0.623814
H96	H	1.139642	-0.471844	-0.611555
H97	H	1.088731	-0.552832	-0.655393
C98	C	0.963851	-0.543445	-0.560984
C99	C	1.036932	-0.511371	-0.545922
H100	H	0.937199	-0.551724	-0.512938
H101	H	0.933764	-0.511205	-0.592926
H102	H	0.971022	-0.589172	-0.587302
H103	H	1.029761	-0.465642	-0.519614
H104	H	1.067018	-0.543603	-0.513974
O105	O	1.273715	-0.787807	-0.352331
C106	C	1.346754	-0.817057	-0.375102
H107	H	1.344407	-0.833555	-0.439473
H108	H	1.360675	-0.867703	-0.337931
C109	C	1.413786	-0.738040	-0.284171
C110	C	1.410905	-0.758299	-0.363235
H111	H	1.453359	-0.701797	-0.276848
H112	H	1.364578	-0.718336	-0.268828
H113	H	1.425384	-0.780251	-0.253205
H114	H	1.399298	-0.716090	-0.394199
H115	H	1.460113	-0.777995	-0.378584
H116	H	1.043283	-0.442576	-0.826496
H117	H	1.043287	-0.442546	-0.930615
O118	O	1.090549	-0.923896	-0.512397
C119	C	1.157192	-0.969779	-0.509852
H120	H	1.164363	-0.993083	-0.448244
H121	H	1.211341	-0.936223	-0.526051
C122	C	1.138350	-1.005129	-0.644081
C123	C	1.147153	-1.033756	-0.568414
H124	H	1.132160	-1.044591	-0.680207
H125	H	1.093453	-0.974214	-0.645797
H126	H	1.183476	-0.977165	-0.657569
H127	H	1.102024	-1.061711	-0.554924
H128	H	1.192043	-1.064677	-0.566697
H129	H	0.582597	-0.442616	-0.286953
O130	O	1.271163	-0.923206	-0.346536
C131	C	1.233917	-0.968531	-0.290618
H132	H	1.177634	-0.991951	-0.316540
H133	H	1.219393	-0.934471	-0.236394
C134	C	1.358009	-1.003649	-0.235933
C135	C	1.288884	-1.032419	-0.267772
H136	H	1.391915	-1.043057	-0.221837
H137	H	1.383102	-0.973111	-0.273603
H138	H	1.345895	-0.975266	-0.190749
H139	H	1.300998	-1.060794	-0.312960
H140	H	1.263794	-1.062964	-0.230108
O141	O	1.090447	-0.788625	-0.512034
C142	C	1.164948	-0.814393	-0.534803
H143	H	1.180158	-0.866090	-0.499835
H144	H	1.210575	-0.769763	-0.523053
C145	C	1.145465	-0.769502	-0.665729
C146	C	1.164144	-0.833001	-0.622786
H147	H	1.144972	-0.780977	-0.720001
H148	H	1.095274	-0.752138	-0.650389
H149	H	1.183491	-0.732316	-0.655929
H150	H	1.126113	-0.870182	-0.632578
H151	H	1.214329	-0.850371	-0.638129
H152	H	0.582747	-0.270987	-0.469447
O153	O	0.680359	-0.450140	-0.279085
C154	C	0.700356	-0.523969	-0.296115
H155	H	0.759891	-0.525532	-0.326280
H156	H	0.654225	-0.548966	-0.336433
C157	C	0.630969	-0.566817	-0.182458
C158	C	0.704094	-0.568737	-0.219501
H159	H	0.633272	-0.594434	-0.135200
H160	H	0.617494	-0.517078	-0.170985
H161	H	0.592535	-0.587647	-0.216064
H162	H	0.742525	-0.547900	-0.185899
H163	H	0.717575	-0.618474	-0.230966
H164	H	0.434018	-0.270998	-0.469455
O165	O	1.000978	-0.925069	-0.422370
C166	C	1.004397	-0.971331	-0.356015
H167	H	1.058445	-0.956991	-0.319918
H168	H	1.007890	-1.031449	-0.375569
C169	C	0.864022	-0.977637	-0.350213
C170	C	0.930401	-0.960021	-0.305875
H171	H	0.818377	-0.970664	-0.319285
H172	H	0.861718	-0.946472	-0.394920
H173	H	0.866944	-1.027735	-0.366506
H174	H	0.927483	-0.909922	-0.289591
H175	H	0.932703	-0.991178	-0.261164
O176	O	1.000150	-0.789385	-0.422184
C177	C	0.947591	-0.815633	-0.479436
H178	H	0.973019	-0.867049	-0.508365
H179	H	0.937937	-0.771055	-0.525611
C180	C	0.837637	-0.771917	-0.404993
C181	C	0.868866	-0.835071	-0.440519
H182	H	0.789074	-0.783904	-0.380989
H183	H	0.873047	-0.754230	-0.366422
H184	H	0.829599	-0.734774	-0.443478
H185	H	0.876912	-0.872208	-0.402033
H186	H	0.833455	-0.852764	-0.479083
H187	H	0.835447	-0.442589	-0.286932
O188	O	0.680556	-0.263520	-0.477405
C189	C	0.734351	-0.221756	-0.521775
H190	H	0.792775	-0.252090	-0.524432
H191	H	0.743086	-0.165476	-0.493135
C192	C	0.630636	-0.173930	-0.602077
C193	C	0.702392	-0.211189	-0.605347
H194	H	0.610922	-0.167408	-0.653628
H195	H	0.594393	-0.202064	-0.572183
H196	H	0.637925	-0.127033	-0.578207
H197	H	0.695100	-0.258088	-0.629208
H198	H	0.738634	-0.183062	-0.635248
O199	O	0.427332	-0.449955	-0.279028
C200	C	0.379924	-0.407728	-0.228406
H201	H	0.367678	-0.351644	-0.256207
H202	H	0.411497	-0.399509	-0.170248
C203	C	0.317069	-0.517346	-0.179973
C204	C	0.302023	-0.448465	-0.214121
H205	H	0.269018	-0.542475	-0.171158
H206	H	0.349011	-0.545796	-0.214076
H207	H	0.343382	-0.510487	-0.131512
H208	H	0.275720	-0.455325	-0.262586
H209	H	0.270075	-0.420016	-0.180026
H210	H	1.225544	-0.270794	-0.677832
H211	H	1.050855	-0.919057	-0.277886
H212	H	1.154633	-0.793002	-0.248930
O213	O	1.161760	-0.923842	-0.239913
C214	C	1.120341	-0.967046	-0.185054
H215	H	1.064640	-0.989304	-0.213277
H216	H	1.104330	-0.931601	-0.132265
C217	C	1.240382	-1.004718	-0.123649
C218	C	1.171972	-1.032061	-0.158316
H219	H	1.272230	-1.044820	-0.107152
H220	H	1.268287	-0.975609	-0.160606
H221	H	1.227029	-0.975180	-0.079663
H222	H	1.185325	-1.061590	-0.202306
H223	H	1.144070	-1.061177	-0.121365
O224	O	1.040232	-0.787952	-0.273766
C225	C	0.983828	-0.810939	-0.328898
H226	H	1.006117	-0.861900	-0.361132
H227	H	0.972903	-0.764572	-0.372749
C228	C	0.879490	-0.767252	-0.246750
C229	C	0.906863	-0.829847	-0.286337
H230	H	0.832013	-0.778912	-0.220498
H231	H	0.917490	-0.751762	-0.209608
H232	H	0.870392	-0.728618	-0.283300
H233	H	0.915970	-0.868476	-0.249786
H234	H	0.868863	-0.845344	-0.323472
H235	H	1.237888	-0.920498	-0.458711
H236	H	1.233870	-0.792935	-0.462111
H237	H	1.225562	-0.270753	-0.826550
