data_functionalizedCrystal
_audit_creation_method	'MofGen! by Chris Wilmer'
_symmetry_space_group_name_H-M	'P1'
_symmetry_Int_Tables_number	1
_symmetry_cell_setting	triclinic
loop_
_symmetry_equiv_pos_as_xyz
  x,y,z
_cell_length_a	16.109301
_cell_length_b	16.776229
_cell_length_c	16.109301
_cell_angle_alpha	89.991926
_cell_angle_beta	96.538519
_cell_angle_gamma	90.004422
loop_
_atom_site_label
_atom_site_type_symbol
_atom_site_fract_x
_atom_site_fract_y
_atom_site_fract_z
O1	O	1.103135	0.066240	-0.106869
O2	O	1.603135	0.566240	0.393131
O3	O	0.861073	0.066253	-0.120168
O4	O	1.361073	0.566253	0.379832
O5	O	0.988754	0.066238	0.007512
O6	O	1.488754	0.566238	0.507512
O7	O	0.975454	0.066255	-0.234550
O8	O	1.475454	0.566255	0.265450
O9	O	0.988737	-0.066338	0.007520
O10	O	1.488737	0.433662	0.507520
O11	O	0.861056	-0.066323	-0.120161
O12	O	1.361056	0.433677	0.379839
O13	O	1.103118	-0.066336	-0.106861
O14	O	1.603118	0.433664	0.393139
Zn15	Zn	0.982084	-0.087379	-0.113510
Zn16	Zn	1.482084	0.412621	0.386490
Zn17	Zn	0.982107	0.087296	-0.113520
Zn18	Zn	1.482107	0.587296	0.386480
O19	O	0.975437	-0.066321	-0.234542
O20	O	1.475437	0.433679	0.265458
C21	C	0.830090	-0.000033	-0.119626
C22	C	1.330090	0.499967	0.380374
C23	C	0.737794	-0.000029	-0.118011
C24	C	1.237794	0.499971	0.381989
N25	N	0.982075	-0.206590	-0.113502
N26	N	1.482075	0.293410	0.386498
C27	C	0.515522	-0.000033	-0.190018
C28	C	1.015522	0.499967	0.309982
C29	C	0.428801	-0.000038	-0.188494
C30	C	0.928801	0.499962	0.311506
C31	C	0.448676	-0.000045	-0.037006
C32	C	0.948676	0.499955	0.462994
C33	C	0.535394	-0.000046	-0.038530
C34	C	1.035394	0.499954	0.461470
C35	C	0.568815	-0.000036	-0.115039
C36	C	1.068815	0.499964	0.384961
C37	C	0.395376	-0.000040	-0.111990
C38	C	0.895376	0.499960	0.388010
C39	C	0.301350	-0.000046	-0.110337
C40	C	0.801350	0.499954	0.389663
C41	C	0.662847	-0.000031	-0.116693
C42	C	1.162847	0.499969	0.383307
C43	C	1.038629	-0.248314	-0.056988
C44	C	1.538629	0.251686	0.443012
C45	C	1.038634	-0.331766	-0.056988
C46	C	1.538634	0.168234	0.443012
C47	C	0.982088	-0.373493	-0.113505
C48	C	1.482088	0.126507	0.386495
C49	C	0.925527	-0.331764	-0.170022
C50	C	1.425527	0.168236	0.329978
C51	C	0.925519	-0.248313	-0.170018
C52	C	1.425519	0.251687	0.329982
C53	C	0.925557	-0.668311	-0.170038
C54	C	1.425557	-0.168311	0.329962
C55	C	0.925571	-0.751767	-0.170039
C56	C	1.425571	-0.251767	0.329961
C57	C	1.038672	-0.751764	-0.057008
C58	C	1.538672	-0.251764	0.442992
C59	C	1.038664	-0.668313	-0.057004
C60	C	1.538664	-0.168313	0.442996
C61	C	0.982101	-0.626591	-0.113517
C62	C	1.482101	-0.126591	0.386483
C63	C	0.982096	-0.536103	-0.113516
C64	C	1.482096	-0.036103	0.386484
C65	C	0.982096	-0.463980	-0.113511
C66	C	1.482096	0.036020	0.386489
C67	C	1.134101	-0.000048	-0.107404
C68	C	1.634101	0.499952	0.392596
C69	C	1.226397	-0.000047	-0.109019
C70	C	1.726397	0.499953	0.390981
C71	C	0.988206	-0.000050	0.038491
C72	C	1.488206	0.499950	0.538491
C73	C	0.986591	-0.000051	0.130786
C74	C	1.486591	0.499949	0.630786
N75	N	0.982122	0.206507	-0.113521
N76	N	1.482122	0.706507	0.386479
C77	C	0.975984	-0.000031	-0.265521
C78	C	1.475984	0.499969	0.234479
C79	C	0.977600	-0.000025	-0.357816
C80	C	1.477600	0.499975	0.142184
C81	C	1.058599	-0.000043	0.353059
C82	C	1.558599	0.499957	0.853059
C83	C	1.057075	-0.000036	0.439779
C84	C	1.557075	0.499964	0.939779
C85	C	0.905586	-0.000031	0.419905
C86	C	1.405586	0.499969	0.919905
C87	C	0.907111	-0.000032	0.333186
C88	C	1.407111	0.499968	0.833186
C89	C	0.983620	-0.000042	0.299766
C90	C	1.483620	0.499958	0.799766
C91	C	0.980571	-0.000034	0.473205
C92	C	1.480571	0.499966	0.973205
C93	C	0.978918	-0.000027	0.567231
C94	C	1.478918	0.499973	1.067231
C95	C	0.985273	-0.000047	0.205734
C96	C	1.485273	0.499953	0.705734
H97	H	0.542730	-0.000030	-0.252317
H98	H	1.042730	0.499970	0.247683
C99	C	1.100886	-0.797666	0.005166
C100	C	1.600886	-0.297666	0.505166
N101	N	1.147744	-0.832238	0.051993
N102	N	1.647744	-0.332238	0.551993
H103	H	0.843295	-0.000024	0.447127
H104	H	1.343295	0.499976	0.947127
H105	H	0.846050	-0.000029	0.289792
H106	H	1.346050	0.499971	0.789792
H107	H	1.120897	-0.000049	0.325851
H108	H	1.620897	0.499951	0.825851
H109	H	0.385413	-0.000038	-0.249550
H110	H	0.885413	0.499962	0.250450
C111	C	0.411905	-0.000049	0.047150
C112	C	0.911905	0.499951	0.547150
N113	N	0.384210	-0.000049	0.110538
N114	N	0.884210	0.499951	0.610538
H115	H	0.879466	-0.214342	-0.216036
H116	H	1.379466	0.285658	0.283964
C117	C	1.100835	-0.202422	0.005187
C118	C	1.600835	0.297578	0.505187
N119	N	1.147688	-0.167858	0.052022
N120	N	1.647688	0.332142	0.552022
H121	H	0.578788	-0.000050	0.022530
H122	H	1.078788	0.499950	0.522530
C123	C	1.139558	-0.000044	0.498398
C124	C	1.639558	0.499956	0.998398
N125	N	1.201688	-0.000052	0.542550
N126	N	1.701688	0.499948	1.042550
H127	H	1.084684	-0.365737	-0.010969
H128	H	1.584684	0.134263	0.489031
H129	H	1.084712	-0.634342	-0.010985
H130	H	1.584712	-0.134342	0.489015
C131	C	0.863318	-0.377666	-0.232184
C132	C	1.363318	0.122334	0.267816
N133	N	0.816460	-0.412239	-0.279006
N134	N	1.316460	0.087761	0.220994
C135	C	0.863358	-0.797665	-0.232211
C136	C	1.363358	-0.297665	0.267789
N137	N	0.816500	-0.832236	-0.279035
N138	N	1.316500	-0.332236	0.220965
C139	C	0.863445	-0.622427	-0.232312
C140	C	1.363445	-0.122427	0.267688
N141	N	0.816697	-0.587865	-0.279259
N142	N	1.316697	-0.087865	0.220741
