data_functionalizedCrystal
_audit_creation_method	'MofGen! by Chris Wilmer'
_symmetry_space_group_name_H-M	'P1'
_symmetry_Int_Tables_number	1
_symmetry_cell_setting	triclinic
loop_
_symmetry_equiv_pos_as_xyz
  x,y,z
_cell_length_a	15.995350
_cell_length_b	17.699083
_cell_length_c	16.776229
_cell_angle_alpha	90.007545
_cell_angle_beta	90.003494
_cell_angle_gamma	83.387695
loop_
_atom_site_label
_atom_site_type_symbol
_atom_site_fract_x
_atom_site_fract_y
_atom_site_fract_z
O1	O	-1.110790	-0.097560	-0.066222
O2	O	-0.866990	-0.109607	-0.066239
O3	O	-0.995778	0.006594	-0.066223
O4	O	-0.982002	-0.213761	-0.066238
O5	O	-0.995761	0.006602	0.066353
O6	O	-0.866973	-0.109600	0.066338
O7	O	-1.110773	-0.097553	0.066354
Zn8	Zn	-0.988870	-0.103575	0.087395
Zn9	Zn	-0.988893	-0.103584	-0.087280
O10	O	-0.981985	-0.213754	0.066338
C11	C	-0.995276	0.034796	0.000065
C12	C	-0.993795	0.118816	0.000065
C13	C	-0.835788	-0.109105	0.000047
C14	C	-0.742841	-0.107612	0.000041
C15	C	-1.141975	-0.098054	0.000066
C16	C	-1.234923	-0.099547	0.000067
C17	C	-0.405104	-0.102250	0.000058
C18	C	-0.452706	-0.019493	0.000360
C19	C	-0.549394	-0.020987	0.000055
C20	C	-0.572659	-0.104910	0.000050
C21	C	-0.531499	-0.145732	-0.075657
C22	C	-0.434867	-0.143653	-0.075715
C23	C	-0.434505	-0.145355	0.075049
C24	C	-0.531451	-0.145335	0.076044
C25	C	-0.667354	-0.106417	0.000043
C26	C	-0.310409	-0.100745	0.000060
C27	C	-0.982487	-0.241955	0.000048
C28	C	-0.983968	-0.325976	0.000043
N29	N	-0.988861	-0.103568	0.206607
C30	C	-1.069391	0.167312	0.000072
C31	C	-1.067994	0.246257	0.000065
C32	C	-0.991001	0.276706	0.000057
C33	C	-0.915400	0.228205	0.000048
C34	C	-0.916797	0.149261	0.000050
C35	C	-0.909763	0.546577	0.000041
C36	C	-0.908372	0.625527	0.000042
C37	C	-1.060960	0.643574	0.000056
C38	C	-1.062358	0.564630	0.000058
C39	C	-0.986757	0.516135	0.000045
C40	C	-0.988272	0.430533	0.000051
C41	C	-0.989485	0.362306	0.000056
N42	N	-0.988909	-0.103585	-0.206491
C43	C	-1.045906	-0.052135	0.248331
C44	C	-1.045910	-0.052135	0.331783
C45	C	-0.988874	-0.103571	0.373509
C46	C	-0.931823	-0.155006	0.331779
C47	C	-0.931815	-0.155003	0.248329
C48	C	-0.931853	-0.155021	0.668327
C49	C	-0.931867	-0.155022	0.751783
C50	C	-1.045949	-0.052153	0.751781
C51	C	-1.045941	-0.052150	0.668330
C52	C	-0.988887	-0.103582	0.626607
C53	C	-0.988882	-0.103581	0.536119
C54	C	-0.988883	-0.103576	0.463996
H55	H	-0.577881	0.011101	0.054326
C56	C	-0.833636	0.095915	0.000045
N57	N	-0.770996	0.055737	0.000039
C58	C	-0.569911	-0.107432	-0.151771
N59	N	-0.598842	-0.078580	-0.209098
C60	C	-0.587130	0.022645	-0.073386
N61	N	-0.615552	0.055509	-0.128707
C62	C	-0.826599	0.493243	0.000023
N63	N	-0.763956	0.453069	0.000007
C64	C	-0.823669	0.659018	0.000027
N65	N	-0.759875	0.684244	0.000015
C66	C	-1.151156	0.299599	0.000084
N67	N	-1.213797	0.339776	0.000103
H68	H	-0.434245	0.013589	0.054652
C69	C	-1.108683	0.004436	0.622435
N70	N	-1.155939	0.047060	0.587869
H71	H	-0.546691	-0.206534	0.080614
C72	C	-0.869068	-0.211589	0.202433
N73	N	-0.821806	-0.254212	0.167865
C74	C	-0.391133	-0.225733	-0.080378
N75	N	-0.358195	-0.287554	-0.083899
H76	H	-0.416627	-0.113890	-0.132304
C77	C	-0.426324	0.024994	-0.072568
N78	N	-0.406450	0.058500	-0.127497
H79	H	-0.414018	-0.118297	0.132434
C80	C	-0.550416	-0.229026	-0.079471
N81	N	-0.564666	-0.291763	-0.082342
H82	H	-0.558821	-0.115535	0.132052
C83	C	-1.108651	0.004450	0.202439
N84	N	-1.155910	0.047075	0.167876
H85	H	-1.092402	-0.010272	0.785760
C86	C	-1.154091	0.133826	0.000080
N87	N	-1.217889	0.108607	0.000083
C88	C	-0.869074	-0.211580	0.377682
N89	N	-0.821810	-0.254192	0.412255
C90	C	-0.391426	-0.227783	0.075739
N91	N	-0.358974	-0.289865	0.076253
C92	C	-1.108644	0.004464	0.377676
N93	N	-1.155890	0.047103	0.412241
H94	H	-0.885400	-0.196900	0.634363
H95	H	-1.125053	0.539843	0.000068
H96	H	-1.122518	0.683068	0.000063
H97	H	-0.852711	0.253002	0.000037
C98	C	-0.869114	-0.211604	0.797681
N99	N	-0.821851	-0.254219	0.832251
