data_functionalizedCrystal
_audit_creation_method	'MofGen! by Chris Wilmer'
_symmetry_space_group_name_H-M	'P1'
_symmetry_Int_Tables_number	1
_symmetry_cell_setting	triclinic
loop_
_symmetry_equiv_pos_as_xyz
  x,y,z
_cell_length_a	18.050589
_cell_length_b	11.169417
_cell_length_c	11.169409
_cell_angle_alpha	90.022423
_cell_angle_beta	89.967208
_cell_angle_gamma	89.972841
loop_
_atom_site_label
_atom_site_type_symbol
_atom_site_fract_x
_atom_site_fract_y
_atom_site_fract_z
Zn1	Zn	-0.295621	-1.834822	-0.678598
Zn2	Zn	-0.419836	-1.834646	-0.477913
Zn3	Zn	-0.295662	-1.634105	-0.477926
Zn4	Zn	-0.419771	-1.634053	-0.678551
O5	O	-0.357722	-1.734407	-0.578247
O6	O	-0.312108	-2.002748	-0.651991
O7	O	-0.403408	-1.807992	-0.309965
O8	O	-0.191732	-1.660826	-0.504570
O9	O	-0.403368	-2.002619	-0.504548
O10	O	-0.191702	-1.808292	-0.652003
O11	O	-0.312178	-1.660656	-0.309974
O12	O	-0.312115	-1.466149	-0.504525
O13	O	-0.403258	-1.660737	-0.846507
O14	O	-0.403298	-1.466110	-0.651924
O15	O	-0.312045	-1.808241	-0.846542
O16	O	-0.523752	-1.807941	-0.504503
O17	O	-0.523704	-1.660566	-0.651911
C18	C	-0.357705	-1.422582	-0.578221
C19	C	-0.357715	-1.289182	-0.578239
C20	C	-0.550674	-1.734262	-0.578227
C21	C	-0.633220	-1.734309	-0.578259
C22	C	-0.832672	-1.654246	-0.658391
C23	C	-0.882123	-1.624981	-0.548875
C24	C	-0.784351	-1.734427	-0.578274
C25	C	-0.881981	-1.763751	-0.687803
C26	C	-0.930336	-1.734539	-0.578299
C27	C	-0.832714	-1.705105	-0.468700
C28	C	-0.832568	-1.843926	-0.607702
C29	C	-0.881997	-1.814703	-0.498110
C30	C	-0.700252	-1.734360	-0.578262
C31	C	-1.014432	-1.734607	-0.578299
C32	C	-0.164017	-1.734585	-0.578293
C33	C	-0.081471	-1.734661	-0.578313
C34	C	-0.357640	-1.734503	-0.891290
C35	C	-0.357605	-1.734544	-1.024690
C36	C	-0.357734	-1.047449	-0.578264
C37	C	-0.357724	-1.180849	-0.578247
C38	C	-0.357751	-1.734380	-0.266422
C39	C	-0.357577	-1.734571	-0.133023
H40	H	-0.903906	-1.532434	-0.524007
H41	H	-0.903623	-1.788509	-0.780420
H42	H	-0.810787	-1.936452	-0.632622
C43	C	-0.911080	-1.906363	-0.406491
C44	C	-0.890332	-2.039544	-0.418858
C45	C	-0.919417	-2.131194	-0.327232
C46	C	-0.969249	-2.089664	-0.223241
C47	C	-0.989999	-1.956477	-0.210871
C48	C	-0.960914	-1.864827	-0.302496
H49	H	-0.853441	-2.070293	-0.495842
H50	H	-0.904056	-2.229789	-0.336391
H51	H	-0.990779	-2.157509	-0.155415
H52	H	-1.026890	-1.925728	-0.133886
H53	H	-0.976275	-1.766233	-0.293338
H54	H	-0.811162	-1.680241	-0.376057
H55	H	-0.811014	-1.586339	-0.726048
