data_functionalizedCrystal
_audit_creation_method	'MofGen! by Chris Wilmer'
_symmetry_space_group_name_H-M	'P1'
_symmetry_Int_Tables_number	1
_symmetry_cell_setting	triclinic
loop_
_symmetry_equiv_pos_as_xyz
  x,y,z
_cell_length_a	14.519709
_cell_length_b	16.109301
_cell_length_c	13.596369
_cell_angle_alpha	90.007256
_cell_angle_beta	90.000221
_cell_angle_gamma	83.570813
loop_
_atom_site_label
_atom_site_type_symbol
_atom_site_fract_x
_atom_site_fract_y
_atom_site_fract_z
O1	O	-1.223637	-0.108987	-0.081667
O2	O	-0.973637	0.141013	0.168333
O3	O	-0.723637	0.391013	0.418333
O4	O	-0.473637	0.641013	0.668333
O5	O	-0.955133	-0.121821	-0.081697
O6	O	-0.705133	0.128179	0.168303
O7	O	-0.455133	0.378179	0.418303
O8	O	-0.205133	0.628179	0.668303
O9	O	-1.096761	0.005614	-0.081671
O10	O	-0.846761	0.255614	0.168329
O11	O	-0.596761	0.505614	0.418329
O12	O	-0.346761	0.755614	0.668329
O13	O	-1.082009	-0.236422	-0.081693
O14	O	-0.832009	0.013578	0.168307
O15	O	-0.582009	0.263578	0.418307
O16	O	-0.332009	0.513578	0.668307
O17	O	-1.096745	0.005621	0.081912
O18	O	-0.846745	0.255621	0.331912
O19	O	-0.596745	0.505621	0.581912
O20	O	-0.346745	0.755621	0.831912
O21	O	-0.955117	-0.121815	0.081886
O22	O	-0.705117	0.128185	0.331886
O23	O	-0.455117	0.378185	0.581886
O24	O	-0.205117	0.628185	0.831886
O25	O	-1.223621	-0.108980	0.081916
O26	O	-0.973621	0.141020	0.331916
O27	O	-0.723621	0.391020	0.581916
O28	O	-0.473621	0.641020	0.831916
Zn29	Zn	-1.089367	-0.115397	0.107873
Zn30	Zn	-0.839367	0.134603	0.357873
Zn31	Zn	-0.589367	0.384603	0.607873
Zn32	Zn	-0.339367	0.634603	0.857873
Zn33	Zn	-1.089387	-0.115405	-0.107654
Zn34	Zn	-0.839387	0.134595	0.142346
Zn35	Zn	-0.589387	0.384595	0.392346
Zn36	Zn	-0.339387	0.634595	0.642346
O37	O	-1.081993	-0.236416	0.081890
O38	O	-0.831993	0.013584	0.331890
O39	O	-0.581993	0.263584	0.581890
O40	O	-0.331993	0.513584	0.831890
C41	C	-0.920766	-0.121220	0.000091
C42	C	-0.670766	0.128780	0.250091
C43	C	-0.420766	0.378780	0.500091
C44	C	-0.170766	0.628780	0.750091
C45	C	-0.818389	-0.119427	0.000079
C46	C	-0.568389	0.130573	0.250079
C47	C	-0.318389	0.380573	0.500079
C48	C	-0.068389	0.630573	0.750079
C49	C	-1.257988	-0.109582	0.000127
C50	C	-1.007988	0.140418	0.250127
C51	C	-0.757988	0.390418	0.500127
C52	C	-0.507988	0.640418	0.750127
C53	C	-1.360365	-0.111374	0.000131
C54	C	-1.110365	0.138626	0.250131
C55	C	-0.860365	0.388626	0.500131
C56	C	-0.610365	0.638626	0.750131
C57	C	-1.096156	0.036593	0.000121
C58	C	-0.846156	0.286593	0.250121
C59	C	-0.596156	0.536593	0.500121
C60	C	-0.346156	0.786593	0.750121
C61	C	-1.094364	0.128892	0.000122
C62	C	-0.844364	0.378892	0.250122
C63	C	-0.594364	0.628892	0.500122
C64	C	-0.344364	0.878892	0.750122
C65	C	-0.443507	-0.112829	0.000125
C66	C	-0.193507	0.137171	0.250125
C67	C	0.056493	0.387171	0.500125
C68	C	0.306493	0.637171	0.750125
C69	C	-0.547811	-0.114661	0.000112
C70	C	-0.297811	0.135339	0.250112
C71	C	-0.047811	0.385339	0.500112
C72	C	0.202189	0.635339	0.750112
C73	C	-0.630945	-0.116128	0.000101
C74	C	-0.380945	0.133872	0.250101
C75	C	-0.130945	0.383872	0.500101
C76	C	0.119055	0.633872	0.750101
C77	C	-0.735256	-0.117961	0.000090
C78	C	-0.485256	0.132039	0.250090
C79	C	-0.235256	0.382039	0.500090
C80	C	0.014744	0.632039	0.750090
C81	C	-1.082599	-0.267395	0.000096
C82	C	-0.832599	-0.017395	0.250096
C83	C	-0.582599	0.232605	0.500096
C84	C	-0.332599	0.482605	0.750096
C85	C	-1.084390	-0.359693	0.000089
C86	C	-0.834390	-0.109693	0.250089
C87	C	-0.584390	0.140307	0.500089
C88	C	-0.334390	0.390307	0.750089
N89	N	-1.089360	-0.115390	0.254965
N90	N	-0.839360	0.134610	0.504965
N91	N	-0.589360	0.384610	0.754965
N92	N	-0.339360	0.634610	1.004965
C93	C	-1.174238	0.351026	0.000116
C94	C	-0.924238	0.601026	0.250116
C95	C	-0.674238	0.851026	0.500116
C96	C	-0.424238	1.101026	0.750116
C97	C	-1.172547	0.437749	0.000107
C98	C	-0.922547	0.687749	0.250107
C99	C	-0.672547	0.937749	0.500107
C100	C	-0.422547	1.187749	0.750107
C101	C	-1.004510	0.418166	0.000092
C102	C	-0.754510	0.668166	0.250092
C103	C	-0.504510	0.918166	0.500092
C104	C	-0.254510	1.168166	0.750092
C105	C	-1.006202	0.331444	0.000093
C106	C	-0.756202	0.581444	0.250093
C107	C	-0.506202	0.831444	0.500093
C108	C	-0.256202	1.081444	0.750093
C109	C	-1.091068	0.297877	0.000110
C110	C	-0.841068	0.547877	0.250110
C111	C	-0.591068	0.797877	0.500110
C112	C	-0.341068	1.047877	0.750110
C113	C	-1.087686	0.471322	0.000101
C114	C	-0.837686	0.721322	0.250101
C115	C	-0.587686	0.971322	0.500101
C116	C	-0.337686	1.221322	0.750101
C117	C	-1.085852	0.565351	0.000092
C118	C	-0.835852	0.815351	0.250092
C119	C	-0.585852	1.065351	0.500092
C120	C	-0.335852	1.315351	0.750092
C121	C	-1.092902	0.203842	0.000117
C122	C	-0.842902	0.453842	0.250117
C123	C	-0.592902	0.703842	0.500117
C124	C	-0.342902	0.953842	0.750117
C125	C	-1.089379	-0.115408	0.656256
C126	C	-0.839379	0.134592	0.906256
C127	C	-0.589379	0.384592	1.156256
C128	C	-0.339379	0.634592	1.406256
C129	C	-1.089371	-0.115406	0.544605
C130	C	-0.839371	0.134594	0.794605
C131	C	-0.589371	0.384594	1.044605
C132	C	-0.339371	0.634594	1.294605
C133	C	-1.089370	-0.115400	0.455614
C134	C	-0.839370	0.134600	0.705614
C135	C	-0.589370	0.384600	0.955614
C136	C	-0.339370	0.634600	1.205614
C137	C	-1.089361	-0.115397	0.343956
C138	C	-0.839361	0.134603	0.593956
C139	C	-0.589361	0.384603	0.843956
C140	C	-0.339361	0.634603	1.093956
N141	N	-1.089393	-0.115408	0.745254
N142	N	-0.839393	0.134592	0.995254
N143	N	-0.589393	0.384592	1.245254
N144	N	-0.339393	0.634592	1.495254
H145	H	-1.243341	0.323699	0.000127
H146	H	-0.993341	0.573699	0.250127
H147	H	-0.743341	0.823699	0.500127
H148	H	-0.493341	1.073699	0.750127
H149	H	-1.240272	0.481020	0.000110
H150	H	-0.990272	0.731020	0.250110
H151	H	-0.740272	0.981020	0.500110
H152	H	-0.490272	1.231020	0.750110
Cl153	Cl	-0.897827	0.460371	0.000072
Cl154	Cl	-0.647827	0.710371	0.250072
Cl155	Cl	-0.397827	0.960371	0.500072
Cl156	Cl	-0.147827	1.210371	0.750072
Cl157	Cl	-0.901637	0.264623	0.000078
Cl158	Cl	-0.651637	0.514623	0.250078
Cl159	Cl	-0.401637	0.764623	0.500078
Cl160	Cl	-0.151637	1.014623	0.750078
