data_functionalizedCrystal
_audit_creation_method	'MofGen! by Chris Wilmer'
_symmetry_space_group_name_H-M	'P1'
_symmetry_Int_Tables_number	1
_symmetry_cell_setting	triclinic
loop_
_symmetry_equiv_pos_as_xyz
  x,y,z
_cell_length_a	12.759401
_cell_length_b	12.759400
_cell_length_c	12.759393
_cell_angle_alpha	90.030447
_cell_angle_beta	90.018496
_cell_angle_gamma	90.013326
loop_
_atom_site_label
_atom_site_type_symbol
_atom_site_fract_x
_atom_site_fract_y
_atom_site_fract_z
Zn1	Zn	-1.606267	0.418200	-0.593990
Zn2	Zn	-1.606166	0.593919	-0.418313
Zn3	Zn	-1.430569	0.418255	-0.418329
Zn4	Zn	-1.430562	0.593838	-0.593955
O5	O	-1.518391	0.506053	-0.506147
O6	O	-1.753274	0.441520	-0.570694
O7	O	-1.582833	0.570673	-0.271294
O8	O	-1.453920	0.271226	-0.441652
O9	O	-1.753200	0.570620	-0.441625
O10	O	-1.583005	0.271186	-0.570709
O11	O	-1.453822	0.441614	-0.271306
O12	O	-1.283547	0.441535	-0.441618
O13	O	-1.453909	0.570482	-0.740980
O14	O	-1.283542	0.570536	-0.570649
O15	O	-1.582998	0.441442	-0.741006
O16	O	-1.582826	0.740929	-0.441591
O17	O	-1.453811	0.740870	-0.570634
C18	C	-1.245423	0.506033	-0.506132
C19	C	-1.128647	0.506050	-0.506151
C20	C	-1.518464	0.505947	-0.780180
C21	C	-1.518496	0.505902	-0.896957
C22	C	-1.518336	0.779020	-0.506130
C23	C	-1.518408	0.895797	-0.506158
C24	C	-1.792424	0.506073	-0.506161
C25	C	-1.909201	0.506082	-0.506168
C26	C	-1.073810	0.573328	-0.573227
C27	C	-0.964086	0.573342	-0.573238
C28	C	-0.964045	0.438796	-0.439089
C29	C	-1.073767	0.438778	-0.439084
C30	C	-1.128689	0.640600	-0.640294
C31	C	-1.073852	0.707885	-0.707374
C32	C	-0.964128	0.707898	-0.707385
C33	C	-0.909241	0.640627	-0.640316
C34	C	-1.518475	0.232019	-0.506186
C35	C	-1.518510	0.115243	-0.506203
C36	C	-1.585589	0.950558	-0.573413
C37	C	-1.585638	1.060282	-0.573439
C38	C	-1.451322	1.060474	-0.438945
C39	C	-1.451269	0.950752	-0.438926
C40	C	-1.652728	0.895603	-0.640645
C41	C	-1.719915	0.950364	-0.707905
C42	C	-1.719964	1.060088	-0.707931
C43	C	-1.652826	1.115051	-0.640697
C44	C	-1.585722	0.438704	-0.951834
C45	C	-1.585747	0.438666	-1.061558
C46	C	-1.451316	0.573033	-1.061518
C47	C	-1.451287	0.573064	-0.951796
C48	C	-1.652930	0.371541	-0.896994
C49	C	-1.720163	0.304339	-0.951872
C50	C	-1.720188	0.304301	-1.061596
C51	C	-1.652980	0.371465	-1.116443
C52	C	-1.518378	0.506083	-0.233179
C53	C	-1.518550	0.505832	-0.116403
H54	H	-1.218032	0.640599	-0.640290
N55	N	-0.908095	0.776625	-0.775886
N56	N	-0.810130	0.776636	-0.775883
H57	H	-0.770557	0.825181	-0.824258
H58	H	-0.919348	0.384028	-0.384484
N59	N	-1.788871	0.235671	-1.117653
N60	N	-1.855823	0.272627	-1.178873
H61	H	-1.904337	0.224159	-1.218462
N62	N	-1.382656	0.641628	-1.117530
N63	N	-1.285710	0.634643	-1.105272
H64	H	-1.237215	0.683088	-1.144830
N65	N	-1.129929	0.776594	-0.775867
N66	N	-1.191132	0.843490	-0.738777
H67	H	-1.230736	0.892018	-0.787152
N68	N	-1.653009	0.371405	-1.228524
N69	N	-1.713033	0.311396	-1.277512
H70	H	-1.713057	0.311354	-1.356668
H71	H	-1.396563	0.906165	-0.384161
H72	H	-1.118417	0.383987	-0.384473
H73	H	-1.652698	0.806260	-0.640630
H74	H	-1.652920	0.371567	-0.807652
N75	N	-1.788506	0.894229	-0.776566
N76	N	-1.885460	0.906426	-0.769675
H77	H	-1.933906	0.866783	-0.818167
H78	H	-1.774662	1.104672	-0.762705
H79	H	-1.774874	0.249649	-0.907208
H80	H	-1.396529	0.627767	-0.907114
N81	N	-1.652877	1.227132	-0.640746
N82	N	-1.712860	1.276017	-0.700807
H83	H	-1.712899	1.355173	-0.700842
N84	N	-0.797160	0.640640	-0.640353
N85	N	-0.748208	0.700708	-0.700255
H86	H	-0.669051	0.700721	-0.700281
N87	N	-1.382752	1.116630	-0.370280
N88	N	-1.382810	1.214595	-0.370308
H89	H	-1.334383	1.254256	-0.321811
