data_functionalizedCrystal
_audit_creation_method	'MofGen! by Chris Wilmer'
_symmetry_space_group_name_H-M	'P1'
_symmetry_Int_Tables_number	1
_symmetry_cell_setting	triclinic
loop_
_symmetry_equiv_pos_as_xyz
  x,y,z
_cell_length_a	15.995343
_cell_length_b	15.995350
_cell_length_c	14.472310
_cell_angle_alpha	89.998838
_cell_angle_beta	89.991294
_cell_angle_gamma	96.509221
loop_
_atom_site_label
_atom_site_type_symbol
_atom_site_fract_x
_atom_site_fract_y
_atom_site_fract_z
O1	O	1.111001	-0.107890	-0.076744
O2	O	1.611001	0.392110	0.423256
O3	O	0.867224	-0.121224	-0.076765
O4	O	1.367224	0.378776	0.423235
O5	O	0.995776	0.007331	-0.076753
O6	O	1.495776	0.507331	0.423247
O7	O	0.982449	-0.236445	-0.076756
O8	O	1.482449	0.263555	0.423244
O9	O	0.995743	0.007323	0.076929
O10	O	1.495743	0.507323	0.576929
O11	O	0.867191	-0.121232	0.076917
O12	O	1.367191	0.378768	0.576917
O13	O	1.110968	-0.107897	0.076938
O14	O	1.610968	0.392103	0.576938
Cu15	Cu	0.989076	-0.114565	0.090960
Cu16	Cu	1.489076	0.385435	0.590960
Cu17	Cu	0.989116	-0.114556	-0.090787
Cu18	Cu	1.489116	0.385444	0.409213
O19	O	0.982416	-0.236452	0.076926
O20	O	1.482416	0.263548	0.576926
C21	C	0.836013	-0.120678	0.000073
C22	C	1.336013	0.379322	0.500073
C23	C	0.743062	-0.119028	0.000065
C24	C	1.243062	0.380972	0.500065
C25	C	0.572876	-0.116035	0.000077
C26	C	1.072876	0.383965	0.500077
C27	C	0.549530	-0.023238	0.000078
C28	C	1.049530	0.476762	0.500078
C29	C	0.452852	-0.021492	0.000432
C30	C	0.952852	0.478508	0.500432
C31	C	0.405316	-0.113086	0.000088
C32	C	0.905316	0.386914	0.500088
C33	C	0.434389	-0.159750	0.087673
C34	C	0.934389	0.340250	0.587673
C35	C	0.531181	-0.160851	0.087741
C36	C	1.031181	0.339149	0.587741
C37	C	0.531129	-0.162201	-0.087030
C38	C	1.031129	0.337799	0.412970
C39	C	0.434635	-0.158776	-0.088176
C40	C	0.934635	0.341224	0.411824
C41	C	0.310618	-0.111425	0.000098
C42	C	0.810618	0.388575	0.500098
C43	C	0.667574	-0.117699	0.000074
C44	C	1.167574	0.382301	0.500074
C45	C	0.995209	0.038522	0.000086
C46	C	1.495209	0.538522	0.500086
C47	C	0.993557	0.131472	0.000081
C48	C	1.493557	0.631472	0.500081
C49	C	1.142179	-0.108444	0.000098
C50	C	1.642179	0.391556	0.500098
C51	C	1.235130	-0.110093	0.000101
C52	C	1.735130	0.389907	0.500101
C53	C	0.982983	-0.267643	0.000085
C54	C	1.482983	0.232357	0.500085
C55	C	0.984635	-0.360594	0.000084
C56	C	1.484635	0.139406	0.500084
N57	N	0.989055	-0.114571	0.218791
N58	N	1.489055	0.385429	0.718791
C59	C	0.987625	0.469220	0.000083
C60	C	1.487625	0.969220	0.500083
C61	C	0.896073	0.421783	-0.000269
C62	C	1.396073	0.921783	0.499731
C63	C	0.897725	0.325093	0.000077
C64	C	1.397725	0.825093	0.500077
C65	C	0.990567	0.301659	0.000082
C66	C	1.490567	0.801659	0.500082
C67	C	1.035705	0.342734	0.087844
C68	C	1.535705	0.842734	0.587844
C69	C	1.033405	0.439369	0.087917
C70	C	1.533405	0.939369	0.587917
C71	C	1.035334	0.439736	-0.086848
C72	C	1.535334	0.939736	0.413152
C73	C	1.035313	0.342791	-0.088008
C74	C	1.535313	0.842791	0.411992
C75	C	0.992235	0.206962	0.000084
C76	C	1.492235	0.706962	0.500084
C77	C	0.985960	0.563917	0.000088
C78	C	1.485960	1.063917	0.500088
N79	N	0.989144	-0.114544	-0.218618
N80	N	1.489144	0.385456	0.281382
C81	C	0.989114	-0.114553	0.592882
C82	C	1.489114	0.385447	1.092882
C83	C	0.920098	-0.183109	0.553710
C84	C	1.420098	0.316891	1.053710
C85	C	0.920257	-0.183359	0.446622
C86	C	1.420257	0.316641	0.946622
C87	C	0.989084	-0.114562	0.407291
C88	C	1.489084	0.385438	0.907291
C89	C	1.076449	-0.133641	0.446136
C90	C	1.576449	0.366359	0.946136
C91	C	1.076061	-0.134128	0.553257
C92	C	1.576061	0.365872	1.053257
C93	C	0.971545	-0.026714	0.553410
C94	C	1.471545	0.473286	1.053410
C95	C	0.969541	-0.027299	0.446283
C96	C	1.469541	0.472701	0.946283
C97	C	0.989073	-0.114565	0.302403
C98	C	1.489073	0.385435	0.802403
C99	C	0.989132	-0.114551	0.697770
C100	C	1.489132	0.385449	1.197770
H101	H	0.402542	-0.227161	0.090683
H102	H	0.902542	0.272839	0.590683
O103	O	0.994151	0.305140	0.174357
O104	O	1.494151	0.805140	0.674357
H105	H	0.941358	0.257214	0.155070
H106	H	1.441358	0.757214	0.655070
O107	O	0.995706	0.466935	-0.174965
O108	O	1.495706	0.966935	0.325035
H109	H	0.941557	0.501775	-0.157780
H110	H	1.441557	1.001775	0.342220
H111	H	0.855317	-0.171992	0.420360
H112	H	1.355317	0.328008	0.920360
O113	O	0.586643	0.024441	-0.083090
O114	O	1.086643	0.524441	0.416910
H115	H	0.629766	0.079657	-0.059739
H116	H	1.129766	0.579657	0.440261
O117	O	1.125001	0.322455	-0.095022
O118	O	1.625001	0.822455	0.404978
H119	H	1.133241	0.288168	-0.160481
H120	H	1.633241	0.788168	0.339519
H121	H	1.103913	0.328610	0.091111
H122	H	1.603913	0.828610	0.591111
O123	O	0.991661	0.306635	-0.174014
O124	O	1.491661	0.806635	0.325986
H125	H	1.036989	0.275847	-0.216773
H126	H	1.536989	0.775847	0.283227
H127	H	1.102835	0.471499	-0.087434
H128	H	1.602835	0.971499	0.412566
H129	H	0.416091	-0.124793	-0.152972
H130	H	0.916091	0.375207	0.347028
H131	H	0.905275	-0.012820	0.420895
H132	H	1.405275	0.487180	0.920895
H133	H	0.854948	-0.171929	0.579492
H134	H	1.354948	0.328071	1.079492
H135	H	0.862242	0.296673	-0.062835
H136	H	1.362242	0.796673	0.437165
O137	O	1.031812	0.043450	0.410851
O138	O	1.531812	0.543450	0.910851
H139	H	1.077869	0.017405	0.364693
H140	H	1.577869	0.517405	0.864693
O141	O	0.587893	0.023635	0.083152
O142	O	1.087893	0.523635	0.583152
H143	H	0.623514	-0.018875	0.124443
H144	H	1.123514	0.481125	0.624443
H145	H	0.931163	-0.247926	0.580620
H146	H	1.431163	0.252074	1.080620
O147	O	0.935123	-0.269699	0.412653
O148	O	1.435123	0.230301	0.912653
H149	H	0.942235	-0.311434	0.472739
H150	H	1.442235	0.188566	0.972739
H151	H	0.401679	-0.225608	-0.093737
H152	H	0.901679	0.274392	0.406263
H153	H	0.859629	0.441373	0.062310
H154	H	1.359629	0.941373	0.562310
O155	O	0.989767	0.463619	0.174806
O156	O	1.489767	0.963619	0.674806
H157	H	0.924679	0.431114	0.176335
H158	H	1.424679	0.931114	0.676335
O159	O	1.096568	-0.218980	0.586354
O160	O	1.596568	0.281020	1.086354
H161	H	1.106663	-0.259282	0.525848
H162	H	1.606663	0.240718	1.025848
O163	O	1.097446	-0.217535	0.410605
O164	O	1.597446	0.282465	0.910605
H165	H	1.100214	-0.215978	0.333983
H166	H	1.600214	0.284022	0.833983
O167	O	1.146135	-0.070512	0.587592
O168	O	1.646135	0.429488	1.087592
H169	H	1.180153	-0.039541	0.527682
H170	H	1.680153	0.460459	1.027682
H171	H	1.129033	-0.085036	0.420657
H172	H	1.629033	0.414964	0.920657
O173	O	0.888973	-0.002421	0.589216
O174	O	1.388973	0.497579	1.089216
H175	H	0.859532	-0.052691	0.635550
H176	H	1.359532	0.447309	1.135550
H177	H	1.021876	0.024304	0.578742
H178	H	1.521876	0.524304	1.078742
O179	O	0.428398	0.026645	0.084090
O180	O	0.928398	0.526645	0.584090
H181	H	0.485658	0.048760	0.124456
H182	H	0.985658	0.548760	0.624456
H183	H	0.433846	0.015036	-0.062340
H184	H	0.933846	0.515036	0.437660
H185	H	0.414283	-0.127739	0.153102
H186	H	0.914283	0.372261	0.653102
O187	O	1.122433	0.482098	0.093219
O188	O	1.622433	0.982098	0.593219
H189	H	1.166937	0.433712	0.095726
H190	H	1.666937	0.933712	0.595726
O191	O	0.850389	0.288175	0.083557
O192	O	1.350389	0.788175	0.583557
H193	H	0.784283	0.302899	0.080503
H194	H	1.284283	0.802899	0.580503
O195	O	0.566654	-0.118557	0.174794
O196	O	1.066654	0.381443	0.674794
H197	H	0.514650	-0.097508	0.216444
H198	H	1.014650	0.402492	0.716444
O199	O	0.550497	-0.250987	0.092698
O200	O	1.050497	0.249013	0.592698
H201	H	0.490726	-0.293597	0.095043
H202	H	0.990726	0.206403	0.595043
H203	H	0.559414	-0.132921	-0.153438
H204	H	1.059414	0.367079	0.346562
H205	H	0.545143	-0.230506	-0.087875
H206	H	1.045143	0.269494	0.412125
O207	O	0.847611	0.446349	-0.083624
O208	O	1.347611	0.946349	0.416376
H209	H	0.880469	0.429835	-0.147502
H210	H	1.380469	0.929835	0.352498
