data_functionalizedCrystal
_audit_creation_method	'MofGen! by Chris Wilmer'
_symmetry_space_group_name_H-M	'P1'
_symmetry_Int_Tables_number	1
_symmetry_cell_setting	triclinic
loop_
_symmetry_equiv_pos_as_xyz
  x,y,z
_cell_length_a	12.594517
_cell_length_b	12.759401
_cell_length_c	12.759393
_cell_angle_alpha	89.981504
_cell_angle_beta	90.025980
_cell_angle_gamma	89.993206
loop_
_atom_site_label
_atom_site_type_symbol
_atom_site_fract_x
_atom_site_fract_y
_atom_site_fract_z
Zn1	Zn	0.423675	1.606314	-0.594022
Zn2	Zn	0.601694	1.606233	-0.418359
Zn3	Zn	0.423730	1.430616	-0.418362
Zn4	Zn	0.601612	1.430630	-0.594001
O5	O	0.512678	1.518448	-0.506186
O6	O	0.447300	1.753325	-0.570728
O7	O	0.578144	1.582898	-0.271339
O8	O	0.274777	1.453951	-0.441673
O9	O	0.578090	1.753265	-0.441669
O10	O	0.274736	1.583036	-0.570730
O11	O	0.447395	1.453873	-0.271340
O12	O	0.447316	1.283597	-0.441652
O13	O	0.577951	1.453974	-0.741025
O14	O	0.578005	1.283607	-0.570694
O15	O	0.447221	1.583049	-0.741040
O16	O	0.750629	1.582911	-0.441649
O17	O	0.750569	1.453896	-0.570692
C18	C	0.512658	1.245481	-0.506172
C19	C	0.512675	1.128704	-0.506191
C20	C	0.235057	1.518501	-0.506204
C21	C	0.116752	1.518524	-0.506212
C22	C	0.580834	1.073875	-0.573271
C23	C	0.580848	0.964151	-0.573283
C24	C	0.444541	0.964095	-0.439124
C25	C	0.444523	1.073817	-0.439118
C26	C	0.648987	1.128762	-0.640344
C27	C	0.717152	1.073932	-0.707429
C28	C	0.717165	0.964208	-0.707440
C29	C	0.649014	0.909314	-0.640366
C30	C	0.047476	1.588725	-0.576410
C31	C	-0.023275	1.614394	-0.480564
C32	C	-0.023296	1.492888	-0.602064
C33	C	0.047558	1.544243	-0.410315
C34	C	0.047544	1.422692	-0.531879
C35	C	-0.023176	1.448325	-0.435967
C36	C	0.789219	1.518424	-0.506191
C37	C	0.907524	1.518510	-0.506228
C38	C	0.512570	1.518522	-0.780219
C39	C	0.512525	1.518553	-0.896996
C40	C	0.512698	1.792482	-0.506201
C41	C	0.512707	1.909258	-0.506207
C42	C	0.444447	1.585772	-0.951868
C43	C	0.444409	1.585797	-1.061592
C44	C	0.580534	1.451382	-1.061563
C45	C	0.580567	1.451352	-0.951841
C46	C	0.376405	1.652973	-0.897023
C47	C	0.308323	1.720198	-0.951895
C48	C	0.308284	1.720222	-1.061620
C49	C	0.376328	1.653023	-1.116472
C50	C	0.512708	1.518436	-0.233219
C51	C	0.512454	1.518608	-0.116442
H52	H	0.648985	1.218105	-0.640340
H53	H	0.649021	0.819969	-0.640390
H54	H	0.389056	0.919391	-0.384514
O55	O	0.242116	1.785616	-1.114761
C56	C	0.182052	1.844898	-1.042821
H57	H	0.225676	1.848504	-0.964603
H58	H	0.170699	1.927686	-1.074530
H59	H	0.101213	1.806442	-1.031158
O60	O	0.783313	1.127414	-0.772486
C61	C	0.768669	1.236016	-0.758113
H62	H	0.733712	1.250969	-0.677088
H63	H	0.848399	1.277719	-0.765107
H64	H	0.712058	1.267178	-0.820519
H65	H	0.252918	1.774902	-0.907228
H66	H	0.376431	1.652962	-0.807681
O67	O	-0.060440	1.711001	-0.454483
C68	C	-0.121978	1.703711	-0.362488
H69	H	-0.097788	1.630765	-0.316718
H70	H	-0.108306	1.776220	-0.312079
H71	H	-0.209599	1.698253	-0.384274
H72	H	0.376279	1.653036	-1.205817
O73	O	-0.060550	1.466892	-0.698677
C74	C	-0.122063	1.374857	-0.691450
H75	H	-0.152549	1.365524	-0.607856
H76	H	-0.192253	1.380404	-0.747626
H77	H	-0.071131	1.304223	-0.713025
O78	O	0.646601	1.386215	-1.115006
C79	C	0.631958	1.400640	-1.223616
H80	H	0.597097	1.481730	-1.238608
H81	H	0.711672	1.393515	-1.265302
H82	H	0.575265	1.338341	-1.254762
H83	H	0.389014	1.118461	-0.384503
H84	H	0.635985	1.396601	-0.907163
H85	H	0.078498	1.648142	-0.635694
H86	H	0.772661	0.919569	-0.762072
O87	O	0.084700	1.570237	-0.313660
C88	C	0.196642	1.569939	-0.314821
H89	H	0.225911	1.581663	-0.398539
H90	H	0.227564	1.636189	-0.263238
H91	H	0.226968	1.491728	-0.283625
O92	O	-0.059913	1.377612	-0.364935
C93	C	-0.023591	1.405009	-0.264059
H94	H	-0.003843	1.492176	-0.262065
H95	H	-0.088154	1.387356	-0.204003
H96	H	0.050594	1.357650	-0.244537
H97	H	0.078672	1.341676	-0.553616
