data_functionalizedCrystal
_audit_creation_method	'MofGen! by Chris Wilmer'
_symmetry_space_group_name_H-M	'P1'
_symmetry_Int_Tables_number	1
_symmetry_cell_setting	triclinic
loop_
_symmetry_equiv_pos_as_xyz
  x,y,z
_cell_length_a	17.077404
_cell_length_b	13.032721
_cell_length_c	17.077396
_cell_angle_alpha	97.153695
_cell_angle_beta	89.981638
_cell_angle_gamma	97.202376
loop_
_atom_site_label
_atom_site_type_symbol
_atom_site_fract_x
_atom_site_fract_y
_atom_site_fract_z
Zn1	Zn	1.160369	-0.416096	-0.483506
Zn2	Zn	1.493702	-0.082763	-0.150173
Zn3	Zn	1.827036	0.250570	0.183161
Zn4	Zn	1.143608	-0.590861	-0.368909
Zn5	Zn	1.476941	-0.257528	-0.035576
Zn6	Zn	1.810274	0.075805	0.297758
Zn7	Zn	1.029098	-0.416126	-0.352259
Zn8	Zn	1.362431	-0.082793	-0.018926
Zn9	Zn	1.695765	0.250541	0.314407
Zn10	Zn	1.012407	-0.590792	-0.500129
Zn11	Zn	1.345740	-0.257459	-0.166795
Zn12	Zn	1.679074	0.075874	0.166538
O13	O	1.086370	-0.503469	-0.426201
O14	O	1.419704	-0.170136	-0.092867
O15	O	1.753037	0.163198	0.240466
O16	O	1.267991	-0.439296	-0.468316
O17	O	1.601324	-0.105962	-0.134982
O18	O	1.934658	0.227371	0.198351
O19	O	1.128388	-0.567724	-0.256857
O20	O	1.461722	-0.234390	0.076476
O21	O	1.795055	0.098943	0.409809
O22	O	1.060511	-0.269884	-0.355745
O23	O	1.393845	0.063450	-0.022412
O24	O	1.727178	0.396783	0.310922
O25	O	1.255676	-0.567695	-0.384122
O26	O	1.589010	-0.234361	-0.050789
O27	O	1.922343	0.098972	0.282545
O28	O	1.156955	-0.269862	-0.452171
O29	O	1.490289	0.063472	-0.118838
O30	O	1.823622	0.396805	0.214495
O31	O	1.044258	-0.439346	-0.244625
O32	O	1.377592	-0.106013	0.088708
O33	O	1.710925	0.227320	0.422042
O34	O	0.917038	-0.439280	-0.371863
O35	O	1.250372	-0.105946	-0.038530
O36	O	1.583705	0.227387	0.294803
O37	O	1.032064	-0.567577	-0.607767
O38	O	1.365397	-0.234244	-0.274433
O39	O	1.698730	0.099089	0.058900
O40	O	0.904776	-0.567606	-0.480502
O41	O	1.238109	-0.234273	-0.147169
O42	O	1.571442	0.099060	0.186164
O43	O	1.140771	-0.439229	-0.595554
O44	O	1.474104	-0.105895	-0.262221
O45	O	1.807438	0.227438	0.071113
O46	O	1.112204	-0.737091	-0.400240
O47	O	1.445537	-0.403757	-0.066907
O48	O	1.778870	-0.070424	0.266426
O49	O	1.015811	-0.737040	-0.496647
O50	O	1.349144	-0.403707	-0.163313
O51	O	1.682478	-0.070373	0.170020
C52	C	0.882425	-0.503439	-0.426180
C53	C	1.215759	-0.170106	-0.092847
C54	C	1.549092	0.163227	0.240486
C55	C	0.795174	-0.503452	-0.426193
C56	C	1.128508	-0.170119	-0.092859
C57	C	1.461841	0.163215	0.240474
C58	C	0.760586	-0.436713	-0.470120
C59	C	1.093919	-0.103380	-0.136787
C60	C	1.427252	0.229953	0.196546
C61	C	0.678605	-0.436720	-0.470125
C62	C	1.011938	-0.103387	-0.136791
C63	C	1.345271	0.229947	0.196542
C64	C	0.631213	-0.503471	-0.426205
C65	C	0.964546	-0.170138	-0.092872
C66	C	1.297880	0.163195	0.240462
C67	C	0.665807	-0.570213	-0.382272
C68	C	0.999140	-0.236880	-0.048939
C69	C	1.332474	0.096454	0.284395
C70	C	0.747787	-0.570200	-0.382264
C71	C	1.081121	-0.236867	-0.048931
C72	C	1.414454	0.096467	0.284403
C73	C	0.494935	-0.570237	-0.382294
C74	C	0.828268	-0.236903	-0.048960
C75	C	1.161601	0.096430	0.284373
C76	C	0.412949	-0.570251	-0.382303
C77	C	0.746282	-0.236918	-0.048970
C78	C	1.079615	0.096416	0.284364
C79	C	0.425752	-0.436756	-0.470155
C80	C	0.759085	-0.103423	-0.136821
C81	C	1.092419	0.229910	0.196512
C82	C	0.507732	-0.436744	-0.470146
C83	C	0.841066	-0.103410	-0.136813
C84	C	1.174399	0.229923	0.196520
C85	C	0.542321	-0.503487	-0.426214
C86	C	0.875654	-0.170154	-0.092881
C87	C	1.208987	0.163180	0.240452
C88	C	1.060399	-0.774983	-0.452071
C89	C	1.393732	-0.441650	-0.118738
C90	C	1.727065	-0.108317	0.214596
C91	C	1.049360	-0.891138	-0.463165
C92	C	1.382693	-0.557805	-0.129831
C93	C	1.716026	-0.224471	0.203502
C94	C	1.092173	-0.942914	-0.420446
C95	C	1.425507	-0.609581	-0.087113
C96	C	1.758840	-0.276247	0.246220
C97	C	1.080765	-1.062966	-0.431911
C98	C	1.414098	-0.729633	-0.098578
C99	C	1.747432	-0.396300	0.234756
C100	C	1.291112	-0.503499	-0.426222
C101	C	1.624445	-0.170166	-0.092888
C102	C	1.957778	0.163167	0.240445
C103	C	1.378360	-0.503512	-0.426231
C104	C	1.711694	-0.170179	-0.092897
C105	C	2.045027	0.163154	0.240436
C106	C	1.086425	-0.503392	-0.630938
C107	C	1.419758	-0.170059	-0.297604
C108	C	1.753092	0.163275	0.035729
C109	C	1.086449	-0.503359	-0.718184
C110	C	1.419782	-0.170026	-0.384851
C111	C	1.753115	0.163307	-0.051518
C112	C	1.112465	-0.230895	-0.400247
C113	C	1.445798	0.102439	-0.066913
C114	C	1.779132	0.435772	0.266420
C115	C	1.123585	-0.114740	-0.389187
C116	C	1.456918	0.218594	-0.055853
C117	C	1.790252	0.551927	0.277480
C118	C	1.143055	-0.436523	-0.752816
C119	C	1.476388	-0.103189	-0.419483
C120	C	1.809721	0.230144	-0.086150
C121	C	1.143067	-0.436488	-0.834793
C122	C	1.476401	-0.103154	-0.501460
C123	C	1.809734	0.230179	-0.168127
C124	C	1.086477	-0.503296	-0.882138
C125	C	1.419810	-0.169962	-0.548805
C126	C	1.753144	0.163371	-0.215471
C127	C	1.029865	-0.570135	-0.847501
C128	C	1.363198	-0.236802	-0.514167
C129	C	1.696532	0.096531	-0.180834
C130	C	1.029849	-0.570164	-0.765524
C131	C	1.363183	-0.236831	-0.432191
C132	C	1.696516	0.096503	-0.098858
C133	C	1.029902	-0.570072	-1.018365
C134	C	1.363236	-0.236739	-0.685032
C135	C	1.696569	0.096594	-0.351698
C136	C	1.029919	-0.570045	-1.100347
C137	C	1.363252	-0.236712	-0.767014
C138	C	1.696585	0.096621	-0.433680
C139	C	1.143121	-0.436396	-1.087634
C140	C	1.476454	-0.103063	-0.754301
C141	C	1.809787	0.230271	-0.420967
C142	C	1.143105	-0.436425	-1.005658
C143	C	1.476438	-0.103092	-0.672324
C144	C	1.809772	0.230242	-0.338991
C145	C	1.086494	-0.503266	-0.971026
C146	C	1.419827	-0.169933	-0.637693
C147	C	1.753160	0.163400	-0.304360
C148	C	1.086368	-0.503470	-0.222253
C149	C	1.419701	-0.170137	0.111080
C150	C	1.753035	0.163196	0.444414
C151	C	1.086525	-0.503209	-0.134979
C152	C	1.419858	-0.169875	0.198355
C153	C	1.753192	0.163458	0.531688
H154	H	0.799167	-0.382359	-0.505887
H155	H	1.132500	-0.049026	-0.172554
H156	H	1.465833	0.284307	0.160780
H157	H	0.650447	-0.382377	-0.505897
H158	H	0.983780	-0.049043	-0.172563
H159	H	1.317113	0.284290	0.160770
Cl160	Cl	0.567309	-0.352835	-0.525368
Cl161	Cl	0.900642	-0.019502	-0.192034
Cl162	Cl	1.233975	0.313832	0.141299
H163	H	0.983836	-0.624444	-1.138893
H164	H	1.317170	-0.291111	-0.805560
H165	H	1.650503	0.042223	-0.472226
Cl166	Cl	0.791270	-0.654105	-0.327039
Cl167	Cl	1.124603	-0.320771	0.006295
Cl168	Cl	1.457937	0.012562	0.339628
Cl169	Cl	0.979730	-0.959912	-0.532742
Cl170	Cl	1.313063	-0.626579	-0.199408
Cl171	Cl	1.646396	-0.293245	0.133925
Cl172	Cl	0.958732	-0.654102	-0.974829
Cl173	Cl	1.292065	-0.320768	-0.641496
Cl174	Cl	1.625399	0.012565	-0.308163
Cl175	Cl	1.193226	-1.045972	-0.319614
Cl176	Cl	1.526560	-0.712639	0.013719
Cl177	Cl	1.859893	-0.379306	0.347053
Cl178	Cl	0.382271	-0.352848	-0.525381
Cl179	Cl	0.715604	-0.019515	-0.192048
Cl180	Cl	1.048937	0.313819	0.141286
H181	H	0.627215	-0.624558	-0.346508
H182	H	0.960548	-0.291225	-0.013174
H183	H	1.293881	0.042109	0.320159
Cl184	Cl	0.958682	-0.654188	-0.721987
Cl185	Cl	1.292015	-0.320854	-0.388654
Cl186	Cl	1.625349	0.012479	-0.055320
Cl187	Cl	0.353369	-0.654193	-0.327110
Cl188	Cl	0.686702	-0.320860	0.006223
Cl189	Cl	1.020036	0.012474	0.339557
Cl190	Cl	1.011132	-1.131736	-0.501491
Cl191	Cl	1.344465	-0.798403	-0.168158
Cl192	Cl	1.677799	-0.465070	0.165176
Cl193	Cl	1.214263	-0.352507	-0.878331
Cl194	Cl	1.547596	-0.019173	-0.544998
Cl195	Cl	1.880930	0.314160	-0.211665
H196	H	0.523094	-0.624583	-0.346517
H197	H	0.856427	-0.291250	-0.013184
H198	H	1.189760	0.042083	0.320149
H199	H	1.137277	-0.898366	-0.375388
H200	H	1.470611	-0.565032	-0.042055
H201	H	1.803944	-0.231699	0.291278
H202	H	1.189190	-0.382030	-0.967112
H203	H	1.522523	-0.048697	-0.633779
H204	H	1.855857	0.284637	-0.300445
Cl205	Cl	1.214205	-0.352535	-0.693306
Cl206	Cl	1.547538	-0.019202	-0.359972
Cl207	Cl	1.880872	0.314131	-0.026639
H208	H	1.189214	-0.381970	-1.115834
H209	H	1.522548	-0.048636	-0.782501
H210	H	1.855881	0.284697	-0.449168
H211	H	0.983785	-0.624528	-0.886055
H212	H	1.317119	-0.291194	-0.552722
H213	H	1.650452	0.042139	-0.219388
