data_functionalizedCrystal
_audit_creation_method	'MofGen! by Chris Wilmer'
_symmetry_space_group_name_H-M	'P1'
_symmetry_Int_Tables_number	1
_symmetry_cell_setting	triclinic
loop_
_symmetry_equiv_pos_as_xyz
  x,y,z
_cell_length_a	19.188930
_cell_length_b	19.188930
_cell_length_c	18.266242
_cell_angle_alpha	89.988525
_cell_angle_beta	89.977082
_cell_angle_gamma	83.144779
loop_
_atom_site_label
_atom_site_type_symbol
_atom_site_fract_x
_atom_site_fract_y
_atom_site_fract_z
O1	O	0.926149	0.087169	-0.061124
O2	O	1.259483	0.420502	0.272209
O3	O	1.592816	0.753835	0.605542
O4	O	0.722838	0.098903	-0.061075
O5	O	1.056171	0.432236	0.272258
O6	O	1.389505	0.765570	0.605591
O7	O	0.830361	-0.008620	-0.061087
O8	O	1.163694	0.324714	0.272246
O9	O	1.497027	0.658047	0.605580
O10	O	0.818627	0.194691	-0.061113
O11	O	1.151960	0.528025	0.272221
O12	O	1.485293	0.861358	0.605554
O13	O	0.830343	-0.008625	0.060675
O14	O	1.163676	0.324708	0.394008
O15	O	1.497009	0.658041	0.727342
O16	O	0.722820	0.098897	0.060687
O17	O	1.056153	0.432231	0.394020
O18	O	1.389486	0.765564	0.727353
O19	O	0.926131	0.087163	0.060638
O20	O	1.259464	0.420497	0.393971
O21	O	1.592798	0.753830	0.727304
Zn22	Zn	0.824473	0.093029	0.079994
Zn23	Zn	1.157806	0.426363	0.413328
Zn24	Zn	1.491139	0.759696	0.746661
Zn25	Zn	0.824497	0.093037	-0.080432
Zn26	Zn	1.157830	0.426370	0.252901
Zn27	Zn	1.491163	0.759703	0.586234
O28	O	0.818608	0.194686	0.060649
O29	O	1.151942	0.528019	0.393983
O30	O	1.485275	0.861353	0.727316
C31	C	0.696818	0.098520	-0.000188
C32	C	1.030151	0.431854	0.333145
C33	C	1.363485	0.765187	0.666479
C34	C	0.619313	0.097380	-0.000169
C35	C	0.952647	0.430713	0.333165
C36	C	1.285980	0.764046	0.666498
C37	C	0.574389	0.160470	-0.000188
C38	C	0.907723	0.493804	0.333145
C39	C	1.241056	0.827137	0.666479
C40	C	0.501566	0.159399	-0.000196
C41	C	0.834899	0.492732	0.333137
C42	C	1.168232	0.826065	0.666471
C43	C	0.473669	0.095233	-0.000199
C44	C	0.807002	0.428566	0.333134
C45	C	1.140336	0.761899	0.666468
C46	C	0.518603	0.032133	-0.000175
C47	C	0.851936	0.365467	0.333158
C48	C	1.185270	0.698800	0.666491
C49	C	0.591425	0.033207	-0.000160
C50	C	0.924758	0.366540	0.333173
C51	C	1.258092	0.699874	0.666506
N52	N	0.365695	0.046188	-0.041663
N53	N	0.699028	0.379521	0.291670
N54	N	1.032362	0.712854	0.625003
N55	N	0.296516	0.045172	-0.041679
N56	N	0.629850	0.378505	0.291654
N57	N	0.963183	0.711839	0.624987
C58	C	0.254260	0.091994	-0.000243
C59	C	0.587594	0.425328	0.333090
C60	C	0.920927	0.758661	0.666423
N61	N	0.283795	0.139881	0.041200
N62	N	0.617128	0.473215	0.374533
N63	N	0.950462	0.806548	0.707867
N64	N	0.352980	0.140899	0.041213
N65	N	0.686313	0.474232	0.374546
N66	N	1.019646	0.807566	0.707879
C67	C	0.394707	0.094062	-0.000215
C68	C	0.728040	0.427395	0.333118
C69	C	1.061373	0.760728	0.666452
C70	C	0.130372	0.153928	-0.000270
C71	C	0.463705	0.487261	0.333063
C72	C	0.797039	0.820594	0.666396
C73	C	0.057547	0.152853	-0.000274
C74	C	0.390881	0.486187	0.333060
C75	C	0.724214	0.819520	0.666393
C76	C	0.074586	0.025586	-0.000261
C77	C	0.407919	0.358920	0.333073
C78	C	0.741253	0.692253	0.666406
C79	C	0.147409	0.026662	-0.000250
C80	C	0.480743	0.359996	0.333083
C81	C	0.814076	0.693329	0.666417
C82	C	0.175298	0.090835	-0.000258
C83	C	0.508631	0.424168	0.333075
C84	C	0.841964	0.757502	0.666408
C85	C	0.829972	-0.034634	-0.000204
C86	C	1.163305	0.298700	0.333130
C87	C	1.496638	0.632033	0.666463
C88	C	0.828831	-0.112138	-0.000197
C89	C	1.162164	0.221195	0.333136
C90	C	1.495498	0.554529	0.666469
C91	C	0.891922	-0.157062	-0.000209
C92	C	1.225255	0.176271	0.333124
C93	C	1.558589	0.509605	0.666458
C94	C	0.890850	-0.229886	-0.000220
C95	C	1.224184	0.103448	0.333113
C96	C	1.557517	0.436781	0.666446
C97	C	0.826684	-0.257782	-0.000206
C98	C	1.160017	0.075551	0.333128
C99	C	1.493351	0.408884	0.666461
C100	C	0.763585	-0.212849	-0.000198
C101	C	1.096918	0.120485	0.333135
C102	C	1.430252	0.453818	0.666469
C103	C	0.764658	-0.140026	-0.000194
C104	C	1.097992	0.193307	0.333140
C105	C	1.431325	0.526640	0.666473
N106	N	0.777631	-0.365789	0.041244
N107	N	1.110964	-0.032456	0.374578
N108	N	1.444297	0.300877	0.707911
N109	N	0.776615	-0.434968	0.041242
N110	N	1.109948	-0.101635	0.374575
N111	N	1.443282	0.231699	0.707909
C112	C	0.823446	-0.477191	-0.000220
C113	C	1.156779	-0.143858	0.333114
C114	C	1.490113	0.189476	0.666447
N115	N	0.871341	-0.447624	-0.041669
N116	N	1.204675	-0.114290	0.291664
N117	N	1.538008	0.219043	0.624997
N118	N	0.872359	-0.378439	-0.041664
N119	N	1.205692	-0.045106	0.291670
N120	N	1.539025	0.288228	0.625003
C121	C	0.825513	-0.336745	-0.000210
C122	C	1.158846	-0.003412	0.333123
C123	C	1.492180	0.329922	0.666456
C124	C	0.885379	-0.601079	-0.000245
C125	C	1.218712	-0.267746	0.333089
C126	C	1.552046	0.065587	0.666422
C127	C	0.884305	-0.673904	-0.000261
C128	C	1.217638	-0.340571	0.333073
C129	C	1.550971	-0.007238	0.666406
C130	C	0.757038	-0.656865	-0.000231
C131	C	1.090371	-0.323532	0.333103
C132	C	1.423704	0.009801	0.666436
C133	C	0.758114	-0.584042	-0.000222
C134	C	1.091447	-0.250709	0.333111
C135	C	1.424781	0.082624	0.666444
C136	C	0.822287	-0.556154	-0.000226
C137	C	1.155620	-0.222821	0.333108
C138	C	1.488953	0.110513	0.666441
C139	C	0.952151	0.087546	-0.000252
C140	C	1.285485	0.420879	0.333082
C141	C	1.618818	0.754213	0.666415
C142	C	1.029656	0.088687	-0.000276
C143	C	1.362989	0.422020	0.333058
C144	C	1.696322	0.755353	0.666391
C145	C	0.818997	0.220700	-0.000236
C146	C	1.152331	0.554033	0.333098
C147	C	1.485664	0.887366	0.666431
C148	C	0.820138	0.298204	-0.000247
C149	C	1.153471	0.631538	0.333086
C150	C	1.486805	0.964871	0.666420
N151	N	0.824461	0.093024	0.189481
N152	N	1.157795	0.426357	0.522815
N153	N	1.491128	0.759691	0.856148
N154	N	0.824513	0.093037	-0.189919
N155	N	1.157847	0.426370	0.143414
N156	N	1.491180	0.759703	0.476747
C157	C	0.872088	0.045436	0.227785
C158	C	1.205421	0.378770	0.561118
C159	C	1.538755	0.712103	0.894452
C160	C	0.872092	0.045433	0.304430
C161	C	1.205426	0.378766	0.637763
C162	C	1.538759	0.712100	0.971097
C163	C	0.824477	0.093030	0.342768
C164	C	1.157810	0.426363	0.676102
C165	C	1.491144	0.759696	1.009435
C166	C	0.776841	0.140621	0.304455
C167	C	1.110175	0.473954	0.637789
C168	C	1.443508	0.807288	0.971122
C169	C	0.776834	0.140618	0.227812
C170	C	1.110167	0.473952	0.561145
C171	C	1.443500	0.807285	0.894479
N172	N	0.815401	0.154837	0.463094
N173	N	1.148735	0.488170	0.796427
N174	N	1.482068	0.821504	1.129761
N175	N	0.815413	0.154838	0.535902
N176	N	1.148746	0.488171	0.869236
N177	N	1.482080	0.821504	1.202569
C178	C	0.824496	0.093040	0.573691
C179	C	1.157830	0.426373	0.907024
C180	C	1.491163	0.759706	1.240357
N181	N	0.833582	0.031239	0.535920
N182	N	1.166915	0.364573	0.869254
N183	N	1.500248	0.697906	1.202587
N184	N	0.833574	0.031240	0.463106
N185	N	1.166907	0.364573	0.796439
N186	N	1.500240	0.697906	1.129772
C187	C	0.824480	0.093038	0.425875
C188	C	1.157813	0.426371	0.759209
C189	C	1.491146	0.759704	1.092542
C190	C	0.872131	0.045444	0.695101
C191	C	1.205464	0.378778	1.028435
C192	C	1.538797	0.712111	1.361768
C193	C	0.872130	0.045440	0.771748
C194	C	1.205463	0.378774	1.105081
C195	C	1.538797	0.712107	1.438414
C196	C	0.776882	0.140634	0.771772
C197	C	1.110216	0.473968	1.105105
C198	C	1.443549	0.807301	1.438438
C199	C	0.776879	0.140632	0.695127
C200	C	1.110213	0.473966	1.028460
C201	C	1.443546	0.807299	1.361794
C202	C	0.824507	0.093038	0.656796
C203	C	1.157841	0.426372	0.990130
C204	C	1.491174	0.759705	1.323463
H205	H	0.020970	0.204232	-0.000285
H206	H	0.354303	0.537565	0.333048
H207	H	0.687637	0.870898	0.666381
O208	O	0.918425	-0.000694	0.809040
O209	O	1.251758	0.332640	1.142374
O210	O	1.585092	0.665973	1.475707
C211	C	0.961390	0.036598	0.853331
C212	C	1.294723	0.369932	1.186665
C213	C	1.628056	0.703265	1.519998
H214	H	0.933409	0.091301	0.864813
H215	H	1.266742	0.424634	1.198147
H216	H	1.600075	0.757968	1.531480
H217	H	0.972530	0.007430	0.907229
H218	H	1.305863	0.340763	1.240562
H219	H	1.639197	0.674097	1.573896
H220	H	1.012972	0.041219	0.823768
H221	H	1.346305	0.374553	1.157101
H222	H	1.679639	0.707886	1.490435
H223	H	0.738110	0.179386	0.802986
H224	H	1.071444	0.512719	1.136319
H225	H	1.404777	0.846052	1.469653
H226	H	0.910868	0.006681	0.196579
H227	H	1.244201	0.340014	0.529912
H228	H	1.577534	0.673347	0.863245
H229	H	0.051874	-0.026659	-0.000309
H230	H	0.385207	0.306674	0.333025
H231	H	0.718540	0.640008	0.666358
H232	H	0.738100	0.179386	0.663938
H233	H	1.071433	0.512719	0.997271
H234	H	1.404767	0.846052	1.330605
H235	H	0.910877	0.006680	0.335623
H236	H	1.244210	0.340013	0.668956
H237	H	1.577544	0.673346	1.002289
O238	O	0.157388	0.216304	-0.000367
O239	O	0.490721	0.549637	0.332967
O240	O	0.824054	0.882971	0.666300
C241	C	0.134459	0.254752	-0.063442
C242	C	0.467793	0.588085	0.269891
C243	C	0.801126	0.921419	0.603225
H244	H	0.084017	0.235885	-0.084474
H245	H	0.417351	0.569218	0.248859
H246	H	0.750684	0.902551	0.582193
H247	H	0.124171	0.312925	-0.049262
H248	H	0.457504	0.646259	0.284071
H249	H	0.790837	0.979592	0.617404
H250	H	0.176648	0.246538	-0.107593
H251	H	0.509981	0.579871	0.225740
H252	H	0.843315	0.913205	0.559073
H253	H	0.935683	-0.710481	-0.000274
H254	H	1.269017	-0.377148	0.333059
H255	H	1.602350	-0.043815	0.666392
O256	O	0.190953	-0.034689	-0.000272
O257	O	0.524286	0.298644	0.333062
O258	O	0.857620	0.631977	0.666395
C259	C	0.150718	-0.091556	-0.000257
C260	C	0.484052	0.241778	0.333076
C261	C	0.817385	0.575111	0.666410
H262	H	0.096324	-0.073666	-0.023322
H263	H	0.429657	0.259667	0.310012
H264	H	0.762990	0.593001	0.643345
H265	H	0.177737	-0.135747	-0.035599
H266	H	0.511070	0.197587	0.297734
H267	H	0.844403	0.530920	0.631068
H268	H	0.145560	-0.111238	0.058159
H269	H	0.478894	0.222095	0.391492
H270	H	0.812227	0.555429	0.724825
O271	O	0.954238	-0.129937	-0.000092
O272	O	1.287572	0.203396	0.333241
O273	O	1.620905	0.536730	0.666575
C274	C	0.958651	-0.088320	0.062959
C275	C	1.291984	0.245013	0.396293
C276	C	1.625318	0.578346	0.729626
H277	H	0.922213	-0.105440	0.107045
H278	H	1.255547	0.227893	0.440378
H279	H	1.588880	0.561226	0.773712
H280	H	1.014939	-0.095031	0.084112
H281	H	1.348272	0.238303	0.417446
H282	H	1.681606	0.571636	0.750779
H283	H	0.942370	-0.030839	0.048706
H284	H	1.275704	0.302495	0.382039
H285	H	1.609037	0.635828	0.715373
H286	H	0.597091	0.212725	-0.000196
H287	H	0.930424	0.546058	0.333137
H288	H	1.263758	0.879391	0.666470
H289	H	0.495885	-0.020111	-0.000188
H290	H	0.829218	0.313222	0.333145
H291	H	1.162552	0.646556	0.666479
O292	O	0.458016	0.220752	-0.000254
O293	O	0.791349	0.554086	0.333080
O294	O	1.124682	0.887419	0.666413
C295	C	0.498247	0.277621	-0.000239
C296	C	0.831580	0.610955	0.333095
C297	C	1.164913	0.944288	0.666428
H298	H	0.552670	0.259733	-0.023270
H299	H	0.886003	0.593067	0.310063
H300	H	1.219337	0.926400	0.643396
H301	H	0.471269	0.321809	-0.035608
H302	H	0.804602	0.655142	0.297725
H303	H	1.137935	0.988476	0.631058
H304	H	0.503332	0.297308	0.058173
H305	H	0.836666	0.630641	0.391507
H306	H	1.169999	0.963975	0.724840
H307	H	0.942228	-0.266470	-0.000233
H308	H	1.275561	0.066863	0.333100
H309	H	1.608895	0.400197	0.666434
H310	H	0.711340	-0.235567	-0.000187
H311	H	1.044674	0.097767	0.333146
H312	H	1.378007	0.431100	0.666479
H313	H	0.713281	-0.103448	-0.000184
H314	H	1.046614	0.229885	0.333149
H315	H	1.379947	0.563218	0.666483
O316	O	0.634969	-0.028147	-0.000179
O317	O	0.968302	0.305186	0.333155
O318	O	1.301635	0.638520	0.666488
C319	C	0.594735	-0.085014	-0.000161
C320	C	0.928069	0.248319	0.333172
C321	C	1.261402	0.581652	0.666506
H322	H	0.540339	-0.067126	-0.023222
H323	H	0.873672	0.266208	0.310111
H324	H	1.207006	0.599541	0.643445
H325	H	0.621752	-0.129205	-0.035504
H326	H	0.955086	0.204128	0.297830
H327	H	1.288419	0.537462	0.631163
H328	H	0.589581	-0.104697	0.058256
H329	H	0.922914	0.228637	0.391589
H330	H	1.256248	0.561970	0.724922
O331	O	0.696891	-0.540300	-0.000236
O332	O	1.030224	-0.206966	0.333098
O333	O	1.363558	0.126367	0.666431
C334	C	0.711597	-0.470044	-0.000217
C335	C	1.044930	-0.136710	0.333117
C336	C	1.378264	0.196623	0.666450
H337	H	0.766433	-0.467414	-0.023280
H338	H	1.099767	-0.134080	0.310054
H339	H	1.433100	0.199253	0.643387
H340	H	0.671373	-0.436919	-0.035557
H341	H	1.004707	-0.103586	0.297776
H342	H	1.338040	0.229748	0.631110
H343	H	0.708876	-0.448987	0.058201
H344	H	1.042209	-0.115654	0.391534
H345	H	1.375543	0.217679	0.724867
H346	H	0.704792	-0.679578	-0.000222
H347	H	1.038126	-0.346245	0.333111
H348	H	1.371459	-0.012911	0.666444
H349	H	0.937632	-0.578372	-0.000251
H350	H	1.270966	-0.245038	0.333082
H351	H	1.604299	0.088295	0.666416
H352	H	0.738071	0.179374	0.335674
H353	H	1.071404	0.512707	0.669007
H354	H	1.404738	0.846041	1.002341
H355	H	0.738049	0.179371	0.196624
H356	H	1.071383	0.512704	0.529958
H357	H	1.404716	0.846037	0.863291
H358	H	0.910910	0.006688	0.663892
H359	H	1.244243	0.340021	0.997225
H360	H	1.577577	0.673355	1.330558
