data_functionalizedCrystal
_audit_creation_method	'MofGen! by Chris Wilmer'
_symmetry_space_group_name_H-M	'P1'
_symmetry_Int_Tables_number	1
_symmetry_cell_setting	triclinic
loop_
_symmetry_equiv_pos_as_xyz
  x,y,z
_cell_length_a	15.995350
_cell_length_b	14.971486
_cell_length_c	13.448316
_cell_angle_alpha	90.006811
_cell_angle_beta	89.996887
_cell_angle_gamma	96.446748
loop_
_atom_site_label
_atom_site_type_symbol
_atom_site_fract_x
_atom_site_fract_y
_atom_site_fract_z
O1	O	1.111103	-0.115296	-0.082608
O2	O	0.867342	-0.129533	-0.082629
O3	O	0.995756	0.007793	-0.082611
O4	O	0.982690	-0.252622	-0.082626
O5	O	0.995740	0.007802	0.082773
O6	O	0.867326	-0.129524	0.082755
O7	O	1.111087	-0.115287	0.082776
Cu8	Cu	0.989205	-0.122405	0.097866
Cu9	Cu	0.989224	-0.122415	-0.097719
O10	O	0.982673	-0.252613	0.082758
C11	C	0.836139	-0.128940	0.000061
C12	C	0.743187	-0.127175	0.000053
C13	C	0.995164	0.041122	0.000081
C14	C	0.993413	0.140417	0.000080
N15	N	0.989198	-0.122397	0.235431
C16	C	0.405433	-0.120838	0.000074
C17	C	0.452769	-0.023037	0.000449
C18	C	0.549461	-0.024802	0.000069
C19	C	0.572997	-0.123982	0.000064
C20	C	0.531967	-0.172225	-0.094377
C21	C	0.435329	-0.169768	-0.094449
C22	C	0.434974	-0.171780	0.093623
C23	C	0.531919	-0.171756	0.094865
C24	C	0.667696	-0.125763	0.000055
C25	C	0.310733	-0.119060	0.000076
C26	C	1.142291	-0.115880	0.000084
C27	C	1.235243	-0.117645	0.000085
C28	C	0.983266	-0.285942	0.000064
C29	C	0.985017	-0.385237	0.000059
C30	C	1.068852	0.197728	0.000087
C31	C	1.067202	0.291026	0.000077
C32	C	0.990111	0.327010	0.000067
C33	C	0.914666	0.269691	0.000057
C34	C	0.916317	0.176395	0.000060
C35	C	0.911229	0.464150	0.000053
C36	C	0.909577	0.557452	0.000052
C37	C	1.062114	0.578780	0.000070
C38	C	1.063766	0.485484	0.000073
C39	C	0.988320	0.428172	0.000065
N40	N	0.989238	-0.122415	-0.235284
C41	C	1.046077	-0.061614	0.287479
C42	C	1.046083	-0.061614	0.391582
C43	C	0.989212	-0.122401	0.443635
C44	C	0.932326	-0.183187	0.391580
C45	C	0.932318	-0.183183	0.287478
C46	C	0.932350	-0.183193	0.608560
C47	C	0.932359	-0.183199	0.712668
C48	C	1.046114	-0.061624	0.712664
C49	C	1.046106	-0.061620	0.608562
C50	C	0.989221	-0.122407	0.556514
H51	H	0.577845	0.013120	0.067769
H52	H	0.560315	-0.138724	-0.164658
H53	H	1.092397	-0.012119	0.433959
C54	C	0.869750	-0.250006	0.769925
H55	H	0.835847	-0.286184	0.724019
H56	H	0.899854	-0.287285	0.810554
H57	H	0.834894	-0.217743	0.810516
H58	H	0.846803	0.586747	0.000059
H59	H	0.886017	-0.232678	0.433967
H60	H	1.092418	-0.012127	0.566181
C61	C	1.108680	0.005248	0.769912
H62	H	1.100534	-0.003450	0.839366
H63	H	1.164567	-0.004500	0.752843
H64	H	1.099523	0.064953	0.752859
C65	C	1.148563	0.445902	0.000082
H66	H	1.193260	0.493396	0.000076
H67	H	1.152372	0.409955	0.057754
H68	H	1.152378	0.409947	-0.057599
C69	C	0.568743	-0.124175	0.189254
H70	H	0.543642	-0.153381	0.246348
H71	H	0.627820	-0.126571	0.190999
H72	H	0.557473	-0.063214	0.188653
H73	H	0.854886	0.129732	0.000054
C74	C	0.829865	0.309267	0.000038
H75	H	0.785172	0.261770	0.000023
H76	H	0.826039	0.345226	0.057707
H77	H	0.826061	0.345209	-0.057646
C78	C	0.392170	-0.269191	0.094483
H79	H	0.356463	-0.278805	0.038143
H80	H	0.433879	-0.309592	0.092405
H81	H	0.359743	-0.279262	0.153425
H82	H	0.849793	0.417488	0.000043
H83	H	1.123545	0.625449	0.000073
H84	H	0.403153	-0.241573	-0.098738
C85	C	1.108635	0.005254	0.230230
H86	H	1.142505	0.041460	0.276141
H87	H	1.143516	-0.026939	0.189605
H88	H	1.078471	0.042512	0.189635
C89	C	0.869781	-0.250061	0.551308
H90	H	0.835919	-0.286272	0.597217
H91	H	0.834893	-0.217867	0.510708
H92	H	0.899942	-0.287314	0.510690
C93	C	0.551151	-0.270656	-0.099138
H94	H	0.584437	-0.283233	-0.043440
H95	H	0.499903	-0.309440	-0.098261
H96	H	0.580967	-0.280015	-0.158647
H97	H	0.886000	-0.232677	0.245101
H98	H	0.433143	0.015873	-0.066901
C99	C	0.427682	0.029782	0.091939
H100	H	0.388109	-0.007332	0.130728
H101	H	0.476243	0.047768	0.130825
H102	H	0.403195	0.081494	0.070706
C103	C	0.587057	0.026752	-0.091545
H104	H	0.543226	0.048850	-0.128681
H105	H	0.625979	0.075702	-0.070488
H106	H	0.615150	-0.012501	-0.132002
C107	C	0.410553	-0.122245	-0.189807
H108	H	0.459528	-0.104616	-0.228134
H109	H	0.372623	-0.162208	-0.227566
H110	H	0.384239	-0.070577	-0.172546
H111	H	0.414399	-0.139802	0.165207
C112	C	0.552768	-0.269461	0.102570
H113	H	0.586944	-0.282457	0.047823
H114	H	0.582122	-0.277028	0.162846
H115	H	0.502095	-0.309183	0.101772
H116	H	1.131629	0.168438	0.000101
H117	H	1.128633	0.337686	0.000085
