data_functionalizedCrystal
_audit_creation_method	'MofGen! by Chris Wilmer'
_symmetry_space_group_name_H-M	'P1'
_symmetry_Int_Tables_number	1
_symmetry_cell_setting	triclinic
loop_
_symmetry_equiv_pos_as_xyz
  x,y,z
_cell_length_a	13.897441
_cell_length_b	12.759401
_cell_length_c	12.759400
_cell_angle_alpha	89.985155
_cell_angle_beta	89.971183
_cell_angle_gamma	90.018699
loop_
_atom_site_label
_atom_site_type_symbol
_atom_site_fract_x
_atom_site_fract_y
_atom_site_fract_z
Zn1	Zn	-0.545341	-1.606258	-0.418228
Zn2	Zn	-0.384047	-1.606151	-0.593939
Zn3	Zn	-0.384065	-1.430559	-0.418275
Zn4	Zn	-0.545306	-1.430548	-0.593866
O5	O	-0.464690	-1.518379	-0.506077
O6	O	-0.523952	-1.753265	-0.441548
O7	O	-0.249068	-1.582819	-0.570686
O8	O	-0.405481	-1.453915	-0.271248
O9	O	-0.405450	-1.753186	-0.570641
O10	O	-0.523969	-1.583000	-0.271213
O11	O	-0.249081	-1.453812	-0.441627
O12	O	-0.405446	-1.283537	-0.441557
O13	O	-0.680292	-1.453896	-0.570518
O14	O	-0.523909	-1.283529	-0.570563
O15	O	-0.680318	-1.582989	-0.441477
O16	O	-0.405416	-1.582808	-0.740950
O17	O	-0.523892	-1.453793	-0.740897
C18	C	-0.464676	-1.245412	-0.506058
C19	C	-0.464694	-1.128635	-0.506075
C20	C	-0.716283	-1.518454	-0.505984
C21	C	-0.823497	-1.518485	-0.505945
C22	C	-0.464669	-1.518317	-0.779044
C23	C	-0.464693	-1.518386	-0.895821
C24	C	-1.019792	-1.518514	-0.505874
C25	C	-0.910559	-1.518495	-0.505916
C26	C	-0.214075	-1.518365	-0.506094
C27	C	-0.106862	-1.518537	-0.505837
C28	C	-0.464703	-1.792412	-0.506097
C29	C	-0.464709	-1.909189	-0.506106
C30	C	-0.526275	-1.073796	-0.573356
C31	C	-0.526286	-0.964072	-0.573369
C32	C	-0.403125	-0.964035	-0.438817
C33	C	-0.403120	-1.073757	-0.438800
C34	C	-0.587849	-1.128674	-0.640631
C35	C	-0.649435	-1.073835	-0.707918
C36	C	-0.649445	-0.964111	-0.707932
C37	C	-0.587870	-0.909226	-0.640658
C38	C	-0.403071	-1.585639	-0.950676
C39	C	-0.403101	-1.585703	-1.060400
C40	C	-0.526377	-1.451254	-1.060405
C41	C	-0.526352	-1.451195	-0.950683
C42	C	-0.341412	-1.652830	-0.895814
C43	C	-0.279784	-1.720087	-0.950669
C44	C	-0.279814	-1.720151	-1.060393
C45	C	-0.341472	-1.652959	-1.115262
C46	C	-0.464731	-1.518470	-0.232044
C47	C	-0.464748	-1.518509	-0.115267
H48	H	-0.587846	-1.218017	-0.640630
Br49	Br	-0.196190	-1.811439	-1.134838
H50	H	-0.699598	-0.919465	-0.762713
H51	H	-0.352982	-1.118408	-0.384006
Br52	Br	-0.587896	-0.760313	-0.640666
Br53	Br	-0.341069	-1.652568	-1.264174
H54	H	-0.352992	-0.919339	-0.384047
Br55	Br	-0.196123	-1.811285	-0.876208
Br56	Br	-0.341666	-1.653069	-0.746904
Br57	Br	-0.733005	-1.148319	-0.799205
Br58	Br	-0.610049	-1.360069	-1.134869
Br59	Br	-0.609988	-1.359928	-0.876230
