data_functionalizedCrystal
_audit_creation_method	'MofGen! by Chris Wilmer'
_symmetry_space_group_name_H-M	'P1'
_symmetry_Int_Tables_number	1
_symmetry_cell_setting	triclinic
loop_
_symmetry_equiv_pos_as_xyz
  x,y,z
_cell_length_a	19.121241
_cell_length_b	25.639240
_cell_length_c	19.120904
_cell_angle_alpha	92.403182
_cell_angle_beta	89.875472
_cell_angle_gamma	92.466620
loop_
_atom_site_label
_atom_site_type_symbol
_atom_site_fract_x
_atom_site_fract_y
_atom_site_fract_z
Zn1	Zn	1.054836	-0.188775	-0.442151
Zn2	Zn	1.554836	0.311225	0.057849
Zn3	Zn	1.059742	-0.272330	-0.324895
Zn4	Zn	1.559742	0.227670	0.175105
Zn5	Zn	0.942603	-0.188465	-0.319921
Zn6	Zn	1.442603	0.311535	0.180079
Zn7	Zn	0.937549	-0.279737	-0.437080
Zn8	Zn	1.437549	0.220263	0.062920
O9	O	0.998683	-0.232327	-0.381011
O10	O	1.498683	0.267673	0.118989
O11	O	1.153595	-0.196889	-0.430800
O12	O	1.653595	0.303111	0.069200
O13	O	1.048371	-0.257975	-0.226131
O14	O	1.548371	0.242025	0.273869
O15	O	0.957553	-0.115340	-0.336175
O16	O	1.457553	0.384660	0.163825
O17	O	1.157199	-0.258276	-0.344653
O18	O	1.657199	0.241724	0.155347
O19	O	1.040010	-0.115568	-0.425977
O20	O	1.540010	0.384432	0.074023
O21	O	0.962309	-0.196360	-0.222477
O22	O	1.462309	0.303640	0.277523
O23	O	0.843824	-0.203542	-0.331258
O24	O	1.343824	0.296458	0.168742
O25	O	0.948940	-0.270901	-0.535856
O26	O	1.448940	0.229099	-0.035856
O27	O	0.840112	-0.270600	-0.417334
O28	O	1.340112	0.229400	0.082666
O29	O	1.035110	-0.204071	-0.539582
O30	O	1.535110	0.295929	-0.039582
O31	O	1.043471	-0.346479	-0.339736
O32	O	1.543471	0.153521	0.160264
O33	O	0.953696	-0.351921	-0.422158
O34	O	1.453696	0.148079	0.077842
C35	C	0.816530	-0.237842	-0.373206
C36	C	1.316530	0.262158	0.126794
C37	C	0.738603	-0.240214	-0.369884
C38	C	1.238603	0.259786	0.130116
C39	C	0.700114	-0.209423	-0.413244
C40	C	1.200114	0.290577	0.086756
C41	C	0.626894	-0.211649	-0.410116
C42	C	1.126894	0.288351	0.089884
C43	C	0.592164	-0.244670	-0.363632
C44	C	1.092164	0.255330	0.136368
C45	C	0.630659	-0.275462	-0.320267
C46	C	1.130659	0.224538	0.179733
C47	C	0.703877	-0.273233	-0.323392
C48	C	1.203877	0.226767	0.176608
C49	C	0.371185	-0.252995	-0.351946
C50	C	0.871185	0.247005	0.148054
C51	C	0.297961	-0.255223	-0.348826
C52	C	0.797961	0.244777	0.151174
C53	C	0.294202	-0.191409	-0.438675
C54	C	0.794202	0.308591	0.061325
C55	C	0.367422	-0.189185	-0.441799
C56	C	0.867422	0.310815	0.058201
C57	C	0.405910	-0.219975	-0.398432
C58	C	0.905910	0.280025	0.101568
C59	C	0.517322	-0.246947	-0.360435
C60	C	1.017322	0.253053	0.139565
C61	C	0.480752	-0.217694	-0.401625
C62	C	0.980752	0.282306	0.098375
C63	C	0.998586	-0.368171	-0.380952
C64	C	1.498586	0.131829	0.119048
C65	C	0.998608	-0.426284	-0.380953
C66	C	1.498608	0.073716	0.119047
C67	C	1.041637	-0.786729	-0.427853
C68	C	1.541637	-0.286729	0.072147
C69	C	1.041657	-0.841333	-0.427868
C70	C	1.541657	-0.341333	0.072132
O71	O	1.078127	-0.869641	-0.467683
O72	O	1.578127	-0.369641	0.032317
N73	N	0.998777	-0.868565	-0.381083
N74	N	1.498777	-0.368565	0.118917
C75	C	0.955869	-0.841191	-0.334285
C76	C	1.455869	-0.341191	0.165715
O77	O	0.919397	-0.869368	-0.294493
O78	O	1.419397	-0.369368	0.205507
C79	C	0.955845	-0.786588	-0.334274
C80	C	1.455845	-0.286588	0.165726
C81	C	0.998734	-0.759358	-0.381057
C82	C	1.498734	-0.259358	0.118943
C83	C	1.084521	-0.759499	-0.474633
C84	C	1.584521	-0.259499	0.025367
C85	C	1.084502	-0.704898	-0.474617
C86	C	1.584502	-0.204898	0.025383
C87	C	1.041598	-0.677528	-0.427821
C88	C	1.541598	-0.177528	0.072179
C89	C	0.998714	-0.704758	-0.381041
C90	C	1.498714	-0.204758	0.118959
C91	C	0.912934	-0.759215	-0.287479
C92	C	1.412934	-0.259215	0.212521
C93	C	0.912914	-0.704608	-0.287473
C94	C	1.412914	-0.204608	0.212527
C95	C	0.955802	-0.677378	-0.334256
C96	C	1.455802	-0.177378	0.165744
C97	C	0.955792	-0.622787	-0.334228
C98	C	1.455792	-0.122787	0.165772
N99	N	0.998672	-0.595554	-0.381013
N100	N	1.498672	-0.095554	0.118987
C101	C	1.041575	-0.622925	-0.427810
C102	C	1.541575	-0.122925	0.072190
C103	C	0.955920	-0.955861	-0.334313
C104	C	1.455920	-0.455861	0.165687
C105	C	0.955946	-1.010462	-0.334320
C106	C	1.455946	-0.510462	0.165680
C107	C	1.041734	-1.010601	-0.427905
C108	C	1.541734	-0.510601	0.072095
C109	C	1.041711	-0.955998	-0.427893
C110	C	1.541711	-0.455998	0.072107
C111	C	0.998800	-0.928628	-0.381098
C112	C	1.498800	-0.428628	0.118902
C113	C	1.041532	-0.508260	-0.427772
C114	C	1.541532	-0.008260	0.072228
C115	C	1.041511	-0.453655	-0.427749
C116	C	1.541511	0.046345	0.072251
C117	C	0.955721	-0.453521	-0.334168
C118	C	1.455721	0.046479	0.165832
C119	C	0.955744	-0.508122	-0.334187
C120	C	1.455744	-0.008122	0.165813
C121	C	0.998652	-0.535490	-0.380995
C122	C	1.498652	-0.035490	0.119005
O123	O	0.919339	-0.594444	-0.294436
O124	O	1.419339	-0.094444	0.205564
O125	O	1.078034	-0.594741	-0.467602
O126	O	1.578034	-0.094741	0.032398
C127	C	1.181547	-0.226791	-0.388847
C128	C	1.681547	0.273209	0.111153
C129	C	1.259472	-0.224432	-0.392186
C130	C	1.759472	0.275568	0.107814
C131	C	0.990914	-0.238347	-0.563867
C132	C	1.490914	0.261653	-0.063867
C133	C	0.987603	-0.240912	-0.641790
C134	C	1.487603	0.259088	-0.141790
C135	C	0.998798	-0.095953	-0.381087
C136	C	1.498798	0.404047	0.118913
C137	C	0.998847	-0.037838	-0.381119
C138	C	1.498847	0.462162	0.118881
C139	C	1.030910	-0.207324	-0.680338
C140	C	1.530910	0.292676	-0.180338
C141	C	1.027791	-0.209733	-0.753554
C142	C	1.527791	0.290267	-0.253554
C143	C	0.981368	-0.245732	-0.788220
C144	C	1.481368	0.254268	-0.288220
C145	C	0.938057	-0.279322	-0.749666
C146	C	1.438057	0.220678	-0.249666
C147	C	0.941173	-0.276910	-0.676451
C148	C	1.441173	0.223090	-0.176451
C149	C	0.969712	-0.254752	-1.009184
C150	C	1.469712	0.245248	-0.509184
C151	C	0.966601	-0.257162	-1.082404
C152	C	1.466601	0.242838	-0.582404
C153	C	1.056334	-0.187573	-1.086287
C154	C	1.556334	0.312427	-0.586287
C155	C	1.059449	-0.185167	-1.013071
C156	C	1.559449	0.314833	-0.513071
C157	C	1.016135	-0.218754	-0.974523
C158	C	1.516135	0.281246	-0.474523
C159	C	0.978181	-0.248196	-0.863059
C160	C	1.478181	0.251804	-0.363059
C161	C	1.019320	-0.216287	-0.899686
C162	C	1.519320	0.283713	-0.399686
C163	C	1.006461	-0.226291	-0.198869
C164	C	1.506461	0.273709	0.301131
C165	C	1.009908	-0.223575	-0.120953
C166	C	1.509908	0.276425	0.379047
H167	H	0.595560	-0.186576	-0.445426
H168	H	1.095560	0.313424	0.054574
O169	O	1.104560	-0.150149	-0.979508
O170	O	1.604560	0.349851	-0.479508
C171	C	1.193264	-0.081401	-0.991090
C172	C	1.693264	0.418599	-0.491090
C173	C	1.142193	-0.121023	-1.029188
C174	C	1.642193	0.378977	-0.529188
H175	H	1.223714	-0.057850	-1.031239
H176	H	1.723714	0.442150	-0.531239
H177	H	1.162591	-0.053872	-0.955467
H178	H	1.662591	0.446128	-0.455467
H179	H	1.231330	-0.103177	-0.958352
H180	H	1.731330	0.396823	-0.458352
H181	H	1.104115	-0.099291	-1.061963
H182	H	1.604115	0.400709	-0.561963
H183	H	1.172911	-0.148551	-1.064769
H184	H	1.672911	0.351449	-0.564769
H185	H	0.905901	-0.304256	-0.645065
H186	H	1.405901	0.195744	-0.145065
H187	H	0.920979	-0.933579	-0.296201
H188	H	1.420979	-0.433579	0.203799
H189	H	0.262858	-0.166341	-0.473982
H190	H	0.762858	0.333659	0.026018
O191	O	0.914193	-0.534592	-0.288666
O192	O	1.414193	-0.034592	0.211334
C193	C	0.908873	-0.593478	-0.193651
C194	C	1.408873	-0.093478	0.306349
C195	C	0.956018	-0.563526	-0.245148
C196	C	1.456018	-0.063526	0.254852
H197	H	0.942667	-0.616888	-0.158463
H198	H	1.442667	-0.116888	0.341537
H199	H	0.878225	-0.564553	-0.160150
H200	H	1.378225	-0.064553	0.339850
H201	H	0.870811	-0.621198	-0.224255
H202	H	1.370811	-0.121198	0.275745
H203	H	0.994119	-0.535806	-0.214600
H204	H	1.494119	-0.035806	0.285400
H205	H	0.986616	-0.592481	-0.278650
H206	H	1.486616	-0.092481	0.221350
H207	H	0.920792	-0.431227	-0.296065
H208	H	1.420792	0.068773	0.203935
H209	H	0.877969	-0.682327	-0.249367
H210	H	1.377969	-0.182327	0.250633
O211	O	0.892999	-0.314360	-0.783263
O212	O	1.392999	0.185640	-0.283263
C213	C	0.857966	-0.405067	-0.804186
C214	C	1.357966	0.094933	-0.304186
C215	C	0.909027	-0.365440	-0.766084
C216	C	1.409027	0.134560	-0.266084
H217	H	0.870915	-0.446375	-0.790323
H218	H	1.370915	0.053625	-0.290323
H219	H	0.802043	-0.397166	-0.787357
H220	H	1.302043	0.102834	-0.287357
H221	H	0.863167	-0.400996	-0.863132
H222	H	1.363167	0.099004	-0.363132
H223	H	0.903888	-0.369489	-0.707132
H224	H	1.403888	0.130511	-0.207132
H225	H	0.964929	-0.373353	-0.782970
H226	H	1.464929	0.126647	-0.282970
H227	H	1.057114	-0.186974	-0.871458
H228	H	1.557114	0.313026	-0.371458
H229	H	0.940386	-0.277510	-0.891292
H230	H	1.440386	0.222490	-0.391292
H231	H	0.728386	-0.182535	-0.451099
H232	H	1.228386	0.317465	0.048901
H233	H	0.395694	-0.162298	-0.479654
H234	H	0.895694	0.337702	0.020346
H235	H	0.269686	-0.282115	-0.310973
H236	H	0.769686	0.217885	0.189027
H237	H	0.402513	-0.278067	-0.316634
H238	H	0.902513	0.221933	0.183366
H239	H	0.735214	-0.298306	-0.288083
H240	H	1.235214	0.201694	0.211917
O241	O	0.596888	-0.307599	-0.275210
O242	O	1.096888	0.192401	0.224790
C243	C	0.514557	-0.380360	-0.262065
C244	C	1.014557	0.119640	0.237935
C245	C	0.552766	-0.344008	-0.313169
C246	C	1.052766	0.155992	0.186831
H247	H	0.478865	-0.409799	-0.292734
H248	H	0.978865	0.090201	0.207266
H249	H	0.554613	-0.402024	-0.231621
H250	H	1.054613	0.097976	0.268379
H251	H	0.481870	-0.356140	-0.223997
H252	H	0.981870	0.143860	0.276003
H253	H	0.585453	-0.368189	-0.351280
H254	H	1.085453	0.131811	0.148720
H255	H	0.512675	-0.322342	-0.343563
H256	H	1.012675	0.177658	0.156437
O257	O	0.514514	-0.185696	-0.446856
O258	O	1.014514	0.314304	0.053144
C259	C	0.593222	-0.179380	-0.545019
C260	C	1.093222	0.320620	-0.045019
C261	C	0.555007	-0.215676	-0.493849
C262	C	1.055007	0.284324	0.006151
H263	H	0.625982	-0.203603	-0.583017
H264	H	1.125982	0.296397	-0.083017
H265	H	0.553169	-0.157765	-0.575533
H266	H	1.053169	0.342235	-0.075533
H267	H	0.628845	-0.149893	-0.514351
H268	H	1.128845	0.350107	-0.014351
H269	H	0.519385	-0.245193	-0.524463
H270	H	1.019385	0.254807	-0.024463
H271	H	0.595098	-0.237254	-0.463335
H272	H	1.095098	0.262746	0.036665
H273	H	0.489036	-0.273833	-0.322587
H274	H	0.989036	0.226167	0.177413
O275	O	1.083192	-0.427287	-0.473266
O276	O	1.583192	0.072713	0.026734
C277	C	1.168312	-0.433195	-0.566063
C278	C	1.668312	0.066805	-0.066063
C279	C	1.121135	-0.463119	-0.514565
C280	C	1.621135	0.036881	-0.014565
H281	H	1.199012	-0.462152	-0.599456
H282	H	1.699012	0.037848	-0.099456
H283	H	1.134561	-0.409834	-0.601355
H284	H	1.634561	0.090166	-0.101355
H285	H	1.206327	-0.405437	-0.535461
H286	H	1.706327	0.094563	-0.035461
H287	H	1.083113	-0.490904	-0.545110
H288	H	1.583113	0.009096	-0.045110
H289	H	1.154929	-0.486446	-0.479272
H290	H	1.654929	0.013554	0.020728
H291	H	1.076466	-0.530537	-0.465892
H292	H	1.576466	-0.030537	0.034108
O293	O	1.098331	-0.154967	-1.123838
O294	O	1.598331	0.345033	-0.623838
C295	C	1.133329	-0.127857	-1.238351
C296	C	1.633329	0.372143	-0.738351
C297	C	1.085718	-0.164809	-1.195911
C298	C	1.585718	0.335191	-0.695911
H299	H	1.123158	-0.135808	-1.296631
H300	H	1.623158	0.364192	-0.796631
H301	H	1.121660	-0.085587	-1.223502
H302	H	1.621660	0.414413	-0.723502
H303	H	1.190460	-0.134845	-1.226335
H304	H	1.690460	0.365155	-0.726335
H305	H	1.028571	-0.157868	-1.207906
H306	H	1.528571	0.342132	-0.707906
H307	H	1.097447	-0.207066	-1.210766
H308	H	1.597447	0.292934	-0.710766
O309	O	1.126080	-0.678482	-0.520165
O310	O	1.626080	-0.178482	-0.020165
C311	C	1.154966	-0.664644	-0.640898
C312	C	1.654966	-0.164644	-0.140898
C313	C	1.107819	-0.694582	-0.589388
C314	C	1.607819	-0.194582	-0.089388
H315	H	1.140228	-0.677658	-0.696876
H316	H	1.640228	-0.177658	-0.196876
H317	H	1.147585	-0.620910	-0.632922
H318	H	1.647585	-0.120910	-0.132922
H319	H	1.212028	-0.673227	-0.631023
H320	H	1.712028	-0.173227	-0.131023
H321	H	1.050739	-0.686043	-0.599232
H322	H	1.550739	-0.186043	-0.099232
H323	H	1.115260	-0.738307	-0.597376
H324	H	1.615260	-0.238307	-0.097376
O325	O	1.126099	-0.786110	-0.520164
O326	O	1.626099	-0.286110	-0.020164
C327	C	1.131488	-0.850560	-0.615218
C328	C	1.631488	-0.350560	-0.115218
C329	C	1.084309	-0.820456	-0.563708
C330	C	1.584309	-0.320456	-0.063708
H331	H	1.097721	-0.878343	-0.650426
H332	H	1.597721	-0.378343	-0.150426
H333	H	1.162115	-0.821735	-0.648696
H334	H	1.662115	-0.321735	-0.148696
H335	H	1.169568	-0.873914	-0.584625
H336	H	1.669568	-0.373914	-0.084625
H337	H	1.046189	-0.797101	-0.594244
H338	H	1.546189	-0.297101	-0.094244
H339	H	1.053732	-0.849307	-0.530229
H340	H	1.553732	-0.349307	-0.030229
O341	O	1.083511	-1.037166	-0.473297
O342	O	1.583511	-0.537166	0.026703
C343	C	1.201287	-1.051279	-0.512573
C344	C	1.701287	-0.551279	-0.012573
C345	C	1.154061	-1.021165	-0.461120
C346	C	1.654061	-0.521165	0.038880
H347	H	1.258335	-1.038346	-0.502755
H348	H	1.758335	-0.538346	-0.002755
H349	H	1.193991	-1.094986	-0.504542
H350	H	1.693991	-0.594986	-0.004542
H351	H	1.186486	-1.042773	-0.568554
H352	H	1.686486	-0.542773	-0.068554
H353	H	1.168833	-1.029628	-0.405118
H354	H	1.668833	-0.529628	0.094882
H355	H	1.161363	-0.977468	-0.469212
H356	H	1.661363	-0.477468	0.030788
O357	O	1.083268	-0.929495	-0.473372
O358	O	1.583268	-0.429495	0.026628
C359	C	1.088572	-0.870670	-0.568456
C360	C	1.588572	-0.370670	-0.068456
C361	C	1.041429	-0.900642	-0.516977
C362	C	1.541429	-0.400642	-0.016977
H363	H	1.054763	-0.847343	-0.603734
H364	H	1.554763	-0.347343	-0.103734
H365	H	1.126601	-0.842887	-0.537909
H366	H	1.626601	-0.342887	-0.037909
H367	H	1.119256	-0.899625	-0.601869
H368	H	1.619256	-0.399625	-0.101869
H369	H	1.010699	-0.871725	-0.483551
H370	H	1.510699	-0.371725	0.016449
H371	H	1.003444	-0.928432	-0.547567
H372	H	1.503444	-0.428432	-0.047567
H373	H	0.928796	-0.286479	-1.110626
H374	H	1.428796	0.213521	-0.610626
H375	H	1.068715	-0.178011	-0.652119
H376	H	1.568715	0.321989	-0.152119
O377	O	0.914226	-1.036830	-0.288844
O378	O	1.414226	-0.536830	0.211156
C379	C	0.829166	-1.030913	-0.195993
C380	C	1.329166	-0.530913	0.304007
C381	C	0.876373	-1.000990	-0.247466
C382	C	1.376373	-0.500990	0.252534
H383	H	0.798561	-1.001948	-0.162515
H384	H	1.298561	-0.501948	0.337485
H385	H	0.791075	-1.058643	-0.226545
H386	H	1.291075	-0.558643	0.273455
H387	H	0.862956	-1.054304	-0.160778
H388	H	1.362956	-0.554304	0.339222
H389	H	0.842639	-0.977569	-0.282693
H390	H	1.342639	-0.477569	0.217307
H391	H	0.914468	-0.973291	-0.216870
H392	H	1.414468	-0.473291	0.283130
O393	O	0.871203	-0.785578	-0.242011
O394	O	1.371203	-0.285578	0.257989
C395	C	0.786130	-0.779653	-0.149173
C396	C	1.286130	-0.279653	0.350827
C397	C	0.833348	-0.749734	-0.200641
C398	C	1.333348	-0.249734	0.299359
H399	H	0.755522	-0.750685	-0.115702
H400	H	1.255522	-0.250685	0.384298
H401	H	0.748041	-0.807382	-0.179729
H402	H	1.248041	-0.307382	0.320271
H403	H	0.819912	-0.803044	-0.113951
H404	H	1.319912	-0.303044	0.386049
H405	H	0.799621	-0.726313	-0.235876
H406	H	1.299621	-0.226313	0.264124
H407	H	0.871440	-0.722036	-0.170042
H408	H	1.371440	-0.222036	0.329958
O409	O	1.069933	-0.177086	-0.790895
O410	O	1.569933	0.322914	-0.290895
C411	C	1.159241	-0.107791	-0.787019
C412	C	1.659241	0.392209	-0.287019
C413	C	1.111565	-0.144744	-0.744647
C414	C	1.611565	0.355256	-0.244647
H415	H	1.192902	-0.081626	-0.749645
H416	H	1.692902	0.418374	-0.249645
H417	H	1.194465	-0.131790	-0.822840
H418	H	1.694465	0.368210	-0.322840
H419	H	1.125609	-0.082576	-0.819948
H420	H	1.625609	0.417424	-0.319948
H421	H	1.145142	-0.169967	-0.711677
H422	H	1.645142	0.330033	-0.211677
H423	H	1.076337	-0.120715	-0.708870
H424	H	1.576337	0.379285	-0.208870
O425	O	0.927603	-0.287425	-0.971852
O426	O	1.427603	0.212575	-0.471852
C427	C	0.838216	-0.356663	-0.975731
C428	C	1.338216	0.143337	-0.475731
C429	C	0.885886	-0.319704	-1.018099
C430	C	1.385886	0.180296	-0.518099
H431	H	0.804466	-0.382762	-1.013104
H432	H	1.304466	0.117238	-0.513104
H433	H	0.871786	-0.381941	-0.942826
H434	H	1.371786	0.118059	-0.442826
H435	H	0.803071	-0.332618	-0.939887
H436	H	1.303071	0.167382	-0.439887
H437	H	0.921041	-0.343708	-1.053981
H438	H	1.421041	0.156292	-0.553981
H439	H	0.852275	-0.294424	-1.050959
H440	H	1.352275	0.205576	-0.550959
