data_functionalizedCrystal
_audit_creation_method	'MofGen! by Chris Wilmer'
_symmetry_space_group_name_H-M	'P1'
_symmetry_Int_Tables_number	1
_symmetry_cell_setting	triclinic
loop_
_symmetry_equiv_pos_as_xyz
  x,y,z
_cell_length_a	16.959455
_cell_length_b	12.759400
_cell_length_c	12.759393
_cell_angle_alpha	89.968231
_cell_angle_beta	89.980555
_cell_angle_gamma	90.011632
loop_
_atom_site_label
_atom_site_type_symbol
_atom_site_fract_x
_atom_site_fract_y
_atom_site_fract_z
Zn1	Zn	1.208453	-0.418288	-0.594039
Zn2	Zn	1.208376	-0.594007	-0.418359
Zn3	Zn	1.076270	-0.418334	-0.418372
Zn4	Zn	1.076259	-0.593916	-0.593994
O5	O	1.142340	-0.506136	-0.506191
O6	O	1.319054	-0.441616	-0.570748
O7	O	1.190825	-0.570761	-0.271340
O8	O	1.093841	-0.271306	-0.441699
O9	O	1.318998	-0.570717	-0.441677
O10	O	1.190956	-0.271273	-0.570761
O11	O	1.093767	-0.441694	-0.271349
O12	O	0.965658	-0.441606	-0.441656
O13	O	1.093822	-0.570561	-0.741022
O14	O	0.965649	-0.570605	-0.570684
O15	O	1.190945	-0.441528	-0.741054
O16	O	1.190814	-0.741016	-0.441634
O17	O	1.093748	-0.740949	-0.570672
C18	C	1.142293	-0.779104	-0.506169
C19	C	1.142345	-0.895880	-0.506195
C20	C	0.936973	-0.506101	-0.506167
C21	C	0.849117	-0.506112	-0.506182
C22	C	1.192943	-0.950742	-0.439079
C23	C	1.192992	-1.060466	-0.439112
C24	C	1.091837	-1.060456	-0.573379
C25	C	1.091793	-0.950734	-0.573351
C26	C	1.251342	-0.950749	-0.361558
C27	C	1.251391	-1.060473	-0.361590
C28	C	0.477621	-0.438911	-0.439146
C29	C	0.477661	-0.573448	-0.573296
C30	C	0.560207	-0.573433	-0.573290
C31	C	0.601464	-0.506157	-0.506210
C32	C	0.560175	-0.438896	-0.439136
C33	C	0.601503	-0.640700	-0.640355
C34	C	0.684054	-0.640688	-0.640351
C35	C	0.725312	-0.573406	-0.573275
C36	C	0.684017	-0.506142	-0.506199
C37	C	0.725274	-0.438866	-0.439118
C38	C	0.683981	-0.371596	-0.372047
C39	C	0.601433	-0.371614	-0.372060
C40	C	0.807860	-0.573388	-0.573262
C41	C	0.807828	-0.438851	-0.439108
C42	C	1.348508	-0.506172	-0.506216
C43	C	1.436364	-0.506187	-0.506227
C44	C	1.142391	-0.506029	-0.780225
C45	C	1.142413	-0.505984	-0.897002
C46	C	1.142408	-0.232103	-0.506236
C47	C	1.142438	-0.115326	-0.506255
C48	C	1.091896	-0.438766	-0.951875
C49	C	1.091920	-0.438735	-1.061599
C50	C	1.192984	-0.573141	-1.061567
C51	C	1.192956	-0.573177	-0.951845
C52	C	1.033550	-0.361164	-0.951894
C53	C	1.033574	-0.361133	-1.061618
C54	C	1.142334	-0.506167	-0.233224
C55	C	1.142465	-0.505917	-0.116448
H56	H	1.050599	-0.906067	-0.628012
C57	C	1.248473	-0.647190	-1.121905
N58	N	1.290230	-0.703016	-1.167350
C59	C	0.432276	-0.647449	-0.647078
N60	N	0.398089	-0.703188	-0.702656
H61	H	0.567906	-0.695479	-0.694961
C62	C	0.729374	-0.297591	-0.298265
N63	N	0.763567	-0.241849	-0.242697
C64	C	0.432199	-0.364916	-0.365372
N65	N	0.397986	-0.309183	-0.309804
C66	C	0.729468	-0.714683	-0.714134
N67	N	0.763675	-0.770414	-0.769710
C68	C	0.556005	-0.297628	-0.298284
N69	N	0.521785	-0.241904	-0.242713
C70	C	1.063184	-0.256764	-0.905936
N71	N	1.085505	-0.178129	-0.871319
C72	C	0.853278	-0.647380	-0.647036
N73	N	0.887487	-0.703113	-0.702609
H74	H	1.229431	-0.916800	-0.284231
C75	C	1.329960	-1.106342	-0.401053
N76	N	1.389138	-1.140891	-0.430774
C77	C	0.853203	-0.364841	-0.365312
N78	N	0.887380	-0.309097	-0.309728
H79	H	1.049988	-0.279752	-1.091416
C80	C	0.955009	-0.400464	-1.107587
N81	N	0.895835	-0.430087	-1.142212
C82	C	1.036227	-1.120806	-0.647239
N83	N	0.994339	-1.166261	-0.702870
C84	C	1.334016	-0.910413	-0.391084
N85	N	1.396284	-0.880033	-0.413324
C86	C	1.229294	-1.100819	-0.251652
N87	N	1.212649	-1.131207	-0.168851
C88	C	0.950830	-0.390603	-0.911657
N89	N	0.888527	-0.412777	-0.881350
H90	H	1.234080	-0.627927	-0.907171
