data_functionalizedCrystal
_audit_creation_method	'MofGen! by Chris Wilmer'
_symmetry_space_group_name_H-M	'P1'
_symmetry_Int_Tables_number	1
_symmetry_cell_setting	triclinic
loop_
_symmetry_equiv_pos_as_xyz
  x,y,z
_cell_length_a	17.639617
_cell_length_b	29.839131
_cell_length_c	17.637815
_cell_angle_alpha	101.162708
_cell_angle_beta	87.811513
_cell_angle_gamma	101.217837
loop_
_atom_site_label
_atom_site_type_symbol
_atom_site_fract_x
_atom_site_fract_y
_atom_site_fract_z
Zn1	Zn	1.074047	-0.131955	-0.664341
Zn2	Zn	1.574047	0.368045	-0.164341
Zn3	Zn	1.099631	-0.189557	-0.537334
Zn4	Zn	1.599631	0.310443	-0.037334
Zn5	Zn	0.972746	-0.126052	-0.511675
Zn6	Zn	1.472746	0.373948	-0.011675
Zn7	Zn	0.947007	-0.218670	-0.638543
Zn8	Zn	1.447007	0.281330	-0.138543
O9	O	1.023358	-0.166559	-0.587973
O10	O	1.523358	0.333441	-0.087973
O11	O	1.183709	-0.129882	-0.669027
O12	O	1.683709	0.370118	-0.169027
O13	O	1.104278	-0.166479	-0.427683
O14	O	1.604278	0.333521	0.072317
O15	O	0.986248	-0.063967	-0.531985
O16	O	1.486248	0.436033	-0.031985
O17	O	1.202505	-0.172203	-0.575716
O18	O	1.702505	0.327797	-0.075716
O19	O	1.060674	-0.068304	-0.644147
O20	O	1.560674	0.431696	-0.144147
O21	O	1.011056	-0.119822	-0.408832
O22	O	1.511056	0.380178	0.091168
O23	O	0.863063	-0.148052	-0.506970
O24	O	1.363063	0.351948	-0.006970
O25	O	0.942381	-0.221821	-0.748212
O26	O	1.442381	0.278179	-0.248212
O27	O	0.844153	-0.216098	-0.600179
O28	O	1.344153	0.283902	-0.100179
O29	O	1.035716	-0.158112	-0.767166
O30	O	1.535716	0.341888	-0.267166
O31	O	1.079320	-0.256287	-0.550701
O32	O	1.579320	0.243713	-0.050701
O33	O	0.967188	-0.277676	-0.625059
O34	O	1.467188	0.222324	-0.125059
C35	C	0.826054	-0.184594	-0.547991
C36	C	1.326054	0.315406	-0.047991
C37	C	0.741643	-0.192322	-0.530905
C38	C	1.241643	0.307678	-0.030905
C39	C	0.414996	-0.107861	-0.717965
C40	C	0.914996	0.392139	-0.217965
C41	C	0.335682	-0.115132	-0.701894
C42	C	0.835682	0.384868	-0.201894
C43	C	0.355305	-0.159086	-0.604589
C44	C	0.855305	0.340914	-0.104589
C45	C	0.434622	-0.151820	-0.620654
C46	C	0.934622	0.348180	-0.120654
C47	C	0.464461	-0.126206	-0.677342
C48	C	0.964461	0.373794	-0.177342
C49	C	0.484086	-0.170166	-0.580032
C50	C	0.984086	0.329834	-0.080032
C51	C	0.563397	-0.162898	-0.596093
C52	C	1.063397	0.337102	-0.096093
C53	C	0.593242	-0.137285	-0.652777
C54	C	1.093242	0.362715	-0.152777
C55	C	0.543771	-0.118939	-0.693403
C56	C	1.043771	0.381061	-0.193403
C57	C	0.454246	-0.195776	-0.523340
C58	C	0.954246	0.304224	-0.023340
C59	C	0.503711	-0.214122	-0.482718
C60	C	1.003711	0.285878	0.017282
C61	C	0.583022	-0.206857	-0.498782
C62	C	1.083022	0.293143	0.001218
C63	C	0.612868	-0.181244	-0.555466
C64	C	1.112868	0.318756	-0.055466
C65	C	0.632494	-0.225203	-0.458156
C66	C	1.132494	0.274797	0.041844
C67	C	0.711804	-0.217936	-0.474217
C68	C	1.211804	0.282064	0.025783
C69	C	0.692178	-0.173977	-0.571527
C70	C	1.192178	0.326023	-0.071527
C71	C	1.023255	-0.283283	-0.587886
C72	C	1.523255	0.216717	-0.087886
C73	C	1.023275	-0.333215	-0.587888
C74	C	1.523275	0.166785	-0.087888
C75	C	1.062087	-0.645093	-0.646443
C76	C	1.562087	-0.145093	-0.146443
C77	C	1.062160	-0.832765	-0.646505
C78	C	1.562160	-0.332765	-0.146505
O79	O	1.095055	-0.858933	-0.696221
O80	O	1.595055	-0.358933	-0.196221
N81	N	1.023470	-0.854001	-0.588084
N82	N	1.523470	-0.354001	-0.088084
C83	C	0.984754	-0.828316	-0.529645
C84	C	1.484754	-0.328316	-0.029645
O85	O	0.951841	-0.850686	-0.479959
O86	O	1.451841	-0.350686	0.020041
C87	C	0.984677	-0.640646	-0.529586
C88	C	1.484677	-0.140646	-0.029586
C89	C	1.023376	-0.619412	-0.588007
C90	C	1.523376	-0.119412	-0.088007
C91	C	1.100782	-0.623858	-0.704860
C92	C	1.600782	-0.123858	-0.204860
C93	C	1.100767	-0.576942	-0.704842
C94	C	1.600767	-0.076942	-0.204842
C95	C	1.062056	-0.551261	-0.646406
C96	C	1.562056	-0.051261	-0.146406
C97	C	1.023361	-0.572496	-0.587989
C98	C	1.523361	-0.072496	-0.087989
C99	C	0.945957	-0.614964	-0.471151
C100	C	1.445957	-0.114964	0.028849
C101	C	0.945940	-0.568044	-0.471142
C102	C	1.445940	-0.068044	0.028858
C103	C	0.984639	-0.546809	-0.529564
C104	C	1.484639	-0.046809	-0.029564
C105	C	0.984635	-0.499899	-0.529535
C106	C	1.484635	0.000101	-0.029535
N107	N	1.023325	-0.478663	-0.587957
N108	N	1.523325	0.021337	-0.087957
C109	C	1.062036	-0.504344	-0.646392
C110	C	1.562036	-0.004344	-0.146392
C111	C	0.984799	-0.926846	-0.529679
C112	C	1.484799	-0.426846	-0.029679
C113	C	0.984819	-0.973763	-0.529692
C114	C	1.484819	-0.473763	-0.029692
C115	C	1.062224	-0.978208	-0.646554
C116	C	1.562224	-0.478208	-0.146554
C117	C	1.062207	-0.931289	-0.646537
C118	C	1.562207	-0.431289	-0.146537
C119	C	1.023489	-0.905610	-0.588101
C120	C	1.523489	-0.405610	-0.088101
C121	C	1.062002	-0.405817	-0.646349
C122	C	1.562002	0.094183	-0.146349
C123	C	1.061986	-0.358896	-0.646323
C124	C	1.561986	0.141104	-0.146323
C125	C	0.984578	-0.354456	-0.529464
C126	C	1.484578	0.145544	-0.029464
C127	C	0.984597	-0.401372	-0.529487
C128	C	1.484597	0.098628	-0.029487
C129	C	1.023310	-0.427052	-0.587936
C130	C	1.523310	0.072948	-0.087936
O131	O	0.951750	-0.473704	-0.479850
O132	O	1.451750	0.026296	0.020150
O133	O	1.094930	-0.481968	-0.696080
O134	O	1.594930	0.018032	-0.196080
C135	C	1.062102	-0.692009	-0.646462
C136	C	1.562102	-0.192009	-0.146462
C137	C	1.023406	-0.713243	-0.588044
C138	C	1.523406	-0.213243	-0.088044
C139	C	0.984696	-0.687562	-0.529609
C140	C	1.484696	-0.187562	-0.029609
C141	C	1.023427	-0.760160	-0.588058
C142	C	1.523427	-0.260160	-0.088058
C143	C	1.062137	-0.785841	-0.646494
C144	C	1.562137	-0.285841	-0.146494
C145	C	1.100827	-0.764606	-0.704916
C146	C	1.600827	-0.264606	-0.204916
C147	C	1.100812	-0.717690	-0.704897
C148	C	1.600812	-0.217690	-0.204897
C149	C	0.946006	-0.708798	-0.471187
C150	C	1.446006	-0.208798	0.028813
C151	C	0.946025	-0.755714	-0.471210
C152	C	1.446025	-0.255714	0.028790
C153	C	0.984735	-0.781395	-0.529645
C154	C	1.484735	-0.281395	-0.029645
C155	C	1.221432	-0.148454	-0.628112
C156	C	1.721432	0.351546	-0.128112
C157	C	1.305839	-0.140738	-0.645216
C158	C	1.805839	0.359262	-0.145216
C159	C	0.983324	-0.193872	-0.786008
C160	C	1.483324	0.306128	-0.286008
C161	C	0.966264	-0.205512	-0.870399
C162	C	1.466264	0.294488	-0.370399
C163	C	1.023478	-0.049379	-0.588082
C164	C	1.523478	0.450621	-0.088082
C165	C	1.023530	0.000556	-0.588128
C166	C	1.523530	0.500556	-0.088128
C167	C	1.153126	-0.077954	-1.197288
C168	C	1.653126	0.422046	-0.697288
C169	C	1.137087	-0.088902	-1.276584
C170	C	1.637087	0.411098	-0.776584
C171	C	1.039905	-0.155237	-1.256839
C172	C	1.539905	0.344763	-0.756839
C173	C	1.055939	-0.144296	-1.177541
C174	C	1.555939	0.355704	-0.677541
C175	C	1.112550	-0.105654	-1.147772
C176	C	1.612550	0.394346	-0.647772
C177	C	1.015362	-0.171996	-1.128024
C178	C	1.515362	0.328004	-0.628024
C179	C	1.031392	-0.161054	-1.048731
C180	C	1.531392	0.338946	-0.548731
C181	C	1.087998	-0.122412	-1.018956
C182	C	1.587998	0.377588	-0.518956
C183	C	1.128579	-0.094712	-1.068479
C184	C	1.628579	0.405288	-0.568479
C185	C	0.958748	-0.210636	-1.157794
C186	C	1.458748	0.289364	-0.657794
C187	C	0.918171	-0.238335	-1.108277
C188	C	1.418171	0.261665	-0.608277
C189	C	0.934204	-0.227396	-1.028984
C190	C	1.434204	0.272604	-0.528984
C191	C	0.990811	-0.188754	-0.999208
C192	C	1.490811	0.311246	-0.499208
C193	C	0.893623	-0.255096	-0.979460
C194	C	1.393623	0.244904	-0.479460
C195	C	0.909653	-0.244154	-0.900168
C196	C	1.409653	0.255846	-0.400168
C197	C	1.006841	-0.177812	-0.919915
C198	C	1.506841	0.322188	-0.419915
C199	C	1.063280	-0.139315	-0.390718
C200	C	1.563280	0.360685	0.109282
C201	C	1.080487	-0.127535	-0.306357
C202	C	1.580487	0.372465	0.193643
H203	H	0.439292	-0.087006	-0.764128
H204	H	0.939292	0.412994	-0.264128
Br205	Br	0.700880	-0.127415	-0.674568
Br206	Br	1.200880	0.372585	-0.174568
Br207	Br	0.932047	-0.319594	-0.450161
Br208	Br	1.432047	0.180406	0.049839
Br209	Br	0.584273	-0.084184	-0.770347
Br210	Br	1.084273	0.415816	-0.270347
Br211	Br	0.932242	-0.892002	-0.450367
Br212	Br	1.432242	-0.392002	0.049633
Br213	Br	0.591990	-0.259955	-0.381214
Br214	Br	1.091990	0.240045	0.118786
Br215	Br	0.346611	-0.205634	-0.501535
Br216	Br	0.846611	0.294366	-0.001535
H217	H	1.052942	-0.146348	-0.895677
H218	H	1.552942	0.353652	-0.395677
H219	H	0.295410	-0.100188	-0.734974
H220	H	0.795410	0.399812	-0.234974
H221	H	1.132276	-0.559656	-0.752415
H222	H	1.632276	-0.059656	-0.252415
Br223	Br	1.153335	-0.688879	-0.784188
Br224	Br	1.653335	-0.188879	-0.284188
Br225	Br	1.114729	-0.902476	-0.725826
Br226	Br	1.614729	-0.402476	-0.225826
H227	H	1.101049	-0.113505	-0.954390
H228	H	1.601049	0.386495	-0.454390
H229	H	0.752080	-0.232875	-0.441138
H230	H	1.252080	0.267125	0.058862
Br231	Br	0.463209	-0.248879	-0.405783
Br232	Br	0.963209	0.251121	0.094217
H233	H	0.330999	-0.179938	-0.558431
H234	H	0.830999	0.320062	-0.058431
Br235	Br	1.153367	-0.799467	-0.784218
Br236	Br	1.653367	-0.299467	-0.284218
H237	H	1.093502	-0.341609	-0.693898
H238	H	1.593502	0.158391	-0.193898
Br239	Br	0.893458	-0.673954	-0.391877
Br240	Br	1.393458	-0.173954	0.108123
Br241	Br	1.114542	-0.440661	-0.725672
Br242	Br	1.614542	0.059339	-0.225672
Br243	Br	1.205420	-0.042274	-1.028073
Br244	Br	1.705420	0.457726	-0.528073
Br245	Br	1.114760	-1.013070	-0.725859
Br246	Br	1.614760	-0.513070	-0.225859
Br247	Br	1.229967	-0.025516	-1.156882
Br248	Br	1.729967	0.474484	-0.656882
H249	H	0.945691	-0.219540	-1.222358
H250	H	1.445691	0.280460	-0.722358
H251	H	1.132303	-0.644764	-0.752450
H252	H	1.632303	-0.144764	-0.252450
H253	H	0.953316	-0.991046	-0.482113
H254	H	1.453316	-0.491046	0.017887
H255	H	0.914445	-0.632245	-0.423578
H256	H	1.414445	-0.132245	0.076422
H257	H	0.914408	-0.547138	-0.423557
H258	H	1.414408	-0.047138	0.076443
Br259	Br	0.932091	-0.430189	-0.450191
Br260	Br	1.432091	0.069811	0.049809
H261	H	1.170130	-0.066341	-1.316899
H262	H	1.670130	0.433659	-0.816899
Br263	Br	0.963077	-0.207677	-1.297247
Br264	Br	1.463077	0.292323	-0.797247
Br265	Br	0.893505	-0.784525	-0.391912
Br266	Br	1.393505	-0.284525	0.108088
H267	H	0.872077	-0.269797	-1.132526
H268	H	1.372077	0.230203	-0.632526
Br269	Br	0.854581	-0.281745	-0.832960
Br270	Br	1.354581	0.218255	-0.332960
Br271	Br	0.816788	-0.307532	-1.019869
Br272	Br	1.316788	0.192468	-0.519869
H273	H	0.716474	-0.153122	-0.617691
H274	H	1.216474	0.346878	-0.117691
