data_functionalizedCrystal
_audit_creation_method	'MofGen! by Chris Wilmer'
_symmetry_space_group_name_H-M	'P1'
_symmetry_Int_Tables_number	1
_symmetry_cell_setting	triclinic
loop_
_symmetry_equiv_pos_as_xyz
  x,y,z
_cell_length_a	8.559649
_cell_length_b	15.944551
_cell_length_c	7.088929
_cell_angle_alpha	83.774879
_cell_angle_beta	95.325015
_cell_angle_gamma	76.638701
loop_
_atom_site_label
_atom_site_type_symbol
_atom_site_fract_x
_atom_site_fract_y
_atom_site_fract_z
O1	O	2.103727	-0.018804	-0.158956
O2	O	1.638526	0.024575	-0.158968
O3	O	1.883832	-0.120210	-0.158944
O4	O	1.858421	0.125981	-0.158979
O5	O	1.916614	-0.139599	0.159034
O6	O	1.671309	0.005187	0.159010
O7	O	2.136509	-0.038193	0.159023
Cu8	Cu	1.906902	-0.018273	0.188050
Cu9	Cu	1.868133	0.004656	-0.187996
O10	O	1.891203	0.106593	0.158999
C11	C	1.595388	0.018169	0.000020
C12	C	1.418008	0.027954	0.000015
C13	C	1.899168	-0.161130	0.000045
C14	C	1.896006	-0.254172	0.000046
C15	C	1.736394	-0.458727	0.000015
C16	C	1.826675	-0.534087	0.156800
C17	C	1.890284	-0.424528	0.000031
C18	C	1.794391	-0.514957	-0.156702
C19	C	1.884745	-0.589082	0.000009
C20	C	1.980621	-0.498671	0.156945
C21	C	1.948300	-0.479525	-0.156697
C22	C	2.038697	-0.554877	0.000126
C23	C	1.893471	-0.329732	0.000046
C24	C	1.881571	-0.683878	0.000008
C25	C	2.179647	-0.031786	0.000031
C26	C	2.357025	-0.041571	0.000022
C27	C	1.875866	0.147513	0.000005
C28	C	1.879027	0.240556	-0.000008
N29	N	1.934182	-0.034401	0.452541
N30	N	1.840866	0.020776	-0.452487
H31	H	1.440515	-0.108579	0.000023
C32	C	2.063047	-0.110764	0.561175
C33	C	2.031954	-0.188656	0.512604
C34	C	2.150636	-0.259017	0.612621
H35	H	2.061303	-0.109783	0.694711
H36	H	2.166399	-0.106643	0.528401
H37	H	1.928629	-0.192776	0.545391
H38	H	2.033712	-0.189666	0.379085
H39	H	2.253988	-0.254897	0.579847
H40	H	2.148882	-0.258028	0.746151
H41	H	2.129564	-0.311875	0.579666
C42	C	1.306466	0.117279	-0.000302
C43	C	1.192791	0.137003	-0.163878
C44	C	1.090001	0.219274	-0.164223
H45	H	1.368299	0.159671	-0.000403
H46	H	1.251990	0.117311	0.110522
H47	H	1.247263	0.136978	-0.274673
H48	H	1.130921	0.094633	-0.163811
H49	H	1.035525	0.219306	-0.053399
H50	H	1.151847	0.261659	-0.164319
H51	H	1.012852	0.232664	-0.275197
H52	H	2.059335	-0.490968	0.289640
H53	H	2.166552	-0.596292	0.000218
C54	C	1.712094	0.097137	0.438749
C55	C	1.743226	0.175032	0.487250
C56	C	1.624647	0.245395	0.387063
H57	H	1.608694	0.093086	0.471397
H58	H	1.713962	0.096087	0.305224
H59	H	1.741342	0.176081	0.620744
H60	H	1.846605	0.179111	0.454596
H61	H	1.626515	0.244344	0.253538
H62	H	1.521255	0.241335	0.419719
H63	H	1.645762	0.298254	0.419943
C64	C	2.016534	-0.447339	-0.333497
C65	C	1.901096	-0.377375	-0.440017
C66	C	1.963888	-0.347691	-0.602899
H67	H	2.042639	-0.493069	-0.409299
H68	H	2.111325	-0.428914	-0.295920
H69	H	1.806334	-0.395802	-0.477596
H70	H	1.874980	-0.331628	-0.364272
H71	H	2.058678	-0.329266	-0.565323
H72	H	1.989991	-0.393426	-0.678685
H73	H	1.885579	-0.300213	-0.675184
C74	C	1.566109	-0.403394	0.000602
C75	C	1.503238	-0.431128	0.165144
C76	C	1.346391	-0.380169	0.165771
H77	H	1.499344	-0.409243	-0.109517
H78	H	1.569133	-0.344158	-0.000434
H79	H	1.500203	-0.490349	0.166162
H80	H	1.569957	-0.425276	0.275289
H81	H	1.349415	-0.320933	0.164735
H82	H	1.279640	-0.386022	0.055645
H83	H	1.303718	-0.398974	0.277418
C84	C	1.758433	-0.566181	0.333692
C85	C	1.874906	-0.635084	0.442146
C86	C	1.812096	-0.664660	0.605114
H87	H	1.664775	-0.585613	0.296247
H88	H	1.730500	-0.520069	0.408142
H89	H	1.902817	-0.681188	0.367710
H90	H	1.968571	-0.615673	0.479640
H91	H	1.784163	-0.618547	0.679564
H92	H	1.718438	-0.684087	0.567650
H93	H	1.891117	-0.711408	0.678728
H94	H	1.715616	-0.522750	-0.289260
