data_functionalizedCrystal
_audit_creation_method	'MofGen! by Chris Wilmer'
_symmetry_space_group_name_H-M	'P1'
_symmetry_Int_Tables_number	1
_symmetry_cell_setting	triclinic
loop_
_symmetry_equiv_pos_as_xyz
  x,y,z
_cell_length_a	21.295417
_cell_length_b	21.295420
_cell_length_c	17.077396
_cell_angle_alpha	89.980351
_cell_angle_beta	89.966808
_cell_angle_gamma	90.026289
loop_
_atom_site_label
_atom_site_type_symbol
_atom_site_fract_x
_atom_site_fract_y
_atom_site_fract_z
Zn1	Zn	-0.250680	0.962325	-0.443820
Zn2	Zn	0.249320	1.462325	0.056180
Zn3	Zn	-0.355953	0.962236	-0.312543
Zn4	Zn	0.144047	1.462236	0.187457
Zn5	Zn	-0.250694	0.857057	-0.312568
Zn6	Zn	0.249306	1.357057	0.187432
Zn7	Zn	-0.355908	0.857017	-0.443767
Zn8	Zn	0.144092	1.357017	0.056233
O9	O	-0.303309	0.909659	-0.378174
O10	O	0.196691	1.409659	0.121826
O11	O	-0.264658	1.050402	-0.426418
O12	O	0.235342	1.550402	0.073582
O13	O	-0.342015	0.948263	-0.202700
O14	O	0.157985	1.448263	0.297300
O15	O	-0.162603	0.871075	-0.330011
O16	O	0.337397	1.371075	0.169989
O17	O	-0.342002	1.050337	-0.329970
O18	O	0.157998	1.550337	0.170030
O19	O	-0.162593	0.948414	-0.426442
O20	O	0.337407	1.448414	0.073558
O21	O	-0.264682	0.870989	-0.202717
O22	O	0.235318	1.370989	0.297283
O23	O	-0.264638	0.768962	-0.329959
O24	O	0.235362	1.268962	0.170041
O25	O	-0.341924	0.871007	-0.553621
O26	O	0.158076	1.371007	-0.053621
O27	O	-0.341938	0.768933	-0.426351
O28	O	0.158062	1.268933	0.073649
O29	O	-0.264614	0.948376	-0.553660
O30	O	0.235386	1.448376	-0.053660
O31	O	-0.444036	0.948225	-0.329918
O32	O	0.055964	1.448225	0.170082
O33	O	-0.444003	0.870921	-0.426327
O34	O	0.055997	1.370921	0.073673
C35	C	-0.303285	0.746107	-0.378152
C36	C	0.196715	1.246107	0.121848
C37	C	-0.303289	0.676139	-0.378161
C38	C	0.196711	1.176139	0.121839
C39	C	-0.263131	0.176714	-0.428488
C40	C	0.236869	0.676714	0.071512
C41	C	-0.263126	0.242457	-0.428488
C42	C	0.236874	0.742457	0.071512
C43	C	-0.303328	0.275300	-0.378193
C44	C	0.196672	0.775300	0.121807
C45	C	-0.343549	0.242394	-0.327907
C46	C	0.156451	0.742394	0.172093
C47	C	-0.343557	0.176653	-0.327915
C48	C	0.156443	0.676653	0.172085
N49	N	-0.308075	0.378494	-0.309459
N50	N	0.191925	0.878494	0.190541
N51	N	-0.308063	0.440946	-0.309454
N52	N	0.191937	0.940946	0.190546
C53	C	-0.303307	0.473374	-0.378170
C54	C	0.196693	0.973374	0.121830
N55	N	-0.298550	0.440992	-0.446891
N56	N	0.201450	0.940992	0.053109
N57	N	-0.298558	0.378535	-0.446895
N58	N	0.201442	0.878535	0.053105
C59	C	-0.303324	0.346585	-0.378180
C60	C	0.196676	0.846585	0.121820
C61	C	-0.263087	0.577557	-0.428455
C62	C	0.236913	1.077557	0.071545
C63	C	-0.263087	0.643301	-0.428457
C64	C	0.236913	1.143301	0.071543
C65	C	-0.343506	0.643237	-0.327869
C66	C	0.156494	1.143237	0.172131
C67	C	-0.343509	0.577495	-0.327874
C68	C	0.156491	1.077495	0.172126
C69	C	-0.303297	0.544659	-0.378167
C70	C	0.196703	1.044659	0.121833
C71	C	-0.466860	0.909576	-0.378131
C72	C	0.033140	1.409576	0.121869
C73	C	-0.536828	0.909598	-0.378139
C74	C	-0.036828	1.409598	0.121861
C75	C	-0.569692	0.949886	-0.327990
C76	C	-0.069692	1.449886	0.172010
C77	C	-0.635434	0.949916	-0.328007
C78	C	-0.135434	1.449916	0.171993
C79	C	-0.668311	0.909646	-0.378166
C80	C	-0.168311	1.409646	0.121834
C81	C	-0.635440	0.869356	-0.428324
C82	C	-0.135440	1.369356	0.071676
C83	C	-0.569699	0.869332	-0.428311
C84	C	-0.069699	1.369332	0.071689
N85	N	-0.771573	0.854579	-0.384142
N86	N	-0.271573	1.354579	0.115858
N87	N	-0.834024	0.854603	-0.384151
N88	N	-0.334024	1.354603	0.115849
C89	C	-0.866386	0.909717	-0.378211
C90	C	-0.366386	1.409717	0.121789
N91	N	-0.833937	0.964806	-0.372247
N92	N	-0.333937	1.464806	0.127753
N93	N	-0.771479	0.964781	-0.372234
N94	N	-0.271479	1.464781	0.127766
C95	C	-0.739596	0.909668	-0.378186
C96	C	-0.239596	1.409668	0.121814
C97	C	-0.970534	0.950040	-0.328078
C98	C	-0.470534	1.450040	0.171922
C99	C	-1.036278	0.950071	-0.328101
C100	C	-0.536278	1.450071	0.171899
C101	C	-1.036282	0.869505	-0.428414
C102	C	-0.536282	1.369505	0.071586
C103	C	-0.970540	0.869480	-0.428395
C104	C	-0.470540	1.369480	0.071605
C105	C	-0.937670	0.909747	-0.378223
C106	C	-0.437670	1.409747	0.121777
C107	C	-0.139118	0.909759	-0.378235
C108	C	0.360882	1.409759	0.121765
C109	C	-0.069150	0.909801	-0.378261
C110	C	0.430850	1.409801	0.121739
C111	C	-0.303333	1.073849	-0.378197
C112	C	0.196667	1.573849	0.121803
C113	C	-0.303344	1.143817	-0.378207
C114	C	0.196656	1.643817	0.121793
C115	C	-0.303262	0.909697	-0.582919
C116	C	0.196738	1.409697	-0.082919
C117	C	-0.303243	0.909713	-0.670169
C118	C	0.196757	1.409713	-0.170169
C119	C	-0.262984	0.950000	-0.711181
C120	C	0.237016	1.450000	-0.211181
C121	C	-0.262963	0.950008	-0.793161
C122	C	0.237037	1.450008	-0.293161
C123	C	-0.303204	0.909731	-0.834128
C124	C	0.196796	1.409731	-0.334128
C125	C	-0.343465	0.869439	-0.793110
C126	C	0.156535	1.369439	-0.293110
C127	C	-0.343482	0.869429	-0.711131
C128	C	0.156518	1.369429	-0.211131
C129	C	-0.343427	0.869464	-0.963981
C130	C	0.156573	1.369464	-0.463981
C131	C	-0.343411	0.869475	-1.045965
C132	C	0.156589	1.369475	-0.545965
C133	C	-0.262908	0.950044	-1.046010
C134	C	0.237092	1.450044	-0.546010
C135	C	-0.262925	0.950033	-0.964031
C136	C	0.237075	1.450033	-0.464031
C137	C	-0.303187	0.909742	-0.923019
C138	C	0.196813	1.409742	-0.423019
C139	C	-0.303309	0.909657	-0.174227
C140	C	0.196691	1.409657	0.325773
C141	C	-0.303152	0.909763	-0.086977
C142	C	0.196848	1.409763	0.413023
H143	H	-0.230343	0.550820	-0.469406
H144	H	0.269657	1.050820	0.030594
C145	C	-0.218884	0.278651	-0.483800
C146	C	0.281116	0.778651	0.016200
N147	N	-0.185559	0.305911	-0.525460
N148	N	0.314441	0.805911	-0.025460
H149	H	-0.376304	0.149869	-0.286968
H150	H	0.123696	0.649869	0.213032
C151	C	-0.387730	0.679360	-0.272544
C152	C	0.112270	1.179360	0.227456
N153	N	-0.421042	0.706572	-0.230873
N154	N	0.078958	1.206572	0.269127
H155	H	-0.376202	0.836645	-0.930591
H156	H	0.123798	1.336645	-0.430591
H157	H	-1.063050	0.836719	-0.469257
H158	H	-0.563050	1.336719	0.030743
H159	H	-0.230124	0.982849	-1.079406
H160	H	0.269876	1.482849	-0.579406
H161	H	-0.376177	0.836677	-1.079319
H162	H	0.123823	1.336677	-0.579319
C163	C	-0.934389	0.825172	-0.483579
C164	C	-0.434389	1.325172	0.016421
N165	N	-0.907161	0.791805	-0.525156
N166	N	-0.407161	1.291805	-0.025156
H167	H	-0.662196	0.982725	-0.287170
H168	H	-0.162196	1.482725	0.212830
C169	C	-0.387768	0.278523	-0.272579
C170	C	0.112232	0.778523	0.227421
N171	N	-0.421076	0.305735	-0.230904
N172	N	0.078924	0.805735	0.269096
C173	C	-0.218845	0.679488	-0.483772
C174	C	0.281155	1.179488	0.016228
N175	N	-0.185520	0.706744	-0.525435
N176	N	0.314480	1.206744	-0.025435
C177	C	-0.387771	0.825111	-0.666019
C178	C	0.112229	1.325111	-0.166019
N179	N	-0.421130	0.791727	-0.632041
N180	N	0.078870	1.291727	-0.132041
H181	H	-0.376253	0.550709	-0.286926
H182	H	0.123747	1.050709	0.213074
C183	C	-0.671606	0.825057	-0.483496
C184	C	-0.171606	1.325057	0.016504
N185	N	-0.698846	0.791690	-0.525053
N186	N	-0.198846	1.291690	-0.025053
C187	C	-0.218714	0.994309	-0.666124
C188	C	0.281286	1.494309	-0.166124
N189	N	-0.185366	1.027681	-0.632190
N190	N	0.314634	1.527681	-0.132190
H191	H	-0.542931	0.982675	-0.287139
H192	H	-0.042931	1.482675	0.212861
C193	C	-0.218901	0.140598	-0.483818
C194	C	0.281099	0.640598	0.016182
N195	N	-0.185588	0.113395	-0.525496
N196	N	0.314412	0.613395	-0.025496
C197	C	-0.533548	0.825018	-0.483491
C198	C	-0.033548	1.325018	0.016509
N199	N	-0.506318	0.791642	-0.525056
N200	N	-0.006318	1.291642	-0.025056
C201	C	-0.387725	0.825128	-0.838177
C202	C	0.112275	1.325128	-0.338177
N203	N	-0.421062	0.791751	-0.872121
N204	N	0.078938	1.291751	-0.372121
H205	H	-0.230182	0.982816	-0.826549
H206	H	0.269818	1.482816	-0.326549
H207	H	-0.943770	0.982830	-0.287227
H208	H	-0.443770	1.482830	0.212773
C209	C	-1.072427	0.994392	-0.272930
C210	C	-0.572427	1.494392	0.227070
N211	N	-1.099655	1.027775	-0.231372
N212	N	-0.599655	1.527775	0.268628
H213	H	-0.230160	0.982834	-0.930678
H214	H	0.269840	1.482834	-0.430678
