data_functionalizedCrystal
_audit_creation_method	'MofGen! by Chris Wilmer'
_symmetry_space_group_name_H-M	'P1'
_symmetry_Int_Tables_number	1
_symmetry_cell_setting	triclinic
loop_
_symmetry_equiv_pos_as_xyz
  x,y,z
_cell_length_a	11.792254
_cell_length_b	10.868271
_cell_length_c	11.792253
_cell_angle_alpha	89.993028
_cell_angle_beta	95.801402
_cell_angle_gamma	90.004308
loop_
_atom_site_label
_atom_site_type_symbol
_atom_site_fract_x
_atom_site_fract_y
_atom_site_fract_z
O1	O	1.506908	0.102338	-0.155630
O2	O	1.840241	0.435671	0.177703
O3	O	2.173574	0.769004	0.511037
O4	O	1.176569	0.102342	-0.171648
O5	O	1.509902	0.435675	0.161686
O6	O	1.843236	0.769009	0.495019
O7	O	1.349747	0.102314	0.001530
O8	O	1.683081	0.435648	0.334864
O9	O	2.016414	0.768981	0.668197
O10	O	1.333729	0.102366	-0.328808
O11	O	1.667063	0.435699	0.004525
O12	O	2.000396	0.769032	0.337859
O13	O	1.349732	-0.102330	0.001525
O14	O	1.683065	0.231003	0.334858
O15	O	2.016398	0.564336	0.668192
O16	O	1.176553	-0.102303	-0.171653
O17	O	1.509887	0.231031	0.161680
O18	O	1.843220	0.564364	0.495013
O19	O	1.506892	-0.102307	-0.155635
O20	O	1.840225	0.231026	0.177698
O21	O	2.173559	0.564360	0.511031
Zn22	Zn	1.341720	-0.134797	-0.163645
Zn23	Zn	1.675053	0.198537	0.169688
Zn24	Zn	2.008387	0.531870	0.503021
Zn25	Zn	1.341741	0.134832	-0.163638
Zn26	Zn	1.675074	0.468165	0.169695
Zn27	Zn	2.008408	0.801498	0.503029
O28	O	1.333714	-0.102279	-0.328814
O29	O	1.667047	0.231054	0.004520
O30	O	2.000380	0.564388	0.337853
C31	C	1.134271	0.000020	-0.170642
C32	C	1.467604	0.333353	0.162692
C33	C	1.800937	0.666687	0.496025
C34	C	1.008257	0.000020	-0.167621
C35	C	1.341591	0.333354	0.165712
C36	C	1.674924	0.666687	0.499045
N37	N	1.341714	-0.318811	-0.163650
N38	N	1.675048	0.014523	0.169684
N39	N	2.008381	0.347856	0.503017
C40	C	0.905921	0.000025	-0.165168
C41	C	1.239254	0.333359	0.168166
C42	C	1.572587	0.666692	0.501499
C43	C	0.777534	0.000026	-0.162099
C44	C	1.110867	0.333359	0.171234
C45	C	1.444201	0.666692	0.504568
C46	C	1.341723	-0.430148	-0.163650
C47	C	1.675056	-0.096815	0.169683
C48	C	2.008390	0.236518	0.503017
C49	C	1.341738	-0.569826	-0.163640
C50	C	1.675071	-0.236492	0.169694
C51	C	2.008405	0.096841	0.503027
C52	C	1.549190	0.000018	-0.156642
C53	C	1.882524	0.333351	0.176692
C54	C	2.215857	0.666685	0.510025
C55	C	1.675204	0.000025	-0.159662
C56	C	2.008537	0.333359	0.173671
C57	C	2.341870	0.666692	0.507005
C58	C	1.348730	-0.000012	0.043818
C59	C	1.682064	0.333321	0.377152
C60	C	2.015397	0.666655	0.710485
C61	C	1.345710	-0.000024	0.169832
C62	C	1.679044	0.333310	0.503165
C63	C	2.012377	0.666643	0.836498
N64	N	1.341756	0.318846	-0.163625
N65	N	1.675089	0.652179	0.169709
N66	N	2.008422	0.985512	0.503042
C67	C	1.343256	-0.000030	0.272168
C68	C	1.676590	0.333304	0.605502
C69	C	2.009923	0.666637	0.938835
C70	C	1.340188	-0.000031	0.400555
C71	C	1.673521	0.333302	0.733888
C72	C	2.006855	0.666635	1.067222
C73	C	1.334731	0.000024	0.628898
C74	C	1.668064	0.333358	0.962232
C75	C	2.001397	0.666691	1.295565
C76	C	1.337751	-0.000032	0.502885
C77	C	1.671084	0.333301	0.836219
C78	C	2.004417	0.666634	1.169552
