data_functionalizedCrystal
_audit_creation_method	'MofGen! by Chris Wilmer'
_symmetry_space_group_name_H-M	'P1'
_symmetry_Int_Tables_number	1
_symmetry_cell_setting	triclinic
loop_
_symmetry_equiv_pos_as_xyz
  x,y,z
_cell_length_a	12.759401
_cell_length_b	12.759399
_cell_length_c	12.759401
_cell_angle_alpha	90.010206
_cell_angle_beta	90.003086
_cell_angle_gamma	90.015473
loop_
_atom_site_label
_atom_site_type_symbol
_atom_site_fract_x
_atom_site_fract_y
_atom_site_fract_z
Zn1	Zn	1.606080	-0.418425	0.594008
Zn2	Zn	1.606022	-0.594079	0.418329
Zn3	Zn	1.430432	-0.418415	0.418345
Zn4	Zn	1.430368	-0.594062	0.593968
O5	O	1.518225	-0.506245	0.506163
O6	O	1.753093	-0.441737	0.570715
O7	O	1.582732	-0.570780	0.271311
O8	O	1.453783	-0.271395	0.441671
O9	O	1.753050	-0.570790	0.441644
O10	O	1.582831	-0.271403	0.570730
O11	O	1.453727	-0.441720	0.271322
O12	O	1.283402	-0.441703	0.441632
O13	O	1.453674	-0.570761	0.740994
O14	O	1.283355	-0.570751	0.570661
O15	O	1.582769	-0.441721	0.741024
O16	O	1.582670	-0.741098	0.441605
O17	O	1.453618	-0.741086	0.570646
C18	C	1.245258	-0.506225	0.506144
C19	C	1.128481	-0.506241	0.506161
C20	C	0.963888	-0.438978	0.439107
C21	C	1.073612	-0.438958	0.439095
C22	C	1.073621	-0.573542	0.573252
C23	C	0.963899	-0.573556	0.573269
C24	C	0.963884	-0.361280	0.361649
C25	C	1.073608	-0.361260	0.361637
C26	C	1.518159	-0.779213	0.506142
C27	C	1.518227	-0.895989	0.506168
C28	C	1.451081	-1.060608	0.573338
C29	C	1.451016	-0.950884	0.573312
C30	C	1.585514	-0.950825	0.439053
C31	C	1.585584	-1.060547	0.439084
C32	C	1.373426	-1.060641	0.650848
C33	C	1.373361	-0.950917	0.650823
C34	C	1.792259	-0.506267	0.506182
C35	C	1.909035	-0.506276	0.506190
C36	C	1.518221	-0.506240	0.780196
C37	C	1.518219	-0.506238	0.896973
C38	C	1.518321	-0.232212	0.506206
C39	C	1.518361	-0.115435	0.506225
C40	C	1.585432	-0.439061	0.951852
C41	C	1.585426	-0.439063	1.061576
C42	C	1.450990	-0.573429	1.061532
C43	C	1.450992	-0.573421	0.951810
C44	C	1.663051	-0.361489	0.951878
C45	C	1.663045	-0.361491	1.061602
C46	C	1.518219	-0.506267	1.233195
C47	C	1.518211	-0.506249	1.116419
H48	H	0.929831	-0.390314	0.284312
C49	C	1.378050	-0.646235	0.892036
C50	C	1.392417	-0.631832	0.784209
C51	C	1.325227	-0.698882	0.729113
H52	H	1.393324	-0.716873	0.909874
H53	H	1.307444	-0.630834	0.909958
H54	H	1.463007	-0.647240	0.766295
H55	H	1.377135	-0.561208	0.766340
H56	H	1.254621	-0.683481	0.747034
H57	H	1.340507	-0.769516	0.746959
H58	H	1.334959	-0.689112	0.655947
H59	H	1.296180	-1.094757	0.621640
C60	C	1.658869	-1.119873	0.366291
C61	C	1.762743	-1.092975	0.389311
C62	C	1.830311	-1.147564	0.322266
H63	H	1.649490	-1.193110	0.375817
H64	H	1.643630	-1.101894	0.295664
H65	H	1.777977	-1.110961	0.459921
H66	H	1.772155	-1.019747	0.379778
H67	H	1.815072	-1.129585	0.251639
H68	H	1.820923	-1.220798	0.331798
H69	H	1.900797	-1.129315	0.337870
C70	C	1.264836	-0.911245	0.621864
C71	C	1.225124	-0.850353	0.704062
C72	C	1.125154	-0.813799	0.677429
H73	H	1.269163	-0.869836	0.560155
H74	H	1.219623	-0.969171	0.609766
H75	H	1.270325	-0.792435	0.716147
H76	H	1.220771	-0.891739	0.765779
H77	H	1.079942	-0.871725	0.665331
H78	H	1.129492	-0.772395	0.615719
H79	H	1.098193	-0.772488	0.733199
H80	H	1.740332	-0.390645	0.917843
H81	H	0.919242	-0.628348	0.627903
H82	H	1.633923	-0.284194	1.095649
H83	H	1.744407	-0.383295	1.091382
H84	H	1.640246	-0.906122	0.384389
H85	H	1.402418	-0.916826	0.728138
H86	H	1.107654	-0.284002	0.390910
H87	H	1.118304	-0.628318	0.627866
H88	H	1.103368	-0.382928	0.280226
C89	C	1.402493	-1.100073	0.759433
C90	C	1.420203	-1.014499	0.825824
C91	C	1.446996	-1.050783	0.925852
H92	H	1.346863	-1.141447	0.786568
H93	H	1.464304	-1.141348	0.755116
H94	H	1.358399	-0.973241	0.830145
H95	H	1.475838	-0.973116	0.798723
H96	H	1.508807	-1.092058	0.921535
H97	H	1.391362	-1.092158	0.952977
H98	H	1.459025	-0.992728	0.970908
C99	C	1.378125	-0.646334	1.121262
C100	C	1.392524	-0.631982	1.229098
C101	C	1.325430	-0.699137	1.284151
H102	H	1.307498	-0.631019	1.103404
H103	H	1.393488	-0.716948	1.103325
H104	H	1.377154	-0.561385	1.247028
H105	H	1.463138	-0.647305	1.246988
H106	H	1.340793	-0.769751	1.266214
H107	H	1.254806	-0.683816	1.266285
H108	H	1.335197	-0.689415	1.357324
C109	C	1.634099	-0.253048	0.911983
C110	C	1.634206	-0.253318	0.802251
C111	C	1.607553	-0.153443	0.765463
H112	H	1.566295	-0.234768	0.936682
H113	H	1.683768	-0.203394	0.936753
H114	H	1.584539	-0.302956	0.777491
H115	H	1.702000	-0.271580	0.777524
H116	H	1.657222	-0.103788	0.790233
H117	H	1.539750	-0.135170	0.790169
H118	H	1.607631	-0.153610	0.691007
H119	H	0.934124	-0.279946	0.383581
