data_functionalizedCrystal
_audit_creation_method	'MofGen! by Chris Wilmer'
_symmetry_space_group_name_H-M	'P1'
_symmetry_Int_Tables_number	1
_symmetry_cell_setting	triclinic
loop_
_symmetry_equiv_pos_as_xyz
  x,y,z
_cell_length_a	9.065218
_cell_length_b	10.268362
_cell_length_c	11.792241
_cell_angle_alpha	90.005428
_cell_angle_beta	84.604650
_cell_angle_gamma	90.004643
loop_
_atom_site_label
_atom_site_type_symbol
_atom_site_fract_x
_atom_site_fract_y
_atom_site_fract_z
O1	O	1.958842	0.108304	0.166432
O2	O	1.529429	0.108306	0.180084
O3	O	1.754556	0.108296	0.008145
O4	O	1.733715	0.108314	0.338371
O5	O	1.754536	-0.108305	0.008138
O6	O	1.529409	-0.108294	0.180076
O7	O	1.958822	-0.108296	0.166425
Cu8	Cu	1.744114	-0.128073	0.173250
Cu9	Cu	1.744137	0.128083	0.173259
O10	O	1.733695	-0.108286	0.338364
C11	C	1.474445	0.000006	0.178768
C12	C	1.310639	0.000007	0.174845
N13	N	1.744108	-0.308239	0.173243
C14	C	1.744130	-0.573909	0.173256
C15	C	1.744113	-0.426071	0.173252
C16	C	2.013806	0.000007	0.167741
C17	C	2.177612	0.000015	0.171664
C18	C	1.753237	-0.000004	-0.034156
C19	C	1.749319	-0.000002	-0.160192
N20	N	1.744155	0.308249	0.173257
C21	C	1.742113	0.000019	-0.390944
C22	C	1.746117	0.000007	-0.262537
C23	C	1.735014	0.000017	0.380665
C24	C	1.738933	0.000024	0.506701
