data_functionalizedCrystal
_audit_creation_method	'MofGen! by Chris Wilmer'
_symmetry_space_group_name_H-M	'P1'
_symmetry_Int_Tables_number	1
_symmetry_cell_setting	triclinic
loop_
_symmetry_equiv_pos_as_xyz
  x,y,z
_cell_length_a	21.295417
_cell_length_b	11.169417
_cell_length_c	11.169409
_cell_angle_alpha	90.019513
_cell_angle_beta	90.041399
_cell_angle_gamma	90.031756
loop_
_atom_site_label
_atom_site_type_symbol
_atom_site_fract_x
_atom_site_fract_y
_atom_site_fract_z
Zn1	Zn	-0.250537	1.834794	0.678457
Zn2	Zn	0.249463	2.334794	1.178457
Zn3	Zn	-0.355825	1.834613	0.477742
Zn4	Zn	0.144175	2.334613	0.977742
Zn5	Zn	-0.250576	1.634080	0.477793
Zn6	Zn	0.249424	2.134080	0.977793
Zn7	Zn	-0.355775	1.634017	0.678388
Zn8	Zn	0.144225	2.134017	1.178388
O9	O	-0.303178	1.734376	0.578095
O10	O	0.196822	2.234376	1.078095
O11	O	-0.264509	2.002720	0.651840
O12	O	0.235491	2.502720	1.151840
O13	O	-0.341901	1.807962	0.309799
O14	O	0.158099	2.307962	0.809799
O15	O	-0.162482	1.660807	0.504461
O16	O	0.337518	2.160807	1.004461
O17	O	-0.341864	2.002587	0.504375
O18	O	0.158136	2.502587	1.004375
O19	O	-0.162453	1.808271	0.651888
O20	O	0.337547	2.308271	1.151888
O21	O	-0.264575	1.660632	0.309836
O22	O	0.235425	2.160632	0.809836
O23	O	-0.264526	1.466122	0.504394
O24	O	0.235474	1.966122	1.004394
O25	O	-0.341777	1.660700	0.846347
O26	O	0.158223	2.160700	1.346347
O27	O	-0.341815	1.466076	0.651771
O28	O	0.158185	1.966076	1.151771
O29	O	-0.264460	1.808210	0.846398
O30	O	0.235540	2.308210	1.346398
O31	O	-0.443908	1.807901	0.504309
O32	O	0.056092	2.307901	1.004309
O33	O	-0.443871	1.660524	0.651722
O34	O	0.056129	2.160524	1.151722
C35	C	-0.303170	1.422551	0.578081
C36	C	0.196830	1.922551	1.078081
C37	C	-0.303182	1.289151	0.578104
C38	C	0.196818	1.789151	1.078104
C39	C	-0.466730	1.734219	0.578029
C40	C	0.033270	2.234219	1.078029
C41	C	-0.536698	1.734261	0.578040
C42	C	-0.036698	2.234261	1.078040
C43	C	-0.569563	1.811069	0.501361
C44	C	-0.069563	2.311069	1.001361
C45	C	-0.635306	1.811125	0.501388
C46	C	-0.135306	2.311125	1.001388
C47	C	-0.668181	1.734352	0.578082
C48	C	-0.168181	2.234352	1.078082
C49	C	-0.635308	1.657539	0.654776
C50	C	-0.135308	2.157539	1.154776
C51	C	-0.569566	1.657494	0.654756
C52	C	-0.069566	2.157494	1.154756
N53	N	-0.771447	1.629362	0.587227
N54	N	-0.271447	2.129362	1.087227
N55	N	-0.833898	1.629409	0.587239
N56	N	-0.333898	2.129409	1.087239
C57	C	-0.866255	1.734487	0.578151
C58	C	-0.366255	2.234487	1.078151
N59	N	-0.833802	1.839518	0.569025
N60	N	-0.333802	2.339518	1.069025
N61	N	-0.771345	1.839470	0.569006
N62	N	-0.271345	2.339470	1.069006
C63	C	-0.739466	1.734394	0.578113
C64	C	-0.239466	2.234394	1.078113
C65	C	-0.970406	1.811362	0.501496
C66	C	-0.470406	2.311362	1.001496
C67	C	-1.036150	1.811420	0.501531
C68	C	-0.536150	2.311420	1.001531
C69	C	-1.036150	1.657824	0.654914
C70	C	-0.536150	2.157824	1.154914
C71	C	-0.970408	1.657776	0.654885
C72	C	-0.470408	2.157776	1.154885
C73	C	-0.937540	1.734543	0.578169
C74	C	-0.437540	2.234543	1.078169
C75	C	-0.138988	1.734567	0.578188
C76	C	0.361012	2.234567	1.078188
C77	C	-0.069020	1.734648	0.578228
C78	C	0.430980	2.234648	1.078228
C79	C	-0.303109	1.734468	0.891138
C80	C	0.196891	2.234468	1.391138
C81	C	-0.303079	1.734507	1.024538
C82	C	0.196921	2.234507	1.524538
C83	C	-0.303187	2.047418	0.578110
C84	C	0.196813	2.547418	1.078110
C85	C	-0.303191	2.180818	0.578116
C86	C	0.196809	2.680818	1.078116
C87	C	-0.303203	1.734353	0.266270
C88	C	0.196797	2.234353	0.766270
C89	C	-0.303055	1.734547	0.132871
C90	C	0.196945	2.234547	0.632871
H91	H	-0.542804	1.873580	0.438898
H92	H	-0.042804	2.373580	0.938898
C93	C	-0.533414	1.573011	0.739128
C94	C	-0.033414	2.073011	1.239128
N95	N	-0.506183	1.509382	0.802684
N96	N	-0.006183	2.009382	1.302684
H97	H	-0.943644	1.873874	0.439033
H98	H	-0.443644	2.373874	0.939033
C99	C	-0.671465	1.895616	0.417024
C100	C	-0.171465	2.395616	0.917024
N101	N	-0.698698	1.959252	0.353479
N102	N	-0.198698	2.459252	0.853479
C103	C	-0.671471	1.573085	0.739136
C104	C	-0.171471	2.073085	1.239136
N105	N	-0.698710	1.509473	0.802679
N106	N	-0.198710	2.009473	1.302679
C107	C	-1.072309	1.573375	0.739281
C108	C	-0.572309	2.073375	1.239281
N109	N	-1.099547	1.509767	0.802830
N110	N	-0.599547	2.009767	1.302830
C111	C	-1.072301	1.895918	0.417172
C112	C	-0.572301	2.395918	0.917172
N113	N	-1.099531	1.959561	0.353628
N114	N	-0.599531	2.459561	0.853628
C115	C	-0.934255	1.573305	0.739264
C116	C	-0.434255	2.073305	1.239264
N117	N	-0.907025	1.509691	0.802836
N118	N	-0.407025	2.009691	1.302836
