data_functionalizedCrystal
_audit_creation_method	'MofGen! by Chris Wilmer'
_symmetry_space_group_name_H-M	'P1'
_symmetry_Int_Tables_number	1
_symmetry_cell_setting	triclinic
loop_
_symmetry_equiv_pos_as_xyz
  x,y,z
_cell_length_a	14.853566
_cell_length_b	23.532357
_cell_length_c	13.330367
_cell_angle_alpha	89.989812
_cell_angle_beta	89.995295
_cell_angle_gamma	83.231353
loop_
_atom_site_label
_atom_site_type_symbol
_atom_site_fract_x
_atom_site_fract_y
_atom_site_fract_z
O1	O	1.195535	0.074351	-0.083370
O2	O	1.695535	0.574351	0.416630
O3	O	0.932976	0.083209	-0.083388
O4	O	1.432976	0.583209	0.416612
O5	O	1.072197	-0.004119	-0.083358
O6	O	1.572197	0.495881	0.416642
O7	O	1.056315	0.161679	-0.083400
O8	O	1.556315	0.661679	0.416600
O9	O	1.072177	-0.004121	0.083489
O10	O	1.572177	0.495879	0.583489
O11	O	0.932956	0.083207	0.083459
O12	O	1.432956	0.583207	0.583459
O13	O	1.195515	0.074349	0.083477
O14	O	1.695515	0.574349	0.583477
Cu15	Cu	1.064234	0.078778	0.098703
Cu16	Cu	1.564234	0.578778	0.598703
Cu17	Cu	1.064258	0.078780	-0.098613
Cu18	Cu	1.564258	0.578780	0.401387
O19	O	1.056295	0.161677	0.083447
O20	O	1.556295	0.661677	0.583447
C21	C	0.899382	0.082807	0.000034
C22	C	1.399382	0.582807	0.500034
C23	C	0.799312	0.081605	0.000028
C24	C	1.299312	0.581605	0.500028
C25	C	0.376195	0.076520	-0.090902
C26	C	0.876195	0.576520	0.409098
C27	C	0.376194	0.076518	0.091001
C28	C	0.876194	0.576518	0.591001
C29	C	0.470216	0.077647	0.090998
C30	C	0.970216	0.577647	0.590998
C31	C	0.517231	0.078214	0.000043
C32	C	1.017231	0.578214	0.500043
C33	C	0.470225	0.077651	-0.090908
C34	C	0.970225	0.577651	0.409092
C35	C	0.517228	0.078216	0.181948
C36	C	1.017228	0.578216	0.681948
C37	C	0.611255	0.079346	0.181948
C38	C	1.111255	0.579346	0.681948
C39	C	0.658272	0.079908	0.090992
C40	C	1.158272	0.579908	0.590992
C41	C	0.611261	0.079345	0.000037
C42	C	1.111261	0.579345	0.500037
C43	C	0.658276	0.079911	-0.090918
C44	C	1.158276	0.579911	0.409082
C45	C	0.611266	0.079343	-0.181874
C46	C	1.111266	0.579343	0.318126
C47	C	0.517242	0.078213	-0.181864
C48	C	1.017242	0.578213	0.318136
C49	C	0.752297	0.081038	0.090982
C50	C	1.252297	0.581038	0.590982
C51	C	0.752305	0.081042	-0.090924
C52	C	1.252305	0.581042	0.409076
C53	C	1.071789	-0.025338	0.000069
C54	C	1.571789	0.474662	0.500069
C55	C	1.070595	-0.088562	0.000078
C56	C	1.570595	0.411438	0.500078
C57	C	1.063108	-0.480605	-0.090925
C58	C	1.563108	0.019395	0.409075
C59	C	1.061972	-0.540009	-0.090931
C60	C	1.561972	-0.040009	0.409069
O61	O	1.061364	-0.570727	-0.168279
O62	O	1.561364	-0.070727	0.331721
N63	N	1.061398	-0.569724	0.000017
N64	N	1.561398	-0.069724	0.500017
C65	C	1.061951	-0.540031	0.090975
C66	C	1.561951	-0.040031	0.590975
O67	O	1.061357	-0.570760	0.168332
O68	O	1.561357	-0.070760	0.668332
C69	C	1.063080	-0.480627	0.090980
C70	C	1.563080	0.019373	0.590980
C71	C	1.063663	-0.450916	0.000027
C72	C	1.563663	0.049084	0.500027
C73	C	1.063690	-0.450894	-0.181870
C74	C	1.563690	0.049106	0.318130
C75	C	1.064827	-0.391494	-0.181864
C76	C	1.564827	0.108506	0.318136
C77	C	1.065382	-0.361805	-0.090912
C78	C	1.565382	0.138195	0.409088
C79	C	1.064800	-0.391516	0.000033
C80	C	1.564800	0.108484	0.500033
C81	C	1.063625	-0.450934	0.181938
C82	C	1.563625	0.049066	0.681938
C83	C	1.064754	-0.391526	0.181935
C84	C	1.564754	0.108474	0.681935
C85	C	1.065337	-0.361815	0.090982
C86	C	1.565337	0.138185	0.590982
C87	C	1.066492	-0.302426	0.090991
C88	C	1.566492	0.197574	0.590991
N89	N	1.067066	-0.272712	0.000044
N90	N	1.567066	0.227288	0.500044
C91	C	1.066511	-0.302401	-0.090908
C92	C	1.566511	0.197599	0.409092
C93	C	1.059578	-0.664782	0.090958
C94	C	1.559578	-0.164782	0.590958
C95	C	1.058456	-0.724186	0.090955
C96	C	1.558456	-0.224186	0.590955
C97	C	1.058476	-0.724160	-0.090952
C98	C	1.558476	-0.224160	0.409048
C99	C	1.059605	-0.664756	-0.090947
C100	C	1.559605	-0.164756	0.409053
C101	C	1.060152	-0.635068	0.000011
C102	C	1.560152	-0.135068	0.500011
C103	C	1.068899	-0.177656	-0.090888
C104	C	1.568899	0.322344	0.409112
C105	C	1.070040	-0.118251	-0.090874
C106	C	1.570040	0.381749	0.409126
C107	C	1.070015	-0.118281	0.091032
C108	C	1.570015	0.381719	0.591032
C109	C	1.068879	-0.177682	0.091018
C110	C	1.568879	0.322318	0.591018
C111	C	1.068318	-0.207367	0.000050
C112	C	1.568318	0.292633	0.500050
O113	O	1.067097	-0.271670	0.168300
O114	O	1.567097	0.228330	0.668300
O115	O	1.067092	-0.271663	-0.168252
O116	O	1.567092	0.228337	0.331748
C117	C	1.229109	0.074751	0.000053
C118	C	1.729109	0.574751	0.500053
C119	C	1.329180	0.075954	0.000053
C120	C	1.829180	0.575954	0.500053
C121	C	1.056702	0.182897	0.000018
C122	C	1.556702	0.682897	0.500018
C123	C	1.057896	0.246120	0.000002
C124	C	1.557896	0.746120	0.500002
N125	N	1.064224	0.078776	0.237484
N126	N	1.564224	0.578776	0.737484
N127	N	1.064275	0.078778	-0.237395
N128	N	1.564275	0.578778	0.262605
C129	C	1.002608	0.117434	0.710094
C130	C	1.502608	0.617434	1.210094
C131	C	1.125931	0.040122	0.710088
C132	C	1.625931	0.540122	1.210088
C133	C	1.125921	0.040120	0.605070
C134	C	1.625921	0.540120	1.105070
C135	C	1.064254	0.078777	0.552559
C136	C	1.564254	0.578777	1.052559
C137	C	1.002598	0.117435	0.605066
C138	C	1.502598	0.617435	1.105066
C139	C	1.187582	0.001467	0.552555
C140	C	1.687582	0.501467	1.052555
C141	C	1.187575	0.001464	0.447531
C142	C	1.687575	0.501464	0.947531
C143	C	1.125904	0.040118	0.395017
C144	C	1.625904	0.540118	0.895017
C145	C	1.064244	0.078777	0.447531
C146	C	1.564244	0.578777	0.947531
C147	C	1.002577	0.117433	0.395019
C148	C	1.502577	0.617433	0.895019
C149	C	0.940913	0.156090	0.447531
C150	C	1.440913	0.656090	0.947531
C151	C	0.940926	0.156089	0.552552
C152	C	1.440926	0.656089	1.052552
C153	C	1.125890	0.040120	0.289996
C154	C	1.625890	0.540120	0.789996
C155	C	1.002567	0.117434	0.289991
C156	C	1.502567	0.617434	0.789991
H157	H	0.337916	0.076056	-0.164956
H158	H	0.837916	0.576056	0.335044
H159	H	1.063235	-0.475060	-0.255938
H160	H	1.563235	0.024940	0.244062
Cl161	Cl	1.203458	-0.008469	0.776100
Cl162	Cl	1.703458	0.491531	1.276100
Cl163	Cl	0.925034	0.166030	0.223985
Cl164	Cl	1.425034	0.666030	0.723985
H165	H	1.065298	-0.367308	-0.255928
H166	H	1.565298	0.132692	0.244072
Cl167	Cl	0.863398	0.204689	0.381505
Cl168	Cl	1.363398	0.704689	0.881505
H169	H	0.478959	0.077750	-0.255915
H170	H	0.978959	0.577750	0.244085
Cl171	Cl	0.863414	0.204684	0.618569
Cl172	Cl	1.363414	0.704684	1.118569
H173	H	1.063152	-0.475114	0.256002
H174	H	1.563152	0.024886	0.756002
H175	H	1.070517	-0.094063	-0.164942
H176	H	1.570517	0.405937	0.335058
H177	H	1.237785	-0.030013	0.404782
H178	H	1.737785	0.469987	0.904782
H179	H	1.060027	-0.640614	0.165032
H180	H	1.560027	-0.140614	0.665032
H181	H	0.478940	0.077759	0.255998
H182	H	0.978940	0.577759	0.755998
H183	H	1.060078	-0.640570	-0.165009
H184	H	1.560078	-0.140570	0.334991
Cl185	Cl	0.925087	0.166027	0.776102
Cl186	Cl	1.425087	0.666027	1.276102
H187	H	1.057995	-0.748372	0.165018
H188	H	1.557995	-0.248372	0.665018
Cl189	Cl	0.317087	0.075813	0.205338
Cl190	Cl	0.817087	0.575813	0.705338
H191	H	0.790579	0.081501	-0.164991
H192	H	1.290579	0.581501	0.335009
Cl193	Cl	0.670344	0.080057	0.296290
Cl194	Cl	1.170344	0.580057	0.796290
Cl195	Cl	1.065443	-0.354207	0.296290
Cl196	Cl	1.565443	0.145793	0.796290
H197	H	1.070471	-0.094098	0.165083
H198	H	1.570471	0.405902	0.665083
Cl199	Cl	0.670381	0.080059	-0.296212
Cl200	Cl	1.170381	0.580059	0.203788
Cl201	Cl	1.068196	-0.214966	-0.205249
Cl202	Cl	1.568196	0.285034	0.294751
Cl203	Cl	0.811389	0.081756	0.205317
Cl204	Cl	1.311389	0.581756	0.705317
Cl205	Cl	1.057771	-0.761494	-0.205292
Cl206	Cl	1.557771	-0.261494	0.294708
Cl207	Cl	1.068163	-0.215035	0.205361
Cl208	Cl	1.568163	0.284965	0.705361
H209	H	1.237794	-0.030003	0.595313
H210	H	1.737794	0.469997	1.095313
Cl211	Cl	1.203411	-0.008470	0.223988
Cl212	Cl	1.703411	0.491530	0.723988
