data_functionalizedCrystal
_audit_creation_method	'MofGen! by Chris Wilmer'
_symmetry_space_group_name_H-M	'P1'
_symmetry_Int_Tables_number	1
_symmetry_cell_setting	triclinic
loop_
_symmetry_equiv_pos_as_xyz
  x,y,z
_cell_length_a	12.811445
_cell_length_b	10.654541
_cell_length_c	11.295657
_cell_angle_alpha	94.556551
_cell_angle_beta	89.153169
_cell_angle_gamma	84.263786
loop_
_atom_site_label
_atom_site_type_symbol
_atom_site_fract_x
_atom_site_fract_y
_atom_site_fract_z
O1	O	1.377990	0.150216	-0.247816
O2	O	1.074643	0.171109	-0.215063
O3	O	1.233292	-0.022170	-0.232185
O4	O	1.219340	0.343495	-0.230693
O5	O	1.245910	-0.007113	-0.035504
O6	O	1.087260	0.186167	-0.018381
O7	O	1.390607	0.165274	-0.051134
Cu8	Cu	1.240085	0.177095	-0.016799
Cu9	Cu	1.225164	0.159288	-0.249398
O10	O	1.231957	0.358553	-0.034012
C11	C	1.042109	0.177927	-0.112528
C12	C	0.926371	0.175795	-0.100032
C13	C	0.695126	0.155394	-0.290994
C14	C	0.586380	0.153390	-0.279257
C15	C	0.600129	0.169793	-0.064823
C16	C	0.708876	0.171796	-0.076560
C17	C	0.756370	0.164594	-0.189649
C18	C	0.865119	0.166589	-0.201384
C19	C	0.878866	0.183001	0.013049
C20	C	0.770119	0.180997	0.024785
C21	C	1.238577	-0.061426	-0.133735
C22	C	1.235514	-0.200828	-0.133406
C23	C	1.425223	-0.231354	-0.153874
C24	C	1.518634	-0.312106	-0.163950
C25	C	1.515749	-0.443086	-0.163642
C26	C	1.419443	-0.493315	-0.153261
C27	C	1.326031	-0.412562	-0.143185
C28	C	1.328927	-0.281581	-0.143490
C29	C	1.136324	-0.382038	-0.122726
C30	C	1.139207	-0.251057	-0.123025
C31	C	1.040017	-0.432267	-0.112345
C32	C	0.946604	-0.351514	-0.102260
C33	C	0.949493	-0.220527	-0.102567
C34	C	1.045796	-0.170305	-0.112949
C35	C	1.423140	0.158455	-0.153671
C36	C	1.538878	0.160587	-0.166176
C37	C	1.226672	0.397808	-0.132465
C38	C	1.229735	0.537210	-0.132801
N39	N	1.250588	0.189619	0.146798
N40	N	1.214670	0.146754	-0.412996
C41	C	1.138959	0.056531	0.408198
C42	C	1.146919	0.066003	0.531998
C43	C	1.274462	0.218041	0.518201
C44	C	1.266502	0.208569	0.394401
C45	C	1.198749	0.127810	0.339404
C46	C	1.190795	0.118332	0.215601
C47	C	1.318332	0.270376	0.201807
C48	C	1.326292	0.279848	0.325607
H49	H	0.733798	0.149523	-0.383075
Cl50	Cl	1.428859	-0.066692	-0.154235
Cl51	Cl	1.639699	-0.248955	-0.177007
H52	H	1.381452	0.345602	0.370403
Cl53	Cl	0.509390	0.141827	-0.406668
H54	H	1.135629	0.052572	0.170824
H55	H	0.903788	0.160724	-0.293467
H56	H	1.048157	-0.063656	-0.113193
Cl57	Cl	0.540401	0.178868	0.077334
Cl58	Cl	1.633181	-0.544607	-0.176319
H59	H	1.367019	0.328415	0.145781
H60	H	0.731434	0.186865	0.116859
Cl61	Cl	0.955867	0.194548	0.140462
H62	H	1.417101	-0.599967	-0.153026
Cl63	Cl	1.053811	-0.045020	0.339052
Cl64	Cl	1.036385	-0.596934	-0.112033
Cl65	Cl	0.825545	-0.414667	-0.089225
H66	H	0.873425	-0.154785	-0.094367
Cl67	Cl	1.359608	0.319584	0.587364
H68	H	1.098230	0.007962	0.588007
