data_functionalizedCrystal
_audit_creation_method	'MofGen! by Chris Wilmer'
_symmetry_space_group_name_H-M	'P1'
_symmetry_Int_Tables_number	1
_symmetry_cell_setting	triclinic
loop_
_symmetry_equiv_pos_as_xyz
  x,y,z
_cell_length_a	16.109302
_cell_length_b	16.109301
_cell_length_c	14.586319
_cell_angle_alpha	89.994786
_cell_angle_beta	89.994552
_cell_angle_gamma	83.461631
loop_
_atom_site_label
_atom_site_type_symbol
_atom_site_fract_x
_atom_site_fract_y
_atom_site_fract_z
O1	O	1.103130	0.106869	-0.076284
O2	O	0.861069	0.120168	-0.076278
O3	O	0.988749	-0.007513	-0.076272
O4	O	0.975450	0.234549	-0.076290
O5	O	0.988740	-0.007515	0.076209
O6	O	0.861060	0.120166	0.076203
O7	O	1.103122	0.106867	0.076196
Cu8	Cu	0.982090	0.113516	0.090122
Cu9	Cu	0.982100	0.113519	-0.090204
O10	O	0.975441	0.234547	0.076191
C11	C	0.830089	0.119628	-0.000036
C12	C	0.737794	0.118013	-0.000033
C13	C	0.988206	-0.038488	-0.000031
C14	C	0.986591	-0.130784	-0.000030
C15	C	0.525448	0.114276	0.083075
C16	C	0.438728	0.112750	0.083072
C17	C	0.438748	0.112756	-0.083171
C18	C	0.525468	0.114277	-0.083167
C19	C	0.568815	0.115041	-0.000041
C20	C	0.395375	0.111994	-0.000048
C21	C	0.301350	0.110338	-0.000052
C22	C	0.662847	0.116695	-0.000037
C23	C	1.058599	-0.353056	-0.000046
C24	C	1.057074	-0.439776	-0.000054
C25	C	0.905586	-0.419902	-0.000046
C26	C	0.907111	-0.333184	-0.000045
C27	C	0.983620	-0.299763	-0.000040
C28	C	0.980571	-0.473202	-0.000049
C29	C	0.978918	-0.567228	-0.000057
C30	C	0.985273	-0.205731	-0.000034
C31	C	1.134101	0.107407	-0.000047
C32	C	1.226396	0.109022	-0.000056
C33	C	0.975984	0.265523	-0.000052
C34	C	0.977599	0.357819	-0.000060
N35	N	0.982088	0.113514	0.216954
N36	N	0.982108	0.113514	-0.217035
C37	C	1.038644	0.056996	0.451963
C38	C	1.038647	0.056994	0.547944
C39	C	0.925546	0.170035	0.547949
C40	C	0.925541	0.170032	0.451969
C41	C	0.982094	0.113514	0.403979
C42	C	0.982102	0.113514	0.595940
C43	C	0.982105	0.113513	0.700007
C44	C	0.982091	0.113514	0.299905
H45	H	0.403423	0.112127	0.150754
C46	C	0.824628	-0.274555	-0.000036
C47	C	0.761931	-0.278272	-0.079210
C48	C	0.679452	-0.219644	-0.079205
C49	C	0.659670	-0.157298	-0.000026
C50	C	0.722368	-0.153578	0.079154
C51	C	0.804847	-0.212206	0.079149
H52	H	0.776574	-0.324427	-0.137829
H53	H	0.633039	-0.222398	-0.137820
H54	H	0.598615	-0.113898	-0.000022
H55	H	0.707726	-0.107424	0.137772
H56	H	0.851260	-0.209452	0.137764
H57	H	1.118130	-0.483165	-0.000060
C58	C	1.142756	-0.316292	-0.000052
C59	C	1.144440	-0.220906	-0.000049
C60	C	1.228600	-0.184145	-0.000058
C61	C	1.311075	-0.242770	-0.000071
C62	C	1.309394	-0.338162	-0.000074
C63	C	1.225234	-0.374923	-0.000065
H64	H	1.083384	-0.177503	-0.000040
H65	H	1.229844	-0.113529	-0.000056
H66	H	1.373375	-0.215558	-0.000078
H67	H	1.370449	-0.381565	-0.000084
H68	H	1.223990	-0.445539	-0.000067
C69	C	1.100845	-0.005178	0.399173
C70	C	1.099473	-0.099855	0.412384
C71	C	1.161674	-0.162034	0.359598
C72	C	1.225246	-0.129536	0.293600
C73	C	1.226620	-0.034855	0.280387
C74	C	1.164420	0.027324	0.333173
H75	H	1.052411	-0.123916	0.461242
H76	H	1.160657	-0.232123	0.369380
H77	H	1.271291	-0.175564	0.254525
H78	H	1.273683	-0.010794	0.231529
H79	H	1.165437	0.097414	0.323391
C80	C	0.821429	-0.456668	-0.000049
C81	C	0.819747	-0.552054	-0.000050
C82	C	0.735588	-0.588817	-0.000054
C83	C	0.653112	-0.530193	-0.000056
C84	C	0.654791	-0.434801	-0.000054
C85	C	0.738950	-0.398038	-0.000051
H86	H	0.880804	-0.595456	-0.000048
H87	H	0.734346	-0.659433	-0.000055
H88	H	0.590813	-0.557407	-0.000058
H89	H	0.593735	-0.391399	-0.000056
H90	H	0.740193	-0.327422	-0.000050
C91	C	0.391063	0.111926	-0.174606
C92	C	0.295674	0.110259	-0.174615
C93	C	0.247990	0.109433	-0.266053
C94	C	0.295695	0.110273	-0.357480
C95	C	0.391089	0.111939	-0.357473
C96	C	0.438773	0.112766	-0.266036
H97	H	0.260355	0.109637	-0.106932
H98	H	0.177373	0.108199	-0.266057
H99	H	0.260397	0.109661	-0.425167
H100	H	0.426408	0.112561	-0.425156
H101	H	0.509390	0.114000	-0.266032
C102	C	1.100855	-0.005173	0.600728
C103	C	1.163066	-0.067332	0.547939
C104	C	1.225276	-0.129503	0.600723
C105	C	1.225274	-0.129516	0.706296
C106	C	1.163061	-0.067355	0.759092
C107	C	1.100851	-0.005184	0.706308
H108	H	1.163069	-0.067324	0.469781
H109	H	1.271330	-0.175518	0.561639
H110	H	1.271325	-0.175539	0.745370
H111	H	1.163057	-0.067363	0.837249
H112	H	1.054796	0.040832	0.745391
H113	H	0.879503	0.216052	0.587032
H114	H	0.879487	0.216056	0.412898
C115	C	0.573179	0.115117	-0.174600
C116	C	0.623343	0.188311	-0.197458
C117	C	0.671056	0.189147	-0.288886
C118	C	0.668605	0.116787	-0.357456
C119	C	0.618439	0.043588	-0.334600
C120	C	0.570725	0.042752	-0.243172
H121	H	0.625160	0.241881	-0.146696
H122	H	0.708193	0.243334	-0.305805
H123	H	0.703925	0.117406	-0.425136
H124	H	0.616622	-0.009982	-0.385361
H125	H	0.533589	-0.011435	-0.226253
H126	H	0.560739	0.114899	0.150762
