data_functionalizedCrystal
_audit_creation_method	'MofGen! by Chris Wilmer'
_symmetry_space_group_name_H-M	'P1'
_symmetry_Int_Tables_number	1
_symmetry_cell_setting	triclinic
loop_
_symmetry_equiv_pos_as_xyz
  x,y,z
_cell_length_a	16.625548
_cell_length_b	13.897448
_cell_length_c	13.897433
_cell_angle_alpha	90.071518
_cell_angle_beta	89.950353
_cell_angle_gamma	89.981240
loop_
_atom_site_label
_atom_site_type_symbol
_atom_site_fract_x
_atom_site_fract_y
_atom_site_fract_z
Zn1	Zn	1.232939	0.383567	-0.545411
Zn2	Zn	1.566272	0.716900	-0.212078
Zn3	Zn	1.899605	1.050234	0.121255
Zn4	Zn	1.232785	0.545004	-0.384112
Zn5	Zn	1.566118	0.878337	-0.050779
Zn6	Zn	1.899451	1.211671	0.282554
Zn7	Zn	1.098032	0.383728	-0.384126
Zn8	Zn	1.431365	0.717061	-0.050793
Zn9	Zn	1.764699	1.050394	0.282540
Zn10	Zn	1.098082	0.544825	-0.545362
Zn11	Zn	1.431415	0.878158	-0.212029
Zn12	Zn	1.764749	1.211491	0.121305
O13	O	1.165459	0.464281	-0.464753
O14	O	1.498793	0.797614	-0.131420
O15	O	1.832126	1.130947	0.201914
O16	O	1.345751	0.404990	-0.524029
O17	O	1.679084	0.738323	-0.190696
O18	O	2.012417	1.071656	0.142637
O19	O	1.214824	0.523752	-0.249132
O20	O	1.548157	0.857086	0.084201
O21	O	1.881491	1.190419	0.417534
O22	O	1.115971	0.248725	-0.405547
O23	O	1.449305	0.582058	-0.072214
O24	O	1.782638	0.915391	0.261119
O25	O	1.345638	0.523597	-0.405524
O26	O	1.678971	0.856930	-0.072191
O27	O	2.012304	1.190263	0.261143
O28	O	1.215087	0.248607	-0.524043
O29	O	1.548420	0.581940	-0.190710
O30	O	1.881753	0.915273	0.142624
O31	O	1.115822	0.405263	-0.249142
O32	O	1.449155	0.738597	0.084191
O33	O	1.782489	1.071930	0.417524
O34	O	0.985206	0.405090	-0.405500
O35	O	1.318540	0.738423	-0.072166
O36	O	1.651873	1.071756	0.261167
O37	O	1.116057	0.523291	-0.680351
O38	O	1.449390	0.856625	-0.347017
O39	O	1.782723	1.189958	-0.013684
O40	O	0.985243	0.523447	-0.523959
O41	O	1.318576	0.856780	-0.190626
O42	O	1.651910	1.190114	0.142708
O43	O	1.215135	0.404816	-0.680387
O44	O	1.548468	0.738149	-0.347053
O45	O	1.881802	1.071483	-0.013720
O46	O	1.214873	0.679962	-0.405476
O47	O	1.548206	1.013295	-0.072143
O48	O	1.881539	1.346628	0.261190
O49	O	1.115907	0.679830	-0.523946
O50	O	1.449241	1.013164	-0.190612
O51	O	1.782574	1.346497	0.142721
C52	C	1.165401	0.714895	-0.464725
C53	C	1.498734	1.048229	-0.131392
C54	C	1.832067	1.381562	0.201942
C55	C	1.165449	0.822109	-0.464745
C56	C	1.498782	1.155442	-0.131412
C57	C	1.832116	1.488776	0.201921
C58	C	0.955969	0.464267	-0.464726
C59	C	1.289302	0.797600	-0.131393
C60	C	1.622635	1.130934	0.201941
C61	C	0.866347	0.464284	-0.464737
C62	C	1.199681	0.797618	-0.131404
C63	C	1.533014	1.130951	0.201929
C64	C	1.165619	0.464016	-0.716347
C65	C	1.498952	0.797349	-0.383013
C66	C	1.832285	1.130683	-0.049680
C67	C	1.165686	0.463903	-0.823561
C68	C	1.499020	0.797236	-0.490227
C69	C	1.832353	1.130570	-0.156894
C70	C	0.538172	0.464291	-0.464779
C71	C	0.871505	0.797624	-0.131445
C72	C	1.204838	1.130957	0.201888
C73	C	0.629480	0.464286	-0.464764
C74	C	0.962814	0.797620	-0.131431
C75	C	1.296147	1.130953	0.201903
C76	C	0.702257	0.464288	-0.464757
C77	C	1.035590	0.797621	-0.131424
C78	C	1.368923	1.130955	0.201909
C79	C	0.793571	0.464283	-0.464744
C80	C	1.126904	0.797616	-0.131411
C81	C	1.460238	1.130949	0.201922
C82	C	1.375768	0.464295	-0.464781
C83	C	1.709102	0.797629	-0.131447
C84	C	2.042435	1.130962	0.201886
C85	C	1.465389	0.464302	-0.464792
C86	C	1.798723	0.797635	-0.131459
C87	C	2.132056	1.130968	0.201874
C88	C	1.165540	0.212688	-0.464802
C89	C	1.498874	0.546021	-0.131469
C90	C	1.832207	0.879354	0.201865
C91	C	1.165575	0.105474	-0.464823
C92	C	1.498908	0.438807	-0.131490
C93	C	1.832242	0.772141	0.201844
C94	C	1.165534	1.018404	-0.464806
C95	C	1.498867	1.351737	-0.131473
C96	C	1.832201	1.685071	0.201861
C97	C	1.165484	0.909172	-0.464775
C98	C	1.498818	1.242505	-0.131442
C99	C	1.832151	1.575838	0.201891
C100	C	1.165347	0.464475	-0.214138
C101	C	1.498681	0.797809	0.119195
C102	C	1.832014	1.131142	0.452528
C103	C	1.165436	0.464316	-0.106925
C104	C	1.498769	0.797650	0.226409
C105	C	1.832102	1.130983	0.559742
C106	C	1.165615	0.464033	0.089370
C107	C	1.498948	0.797366	0.422703
C108	C	1.832282	1.130700	0.756036
C109	C	1.165518	0.464193	-0.019862
C110	C	1.498851	0.797527	0.313471
C111	C	1.832184	1.130860	0.646804
