data_functionalizedCrystal
_audit_creation_method	'MofGen! by Chris Wilmer'
_symmetry_space_group_name_H-M	'P1'
_symmetry_Int_Tables_number	1
_symmetry_cell_setting	triclinic
loop_
_symmetry_equiv_pos_as_xyz
  x,y,z
_cell_length_a	16.109301
_cell_length_b	16.109301
_cell_length_c	14.586319
_cell_angle_alpha	89.994230
_cell_angle_beta	89.998582
_cell_angle_gamma	83.461481
loop_
_atom_site_label
_atom_site_type_symbol
_atom_site_fract_x
_atom_site_fract_y
_atom_site_fract_z
O1	O	-1.103131	-0.106867	0.076185
O2	O	-0.861070	-0.120166	0.076200
O3	O	-0.988750	0.007515	0.076183
O4	O	-0.975451	-0.234547	0.076203
O5	O	-0.988740	0.007518	-0.076298
O6	O	-0.861059	-0.120163	-0.076281
O7	O	-1.103121	-0.106864	-0.076295
Cu8	Cu	-0.982089	-0.113513	-0.090211
Cu9	Cu	-0.982101	-0.113517	0.090115
O10	O	-0.975441	-0.234544	-0.076278
C11	C	-0.830090	-0.119626	-0.000038
C12	C	-0.737794	-0.118011	-0.000033
C13	C	-0.988206	0.038491	-0.000058
C14	C	-0.986591	0.130786	-0.000059
N15	N	-0.982087	-0.113510	-0.217042
C16	C	-1.134101	-0.107404	-0.000055
C17	C	-1.226397	-0.109019	-0.000054
C18	C	-0.515522	-0.190018	-0.000038
C19	C	-0.428801	-0.188494	-0.000044
C20	C	-0.448676	-0.037006	-0.000052
C21	C	-0.535394	-0.038530	-0.000053
C22	C	-0.568815	-0.115039	-0.000041
C23	C	-0.395376	-0.111990	-0.000046
C24	C	-0.301350	-0.110337	-0.000053
C25	C	-0.662847	-0.116693	-0.000036
C26	C	-0.975984	-0.265521	-0.000035
C27	C	-0.977600	-0.357816	-0.000028
C28	C	-1.058599	0.353059	-0.000049
C29	C	-1.057075	0.439779	-0.000041
C30	C	-0.905586	0.419905	-0.000036
C31	C	-0.907111	0.333186	-0.000037
C32	C	-0.983620	0.299766	-0.000048
C33	C	-0.980571	0.473205	-0.000039
C34	C	-0.978918	0.567231	-0.000031
C35	C	-0.985273	0.205734	-0.000055
C36	C	-1.038646	-0.056991	-0.548044
C37	C	-1.038644	-0.056992	-0.452063
C38	C	-0.925549	-0.170038	-0.452058
C39	C	-0.925555	-0.170040	-0.548038
C40	C	-0.982103	-0.113513	-0.596028
C41	C	-0.982094	-0.113510	-0.404067
C42	C	-0.982092	-0.113511	-0.300000
C43	C	-0.982107	-0.113513	-0.700102
N44	N	-0.982110	-0.113513	0.216947
H45	H	-0.542730	-0.252317	-0.000035
Br46	Br	-1.158837	0.512103	-0.000037
Br47	Br	-0.848820	-0.246760	-0.613167
Br48	Br	-1.162431	0.307705	-0.000065
H49	H	-0.385413	-0.249550	-0.000043
H50	H	-0.578788	0.022530	-0.000058
Br51	Br	-0.403314	0.066823	-0.000065
Br52	Br	-0.801758	0.465267	-0.000017
H53	H	-0.846050	0.289792	-0.000033
H54	H	-1.084691	-0.010964	-0.587116
Br55	Br	-1.115387	0.019715	-0.386943
H56	H	-0.879508	-0.216060	-0.412975
