data_functionalizedCrystal
_audit_creation_method	'MofGen! by Chris Wilmer'
_symmetry_space_group_name_H-M	'P1'
_symmetry_Int_Tables_number	1
_symmetry_cell_setting	triclinic
loop_
_symmetry_equiv_pos_as_xyz
  x,y,z
_cell_length_a	10.654545
_cell_length_b	16.974813
_cell_length_c	9.730223
_cell_angle_alpha	86.341041
_cell_angle_beta	89.997167
_cell_angle_gamma	83.938073
loop_
_atom_site_label
_atom_site_type_symbol
_atom_site_fract_x
_atom_site_fract_y
_atom_site_fract_z
O1	O	1.666114	0.111039	-0.126624
O2	O	1.300471	0.121623	-0.127806
O3	O	1.493486	0.001283	-0.114413
O4	O	1.473099	0.231379	-0.140017
O5	O	1.493473	0.001280	0.114168
O6	O	1.300458	0.121620	0.100774
O7	O	1.666102	0.111035	0.101957
Zn8	Zn	1.483278	0.116327	0.137657
Zn9	Zn	1.483294	0.116331	-0.163507
O10	O	1.473087	0.231375	0.088563
C11	C	1.253678	0.120845	-0.013431
C12	C	1.114271	0.118522	-0.013174
C13	C	1.048777	0.117427	0.111547
C14	C	0.917791	0.115231	0.111792
C15	C	0.917806	0.115229	-0.137418
C16	C	1.048790	0.117419	-0.137661
C17	C	1.492704	-0.028181	0.003153
C18	C	1.490378	-0.115971	0.012913
C19	C	1.489295	-0.157208	-0.107099
C20	C	1.487102	-0.239695	-0.097924
C21	C	1.486000	-0.280944	0.031265
C22	C	1.487080	-0.239700	0.151287
C23	C	1.489264	-0.157214	0.142110
C24	C	1.479458	-0.527641	0.072070
C25	C	1.477277	-0.610133	0.081238
C26	C	1.477297	-0.610122	-0.167974
C27	C	1.479489	-0.527635	-0.177139
C28	C	1.480562	-0.486398	-0.057118
N29	N	1.483762	-0.365259	0.040646
N30	N	1.482791	-0.402084	-0.066501
C31	C	1.712894	0.111813	-0.012422
C32	C	1.852302	0.114136	-0.012688
C33	C	1.473869	0.260840	-0.029006
C34	C	1.476194	0.348629	-0.038775
N35	N	1.483276	0.116324	0.343194
N36	N	1.483306	0.116329	-0.369043
C37	C	1.568772	0.063060	0.421048
C38	C	1.568785	0.063060	0.564931
C39	C	1.397801	0.169595	0.553092
C40	C	1.397784	0.169590	0.409213
H41	H	1.486225	-0.273267	-0.195652
H42	H	1.638384	0.019686	0.367300
O43	O	1.651890	0.011430	0.640697
C44	C	1.729310	0.054232	0.719117
H45	H	1.679180	0.115811	0.733823
H46	H	1.749249	0.021345	0.823952
H47	H	1.822101	0.060149	0.662990
O48	O	0.854357	0.114208	0.233065
C49	C	0.940250	0.115629	0.342882
H50	H	1.028374	0.142181	0.303394
H51	H	0.894355	0.153317	0.425831
H52	H	0.967476	0.052542	0.388221
H53	H	1.102117	0.118309	-0.239230
O54	O	1.490486	-0.117084	0.258599
C55	C	1.600469	-0.077742	0.261713
H56	H	1.637052	-0.068163	0.152468
H57	H	1.577544	-0.017861	0.307793
H58	H	1.675744	-0.115386	0.327394
O59	O	1.112549	0.118386	0.232393
C60	C	1.202643	0.051284	0.247331
H61	H	1.227056	0.028826	0.141645
H62	H	1.291520	0.068196	0.298188
H63	H	1.162206	0.002571	0.314237
O64	O	0.854305	0.114277	-0.258437
C65	C	0.871945	0.183182	-0.341887
H66	H	0.962267	0.207557	-0.309171
H67	H	0.879653	0.167888	-0.454177
H68	H	0.788181	0.229819	-0.329797
H69	H	1.328197	0.212965	0.606859
O70	O	1.490307	-0.117260	-0.232706
C71	C	1.488910	-0.171352	-0.336662
H72	H	1.447612	-0.227096	-0.293930
H73	H	1.428605	-0.142833	-0.426983
H74	H	1.589379	-0.187868	-0.373137
O75	O	1.476445	-0.650250	0.206717
C76	C	1.583890	-0.706325	0.220387
H77	H	1.660516	-0.687300	0.147547
H78	H	1.620364	-0.710061	0.331002
H79	H	1.557672	-0.766954	0.193667
O80	O	1.480260	-0.487643	-0.302724
C81	C	1.371000	-0.499539	-0.377089
H82	H	1.294476	-0.516340	-0.302203
H83	H	1.335878	-0.442534	-0.440055
H84	H	1.394293	-0.549360	-0.449143
O85	O	1.314853	0.221446	0.333627
C86	C	1.335103	0.299840	0.360065
H87	H	1.435645	0.300819	0.399489
H88	H	1.320575	0.339434	0.261032
H89	H	1.265467	0.322661	0.441050
O90	O	1.476011	-0.650205	-0.284509
C91	C	1.366049	-0.689571	-0.287547
H92	H	1.290732	-0.658864	-0.220252
H93	H	1.329528	-0.687705	-0.397955
H94	H	1.388967	-0.753974	-0.246894
O95	O	1.480593	-0.487720	0.188792
C96	C	1.479143	-0.541818	0.304779
H97	H	1.517301	-0.603672	0.275110
H98	H	1.540741	-0.522685	0.389780
H99	H	1.378219	-0.542841	0.343239
O100	O	1.486068	-0.279894	0.276673
C101	C	1.483883	-0.361540	0.259041
H102	H	1.523325	-0.375857	0.153547
H103	H	1.543995	-0.397574	0.342625
H104	H	1.382566	-0.377209	0.266696
