data_functionalizedCrystal
_audit_creation_method	'MofGen! by Chris Wilmer'
_symmetry_space_group_name_H-M	'P1'
_symmetry_Int_Tables_number	1
_symmetry_cell_setting	triclinic
loop_
_symmetry_equiv_pos_as_xyz
  x,y,z
_cell_length_a	12.827893
_cell_length_b	12.827892
_cell_length_c	12.759393
_cell_angle_alpha	89.970218
_cell_angle_beta	89.979240
_cell_angle_gamma	90.015362
loop_
_atom_site_label
_atom_site_type_symbol
_atom_site_fract_x
_atom_site_fract_y
_atom_site_fract_z
Zn1	Zn	1.597685	-0.415983	-0.594020
Zn2	Zn	1.597575	-0.590761	-0.418343
Zn3	Zn	1.422922	-0.416034	-0.418356
Zn4	Zn	1.422912	-0.590683	-0.593980
O5	O	1.510273	-0.503365	-0.506175
O6	O	1.743906	-0.439179	-0.570727
O7	O	1.574365	-0.567637	-0.271323
O8	O	1.446155	-0.269791	-0.441681
O9	O	1.743825	-0.567587	-0.441658
O10	O	1.574553	-0.269754	-0.570740
O11	O	1.446048	-0.439266	-0.271333
O12	O	1.276684	-0.439190	-0.441642
O13	O	1.446138	-0.567455	-0.741007
O14	O	1.276677	-0.567504	-0.570672
O15	O	1.574543	-0.439104	-0.741036
O16	O	1.574355	-0.736986	-0.441619
O17	O	1.446031	-0.736929	-0.570659
C18	C	1.510208	-0.774875	-0.506156
C19	C	1.510276	-0.891028	-0.506184
C20	C	1.238763	-0.503345	-0.506155
C21	C	1.122610	-0.503362	-0.506171
C22	C	1.070849	-0.566955	-0.569921
C23	C	0.950799	-0.566973	-0.569940
C24	C	1.573850	-0.942807	-0.442401
C25	C	1.573921	-1.062857	-0.442428
C26	C	1.782843	-0.503386	-0.506196
C27	C	1.898996	-0.503395	-0.506204
C28	C	1.510351	-0.503265	-0.780208
C29	C	1.510385	-0.503222	-0.896985
C30	C	1.510367	-0.230795	-0.506216
C31	C	1.510407	-0.114642	-0.506234
C32	C	1.577250	-0.436379	-0.951864
C33	C	1.577268	-0.436334	-1.061588
C34	C	1.443552	-0.569984	-1.061545
C35	C	1.443529	-0.570023	-0.951823
C36	C	1.510255	-0.503390	-0.233207
C37	C	1.510425	-0.503138	-0.116431
H38	H	1.115412	-0.621381	-0.624490
H39	H	1.628346	-1.107385	-0.387819
H40	H	1.078048	-0.448927	-0.451611
C41	C	0.890674	-0.640529	-0.643677
C42	C	0.770629	-0.640443	-0.643590
C43	C	0.710502	-0.714001	-0.717330
C44	C	0.770420	-0.787646	-0.791157
C45	C	0.890473	-0.787735	-0.791247
C46	C	0.950600	-0.714176	-0.717507
H47	H	0.726268	-0.585924	-0.588937
H48	H	0.621631	-0.713935	-0.717264
H49	H	0.725911	-0.842098	-0.845744
H50	H	0.934834	-0.842254	-0.845900
H51	H	1.039470	-0.714243	-0.717573
H52	H	0.943503	-0.448952	-0.451619
C53	C	1.647314	-0.882635	-0.368604
C54	C	1.601967	-0.807669	-0.286132
C55	C	1.675435	-0.747499	-0.212335
C56	C	1.794251	-0.762295	-0.221009
C57	C	1.839605	-0.837264	-0.303484
C58	C	1.766137	-0.897434	-0.377282
H59	H	1.514006	-0.796714	-0.279708
H60	H	1.641860	-0.692002	-0.151281
H61	H	1.848637	-0.717754	-0.166379
H62	H	1.927565	-0.848220	-0.309908
H63	H	1.799711	-0.952931	-0.438335
C64	C	1.436813	-0.951197	-0.579985
C65	C	1.317997	-0.936401	-0.571316
C66	C	1.244531	-0.996567	-0.645120
C67	C	1.289882	-1.071529	-0.727593
C68	C	1.408705	-1.086328	-0.736266
C69	C	1.482170	-1.026163	-0.662462
H70	H	1.284419	-0.880906	-0.510261
H71	H	1.156571	-0.985611	-0.638699
H72	H	1.235499	-1.116067	-0.782227
H73	H	1.442282	-1.141823	-0.797320
H74	H	1.570130	-1.037119	-0.668882
H75	H	1.389072	-0.624454	-0.907139
C76	C	1.370038	-0.643487	-1.121869
C77	C	1.296497	-0.717024	-1.061500
C78	C	1.222992	-0.790539	-1.121821
C79	C	1.223028	-0.790517	-1.242511
C80	C	1.296573	-0.716977	-1.302887
C81	C	1.370078	-0.643462	-1.242566
H82	H	1.296467	-0.717042	-0.972152
H83	H	1.168549	-0.844978	-1.077127
H84	H	1.168615	-0.844937	-1.287165
H85	H	1.296602	-0.716958	-1.392235
H86	H	1.424520	-0.589023	-1.287260
C87	C	1.650780	-0.362892	-0.891541
C88	C	1.642293	-0.244088	-0.906644
C89	C	1.715822	-0.170596	-0.846324
C90	C	1.797838	-0.215908	-0.770901
C91	C	1.806329	-0.334719	-0.755794
C92	C	1.732800	-0.408211	-0.816114
H93	H	1.581576	-0.210539	-0.962480
H94	H	1.709536	-0.082644	-0.857508
H95	H	1.852269	-0.161505	-0.726249
H96	H	1.867046	-0.368267	-0.699959
H97	H	1.739086	-0.496162	-0.804931
H98	H	1.455972	-1.070121	-0.560840
C99	C	1.650823	-0.362807	-1.121955
C100	C	1.724355	-0.289330	-1.061631
C101	C	1.797912	-0.215797	-1.121998
C102	C	1.797936	-0.215741	-1.242688
C103	C	1.724401	-0.289221	-1.303018
C104	C	1.650844	-0.362754	-1.242652
H105	H	1.724340	-0.289369	-0.972283
H106	H	1.852347	-0.161403	-1.077337
H107	H	1.852387	-0.161308	-1.287375
H108	H	1.724416	-0.289182	-1.392366
H109	H	1.596409	-0.417148	-1.287313
