data_functionalizedCrystal
_audit_creation_method	'MofGen! by Chris Wilmer'
_symmetry_space_group_name_H-M	'P1'
_symmetry_Int_Tables_number	1
_symmetry_cell_setting	triclinic
loop_
_symmetry_equiv_pos_as_xyz
  x,y,z
_cell_length_a	21.395362
_cell_length_b	17.640280
_cell_length_c	21.395356
_cell_angle_alpha	78.779580
_cell_angle_beta	89.964230
_cell_angle_gamma	78.812025
loop_
_atom_site_label
_atom_site_type_symbol
_atom_site_fract_x
_atom_site_fract_y
_atom_site_fract_z
Zn1	Zn	1.008267	-0.314342	-0.304298
Zn2	Zn	1.341600	0.018991	0.029036
Zn3	Zn	1.674934	0.352324	0.362369
Zn4	Zn	1.029399	-0.446502	-0.178378
Zn5	Zn	1.362732	-0.113169	0.154956
Zn6	Zn	1.696065	0.220164	0.488289
Zn7	Zn	0.903505	-0.314395	-0.199490
Zn8	Zn	1.236839	0.018938	0.133843
Zn9	Zn	1.570172	0.352271	0.467176
Zn10	Zn	0.924665	-0.446502	-0.283082
Zn11	Zn	1.257999	-0.113169	0.050251
Zn12	Zn	1.591332	0.220164	0.383584
O13	O	0.966459	-0.380436	-0.241312
O14	O	1.299792	-0.047102	0.092021
O15	O	1.633126	0.286231	0.425355
O16	O	1.098744	-0.331851	-0.287637
O17	O	1.432078	0.001482	0.045696
O18	O	1.765411	0.334815	0.379030
O19	O	1.012687	-0.429000	-0.093497
O20	O	1.346020	-0.095667	0.239837
O21	O	1.679353	0.237666	0.573170
O22	O	0.899703	-0.203792	-0.231108
O23	O	1.233036	0.129542	0.102225
O24	O	1.566370	0.462875	0.435559
O25	O	1.114270	-0.428949	-0.195124
O26	O	1.447603	-0.095615	0.138209
O27	O	1.780937	0.237718	0.471543
O28	O	0.976671	-0.203753	-0.308109
O29	O	1.310004	0.129581	0.025224
O30	O	1.643338	0.462914	0.358557
O31	O	0.920194	-0.331942	-0.109008
O32	O	1.253527	0.001391	0.224325
O33	O	1.586860	0.334725	0.557658
O34	O	0.818638	-0.331942	-0.210536
O35	O	1.151971	0.001392	0.122797
O36	O	1.485305	0.334725	0.456130
O37	O	0.935767	-0.428949	-0.373578
O38	O	1.269100	-0.095615	-0.040245
O39	O	1.602434	0.237718	0.293089
O40	O	0.834184	-0.429000	-0.271951
O41	O	1.167517	-0.095667	0.061383
O42	O	1.500851	0.237666	0.394716
O43	O	0.997189	-0.331851	-0.389165
O44	O	1.330522	0.001482	-0.055832
O45	O	1.663856	0.334815	0.277502
O46	O	1.033205	-0.557099	-0.174552
O47	O	1.366538	-0.223766	0.158781
O48	O	1.699871	0.109568	0.492114
O49	O	0.956258	-0.557099	-0.251478
O50	O	1.289591	-0.223766	0.081855
O51	O	1.622924	0.109568	0.415188
C52	C	0.803678	-0.380477	-0.241233
C53	C	1.137011	-0.047144	0.092101
C54	C	1.470345	0.286189	0.425434
C55	C	0.734043	-0.380514	-0.241210
C56	C	1.067376	-0.047181	0.092123
C57	C	1.400709	0.286152	0.425456
C58	C	0.709452	-0.431120	-0.273118
C59	C	1.042785	-0.097786	0.060215
C60	C	1.376118	0.235547	0.393548
C61	C	0.644013	-0.431100	-0.273149
C62	C	0.977347	-0.097767	0.060184
C63	C	1.310680	0.235567	0.393517
C64	C	0.603170	-0.380484	-0.241260
C65	C	0.936503	-0.047150	0.092073
C66	C	1.269836	0.286183	0.425407
C67	C	0.627767	-0.329869	-0.209351
C68	C	0.961100	0.003465	0.123982
C69	C	1.294434	0.336798	0.457316
C70	C	0.693204	-0.329884	-0.209326
C71	C	1.026537	0.003449	0.124007
C72	C	1.359870	0.336783	0.457340
C73	C	0.498432	-0.374126	-0.185872
C74	C	0.831766	-0.040792	0.147461
C75	C	1.165099	0.292541	0.480795
C76	C	0.432998	-0.374116	-0.185895
C77	C	0.766331	-0.040783	0.147439
C78	C	1.099665	0.292551	0.480772
C79	C	0.401341	-0.380432	-0.241337
C80	C	0.734674	-0.047099	0.091996
C81	C	1.068007	0.286234	0.425329
C82	C	0.435129	-0.386775	-0.296756
C83	C	0.768462	-0.053441	0.036577
C84	C	1.101795	0.279892	0.369910
C85	C	0.500565	-0.386790	-0.296732
C86	C	0.833899	-0.053457	0.036602
C87	C	1.167232	0.279877	0.369935
C88	C	0.532214	-0.380461	-0.241284
C89	C	0.865547	-0.047128	0.092050
C90	C	1.198880	0.286205	0.425383
C91	C	0.305794	-0.431019	-0.273282
C92	C	0.639127	-0.097686	0.060052
C93	C	0.972461	0.235647	0.393385
C94	C	0.240354	-0.430994	-0.273315
C95	C	0.573687	-0.097661	0.060019
C96	C	0.907020	0.235672	0.393352
C97	C	0.224109	-0.329767	-0.209510
C98	C	0.557443	0.003566	0.123823
C99	C	0.890776	0.336900	0.457157
C100	C	0.289548	-0.329788	-0.209483
C101	C	0.622881	0.003546	0.123850
C102	C	0.956215	0.336879	0.457183
C103	C	0.330387	-0.380418	-0.241368
C104	C	0.663720	-0.047085	0.091966
C105	C	0.997054	0.286249	0.425299
C106	C	0.999337	-0.585775	-0.208436
C107	C	1.332671	-0.252442	0.124898
C108	C	1.666004	0.080891	0.458231
C109	C	1.013460	-0.673621	-0.194392
C110	C	1.346794	-0.340287	0.138941
C111	C	1.680127	-0.006954	0.472275
C112	C	0.859427	-0.962670	-0.348228
C113	C	1.192760	-0.629337	-0.014894
C114	C	1.526093	-0.296003	0.318439
C115	C	0.872698	-1.045214	-0.335012
C116	C	1.206032	-0.711881	-0.001678
C117	C	1.539365	-0.378547	0.331655
C118	C	0.952873	-1.045149	-0.254990
C119	C	1.286207	-0.711815	0.078344
C120	C	1.619540	-0.378482	0.411677
C121	C	0.939610	-0.962603	-0.268201
C122	C	1.272944	-0.629270	0.065132
C123	C	1.606277	-0.295936	0.398465
C124	C	0.892886	-0.921370	-0.314820
C125	C	1.226219	-0.588037	0.018513
C126	C	1.559553	-0.254703	0.351846
C127	C	0.973070	-0.921303	-0.234794
C128	C	1.306403	-0.587970	0.098540
C129	C	1.639736	-0.254636	0.431873
C130	C	0.959805	-0.838765	-0.248002
C131	C	1.293139	-0.505431	0.085331
C132	C	1.626472	-0.172098	0.418665
C133	C	0.913082	-0.797526	-0.294618
C134	C	1.246415	-0.464193	0.038715
C135	C	1.579748	-0.130859	0.372049
C136	C	0.879622	-0.838832	-0.328029
C137	C	1.212955	-0.505498	0.005305
C138	C	1.546288	-0.172165	0.338638
C139	C	1.019791	-0.962537	-0.188172
C140	C	1.353124	-0.629204	0.145162
C141	C	1.686457	-0.295871	0.478495
C142	C	1.053250	-0.921238	-0.154764
C143	C	1.386583	-0.587904	0.178569
C144	C	1.719917	-0.254571	0.511902
C145	C	1.039989	-0.838698	-0.167975
C146	C	1.373322	-0.505364	0.165358
C147	C	1.706656	-0.172031	0.498691
C148	C	0.993265	-0.797459	-0.214591
C149	C	1.326599	-0.464126	0.118742
C150	C	1.659932	-0.130792	0.452075
C151	C	1.073449	-0.797392	-0.134565
C152	C	1.406782	-0.464059	0.198769
C153	C	1.740116	-0.130725	0.532102
C154	C	1.060185	-0.714853	-0.147773
C155	C	1.393518	-0.381520	0.185560
C156	C	1.726851	-0.048187	0.518894
C157	C	0.980001	-0.714921	-0.227800
C158	C	1.313334	-0.381587	0.105534
C159	C	1.646668	-0.048254	0.438867
C160	C	1.129876	-0.380394	-0.241392
C161	C	1.463209	-0.047061	0.091941
C162	C	1.796542	0.286273	0.425275
C163	C	1.199514	-0.380376	-0.241426
C164	C	1.532848	-0.047043	0.091907
C165	C	1.866181	0.286290	0.425241
C166	C	0.966481	-0.380394	-0.404742
C167	C	1.299815	-0.047061	-0.071409
C168	C	1.633148	0.286273	0.261925
C169	C	0.966491	-0.380376	-0.474386
C170	C	1.299824	-0.047043	-0.141053
C171	C	1.633157	0.286290	0.192281
C172	C	0.933469	-0.174294	-0.274330
C173	C	1.266803	0.159040	0.059003
C174	C	1.600136	0.492373	0.392336
C175	C	0.919411	-0.086449	-0.288401
C176	C	1.252745	0.246885	0.044933
C177	C	1.586078	0.580218	0.378266
C178	C	1.014696	-0.430749	-0.968133
C179	C	1.348029	-0.097416	-0.634799
C180	C	1.681362	0.235918	-0.301466
C181	C	1.014688	-0.430774	-0.902693
C182	C	1.348022	-0.097441	-0.569360
C183	C	1.681355	0.235893	-0.236027
C184	C	0.966530	-0.380251	-0.878045
C185	C	1.299864	-0.046918	-0.544711
C186	C	1.633197	0.286416	-0.211378
C187	C	0.918367	-0.329713	-0.918839
C188	C	1.251700	0.003620	-0.585506
C189	C	1.585033	0.336953	-0.252173
C190	C	0.918372	-0.329695	-0.984276
C191	C	1.251705	0.003638	-0.650943
C192	C	1.585038	0.336971	-0.317610
C193	C	0.950180	-0.309076	-0.785774
C194	C	1.283513	0.024258	-0.452441
C195	C	1.616846	0.357591	-0.119108
C196	C	0.950179	-0.309092	-0.720339
C197	C	1.283512	0.024241	-0.387005
C198	C	1.616845	0.357574	-0.053672
C199	C	0.966511	-0.380307	-0.676215
C200	C	1.299844	-0.046974	-0.342882
C201	C	1.633178	0.286360	-0.009548
C202	C	0.982858	-0.451507	-0.697534
C203	C	1.316191	-0.118174	-0.364201
C204	C	1.649524	0.215160	-0.030868
C205	C	0.982863	-0.451489	-0.762972
C206	C	1.316196	-0.118156	-0.429638
C207	C	1.649529	0.215178	-0.096305
C208	C	0.966519	-0.380265	-0.807090
C209	C	1.299852	-0.046932	-0.473757
C210	C	1.633186	0.286401	-0.140423
C211	C	1.014661	-0.430872	-0.564471
C212	C	1.347995	-0.097539	-0.231138
C213	C	1.681328	0.235794	0.102196
C214	C	1.014650	-0.430899	-0.499030
C215	C	1.347983	-0.097566	-0.165697
C216	C	1.681316	0.235768	0.167636
C217	C	0.918330	-0.329831	-0.515179
C218	C	1.251664	0.003502	-0.181845
C219	C	1.584997	0.336835	0.151488
C220	C	0.918339	-0.329812	-0.580617
C221	C	1.251673	0.003521	-0.247284
C222	C	1.585006	0.336855	0.086049
C223	C	0.966508	-0.380331	-0.605260
C224	C	1.299841	-0.046998	-0.271926
C225	C	1.633175	0.286335	0.061407
C226	C	0.966464	-0.380420	-0.078527
C227	C	1.299797	-0.047087	0.254806
C228	C	1.633131	0.286247	0.588140
C229	C	0.966540	-0.380215	-0.008919
C230	C	1.299874	-0.046882	0.324414
C231	C	1.633207	0.286452	0.657748
H232	H	0.623987	-0.472309	-0.299135
H233	H	0.957320	-0.138975	0.034198
H234	H	1.290654	0.194358	0.367532
H235	H	0.996158	-0.509497	-0.661609
H236	H	1.329491	-0.176163	-0.328276
H237	H	1.662825	0.157170	0.005057
Br238	Br	0.206978	-0.499672	-0.316629
Br239	Br	0.540312	-0.166339	0.016705
Br240	Br	0.873645	0.166994	0.350038
H241	H	1.053862	-0.472057	-0.465821
H242	H	1.387195	-0.138724	-0.132488
H243	H	1.720528	0.194610	0.200846
H244	H	0.990914	-1.078732	-0.217030
H245	H	1.324248	-0.745398	0.116303
H246	H	1.657581	-0.412065	0.449636
H247	H	0.879155	-0.288578	-0.898766
H248	H	1.212489	0.044755	-0.565433
H249	H	1.545822	0.378088	-0.232100
Br250	Br	1.037816	-1.074555	-0.170269
Br251	Br	1.371150	-0.741222	0.163064
Br252	Br	1.704483	-0.407889	0.496397
Br253	Br	0.827274	-1.101262	-0.380346
Br254	Br	1.160608	-0.767929	-0.047013
Br255	Br	1.493941	-0.434596	0.286320
H256	H	0.879157	-0.288543	-1.017485
H257	H	1.212490	0.044791	-0.684152
H258	H	1.545824	0.378124	-0.350819
H259	H	0.528072	-0.391952	-0.341856
H260	H	0.861406	-0.058619	-0.008523
H261	H	1.194739	0.274715	0.324811
Br262	Br	1.116660	-0.977203	-0.091498
Br263	Br	1.449993	-0.643870	0.241835
Br264	Br	1.783326	-0.310537	0.575169
H265	H	0.821384	-0.929097	-0.386195
H266	H	1.154717	-0.595763	-0.052861
H267	H	1.488050	-0.262430	0.280472
Br268	Br	0.852956	-0.261288	-0.481731
Br269	Br	1.186289	0.072046	-0.148397
Br270	Br	1.519622	0.405379	0.184936
H271	H	1.111487	-0.830976	-0.096603
H272	H	1.444821	-0.497643	0.236730
H273	H	1.778154	-0.164309	0.570064
H274	H	1.053910	-0.471916	-0.869480
H275	H	1.387243	-0.138582	-0.536147
H276	H	1.720577	0.194751	-0.202814
Br277	Br	0.852973	-0.261241	-0.635972
Br278	Br	1.186306	0.072093	-0.302638
Br279	Br	1.519640	0.405426	0.030695
Br280	Br	0.392174	-0.395345	-0.372006
Br281	Br	0.725507	-0.062011	-0.038673
Br282	Br	1.058841	0.271322	0.294660
H283	H	0.309570	-0.288583	-0.183497
H284	H	0.642903	0.044750	0.149836
H285	H	0.976237	0.378083	0.483170
Br286	Br	0.928002	-0.212465	-0.691411
Br287	Br	1.261336	0.120868	-0.358078
Br288	Br	1.594669	0.454202	-0.024745
Br289	Br	0.928353	-0.212381	-0.845657
Br290	Br	1.261687	0.120952	-0.512324
Br291	Br	1.595020	0.454286	-0.178990
H292	H	1.053882	-0.472010	-0.584536
H293	H	1.387215	-0.138677	-0.251202
H294	H	1.720548	0.194656	0.082131
Br295	Br	0.764873	-0.499830	-0.316391
Br296	Br	1.098206	-0.166496	0.016942
Br297	Br	1.431540	0.166837	0.350275
Br298	Br	0.361222	-0.499726	-0.316555
Br299	Br	0.694555	-0.166393	0.016778
Br300	Br	1.027888	0.166940	0.350111
Br301	Br	1.105585	-0.658798	-0.102426
Br302	Br	1.438919	-0.325465	0.230907
Br303	Br	1.772252	0.007868	0.564241
Br304	Br	0.168684	-0.261064	-0.166238
Br305	Br	0.502018	0.072269	0.167095
Br306	Br	0.835351	0.405602	0.500429
H307	H	0.996171	-0.509463	-0.780327
H308	H	1.329504	-0.176129	-0.446994
H309	H	1.662838	0.157204	-0.113660
H310	H	0.405493	-0.368957	-0.140768
H311	H	0.738827	-0.035623	0.192565
H312	H	1.072160	0.297710	0.525898
Br313	Br	0.541389	-0.365554	-0.110621
Br314	Br	0.874722	-0.032221	0.222712
Br315	Br	1.208056	0.301113	0.556046
H316	H	1.053917	-0.471888	-0.988192
H317	H	1.387250	-0.138555	-0.654858
H318	H	1.720584	0.194779	-0.321525
H319	H	0.594508	-0.288655	-0.183388
H320	H	0.927841	0.044678	0.149945
H321	H	1.261174	0.378012	0.483279
H322	H	0.713224	-0.288673	-0.183343
H323	H	1.046557	0.044661	0.149990
H324	H	1.379891	0.377994	0.483323
Br325	Br	0.816217	-0.782865	-0.391307
Br326	Br	1.149550	-0.449532	-0.057973
Br327	Br	1.482884	-0.116198	0.275360
Br328	Br	0.916596	-0.658954	-0.291077
Br329	Br	1.249930	-0.325620	0.042256
Br330	Br	1.583263	0.007713	0.375589
H331	H	0.902278	-0.730318	-0.305367
H332	H	1.235612	-0.396985	0.027967
H333	H	1.568945	-0.063651	0.361300
