data_functionalizedCrystal
_audit_creation_method	'MofGen! by Chris Wilmer'
_symmetry_space_group_name_H-M	'P1'
_symmetry_Int_Tables_number	1
_symmetry_cell_setting	triclinic
loop_
_symmetry_equiv_pos_as_xyz
  x,y,z
_cell_length_a	10.654550
_cell_length_b	6.394989
_cell_length_c	9.130313
_cell_angle_alpha	90.001550
_cell_angle_beta	89.999724
_cell_angle_gamma	94.508679
loop_
_atom_site_label
_atom_site_type_symbol
_atom_site_fract_x
_atom_site_fract_y
_atom_site_fract_z
O1	O	1.670947	-0.293442	-0.121679
O2	O	1.305765	-0.321399	-0.121705
O3	O	1.493540	-0.003431	-0.121693
O4	O	1.483173	-0.611409	-0.121692
O5	O	1.493526	-0.003422	0.121906
O6	O	1.305752	-0.321389	0.121893
O7	O	1.670934	-0.293432	0.121919
Cu8	Cu	1.488342	-0.307410	0.144149
Cu9	Cu	1.488357	-0.307421	-0.143935
O10	O	1.483159	-0.611400	0.121907
C11	C	1.258939	-0.319341	0.000091
C12	C	1.119430	-0.313200	0.000080
C13	C	1.041927	-0.500414	0.000085
C14	C	0.910845	-0.494631	0.000110
C15	C	0.934782	-0.114403	0.000121
C16	C	1.065861	-0.120188	0.000106
C17	C	1.717760	-0.295490	0.000120
C18	C	1.857269	-0.301631	0.000121
C19	C	1.491483	0.074425	0.000101
C20	C	1.485219	0.310750	0.000099
N21	N	1.488340	-0.307401	0.346772
N22	N	1.488369	-0.307414	-0.346558
C23	C	1.571516	-0.166665	0.423429
C24	C	1.571528	-0.166665	0.576766
C25	C	1.405184	-0.448157	0.576774
C26	C	1.405167	-0.448145	0.423440
H27	H	1.128967	0.032274	0.000106
O28	O	1.652343	-0.029739	0.349178
C29	C	1.817379	0.249388	0.365361
C30	C	1.725890	0.094456	0.449625
H31	H	1.876884	0.349810	0.446535
H32	H	1.761556	0.354749	0.293630
H33	H	1.881489	0.158184	0.293518
H34	H	1.661758	0.185489	0.521548
H35	H	1.781791	-0.010905	0.521264
H36	H	1.085539	-0.657577	0.000075
H37	H	0.847747	-0.647080	0.000117
H38	H	1.337468	-0.562750	0.639213
H39	H	1.639256	-0.052063	0.639176
O40	O	1.324321	-0.585068	0.349193
C41	C	1.159279	-0.864183	0.365369
C42	C	1.250788	-0.709283	0.449637
H43	H	1.099785	-0.964621	0.446542
H44	H	1.215084	-0.969531	0.293604
H45	H	1.095159	-0.772952	0.293561
H46	H	1.314928	-0.800343	0.521525
H47	H	1.194904	-0.603935	0.521310
H48	H	0.891149	0.042741	0.000150
