data_functionalizedCrystal
_audit_creation_method	'MofGen! by Chris Wilmer'
_symmetry_space_group_name_H-M	'P1'
_symmetry_Int_Tables_number	1
_symmetry_cell_setting	triclinic
loop_
_symmetry_equiv_pos_as_xyz
  x,y,z
_cell_length_a	16.625547
_cell_length_b	16.625546
_cell_length_c	13.897441
_cell_angle_alpha	90.033447
_cell_angle_beta	90.026124
_cell_angle_gamma	90.022405
loop_
_atom_site_label
_atom_site_type_symbol
_atom_site_fract_x
_atom_site_fract_y
_atom_site_fract_z
Zn1	Zn	1.232691	-0.320977	0.545501
Zn2	Zn	1.732691	0.179023	1.045501
Zn3	Zn	1.232591	-0.455828	0.384194
Zn4	Zn	1.732591	0.044172	0.884194
Zn5	Zn	1.097850	-0.321012	0.384204
Zn6	Zn	1.597850	0.178988	0.884204
Zn7	Zn	1.097823	-0.455771	0.545432
Zn8	Zn	1.597823	0.044229	1.045432
O9	O	1.165239	-0.388397	0.464833
O10	O	1.665239	0.111603	0.964833
O11	O	1.345510	-0.338874	0.524128
O12	O	1.845510	0.161126	1.024128
O13	O	1.214687	-0.437982	0.249214
O14	O	1.714687	0.062018	0.749214
O15	O	1.115789	-0.208175	0.405633
O16	O	1.615789	0.291825	0.905633
O17	O	1.345437	-0.437948	0.405617
O18	O	1.845437	0.062052	0.905617
O19	O	1.214857	-0.208149	0.524138
O20	O	1.714857	0.291851	1.024138
O21	O	1.115693	-0.338934	0.249221
O22	O	1.615693	0.161066	0.749221
O23	O	0.985014	-0.338880	0.405566
O24	O	1.485014	0.161120	0.905566
O25	O	1.115744	-0.437852	0.680423
O26	O	1.615744	0.062148	1.180423
O27	O	0.984994	-0.437887	0.524020
O28	O	1.484994	0.062113	1.024020
O29	O	1.214831	-0.338820	0.680473
O30	O	1.714831	0.161180	1.180473
O31	O	1.214661	-0.568652	0.405550
O32	O	1.714661	-0.068652	0.905550
O33	O	1.115647	-0.568611	0.524010
O34	O	1.615647	-0.068611	1.024010
C35	C	0.955748	-0.388381	0.464787
C36	C	1.455748	0.111619	0.964787
C37	C	0.866127	-0.388394	0.464790
C38	C	1.366127	0.111606	0.964790
C39	C	1.165162	-0.597888	0.464792
C40	C	1.665162	-0.097888	0.964792
C41	C	1.165203	-0.687509	0.464807
C42	C	1.665203	-0.187509	0.964807
C43	C	0.793344	-0.388396	0.464802
C44	C	1.293344	0.111604	0.964802
C45	C	0.702036	-0.388400	0.464827
C46	C	1.202036	0.111600	0.964827
C47	C	0.629259	-0.388407	0.464851
C48	C	1.129259	0.111593	0.964851
C49	C	0.537945	-0.388413	0.464874
C50	C	1.037945	0.111587	0.964874
C51	C	1.165344	-1.015685	0.464908
C52	C	1.665344	-0.515685	0.964908
C53	C	1.165302	-0.924376	0.464882
C54	C	1.665302	-0.424376	0.964882
C55	C	1.165273	-0.851600	0.464857
C56	C	1.665273	-0.351600	0.964857
C57	C	1.165233	-0.760286	0.464833
C58	C	1.665233	-0.260286	0.964833
C59	C	1.375548	-0.388413	0.464879
C60	C	1.875548	0.111587	0.964879
C61	C	1.465169	-0.388420	0.464899
C62	C	1.965169	0.111580	0.964899
C63	C	1.165296	-0.388326	0.716426
C64	C	1.665296	0.111674	1.216426
C65	C	1.165320	-0.388296	0.823640
C66	C	1.665320	0.111704	1.323640
C67	C	1.165337	-0.178088	0.464894
C68	C	1.665337	0.321912	0.964894
C69	C	1.165379	-0.088467	0.464921
C70	C	1.665379	0.411533	0.964921
C71	C	1.165228	-0.388410	0.214218
C72	C	1.665228	0.111590	0.714218
C73	C	1.165360	-0.388213	0.107005
C74	C	1.665360	0.111787	0.607005
C75	C	1.165342	-0.388241	1.019935
C76	C	1.665342	0.111759	1.519935
C77	C	1.165327	-0.388274	0.910702
C78	C	1.665327	0.111726	1.410702
