data_functionalizedCrystal
_audit_creation_method	'MofGen! by Chris Wilmer'
_symmetry_space_group_name_H-M	'P1'
_symmetry_Int_Tables_number	1
_symmetry_cell_setting	triclinic
loop_
_symmetry_equiv_pos_as_xyz
  x,y,z
_cell_length_a	14.044191
_cell_length_b	13.101039
_cell_length_c	14.044220
_cell_angle_alpha	93.667477
_cell_angle_beta	86.809673
_cell_angle_gamma	93.662449
loop_
_atom_site_label
_atom_site_type_symbol
_atom_site_fract_x
_atom_site_fract_y
_atom_site_fract_z
O1	O	1.281976	0.085169	-0.225377
O2	O	1.781976	0.585169	0.274623
O3	O	1.005305	0.085182	-0.217064
O4	O	1.505305	0.585182	0.282936
O5	O	1.139487	0.085166	-0.082885
O6	O	1.639487	0.585166	0.417115
O7	O	1.147794	0.085186	-0.359556
O8	O	1.647794	0.585186	0.140444
O9	O	1.129861	-0.085263	-0.092530
O10	O	1.629861	0.414737	0.407470
O11	O	0.995679	-0.085247	-0.226708
O12	O	1.495679	0.414753	0.273292
O13	O	1.272350	-0.085259	-0.235022
O14	O	1.772350	0.414741	0.264978
Zn15	Zn	1.132486	-0.112312	-0.232396
Zn16	Zn	1.632486	0.387688	0.267604
Zn17	Zn	1.145169	0.112235	-0.219689
Zn18	Zn	1.645169	0.612235	0.280311
O19	O	1.138168	-0.085243	-0.369200
O20	O	1.638168	0.414757	0.130800
C21	C	0.964870	-0.000031	-0.218250
C22	C	1.464870	0.499969	0.281750
C23	C	0.858727	-0.000026	-0.207402
C24	C	1.358727	0.499974	0.292598
C25	C	0.613268	-0.000032	-0.264503
C26	C	1.113268	0.499968	0.235497
C27	C	0.664393	-0.000036	-0.187587
C28	C	1.164393	0.499964	0.312413
C29	C	0.772531	-0.000031	-0.198615
C30	C	1.272531	0.499969	0.301385
C31	C	0.505121	-0.000038	-0.253476
C32	C	1.005121	0.499962	0.246524
N33	N	1.123838	-0.265560	-0.241069
N34	N	1.623838	0.234440	0.258931
C35	C	1.112072	-0.474601	-0.252876
C36	C	1.612072	0.025399	0.247124
C37	C	1.165588	-0.525483	-0.199205
C38	C	1.665588	-0.025483	0.300795
C39	C	1.159041	-0.641801	-0.205775
C40	C	1.659041	-0.141801	0.294225
C41	C	1.118617	-0.358273	-0.246308
C42	C	1.618617	0.141727	0.253692
C43	C	1.312785	-0.000044	-0.233836
C44	C	1.812785	0.499956	0.266164
C45	C	1.418929	-0.000042	-0.244683
C46	C	1.918929	0.499958	0.255317
C47	C	1.131038	-0.000049	-0.052086
C48	C	1.631038	0.499951	0.447914
C49	C	1.120194	-0.000050	0.054057
C50	C	1.620194	0.499950	0.554057
N51	N	1.153824	0.265482	-0.211010
N52	N	1.653824	0.765482	0.288990
C53	C	1.146617	-0.000026	-0.400000
C54	C	1.646617	0.499974	0.100000
C55	C	1.157462	-0.000019	-0.506143
C56	C	1.657462	0.499981	-0.006143
C57	C	1.100368	-0.000034	0.248396
C58	C	1.600368	0.499966	0.748396
C59	C	1.177283	-0.000034	0.299524
C60	C	1.677283	0.499966	0.799524
C61	C	1.166252	-0.000026	0.407661
C62	C	1.666252	0.499974	0.907661
C63	C	1.111398	-0.000043	0.140250
C64	C	1.611398	0.499957	0.640250
H65	H	0.650710	-0.000024	-0.338629
H66	H	1.150710	0.499976	0.161371
H67	H	0.626954	0.000031	-0.113451
H68	H	1.126954	0.500031	0.386549
H69	H	1.061342	-0.518392	-0.303757
H70	H	1.561342	-0.018392	0.196243
H71	H	1.216322	-0.481687	-0.148323
H72	H	1.716322	0.018313	0.351677
H73	H	1.251420	0.000031	0.262087
H74	H	1.751420	0.500031	0.762087
H75	H	1.026241	-0.000028	0.285836
H76	H	1.526241	0.499972	0.785836
