data_functionalizedCrystal
_audit_creation_method	'MofGen! by Chris Wilmer'
_symmetry_space_group_name_H-M	'P1'
_symmetry_Int_Tables_number	1
_symmetry_cell_setting	triclinic
loop_
_symmetry_equiv_pos_as_xyz
  x,y,z
_cell_length_a	13.033293
_cell_length_b	16.959453
_cell_length_c	13.032268
_cell_angle_alpha	97.145221
_cell_angle_beta	89.079182
_cell_angle_gamma	97.192087
loop_
_atom_site_label
_atom_site_type_symbol
_atom_site_fract_x
_atom_site_fract_y
_atom_site_fract_z
Zn1	Zn	1.498435	-0.245916	-0.781464
Zn2	Zn	1.998435	0.254084	-0.281464
Zn3	Zn	1.520166	-0.359507	-0.609483
Zn4	Zn	2.020166	0.140493	-0.109483
Zn5	Zn	1.348296	-0.241742	-0.587640
Zn6	Zn	1.848296	0.258258	-0.087640
Zn7	Zn	1.326413	-0.392458	-0.759521
Zn8	Zn	1.826413	0.107542	-0.259521
O9	O	1.423328	-0.309906	-0.684527
O10	O	1.923328	0.190094	-0.184527
O11	O	1.645238	-0.248941	-0.776975
O12	O	2.145238	0.251059	-0.276975
O13	O	1.515620	-0.328348	-0.462678
O14	O	2.015620	0.171652	0.037322
O15	O	1.368276	-0.131683	-0.613394
O16	O	1.868276	0.368317	-0.113394
O17	O	1.661203	-0.332396	-0.650621
O18	O	2.161203	0.167604	-0.150621
O19	O	1.478583	-0.134750	-0.755795
O20	O	1.978583	0.365250	-0.255795
O21	O	1.389348	-0.241827	-0.446630
O22	O	1.889348	0.258173	0.053370
O23	O	1.201473	-0.273778	-0.592116
O24	O	1.701473	0.226222	-0.092116
O25	O	1.330980	-0.388556	-0.906339
O26	O	1.830980	0.111444	-0.406339
O27	O	1.185396	-0.384508	-0.718396
O28	O	1.685396	0.115492	-0.218396
O29	O	1.457364	-0.280892	-0.922461
O30	O	1.957364	0.219108	-0.422461
O31	O	1.494400	-0.474491	-0.629343
O32	O	1.994400	0.025509	-0.129343
O33	O	1.352051	-0.498700	-0.739575
O34	O	1.852051	0.001300	-0.239575
C35	C	1.156118	-0.332266	-0.650505
C36	C	1.656118	0.167734	-0.150505
C37	C	1.041801	-0.341854	-0.635974
C38	C	1.541801	0.158146	-0.135974
C39	C	0.982923	-0.304922	-0.692110
C40	C	1.482923	0.195078	-0.192110
C41	C	0.864771	-0.314830	-0.677094
C42	C	1.364771	0.185170	-0.177094
C43	C	1.423234	-0.515276	-0.684474
C44	C	1.923234	-0.015276	-0.184474
C45	C	1.423284	-0.603130	-0.684498
C46	C	1.923284	-0.103130	-0.184498
C47	C	1.365938	-0.642864	-0.610320
C48	C	1.865938	-0.142864	-0.110320
C49	C	1.480671	-0.645949	-0.758705
C50	C	1.980671	-0.145949	-0.258705
C51	C	1.480716	-0.728493	-0.758733
C52	C	1.980716	-0.228493	-0.258733
C53	C	1.423370	-0.768227	-0.684555
C54	C	1.923370	-0.268227	-0.184555
C55	C	1.365979	-0.725416	-0.610348
C56	C	1.865979	-0.225416	-0.110348
C57	C	1.538098	-0.771311	-0.832945
C58	C	2.038098	-0.271311	-0.332945
C59	C	1.538144	-0.853860	-0.832978
C60	C	2.038144	-0.353860	-0.332978
C61	C	1.480804	-0.893595	-0.758794
C62	C	1.980804	-0.393595	-0.258794
C63	C	1.423411	-0.850779	-0.684583
C64	C	1.923411	-0.350779	-0.184583
C65	C	1.366065	-0.890513	-0.610404
C66	C	1.866065	-0.390513	-0.110404
C67	C	1.308678	-0.847697	-0.536188
C68	C	1.808678	-0.347697	-0.036188
C69	C	1.308638	-0.765150	-0.536164
C70	C	1.808638	-0.265150	-0.036164
C71	C	1.480843	-0.976142	-0.758818
C72	C	1.980843	-0.476142	-0.258818
C73	C	1.366106	-0.973065	-0.610433
C74	C	1.866106	-0.473065	-0.110433
C75	C	1.691581	-0.287459	-0.718683
C76	C	2.191581	0.212541	-0.218683
C77	C	1.805895	-0.277893	-0.733238
C78	C	2.305895	0.222107	-0.233238
C79	C	1.389307	-0.338865	-0.952757
C80	C	1.889307	0.161135	-0.452757
C81	C	1.374809	-0.351206	-1.067060
C82	C	1.874809	0.148794	-0.567060
C83	C	1.423447	-0.103734	-0.684606
C84	C	1.923447	0.396266	-0.184606
C85	C	1.423497	-0.015875	-0.684640
C86	C	1.923497	0.484125	-0.184640
C87	C	1.430878	-0.303438	-1.125997
C88	C	1.930878	0.196562	-0.625997
C89	C	1.415896	-0.316192	-1.244136
C90	C	1.915896	0.183808	-0.744136
C91	C	1.457275	-0.280997	-0.417349
C92	C	1.957275	0.219003	0.082651
C93	C	1.471972	-0.268417	-0.303071
C94	C	1.971972	0.231583	0.196929
H95	H	1.004737	-0.380806	-0.576795
H96	H	1.504737	0.119194	-0.076795
C97	C	1.303022	-1.016766	-0.528836
C98	C	1.803022	-0.516766	-0.028836
H99	H	1.268836	-0.979444	-0.484642
H100	H	1.768836	-0.479444	0.015358
H101	H	1.348093	-1.040833	-0.489091
H102	H	1.848093	-0.540833	0.010909
H103	H	1.253199	-1.056977	-0.562444
H104	H	1.753199	-0.556977	-0.062444
H105	H	1.261981	-0.880060	-0.475797
H106	H	1.761981	-0.380060	0.024203
H107	H	0.842954	-0.238931	-0.792414
H108	H	1.342954	0.261069	-0.292414
H109	H	1.261915	-0.730285	-0.475741
H110	H	1.761915	-0.230285	0.024259
H111	H	1.319217	-0.608001	-0.549891
H112	H	1.819217	-0.108001	-0.049891
C113	C	1.551810	-0.200410	-1.253100
C114	C	2.051810	0.299590	-0.753100
H115	H	1.551413	-0.200761	-1.180254
H116	H	2.051413	0.299239	-0.680254
H117	H	1.534581	-0.150441	-1.268760
H118	H	2.034581	0.349559	-0.768760
H119	H	1.618698	-0.208083	-1.279447
H120	H	2.118698	0.291917	-0.779447
H121	H	1.019988	-0.265964	-0.751284
H122	H	1.519988	0.234036	-0.251284
H123	H	1.315708	-0.401539	-1.104063
H124	H	1.815708	0.098461	-0.604063
H125	H	0.827711	-0.353785	-0.617910
H126	H	1.327711	0.146215	-0.117910
H127	H	1.527354	-0.613596	-0.819104
H128	H	2.027354	-0.113596	-0.319104
C129	C	1.601173	-0.727604	-0.914533
C130	C	2.101173	-0.227604	-0.414533
H131	H	1.592938	-0.672308	-0.903877
H132	H	2.092938	-0.172308	-0.403877
H133	H	1.577307	-0.749837	-0.981697
H134	H	2.077307	-0.249837	-0.481697
H135	H	1.672200	-0.733690	-0.908343
H136	H	2.172200	-0.233690	-0.408343
H137	H	1.489969	-0.253098	-1.088993
H138	H	1.989969	0.246902	-0.588993
C139	C	1.601275	-0.900952	-0.914599
C140	C	2.101275	-0.400952	-0.414599
H141	H	1.593087	-0.955805	-0.903996
H142	H	2.093087	-0.455805	-0.403996
H143	H	1.672282	-0.879975	-0.908403
H144	H	2.172282	-0.379975	-0.408403
H145	H	1.577390	-0.896138	-0.981758
H146	H	2.077390	-0.396138	-0.481758
H147	H	1.527552	-1.011001	-0.819255
H148	H	2.027552	-0.511001	-0.319255
C149	C	1.336063	-0.384201	-1.294110
C150	C	1.836063	0.115799	-0.794110
H151	H	1.336472	-0.383856	-1.366957
H152	H	1.836472	0.116144	-0.866957
H153	H	1.269176	-0.376540	-1.267764
H154	H	1.769176	0.123460	-0.767764
H155	H	1.353307	-0.434171	-1.278453
H156	H	1.853307	0.065829	-0.778453
