data_functionalizedCrystal
_audit_creation_method	'MofGen! by Chris Wilmer'
_symmetry_space_group_name_H-M	'P1'
_symmetry_Int_Tables_number	1
_symmetry_cell_setting	triclinic
loop_
_symmetry_equiv_pos_as_xyz
  x,y,z
_cell_length_a	29.839134
_cell_length_b	12.759399
_cell_length_c	12.759393
_cell_angle_alpha	90.032031
_cell_angle_beta	90.033079
_cell_angle_gamma	90.010464
loop_
_atom_site_label
_atom_site_type_symbol
_atom_site_fract_x
_atom_site_fract_y
_atom_site_fract_z
Zn1	Zn	-0.686843	0.418334	-0.594388
Zn2	Zn	-0.686798	0.594053	-0.418707
Zn3	Zn	-0.611714	0.418374	-0.418683
Zn4	Zn	-0.611708	0.593957	-0.594304
O5	O	-0.649266	0.506180	-0.506520
O6	O	-0.749705	0.441667	-0.571129
O7	O	-0.676821	0.570806	-0.271683
O8	O	-0.621701	0.271348	-0.442016
O9	O	-0.749671	0.570767	-0.442057
O10	O	-0.676899	0.271318	-0.571106
O11	O	-0.621657	0.441736	-0.271665
O12	O	-0.548846	0.441643	-0.441934
O13	O	-0.621692	0.570603	-0.741336
O14	O	-0.548842	0.570643	-0.570962
O15	O	-0.676893	0.441574	-0.741398
O16	O	-0.676816	0.741061	-0.441975
O17	O	-0.621648	0.740991	-0.570985
C18	C	-0.532543	0.506137	-0.506437
C19	C	-0.482609	0.506145	-0.506426
C20	C	-0.172973	0.573459	-0.573590
C21	C	0.014700	0.573492	-0.573623
O22	O	0.038959	0.630671	-0.630701
N23	N	0.038176	0.506232	-0.506552
C24	C	0.014731	0.438954	-0.439472
O25	O	0.039005	0.381738	-0.382431
C26	C	-0.172941	0.438916	-0.439444
C27	C	-0.196415	0.506188	-0.506513
C28	C	-0.196447	0.640725	-0.640654
C29	C	-0.243362	0.640720	-0.640641
C30	C	-0.266804	0.573449	-0.573564
C31	C	-0.243330	0.506183	-0.506500
C32	C	-0.196385	0.371633	-0.372370
C33	C	-0.243306	0.371628	-0.372371
C34	C	-0.266780	0.438900	-0.439440
C35	C	-0.313687	0.438907	-0.439409
N36	N	-0.337163	0.506167	-0.506481
C37	C	-0.313722	0.573438	-0.573558
C38	C	0.113262	0.438980	-0.439489
C39	C	0.160180	0.438990	-0.439495
C40	C	0.160145	0.573528	-0.573648
C41	C	0.113227	0.573522	-0.573637
C42	C	0.089786	0.506240	-0.506561
C43	C	-0.412247	0.573423	-0.573525
C44	C	-0.459167	0.573416	-0.573503
C45	C	-0.459129	0.438875	-0.439354
C46	C	-0.412213	0.438886	-0.439371
C47	C	-0.388774	0.506164	-0.506466
O48	O	-0.337975	0.381750	-0.382370
O49	O	-0.338004	0.630629	-0.630606
C50	C	-0.126057	0.573464	-0.573603
C51	C	-0.102584	0.506198	-0.506539
C52	C	-0.126026	0.438927	-0.439462
C53	C	-0.055666	0.506209	-0.506544
C54	C	-0.032224	0.573479	-0.573621
C55	C	-0.055700	0.640740	-0.640693
C56	C	-0.102616	0.640735	-0.640680
C57	C	-0.102550	0.371667	-0.372390
C58	C	-0.055634	0.371678	-0.372408
C59	C	-0.032192	0.438949	-0.439485
C60	C	-0.649238	0.779147	-0.506497
C61	C	-0.649268	0.895924	-0.506521
C62	C	-0.649297	0.506073	-0.780554
C63	C	-0.649311	0.506028	-0.897331
C64	C	0.233556	0.506228	-0.506588
C65	C	0.183621	0.506261	-0.506572
C66	C	-0.649306	0.232146	-0.506567
C67	C	-0.649323	0.115370	-0.506588
C68	C	-0.678026	0.950787	-0.439422
C69	C	-0.678055	1.060511	-0.439458
C70	C	-0.620563	1.060498	-0.573694
C71	C	-0.620537	0.950776	-0.573663
C72	C	-0.731082	1.210401	-0.402099
C73	C	-0.759837	1.265268	-0.334983
C74	C	-0.766749	1.229732	-0.232477
C75	C	-0.744900	1.139329	-0.197065
C76	C	-0.716142	1.084467	-0.264175
C77	C	-0.709238	1.120002	-0.366696
C78	C	-0.567509	0.800885	-0.611011
C79	C	-0.538748	0.746021	-0.678117
C80	C	-0.531832	0.781556	-0.780625
C81	C	-0.553673	0.871962	-0.816033
C82	C	-0.582433	0.926826	-0.748928
C83	C	-0.589351	0.891283	-0.646420
C84	C	-0.620597	0.438809	-0.952183
C85	C	-0.620608	0.438777	-1.061907
C86	C	-0.678049	0.573186	-1.061917
C87	C	-0.678036	0.573222	-0.952195
C88	C	-0.567648	0.401166	-1.211829
C89	C	-0.538939	0.333931	-1.266685
C90	C	-0.532053	0.231426	-1.231092
C91	C	-0.553883	0.196135	-1.140645
C92	C	-0.582596	0.263365	-1.085795
C93	C	-0.589473	0.365885	-1.121386
C94	C	-0.730996	0.610822	-0.802271
C95	C	-0.759711	0.678047	-0.747419
C96	C	-0.766602	0.780554	-0.783010
C97	C	-0.744779	0.815841	-0.873460
C98	C	-0.716064	0.748616	-0.928312
C99	C	-0.709173	0.646110	-0.892714
C100	C	-0.649261	0.506210	-0.233553
C101	C	-0.649334	0.505959	-0.116777
H102	H	-0.393169	0.628205	-0.628162
H103	H	-0.177281	0.316856	-0.317753
N104	N	-0.574683	0.505878	-1.248183
N105	N	-0.613205	0.535676	-1.272557
H106	H	-0.618174	0.609631	-1.298233
N107	N	-0.591220	1.116547	-0.642269
N108	N	-0.591247	1.214512	-0.642289
H109	H	-0.570522	1.254097	-0.690721
H110	H	-0.548278	0.112660	-1.111680
N111	N	-0.751813	0.920559	-0.909800
N112	N	-0.741999	0.996546	-0.852324
H113	H	-0.746967	1.070506	-0.877987
N114	N	-0.267251	0.302884	-0.303869
N115	N	-0.262017	0.205949	-0.311020
H116	H	-0.278928	0.157398	-0.262642
H117	H	-0.750527	1.110408	-0.113589
H118	H	-0.777627	1.338874	-0.363825
H119	H	-0.521165	0.362674	-1.340327
H120	H	-0.790163	1.274412	-0.177831
H121	H	-0.036606	0.695517	-0.695307
N122	N	-0.707386	0.641814	-1.117978
N123	N	-0.707395	0.641773	-1.215943
H124	H	-0.728115	0.690242	-1.255536
N125	N	-0.795930	0.849218	-0.726957
N126	N	-0.815410	0.817709	-0.646195
H127	H	-0.836118	0.866207	-0.606603
H128	H	-0.262470	0.695498	-0.695257
N129	N	-0.707375	0.894772	-0.370834
N130	N	-0.733051	0.943776	-0.310929
H131	H	-0.753780	0.904219	-0.262487
H132	H	-0.036526	0.316898	-0.317783
N133	N	-0.388232	0.370163	-0.370874
N134	N	-0.362070	0.303256	-0.407970
H135	H	-0.345136	0.254712	-0.359600
H136	H	-0.698296	0.777354	-1.001964
N137	N	-0.724036	1.246702	-0.506815
N138	N	-0.743546	1.327416	-0.538411
H139	H	-0.738570	1.353058	-0.612369
N140	N	-0.782122	0.641871	-0.655236
N141	N	-0.776045	0.550269	-0.623597
H142	H	-0.791917	0.524676	-0.558569
H143	H	-0.597207	0.384095	-0.907516
N144	N	-0.126484	0.302939	-0.303864
N145	N	-0.105513	0.242894	-0.243990
H146	H	-0.122414	0.194353	-0.195584
N147	N	-0.502720	0.162753	-1.287110
N148	N	-0.469070	0.125089	-1.242531
H149	H	-0.448352	0.076594	-1.282094
N150	N	-0.502450	0.725533	-0.849182
N151	N	-0.468804	0.770132	-0.886770
H152	H	-0.448054	0.730570	-0.935190
H153	H	-0.725375	0.527363	-0.773263
N154	N	0.184088	0.642238	-0.642187
N155	N	0.163129	0.702283	-0.702082
H156	H	0.180040	0.750802	-0.750492
N157	N	-0.604740	1.019175	-0.785108
N158	N	-0.598560	1.050900	-0.876636
H159	H	-0.614313	1.116122	-0.902188
H160	H	-0.520967	0.672403	-0.649281
H161	H	0.094180	0.384190	-0.384863
H162	H	-0.478277	0.628201	-0.628119
H163	H	-0.177365	0.695505	-0.695282
H164	H	-0.121724	0.695514	-0.695295
H165	H	-0.548041	0.900895	-0.899504
H166	H	-0.478224	0.384108	-0.384738
H167	H	0.094118	0.628299	-0.628252
H168	H	0.179288	0.384221	-0.384870
H169	H	-0.698354	1.010862	-0.235344
H170	H	-0.600372	0.234630	-1.012158
N171	N	-0.574584	0.764546	-0.506314
N172	N	-0.555085	0.683819	-0.474718
H173	H	-0.560084	0.658146	-0.400780
