data_functionalizedCrystal
_audit_creation_method	'MofGen! by Chris Wilmer'
_symmetry_space_group_name_H-M	'P1'
_symmetry_Int_Tables_number	1
_symmetry_cell_setting	triclinic
loop_
_symmetry_equiv_pos_as_xyz
  x,y,z
_cell_length_a	13.032831
_cell_length_b	16.120484
_cell_length_c	13.032268
_cell_angle_alpha	80.357249
_cell_angle_beta	89.113023
_cell_angle_gamma	86.078521
loop_
_atom_site_label
_atom_site_type_symbol
_atom_site_fract_x
_atom_site_fract_y
_atom_site_fract_z
Zn1	Zn	1.458766	-0.562103	0.811459
Zn2	Zn	1.958766	-0.062103	1.311459
Zn3	Zn	1.471747	-0.686112	0.646236
Zn4	Zn	1.971747	-0.186112	1.146236
Zn5	Zn	1.311081	-0.527333	0.615806
Zn6	Zn	1.811081	-0.027333	1.115806
Zn7	Zn	1.278313	-0.681612	0.796116
Zn8	Zn	1.778313	-0.181612	1.296116
O9	O	1.379976	-0.614290	0.717404
O10	O	1.879976	-0.114290	1.217404
O11	O	1.603247	-0.594988	0.808698
O12	O	2.103247	-0.094988	1.308698
O13	O	1.469580	-0.652382	0.497592
O14	O	1.969580	-0.152382	0.997592
O15	O	1.338953	-0.415480	0.635446
O16	O	1.838953	0.084520	1.135446
O17	O	1.612784	-0.686097	0.687309
O18	O	2.112784	-0.186097	1.187309
O19	O	1.447456	-0.441026	0.779192
O20	O	1.947456	0.058974	1.279192
O21	O	1.351539	-0.535727	0.475236
O22	O	1.851539	-0.035727	0.975236
O23	O	1.163974	-0.531364	0.620568
O24	O	1.663974	-0.031364	1.120568
O25	O	1.283104	-0.678427	0.942758
O26	O	1.783104	-0.178427	1.442758
O27	O	1.139900	-0.644712	0.753041
O28	O	1.639900	-0.144712	1.253041
O29	O	1.415682	-0.590624	0.954031
O30	O	1.915682	-0.090624	1.454031
O31	O	1.437806	-0.801980	0.672431
O32	O	1.937806	-0.301980	1.172431
O33	O	1.295691	-0.798674	0.782547
O34	O	1.795691	-0.298674	1.282547
C35	C	1.114921	-0.583777	0.681838
C36	C	1.614921	-0.083777	1.181838
C37	C	1.001525	-0.570746	0.666648
C38	C	1.501525	-0.070746	1.166648
C39	C	0.939092	-0.621091	0.725332
C40	C	1.439092	-0.121091	1.225332
C41	C	0.821890	-0.607624	0.709634
C42	C	1.321890	-0.107624	1.209634
C43	C	1.364626	-0.830530	0.729153
C44	C	1.864626	-0.330530	1.229153
C45	C	1.358148	-0.923053	0.734226
C46	C	1.858148	-0.423053	1.234226
C47	C	1.346324	-1.092455	0.743510
C48	C	1.846324	-0.592455	1.243510
C49	C	1.413810	-1.135307	0.691340
C50	C	1.913810	-0.635307	1.191340
C51	C	1.407231	-1.229569	0.696506
C52	C	1.907231	-0.729569	1.196506
C53	C	1.352901	-0.998185	0.738345
C54	C	1.852901	-0.498185	1.238345
C55	C	1.646067	-0.644923	0.753110
C56	C	2.146067	-0.144923	1.253110
C57	C	1.759458	-0.657977	0.768325
C58	C	2.259458	-0.157977	1.268325
C59	C	1.344290	-0.637902	0.986938
C60	C	1.844290	-0.137902	1.486938
C61	C	1.329082	-0.647964	1.101797
C62	C	1.829082	-0.147964	1.601797
C63	C	1.395412	-0.397210	0.705636
C64	C	1.895412	0.102790	1.205636
C65	C	1.401989	-0.304704	0.700622
C66	C	1.901989	0.195296	1.200622
C67	C	1.415587	-0.590717	0.448924
C68	C	1.915587	-0.090717	0.948924
C69	C	1.431009	-0.580443	0.334079
C70	C	1.931009	-0.080443	0.834079
C71	C	1.387900	-0.609007	1.158582
C72	C	1.887900	-0.109007	1.658582
C73	C	1.372183	-0.619405	1.277296
C74	C	1.872183	-0.119405	1.777296
H75	H	1.476527	-1.101202	0.642796
H76	H	1.976527	-0.601202	1.142796
C77	C	1.165034	-1.104039	0.771965
C78	C	1.665034	-0.604039	1.271965
C79	C	1.261654	-1.138483	0.809034
C80	C	1.761654	-0.638483	1.309034
H81	H	1.112764	-1.132460	0.812420
H82	H	1.612764	-0.632460	1.312420
H83	H	1.158394	-1.110483	0.701299
H84	H	1.658394	-0.610483	1.201299
H85	H	1.158415	-1.045815	0.777053
H86	H	1.658415	-0.545815	1.277053
H87	H	1.268276	-1.196706	0.803938
H88	H	1.768276	-0.696706	1.303938
H89	H	1.268296	-1.132047	0.879718
H90	H	1.768296	-0.632047	1.379718
C91	C	1.426010	-0.488127	1.032889
C92	C	1.926010	0.011873	1.532889
C93	C	1.471590	-0.553591	1.105576
C94	C	1.971590	-0.053591	1.605576
H95	H	1.477682	-0.453921	1.000164
H96	H	1.977682	0.046079	1.500164
H97	H	1.378306	-0.454837	1.067311
H98	H	1.878306	0.045163	1.567311
H99	H	1.391144	-0.511231	0.981888
H100	H	1.891144	-0.011231	1.481888
H101	H	1.506450	-0.530488	1.156582
H102	H	2.006450	-0.030488	1.656582
H103	H	1.519313	-0.586887	1.071153
H104	H	2.019313	-0.086887	1.571153
C105	C	1.289130	-0.674412	1.437638
C106	C	1.789130	-0.174412	1.937638
C107	C	1.288497	-0.674834	1.330295
C108	C	1.788497	-0.174834	1.830295
H109	H	1.237471	-0.708636	1.470357
H110	H	1.737471	-0.208636	1.970357
H111	H	1.275848	-0.618314	1.450236
H112	H	1.775848	-0.118314	1.950236
H113	H	1.354497	-0.696012	1.465122
H114	H	1.854497	-0.196012	1.965122
H115	H	1.223131	-0.653228	1.302810
H116	H	1.723131	-0.153228	1.802810
H117	H	1.301771	-0.730943	1.317690
H118	H	1.801771	-0.230943	1.817690
C119	C	0.955497	-0.770239	0.787443
C120	C	1.455497	-0.270239	1.287443
C121	C	0.984051	-0.692741	0.808851
C122	C	1.484051	-0.192741	1.308851
H123	H	0.983246	-0.814471	0.839011
H124	H	1.483246	-0.314471	1.339011
H125	H	0.981245	-0.778230	0.720970
H126	H	1.481245	-0.278230	1.220970
H127	H	0.882633	-0.770577	0.787849
H128	H	1.382633	-0.270577	1.287849
H129	H	1.056916	-0.692400	0.808438
H130	H	1.556916	-0.192400	1.308438
H131	H	0.958308	-0.684748	0.875342
H132	H	1.458308	-0.184748	1.375342
H133	H	0.792768	-0.711049	0.830198
H134	H	1.292768	-0.211049	1.330198
H135	H	0.788578	-0.554544	0.647771
H136	H	1.288578	-0.054544	1.147771
H137	H	1.492999	-0.539383	1.294813
H138	H	1.992999	-0.039383	1.794813
C139	C	1.194011	-0.737415	1.079593
C140	C	1.694011	-0.237415	1.579593
C141	C	1.245392	-0.703383	1.154798
C142	C	1.745392	-0.203383	1.654798
H143	H	1.142339	-0.771624	1.112314
H144	H	1.642339	-0.271624	1.612314
H145	H	1.241729	-0.770706	1.045187
H146	H	1.741729	-0.270706	1.545187
H147	H	1.163104	-0.692992	1.030286
H148	H	1.663104	-0.192992	1.530286
H149	H	1.276305	-0.747806	1.204101
H150	H	1.776305	-0.247806	1.704101
H151	H	1.197666	-0.670090	1.189222
H152	H	1.697666	-0.170090	1.689222
C153	C	0.849161	-0.499639	0.583726
C154	C	1.349161	0.000361	1.083726
C155	C	0.956561	-0.499107	0.583118
C156	C	1.456561	0.000893	1.083118
H157	H	0.821408	-0.455417	0.532148
H158	H	1.321408	0.044583	1.032148
H159	H	0.823424	-0.491630	0.650198
H160	H	1.323424	0.008370	1.150198
H161	H	0.829815	-0.552230	0.569227
H162	H	1.329815	-0.052230	1.069227
H163	H	0.975908	-0.446518	0.597625
H164	H	1.475908	0.053482	1.097625
H165	H	0.982308	-0.507109	0.516632
H166	H	1.482308	-0.007109	1.016632
