data_functionalizedCrystal
_audit_creation_method	'MofGen! by Chris Wilmer'
_symmetry_space_group_name_H-M	'P1'
_symmetry_Int_Tables_number	1
_symmetry_cell_setting	triclinic
loop_
_symmetry_equiv_pos_as_xyz
  x,y,z
_cell_length_a	14.853566
_cell_length_b	16.109301
_cell_length_c	14.586319
_cell_angle_alpha	89.994786
_cell_angle_beta	89.999342
_cell_angle_gamma	83.547948
loop_
_atom_site_label
_atom_site_type_symbol
_atom_site_fract_x
_atom_site_fract_y
_atom_site_fract_z
O1	O	1.196185	0.108541	-0.076183
O2	O	0.933704	0.121473	-0.076198
O3	O	1.072155	-0.006014	-0.076181
O4	O	1.057734	0.236028	-0.076200
O5	O	1.072145	-0.006015	0.076300
O6	O	0.933694	0.121471	0.076283
O7	O	1.196175	0.108540	0.076298
Cu8	Cu	1.064934	0.115005	0.090213
Cu9	Cu	1.064945	0.115007	-0.090113
O10	O	1.057724	0.236026	0.076281
C11	C	1.071566	-0.036990	0.000060
C12	C	1.069815	-0.129288	0.000061
C13	C	0.900111	0.120886	0.000040
C14	C	0.800031	0.119131	0.000035
C15	C	1.147897	-0.351451	0.000051
C16	C	1.146244	-0.438174	0.000044
C17	C	0.981977	-0.418529	0.000038
C18	C	0.983630	-0.331808	0.000039
C19	C	1.066593	-0.298272	0.000050
C20	C	1.063287	-0.471716	0.000042
C21	C	1.061494	-0.565744	0.000033
C22	C	1.068386	-0.204237	0.000057
C23	C	0.376863	0.111708	-0.083066
C24	C	0.376874	0.111706	0.083175
C25	C	0.470905	0.113355	0.083172
C26	C	0.517920	0.114181	0.000049
C27	C	0.470903	0.113359	-0.083071
C28	C	0.517928	0.114185	0.166290
C29	C	0.611965	0.115835	0.166291
C30	C	0.658982	0.116655	0.083166
C31	C	0.611960	0.115832	0.000043
C32	C	0.658974	0.116658	-0.083080
C33	C	0.611954	0.115829	-0.166204
C34	C	0.517920	0.114179	-0.166195
C35	C	0.753016	0.118305	0.083158
C36	C	0.753014	0.118309	-0.083085
C37	C	1.229768	0.109126	0.000058
C38	C	1.329849	0.110882	0.000057
C39	C	1.058313	0.267003	0.000038
C40	C	1.060065	0.359301	0.000030
N41	N	1.064933	0.115003	0.217045
N42	N	1.064954	0.115003	-0.216945
C43	C	1.126259	0.058571	0.452059
C44	C	1.126262	0.058569	0.548040
C45	C	1.003621	0.171438	0.548034
C46	C	1.003615	0.171435	0.452055
C47	C	1.064939	0.115003	0.404070
C48	C	1.064948	0.115003	0.596030
C49	C	1.064950	0.115002	0.700097
C50	C	1.064936	0.115003	0.299996
H51	H	1.215450	-0.324149	0.000059
H52	H	1.212450	-0.481469	0.000043
O53	O	1.185874	0.003847	0.405384
C54	C	1.241465	0.048429	0.349808
H55	H	1.243030	0.113994	0.378721
H56	H	1.313110	0.014585	0.348680
H57	H	1.213209	0.052757	0.277083
H58	H	1.176193	0.012616	0.587111
H59	H	0.338576	0.111029	-0.150744
O60	O	0.944147	0.226228	0.594791
C61	C	0.957286	0.214119	0.689796
H62	H	1.028969	0.183162	0.702903
H63	H	0.947242	0.277067	0.726264
H64	H	0.906275	0.172337	0.717046
O65	O	0.944135	0.226373	0.405474
C66	C	0.958749	0.308702	0.428929
H67	H	1.030927	0.309230	0.455309
H68	H	0.948363	0.350407	0.365803
H69	H	0.908777	0.333042	0.484640
O70	O	0.901469	-0.451247	0.000076
C71	C	0.917442	-0.539193	0.000055
H72	H	0.987802	-0.559481	0.028923
H73	H	0.864359	-0.565881	0.044325
H74	H	0.913079	-0.563333	-0.073097
H75	H	0.917419	-0.288507	0.000035
H76	H	0.479641	0.113518	0.233964
H77	H	0.791287	0.118979	-0.150775
O78	O	0.657712	0.116747	-0.246889
C79	C	0.701847	0.189665	-0.251875
H80	H	0.712512	0.213900	-0.179708
H81	H	0.770279	0.174650	-0.287045
H82	H	0.658442	0.239406	-0.292902
H83	H	0.479628	0.113503	-0.233871
H84	H	0.338589	0.111039	0.150849
O85	O	0.657616	0.116484	0.247057
C86	C	0.644846	0.044142	0.297637
H87	H	0.626143	-0.006596	0.249005
H88	H	0.710120	0.021071	0.335341
H89	H	0.587950	0.059452	0.349465
O90	O	0.798673	0.118961	0.163917
C91	C	0.785907	0.046623	0.214506
H92	H	0.767203	-0.004119	0.165881
H93	H	0.851184	0.023557	0.252207
H94	H	0.729015	0.061936	0.266336
