data_functionalizedCrystal
_audit_creation_method	'MofGen! by Chris Wilmer'
_symmetry_space_group_name_H-M	'P1'
_symmetry_Int_Tables_number	1
_symmetry_cell_setting	triclinic
loop_
_symmetry_equiv_pos_as_xyz
  x,y,z
_cell_length_a	10.654550
_cell_length_b	13.101039
_cell_length_c	10.654551
_cell_angle_alpha	86.602350
_cell_angle_beta	84.485132
_cell_angle_gamma	93.393769
loop_
_atom_site_label
_atom_site_type_symbol
_atom_site_fract_x
_atom_site_fract_y
_atom_site_fract_z
O1	O	1.674697	0.085293	0.169521
O2	O	1.309217	0.085275	0.186328
O3	O	1.500359	0.085285	-0.004815
O4	O	1.483555	0.085283	0.360664
O5	O	1.486645	-0.085146	0.008922
O6	O	1.295503	-0.085155	0.200065
O7	O	1.660983	-0.085138	0.183258
Zn8	Zn	1.476065	-0.112206	0.193843
Zn9	Zn	1.494134	0.112343	0.175743
O10	O	1.469840	-0.085147	0.374401
C11	C	1.255562	0.000058	0.191963
C12	C	1.116118	0.000052	0.188272
C13	C	1.036634	0.000066	0.300812
C14	C	0.905615	0.000084	0.297334
C15	C	0.933577	0.000077	0.068765
C16	C	1.064593	0.000052	0.072245
C17	C	1.088159	0.000066	0.416839
C18	C	1.008674	0.000081	0.529388
C19	C	0.877655	0.000099	0.525910
C20	C	0.826120	0.000101	0.409883
N21	N	1.463743	-0.265455	0.206194
C22	C	1.446978	-0.474499	0.223011
C23	C	1.523227	-0.525371	0.146570
C24	C	1.513899	-0.641689	0.155926
C25	C	1.456305	-0.358169	0.213655
C26	C	1.714638	0.000082	0.177623
C27	C	1.854082	0.000095	0.181314
C28	C	1.492268	0.000072	-0.044744
C29	C	1.488576	0.000079	-0.184188
N30	N	1.506467	0.265593	0.163382
C31	C	1.494320	0.092978	-0.257188
C32	C	1.490839	0.092974	-0.388208
C33	C	1.475877	-0.092839	-0.373216
C34	C	1.479348	-0.092833	-0.242198
C35	C	1.503548	0.185890	-0.199178
C36	C	1.509293	0.278798	-0.272179
C37	C	1.505812	0.278793	-0.403199
C38	C	1.496586	0.185881	-0.461218
C39	C	1.477932	0.000068	0.414330
C40	C	1.481624	0.000068	0.553773
H41	H	0.719433	0.000100	0.407061
F42	F	0.793063	0.000106	0.645693
H43	H	1.506386	0.185905	-0.092496
F44	F	1.618089	-0.468117	0.052225
H45	H	1.194841	0.000056	0.419683
H46	H	1.374699	-0.518299	0.295477
H47	H	0.891608	0.000096	-0.025701
F48	F	1.063522	0.000069	0.652866
H49	H	1.510477	0.354442	-0.462632
H50	H	1.129312	0.000043	-0.019396
H51	H	1.516792	0.354443	-0.224930
F52	F	1.492870	0.185880	-0.600662
H53	H	1.468366	-0.168484	-0.420467
F54	F	1.473242	-0.191708	-0.164502
