data_functionalizedCrystal
_audit_creation_method	'MofGen! by Chris Wilmer'
_symmetry_space_group_name_H-M	'P1'
_symmetry_Int_Tables_number	1
_symmetry_cell_setting	triclinic
loop_
_symmetry_equiv_pos_as_xyz
  x,y,z
_cell_length_a	16.625546
_cell_length_b	16.625547
_cell_length_c	21.395356
_cell_angle_alpha	89.979278
_cell_angle_beta	89.971853
_cell_angle_gamma	90.022405
loop_
_atom_site_label
_atom_site_type_symbol
_atom_site_fract_x
_atom_site_fract_y
_atom_site_fract_z
Zn1	Zn	-0.321019	1.232648	-0.354332
Zn2	Zn	0.012314	1.565981	-0.020999
Zn3	Zn	0.345647	1.899315	0.312334
Zn4	Zn	-0.455857	1.232561	-0.249555
Zn5	Zn	-0.122524	1.565894	0.083778
Zn6	Zn	0.210809	1.899227	0.417112
Zn7	Zn	-0.321042	1.097819	-0.249561
Zn8	Zn	0.012291	1.431153	0.083772
Zn9	Zn	0.345625	1.764486	0.417105
Zn10	Zn	-0.455814	1.097780	-0.354287
Zn11	Zn	-0.122480	1.431113	-0.020954
Zn12	Zn	0.210853	1.764447	0.312379
O13	O	-0.388433	1.165202	-0.301934
O14	O	-0.055100	1.498535	0.031399
O15	O	0.278234	1.831869	0.364733
O16	O	-0.338915	1.345469	-0.340449
O17	O	-0.005581	1.678802	-0.007116
O18	O	0.327752	2.012135	0.326217
O19	O	-0.438002	1.214667	-0.161878
O20	O	-0.104668	1.548000	0.171456
O21	O	0.228665	1.881334	0.504789
O22	O	-0.208207	1.115758	-0.263481
O23	O	0.125127	1.449091	0.069852
O24	O	0.458460	1.782424	0.403186
O25	O	-0.437979	1.345405	-0.263470
O26	O	-0.104646	1.678738	0.069863
O27	O	0.228687	2.012071	0.403197
O28	O	-0.208190	1.214815	-0.340456
O29	O	0.125143	1.548149	-0.007122
O30	O	0.458477	1.881482	0.326211
O31	O	-0.338953	1.115673	-0.161883
O32	O	-0.005620	1.449006	0.171451
O33	O	0.327713	1.782340	0.504784
O34	O	-0.338911	0.984982	-0.263437
O35	O	-0.005578	1.318315	0.069896
O36	O	0.327756	1.651648	0.403229
O37	O	-0.437905	1.115691	-0.441971
O38	O	-0.104572	1.449024	-0.108638
O39	O	0.228762	1.782357	0.224695
O40	O	-0.437927	0.984953	-0.340379
O41	O	-0.104594	1.318286	-0.007046
O42	O	0.228740	1.651620	0.326288
O43	O	-0.338872	1.214777	-0.442004
O44	O	-0.005539	1.548111	-0.108671
O45	O	0.327794	1.881444	0.224662
O46	O	-0.568684	1.214629	-0.263426
O47	O	-0.235351	1.547962	0.069907
O48	O	0.097983	1.881296	0.403240
O49	O	-0.568652	1.115606	-0.340373
O50	O	-0.235318	1.448939	-0.007040
O51	O	0.098015	1.782273	0.326294
C52	C	-0.388417	0.955711	-0.301904
C53	C	-0.055084	1.289044	0.031429
C54	C	0.278249	1.622378	0.364762
C55	C	-0.388430	0.866090	-0.301907
C56	C	-0.055097	1.199423	0.031427
C57	C	0.278237	1.532757	0.364760
C58	C	-0.388432	0.793308	-0.301914
C59	C	-0.055098	1.126641	0.031419
C60	C	0.278235	1.459974	0.364752
C61	C	-0.388436	0.701999	-0.301930
C62	C	-0.055103	1.035332	0.031403
C63	C	0.278231	1.368666	0.364737
C64	C	-0.388443	0.629223	-0.301946
C65	C	-0.055110	0.962556	0.031387
C66	C	0.278223	1.295889	0.364721
C67	C	-0.388449	0.537908	-0.301961
C68	C	-0.055116	0.871242	0.031372
C69	C	0.278218	1.204575	0.364706
C70	C	-0.597924	1.165126	-0.301908
C71	C	-0.264591	1.498459	0.031426
C72	C	0.068743	1.831792	0.364759
C73	C	-0.687545	1.165167	-0.301917
C74	C	-0.354212	1.498500	0.031416
C75	C	-0.020878	1.831833	0.364749
C76	C	-1.015721	1.165307	-0.301983
C77	C	-0.682387	1.498641	0.031351
C78	C	-0.349054	1.831974	0.364684
C79	C	-0.924412	1.165266	-0.301966
C80	C	-0.591079	1.498599	0.031367
C81	C	-0.257746	1.831932	0.364700
C82	C	-0.851636	1.165237	-0.301950
C83	C	-0.518302	1.498570	0.031384
C84	C	-0.184969	1.831903	0.364717
C85	C	-0.760322	1.165196	-0.301934
C86	C	-0.426988	1.498529	0.031399
C87	C	-0.093655	1.831863	0.364733
C88	C	-0.178124	1.165301	-0.301974
C89	C	0.155209	1.498634	0.031359
C90	C	0.488542	1.831967	0.364693
C91	C	-0.088503	1.165343	-0.301991
C92	C	0.244830	1.498676	0.031342
C93	C	0.578164	1.832009	0.364676
C94	C	-0.388381	1.165239	-0.465357
C95	C	-0.055048	1.498573	-0.132024
C96	C	0.278285	1.831906	0.201309
C97	C	-0.388359	1.165255	-0.534999
C98	C	-0.055026	1.498589	-0.201665
C99	C	0.278307	1.831922	0.131668
C100	C	-0.388449	1.375511	-0.301964
C101	C	-0.055116	1.708844	0.031369
C102	C	0.278217	2.042178	0.364703
C103	C	-0.388456	1.465132	-0.301977
C104	C	-0.055123	1.798465	0.031356
C105	C	0.278210	2.131799	0.364690
C106	C	-0.336664	1.216926	-1.036813
C107	C	-0.003331	1.550259	-0.703480
C108	C	0.330002	1.883592	-0.370147
C109	C	-0.336684	1.216919	-0.971378
C110	C	-0.003351	1.550253	-0.638044
C111	C	0.329983	1.883586	-0.304711
C112	C	-0.388252	1.165324	-0.938637
C113	C	-0.054919	1.498658	-0.605304
C114	C	0.278415	1.831991	-0.271970
C115	C	-0.439819	1.113747	-0.971337
C116	C	-0.106486	1.447080	-0.638004
C117	C	0.226848	1.780413	-0.304671
C118	C	-0.439804	1.113760	-1.036771
C119	C	-0.106470	1.447094	-0.703438
C120	C	0.226863	1.780427	-0.370105
C121	C	-0.394637	1.092656	-0.834957
C122	C	-0.061304	1.425989	-0.501624
C123	C	0.272029	1.759322	-0.168290
C124	C	-0.394647	1.092641	-0.769524
C125	C	-0.061313	1.425974	-0.436191
C126	C	0.272020	1.759307	-0.102857
C127	C	-0.388303	1.165283	-0.736816
C128	C	-0.054970	1.498616	-0.403483
C129	C	0.278363	1.831950	-0.070150
C130	C	-0.381934	1.237943	-0.769550
C131	C	-0.048600	1.571276	-0.436216
C132	C	0.284733	1.904609	-0.102883
C133	C	-0.381918	1.237956	-0.834984
C134	C	-0.048585	1.571290	-0.501650
C135	C	0.284748	1.904623	-0.168317
C136	C	-0.388274	1.165304	-0.867685
C137	C	-0.054941	1.498638	-0.534351
C138	C	0.278392	1.831971	-0.201018
C139	C	-0.336765	1.216855	-0.633171
C140	C	-0.003431	1.550188	-0.299838
C141	C	0.329902	1.883521	0.033495
C142	C	-0.336790	1.216850	-0.567735
C143	C	-0.003456	1.550183	-0.234401
C144	C	0.329877	1.883516	0.098932
C145	C	-0.439921	1.113670	-0.567696
C146	C	-0.106587	1.447003	-0.234362
C147	C	0.226746	1.780337	0.098971
C148	C	-0.439900	1.113682	-0.633131
C149	C	-0.106566	1.447015	-0.299798
C150	C	0.226767	1.780349	0.033536
C151	C	-0.388317	1.165273	-0.665865
C152	C	-0.054984	1.498607	-0.332532
C153	C	0.278349	1.831940	0.000802
C154	C	-0.388427	1.165211	-0.139146
C155	C	-0.055093	1.498545	0.194187
C156	C	0.278240	1.831878	0.527520
C157	C	-0.388221	1.165351	-0.069505
C158	C	-0.054888	1.498685	0.263828
C159	C	0.278445	1.832018	0.597161
H160	H	-0.294666	1.258939	-1.063461
H161	H	0.038668	1.592272	-0.730128
H162	H	0.372001	1.925606	-0.396794
Br163	Br	-0.266710	1.286919	-0.927000
Br164	Br	0.066623	1.620252	-0.593666
Br165	Br	0.399957	1.953586	-0.260333
H166	H	-0.376765	1.297095	-0.742920
H167	H	-0.043432	1.630428	-0.409587
H168	H	0.289901	1.963762	-0.076254
Br169	Br	-0.509810	1.043729	-0.926906
Br170	Br	-0.176476	1.377063	-0.593572
Br171	Br	0.156857	1.710396	-0.260239
H172	H	-0.481789	1.071761	-1.063389
H173	H	-0.148456	1.405094	-0.730056
H174	H	0.184878	1.738428	-0.396723
H175	H	-0.399833	1.033477	-0.742877
H176	H	-0.066499	1.366810	-0.409544
H177	H	0.266834	1.700144	-0.076211
H178	H	-0.294763	1.258863	-0.659825
H179	H	0.038570	1.592196	-0.326491
H180	H	0.371904	1.925530	0.006842
Br181	Br	-0.373285	1.336561	-0.879406
Br182	Br	-0.039952	1.669894	-0.546073
Br183	Br	0.293382	2.003227	-0.212740
H184	H	-0.294808	1.258853	-0.541118
H185	H	0.038525	1.592187	-0.207784
H186	H	0.371859	1.925520	0.125549
H187	H	-0.481911	1.071663	-0.541039
H188	H	-0.148578	1.404997	-0.207705
H189	H	0.184755	1.738330	0.125628
Br190	Br	-0.403237	0.994059	-0.879339
Br191	Br	-0.069903	1.327393	-0.546006
Br192	Br	0.263430	1.660726	-0.212673
Br193	Br	-0.509874	1.043685	-0.677502
Br194	Br	-0.176541	1.377018	-0.344169
Br195	Br	0.156792	1.710352	-0.010836
