data_functionalizedCrystal
_audit_creation_method	'MofGen! by Chris Wilmer'
_symmetry_space_group_name_H-M	'P1'
_symmetry_Int_Tables_number	1
_symmetry_cell_setting	triclinic
loop_
_symmetry_equiv_pos_as_xyz
  x,y,z
_cell_length_a	14.853554
_cell_length_b	9.065215
_cell_length_c	8.140239
_cell_angle_alpha	89.997810
_cell_angle_beta	90.002912
_cell_angle_gamma	95.677926
loop_
_atom_site_label
_atom_site_type_symbol
_atom_site_fract_x
_atom_site_fract_y
_atom_site_fract_z
O1	O	-0.132179	1.957770	-0.136592
O2	O	0.367821	2.457770	0.363408
O3	O	-0.143025	1.528269	-0.136599
O4	O	0.356975	2.028269	0.363401
O5	O	-0.006456	1.754502	-0.136587
O6	O	0.493544	2.254502	0.363413
O7	O	-0.268748	1.731537	-0.136604
O8	O	0.231252	2.231537	0.363396
O9	O	-0.006455	1.754490	0.136640
O10	O	0.493545	2.254490	0.636640
O11	O	-0.143023	1.528256	0.136628
O12	O	0.356977	2.028256	0.636628
O13	O	-0.132178	1.957758	0.136635
O14	O	0.367822	2.457758	0.636635
Zn15	Zn	-0.137600	1.743005	0.180012
Zn16	Zn	0.362400	2.243005	0.680012
Zn17	Zn	-0.137602	1.743021	-0.179976
Zn18	Zn	0.362398	2.243021	0.320024
O19	O	-0.268746	1.731524	0.136623
O20	O	0.231254	2.231524	0.636623
C21	C	-0.141982	1.473297	0.000013
C22	C	0.358018	1.973297	0.500013
C23	C	-0.138868	1.309516	0.000011
C24	C	0.361132	1.809516	0.500011
C25	C	-0.302344	1.732567	0.000007
C26	C	0.197656	2.232567	0.500007
C27	C	-0.402451	1.735675	0.000000
C28	C	0.097549	2.235675	0.500000
C29	C	-0.825728	1.748892	-0.148923
C30	C	-0.325728	2.248892	0.351077
C31	C	-0.825712	1.748878	0.148959
C32	C	-0.325712	2.248878	0.648959
C33	C	-0.731657	1.745940	0.148958
C34	C	-0.231657	2.245940	0.648958
C35	C	-0.684633	1.744480	0.000014
C36	C	-0.184633	2.244480	0.500014
C37	C	-0.731664	1.745958	-0.148929
C38	C	-0.231664	2.245958	0.351071
C39	C	-0.684618	1.744477	0.297898
C40	C	-0.184618	2.244477	0.797898
C41	C	-0.590557	1.741541	0.297903
C42	C	-0.090557	2.241541	0.797903
C43	C	-0.543532	1.740070	0.148957
C44	C	-0.043532	2.240070	0.648957
C45	C	-0.590569	1.741546	0.000008
C46	C	-0.090569	2.241546	0.500008
C47	C	-0.543546	1.740087	-0.148937
C48	C	-0.043546	2.240087	0.351063
C49	C	-0.590582	1.741552	-0.297887
C50	C	-0.090582	2.241552	0.202113
C51	C	-0.684640	1.744487	-0.297876
C52	C	-0.184640	2.244487	0.202124
C53	C	-0.449475	1.737135	0.148945
C54	C	0.050525	2.237135	0.648945
C55	C	-0.449482	1.737153	-0.148943
C56	C	0.050518	2.237153	0.351057
C57	C	0.027141	1.753459	0.000025
C58	C	0.527141	2.253459	0.500025
C59	C	0.127248	1.750352	0.000021
C60	C	0.627248	2.250352	0.500021
C61	C	-0.133220	2.012730	0.000019
C62	C	0.366780	2.512730	0.500019
C63	C	-0.136335	2.176511	0.000011
C64	C	0.363665	2.676511	0.500011
N65	N	-0.137598	1.743005	0.425695
N66	N	0.362402	2.243005	0.925695
N67	N	-0.137597	1.743034	-0.425659
N68	N	0.362403	2.243034	0.074341
H69	H	-0.552282	1.740372	-0.419158
H70	H	-0.052282	2.240372	0.080842
H71	H	-0.552268	1.740346	0.419188
H72	H	-0.052268	2.240346	0.919188
H73	H	-0.864003	1.750078	0.270223
H74	H	-0.364003	2.250078	0.770223
H75	H	-0.411182	1.735947	0.270218
H76	H	0.088818	2.235947	0.770218
H77	H	-0.411203	1.735953	-0.270233
H78	H	0.088797	2.235953	0.229767
C79	C	-0.877461	1.750510	-0.312757
C80	C	-0.377461	2.250510	0.187243
H81	H	-0.940214	1.752474	-0.291430
H82	H	-0.440214	2.252474	0.208570
H83	H	-0.868223	1.664071	-0.373959
H84	H	-0.368223	2.164071	0.126041
H85	H	-0.855871	1.836011	-0.373945
H86	H	-0.355871	2.336011	0.126055
H87	H	-0.722944	1.745686	-0.419143
H88	H	-0.222944	2.245686	0.080857
H89	H	-0.722910	1.745677	0.419160
H90	H	-0.222910	2.245677	0.919160
