data_functionalizedCrystal
_audit_creation_method	'MofGen! by Chris Wilmer'
_symmetry_space_group_name_H-M	'P1'
_symmetry_Int_Tables_number	1
_symmetry_cell_setting	triclinic
loop_
_symmetry_equiv_pos_as_xyz
  x,y,z
_cell_length_a	10.654550
_cell_length_b	15.995350
_cell_length_c	9.130313
_cell_angle_alpha	90.000982
_cell_angle_beta	89.996220
_cell_angle_gamma	83.988639
loop_
_atom_site_label
_atom_site_type_symbol
_atom_site_fract_x
_atom_site_fract_y
_atom_site_fract_z
O1	O	1.666298	0.117599	-0.121912
O2	O	1.300673	0.128803	-0.121888
O3	O	1.493480	0.001371	-0.121899
O4	O	1.473491	0.245030	-0.121900
O5	O	1.493478	0.001375	0.121700
O6	O	1.300671	0.128807	0.121711
O7	O	1.666295	0.117602	0.121687
Cu8	Cu	1.483483	0.123205	0.143942
Cu9	Cu	1.483486	0.123201	-0.144142
O10	O	1.473488	0.245034	0.121698
C11	C	1.253885	0.127982	-0.000085
C12	C	1.114473	0.125521	-0.000076
C13	C	1.034008	0.200551	-0.000098
C14	C	0.903017	0.198233	-0.000123
C15	C	0.932971	0.045849	-0.000111
C16	C	1.063959	0.048168	-0.000075
C17	C	1.016713	0.288528	-0.000111
C18	C	0.885722	0.286211	-0.000137
C19	C	1.492652	-0.029827	-0.000102
C20	C	1.490175	-0.122791	-0.000110
C21	C	1.481278	-0.460591	-0.000105
C22	C	1.343964	-0.413954	-0.000642
C23	C	1.346442	-0.317249	-0.000093
C24	C	1.485691	-0.293004	-0.000108
C25	C	1.553417	-0.333687	0.138991
C26	C	1.549968	-0.430342	0.139108
C27	C	1.552807	-0.430688	-0.137910
C28	C	1.552775	-0.333743	-0.139748
C29	C	1.488192	-0.198292	-0.000106
C30	C	1.478780	-0.555303	-0.000098
C31	C	1.713084	0.118423	-0.000119
C32	C	1.852495	0.120884	-0.000137
C33	C	1.474316	0.276232	-0.000101
C34	C	1.476793	0.369197	-0.000103
N35	N	1.483490	0.123207	0.346564
N36	N	1.483488	0.123192	-0.346765
C37	C	1.568887	0.066800	0.423211
C38	C	1.568883	0.066789	0.576548
C39	C	1.398083	0.179602	0.576578
C40	C	1.398081	0.179607	0.423244
C41	C	1.667501	0.001671	0.423195
C42	C	1.667497	0.001661	0.576532
H43	H	1.052003	0.316540	-0.105283
Br44	Br	1.282172	0.256139	0.680650
H45	H	1.500580	-0.448929	0.243098
H46	H	0.891826	-0.017130	-0.000133
H47	H	1.503258	-0.306783	-0.242650
H48	H	1.654048	-0.461861	-0.138855
Br49	Br	1.064861	0.345884	0.169801
H50	H	1.758418	0.022063	0.375631
H51	H	1.650782	-0.462005	0.145409
H52	H	1.637779	-0.059156	0.624082
H53	H	1.654321	-0.317791	-0.148158
Br54	Br	1.475017	-0.286839	0.311544
H55	H	0.839702	0.312800	0.105032
H56	H	1.507914	-0.451490	-0.243339
Br57	Br	0.815433	0.341456	-0.170057
H58	H	1.293204	-0.289138	-0.099805
H59	H	1.328534	0.225531	0.360839
H60	H	1.646899	-0.062686	0.381577
H61	H	1.289082	-0.432806	-0.100393
Br62	Br	1.828041	0.025560	0.645900
H63	H	1.129471	-0.012929	-0.000037
Br64	Br	1.252628	-0.447538	0.164195
H65	H	1.292844	-0.289694	0.099796
H66	H	1.655720	-0.318967	0.144153
