data_functionalizedCrystal
_audit_creation_method	'MofGen! by Chris Wilmer'
_symmetry_space_group_name_H-M	'P1'
_symmetry_Int_Tables_number	1
_symmetry_cell_setting	triclinic
loop_
_symmetry_equiv_pos_as_xyz
  x,y,z
_cell_length_a	16.120444
_cell_length_b	12.827893
_cell_length_c	12.827885
_cell_angle_alpha	90.020999
_cell_angle_beta	92.864671
_cell_angle_gamma	87.075205
loop_
_atom_site_label
_atom_site_type_symbol
_atom_site_fract_x
_atom_site_fract_y
_atom_site_fract_z
Zn1	Zn	-0.331906	-1.576494	-0.611951
Zn2	Zn	0.168094	-1.076494	-0.111951
Zn3	Zn	-0.471342	-1.567492	-0.446056
Zn4	Zn	0.028658	-1.067492	0.053944
Zn5	Zn	-0.331943	-1.401733	-0.437221
Zn6	Zn	0.168057	-0.901733	0.062779
Zn7	Zn	-0.471276	-1.392828	-0.620746
Zn8	Zn	0.028724	-0.892828	-0.120746
O9	O	-0.401617	-1.484637	-0.528994
O10	O	0.098383	-0.984637	-0.028994
O11	O	-0.350415	-1.721535	-0.589961
O12	O	0.149585	-1.221535	-0.089961
O13	O	-0.452893	-1.545462	-0.298650
O14	O	0.047107	-1.045462	0.201350
O15	O	-0.215272	-1.432409	-0.453021
O16	O	0.284728	-0.932409	0.046979
O17	O	-0.452858	-1.714921	-0.468078
O18	O	0.047142	-1.214921	0.031922
O19	O	-0.215245	-1.560805	-0.581394
O20	O	0.284755	-1.060805	-0.081394
O21	O	-0.350477	-1.423680	-0.292160
O22	O	0.149523	-0.923680	0.207840
O23	O	-0.350413	-1.254316	-0.461550
O24	O	0.149587	-0.754316	0.038450
O25	O	-0.452745	-1.417233	-0.765813
O26	O	0.047255	-0.917233	-0.265813
O27	O	-0.452780	-1.247774	-0.596385
O28	O	0.047220	-0.747774	-0.096385
O29	O	-0.350351	-1.552171	-0.759351
O30	O	0.149649	-1.052171	-0.259351
O31	O	-0.587999	-1.536828	-0.476607
O32	O	-0.087999	-1.036828	0.023393
O33	O	-0.587950	-1.408504	-0.604951
O34	O	-0.087950	-0.908504	-0.104951
C35	C	-0.401594	-1.213128	-0.528964
C36	C	0.098406	-0.713128	-0.028964
C37	C	-0.401604	-1.096974	-0.528977
C38	C	0.098396	-0.596974	-0.028977
C39	C	-0.618224	-1.470751	-0.542715
C40	C	-0.118224	-0.970751	-0.042715
C41	C	-0.710890	-1.464907	-0.548620
C42	C	-0.210890	-0.964907	-0.048620
C43	C	-0.401537	-1.484713	-0.801559
C44	C	0.098463	-0.984713	-0.301559
C45	C	-0.401502	-1.484745	-0.917710
C46	C	0.098498	-0.984745	-0.417710
C47	C	-0.921836	-1.515211	-0.498585
C48	C	-0.421836	-1.015211	0.001415
C49	C	-0.880546	-1.454256	-0.559413
C50	C	-0.380546	-0.954256	-0.059413
C51	C	-0.786141	-1.460184	-0.553406
C52	C	-0.286141	-0.960184	-0.053406
C53	C	-1.016250	-1.509284	-0.504591
C54	C	-0.516250	-1.009284	-0.004591
C55	C	-0.184163	-1.498604	-0.515241
C56	C	0.315837	-0.998604	-0.015241
C57	C	-0.091497	-1.504557	-0.509381
C58	C	0.408503	-1.004557	-0.009381
C59	C	-0.452346	-0.921930	-0.595616
C60	C	0.047654	-0.421930	-0.095616
C61	C	-0.452336	-1.041981	-0.595603
C62	C	0.047664	-0.541981	-0.095603
C63	C	-0.401633	-0.757206	-0.529015
C64	C	0.098367	-0.257206	-0.029015
C65	C	-0.401623	-0.873359	-0.529002
C66	C	0.098377	-0.373359	-0.029002
C67	C	-0.350825	-1.551524	-0.966296
C68	C	0.149175	-1.051524	-0.466296
C69	C	-0.350788	-1.551560	-1.086344
C70	C	0.149212	-1.051560	-0.586344
C71	C	-0.401636	-1.484625	-0.257485
C72	C	0.098364	-0.984625	0.242515
C73	C	-0.401435	-1.484810	-0.141319
C74	C	0.098565	-0.984810	0.358681
H75	H	-0.916098	-1.397617	-0.616000
H76	H	-0.416098	-0.897617	-0.116000
H77	H	-0.886288	-1.571845	-0.442001
H78	H	-0.386288	-1.071845	0.057999
H79	H	-0.307462	-1.608667	-0.919018
H80	H	0.192538	-1.108667	-0.419018
O81	O	-0.504030	-1.091939	-0.663690
O82	O	-0.004030	-0.591939	-0.163690
C83	C	-0.456576	-1.158120	-0.728231
C84	C	0.043424	-0.658120	-0.228231
H85	H	-0.393347	-1.178392	-0.687483
H86	H	0.106653	-0.678392	-0.187483
H87	H	-0.447523	-1.116733	-0.805160
H88	H	0.052477	-0.616733	-0.305160
C89	C	-0.580037	-1.234038	-0.799907
C90	C	-0.080037	-0.734038	-0.299907
C91	C	-0.502382	-1.258944	-0.749855
C92	C	-0.002382	-0.758944	-0.249855
H93	H	-0.608293	-1.296229	-0.813251
H94	H	-0.108293	-0.796229	-0.313251
H95	H	-0.612009	-1.189449	-0.756428
H96	H	-0.112009	-0.689449	-0.256428
H97	H	-0.572482	-1.199547	-0.864009
H98	H	-0.072482	-0.699547	-0.364009
H99	H	-0.509938	-1.293423	-0.685750
H100	H	-0.009938	-0.793423	-0.185750
H101	H	-0.470412	-1.303542	-0.793325
H102	H	0.029588	-0.803542	-0.293325
O103	O	-0.504086	-0.865362	-0.663629
O104	O	-0.004086	-0.365362	-0.163629
C105	C	-0.492588	-0.758090	-0.648487
C106	C	0.007412	-0.258090	-0.148487
H107	H	-0.428207	-0.747390	-0.610303
H108	H	0.071793	-0.247390	-0.110303
H109	H	-0.541967	-0.723931	-0.595839
H110	H	-0.041967	-0.223931	-0.095839
C111	C	-0.579365	-0.714649	-0.801546
C112	C	-0.079365	-0.214649	-0.301546
C113	C	-0.500288	-0.701507	-0.754656
C114	C	-0.000288	-0.201507	-0.254656
H115	H	-0.584119	-0.679744	-0.867035
H116	H	-0.084119	-0.179744	-0.367035
H117	H	-0.587115	-0.786920	-0.811746
H118	H	-0.087115	-0.286920	-0.311746
H119	H	-0.620505	-0.686184	-0.757662
H120	H	-0.120505	-0.186184	-0.257662
H121	H	-0.459150	-0.729984	-0.798533
H122	H	0.040850	-0.229984	-0.298533
H123	H	-0.492532	-0.629239	-0.744466
H124	H	0.007468	-0.129239	-0.244466
H125	H	-0.444828	-1.427638	-1.099531
H126	H	0.055172	-0.927638	-0.599531
H127	H	-0.307404	-1.608735	-1.128140
H128	H	0.192596	-1.108735	-0.628140
O129	O	-0.349714	-1.047311	-0.460894
O130	O	0.150286	-0.547311	0.039106
C131	C	-0.302558	-1.121761	-0.398925
C132	C	0.197442	-0.621761	0.101075
H133	H	-0.299649	-1.199799	-0.441471
H134	H	0.200351	-0.699799	0.058529
H135	H	-0.333005	-1.131344	-0.321414
H136	H	0.166995	-0.631344	0.178586
C137	C	-0.217420	-0.988874	-0.326210
C138	C	0.282580	-0.488874	0.173790
C139	C	-0.213841	-1.084720	-0.378470
C140	C	0.286159	-0.584720	0.121530
H141	H	-0.162696	-0.966025	-0.313588
H142	H	0.337304	-0.466025	0.186412
H143	H	-0.249191	-0.938715	-0.367957
H144	H	0.250809	-0.438715	0.132043
H145	H	-0.242796	-0.996873	-0.261624
H146	H	0.257204	-0.496873	0.238376
H147	H	-0.188475	-1.076717	-0.443061
H148	H	0.311525	-0.576717	0.056939
H149	H	-0.182064	-1.134877	-0.336734
H150	H	0.317936	-0.634877	0.163266
H151	H	-0.358193	-0.920653	-0.471958
H152	H	0.141807	-0.420653	0.028042
O153	O	-0.453351	-1.416610	-0.973993
O154	O	0.046649	-0.916610	-0.473993
C155	C	-0.536473	-1.434099	-0.952678
C156	C	-0.036473	-0.934099	-0.452678
H157	H	-0.538284	-1.474063	-0.873523
H158	H	-0.038284	-0.974063	-0.373523
H159	H	-0.564494	-1.486097	-1.015863
H160	H	-0.064494	-0.986097	-0.515863
C161	C	-0.584747	-1.279890	-1.048186
C162	C	-0.084747	-0.779890	-0.548186
C163	C	-0.586972	-1.328968	-0.950962
C164	C	-0.086972	-0.828968	-0.450962
H165	H	-0.615899	-1.215042	-1.047132
H166	H	-0.115899	-0.715042	-0.547132
H167	H	-0.528747	-1.268109	-1.062550
H168	H	-0.028747	-0.768109	-0.562550
H169	H	-0.608097	-1.323233	-1.100830
H170	H	-0.108097	-0.823233	-0.600830
H171	H	-0.563613	-1.285631	-0.898322
H172	H	-0.063613	-0.785631	-0.398322
H173	H	-0.642970	-1.340739	-0.936589
H174	H	-0.142970	-0.840739	-0.436589
