data_functionalizedCrystal
_audit_creation_method	'MofGen! by Chris Wilmer'
_symmetry_space_group_name_H-M	'P1'
_symmetry_Int_Tables_number	1
_symmetry_cell_setting	triclinic
loop_
_symmetry_equiv_pos_as_xyz
  x,y,z
_cell_length_a	14.044220
_cell_length_b	16.109301
_cell_length_c	14.586319
_cell_angle_alpha	90.005214
_cell_angle_beta	89.998609
_cell_angle_gamma	88.325179
loop_
_atom_site_label
_atom_site_type_symbol
_atom_site_fract_x
_atom_site_fract_y
_atom_site_fract_z
O1	O	-1.257643	-0.200436	-0.076149
O2	O	-0.981677	-0.193203	-0.076172
O3	O	-1.127241	-0.076352	-0.076150
O4	O	-1.112079	-0.317286	-0.076170
O5	O	-1.127231	-0.076350	0.076331
O6	O	-0.981666	-0.193200	0.076309
O7	O	-1.257633	-0.200433	0.076332
Cu8	Cu	-1.119649	-0.196816	0.090243
Cu9	Cu	-1.119661	-0.196820	-0.090083
O10	O	-1.112069	-0.317284	0.076311
C11	C	-1.126622	-0.045330	0.000091
C12	C	-1.124781	0.047102	0.000092
C13	C	-0.946358	-0.190036	0.000066
C14	C	-0.841135	-0.180592	0.000058
C15	C	-1.292952	-0.203600	0.000093
C16	C	-1.398175	-0.213044	0.000095
C17	C	-0.648479	-0.163326	0.000077
C18	C	-0.590825	-0.230306	0.000075
C19	C	-0.483625	-0.220699	0.000086
C20	C	-0.755690	-0.172932	0.000066
C21	C	-1.112688	-0.348306	0.000068
C22	C	-1.114529	-0.440738	0.000061
N23	N	-1.119647	-0.196814	0.217075
C24	C	-1.206874	0.263266	0.000084
C25	C	-1.205137	0.350116	0.000076
C26	C	-1.032429	0.343091	0.000066
C27	C	-1.034168	0.256243	0.000067
C28	C	-1.121393	0.216333	0.000081
C29	C	-1.117917	0.390031	0.000072
C30	C	-1.116032	0.484197	0.000064
C31	C	-1.123278	0.122161	0.000087
N32	N	-1.119670	-0.196816	-0.216915
C33	C	-1.184125	-0.145093	0.452091
C34	C	-1.184128	-0.145092	0.548072
C35	C	-1.055186	-0.248539	0.548063
C36	C	-1.055179	-0.248536	0.452083
C37	C	-1.119654	-0.196814	0.404100
C38	C	-1.119663	-0.196816	0.596061
C39	C	-1.119666	-0.196814	0.700128
C40	C	-1.119651	-0.196815	0.300026
H41	H	-0.621976	-0.294863	0.000066
H42	H	-0.617330	-0.098774	0.000087
H43	H	-1.236623	-0.102977	0.413025
O44	O	-1.246848	-0.094827	0.594549
C45	C	-1.303732	-0.049163	0.531612
H46	H	-1.304786	-0.083330	0.463191
H47	H	-1.272978	0.014897	0.521410
C48	C	-1.404692	0.002304	0.653104
C49	C	-1.405994	-0.039665	0.569070
H50	H	-1.467771	0.008167	0.676211
H51	H	-1.366367	-0.028458	0.695506
H52	H	-1.379060	0.055683	0.644591
H53	H	-1.431614	-0.093046	0.577586
H54	H	-1.444326	-0.008911	0.526670
H55	H	-1.002693	-0.290650	0.587140
H56	H	-1.002675	-0.290653	0.413006
H57	H	-1.277898	0.230774	0.000094
O58	O	-1.288261	0.395582	0.000123
C59	C	-1.365615	0.341729	0.000111
H60	H	-1.341535	0.278795	0.028981
H61	H	-1.392356	0.333562	-0.073039
C62	C	-1.476093	0.456244	0.024455
C63	C	-1.446520	0.378950	0.059921
H64	H	-1.526001	0.479205	0.061345
H65	H	-1.423979	0.492527	0.024460
H66	H	-1.498370	0.449428	-0.036502
H67	H	-1.424232	0.385768	0.120872
H68	H	-1.498632	0.342669	0.059927
O69	O	-0.947786	0.381994	0.000102
C70	C	-0.964579	0.468713	0.000081
H71	H	-1.038554	0.483595	0.028952
H72	H	-0.959992	0.493188	-0.073071
C73	C	-0.798333	0.491996	0.024419
C74	C	-0.889187	0.510275	0.059885
H75	H	-0.751826	0.517635	0.061305
H76	H	-0.787018	0.433572	0.024429
H77	H	-0.794524	0.512393	-0.036540
H78	H	-0.892998	0.489870	0.120839
H79	H	-0.900501	0.568697	0.059887
O80	O	-0.951038	0.210772	0.000105
C81	C	-0.873678	0.264618	0.000077
H82	H	-0.897748	0.327560	0.028948
H83	H	-0.846946	0.272768	-0.073078
C84	C	-0.763209	0.150099	0.024408
C85	C	-0.792770	0.227403	0.059875
H86	H	-0.713299	0.127142	0.061290
H87	H	-0.815327	0.113821	0.024423
H88	H	-0.740938	0.156901	-0.036554
H89	H	-0.815051	0.220598	0.120831
H90	H	-0.740654	0.263679	0.059871
