data_functionalizedCrystal
_audit_creation_method	'MofGen! by Chris Wilmer'
_symmetry_space_group_name_H-M	'P1'
_symmetry_Int_Tables_number	1
_symmetry_cell_setting	triclinic
loop_
_symmetry_equiv_pos_as_xyz
  x,y,z
_cell_length_a	10.489741
_cell_length_b	16.992695
_cell_length_c	16.053802
_cell_angle_alpha	87.245349
_cell_angle_beta	92.592148
_cell_angle_gamma	87.603698
loop_
_atom_site_label
_atom_site_type_symbol
_atom_site_fract_x
_atom_site_fract_y
_atom_site_fract_z
O1	O	0.265579	1.045197	-0.069395
O2	O	0.262609	0.816896	-0.069404
O3	O	0.078948	0.936241	-0.069395
O4	O	0.449240	0.925852	-0.069405
O5	O	0.089013	0.929672	0.069464
O6	O	0.272674	0.810326	0.069454
O7	O	0.275644	1.038628	0.069463
Zn8	Zn	0.275757	0.923434	0.091505
Zn9	Zn	0.262496	0.932089	-0.091446
O10	O	0.459304	0.919282	0.069453
C11	C	0.036381	0.932172	0.000034
C12	C	-0.105453	0.929824	0.000033
C13	C	0.274430	1.071147	0.000033
C14	C	0.285825	1.158255	0.000031
C15	C	0.263822	0.784377	0.000024
C16	C	0.252427	0.697268	0.000021
C17	C	-0.180200	0.853888	0.000023
C18	C	-0.264239	0.886521	0.068489
C19	C	-0.274135	0.893015	-0.068414
C20	C	-0.187620	0.962485	0.068555
C21	C	-0.197512	0.968972	-0.068410
C22	C	-0.281518	1.001659	0.000072
C23	C	0.501872	0.923352	0.000023
C24	C	0.643705	0.925700	0.000019
N25	N	0.284807	0.917533	0.216365
C26	C	0.175876	1.207875	0.000031
C27	C	0.186591	1.289722	0.000034
C28	C	0.307256	1.321948	0.000030
C29	C	0.417214	1.272322	0.000033
C30	C	0.406498	1.190476	0.000036
C31	C	0.351669	1.565797	0.000026
C32	C	0.362376	1.647649	0.000020
C33	C	0.131752	1.665043	0.000023
C34	C	0.121047	1.583195	0.000021
C35	C	0.231005	1.533576	0.000028
N36	N	0.318211	1.405609	0.000031
N37	N	0.220049	1.449917	0.000034
N38	N	0.253437	0.937997	-0.216306
C39	C	0.206690	0.968333	0.260063
C40	C	0.213034	0.964212	0.347470
C41	C	0.297501	0.909294	0.391177
C42	C	0.375620	0.858488	0.347472
C43	C	0.369270	0.862606	0.260068
C44	C	0.325205	0.891308	0.652585
C45	C	0.331553	0.887196	0.739996
C46	C	0.168964	0.992920	0.739987
C47	C	0.162626	0.997036	0.652580
C48	C	0.240741	0.946227	0.608884
N49	N	0.303990	0.905083	0.480520
N50	N	0.234245	0.950435	0.519542
H51	H	-0.293851	0.851652	0.126370
O52	O	0.124527	1.021704	0.217740
C53	C	0.056963	1.065670	0.275056
H54	H	0.056741	1.030561	0.337368
H55	H	0.105072	1.123744	0.284336
C56	C	-0.081258	1.125795	0.164426
C57	C	-0.081540	1.082670	0.240956
H58	H	-0.166691	1.136285	0.143390
H59	H	-0.035736	1.096177	0.125809
H60	H	-0.041161	1.174185	0.172169
H61	H	-0.121622	1.034277	0.233209
H62	H	-0.127072	1.112281	0.279570
O63	O	0.079735	1.337894	-0.000116
C64	C	0.001747	1.326570	-0.072021
H65	H	0.062634	1.301361	-0.122287
H66	H	-0.075188	1.283713	-0.055763
C67	C	-0.136546	1.437107	-0.042892
C68	C	-0.061761	1.406151	-0.104632
H69	H	-0.175726	1.486196	-0.063006
H70	H	-0.084008	1.444736	0.005554
H71	H	-0.200648	1.401386	-0.029349
H72	H	0.002348	1.441868	-0.118166
H73	H	-0.114291	1.398531	-0.153081
O74	O	0.457641	0.805210	0.390056
C75	C	0.446479	0.812456	0.476573
H76	H	0.406064	0.873998	0.488502
H77	H	0.379704	0.766524	0.501395
C78	C	0.628719	0.723697	0.506781
C79	C	0.579091	0.799287	0.521434
H80	H	0.710519	0.715571	0.534455
H81	H	0.636238	0.718813	0.448493
H82	H	0.573062	0.685429	0.527466
H83	H	0.634740	0.837554	0.500739
H84	H	0.571585	0.804178	0.579719
O85	O	0.003737	1.552021	0.000069
C86	C	-0.091014	1.613370	0.000051
H87	H	-0.047667	1.667921	0.026334
H88	H	-0.130163	1.627894	-0.066565
C89	C	-0.253425	1.520071	0.022233
C90	C	-0.200187	1.587070	0.054521
H91	H	-0.320772	1.503849	0.055830
H92	H	-0.189591	1.478739	0.022243
H93	H	-0.286039	1.532184	-0.033279
H94	H	-0.167560	1.574954	0.110029
H95	H	-0.264019	1.628400	0.054523
O96	O	0.137020	1.013455	0.389951
C97	C	0.057642	0.968627	0.440540
H98	H	0.047202	0.907984	0.414217
H99	H	0.101964	0.961621	0.506782
C100	C	-0.062010	1.085522	0.474208
C101	C	-0.074842	1.011042	0.441873
H102	H	-0.143731	1.111686	0.475034
H103	H	-0.008529	1.115725	0.440127
H104	H	-0.025070	1.079673	0.529406
H105	H	-0.111766	1.016892	0.386673
H106	H	-0.128332	0.980841	0.475945
O107	O	0.058678	1.176543	-0.000114
C108	C	0.040376	1.133103	-0.072018
H109	H	0.105395	1.155206	-0.122286
H110	H	0.064410	1.067968	-0.055757
C111	C	-0.179774	1.116636	-0.042881
C112	C	-0.099923	1.143787	-0.104624
H113	H	-0.266317	1.123222	-0.062992
H114	H	-0.167443	1.145900	0.005564
H115	H	-0.159730	1.062359	-0.029336
H116	H	-0.119957	1.198065	-0.118160
H117	H	-0.112261	1.114532	-0.153072
H118	H	0.042231	1.705451	0.000019
H119	H	-0.167870	1.003814	-0.126294
H120	H	0.460642	1.673883	0.000029
H121	H	0.441205	1.525406	0.000027
O122	O	0.534529	1.303492	0.000065
C123	C	0.629274	1.242144	0.000045
H124	H	0.589738	1.185110	0.026340
H125	H	0.658758	1.233909	-0.066573
C126	C	0.794907	1.333345	0.022197
C127	C	0.746351	1.263297	0.054500
H128	H	0.867128	1.346394	0.055784
H129	H	0.731076	1.374678	0.022208
H130	H	0.819467	1.326474	-0.033317
H131	H	0.721777	1.270173	0.110009
H132	H	0.810180	1.221966	0.054500
H133	H	0.432878	0.821238	0.224489
H134	H	-0.135976	0.791451	0.000090
H135	H	0.093846	1.041754	0.616996
O136	O	-0.319270	0.857835	-0.137445
C137	C	-0.267361	0.779931	-0.137174
H138	H	-0.174590	0.774781	-0.097090
H139	H	-0.338322	0.737591	-0.110456
C140	C	-0.354063	0.765310	-0.276346
C141	C	-0.240114	0.758986	-0.227121
H142	H	-0.337260	0.752387	-0.331829
H143	H	-0.389039	0.817794	-0.276528
H144	H	-0.413186	0.730026	-0.254071
H145	H	-0.181000	0.794276	-0.249390
H146	H	-0.205127	0.706506	-0.226944
H147	H	0.496031	1.150076	0.000039
O148	O	0.413455	0.833733	0.782421
C149	C	0.383170	0.756964	0.761073
H150	H	0.279208	0.757147	0.737049
H151	H	0.447855	0.736695	0.710343
C152	C	0.530829	0.700014	0.868241
C153	C	0.403138	0.700237	0.838740
H154	H	0.543152	0.665020	0.916148
H155	H	0.551237	0.751734	0.882621
H156	H	0.584719	0.683125	0.825959
H157	H	0.349252	0.717135	0.881018
H158	H	0.382721	0.648518	0.824368
H159	H	-0.149795	0.991846	0.126502
H160	H	-0.325502	1.064148	0.000113
H161	H	0.105365	1.034285	0.775573
H162	H	0.388812	0.849939	0.617014
