data_functionalizedCrystal
_audit_creation_method	'MofGen! by Chris Wilmer'
_symmetry_space_group_name_H-M	'P1'
_symmetry_Int_Tables_number	1
_symmetry_cell_setting	triclinic
loop_
_symmetry_equiv_pos_as_xyz
  x,y,z
_cell_length_a	16.992694
_cell_length_b	16.992695
_cell_length_c	15.455425
_cell_angle_alpha	92.813861
_cell_angle_beta	87.179027
_cell_angle_gamma	89.331777
loop_
_atom_site_label
_atom_site_type_symbol
_atom_site_fract_x
_atom_site_fract_y
_atom_site_fract_z
O1	O	-1.054114	0.170165	0.072022
O2	O	-0.554114	0.670165	0.572022
O3	O	-0.825715	0.168335	0.072047
O4	O	-0.325715	0.668335	0.572047
O5	O	-0.938998	0.055049	0.072028
O6	O	-0.438998	0.555049	0.572028
O7	O	-0.940830	0.283450	0.072041
O8	O	-0.440830	0.783450	0.572041
O9	O	-0.932452	0.048539	-0.072232
O10	O	-0.432452	0.548539	0.427768
O11	O	-0.819168	0.161824	-0.072212
O12	O	-0.319168	0.661824	0.427788
O13	O	-1.047567	0.163654	-0.072238
O14	O	-0.547567	0.663654	0.427762
Cu15	Cu	-0.932770	0.162145	-0.085397
Cu16	Cu	-0.432770	0.662145	0.414603
Cu17	Cu	-0.940512	0.169844	0.085207
Cu18	Cu	-0.440512	0.669844	0.585207
O19	O	-0.934283	0.276940	-0.072218
O20	O	-0.434283	0.776940	0.427782
C21	C	-0.933369	0.022434	-0.000102
C22	C	-0.433369	0.522434	0.499898
C23	C	-0.926341	-0.065051	-0.000101
C24	C	-0.426341	0.434949	0.499899
C25	C	-0.793081	0.162724	-0.000079
C26	C	-0.293081	0.662724	0.499921
C27	C	-0.705597	0.155696	-0.000070
C28	C	-0.205597	0.655696	0.499930
C29	C	-1.080200	0.169265	-0.000109
C30	C	-0.580200	0.669265	0.499891
C31	C	-1.167685	0.176294	-0.000113
C32	C	-0.667685	0.676294	0.499887
C33	C	-0.994158	-0.111042	-0.000109
C34	C	-0.494158	0.388958	0.499891
C35	C	-0.987550	-0.193242	-0.000100
C36	C	-0.487550	0.306758	0.499900
C37	C	-0.913122	-0.229450	-0.000089
C38	C	-0.413122	0.270550	0.499911
C39	C	-0.845300	-0.183452	-0.000078
C40	C	-0.345300	0.316548	0.499922
C41	C	-0.851910	-0.101253	-0.000081
C42	C	-0.351910	0.398747	0.499919
C43	C	-0.885729	-0.474764	-0.000074
C44	C	-0.385729	0.025236	0.499926
C45	C	-0.879124	-0.556969	-0.000074
C46	C	-0.379124	-0.056969	0.499926
C47	C	-1.021375	-0.566753	-0.000094
C48	C	-0.521375	-0.066753	0.499906
C49	C	-1.027977	-0.484552	-0.000102
C50	C	-0.527977	0.015448	0.499898
C51	C	-0.960155	-0.438561	-0.000087
C52	C	-0.460155	0.061439	0.499913
N53	N	-0.906366	-0.313472	-0.000082
N54	N	-0.406366	0.186528	0.499918
N55	N	-0.966913	-0.354541	-0.000087
N56	N	-0.466913	0.145459	0.499913
C57	C	-0.659607	0.223514	-0.000066
C58	C	-0.159607	0.723514	0.499934
C59	C	-0.577405	0.216904	-0.000079
C60	C	-0.077405	0.716904	0.499921
C61	C	-0.541197	0.142476	-0.000088
C62	C	-0.041197	0.642476	0.499912
C63	C	-0.587193	0.074653	-0.000094
C64	C	-0.087193	0.574653	0.499906
C65	C	-0.669393	0.081263	-0.000088
C66	C	-0.169393	0.581263	0.499912
C67	C	-0.295881	0.115080	-0.000113
C68	C	0.204119	0.615080	0.499887
C69	C	-0.213676	0.108476	-0.000116
C70	C	0.286324	0.608476	0.499884
C71	C	-0.203893	0.250728	-0.000103
C72	C	0.296107	0.750728	0.499897
C73	C	-0.286095	0.257331	-0.000091
C74	C	0.213905	0.757331	0.499909
C75	C	-0.332084	0.189508	-0.000102
C76	C	0.167916	0.689508	0.499898
N77	N	-0.457174	0.135718	-0.000098
N78	N	0.042826	0.635718	0.499902
N79	N	-0.416105	0.196266	-0.000098
N80	N	0.083895	0.696266	0.499902
C81	C	-0.939913	0.309555	-0.000087
C82	C	-0.439913	0.809555	0.499913
C83	C	-0.946942	0.397040	-0.000082
C84	C	-0.446942	0.897040	0.499918
N85	N	-0.927330	0.156729	-0.205390
N86	N	-0.427330	0.656729	0.294610
C87	C	-0.897283	0.126554	-0.749386
C88	C	-0.397283	0.626554	-0.249386
C89	C	-0.901394	0.130679	-0.658580
C90	C	-0.401394	0.630679	-0.158580
C91	C	-0.954176	0.183509	-0.613189
C92	C	-0.454176	0.683509	-0.113189
C93	C	-1.002856	0.232211	-0.658610
C94	C	-0.502856	0.732211	-0.158610
C95	C	-0.998748	0.228081	-0.749414
C96	C	-0.498748	0.728081	-0.249414
C97	C	-0.971903	0.201301	-0.341615
C98	C	-0.471903	0.701301	0.158385
C99	C	-0.976005	0.205429	-0.250804
C100	C	-0.476005	0.705429	0.249196
C101	C	-0.874543	0.103896	-0.250781
C102	C	-0.374543	0.603896	0.249219
C103	C	-0.870437	0.099774	-0.341587
C104	C	-0.370437	0.599774	0.158413
C105	C	-0.919120	0.148473	-0.386999
C106	C	-0.419120	0.648473	0.113001
N107	N	-0.958377	0.187729	-0.520371
N108	N	-0.458377	0.687729	-0.020371
N109	N	-0.914922	0.144248	-0.479816
N110	N	-0.414922	0.644248	0.020184
N111	N	-0.945958	0.175254	0.205200
N112	N	-0.445958	0.675254	0.705200
H113	H	-1.042774	-0.230685	-0.000109
H114	H	-0.542774	0.269315	0.499891
O115	O	-1.019272	0.248496	-0.385756
O116	O	-0.519272	0.748496	0.114244
C117	C	-1.067600	0.201510	-0.438272
C118	C	-0.567600	0.701510	0.061728
H119	H	-1.073368	0.140649	-0.410888
H120	H	-0.573368	0.640649	0.089112
H121	H	-1.128425	0.230373	-0.439296
H122	H	-0.628425	0.730373	0.060704
H123	H	-1.040089	0.195516	-0.507096
H124	H	-0.540089	0.695516	-0.007096
O125	O	-0.178408	0.036208	-0.000247
O126	O	0.321592	0.536208	0.499753
C127	C	-0.127786	0.024757	-0.074973
C128	C	0.372214	0.524757	0.425027
H129	H	-0.110096	0.084398	-0.099871
H130	H	0.389904	0.584398	0.400129
H131	H	-0.072814	-0.009235	-0.058176
H132	H	0.427186	0.490765	0.441824
H133	H	-0.159510	-0.010152	-0.127295
H134	H	0.340490	0.489848	0.372705
O135	O	-0.159140	0.316555	0.000016
O136	O	0.340860	0.816555	0.500016
C137	C	-0.114693	0.320372	0.074736
C138	C	0.385307	0.820372	0.574736
H139	H	-0.107753	0.258755	0.099642
H140	H	0.392247	0.758755	0.599642
H141	H	-0.054060	0.345069	0.057928
H142	H	0.445940	0.845069	0.557928
H143	H	-0.146324	0.360380	0.127057
H144	H	0.353676	0.860380	0.627057
H145	H	-0.333316	0.059853	-0.000122
H146	H	0.166684	0.559853	0.499878
H147	H	-0.796685	-0.063808	-0.000073
H148	H	-0.296685	0.436192	0.499927
O149	O	-0.772952	-0.218536	-0.000180
O150	O	-0.272952	0.281464	0.499820
C151	C	-0.727913	-0.198863	-0.074897
C152	C	-0.227913	0.301137	0.425103
H153	H	-0.751805	-0.141699	-0.099811
H154	H	-0.251805	0.358301	0.400189
H155	H	-0.663837	-0.190811	-0.058083
H156	H	-0.163837	0.309189	0.441917
H157	H	-0.731674	-0.248168	-0.127215
H158	H	-0.231674	0.251832	0.372785
H159	H	-0.830502	-0.437328	-0.000061
H160	H	-0.330502	0.062672	0.499939
O161	O	-1.054086	0.283636	-0.614615
O162	O	-0.554086	0.783636	-0.114615
C163	C	-1.036255	0.361149	-0.636820
C164	C	-0.536255	0.861149	-0.136820
H165	H	-1.002956	0.359595	-0.702754
H166	H	-0.502956	0.859595	-0.202754
H167	H	-1.093245	0.396737	-0.639934
H168	H	-0.593245	0.896737	-0.139934
H169	H	-0.998148	0.389793	-0.585729
H170	H	-0.498148	0.889793	-0.085729
H171	H	-1.076591	-0.604207	-0.000106
H172	H	-0.576591	-0.104207	0.499894
H173	H	-0.827458	0.056753	-0.378538
H174	H	-0.327458	0.556753	0.121462
H175	H	-0.818513	-0.586447	-0.000079
H176	H	-0.318513	-0.086447	0.499921
O177	O	-0.854212	0.083313	-0.614414
O178	O	-0.354212	0.583313	-0.114414
C179	C	-0.901207	0.035035	-0.561837
C180	C	-0.401207	0.535035	-0.061837
H181	H	-0.962076	0.029268	-0.589195
H182	H	-0.462076	0.529268	-0.089195
H183	H	-0.872364	-0.025795	-0.560766
H184	H	-0.372364	0.474205	-0.060766
H185	H	-0.907182	0.062590	-0.493034
H186	H	-0.407182	0.562590	0.006966
H187	H	-0.834909	0.064247	-0.213796
H188	H	-0.334909	0.564247	0.286204
H189	H	-1.038385	0.267738	-0.786389
H190	H	-0.538385	0.767738	-0.286389
H191	H	-0.689081	0.284121	-0.000058
H192	H	-0.189081	0.784121	0.499942
O193	O	-0.532849	0.282865	-0.000036
O194	O	-0.032849	0.782865	0.499964
C195	C	-0.582433	0.349973	-0.000043
C196	C	-0.082433	0.849973	0.499957
H197	H	-0.643696	0.335063	0.027275
H198	H	-0.143696	0.835063	0.527275
H199	H	-0.557154	0.399695	0.041842
H200	H	-0.057154	0.899695	0.541842
H201	H	-0.586544	0.369425	-0.069248
H202	H	-0.086544	0.869425	0.430752
H203	H	-1.088584	-0.455078	-0.000112
H204	H	-0.588584	0.044922	0.499888
O205	O	-0.321137	0.329690	-0.000126
O206	O	0.178863	0.829690	0.499874
C207	C	-0.262918	0.388134	-0.000104
C208	C	0.237082	0.888134	0.499896
H209	H	-0.204521	0.361340	-0.027421
H210	H	0.295479	0.861340	0.472579
H211	H	-0.281352	0.437897	-0.041981
H212	H	0.218648	0.937897	0.458019
H213	H	-0.255802	0.412423	0.069105
H214	H	0.244198	0.912423	0.569105
H215	H	-0.557705	0.014051	-0.000114
H216	H	-0.057705	0.514051	0.499886
H217	H	-0.706838	0.026038	-0.000090
H218	H	-0.206838	0.526038	0.499910
O219	O	-1.027239	0.256853	-0.206803
O220	O	-0.527239	0.756853	0.293197
C221	C	-1.009418	0.334369	-0.229003
C222	C	-0.509418	0.834369	0.270997
H223	H	-0.976126	0.332823	-0.294941
H224	H	-0.476126	0.832823	0.205059
H225	H	-1.066411	0.369953	-0.232106
H226	H	-0.566411	0.869953	0.267894
H227	H	-0.971308	0.363013	-0.177914
H228	H	-0.471308	0.863013	0.322086
O229	O	-1.066520	-0.075998	-0.000079
O230	O	-0.566520	0.424002	0.499921
C231	C	-1.124958	-0.134223	-0.000104
C232	C	-0.624958	0.365777	0.499896
H233	H	-1.100633	-0.190148	0.027209
H234	H	-0.600633	0.309852	0.527209
H235	H	-1.178511	-0.112005	0.041776
H236	H	-0.678511	0.387995	0.541776
H237	H	-1.142987	-0.147597	-0.069313
H238	H	-0.642987	0.352403	0.430687
H239	H	-0.854298	0.083538	-0.786336
H240	H	-0.354298	0.583538	-0.286336
