data_functionalizedCrystal
_audit_creation_method	'MofGen! by Chris Wilmer'
_symmetry_space_group_name_H-M	'P1'
_symmetry_Int_Tables_number	1
_symmetry_cell_setting	triclinic
loop_
_symmetry_equiv_pos_as_xyz
  x,y,z
_cell_length_a	11.792241
_cell_length_b	15.625020
_cell_length_c	14.750779
_cell_angle_alpha	85.134135
_cell_angle_beta	102.725680
_cell_angle_gamma	95.784747
loop_
_atom_site_label
_atom_site_type_symbol
_atom_site_fract_x
_atom_site_fract_y
_atom_site_fract_z
O1	O	-0.289178	1.085474	-0.457707
O2	O	-0.280890	0.843589	-0.373498
O3	O	-0.120455	0.970400	-0.417651
O4	O	-0.449613	0.958663	-0.413554
O5	O	-0.075108	1.006248	-0.270483
O6	O	-0.235543	0.879437	-0.226330
O7	O	-0.243830	1.121322	-0.310538
Zn8	Zn	-0.232487	1.006071	-0.245068
Zn9	Zn	-0.292234	0.958840	-0.438969
O10	O	-0.404265	0.994511	-0.266385
C11	C	-0.254096	0.830546	-0.289134
C12	C	-0.241804	0.738275	-0.257012
C13	C	-0.199761	0.627761	-0.131521
C14	C	-0.211314	0.714462	-0.161714
C15	C	-0.260747	0.675391	-0.322154
C16	C	-0.249192	0.588686	-0.291975
C17	C	-0.218700	0.564879	-0.196657
C18	C	-0.268131	0.525803	-0.357111
C19	C	-0.256583	0.439105	-0.326934
C20	C	-0.226096	0.415290	-0.231620
C21	C	-0.207152	0.478181	-0.166480
C22	C	-0.298631	0.549611	-0.452428
C23	C	-0.317571	0.486728	-0.517565
C24	C	-0.306015	0.400029	-0.487388
C25	C	-0.275527	0.376214	-0.392074
C26	C	-0.324958	0.337139	-0.552528
C27	C	-0.313410	0.250441	-0.522351
C28	C	-0.263979	0.289517	-0.361896
C29	C	-0.469304	0.977325	-0.340225
C30	C	-0.595538	0.979533	-0.340989
C31	C	-0.826665	0.983586	-0.342425
C32	C	-0.698050	0.981334	-0.341627
C33	C	-0.055417	0.987586	-0.343814
C34	C	0.070815	0.985376	-0.343055
C35	C	-0.270625	1.134364	-0.394905
C36	C	-0.282919	1.226634	-0.427033
N37	N	-0.191710	1.038311	-0.112737
N38	N	-0.333002	0.926606	-0.571302
C39	C	-0.446833	0.836564	0.309325
C40	C	-0.418268	0.859162	0.401956
C41	C	-0.276263	0.971477	0.362813
C42	C	-0.304812	0.948885	0.270178
C43	C	-0.390099	0.881429	0.243442
C44	C	-0.248077	0.993750	0.204294
C45	C	-0.276629	0.971164	0.111666
C46	C	-0.361915	0.903712	0.084922
C47	C	-0.418650	0.858842	0.150814
C48	C	-0.162796	1.061211	0.231031
C49	C	-0.106062	1.106076	0.165148
C50	C	-0.134607	1.083485	0.072519
C51	C	-0.219893	1.016033	0.045774
C52	C	-0.077872	1.128355	0.006627
C53	C	-0.106423	1.105768	-0.086001
C54	C	-0.248445	0.993446	-0.046854
H55	H	-0.195897	0.765661	-0.108664
C56	C	-0.393321	0.878865	-0.016973
N57	N	-0.416974	0.860149	-0.093719
C58	C	-0.358504	0.363340	-0.657375
N59	N	-0.383769	0.383074	-0.736347
H60	H	-0.464477	0.822622	0.455597
H61	H	-0.008438	1.183284	0.028406
C62	C	-0.173596	0.451990	-0.061625
N63	N	-0.148323	0.432263	0.017348
H64	H	-0.285578	0.694787	-0.399762
H65	H	-0.488091	0.803906	0.129048
C66	C	-0.311332	0.644983	-0.485622
N67	N	-0.320896	0.716817	-0.510623
C68	C	-0.182445	1.045675	0.392236
N69	N	-0.111776	1.101559	0.414396
H70	H	-0.139557	1.079601	0.306455
C71	C	-0.540605	0.762324	0.279923
N72	N	-0.611216	0.706399	0.257780
H73	H	-0.174946	0.608376	-0.053903
H74	H	-0.239164	0.270131	-0.284279
H75	H	-0.342402	0.506124	-0.595173
C76	C	-0.334242	0.181266	-0.594004
N77	N	-0.349936	0.129163	-0.647975
C78	C	-0.012244	1.180274	0.194570
N79	N	0.058425	1.236158	0.216731
C80	C	-0.044009	1.155120	-0.158476
N81	N	0.003001	1.192294	-0.213066
H82	H	-0.317886	0.938511	-0.068620
C83	C	-0.213391	0.319919	-0.198424
N84	N	-0.203819	0.248086	-0.173421
