data_functionalizedCrystal
_audit_creation_method	'MofGen! by Chris Wilmer'
_symmetry_space_group_name_H-M	'P1'
_symmetry_Int_Tables_number	1
_symmetry_cell_setting	triclinic
loop_
_symmetry_equiv_pos_as_xyz
  x,y,z
_cell_length_a	25.639242
_cell_length_b	25.639239
_cell_length_c	11.169409
_cell_angle_alpha	89.960719
_cell_angle_beta	89.968060
_cell_angle_gamma	90.034213
loop_
_atom_site_label
_atom_site_type_symbol
_atom_site_fract_x
_atom_site_fract_y
_atom_site_fract_z
Zn1	Zn	0.799276	-0.208171	-0.678873
Zn2	Zn	0.799184	-0.295621	-0.478165
Zn3	Zn	0.711837	-0.208194	-0.478165
Zn4	Zn	0.711797	-0.295570	-0.678768
O5	O	0.755523	-0.251889	-0.578492
O6	O	0.872429	-0.219782	-0.652293
O7	O	0.787576	-0.284055	-0.310215
O8	O	0.723491	-0.135026	-0.504833
O9	O	0.872361	-0.284032	-0.504834
O10	O	0.787732	-0.135009	-0.652292
O11	O	0.723402	-0.219823	-0.310215
O12	O	0.638666	-0.219774	-0.504731
O13	O	0.723423	-0.283945	-0.846731
O14	O	0.638637	-0.283968	-0.652113
O15	O	0.787693	-0.219733	-0.846809
O16	O	0.787537	-0.368779	-0.504732
O17	O	0.723334	-0.368742	-0.652114
C18	C	0.619681	-0.251868	-0.578411
C19	C	0.561567	-0.251872	-0.578405
C20	C	0.201197	-0.285371	-0.655162
C21	C	0.146593	-0.285374	-0.655181
O22	O	0.118351	-0.313831	-0.720373
N23	N	0.119284	-0.251903	-0.578571
C24	C	0.146583	-0.218424	-0.501946
O25	O	0.118341	-0.189954	-0.436786
C26	C	0.201186	-0.218418	-0.501934
C27	C	0.228492	-0.251895	-0.578540
C28	C	0.228503	-0.318845	-0.731763
C29	C	0.283104	-0.318842	-0.731742
C30	C	0.310398	-0.285366	-0.655120
C31	C	0.283092	-0.251892	-0.578519
C32	C	0.228484	-0.184936	-0.425316
C33	C	0.283091	-0.184933	-0.425311
C34	C	0.310396	-0.218410	-0.501917
C35	C	0.364988	-0.218413	-0.501876
N36	N	0.392296	-0.251884	-0.578486
C37	C	0.365002	-0.285360	-0.655108
C38	C	0.031912	-0.218437	-0.501978
C39	C	-0.022690	-0.218445	-0.501983
C40	C	-0.022676	-0.285395	-0.655220
C41	C	0.031927	-0.285389	-0.655208
C42	C	0.059221	-0.251908	-0.578588
C43	C	0.479667	-0.285353	-0.655058
C44	C	0.534272	-0.285348	-0.655027
C45	C	0.534253	-0.218397	-0.501795
C46	C	0.479653	-0.218402	-0.501821
C47	C	0.452361	-0.251882	-0.578462
O48	O	0.393265	-0.189970	-0.436721
O49	O	0.393251	-0.313820	-0.720268
C50	C	0.755435	-0.387732	-0.578437
C51	C	0.755446	-0.445846	-0.578454
C52	C	0.789041	-0.806216	-0.501882
C53	C	0.789061	-0.860820	-0.501898
O54	O	0.817534	-0.889062	-0.436733
N55	N	0.755615	-0.888128	-0.578572
C56	C	0.722150	-0.860829	-0.655244
O57	O	0.693704	-0.889071	-0.720464
C58	C	0.722133	-0.806226	-0.655233
C59	C	0.755578	-0.778920	-0.578545
C60	C	0.822483	-0.778910	-0.425201
C61	C	0.822462	-0.724309	-0.425184
C62	C	0.788999	-0.697014	-0.501847
C63	C	0.755557	-0.724320	-0.578528
C64	C	0.688672	-0.778928	-0.731910
C65	C	0.688657	-0.724321	-0.731893
C66	C	0.722102	-0.697016	-0.655205
C67	C	0.722072	-0.642424	-0.655174
N68	N	0.755518	-0.615116	-0.578500
C69	C	0.788982	-0.642411	-0.501836
C70	C	0.722190	-0.975500	-0.655262
C71	C	0.722204	-1.030102	-0.655268
C72	C	0.789116	-1.030089	-0.501923
C73	C	0.789099	-0.975486	-0.501912
C74	C	0.755636	-0.948192	-0.578588
C75	C	0.788935	-0.527746	-0.501805
C76	C	0.788909	-0.473141	-0.501791
C77	C	0.721999	-0.473159	-0.655140
C78	C	0.722023	-0.527759	-0.655150
C79	C	0.755495	-0.555052	-0.578478
O80	O	0.693616	-0.614147	-0.720309
O81	O	0.817428	-0.614163	-0.436638
C82	C	0.891896	-0.251910	-0.578575
C83	C	0.950010	-0.251919	-0.578610
C84	C	0.755564	-0.251831	-0.891535
C85	C	0.755581	-0.251806	-1.024935
C86	C	0.755626	-0.115516	-0.578574
C87	C	0.755670	-0.057402	-0.578609
C88	C	0.755513	-0.251909	-0.266668
C89	C	0.755598	-0.251787	-0.133268
H90	H	0.556502	-0.312611	-0.717410
H91	H	0.457452	-0.312614	-0.717469
O92	O	0.312553	-0.354941	-0.814384
H93	H	0.284392	-0.378212	-0.867672
O94	O	0.450190	-0.182316	-0.419167
H95	H	0.425336	-0.155744	-0.472986
O96	O	0.652558	-0.694881	-0.814580
H97	H	0.629304	-0.723046	-0.867891
H98	H	0.054156	-0.312648	-0.717589
H99	H	0.206286	-0.346105	-0.794164
H100	H	0.556487	-0.191143	-0.439407
H101	H	0.661435	-0.801151	-0.794352
H102	H	0.694791	-0.549993	-0.717599
H103	H	-0.044909	-0.312651	-0.717614
O104	O	-0.052140	-0.182341	-0.419353
H105	H	-0.023981	-0.159061	-0.366081
H106	H	0.816143	-0.450910	-0.439338
O107	O	0.061350	-0.182336	-0.419303
H108	H	0.033183	-0.159071	-0.366026
O109	O	0.825040	-0.557183	-0.419129
H110	H	0.801668	-0.582111	-0.358019
H111	H	0.206260	-0.157677	-0.362931
O112	O	0.858542	-0.694861	-0.342488
H113	H	0.881817	-0.723022	-0.289201
H114	H	0.849736	-0.801128	-0.362772
O115	O	0.685911	-0.443709	-0.737823
H116	H	0.644882	-0.454228	-0.717142
O117	O	0.312526	-0.148825	-0.342650
H118	H	0.302070	-0.107801	-0.363399
O119	O	0.825176	-0.946035	-0.419213
H120	H	0.848448	-0.974194	-0.365917
H121	H	0.816365	-1.052323	-0.439504
H122	H	0.694965	-1.052330	-0.717704
O123	O	0.686083	-0.946061	-0.737938
H124	H	0.662826	-0.974228	-0.791236
