data_functionalizedCrystal
_audit_creation_method	'MofGen! by Chris Wilmer'
_symmetry_space_group_name_H-M	'P1'
_symmetry_Int_Tables_number	1
_symmetry_cell_setting	triclinic
loop_
_symmetry_equiv_pos_as_xyz
  x,y,z
_cell_length_a	14.908571
_cell_length_b	14.908520
_cell_length_c	12.827885
_cell_angle_alpha	86.736484
_cell_angle_beta	93.314186
_cell_angle_gamma	90.205961
loop_
_atom_site_label
_atom_site_type_symbol
_atom_site_fract_x
_atom_site_fract_y
_atom_site_fract_z
Zn1	Zn	1.353982	-0.437358	0.710436
Zn2	Zn	1.853982	0.062642	1.210436
Zn3	Zn	1.345195	-0.587734	0.545146
Zn4	Zn	1.845195	-0.087734	1.045146
Zn5	Zn	1.203612	-0.428713	0.525093
Zn6	Zn	1.703612	0.071287	1.025093
Zn7	Zn	1.194910	-0.578983	0.709228
Zn8	Zn	1.694910	-0.078983	1.209228
O9	O	1.274425	-0.508197	0.622475
O10	O	1.774425	-0.008197	1.122475
O11	O	1.478642	-0.464587	0.697407
O12	O	1.978642	0.035413	1.197407
O13	O	1.326378	-0.566684	0.396250
O14	O	1.826378	-0.066684	0.896250
O15	O	1.230879	-0.304038	0.541792
O16	O	1.730879	0.195962	1.041792
O17	O	1.472186	-0.575068	0.575969
O18	O	1.972186	-0.075068	1.075969
O19	O	1.341355	-0.310390	0.677963
O20	O	1.841355	0.189610	1.177963
O21	O	1.222358	-0.449852	0.381517
O22	O	1.722358	0.050148	0.881517
O23	O	1.076633	-0.441365	0.540621
O24	O	1.576633	0.058635	1.040621
O25	O	1.216047	-0.560151	0.855624
O26	O	1.716047	-0.060151	1.355624
O27	O	1.070239	-0.551768	0.675904
O28	O	1.570239	-0.051768	1.175904
O29	O	1.332916	-0.456101	0.856511
O30	O	1.832916	0.043899	1.356511
O31	O	1.317940	-0.712395	0.574798
O32	O	1.817940	-0.212395	1.074798
O33	O	1.207526	-0.705965	0.695349
O34	O	1.707526	-0.205965	1.195349
C35	C	1.040811	-0.494680	0.605956
C36	C	1.540811	0.005320	1.105956
C37	C	0.940869	-0.488918	0.598916
C38	C	1.440869	0.011082	1.098916
C39	C	0.746447	-0.593233	0.726387
C40	C	1.246447	-0.093233	1.226387
C41	C	0.652542	-0.587823	0.719776
C42	C	1.152542	-0.087823	1.219776
C43	C	0.659153	-0.472683	0.579087
C44	C	1.159153	0.027317	1.079087
C45	C	0.753058	-0.478094	0.585698
C46	C	1.253058	0.021906	1.085698
C47	C	0.796701	-0.538372	0.659350
C48	C	1.296701	-0.038372	1.159350
C49	C	0.890608	-0.543786	0.665956
C50	C	1.390608	-0.043786	1.165956
C51	C	0.897217	-0.428643	0.525273
C52	C	1.397217	0.071357	1.025273
C53	C	0.803312	-0.423232	0.518661
C54	C	1.303312	0.076768	1.018661
C55	C	1.260859	-0.741805	0.637143
C56	C	1.760859	-0.241805	1.137143
C57	C	1.255138	-0.841748	0.643458
C58	C	1.755138	-0.341748	1.143458
C59	C	1.359480	-1.036194	0.529912
C60	C	1.859480	-0.536194	1.029912
C61	C	1.354107	-1.130100	0.535843
C62	C	1.854107	-0.630100	1.035843
C63	C	1.239026	-1.123468	0.661255
C64	C	1.739026	-0.623468	1.161255
C65	C	1.244399	-1.029562	0.655325
C66	C	1.744399	-0.529562	1.155325
C67	C	1.304627	-0.985928	0.589650
C68	C	1.804627	-0.485928	1.089650
C69	C	1.309994	-0.892021	0.583714
C70	C	1.809994	-0.392021	1.083714
C71	C	1.194918	-0.885391	0.709131
C72	C	1.694918	-0.385391	1.209131
C73	C	1.189545	-0.979297	0.715062
C74	C	1.689545	-0.479297	1.215062
C75	C	1.508951	-0.521768	0.639060
C76	C	2.008951	-0.021768	1.139060
C77	C	1.608892	-0.527551	0.646127
C78	C	2.108892	-0.027551	1.146127
C79	C	1.274491	-0.508114	0.895045
C80	C	1.774491	-0.008114	1.395045
C81	C	1.274519	-0.508079	1.011197
C82	C	1.774519	-0.008079	1.511197
C83	C	1.288068	-0.273678	0.607776
C84	C	1.788068	0.226322	1.107776
C85	C	1.293882	-0.173740	0.601511
C86	C	1.793882	0.326260	1.101511
C87	C	1.274414	-0.508218	0.350966
C88	C	1.774414	-0.008218	0.850966
C89	C	1.274575	-0.508010	0.234810
C90	C	1.774575	-0.008010	0.734810
C91	C	1.332357	-0.456581	1.063421
C92	C	1.832357	0.043419	1.563421
C93	C	1.332387	-0.456543	1.183471
C94	C	1.832387	0.043457	1.683471
H95	H	0.926141	-0.592869	0.725925
H96	H	1.426141	-0.092869	1.225925
H97	H	1.381907	-0.412457	1.228381
H98	H	1.881907	0.087543	1.728381
C99	C	1.144002	-1.005607	0.890690
C100	C	1.644002	-0.505607	1.390690
C101	C	1.123347	-1.027267	0.787249
C102	C	1.623347	-0.527267	1.287249
H103	H	1.103135	-1.035226	0.935253
H104	H	1.603135	-0.535226	1.435253
H105	H	1.139344	-0.942494	0.895699
H106	H	1.639344	-0.442494	1.395699
H107	H	1.203533	-1.024427	0.911273
H108	H	1.703533	-0.524427	1.411273
H109	H	1.063818	-1.008441	0.766663
H110	H	1.563818	-0.508441	1.266663
H111	H	1.127997	-1.090394	0.782235
H112	H	1.627997	-0.590394	1.282235
C113	C	1.154285	-0.615129	1.244637
C114	C	1.654285	-0.115129	1.744637
C115	C	1.207730	-0.567544	1.174203
C116	C	1.707730	-0.067544	1.674203
H117	H	1.113024	-0.651888	1.207213
H118	H	1.613024	-0.151888	1.707213
H119	H	1.122140	-0.573983	1.282311
H120	H	1.622140	-0.073983	1.782311
H121	H	1.191448	-0.651797	1.292143
H122	H	1.691448	-0.151797	1.792143
H123	H	1.170567	-0.530870	1.126701
H124	H	1.670567	-0.030870	1.626701
H125	H	1.239877	-0.608695	1.136510
H126	H	1.739877	-0.108695	1.636510
C127	C	1.152051	-0.738497	0.755732
C128	C	1.652051	-0.238497	1.255732
C129	C	1.134620	-0.830137	0.774804
C130	C	1.634620	-0.330137	1.274804
H131	H	1.114828	-0.704388	0.796278
H132	H	1.614828	-0.204388	1.296278
H133	H	1.139803	-0.722411	0.683617
H134	H	1.639803	-0.222411	1.183617
H135	H	1.213342	-0.726542	0.774385
H136	H	1.713342	-0.226542	1.274385
H137	H	1.073330	-0.842093	0.756144
H138	H	1.573330	-0.342093	1.256144
H139	H	1.146861	-0.846228	0.846935
H140	H	1.646861	-0.346228	1.346935
C141	C	1.351756	-0.336496	0.933838
C142	C	1.851756	0.163504	1.433838
C143	C	1.399178	-0.397101	1.003805
C144	C	1.899178	0.102899	1.503805
H145	H	1.393012	-0.299780	0.897031
H146	H	1.893012	0.200220	1.397031
H147	H	1.314640	-0.299790	0.971493
H148	H	1.814640	0.200210	1.471493
H149	H	1.315465	-0.368820	0.885525
H150	H	1.815465	0.131180	1.385525
H151	H	1.435464	-0.364777	1.052123
H152	H	1.935464	0.135223	1.552123
H153	H	1.436309	-0.433811	0.966148
H154	H	1.936309	0.066189	1.466148
H155	H	0.938144	-0.383972	0.470684
H156	H	1.438144	0.116028	0.970684
H157	H	0.781982	-0.642319	0.786352
H158	H	1.281982	-0.142319	1.286352
H159	H	1.225020	-0.552134	1.055363
H160	H	1.725020	-0.052134	1.555363
H161	H	1.189998	-1.159011	0.714732
H162	H	1.689998	-0.659011	1.214732
H163	H	1.359032	-0.856495	0.530235
H164	H	1.859032	-0.356495	1.030235
C165	C	0.655445	-0.702176	0.859502
C166	C	1.155445	-0.202176	1.359502
C167	C	0.597302	-0.648129	0.793464
C168	C	1.097302	-0.148129	1.293464
H169	H	0.621339	-0.739410	0.904992
H170	H	1.121339	-0.239410	1.404992
H171	H	0.694353	-0.665150	0.899665
H172	H	1.194353	-0.165150	1.399665
H173	H	0.690063	-0.738634	0.818633
H174	H	1.190063	-0.238634	1.318633
H175	H	0.562688	-0.611667	0.834333
H176	H	1.062688	-0.111667	1.334333
H177	H	0.558377	-0.685160	0.753297
H178	H	1.058377	-0.185160	1.253297
H179	H	0.623602	-0.423603	0.519129
H180	H	1.123602	0.076397	1.019129
H181	H	0.767765	-0.374154	0.458699
H182	H	1.267765	0.125846	0.958699
H183	H	1.408514	-1.000666	0.476430
H184	H	1.908514	-0.500666	0.976430
H185	H	1.398776	-1.171023	0.487201
H186	H	1.898776	-0.671023	0.987201
