data_functionalizedCrystal
_audit_creation_method	'MofGen! by Chris Wilmer'
_symmetry_space_group_name_H-M	'P1'
_symmetry_Int_Tables_number	1
_symmetry_cell_setting	triclinic
loop_
_symmetry_equiv_pos_as_xyz
  x,y,z
_cell_length_a	19.288867
_cell_length_b	17.766277
_cell_length_c	19.288865
_cell_angle_alpha	90.012963
_cell_angle_beta	96.863342
_cell_angle_gamma	90.002427
loop_
_atom_site_label
_atom_site_type_symbol
_atom_site_fract_x
_atom_site_fract_y
_atom_site_fract_z
O1	O	0.921341	-0.062576	-0.086658
O2	O	0.719081	-0.062585	-0.098345
O3	O	0.826056	-0.062566	0.008629
O4	O	0.814367	-0.062596	-0.193632
O5	O	0.826058	0.062623	0.008639
O6	O	0.719084	0.062604	-0.098335
O7	O	0.921344	0.062612	-0.086647
Cu8	Cu	0.820214	0.074039	-0.092490
Cu9	Cu	0.820211	-0.074011	-0.092503
O10	O	0.814369	0.062593	-0.193621
C11	C	0.693206	0.000009	-0.097964
C12	C	0.616102	0.000006	-0.096834
C13	C	0.060536	-0.068224	-0.088704
C14	C	0.132983	-0.068227	-0.089761
C15	C	0.169213	0.000013	-0.090287
C16	C	0.132992	0.068261	-0.089738
C17	C	0.060547	0.068262	-0.088674
C18	C	0.278542	0.052287	-0.132650
C19	C	0.350985	0.052283	-0.133718
C20	C	0.392659	0.000012	-0.093566
C21	C	0.361879	-0.052267	-0.052354
C22	C	0.289434	-0.052266	-0.051290
C23	C	0.247768	0.000019	-0.091440
C24	C	0.507428	-0.068235	-0.095256
C25	C	0.579877	-0.068235	-0.096309
C26	C	0.579884	0.068255	-0.096293
C27	C	0.507437	0.068253	-0.095233
C28	C	0.471213	0.000006	-0.094718
N29	N	0.820209	-0.178142	-0.092506
C30	C	0.867662	-0.217520	-0.045231
C31	C	0.867668	-0.296322	-0.045229
C32	C	0.820209	-0.335742	-0.092497
C33	C	0.772753	-0.296354	-0.139782
C34	C	0.772753	-0.217554	-0.139787
C35	C	0.756922	-0.460591	-0.101642
C36	C	0.756921	-0.539390	-0.101633
C37	C	0.820210	-0.578789	-0.092488
C38	C	0.883502	-0.539379	-0.083337
C39	C	0.883502	-0.460579	-0.083341
C40	C	0.820204	-0.421188	-0.092498
C41	C	0.867673	-0.703613	-0.045208
C42	C	0.867679	-0.782416	-0.045211
C43	C	0.772759	-0.782447	-0.139761
C44	C	0.772758	-0.703645	-0.139760
C45	C	0.820214	-0.664233	-0.092480
C46	C	0.947219	0.000017	-0.087029
C47	C	1.024323	0.000015	-0.088159
C48	C	0.825681	0.000031	0.034510
C49	C	0.824552	0.000038	0.111614
N50	N	0.820221	0.178169	-0.092481
C51	C	0.814744	-0.000005	-0.219503
C52	C	0.815873	-0.000017	-0.296607
C53	C	0.887320	0.000044	0.156310
C54	C	0.886259	0.000032	0.228757
C55	C	0.822427	0.000029	0.256505
C56	C	0.759651	0.000018	0.211799
C57	C	0.760713	0.000023	0.139354
C58	C	0.772248	0.043877	0.364796
C59	C	0.771188	0.043878	0.437241
C60	C	0.819147	0.000012	0.479951
C61	C	0.868178	-0.043845	0.450208
C62	C	0.869240	-0.043840	0.377763
C63	C	0.821268	0.000024	0.335059
C64	C	0.880769	0.000004	0.603202
C65	C	0.879706	-0.000013	0.675650
C66	C	0.753096	-0.000019	0.658691
C67	C	0.754161	-0.000010	0.586245
C68	C	0.818000	0.000005	0.558505
H69	H	0.162473	-0.123798	-0.090209
H70	H	0.731262	0.079584	0.461451
H71	H	0.734111	-0.185492	-0.178285
Cl72	Cl	0.713097	-0.654136	-0.199192
Cl73	Cl	0.677357	-0.588925	-0.113198
Cl74	Cl	0.967574	0.000041	0.121441
H75	H	0.734120	-0.814543	-0.178250
H76	H	0.906305	-0.185433	-0.006734
H77	H	0.937374	0.000034	0.265155
H78	H	0.031062	0.123832	-0.088232
H79	H	0.705381	-0.428519	-0.109093
Cl80	Cl	0.015001	-0.154021	-0.088051
H81	H	0.734113	-0.328454	-0.178270
Cl82	Cl	0.711953	0.099031	0.311111
H83	H	0.906325	-0.814479	-0.006716
H84	H	0.707678	0.000014	0.234396
H85	H	0.376037	0.094837	-0.167293
H86	H	0.264377	-0.094833	-0.017732
H87	H	0.395809	-0.094833	-0.019660
Cl88	Cl	0.958622	-0.000010	0.731841
Cl89	Cl	0.930871	-0.098976	0.340374
Cl90	Cl	0.461886	-0.154029	-0.094604
H91	H	0.609361	-0.123805	-0.096748
Cl92	Cl	0.963065	-0.411038	-0.071845
Cl93	Cl	0.928472	-0.098996	0.503892
H94	H	0.244616	0.094861	-0.165344
H95	H	0.477951	0.123821	-0.094792
H96	H	0.932750	0.000013	0.580616
H97	H	0.609382	0.123818	-0.096719
Cl98	Cl	0.681798	0.000015	0.083161
Cl99	Cl	0.672849	-0.000027	0.693567
H100	H	0.162495	0.123822	-0.090165
Cl101	Cl	0.927327	-0.345834	0.014209
Cl102	Cl	0.963070	-0.588900	-0.071834
H103	H	0.906316	-0.671522	-0.006711
H104	H	0.703049	-0.000011	0.549852
