data_functionalizedCrystal
_audit_creation_method	'MofGen! by Chris Wilmer'
_symmetry_space_group_name_H-M	'P1'
_symmetry_Int_Tables_number	1
_symmetry_cell_setting	triclinic
loop_
_symmetry_equiv_pos_as_xyz
  x,y,z
_cell_length_a	18.101395
_cell_length_b	11.169417
_cell_length_c	11.169409
_cell_angle_alpha	90.019513
_cell_angle_beta	90.035674
_cell_angle_gamma	90.032353
loop_
_atom_site_label
_atom_site_type_symbol
_atom_site_fract_x
_atom_site_fract_y
_atom_site_fract_z
Zn1	Zn	-0.294745	1.834789	0.678505
Zn2	Zn	-0.418611	1.834606	0.477810
Zn3	Zn	-0.294791	1.634075	0.477840
Zn4	Zn	-0.418552	1.634010	0.678456
O5	O	-0.356675	1.734370	0.578153
O6	O	-0.311182	2.002715	0.651890
O7	O	-0.402230	1.807956	0.309864
O8	O	-0.191152	1.660804	0.504492
O9	O	-0.402186	2.002580	0.504440
O10	O	-0.191118	1.808268	0.651919
O11	O	-0.311260	1.660626	0.309887
O12	O	-0.311202	1.466117	0.504445
O13	O	-0.402085	1.660693	0.846412
O14	O	-0.402129	1.466069	0.651836
O15	O	-0.311124	1.808205	0.846448
O16	O	-0.522236	1.807892	0.504393
O17	O	-0.522193	1.660515	0.651807
C18	C	-0.356665	1.422545	0.578139
C19	C	-0.356678	1.289145	0.578162
C20	C	-0.549085	1.734209	0.578118
C21	C	-0.631399	1.734250	0.578143
C22	C	-0.930490	1.734514	0.578207
C23	C	-0.899168	1.642003	0.671186
C24	C	-0.813551	1.641564	0.670895
C25	C	-0.782108	1.734383	0.578176
C26	C	-0.813271	1.700132	0.451690
C27	C	-0.898916	1.699535	0.452246
C28	C	-0.898829	1.861478	0.610601
C29	C	-0.813178	1.860732	0.613375
C30	C	-0.698248	1.734311	0.578151
C31	C	-1.014350	1.734583	0.578224
C32	C	-0.163513	1.734564	0.578215
C33	C	-0.081199	1.734647	0.578241
C34	C	-0.356593	1.734462	0.891195
C35	C	-0.356558	1.734501	1.024596
C36	C	-0.356685	2.047412	0.578167
C37	C	-0.356690	2.180812	0.578174
C38	C	-0.356703	1.734347	0.266328
C39	C	-0.356530	1.734541	0.132929
H40	H	-0.792478	1.662994	0.764684
C41	C	-0.926668	1.670436	0.796554
C42	C	-0.972249	1.771592	0.792557
C43	C	-0.997610	1.797809	0.908022
H44	H	-0.885724	1.685808	0.847535
H45	H	-0.953911	1.604231	0.826601
H46	H	-0.945007	1.837783	0.762526
H47	H	-1.013204	1.756248	0.741599
H48	H	-1.024852	1.731604	0.938070
H49	H	-0.956661	1.813176	0.958994
H50	H	-1.028544	1.866439	0.905324
C51	C	-0.784586	1.957327	0.529499
C52	C	-0.738147	1.905454	0.443772
C53	C	-0.711802	1.994394	0.366467
H54	H	-0.757732	2.015243	0.574122
H55	H	-0.825076	1.994919	0.490570
H56	H	-0.697663	1.867881	0.482698
H57	H	-0.764985	1.847547	0.399121
H58	H	-0.752292	2.031986	0.327538
H59	H	-0.684951	2.052305	0.411100
H60	H	-0.680296	1.959209	0.308286
C61	C	-0.927803	1.517181	0.642977
C62	C	-0.868084	1.441000	0.619882
C63	C	-0.894435	1.326002	0.593907
H64	H	-0.958967	1.520374	0.574599
H65	H	-0.955015	1.487646	0.709417
H66	H	-0.840884	1.470527	0.553448
H67	H	-0.836915	1.437770	0.688245
H68	H	-0.921646	1.296468	0.660347
H69	H	-0.925599	1.329208	0.525531
H70	H	-0.853920	1.274297	0.578245
H71	H	-0.919639	1.763992	0.380608
H72	H	-0.792906	1.765392	0.380525
H73	H	-0.792806	1.886561	0.706463
H74	H	-0.919084	1.930402	0.542881
H75	H	-0.793131	1.547455	0.649438
C76	C	-0.925506	1.575690	0.415698
C77	C	-0.864458	1.502109	0.393316
C78	C	-0.888920	1.388007	0.359663
H79	H	-0.954746	1.581666	0.345308
H80	H	-0.954264	1.542217	0.478461
H81	H	-0.835713	1.535574	0.330558
H82	H	-0.835212	1.496098	0.463690
H83	H	-0.917677	1.354534	0.422427
H84	H	-0.918160	1.393996	0.289275
H85	H	-0.847503	1.338065	0.344483
H86	H	-0.920369	1.892704	0.701263
H87	H	-0.791890	1.608304	0.423756
