data_functionalizedCrystal
_audit_creation_method	'MofGen! by Chris Wilmer'
_symmetry_space_group_name_H-M	'P1'
_symmetry_Int_Tables_number	1
_symmetry_cell_setting	triclinic
loop_
_symmetry_equiv_pos_as_xyz
  x,y,z
_cell_length_a	11.892095
_cell_length_b	9.065218
_cell_length_c	9.065218
_cell_angle_alpha	85.015885
_cell_angle_beta	93.948829
_cell_angle_gamma	86.043096
loop_
_atom_site_label
_atom_site_type_symbol
_atom_site_fract_x
_atom_site_fract_y
_atom_site_fract_z
O1	O	0.094001	-1.969710	-0.207050
O2	O	0.094003	-1.540425	-0.224796
O3	O	0.094000	-1.763940	-0.001281
O4	O	0.094004	-1.746194	-0.430565
O5	O	-0.094008	-1.745304	-0.019888
O6	O	-0.094005	-1.521788	-0.243403
O7	O	-0.094006	-1.951073	-0.225657
Zn8	Zn	-0.123855	-1.733472	-0.237485
Zn9	Zn	0.123852	-1.758026	-0.212969
O10	O	-0.094003	-1.727558	-0.449172
C11	C	-0.000001	-1.476120	-0.232394
C12	C	-0.000000	-1.312277	-0.227294
N13	N	-0.292909	-1.716725	-0.254215
C14	C	-0.000002	-1.752917	0.044402
C15	C	0.000003	-1.747818	0.208246
C16	C	-0.529559	-1.891318	-0.079723
C17	C	-0.647901	-1.879623	-0.091428
C18	C	-0.647937	-1.681633	-0.289323
C19	C	-0.529595	-1.693328	-0.277618
C20	C	-0.470410	-1.798176	-0.172816
C21	C	-0.352067	-1.809877	-0.161118
C22	C	-0.352104	-1.611881	-0.359005
C23	C	-0.470446	-1.600186	-0.370711
N24	N	0.292906	-1.774785	-0.196227
C25	C	0.000000	-2.015378	-0.218059
C26	C	0.000007	-2.179222	-0.223158
C27	C	0.000001	-1.738582	-0.494855
C28	C	0.000003	-1.743682	-0.658698
H29	H	-0.481371	-1.976699	0.005602
O30	O	-0.711703	-1.980098	0.008960
H31	H	-0.650663	-2.054976	0.083787
O32	O	-0.711778	-1.568554	-0.402354
H33	H	-0.804005	-1.576079	-0.394852
O34	O	-0.534290	-1.487122	-0.483754
H35	H	-0.473275	-1.424318	-0.546521
O36	O	-0.288311	-1.511399	-0.459416
H37	H	-0.196077	-1.537135	-0.433667
H38	H	-0.303880	-1.895253	-0.075787
