data_functionalizedCrystal
_audit_creation_method	'MofGen! by Chris Wilmer'
_symmetry_space_group_name_H-M	'P1'
_symmetry_Int_Tables_number	1
_symmetry_cell_setting	triclinic
loop_
_symmetry_equiv_pos_as_xyz
  x,y,z
_cell_length_a	12.759401
_cell_length_b	16.959453
_cell_length_c	12.759393
_cell_angle_alpha	89.964958
_cell_angle_beta	89.978838
_cell_angle_gamma	90.021720
loop_
_atom_site_label
_atom_site_type_symbol
_atom_site_fract_x
_atom_site_fract_y
_atom_site_fract_z
Zn1	Zn	1.606217	-0.314598	-0.594031
Zn2	Zn	2.106217	0.185402	-0.094031
Zn3	Zn	1.606095	-0.446800	-0.418340
Zn4	Zn	2.106095	0.053200	0.081660
Zn5	Zn	1.430519	-0.314643	-0.418362
Zn6	Zn	1.930519	0.185357	0.081638
Zn7	Zn	1.430491	-0.446743	-0.593973
Zn8	Zn	1.930491	0.053257	-0.093973
O9	O	1.518330	-0.380696	-0.506177
O10	O	2.018330	0.119304	-0.006177
O11	O	1.753222	-0.332140	-0.570740
O12	O	2.253222	0.167860	-0.070740
O13	O	1.582765	-0.429312	-0.271322
O14	O	2.082765	0.070688	0.228678
O15	O	1.453888	-0.204027	-0.441698
O16	O	1.953888	0.295973	0.058302
O17	O	1.753132	-0.429268	-0.441661
O18	O	2.253132	0.070732	0.058339
O19	O	1.582973	-0.203993	-0.570761
O20	O	2.082973	0.296007	-0.070761
O21	O	1.453770	-0.332217	-0.271338
O22	O	1.953770	0.167783	0.228662
O23	O	1.283494	-0.332162	-0.441642
O24	O	1.783494	0.167838	0.058358
O25	O	1.453841	-0.429171	-0.741002
O26	O	1.953841	0.070829	-0.241002
O27	O	1.283474	-0.429214	-0.570663
O28	O	1.783474	0.070786	-0.070663
O29	O	1.582946	-0.332085	-0.741044
O30	O	2.082946	0.167915	-0.241044
O31	O	1.582738	-0.557403	-0.441605
O32	O	2.082738	-0.057403	0.058395
O33	O	1.453723	-0.557361	-0.570642
O34	O	1.953723	-0.057361	-0.070642
C35	C	1.245363	-0.380687	-0.506150
C36	C	1.745363	0.119313	-0.006150
C37	C	1.128586	-0.380702	-0.506163
C38	C	1.628586	0.119298	-0.006163
C39	C	0.964017	-0.431314	-0.573274
C40	C	1.464017	0.068686	-0.073274
C41	C	1.073741	-0.431313	-0.573246
C42	C	1.573741	0.068687	-0.073246
C43	C	1.073703	-0.330096	-0.439097
C44	C	1.573703	0.169904	0.060903
C45	C	0.963981	-0.330102	-0.439122
C46	C	1.463981	0.169898	0.060878
C47	C	0.964039	-0.489749	-0.650727
C48	C	1.464039	0.010251	-0.150727
C49	C	1.073763	-0.489747	-0.650698
C50	C	1.573763	0.010253	-0.150698
C51	C	1.518243	-0.586062	-0.506138
C52	C	2.018243	-0.086062	-0.006138
C53	C	1.518301	-0.673919	-0.506157
C54	C	2.018301	-0.173919	-0.006157
C55	C	1.585631	-1.045319	-0.573507
C56	C	2.085631	-0.545319	-0.073507
C57	C	1.451323	-1.045470	-0.439003
C58	C	1.951323	-0.545470	0.060997
C59	C	1.451285	-0.962924	-0.438978
C60	C	1.951285	-0.462924	0.061022
C61	C	1.518419	-0.921572	-0.506221
C62	C	2.018419	-0.421572	-0.006221
C63	C	1.585592	-0.962765	-0.573487
C64	C	2.085592	-0.462765	-0.073487
C65	C	1.384105	-0.921725	-0.371721
C66	C	1.884105	-0.421725	0.128279
C67	C	1.384063	-0.839174	-0.371695
C68	C	1.884063	-0.339174	0.128305
C69	C	1.451203	-0.797820	-0.438933
C70	C	1.951203	-0.297820	0.061067
C71	C	1.518380	-0.839018	-0.506201
C72	C	2.018380	-0.339018	-0.006201
C73	C	1.585514	-0.797666	-0.573443
C74	C	2.085514	-0.297666	-0.073443
C75	C	1.652696	-0.838863	-0.640706
C76	C	2.152696	-0.338863	-0.140706
C77	C	1.652732	-0.921411	-0.640724
C78	C	2.152732	-0.421411	-0.140724
C79	C	1.451167	-0.715271	-0.438915
C80	C	1.951167	-0.215271	0.061085
C81	C	1.585475	-0.715112	-0.573423
C82	C	2.085475	-0.215112	-0.073423
C83	C	1.792364	-0.380706	-0.506204
C84	C	2.292364	0.119294	-0.006204
C85	C	1.909140	-0.380710	-0.506216
C86	C	2.409140	0.119290	-0.006216
C87	C	1.518404	-0.380616	-0.780210
C88	C	2.018404	0.119384	-0.280210
C89	C	1.518435	-0.380582	-0.896987
C90	C	2.018435	0.119418	-0.396987
C91	C	1.518447	-0.174528	-0.506238
C92	C	2.018447	0.325472	-0.006238
C93	C	1.518497	-0.086671	-0.506264
C94	C	2.018497	0.413329	-0.006264
C95	C	1.585670	-0.330025	-0.951872
C96	C	2.085670	0.169975	-0.451872
C97	C	1.585694	-0.329996	-1.061597
C98	C	2.085694	0.170004	-0.561597
C99	C	1.451248	-0.431090	-1.061540
C100	C	1.951248	0.068910	-0.561540
C101	C	1.451219	-0.431114	-0.951818
C102	C	1.951219	0.068886	-0.451818
C103	C	1.663294	-0.271662	-0.951906
C104	C	2.163294	0.228338	-0.451906
C105	C	1.663319	-0.271633	-1.061630
C106	C	2.163319	0.228367	-0.561630
C107	C	1.518318	-0.380719	-0.233209
C108	C	2.018318	0.119281	0.266791
C109	C	1.518490	-0.380530	-0.116433
C110	C	2.018490	0.119470	0.383567
H111	H	1.107752	-0.547875	-0.621409
H112	H	1.607752	-0.047875	-0.121409
F113	F	1.764290	-0.300340	-0.907416
F114	F	2.264290	0.199660	-0.407416
H115	H	1.634213	-0.213471	-1.095681
H116	H	2.134213	0.286529	-0.595681
F117	F	1.656935	-0.671108	-0.644988
F118	F	2.156935	-0.171108	-0.144988
F119	F	1.112764	-0.468404	-0.757092
F120	F	1.612764	0.031596	-0.257092
F121	F	1.724135	-0.794843	-0.712276
F122	F	2.224135	-0.294843	-0.212276
H123	H	0.934226	-0.550950	-0.628800
H124	H	1.434226	-0.050950	-0.128800
F125	F	1.312644	-0.965739	-0.300180
F126	F	1.812644	-0.465739	0.199820
F127	F	0.905581	-0.276249	-0.367740
F128	F	1.405581	0.223751	0.132260
F129	F	1.132077	-0.276238	-0.367694
F130	F	1.632077	0.223762	0.132306
H131	H	1.744688	-0.288027	-1.091411
H132	H	2.244688	0.211973	-0.591411
H133	H	0.930061	-0.467889	-0.728079
H134	H	1.430061	0.032111	-0.228079
H135	H	1.396467	-0.472279	-0.907134
H136	H	1.896467	0.027721	-0.407134
F137	F	1.724223	-0.965261	-0.712308
F138	F	2.224223	-0.465261	-0.212308
H139	H	1.396521	-0.472228	-1.106196
H140	H	1.896521	0.027772	-0.606196
F141	F	1.634851	-0.191653	-0.913013
F142	F	2.134851	0.308347	-0.413013
H143	H	1.396662	-1.079144	-0.384262
H144	H	1.896662	-0.579144	0.115738
F145	F	1.657131	-1.089163	-0.645086
F146	F	2.157131	-0.589163	-0.145086
H147	H	1.329360	-0.805636	-0.316925
H148	H	1.829360	-0.305636	0.183075
F149	F	1.379669	-0.671430	-0.367336
F150	F	1.879669	-0.171430	0.132664
