data_functionalizedCrystal
_audit_creation_method	'MofGen! by Chris Wilmer'
_symmetry_space_group_name_H-M	'P1'
_symmetry_Int_Tables_number	1
_symmetry_cell_setting	triclinic
loop_
_symmetry_equiv_pos_as_xyz
  x,y,z
_cell_length_a	6.817900
_cell_length_b	11.168129
_cell_length_c	11.102193
_cell_angle_alpha	91.985940
_cell_angle_beta	108.604059
_cell_angle_gamma	108.508637
loop_
_atom_site_label
_atom_site_type_symbol
_atom_site_fract_x
_atom_site_fract_y
_atom_site_fract_z
V1	V	-4.111010	-0.174714	-0.396269
O2	O	-4.070572	0.008386	-0.388714
O3	O	-4.087291	-0.346419	-0.393569
O4	O	-4.087792	-0.172030	-0.569090
O5	O	-4.070067	-0.167210	-0.211978
V6	V	-4.588177	-0.152812	-0.374225
O7	O	-4.386211	-0.222756	-0.444624
O8	O	-4.763173	-0.104770	-0.325869
O9	O	-4.388689	0.018893	-0.376924
O10	O	-4.746011	-0.335913	-0.381779
O11	O	-4.746516	-0.160317	-0.558515
O12	O	-4.388188	-0.155496	-0.201403
C13	C	-3.937481	-0.388277	-0.387321
C14	C	-3.999542	-0.528648	-0.386266
C15	C	-4.148478	-0.753442	-0.495310
C16	C	-4.084336	-0.608362	-0.496403
C17	C	-3.938118	-0.165825	-0.611213
C18	C	-4.000582	-0.164768	-0.752496
C19	C	-4.120242	-0.396044	-0.788837
C20	C	-4.209409	-0.511180	-0.873381
C21	C	-4.268098	-0.510179	-1.006127
C22	C	-4.237621	-0.394030	-1.054330
C23	C	-4.148455	-0.278894	-0.969787
C24	C	-4.089765	-0.279907	-0.837040
C25	C	-4.028810	-0.047620	-0.933446
C26	C	-3.970105	-0.048618	-0.800699
C27	C	-3.998333	0.068529	-0.981650
C28	C	-3.909150	0.183669	-0.897106
C29	C	-3.850458	0.182663	-0.764353
C30	C	-3.880938	0.066518	-0.716156
C31	C	-4.201841	0.060744	-0.383169
C32	C	-4.119019	0.201114	-0.384232
C33	C	-4.201203	-0.161705	-0.159273
C34	C	-4.117977	-0.162756	-0.017990
H35	H	-4.221198	-0.821945	-0.589599
H36	H	-3.884359	0.278228	-0.936366
H37	H	-3.777864	0.276421	-0.695523
H38	H	-4.046322	-0.730384	-0.289944
Br39	Br	-4.040545	-0.397409	-0.608680
Br40	Br	-4.389136	-0.666436	-1.120870
Br41	Br	-4.250789	-0.668805	-0.807957
Br42	Br	-3.801273	0.065145	-0.536001
H43	H	-4.109440	-0.569215	-0.591502
Br44	Br	-3.957643	-0.593874	-0.227744
H45	H	-4.285441	-0.393226	-1.162422
Br46	Br	-4.078001	0.069890	-1.161807
