data_functionalizedCrystal
_audit_creation_method	'MofGen! by Chris Wilmer'
_symmetry_space_group_name_H-M	'P1'
_symmetry_Int_Tables_number	1
_symmetry_cell_setting	triclinic
loop_
_symmetry_equiv_pos_as_xyz
  x,y,z
_cell_length_a	19.288840
_cell_length_b	19.188930
_cell_length_c	18.366186
_cell_angle_alpha	89.988632
_cell_angle_beta	89.983729
_cell_angle_gamma	83.135398
loop_
_atom_site_label
_atom_site_type_symbol
_atom_site_fract_x
_atom_site_fract_y
_atom_site_fract_z
O1	O	0.921370	0.087016	-0.060679
O2	O	1.421370	0.587016	0.439321
O3	O	0.719108	0.098784	-0.060655
O4	O	1.219108	0.598784	0.439345
O5	O	0.826076	-0.008757	-0.060654
O6	O	1.326076	0.491243	0.439346
O7	O	0.814402	0.194556	-0.060681
O8	O	1.314402	0.694556	0.439319
O9	O	0.826058	-0.008762	0.060446
O10	O	1.326058	0.491238	0.560446
O11	O	0.719090	0.098778	0.060444
O12	O	1.219090	0.598778	0.560444
O13	O	0.921352	0.087011	0.060420
O14	O	1.421352	0.587011	0.560420
Zn15	Zn	0.820218	0.092894	0.079659
Zn16	Zn	1.320218	0.592894	0.579659
Zn17	Zn	0.820242	0.092901	-0.079894
Zn18	Zn	1.320242	0.592901	0.420106
O19	O	0.814384	0.194551	0.060419
O20	O	1.314384	0.694551	0.560419
C21	C	0.693222	0.098405	-0.000102
C22	C	1.193222	0.598405	0.499898
C23	C	0.616118	0.097277	-0.000092
C24	C	1.116118	0.597277	0.499908
C25	C	0.579924	0.096738	-0.066105
C26	C	1.079924	0.596738	0.433895
C27	C	0.507477	0.095671	-0.066114
C28	C	1.007477	0.595671	0.433886
C29	C	0.471228	0.095128	-0.000106
C30	C	0.971228	0.595128	0.499894
C31	C	0.507430	0.095671	0.065916
C32	C	1.007430	0.595671	0.565916
C33	C	0.579875	0.096746	0.065922
C34	C	1.079875	0.596746	0.565922
C35	C	0.361890	0.052528	0.050461
C36	C	0.861890	0.552528	0.550461
C37	C	0.289447	0.051449	0.050451
C38	C	0.789447	0.551449	0.550451
C39	C	0.247784	0.091817	-0.000125
C40	C	0.747784	0.591817	0.499875
C41	C	0.278575	0.133255	-0.050703
C42	C	0.778575	0.633255	0.449297
C43	C	0.351019	0.134330	-0.050696
C44	C	0.851019	0.634330	0.449304
C45	C	0.392674	0.093963	-0.000106
C46	C	0.892674	0.593963	0.499894
C47	C	0.133035	0.090121	-0.066152
C48	C	0.633035	0.590121	0.433848
C49	C	0.060586	0.089058	-0.066158
C50	C	0.560586	0.589058	0.433842
C51	C	0.060542	0.089052	0.065874
C52	C	0.560542	0.589052	0.565874
C53	C	0.132989	0.090122	0.065878
C54	C	0.632989	0.590122	0.565878
C55	C	0.169231	0.090653	-0.000137
C56	C	0.669231	0.590653	0.499863
C57	C	0.825689	-0.034770	-0.000102
C58	C	1.325689	0.465230	0.499898
C59	C	0.824554	-0.112275	-0.000096
C60	C	1.324554	0.387725	0.499904
C61	C	0.887319	-0.157209	-0.000100
C62	C	1.387319	0.342791	0.499900
C63	C	0.886253	-0.230033	-0.000111
C64	C	1.386253	0.269967	0.499889
C65	C	0.822418	-0.257919	-0.000104
C66	C	1.322418	0.242081	0.499896
C67	C	0.759645	-0.212975	-0.000104
C68	C	1.259645	0.287025	0.499896
C69	C	0.760713	-0.140153	-0.000100
C70	C	1.260713	0.359847	0.499900
N71	N	0.773618	-0.365917	0.041114
N72	N	1.273618	0.134083	0.541114
N73	N	0.772608	-0.435096	0.041112
N74	N	1.272608	0.064904	0.541112
C75	C	0.819197	-0.477327	-0.000118
C76	C	1.319197	0.022673	0.499882
N77	N	0.866845	-0.447767	-0.041337
N78	N	1.366845	0.052233	0.458663
N79	N	0.867857	-0.378583	-0.041331
N80	N	1.367857	0.121417	0.458669
C81	C	0.821253	-0.336881	-0.000109
C82	C	1.321253	0.163119	0.499891
C83	C	0.880811	-0.601225	-0.000136
C84	C	1.380811	-0.101225	0.499864
C85	C	0.879742	-0.674050	-0.000152
C86	C	1.379742	-0.174050	0.499848
C87	C	0.753131	-0.656990	-0.000138
C88	C	1.253131	-0.156990	0.499862
C89	C	0.754202	-0.584167	-0.000129
C90	C	1.254202	-0.084167	0.499871
C91	C	0.818043	-0.556289	-0.000125
C92	C	1.318043	-0.056289	0.499875
C93	C	0.947238	0.087389	-0.000135
C94	C	1.447238	0.587389	0.499865
C95	C	1.024343	0.088517	-0.000149
C96	C	1.524343	0.588517	0.499851
C97	C	0.814771	0.220565	-0.000135
C98	C	1.314771	0.720565	0.499865
C99	C	0.815906	0.298069	-0.000146
C100	C	1.315906	0.798069	0.499854
N101	N	0.820207	0.092888	0.188550
N102	N	1.320207	0.592888	0.688550
N103	N	0.820259	0.092900	-0.188786
N104	N	1.320259	0.592900	0.311214
C105	C	0.867588	0.045293	0.226651
C106	C	1.367588	0.545293	0.726651
C107	C	0.867592	0.045290	0.302879
C108	C	1.367592	0.545290	0.802879
C109	C	0.820222	0.092894	0.341003
C110	C	1.320222	0.592894	0.841003
C111	C	0.772833	0.140494	0.302893
C112	C	1.272833	0.640494	0.802893
C113	C	0.772825	0.140491	0.226666
C114	C	1.272825	0.640491	0.726666
C115	C	0.810929	0.156512	0.461756
C116	C	1.310929	0.656512	0.961756
C117	C	0.810941	0.156516	0.537981
C118	C	1.310941	0.656516	1.037981
C119	C	0.820242	0.092903	0.576111
C120	C	1.320242	0.592903	1.076111
C121	C	0.829545	0.029284	0.538006
C122	C	1.329545	0.529284	1.038006
C123	C	0.829537	0.029281	0.461780
C124	C	1.329537	0.529281	0.961780
C125	C	0.820225	0.092902	0.423658
C126	C	1.320225	0.592902	0.923658
C127	C	0.867630	0.045300	0.696867
C128	C	1.367630	0.545300	1.196867
C129	C	0.867630	0.045296	0.773096
C130	C	1.367630	0.545296	1.273096
C131	C	0.772874	0.140506	0.773108
C132	C	1.272874	0.640506	1.273108
C133	C	0.772871	0.140504	0.696880
C134	C	1.272871	0.640504	1.196880
C135	C	0.820253	0.092902	0.658764
C136	C	1.320253	0.592902	1.158764
H137	H	0.162458	0.090556	0.119633
H138	H	0.662458	0.590556	0.619633
H139	H	0.734302	0.179264	0.804148
H140	H	1.234302	0.679264	1.304148
N141	N	0.618917	0.097330	0.137125
N142	N	1.118917	0.597330	0.637125
H143	H	0.584963	0.096828	0.178942
H144	H	1.084963	0.596828	0.678942
H145	H	0.654744	0.054501	0.140011
H146	H	1.154744	0.554501	0.640011
N147	N	0.721765	0.191844	0.655787
N148	N	1.221765	0.691844	1.155787
H149	H	0.729611	0.241378	0.669036
H150	H	1.229611	0.741378	1.169036
H151	H	0.728970	0.184560	0.601726
H152	H	1.228970	0.684560	1.101726
N153	N	0.918720	-0.006063	0.655764
N154	N	1.418720	0.493937	1.155764
H155	H	0.892263	-0.036905	0.624161
H156	H	1.392263	0.463095	1.124161
H157	H	0.949388	0.020568	0.624157
H158	H	1.449388	0.520568	1.124157
N159	N	0.721744	0.191841	0.344009
N160	N	1.221744	0.691841	0.844009
H161	H	0.691725	0.221993	0.308302
H162	H	1.191725	0.721993	0.808302
H163	H	0.691127	0.165191	0.375657
H164	H	1.191127	0.665191	0.875657
H165	H	0.609428	0.097171	-0.119860
H166	H	1.109428	0.597171	0.380140
N167	N	0.468427	0.095091	-0.137316
N168	N	0.968427	0.595091	0.362684
H169	H	0.502380	0.095592	-0.179134
H170	H	1.002380	0.595592	0.320866
H171	H	0.444142	0.051370	-0.140182
H172	H	0.944142	0.551370	0.359818
H173	H	0.734241	0.179249	0.195644
H174	H	1.234241	0.679249	0.695644
N175	N	0.690795	-0.243049	-0.000086
N176	N	1.190795	0.256951	0.499914
H177	H	0.651193	-0.203530	-0.000081
H178	H	1.151193	0.296470	0.499919
H179	H	0.687599	-0.272885	-0.044978
H180	H	1.187599	0.227115	0.455022
N181	N	0.956178	-0.127149	-0.000100
N182	N	1.456178	0.372851	0.499900
H183	H	0.983673	-0.143545	-0.044995
H184	H	1.483673	0.356455	0.455005
H185	H	0.947281	-0.074202	-0.000069
H186	H	1.447281	0.425798	0.499931
N187	N	0.953952	-0.278510	-0.000117
N188	N	1.453952	0.221490	0.499883
H189	H	0.994557	-0.249799	-0.000115
H190	H	1.494557	0.250201	0.499885
H191	H	0.956253	-0.309104	0.044775
H192	H	1.456253	0.190896	0.544775
N193	N	0.693012	-0.091684	-0.000079
N194	N	1.193012	0.408316	0.499921
H195	H	0.703375	-0.041321	-0.000072
H196	H	1.203375	0.458679	0.499928
H197	H	0.665184	-0.100672	-0.044968
H198	H	1.165184	0.399328	0.455032
H199	H	0.031029	0.088614	0.119619
H200	H	0.531029	0.588614	0.619619
H201	H	0.932794	-0.578526	-0.000136
H202	H	1.432794	-0.078526	0.499864
H203	H	0.376085	0.168071	-0.091877
H204	H	0.876085	0.668071	0.408123
N205	N	0.233650	0.176797	-0.105260
N206	N	0.733650	0.676797	0.394740
H207	H	0.183084	0.169833	-0.097590
H208	H	0.683084	0.669833	0.402410
H209	H	0.239513	0.227995	-0.098494
H210	H	0.739513	0.727995	0.401506
H211	H	0.031118	0.088624	-0.119916
H212	H	0.531118	0.588624	0.380084
N213	N	0.918696	-0.006049	0.343987
N214	N	1.418696	0.493951	0.843987
H215	H	0.948709	-0.036205	0.308273
H216	H	1.448709	0.463795	0.808273
H217	H	0.949318	0.020607	0.375593
H218	H	1.449318	0.520607	0.875593
H219	H	0.162545	0.090562	-0.119905
H220	H	0.662545	0.590562	0.380095
N221	N	0.256241	0.006754	0.104996
N222	N	0.756241	0.506754	0.604996
H223	H	0.293624	-0.018649	0.137043
H224	H	0.793624	0.481351	0.637043
H225	H	0.221987	0.037678	0.136044
H226	H	0.721987	0.537678	0.636044
H227	H	0.906167	0.006531	0.195619
H228	H	1.406167	0.506531	0.695619
H229	H	0.837118	-0.022516	0.569050
H230	H	1.337118	0.477484	1.069050
N231	N	0.406823	0.008988	0.105016
N232	N	0.906823	0.508988	0.605016
H233	H	0.376327	-0.017429	0.137050
H234	H	0.876327	0.482571	0.637050
H235	H	0.441548	-0.025496	0.078368
H236	H	0.941548	0.474504	0.578368
H237	H	0.837110	-0.022520	0.430758
H238	H	1.337110	0.477480	0.930758
N239	N	0.918748	-0.006030	0.814195
N240	N	1.418748	0.493970	1.314195
H241	H	0.948766	-0.036178	0.778478
H242	H	1.448766	0.463822	1.278478
H243	H	0.949362	0.020640	0.845795
H244	H	1.449362	0.520640	1.345795
H245	H	0.803371	0.208318	0.568999
H246	H	1.303371	0.708318	1.068999
N247	N	0.947442	-0.722519	-0.000159
N248	N	1.447442	-0.222519	0.499841
H249	H	0.988044	-0.693805	-0.000154
H250	H	1.488044	-0.193805	0.499846
H251	H	0.949743	-0.753116	0.044731
H252	H	1.449743	-0.253116	0.544731
N253	N	0.684279	-0.687056	-0.000138
N254	N	1.184279	-0.187056	0.499862
H255	H	0.693125	-0.740008	-0.000144
H256	H	1.193125	-0.240008	0.499856
H257	H	0.656813	-0.670615	0.044758
H258	H	1.156813	-0.170615	0.544758
H259	H	0.703092	-0.547580	-0.000122
H260	H	1.203092	-0.047580	0.499878
N261	N	0.800898	0.225127	0.420633
N262	N	1.300898	0.725127	0.920633
H263	H	0.795014	0.265428	0.456336
H264	H	1.295014	0.765428	0.956336
H265	H	0.843080	0.229087	0.388990
H266	H	1.343080	0.729087	0.888990
N267	N	0.468399	0.094638	0.137109
N268	N	0.968399	0.594638	0.637109
H269	H	0.417034	0.093723	0.127088
H270	H	0.917034	0.593723	0.627088
H271	H	0.487026	0.051406	0.165613
H272	H	0.987026	0.551406	0.665613
