data_functionalizedCrystal
_audit_creation_method	'MofGen! by Chris Wilmer'
_symmetry_space_group_name_H-M	'P1'
_symmetry_Int_Tables_number	1
_symmetry_cell_setting	triclinic
loop_
_symmetry_equiv_pos_as_xyz
  x,y,z
_cell_length_a	14.519709
_cell_length_b	14.519709
_cell_length_c	12.996460
_cell_angle_alpha	89.999948
_cell_angle_beta	90.000034
_cell_angle_gamma	96.319856
loop_
_atom_site_label
_atom_site_type_symbol
_atom_site_fract_x
_atom_site_fract_y
_atom_site_fract_z
O1	O	-1.223869	0.120893	0.085418
O2	O	-0.973869	0.370893	0.335418
O3	O	-0.723869	0.620893	0.585418
O4	O	-0.473869	0.870893	0.835418
O5	O	-0.955392	0.135129	0.085448
O6	O	-0.705392	0.385129	0.335448
O7	O	-0.455392	0.635129	0.585448
O8	O	-0.205392	0.885129	0.835448
O9	O	-1.096749	-0.006227	0.085442
O10	O	-0.846749	0.243773	0.335442
O11	O	-0.596749	0.493773	0.585442
O12	O	-0.346749	0.743773	0.835442
O13	O	-1.082512	0.262250	0.085425
O14	O	-0.832512	0.512250	0.335425
O15	O	-0.582512	0.762250	0.585425
O16	O	-0.332512	1.012250	0.835425
O17	O	-1.096734	-0.006235	-0.085692
O18	O	-0.846734	0.243765	0.164308
O19	O	-0.596734	0.493765	0.414308
O20	O	-0.346734	0.743765	0.664308
O21	O	-0.955377	0.135122	-0.085686
O22	O	-0.705377	0.385122	0.164314
O23	O	-0.455377	0.635122	0.414314
O24	O	-0.205377	0.885122	0.664314
O25	O	-1.223854	0.120885	-0.085716
O26	O	-0.973854	0.370885	0.164284
O27	O	-0.723854	0.620885	0.414284
O28	O	-0.473854	0.870885	0.664284
Cu29	Cu	-1.089614	0.128003	-0.101327
Cu30	Cu	-0.839614	0.378003	0.148673
Cu31	Cu	-0.589614	0.628003	0.398673
Cu32	Cu	-0.339614	0.878003	0.648673
Cu33	Cu	-1.089632	0.128012	0.101059
Cu34	Cu	-0.839632	0.378012	0.351059
Cu35	Cu	-0.589632	0.628012	0.601059
Cu36	Cu	-0.339632	0.878012	0.851059
O37	O	-1.082497	0.262242	-0.085709
O38	O	-0.832497	0.512242	0.164291
O39	O	-0.582497	0.762242	0.414291
O40	O	-0.332497	1.012242	0.664291
C41	C	-0.921025	0.134462	-0.000115
C42	C	-0.671025	0.384462	0.249885
C43	C	-0.421025	0.634462	0.499885
C44	C	-0.171025	0.884462	0.749885
C45	C	-0.818643	0.132474	-0.000103
C46	C	-0.568643	0.382474	0.249897
C47	C	-0.318643	0.632474	0.499897
C48	C	-0.068643	0.882474	0.749897
C49	C	-1.096078	-0.040591	-0.000120
C50	C	-0.846078	0.209409	0.249880
C51	C	-0.596078	0.459409	0.499880
C52	C	-0.346078	0.709409	0.749880
C53	C	-1.094090	-0.142972	-0.000107
C54	C	-0.844090	0.107028	0.249893
C55	C	-0.594090	0.357028	0.499893
C56	C	-0.344090	0.607028	0.749893
C57	C	-1.258221	0.121553	-0.000150
C58	C	-1.008221	0.371553	0.249850
C59	C	-0.758221	0.621553	0.499850
C60	C	-0.508221	0.871553	0.749850
C61	C	-1.360602	0.123541	-0.000156
C62	C	-1.110602	0.373541	0.249844
C63	C	-0.860602	0.623541	0.499844
C64	C	-0.610602	0.873541	0.749844
C65	C	-1.083168	0.296605	-0.000145
C66	C	-0.833168	0.546605	0.249855
C67	C	-0.583168	0.796605	0.499855
C68	C	-0.333168	1.046605	0.749855
C69	C	-1.085156	0.398987	-0.000152
C70	C	-0.835156	0.648987	0.249848
C71	C	-0.585156	0.898987	0.499848
C72	C	-0.335156	1.148987	0.749848
C73	C	-0.443748	0.125154	-0.000149
C74	C	-0.193748	0.375154	0.249851
C75	C	0.056252	0.625154	0.499851
C76	C	0.306252	0.875154	0.749851
C77	C	-0.548056	0.127187	-0.000136
C78	C	-0.298056	0.377187	0.249864
C79	C	-0.048056	0.627187	0.499864
C80	C	0.201944	0.877187	0.749864
C81	C	-0.631192	0.128814	-0.000125
C82	C	-0.381192	0.378814	0.249875
C83	C	-0.131192	0.628814	0.499875
C84	C	0.118808	0.878814	0.749875
C85	C	-0.735507	0.130847	-0.000114
C86	C	-0.485507	0.380847	0.249886
C87	C	-0.235507	0.630847	0.499886
C88	C	0.014493	0.880847	0.749886
N89	N	-1.089609	0.127996	-0.243674
N90	N	-0.839609	0.377996	0.006326
N91	N	-0.589609	0.627996	0.256326
N92	N	-0.339609	0.877996	0.506326
C93	C	-1.092476	0.773883	-0.000112
C94	C	-0.842476	1.023883	0.249888
C95	C	-0.592476	1.273883	0.499888
C96	C	-0.342476	1.523883	0.749888
C97	C	-1.090443	0.669575	-0.000123
C98	C	-0.840443	0.919575	0.249877
C99	C	-0.590443	1.169575	0.499877
C100	C	-0.340443	1.419575	0.749877
C101	C	-1.088816	0.586438	-0.000133
C102	C	-0.838816	0.836438	0.249867
C103	C	-0.588816	1.086438	0.499867
C104	C	-0.338816	1.336438	0.749867
C105	C	-1.086783	0.482123	-0.000142
C106	C	-0.836783	0.732123	0.249858
C107	C	-0.586783	0.982123	0.499858
C108	C	-0.336783	1.232123	0.749858
C109	C	-1.089630	0.128013	-0.663488
C110	C	-0.839630	0.378013	-0.413488
C111	C	-0.589630	0.628013	-0.163488
C112	C	-0.339630	0.878013	0.086512
C113	C	-1.089622	0.128011	-0.546683
C114	C	-0.839622	0.378011	-0.296683
C115	C	-0.589622	0.628011	-0.046683
C116	C	-0.339622	0.878011	0.203317
C117	C	-1.089620	0.128005	-0.453585
C118	C	-0.839620	0.378005	-0.203585
C119	C	-0.589620	0.628005	0.046415
C120	C	-0.339620	0.878005	0.296415
C121	C	-1.089610	0.128002	-0.336772
C122	C	-0.839610	0.378002	-0.086772
C123	C	-0.589610	0.628002	0.163228
C124	C	-0.339610	0.878002	0.413228
N125	N	-1.089644	0.128012	0.243406
N126	N	-0.839644	0.378012	0.493406
N127	N	-0.589644	0.628012	0.743406
N128	N	-0.339644	0.878012	0.993406
