data_functionalizedCrystal
_audit_creation_method	'MofGen! by Chris Wilmer'
_symmetry_space_group_name_H-M	'P1'
_symmetry_Int_Tables_number	1
_symmetry_cell_setting	triclinic
loop_
_symmetry_equiv_pos_as_xyz
  x,y,z
_cell_length_a	19.188925
_cell_length_b	15.455304
_cell_length_c	16.992695
_cell_angle_alpha	87.173346
_cell_angle_beta	86.905386
_cell_angle_gamma	86.990267
loop_
_atom_site_label
_atom_site_type_symbol
_atom_site_fract_x
_atom_site_fract_y
_atom_site_fract_z
O1	O	0.934773	-0.072151	0.100906
O2	O	1.434773	0.427849	0.600906
O3	O	0.732232	-0.072149	0.114085
O4	O	1.232232	0.427851	0.614085
O5	O	0.832690	-0.072143	-0.006645
O6	O	1.332690	0.427857	0.493355
O7	O	0.834315	-0.072157	0.221636
O8	O	1.334315	0.427843	0.721636
O9	O	0.826883	0.072120	-0.012754
O10	O	1.326883	0.572120	0.487246
O11	O	0.726425	0.072114	0.107976
O12	O	1.226425	0.572114	0.607976
O13	O	0.928966	0.072112	0.094796
O14	O	1.428966	0.572112	0.594796
Cu15	Cu	0.827165	0.085285	0.100828
Cu16	Cu	1.327165	0.585285	0.600828
Cu17	Cu	0.834033	-0.085322	0.108053
Cu18	Cu	1.334033	0.414678	0.608053
O19	O	0.828507	0.072106	0.215526
O20	O	1.328507	0.572106	0.715526
C21	C	0.703293	-0.000017	0.110605
C22	C	1.203293	0.499983	0.610605
C23	C	0.625713	-0.000016	0.109326
C24	C	1.125713	0.499984	0.609326
C25	C	0.067587	-0.000022	0.171601
C26	C	0.567587	0.499978	0.671601
C27	C	0.140481	-0.000027	0.172810
C28	C	0.640481	0.499973	0.672810
C29	C	0.181270	-0.000021	0.101969
C30	C	0.681270	0.499979	0.601969
C31	C	0.149160	-0.000033	0.029916
C32	C	0.649160	0.499967	0.529916
C33	C	0.076268	-0.000036	0.028709
C34	C	0.576268	0.499964	0.528709
N35	N	0.296969	0.049090	0.048604
N36	N	0.796969	0.549090	0.548604
N37	N	0.366214	0.049096	0.049755
N38	N	0.866214	0.549096	0.549755
C39	C	0.400891	-0.000011	0.105600
C40	C	0.900891	0.499989	0.605600
N41	N	0.363708	-0.049113	0.160263
N42	N	0.863708	0.450887	0.660263
N43	N	0.294457	-0.049114	0.159114
N44	N	0.794457	0.450886	0.659114
C45	C	0.260310	-0.000017	0.103270
C46	C	0.760310	0.499983	0.603270
C47	C	0.512033	-0.000010	0.178961
C48	C	1.012033	0.499990	0.678961
C49	C	0.584929	-0.000021	0.180167
C50	C	1.084929	0.499979	0.680167
C51	C	0.593606	-0.000018	0.037270
C52	C	1.093606	0.499982	0.537270
C53	C	0.520712	-0.000016	0.036066
C54	C	1.020712	0.499984	0.536066
C55	C	0.479930	-0.000008	0.106914
C56	C	0.979930	0.499992	0.606914
N57	N	0.822340	0.205282	0.095746
N58	N	1.322340	0.705282	0.595746
C59	C	0.865504	0.250669	0.141255
C60	C	1.365504	0.750669	0.641255
C61	C	0.861864	0.341477	0.137406
C62	C	1.361864	0.841477	0.637406
C63	C	0.815055	0.386897	0.088053
C64	C	1.315055	0.886897	0.588053
C65	C	0.771888	0.341503	0.042539
C66	C	1.271888	0.841503	0.542539
C67	C	0.775533	0.250697	0.046384
C68	C	1.275533	0.750697	0.546384
C69	C	0.799335	0.658481	0.071464
C70	C	1.299335	1.158481	0.571464
C71	C	0.795693	0.749294	0.067625
C72	C	1.295693	1.249294	0.567625
C73	C	0.885670	0.749262	0.162491
C74	C	1.385670	1.249262	0.662491
C75	C	0.889307	0.658453	0.166335
C76	C	1.389307	1.158453	0.666335
C77	C	0.846143	0.613067	0.120818
C78	C	1.346143	1.113067	0.620818
N79	N	0.811331	0.479718	0.084120
N80	N	1.311331	0.979718	0.584120
N81	N	0.849871	0.520248	0.124748
N82	N	1.349871	1.020248	0.624748
C83	C	0.957905	-0.000022	0.098277
C84	C	1.457905	0.499978	0.598277
C85	C	1.035485	-0.000029	0.099557
C86	C	1.535485	0.499971	0.599557
N87	N	0.838858	0.794681	0.113133
N88	N	1.338858	1.294681	0.613133
C89	C	0.827698	-0.000012	-0.038905
C90	C	1.327698	0.499988	0.461095
C91	C	0.821465	-0.000012	-0.125927
C92	C	1.321465	0.499988	0.374073
C93	C	0.881604	-0.000012	-0.176375
C94	C	1.381604	0.499988	0.323625
C95	C	0.875744	-0.000020	-0.258141
C96	C	1.375744	0.499980	0.241859
C97	C	0.809743	-0.000022	-0.289458
C98	C	1.309743	0.499978	0.210542
C99	C	0.749599	-0.000025	-0.239003
C100	C	1.249599	0.499975	0.260997
C101	C	0.755460	-0.000023	-0.157239
C102	C	1.255460	0.499977	0.342761
C103	C	0.785451	-0.000034	-0.532971
C104	C	1.285451	0.499966	-0.032971
C105	C	0.779594	-0.000033	-0.614743
C106	C	1.279594	0.499967	-0.114743
C107	C	0.905739	-0.000030	-0.633875
C108	C	1.405739	0.499970	-0.133875
C109	C	0.911595	-0.000023	-0.552108
C110	C	1.411595	0.499977	-0.052108
C111	C	0.851451	-0.000030	-0.501660
C112	C	1.351451	0.499970	-0.001660
N113	N	0.803751	-0.000028	-0.373036
N114	N	1.303751	0.499972	0.126964
N115	N	0.857444	-0.000031	-0.418084
N116	N	1.357444	0.499969	0.081916
C117	C	0.833500	-0.000027	0.247786
C118	C	1.333500	0.499973	0.747786
C119	C	0.839733	-0.000033	0.334809
C120	C	1.339733	0.499967	0.834809
H121	H	0.494575	-0.000017	-0.022601
H122	H	0.994575	0.499983	0.477399
H123	H	0.725845	-0.000021	-0.640237
H124	H	1.225845	0.499979	-0.140237
N125	N	0.949018	-0.000000	-0.144376
N126	N	1.449018	0.500000	0.355624
N127	N	0.963911	0.060812	-0.103465
N128	N	1.463911	0.560812	0.396535
H129	H	1.011523	0.060819	-0.080866
H130	H	1.511523	0.560819	0.419134
H131	H	0.757571	0.786272	0.027435
H132	H	1.257571	1.286272	0.527435
H133	H	0.706488	-0.000023	-0.116164
H134	H	1.206488	0.499977	0.383836
H135	H	0.903618	0.213694	0.181448
H136	H	1.403618	0.713694	0.681448
H137	H	0.626816	-0.000020	-0.020410
H138	H	1.126816	0.499980	0.479590
N139	N	0.967179	-0.000039	-0.685394
N140	N	1.467179	0.499961	-0.185394
N141	N	1.026103	-0.000042	-0.657422
N142	N	1.526103	0.499958	-0.157422
H143	H	1.069499	-0.000051	-0.693806
H144	H	1.569499	0.499949	-0.193806
N145	N	0.905965	0.387825	0.183893
N146	N	1.405965	0.887825	0.683893
N147	N	0.947754	0.347262	0.227957
N148	N	1.447754	0.847262	0.727957
H149	H	0.978904	0.379994	0.260790
H150	H	1.478904	0.879994	0.760790
H151	H	0.965339	-0.000021	-0.526617
H152	H	1.465339	0.499979	-0.026617
H153	H	0.478826	-0.000006	0.236649
H154	H	0.978826	0.499994	0.736649
H155	H	0.034386	-0.000020	0.229291
H156	H	0.534386	0.499980	0.729291
N157	N	0.617736	-0.000021	0.253755
N158	N	1.117736	0.499979	0.753755
N159	N	0.659892	-0.060830	0.272950
N160	N	1.159892	0.439170	0.772950
H161	H	0.683065	-0.060831	0.324923
H162	H	1.183065	0.439169	0.824923
H163	H	0.733779	0.378491	0.002351
H164	H	1.233779	0.878491	0.502351
H165	H	0.182375	-0.000030	-0.027763
H166	H	0.682375	0.499970	0.472237
H167	H	0.927426	0.621478	0.206521
H168	H	1.427426	1.121478	0.706521
H169	H	0.740383	0.213744	0.009326
H170	H	1.240383	0.713744	0.509326
N171	N	0.682174	-0.000011	-0.270977
N172	N	1.182174	0.499989	0.229023
N173	N	0.628483	-0.000005	-0.225923
N174	N	1.128483	0.499995	0.274077
H175	H	0.580862	0.000010	-0.248502
H176	H	1.080862	0.500010	0.251498
H177	H	0.736477	-0.000040	-0.491906
H178	H	1.236477	0.499960	0.008094
N179	N	0.043484	-0.000047	-0.044893
N180	N	0.543484	0.499953	0.455107
N181	N	0.079907	-0.000050	-0.108140
N182	N	0.579907	0.499950	0.391860
H183	H	0.056753	-0.000056	-0.160123
H184	H	0.556753	0.499944	0.339877
N185	N	0.755240	0.612115	0.024989
N186	N	1.255240	1.112115	0.524989
N187	N	0.758495	0.531038	0.028424
N188	N	1.258495	1.031038	0.528424
H189	H	0.727350	0.498288	-0.004399
H190	H	1.227350	0.998288	0.495601
H191	H	0.924716	-0.000018	-0.299214
H192	H	1.424716	0.499982	0.200786
N193	N	0.173272	-0.000019	0.246412
N194	N	0.673272	0.499981	0.746412
N195	N	0.136851	-0.000014	0.309660
N196	N	0.636851	0.499986	0.809660
H197	H	0.160007	-0.000007	0.361643
H198	H	0.660007	0.499993	0.861643
N199	N	0.929752	0.795636	0.208978
N200	N	1.429752	1.295636	0.708978
N201	N	0.926494	0.876712	0.205543
N202	N	1.426494	1.376712	0.705543
H203	H	0.957629	0.909465	0.238376
H204	H	1.457629	1.409465	0.738376
