data_functionalizedCrystal
_audit_creation_method	'MofGen! by Chris Wilmer'
_symmetry_space_group_name_H-M	'P1'
_symmetry_Int_Tables_number	1
_symmetry_cell_setting	triclinic
loop_
_symmetry_equiv_pos_as_xyz
  x,y,z
_cell_length_a	14.044220
_cell_length_b	9.565339
_cell_length_c	14.044220
_cell_angle_alpha	89.999264
_cell_angle_beta	86.811122
_cell_angle_gamma	89.998998
loop_
_atom_site_label
_atom_site_type_symbol
_atom_site_fract_x
_atom_site_fract_y
_atom_site_fract_z
O1	O	1.277167	0.116117	-0.230161
O2	O	1.777167	0.616117	0.269839
O3	O	1.000495	0.116152	-0.221855
O4	O	1.500495	0.616152	0.278145
O5	O	1.134678	0.116121	-0.087672
O6	O	1.634678	0.616121	0.412328
O7	O	1.142984	0.116148	-0.364344
O8	O	1.642984	0.616148	0.135656
O9	O	1.134667	-0.116399	-0.087680
O10	O	1.634667	0.383601	0.412320
O11	O	1.000485	-0.116368	-0.221863
O12	O	1.500485	0.383632	0.278137
O13	O	1.277156	-0.116403	-0.230169
O14	O	1.777156	0.383597	0.269831
Zn15	Zn	1.138819	-0.153303	-0.226017
Zn16	Zn	1.638819	0.346697	0.273983
Zn17	Zn	1.138833	0.153052	-0.226007
Zn18	Zn	1.638833	0.653052	0.273993
O19	O	1.142973	-0.116372	-0.364352
O20	O	1.642973	0.383628	0.135648
C21	C	0.964868	-0.000104	-0.218223
C22	C	1.464868	0.499896	0.281777
C23	C	0.858725	-0.000091	-0.207379
C24	C	1.358725	0.499909	0.292621
N25	N	1.138816	-0.362383	-0.226025
N26	N	1.638816	0.137617	0.273975
C27	C	0.664388	-0.000120	-0.187553
C28	C	1.164388	0.499880	0.312447
C29	C	0.613258	-0.000119	-0.264467
C30	C	1.113258	0.499881	0.235533
C31	C	0.505122	-0.000135	-0.253435
C32	C	1.005122	0.499865	0.246565
C33	C	0.772534	-0.000104	-0.198583
C34	C	1.272534	0.499896	0.301417
C35	C	1.076738	-0.453571	-0.288056
C36	C	1.576738	0.046429	0.211944
C37	C	1.164577	-0.546759	-0.313875
C38	C	1.664577	-0.046759	0.186125
C39	C	1.051015	-0.546750	-0.200215
C40	C	1.551015	-0.046750	0.299785
C41	C	1.226701	-0.453519	-0.251891
C42	C	1.726701	0.046481	0.248109
C43	C	1.113080	-0.453501	-0.138189
C44	C	1.613080	0.046499	0.361811
C45	C	1.200978	-0.546647	-0.163977
C46	C	1.700978	-0.046647	0.336023
C47	C	1.312783	-0.000145	-0.233800
C48	C	1.812783	0.499855	0.266200
C49	C	1.418926	-0.000148	-0.244645
C50	C	1.918926	0.499852	0.255355
C51	C	1.131037	-0.000139	-0.052054
C52	C	1.631037	0.499861	0.447946
C53	C	1.120193	-0.000139	0.054088
C54	C	1.620193	0.499861	0.554088
N55	N	1.138843	0.362131	-0.225992
N56	N	1.638843	0.862131	0.274008
C57	C	1.146614	-0.000109	-0.399969
C58	C	1.646614	0.499891	0.100031
C59	C	1.157459	-0.000100	-0.506112
C60	C	1.657459	0.499900	-0.006112
C61	C	1.100366	-0.000117	0.248426
C62	C	1.600366	0.499883	0.748426
C63	C	1.177281	-0.000122	0.299556
C64	C	1.677281	0.499878	0.799556
C65	C	1.166249	-0.000110	0.407692
C66	C	1.666249	0.499890	0.907692
C67	C	1.111397	-0.000129	0.140280
C68	C	1.611397	0.499871	0.640280
H69	H	0.650697	-0.000105	-0.338600
H70	H	1.150697	0.499895	0.161400
H71	H	0.626951	-0.000135	-0.113425
H72	H	1.126951	0.499865	0.386575
H73	H	1.300987	-0.412738	-0.273794
H74	H	1.800987	0.087262	0.226206
H75	H	1.186363	-0.587722	-0.388143
H76	H	1.686363	-0.087722	0.111857
H77	H	1.024298	-0.412705	-0.340570
H78	H	1.524298	0.087295	0.159430
H79	H	1.253548	-0.587258	-0.111507
H80	H	1.753548	-0.087258	0.388493
H81	H	1.091269	-0.412506	-0.063942
H82	H	1.591269	0.087494	0.436058
H83	H	0.976753	-0.587706	-0.178401
H84	H	1.476753	-0.087706	0.321599
C85	C	1.269064	-0.000173	0.150126
C86	C	1.769064	0.499827	0.650126
C87	C	1.277361	-0.000156	0.249022
C88	C	1.777361	0.499844	0.749022
H89	H	1.330847	-0.000206	0.118928
H90	H	1.830847	0.499794	0.618928
H91	H	1.235380	0.080915	0.132181
H92	H	1.735380	0.580915	0.632181
H93	H	1.235349	-0.081255	0.132199
H94	H	1.735349	0.418745	0.632199
H95	H	1.311070	0.080932	0.266950
H96	H	1.811070	0.580932	0.766950
H97	H	1.311059	-0.081253	0.266974
H98	H	1.811059	0.418747	0.766974
H99	H	1.026239	-0.000104	0.285863
H100	H	1.526239	0.499896	0.785863
