data_functionalizedCrystal
_audit_creation_method	'MofGen! by Chris Wilmer'
_symmetry_space_group_name_H-M	'P1'
_symmetry_Int_Tables_number	1
_symmetry_cell_setting	triclinic
loop_
_symmetry_equiv_pos_as_xyz
  x,y,z
_cell_length_a	27.732048
_cell_length_b	27.732025
_cell_length_c	26.210047
_cell_angle_alpha	90.005231
_cell_angle_beta	90.015477
_cell_angle_gamma	82.638061
loop_
_atom_site_label
_atom_site_type_symbol
_atom_site_fract_x
_atom_site_fract_y
_atom_site_fract_z
O1	O	0.640933	0.057527	0.042348
O2	O	0.500139	0.066272	0.042361
O3	O	0.574914	-0.008498	0.042370
O4	O	0.566157	0.132297	0.042339
O5	O	0.574887	-0.008519	-0.042488
O6	O	0.500112	0.066252	-0.042497
O7	O	0.640906	0.057506	-0.042510
Cu8	Cu	0.570506	0.061877	-0.050252
Cu9	Cu	0.570538	0.061901	0.050103
O10	O	0.566130	0.132276	-0.042519
C11	C	0.574719	-0.026515	-0.000054
C12	C	0.574170	-0.080171	-0.000039
C13	C	0.482118	0.066078	-0.000066
C14	C	0.428463	0.065526	-0.000060
C15	C	0.570288	-0.463325	0.046188
C16	C	0.572341	-0.261666	0.046204
O17	O	0.572638	-0.235589	0.085544
N18	N	0.572582	-0.236456	-0.000051
C19	C	0.572314	-0.261664	-0.046313
O20	O	0.572572	-0.235595	-0.085655
C21	C	0.570265	-0.463323	-0.046329
C22	C	0.570019	-0.488530	-0.000071
C23	C	0.570042	-0.488532	0.092442
C24	C	0.569526	-0.538943	0.092437
C25	C	0.569257	-0.564148	0.046179
C26	C	0.569503	-0.538941	-0.000075
C27	C	0.570001	-0.488531	-0.092590
C28	C	0.569490	-0.538949	-0.092590
C29	C	0.569243	-0.564156	-0.046332
C30	C	0.568717	-0.614557	-0.046339
N31	N	0.568476	-0.639767	-0.000084
C32	C	0.568745	-0.614563	0.046175
C33	C	0.573389	-0.155790	-0.046301
C34	C	0.573900	-0.105375	-0.046298
C35	C	0.573928	-0.105381	0.046219
C36	C	0.573413	-0.155796	0.046215
C37	C	0.573147	-0.181000	-0.000047
C38	C	0.567662	-0.720430	0.046162
C39	C	0.567144	-0.770846	0.046153
C40	C	0.567119	-0.770837	-0.046364
C41	C	0.567634	-0.720425	-0.046355
C42	C	0.567907	-0.695223	-0.000088
O43	O	0.568425	-0.640666	-0.085658
O44	O	0.568498	-0.640642	0.085511
C45	C	0.570804	-0.412914	0.046192
C46	C	0.571050	-0.387707	-0.000062
C47	C	0.570780	-0.412911	-0.046320
C48	C	0.571561	-0.337292	-0.000058
C49	C	0.571831	-0.312088	0.046201
C50	C	0.571589	-0.337298	0.092455
C51	C	0.571073	-0.387709	0.092451
C52	C	0.571022	-0.387702	-0.092575
C53	C	0.571537	-0.337290	-0.092567
C54	C	0.571807	-0.312085	-0.046308
C55	C	0.089645	0.106230	-0.000091
C56	C	-0.112014	0.104179	-0.000095
O57	O	-0.143273	0.141400	-0.000125
N58	N	-0.131135	0.059843	-0.000085
C59	C	-0.099836	0.016017	-0.000076
O60	O	-0.120726	-0.021740	-0.000073
C61	C	0.101822	0.018069	-0.000076
C62	C	0.120939	0.062407	-0.000081
C63	C	0.108763	0.150565	-0.000097
C64	C	0.159175	0.151077	-0.000093
C65	C	0.190469	0.107254	-0.000083
C66	C	0.171351	0.062920	-0.000077
C67	C	0.133119	-0.025757	-0.000072
C68	C	0.183537	-0.025240	-0.000073
C69	C	0.202654	0.019098	-0.000078
C70	C	0.253057	0.019609	-0.000064
N71	N	0.272177	0.063945	-0.000074
C72	C	0.240883	0.107767	-0.000084
C73	C	-0.205710	0.014943	-0.000076
C74	C	-0.256125	0.014430	-0.000075
C75	C	-0.268299	0.102592	-0.000094
C76	C	-0.217884	0.103105	-0.000092
C77	C	-0.186590	0.059279	-0.000086
C78	C	0.346752	0.108840	-0.000076
C79	C	0.397169	0.109348	-0.000070
C80	C	0.409339	0.021187	-0.000053
C81	C	0.358927	0.020678	-0.000056
C82	C	0.327634	0.064509	-0.000069
O83	O	0.284344	-0.017592	-0.000040
O84	O	0.261783	0.145519	-0.000099
C85	C	0.039233	0.105718	-0.000095
C86	C	0.020115	0.061383	-0.000089
C87	C	0.051410	0.017560	-0.000079
C88	C	-0.030299	0.060870	-0.000088
C89	C	-0.061593	0.104692	-0.000098
C90	C	-0.042473	0.149028	-0.000108
C91	C	0.007939	0.149540	-0.000104
C92	C	0.032289	-0.026776	-0.000069
C93	C	-0.018123	-0.027284	-0.000072
C94	C	-0.049417	0.016538	-0.000082
C95	C	0.658926	0.057700	-0.000082
C96	C	0.712581	0.058253	-0.000085
C97	C	0.566326	0.150294	-0.000094
C98	C	0.566874	0.203949	-0.000105
N99	N	0.570487	0.061860	-0.120836
C100	C	0.541437	0.032763	-0.526804
C101	C	0.541415	0.032751	-0.313145
O102	O	0.516686	0.007973	-0.285527
N103	N	0.570505	0.061866	-0.286419
C104	C	0.599605	0.090984	-0.313112
O105	O	0.624352	0.115745	-0.285478
C106	C	0.599629	0.090993	-0.526769
C107	C	0.570533	0.061880	-0.553492
C108	C	0.512344	0.003651	-0.553526
C109	C	0.512347	0.003656	-0.606938
C110	C	0.541444	0.032773	-0.633626
C111	C	0.570537	0.061885	-0.606904
C112	C	0.628731	0.120109	-0.553461
C113	C	0.628735	0.120107	-0.606879
C114	C	0.599640	0.090994	-0.633601
C115	C	0.599637	0.091007	-0.687004
N116	N	0.570547	0.061892	-0.713729
C117	C	0.541450	0.032775	-0.687041
C118	C	0.599590	0.090978	-0.200938
C119	C	0.599584	0.090977	-0.147524
C120	C	0.541394	0.032742	-0.147561
C121	C	0.541398	0.032747	-0.200976
C122	C	0.570500	0.061863	-0.227664
C123	C	0.541460	0.032789	-0.799209
C124	C	0.541464	0.032798	-0.852625
C125	C	0.599656	0.091030	-0.852583
C126	C	0.599649	0.091023	-0.799172
C127	C	0.570550	0.061898	-0.772486
O128	O	0.624358	0.115768	-0.714655
O129	O	0.516716	0.008010	-0.714684
C130	C	0.541433	0.032757	-0.473392
C131	C	0.570526	0.061869	-0.446669
C132	C	0.599623	0.090986	-0.473358
C133	C	0.570519	0.061868	-0.393255
C134	C	0.541423	0.032751	-0.366567
C135	C	0.512333	0.003635	-0.393292
C136	C	0.512336	0.003640	-0.446704
C137	C	0.628713	0.120102	-0.446632
C138	C	0.628706	0.120094	-0.393221
C139	C	0.599610	0.090977	-0.366532
N140	N	0.570561	0.061915	0.120687
H141	H	0.567884	-0.699917	0.083837
H142	H	0.569329	-0.559463	0.130105
H143	H	-0.180235	-0.020747	-0.000071
H144	H	0.117563	-0.061862	-0.000068
O145	O	0.570772	-0.412130	0.137418
C146	C	0.529020	-0.394030	0.165555
H147	H	0.515426	-0.355499	0.152399
H148	H	0.499403	-0.418354	0.159146
C149	C	0.558478	-0.440775	0.238876
C150	C	0.541784	-0.393449	0.222720
H151	H	0.566350	-0.440419	0.274138
H152	H	0.586607	-0.452971	0.219919
H153	H	0.533795	-0.461040	0.233531
H154	H	0.566470	-0.373187	0.228059
H155	H	0.513660	-0.381250	0.241679
H156	H	0.566941	-0.791367	0.083823
H157	H	0.570263	-0.468016	0.130113
H158	H	0.574144	-0.084850	0.083885
H159	H	0.209014	-0.060929	-0.000069
H160	H	0.343361	-0.015426	-0.000044
H161	H	0.569274	-0.559468	-0.130263
H162	H	0.488656	-0.020053	-0.628691
O163	O	0.571797	-0.312885	-0.137551
C164	C	0.571437	-0.345946	-0.178377
H165	H	0.586379	-0.383998	-0.164813
H166	H	0.532585	-0.345946	-0.192603
C167	C	0.584991	-0.283924	-0.238739
C168	C	0.603347	-0.330659	-0.222080
H169	H	0.604672	-0.274494	-0.265698
H170	H	0.585232	-0.261649	-0.211234
H171	H	0.552615	-0.283930	-0.250590
H172	H	0.635720	-0.330651	-0.210224
H173	H	0.603112	-0.352934	-0.249585
O174	O	0.627989	0.119283	-0.878458
C175	C	0.677153	0.105536	-0.865401
H176	H	0.679367	0.086776	-0.826619
H177	H	0.695149	0.079475	-0.895459
C178	C	0.700838	0.174106	-0.910558
C179	C	0.703557	0.151068	-0.862923
H180	H	0.717126	0.202191	-0.909031
H181	H	0.667716	0.183367	-0.919357
H182	H	0.715834	0.152384	-0.935601
H183	H	0.688555	0.172788	-0.837882
H184	H	0.736677	0.141811	-0.854120
O185	O	0.177679	0.194181	-0.000033
C186	C	0.161666	0.220874	0.043915
H187	H	0.126803	0.207959	0.058570
H188	H	0.190891	0.215070	0.074692
C189	C	0.194612	0.291181	0.012553
C190	C	0.151789	0.275321	0.030550
H191	H	0.188521	0.324767	0.004310
H192	H	0.205402	0.273197	-0.017055
H193	H	0.218962	0.286340	0.038203
H194	H	0.127442	0.280157	0.004898
H195	H	0.140995	0.293308	0.060154
O196	O	0.567794	-0.695973	-0.091318
C197	C	0.525768	-0.702492	-0.119443
H198	H	0.511441	-0.737171	-0.106295
H199	H	0.496734	-0.670070	-0.113014
C200	C	0.556032	-0.663973	-0.192760
C201	C	0.538438	-0.706569	-0.176615
H202	H	0.563846	-0.666486	-0.228026
H203	H	0.584345	-0.659579	-0.173811
H204	H	0.531834	-0.636959	-0.187398
H205	H	0.562638	-0.733581	-0.181971
H206	H	0.510129	-0.710967	-0.195566
H207	H	0.321279	0.144531	-0.000088
O208	O	0.484042	-0.024562	-0.527553
C209	C	0.450821	0.005146	-0.496683
H210	H	0.465599	0.040904	-0.488658
H211	H	0.414441	0.012810	-0.517294
C212	C	0.425566	-0.064975	-0.455814
C213	C	0.443718	-0.021058	-0.445955
H214	H	0.421183	-0.081139	-0.424524
H215	H	0.447946	-0.084990	-0.476614
H216	H	0.395251	-0.058582	-0.472992
H217	H	0.474035	-0.027452	-0.428783
H218	H	0.421343	-0.001044	-0.425151
H219	H	0.517769	0.009090	-0.874380
H220	H	0.434828	-0.014493	-0.000043
O221	O	0.026425	0.192654	-0.000135
C222	C	-0.012015	0.231217	-0.000132
H223	H	-0.046167	0.217919	-0.016195
H224	H	-0.019242	0.244726	0.040576
C225	C	0.043840	0.289392	-0.013691
C226	C	0.001895	0.273059	-0.033424
H227	H	0.052420	0.315203	-0.034225
H228	H	0.069738	0.263412	-0.013691
H229	H	0.037812	0.300646	0.020232
H230	H	0.007926	0.261800	-0.067343
H231	H	-0.024002	0.299039	-0.033430
O232	O	0.570683	-0.412219	-0.137484
C233	C	0.528491	-0.435573	-0.140253
H234	H	0.514475	-0.441209	-0.100088
H235	H	0.499354	-0.412077	-0.163060
C236	C	0.557912	-0.478287	-0.216058
C237	C	0.540699	-0.485214	-0.166726
H238	H	0.565441	-0.508907	-0.232390
H239	H	0.586337	-0.462552	-0.214194
H240	H	0.533628	-0.458706	-0.235057
H241	H	0.564985	-0.504790	-0.147727
H242	H	0.512279	-0.500954	-0.168588
O243	O	0.513125	0.004419	-0.226854
C244	C	0.487434	-0.021268	-0.191838
H245	H	0.507462	-0.024225	-0.153755
H246	H	0.449341	-0.001091	-0.186171
C247	C	0.459174	-0.068957	-0.259462
C248	C	0.483774	-0.072593	-0.212689
H249	H	0.456914	-0.100616	-0.272324
H250	H	0.476481	-0.051651	-0.283053
H251	H	0.427432	-0.052141	-0.254733
H252	H	0.515517	-0.089404	-0.217419
H253	H	0.466472	-0.089904	-0.189098
H254	H	0.571805	-0.316767	0.130121
H255	H	0.566898	-0.791367	-0.084026
H256	H	-0.202323	0.139209	-0.000099
O257	O	0.573190	-0.180207	0.091195
C258	C	0.573518	-0.147141	0.132021
H259	H	0.589195	-0.113322	0.118462
H260	H	0.534779	-0.136416	0.146235
C261	C	0.585775	-0.212731	0.192387
C262	C	0.605033	-0.171195	0.175734
H263	H	0.605213	-0.227569	0.219352
H264	H	0.585552	-0.235008	0.164882
H265	H	0.553493	-0.203788	0.204228
H266	H	0.637312	-0.180140	0.163887
H267	H	0.605262	-0.148920	0.203238
H268	H	0.574092	-0.084855	-0.083965
O269	O	0.513098	0.004527	-0.121578
C270	C	0.479881	0.034232	-0.090701
H271	H	0.494650	0.069997	-0.082690
H272	H	0.443493	0.041883	-0.111301
C273	C	0.454659	-0.035891	-0.049807
C274	C	0.472801	0.008033	-0.039965
H275	H	0.450290	-0.052052	-0.018511
H276	H	0.477037	-0.055905	-0.070610
H277	H	0.424338	-0.029510	-0.066975
H278	H	0.503125	0.001651	-0.022803
H279	H	0.450428	0.028045	-0.019157
H280	H	0.623270	0.114690	-0.125771
H281	H	-0.067962	0.184710	-0.000114
H282	H	0.412731	0.145456	-0.000074
H283	H	-0.033683	-0.063393	-0.000064
H284	H	0.573173	-0.176307	-0.083976
O285	O	0.627871	0.119312	-0.226780
C286	C	0.653549	0.144998	-0.191731
H287	H	0.633510	0.147949	-0.153666
H288	H	0.691641	0.124823	-0.186036
C289	C	0.681825	0.192697	-0.259312
C290	C	0.657210	0.196325	-0.212561
H291	H	0.684086	0.224357	-0.272161
H292	H	0.664527	0.175390	-0.282926
H293	H	0.713566	0.175882	-0.254560
H294	H	0.625468	0.213134	-0.217315
H295	H	0.674504	0.213636	-0.188948
H296	H	0.623334	0.114737	-0.777413
O297	O	0.657043	0.148400	-0.527590
C298	C	0.682716	0.174101	-0.562610
H299	H	0.685681	0.154069	-0.600686
H300	H	0.662521	0.212186	-0.568293
C301	C	0.730390	0.202393	-0.494988
C302	C	0.734036	0.177788	-0.541753
H303	H	0.762046	0.204670	-0.482122
H304	H	0.713093	0.185080	-0.471394
H305	H	0.713559	0.234128	-0.499730
H306	H	0.750861	0.146052	-0.537009
H307	H	0.751337	0.195096	-0.565346
O308	O	0.484131	-0.024716	-0.472636
C309	C	0.497888	-0.073873	-0.459573
H310	H	0.536903	-0.078815	-0.444879
H311	H	0.472633	-0.084917	-0.428576
C312	C	0.446408	-0.099905	-0.525073
C313	C	0.494329	-0.105976	-0.507029
H314	H	0.444210	-0.119708	-0.554345
H315	H	0.437138	-0.066787	-0.533873
H316	H	0.425367	-0.109108	-0.499238
H317	H	0.515367	-0.096767	-0.532862
H318	H	0.503602	-0.139094	-0.498235
O319	O	-0.298772	0.145118	-0.000127
C320	C	-0.347366	0.135152	-0.000112
H321	H	-0.349016	0.097192	-0.016165
H322	H	-0.361953	0.137108	0.040598
C323	C	-0.376487	0.219523	-0.013686
C324	C	-0.378515	0.172902	-0.033407
H325	H	-0.395702	0.242810	-0.034221
H326	H	-0.343749	0.226239	-0.013694
H327	H	-0.388642	0.221146	0.020239
H328	H	-0.366354	0.171278	-0.067328
H329	H	-0.411252	0.166187	-0.033405
H330	H	0.652435	0.143817	-0.628605
H331	H	-0.271685	-0.021675	-0.000063
O332	O	0.483995	-0.024594	-0.367385
C333	C	0.434831	-0.010871	-0.380459
H334	H	0.429861	0.028145	-0.395140
H335	H	0.423804	-0.036136	-0.411470
C336	C	0.408841	-0.062374	-0.314988
C337	C	0.402736	-0.014453	-0.333015
H338	H	0.389043	-0.064586	-0.285723
H339	H	0.441964	-0.071622	-0.306181
H340	H	0.399653	-0.083423	-0.340834
H341	H	0.411930	0.006593	-0.307171
H342	H	0.369614	-0.005203	-0.341817
H343	H	0.652398	0.143807	-0.371468
O344	O	0.513161	0.004570	-0.773235
C345	C	0.479944	0.034273	-0.742357
H346	H	0.494718	0.070032	-0.734335
H347	H	0.443559	0.041932	-0.762962
C348	C	0.454706	-0.035855	-0.701485
C349	C	0.472854	0.008065	-0.691629
H350	H	0.450330	-0.052021	-0.670194
H351	H	0.477084	-0.055867	-0.722290
H352	H	0.424387	-0.029465	-0.718657
H353	H	0.503174	0.001674	-0.674463
H354	H	0.450480	0.028075	-0.670820
H355	H	0.570207	-0.468017	-0.130258
H356	H	0.083287	0.186253	-0.000106
H357	H	0.057765	-0.062462	-0.000062
H358	H	0.652408	0.143812	-0.468357
