data_functionalizedCrystal
_audit_creation_method	'MofGen! by Chris Wilmer'
_symmetry_space_group_name_H-M	'P1'
_symmetry_Int_Tables_number	1
_symmetry_cell_setting	triclinic
loop_
_symmetry_equiv_pos_as_xyz
  x,y,z
_cell_length_a	16.625548
_cell_length_b	17.077402
_cell_length_c	17.077396
_cell_angle_alpha	90.029784
_cell_angle_beta	89.980422
_cell_angle_gamma	89.976049
loop_
_atom_site_label
_atom_site_type_symbol
_atom_site_fract_x
_atom_site_fract_y
_atom_site_fract_z
Zn1	Zn	1.232670	0.312486	-0.443837
Zn2	Zn	1.232575	0.443761	-0.312568
Zn3	Zn	1.097834	0.312515	-0.312585
Zn4	Zn	1.097802	0.443716	-0.443792
O5	O	1.165220	0.378119	-0.378196
O6	O	1.345490	0.329906	-0.426436
O7	O	1.214675	0.426382	-0.202723
O8	O	1.115774	0.202664	-0.330022
O9	O	1.345420	0.426353	-0.329993
O10	O	1.214838	0.202643	-0.426452
O11	O	1.115682	0.329956	-0.202736
O12	O	0.984998	0.329913	-0.329978
O13	O	1.115718	0.426277	-0.553645
O14	O	0.984973	0.426306	-0.426375
O15	O	1.214806	0.329863	-0.553678
O16	O	1.214643	0.553602	-0.329949
O17	O	1.115626	0.553569	-0.426358
C18	C	1.165142	0.582067	-0.378164
C19	C	1.165183	0.669317	-0.378177
C20	C	0.955729	0.378108	-0.378174
C21	C	0.866108	0.378122	-0.378183
C22	C	1.165269	0.378062	-0.582940
C23	C	1.165290	0.378037	-0.670190
C24	C	0.537933	0.378127	-0.378216
C25	C	0.629241	0.378124	-0.378205
C26	C	0.702018	0.378125	-0.378199
C27	C	0.793332	0.378121	-0.378188
C28	C	1.375529	0.378131	-0.378218
C29	C	1.465150	0.378136	-0.378228
C30	C	1.165320	0.173375	-0.378244
C31	C	1.165363	0.086125	-0.378265
C32	C	1.216794	0.710298	-0.328031
C33	C	1.216833	0.792279	-0.328051
C34	C	1.165257	0.833276	-0.378214
C35	C	1.113644	0.792290	-0.428366
C36	C	1.113609	0.710311	-0.428349
C37	C	1.113719	0.963160	-0.428395
C38	C	1.113752	1.045144	-0.428411
C39	C	1.216943	1.045128	-0.328097
C40	C	1.216908	0.963149	-0.328080
C41	C	1.165293	0.922167	-0.378232
C42	C	1.216887	0.327830	-0.711199
C43	C	1.216896	0.327804	-0.793179
C44	C	1.165313	0.377989	-0.834149
C45	C	1.113710	0.428199	-0.793135
C46	C	1.113697	0.428220	-0.711156
C47	C	1.113743	0.428151	-0.964005
C48	C	1.113757	0.428131	-1.045989
C49	C	1.216942	0.327735	-1.046028
C50	C	1.216929	0.327757	-0.964049
C51	C	1.165327	0.377967	-0.923040
C52	C	1.165218	0.378120	-0.174248
C53	C	1.165353	0.377924	-0.086998
H54	H	1.258860	0.825642	-0.287216
C55	C	1.273670	0.272551	-0.918982
C56	C	1.238748	0.210939	-0.862632
C57	C	1.295488	0.155730	-0.817565
C58	C	1.387149	0.162134	-0.828848
C59	C	1.422076	0.223749	-0.885201
C60	C	1.365336	0.278958	-0.930267
H61	H	1.170890	0.206196	-0.854277
H62	H	1.269632	0.110119	-0.775850
H63	H	1.429151	0.121265	-0.795487
H64	H	1.489933	0.228492	-0.893555
H65	H	1.391192	0.324569	-0.971983
C66	C	1.056941	0.918076	-0.483559
C67	C	0.993639	0.861793	-0.449471
C68	C	0.936860	0.816708	-0.504628
C69	C	0.943384	0.827907	-0.593874
C70	C	1.006690	0.884193	-0.627967
C71	C	1.063468	0.929278	-0.572809
H72	H	0.988807	0.853500	-0.383401
H73	H	0.889997	0.775042	-0.479390
H74	H	0.901354	0.794533	-0.634705
H75	H	1.011522	0.892486	-0.694036
H76	H	1.110331	0.970945	-0.598048
C77	C	1.056834	0.665227	-0.483508
C78	C	0.965180	0.676573	-0.477022
C79	C	0.908405	0.631490	-0.532185
C80	C	0.943285	0.575061	-0.593834
C81	C	1.034944	0.563712	-0.600322
C82	C	1.091718	0.608795	-0.545159
H83	H	0.939355	0.718348	-0.431383
H84	H	0.840553	0.639892	-0.527381
H85	H	0.901257	0.541688	-0.634669
H86	H	1.060768	0.521937	-0.645961
H87	H	1.159570	0.600393	-0.549963
H88	H	1.258894	0.286965	-0.677847
C89	C	1.056988	0.483385	-0.918887
C90	C	0.965329	0.476982	-0.930134
C91	C	0.908583	0.532217	-0.885012
C92	C	0.943496	0.593855	-0.828644
C93	C	1.035160	0.600260	-0.817394
C94	C	1.091906	0.545025	-0.862516
H95	H	0.939480	0.431352	-0.971864
H96	H	0.840727	0.527476	-0.893340
H97	H	0.901489	0.634743	-0.795242
H98	H	1.061008	0.645890	-0.775665
H99	H	1.159762	0.549766	-0.854188
C100	C	1.273703	0.272500	-1.091134
C101	C	1.273719	0.272468	-1.181308
C102	C	1.330482	0.217240	-1.226417
C103	C	1.387230	0.162043	-1.181353
C104	C	1.387216	0.162073	-1.091174
C105	C	1.330453	0.217301	-1.046065
H106	H	1.231710	0.313330	-1.214671
H107	H	1.330492	0.217218	-1.293174
H108	H	1.429249	0.121160	-1.214746
H109	H	1.429225	0.121211	-1.057810
H110	H	1.330443	0.217323	-0.979308
H111	H	1.258790	0.676923	-0.287179
H112	H	1.258901	0.929768	-0.287230
H113	H	1.258913	0.286922	-0.826565
H114	H	1.071653	0.825676	-0.469213
H115	H	1.258972	1.078498	-0.287265
H116	H	1.071769	1.078522	-0.469273
C117	C	1.057043	0.483362	-1.091059
C118	C	1.000300	0.538608	-1.045955
C119	C	0.943602	0.593854	-1.091024
C120	C	0.943647	0.593855	-1.181198
C121	C	1.000392	0.538607	-1.226307
C122	C	1.057090	0.483360	-1.181238
H123	H	1.000265	0.538609	-0.979198
H124	H	0.901596	0.634752	-1.057631
H125	H	0.901675	0.634751	-1.214561
H126	H	1.000427	0.538605	-1.293064
H127	H	1.099097	0.442462	-1.214631
H128	H	1.071707	0.469058	-0.826499
H129	H	1.071674	0.469096	-0.677767
