data_functionalizedCrystal
_audit_creation_method	'MofGen! by Chris Wilmer'
_symmetry_space_group_name_H-M	'P1'
_symmetry_Int_Tables_number	1
_symmetry_cell_setting	triclinic
loop_
_symmetry_equiv_pos_as_xyz
  x,y,z
_cell_length_a	19.121102
_cell_length_b	21.295417
_cell_length_c	21.295412
_cell_angle_alpha	89.968813
_cell_angle_beta	87.544905
_cell_angle_gamma	87.584620
loop_
_atom_site_label
_atom_site_type_symbol
_atom_site_fract_x
_atom_site_fract_y
_atom_site_fract_z
Zn1	Zn	1.073671	-0.291740	-0.396909
Zn2	Zn	1.323671	-0.041740	-0.146909
Zn3	Zn	1.573671	0.208260	0.103091
Zn4	Zn	1.823671	0.458260	0.353091
Zn5	Zn	1.073578	-0.397006	-0.291631
Zn6	Zn	1.323578	-0.147006	-0.041631
Zn7	Zn	1.573578	0.102994	0.208369
Zn8	Zn	1.823578	0.352994	0.458369
Zn9	Zn	0.956227	-0.287261	-0.287170
Zn10	Zn	1.206227	-0.037261	-0.037170
Zn11	Zn	1.456227	0.212739	0.212830
Zn12	Zn	1.706227	0.462739	0.462830
Zn13	Zn	0.956176	-0.392476	-0.392380
Zn14	Zn	1.206176	-0.142476	-0.142380
Zn15	Zn	1.456176	0.107524	0.107620
Zn16	Zn	1.706176	0.357524	0.357620
O17	O	1.014913	-0.342121	-0.342022
O18	O	1.264913	-0.092121	-0.092022
O19	O	1.514913	0.157879	0.157978
O20	O	1.764913	0.407879	0.407978
O21	O	1.171942	-0.309475	-0.386706
O22	O	1.421942	-0.059475	-0.136706
O23	O	1.671942	0.190525	0.113294
O24	O	1.921942	0.440525	0.363294
O25	O	1.057994	-0.382469	-0.202949
O26	O	1.307994	-0.132469	0.047051
O27	O	1.557994	0.117531	0.297051
O28	O	1.807994	0.367531	0.547051
O29	O	0.971866	-0.199768	-0.301755
O30	O	1.221866	0.050232	-0.051755
O31	O	1.471866	0.300232	0.198245
O32	O	1.721866	0.550232	0.448245
O33	O	1.171874	-0.386813	-0.309359
O34	O	1.421874	-0.136813	-0.059359
O35	O	1.671874	0.113187	0.190641
O36	O	1.921874	0.363187	0.440641
O37	O	1.058151	-0.203059	-0.382380
O38	O	1.308151	0.046941	-0.132380
O39	O	1.558151	0.296941	0.117620
O40	O	1.808151	0.546941	0.367620
O41	O	0.971777	-0.301840	-0.199671
O42	O	1.221777	-0.051840	0.050329
O43	O	1.471777	0.198160	0.300329
O44	O	1.721777	0.448160	0.550329
O45	O	0.857936	-0.297447	-0.297363
O46	O	1.107936	-0.047447	-0.047363
O47	O	1.357936	0.202553	0.202637
O48	O	1.607936	0.452553	0.452637
O49	O	0.971779	-0.379092	-0.481071
O50	O	1.221779	-0.129092	-0.231071
O51	O	1.471779	0.120908	0.018929
O52	O	1.721779	0.370908	0.268929
O53	O	0.857899	-0.374748	-0.374661
O54	O	1.107899	-0.124748	-0.124661
O55	O	1.357899	0.125252	0.125339
O56	O	1.607899	0.375252	0.375339
O57	O	1.058102	-0.305082	-0.484398
O58	O	1.308102	-0.055082	-0.234398
O59	O	1.558102	0.194918	0.015602
O60	O	1.808102	0.444918	0.265602
O61	O	1.057945	-0.484492	-0.304967
O62	O	1.307945	-0.234492	-0.054967
O63	O	1.557945	0.015508	0.195033
O64	O	1.807945	0.265508	0.445033
O65	O	0.971690	-0.481164	-0.378987
O66	O	1.221690	-0.231164	-0.128987
O67	O	1.471690	0.018836	0.121013
O68	O	1.721690	0.268836	0.371013
C69	C	0.832434	-0.335120	-0.335037
C70	C	1.082434	-0.085120	-0.085037
C71	C	1.332434	0.164880	0.164963
C72	C	1.582434	0.414880	0.414963
C73	C	0.754369	-0.332141	-0.332063
C74	C	1.004369	-0.082141	-0.082063
C75	C	1.254369	0.167859	0.167937
C76	C	1.504369	0.417859	0.417937
C77	C	0.717692	-0.371048	-0.370848
C78	C	0.967692	-0.121048	-0.120848
C79	C	1.217692	0.128952	0.129152
C80	C	1.467692	0.378952	0.379152
C81	C	0.644342	-0.368240	-0.368057
C82	C	0.894342	-0.118240	-0.118057
C83	C	1.144342	0.131760	0.131943
C84	C	1.394342	0.381760	0.381943
C85	C	0.607668	-0.326527	-0.326478
C86	C	0.857668	-0.076527	-0.076478
C87	C	1.107668	0.173473	0.173522
C88	C	1.357668	0.423473	0.423522
C89	C	0.644350	-0.287616	-0.287692
C90	C	0.894350	-0.037616	-0.037692
C91	C	1.144350	0.212384	0.212308
C92	C	1.394350	0.462384	0.462308
C93	C	0.717699	-0.290421	-0.290486
C94	C	0.967699	-0.040421	-0.040486
C95	C	1.217699	0.209579	0.209514
C96	C	1.467699	0.459579	0.459514
C97	C	0.386201	-0.316038	-0.316033
C98	C	0.636201	-0.066038	-0.066033
C99	C	0.886201	0.183962	0.183967
C100	C	1.136201	0.433962	0.433967
C101	C	0.312846	-0.313237	-0.313240
C102	C	0.562846	-0.063237	-0.063240
C103	C	0.812846	0.186763	0.186760
C104	C	1.062846	0.436763	0.436760
C105	C	0.312843	-0.393861	-0.393606
C106	C	0.562843	-0.143861	-0.143606
C107	C	0.812843	0.106139	0.106394
C108	C	1.062843	0.356139	0.356394
C109	C	0.386194	-0.396665	-0.396394
C110	C	0.636194	-0.146665	-0.146394
C111	C	0.886194	0.103335	0.103606
C112	C	1.136194	0.353335	0.353606
C113	C	0.422869	-0.357751	-0.357610
C114	C	0.672869	-0.107751	-0.107610
C115	C	0.922869	0.142249	0.142390
C116	C	1.172869	0.392249	0.392390
C117	C	0.532692	-0.323657	-0.323623
C118	C	0.782692	-0.073657	-0.073623
C119	C	1.032692	0.176343	0.176377
C120	C	1.282692	0.426343	0.426377
C121	C	0.497844	-0.360618	-0.360469
C122	C	0.747844	-0.110618	-0.110469
C123	C	0.997844	0.139382	0.139531
C124	C	1.247844	0.389382	0.389531
C125	C	1.014821	-0.505669	-0.341984
C126	C	1.264821	-0.255669	-0.091984
C127	C	1.514821	-0.005669	0.158016
C128	C	1.764821	0.244331	0.408016
C129	C	1.014846	-0.575638	-0.341991
C130	C	1.264846	-0.325638	-0.091991
C131	C	1.514846	-0.075638	0.158009
C132	C	1.764846	0.174362	0.408009
C133	C	1.059799	-0.610218	-0.303492
C134	C	1.309799	-0.360218	-0.053492
C135	C	1.559799	-0.110218	0.196508
C136	C	1.809799	0.139782	0.446508
C137	C	1.059832	-0.675962	-0.303507
C138	C	1.309832	-0.425962	-0.053507
C139	C	1.559832	-0.175962	0.196493
C140	C	1.809832	0.074038	0.446493
C141	C	1.014899	-0.707122	-0.342015
C142	C	1.264899	-0.457122	-0.092015
C143	C	1.514899	-0.207122	0.157985
C144	C	1.764899	0.042878	0.407985
C145	C	0.969943	-0.672534	-0.380522
C146	C	1.219943	-0.422534	-0.130522
C147	C	1.469943	-0.172534	0.119478
C148	C	1.719943	0.077466	0.369478
C149	C	0.969917	-0.606792	-0.380510
C150	C	1.219917	-0.356792	-0.130510
C151	C	1.469917	-0.106792	0.119490
C152	C	1.719917	0.143208	0.369490
N153	N	0.953459	-0.808035	-0.344462
N154	N	1.203459	-0.558035	-0.094462
N155	N	1.453459	-0.308035	0.155538
N156	N	1.703459	-0.058035	0.405538
N157	N	0.953486	-0.870488	-0.344469
N158	N	1.203486	-0.620488	-0.094469
N159	N	1.453486	-0.370488	0.155531
N160	N	1.703486	-0.120488	0.405531
C161	C	1.014978	-0.905200	-0.342054
C162	C	1.264978	-0.655200	-0.092054
C163	C	1.514978	-0.405200	0.157946
C164	C	1.764978	-0.155200	0.407946
N165	N	1.076443	-0.875101	-0.339618
N166	N	1.326443	-0.625101	-0.089618
N167	N	1.576443	-0.375101	0.160382
N168	N	1.826443	-0.125101	0.410382
N169	N	1.076415	-0.812643	-0.339607
N170	N	1.326415	-0.562643	-0.089607
N171	N	1.576415	-0.312643	0.160393
N172	N	1.826415	-0.062643	0.410393
C173	C	1.014923	-0.778409	-0.342032
C174	C	1.264923	-0.528409	-0.092032
C175	C	1.514923	-0.278409	0.157968
C176	C	1.764923	-0.028409	0.407968
C177	C	1.059970	-1.011068	-0.303569
C178	C	1.309970	-0.761068	-0.053569
C179	C	1.559970	-0.511068	0.196431
C180	C	1.809970	-0.261068	0.446431
C181	C	1.060004	-1.076813	-0.303589
C182	C	1.310004	-0.826813	-0.053589
C183	C	1.560004	-0.576813	0.196411
C184	C	1.810004	-0.326813	0.446411
C185	C	0.970110	-1.073383	-0.380600
C186	C	1.220110	-0.823383	-0.130600
C187	C	1.470110	-0.573383	0.119400
C188	C	1.720110	-0.323383	0.369400
C189	C	0.970082	-1.007640	-0.380584
C190	C	1.220082	-0.757640	-0.130584
C191	C	1.470082	-0.507640	0.119416
C192	C	1.720082	-0.257640	0.369416
C193	C	1.015011	-0.976486	-0.342065
C194	C	1.265011	-0.726486	-0.092065
C195	C	1.515011	-0.476486	0.157935
C196	C	1.765011	-0.226486	0.407935
C197	C	1.198105	-0.349149	-0.349036
C198	C	1.448105	-0.099149	-0.099036
C199	C	1.698105	0.150851	0.150964
C200	C	1.948105	0.400851	0.400964
C201	C	1.276170	-0.352144	-0.352024
C202	C	1.526170	-0.102144	-0.102024
C203	C	1.776170	0.147856	0.147976
C204	C	2.026170	0.397856	0.397976
C205	C	1.014945	-0.342081	-0.506214
C206	C	1.264945	-0.092081	-0.256214
C207	C	1.514945	0.157919	-0.006214
C208	C	1.764945	0.407919	0.243786
C209	C	1.014959	-0.342065	-0.576183
C210	C	1.264959	-0.092065	-0.326183
C211	C	1.514959	0.157935	-0.076183
C212	C	1.764959	0.407935	0.173817
C213	C	1.015025	-0.177935	-0.342075
C214	C	1.265025	0.072065	-0.092075
C215	C	1.515025	0.322065	0.157925
C216	C	1.765025	0.572065	0.407925
C217	C	1.015072	-0.107968	-0.342098
C218	C	1.265072	0.142032	-0.092098
C219	C	1.515072	0.392032	0.157902
C220	C	1.765072	0.642032	0.407902
C221	C	1.059974	-0.303430	-1.077377
C222	C	1.309974	-0.053430	-0.827377
C223	C	1.559974	0.196570	-0.577377
C224	C	1.809974	0.446570	-0.327377
C225	C	1.059969	-0.303445	-1.011634
C226	C	1.309969	-0.053445	-0.761634
C227	C	1.559969	0.196555	-0.511634
C228	C	1.809969	0.446555	-0.261634
C229	C	1.015020	-0.341984	-0.977025
C230	C	1.265020	-0.091984	-0.727025
C231	C	1.515020	0.158016	-0.477025
C232	C	1.765020	0.408016	-0.227025
C233	C	0.970086	-0.380522	-1.008163
C234	C	1.220086	-0.130522	-0.758163
C235	C	1.470086	0.119478	-0.508163
C236	C	1.720086	0.369478	-0.258163
C237	C	0.970098	-0.380510	-1.073905
C238	C	1.220098	-0.130510	-0.823905
C239	C	1.470098	0.119490	-0.573905
C240	C	1.720098	0.369490	-0.323905
N241	N	0.953520	-0.344472	-0.871447
N242	N	1.203520	-0.094472	-0.621447
N243	N	1.453520	0.155528	-0.371447
N244	N	1.703520	0.405528	-0.121447
N245	N	0.953511	-0.344479	-0.808996
N246	N	1.203511	-0.094479	-0.558996
N247	N	1.453511	0.155521	-0.308996
N248	N	1.703511	0.405521	-0.058996
C249	C	1.014983	-0.342022	-0.778948
C250	C	1.264983	-0.092022	-0.528948
C251	C	1.514983	0.157978	-0.278948
C252	C	1.764983	0.407978	-0.028948
N253	N	1.076467	-0.339544	-0.813712
N254	N	1.326467	-0.089544	-0.563712
N255	N	1.576467	0.160456	-0.313712
N256	N	1.826467	0.410456	-0.063712
N257	N	1.076475	-0.339533	-0.876170
N258	N	1.326475	-0.089533	-0.626170
N259	N	1.576475	0.160467	-0.376170
N260	N	1.826475	0.410467	-0.126170
C261	C	1.015003	-0.342001	-0.905738
C262	C	1.265003	-0.092001	-0.655738
C263	C	1.515003	0.157999	-0.405738
C264	C	1.765003	0.407999	-0.155738
C265	C	1.059912	-0.303506	-0.676532
C266	C	1.309912	-0.053506	-0.426532
C267	C	1.559912	0.196494	-0.176532
C268	C	1.809912	0.446494	0.073468
C269	C	1.059907	-0.303525	-0.610788
C270	C	1.309907	-0.053525	-0.360788
C271	C	1.559907	0.196475	-0.110788
C272	C	1.809907	0.446475	0.139212
C273	C	0.970019	-0.380598	-0.607318
C274	C	1.220019	-0.130598	-0.357318
C275	C	1.470019	0.119402	-0.107318
C276	C	1.720019	0.369402	0.142682
C277	C	0.970029	-0.380582	-0.673061
C278	C	1.220029	-0.130582	-0.423061
C279	C	1.470029	0.119418	-0.173061
C280	C	1.720029	0.369418	0.076939
C281	C	1.014975	-0.342032	-0.707664
C282	C	1.264975	-0.092032	-0.457664
C283	C	1.514975	0.157968	-0.207664
C284	C	1.764975	0.407968	0.042336
C285	C	1.014921	-0.342116	-0.178471
C286	C	1.264921	-0.092116	0.071529
C287	C	1.514921	0.157884	0.321529
C288	C	1.764921	0.407884	0.571529
C289	C	1.015044	-0.341961	-0.108508
C290	C	1.265044	-0.091961	0.141492
C291	C	1.515044	0.158039	0.391492
C292	C	1.765044	0.408039	0.641492
H293	H	0.416048	-0.430633	-0.430251
H294	H	0.666048	-0.180633	-0.180251
H295	H	0.916048	0.069367	0.069749
H296	H	1.166048	0.319367	0.319749
H297	H	0.747560	-0.258735	-0.258907
H298	H	0.997560	-0.008735	-0.008907
H299	H	1.247560	0.241265	0.241093
H300	H	1.497560	0.491265	0.491093
H301	H	1.096615	-1.104967	-0.272240
H302	H	1.346615	-0.854967	-0.022240
H303	H	1.596615	-0.604967	0.227760
H304	H	1.846615	-0.354967	0.477760
H305	H	0.527706	-0.394578	-0.394325
H306	H	0.777706	-0.144578	-0.144325
H307	H	1.027706	0.105422	0.105675
H308	H	1.277706	0.355422	0.355675
F309	F	1.107831	-0.262423	-1.114201
F310	F	1.357831	-0.012423	-0.864201
F311	F	1.607831	0.237577	-0.614201
F312	F	1.857831	0.487577	-0.364201
H313	H	0.933528	-1.098753	-0.411957
H314	H	1.183528	-0.848753	-0.161957
H315	H	1.433528	-0.598753	0.088043
H316	H	1.683528	-0.348753	0.338043
F317	F	0.493656	-0.279265	-0.279372
F318	F	0.743656	-0.029265	-0.029372
F319	F	0.993656	0.220735	0.220628
F320	F	1.243656	0.470735	0.470628
F321	F	0.922233	-0.970835	-0.421558
F322	F	1.172233	-0.720835	-0.171558
F323	F	1.422233	-0.470835	0.078442
F324	F	1.672233	-0.220835	0.328442
H325	H	1.096556	-0.272067	-0.986282
H326	H	1.346556	-0.022067	-0.736282
H327	H	1.596556	0.227933	-0.486282
H328	H	1.846556	0.477933	-0.236282
F329	F	0.605318	-0.243217	-0.243444
F330	F	0.855318	0.006783	0.006556
F331	F	1.105318	0.256783	0.256556
F332	F	1.355318	0.506783	0.506556
H333	H	0.933310	-0.578636	-0.411861
H334	H	1.183310	-0.328636	-0.161861
H335	H	1.433310	-0.078636	0.088139
H336	H	1.683310	0.171364	0.338139
H337	H	0.933490	-0.411901	-0.979980
H338	H	1.183490	-0.161901	-0.729980
H339	H	1.433490	0.088099	-0.479980
H340	H	1.683490	0.338099	-0.229980
F341	F	0.922275	-0.421522	-1.107038
F342	F	1.172275	-0.171522	-0.857038
F343	F	1.422275	0.078478	-0.607038
F344	F	1.672275	0.328478	-0.357038
H345	H	1.096508	-0.272116	-0.704707
H346	H	1.346508	-0.022116	-0.454707
H347	H	1.596508	0.227884	-0.204707
H348	H	1.846508	0.477884	0.045293
H349	H	0.614483	-0.399923	-0.399639
H350	H	0.864483	-0.149923	-0.149639
H351	H	1.114483	0.100077	0.100361
H352	H	1.364483	0.350077	0.350361
H353	H	1.096500	-0.272151	-0.585442
H354	H	1.346500	-0.022151	-0.335442
H355	H	1.596500	0.227849	-0.085442
H356	H	1.846500	0.477849	0.164558
H357	H	0.282974	-0.425541	-0.425182
H358	H	0.532974	-0.175541	-0.175182
H359	H	0.782974	0.074459	0.074818
H360	H	1.032974	0.324459	0.324818
F361	F	1.107624	-0.577066	-0.262504
F362	F	1.357624	-0.327066	-0.012504
F363	F	1.607624	-0.077066	0.237496
F364	F	1.857624	0.172934	0.487496
F365	F	0.425224	-0.274620	-0.274757
F366	F	0.675224	-0.024620	-0.024757
F367	F	0.925224	0.225380	0.225243
F368	F	1.175224	0.475380	0.475243
F369	F	0.922187	-0.421620	-0.570488
F370	F	1.172187	-0.171620	-0.320488
F371	F	1.422187	0.078380	-0.070488
F372	F	1.672187	0.328380	0.179512
F373	F	0.756716	-0.415448	-0.415099
F374	F	1.006716	-0.165448	-0.165099
F375	F	1.256716	0.084552	0.084901
F376	F	1.506716	0.334552	0.334901
H377	H	0.933439	-0.411955	-0.698408
H378	H	1.183439	-0.161955	-0.448408
H379	H	1.433439	0.088045	-0.198408
H380	H	1.683439	0.338045	0.051592
H381	H	0.282989	-0.279262	-0.279385
H382	H	0.532989	-0.029262	-0.029385
H383	H	0.782989	0.220738	0.220615
H384	H	1.032989	0.470738	0.470615
F385	F	0.922126	-0.705698	-0.421507
F386	F	1.172126	-0.455698	-0.171507
F387	F	1.422126	-0.205698	0.078493
F388	F	1.672126	0.044302	0.328493
H389	H	1.096440	-0.704123	-0.272157
H390	H	1.346440	-0.454123	-0.022157
H391	H	1.596440	-0.204123	0.227843
H392	H	1.846440	0.045877	0.477843
F393	F	1.107787	-0.977909	-0.262574
F394	F	1.357787	-0.727909	-0.012574
F395	F	1.607787	-0.477909	0.237426
F396	F	1.857787	-0.227909	0.487426
