data_functionalizedCrystal
_audit_creation_method	'MofGen! by Chris Wilmer'
_symmetry_space_group_name_H-M	'P1'
_symmetry_Int_Tables_number	1
_symmetry_cell_setting	triclinic
loop_
_symmetry_equiv_pos_as_xyz
  x,y,z
_cell_length_a	19.077105
_cell_length_b	12.594516
_cell_length_c	19.076929
_cell_angle_alpha	92.274379
_cell_angle_beta	90.078300
_cell_angle_gamma	87.712633
loop_
_atom_site_label
_atom_site_type_symbol
_atom_site_fract_x
_atom_site_fract_y
_atom_site_fract_z
Zn1	Zn	1.058302	-0.514896	-0.440449
Zn2	Zn	1.062963	-0.686044	-0.322953
Zn3	Zn	0.945523	-0.500647	-0.318242
Zn4	Zn	0.940780	-0.685393	-0.435706
O5	O	1.001892	-0.596745	-0.379338
O6	O	1.157253	-0.543835	-0.428820
O7	O	1.051320	-0.655760	-0.223997
O8	O	0.960518	-0.353594	-0.334466
O9	O	1.160677	-0.669576	-0.342496
O10	O	1.043376	-0.364063	-0.424251
O11	O	0.965037	-0.519549	-0.220536
O12	O	0.846562	-0.518918	-0.329867
O13	O	0.952434	-0.668467	-0.534666
O14	O	0.843077	-0.654651	-0.416167
O15	O	1.038777	-0.543204	-0.538151
O16	O	1.046720	-0.834900	-0.337897
O17	O	0.956953	-0.834422	-0.420735
C18	C	0.819323	-0.585168	-0.371991
C19	C	0.741218	-0.580243	-0.368865
C20	C	0.702732	-0.648695	-0.412258
C21	C	0.629344	-0.644053	-0.409324
C22	C	0.594445	-0.570963	-0.362993
C23	C	0.632937	-0.502502	-0.319599
C24	C	0.706323	-0.507140	-0.322537
C25	C	0.375156	-0.549498	-0.349399
C26	C	0.301765	-0.544868	-0.346463
C27	C	0.298177	-0.686418	-0.436189
C28	C	0.371565	-0.691053	-0.439120
C29	C	0.410050	-0.622590	-0.395729
N30	N	0.519431	-0.566218	-0.359992
N31	N	0.485063	-0.627330	-0.398734
C32	C	1.001846	-0.873283	-0.379329
C33	C	1.001890	-0.991592	-0.379351
C34	C	0.953062	-1.060622	-0.424374
C35	C	0.938524	-1.126661	-0.359569
C36	C	1.016492	-1.136357	-0.444170
C37	C	0.987319	-1.056069	-0.314511
C38	C	1.065315	-1.065763	-0.399156
C39	C	1.050803	-1.131769	-0.334308
C40	C	1.185174	-0.608368	-0.386713
C41	C	1.263278	-0.613320	-0.389856
C42	C	0.994557	-0.607352	-0.562618
C43	C	0.991431	-0.611873	-0.640721
C44	C	1.001956	-0.319130	-0.379362
C45	C	1.001984	-0.200826	-0.379373
C46	C	0.969015	-0.644378	-1.080165
C47	C	0.971950	-0.640115	-1.006778
C48	C	1.018374	-0.572772	-0.971903
C49	C	1.061863	-0.509680	-1.010418
C50	C	1.058924	-0.513938	-1.083803
C51	C	1.031980	-0.553039	-0.752621
C52	C	1.034917	-0.548788	-0.679231
C53	C	0.945003	-0.679222	-0.675596
C54	C	0.942071	-0.683479	-0.748983
C55	C	0.985557	-0.620383	-0.787491
N56	N	1.021377	-0.568415	-0.896891
N57	N	0.982550	-0.624735	-0.862502
C58	C	1.009239	-0.586105	-0.196772
C59	C	1.012501	-0.581293	-0.118674
H60	H	0.273352	-0.485336	-0.308740
H61	H	1.092137	-1.162804	-0.296197
C62	C	0.417476	-0.474208	-0.301649
C63	C	0.407164	-0.352922	-0.307092
C64	C	0.449485	-0.277635	-0.259332
C65	C	0.502117	-0.323633	-0.206128
C66	C	0.512432	-0.444925	-0.200683
C67	C	0.470111	-0.520212	-0.248443
H68	H	0.368200	-0.318866	-0.346479
H69	H	0.441849	-0.187846	-0.263363
H70	H	0.533446	-0.267901	-0.170773
H71	H	0.551396	-0.478981	-0.161296
H72	H	0.477747	-0.610001	-0.244412
H73	H	0.604516	-0.442986	-0.281879
H74	H	0.909598	-0.730590	-0.644235
H75	H	1.072722	-0.493943	-0.650838
C76	C	1.137697	-1.029360	-0.421802
C77	C	1.167026	-1.063350	-0.494803
C78	C	1.239407	-1.026945	-0.517458
C79	C	1.282460	-0.956551	-0.467113
C80	C	1.253131	-0.922558	-0.394108
C81	C	1.180750	-0.958963	-0.371453
H82	H	1.135155	-1.115463	-0.532075
H83	H	1.261117	-1.052110	-0.571501
H84	H	1.336041	-0.929602	-0.483884
H85	H	1.285002	-0.870444	-0.356836
H86	H	1.159040	-0.933798	-0.317410
H87	H	1.067393	-0.501667	-0.783966
C88	C	1.112933	-0.435604	-0.972058
C89	C	1.116173	-0.430923	-0.891338
C90	C	1.167247	-0.356849	-0.852980
C91	C	1.215082	-0.287456	-0.895342
C92	C	1.211844	-0.292135	-0.976067
C93	C	1.160770	-0.366208	-1.014425
H94	H	1.080761	-0.482294	-0.859975
H95	H	1.169644	-0.353386	-0.793222
H96	H	1.252890	-0.232622	-0.866947
H97	H	1.247256	-0.240764	-1.007430
H98	H	1.158373	-0.369671	-1.074183
H99	H	1.028805	-1.171463	-0.498978
H100	H	0.911702	-1.029382	-0.462388
H101	H	0.737658	-0.451393	-0.287206
C102	C	0.866122	-1.163030	-0.336944
C103	C	0.800458	-1.133812	-0.380241
C104	C	0.728055	-1.170178	-0.357622
C105	C	0.721316	-1.235761	-0.291707
C106	C	0.786983	-1.264983	-0.248405
C107	C	0.859386	-1.228617	-0.271024
H108	H	0.805444	-1.085260	-0.429040
H109	H	0.679444	-1.148545	-0.389677
H110	H	0.667719	-1.262681	-0.274963
H111	H	0.781997	-1.313535	-0.199607
H112	H	0.907997	-1.250250	-0.238969
H113	H	1.094333	-0.462563	-1.115157
H114	H	0.731141	-0.708217	-0.449983
H115	H	0.974944	-1.021086	-0.259685
C116	C	0.587006	-0.719358	-0.457050
C117	C	0.534363	-0.673384	-0.510254
C118	C	0.492023	-0.748692	-0.557981
C119	C	0.502326	-0.869973	-0.552505
C120	C	0.554971	-0.915953	-0.499300
C121	C	0.597311	-0.840645	-0.451572
H122	H	0.526734	-0.583599	-0.514309
H123	H	0.453052	-0.714654	-0.597368
H124	H	0.470984	-0.925721	-0.587836
H125	H	0.562599	-1.005739	-0.495244
H126	H	0.636282	-0.874684	-0.412186
H127	H	0.399975	-0.750574	-0.476846
C128	C	0.255842	-0.761715	-0.483924
C129	C	0.175120	-0.756618	-0.480700
C130	C	0.132785	-0.831915	-0.528440
C131	C	0.171173	-0.912310	-0.579404
C132	C	0.251899	-0.917410	-0.582630
C133	C	0.294234	-0.842113	-0.534890
H134	H	0.146699	-0.697102	-0.442972
H135	H	0.073026	-0.828139	-0.526051
H136	H	0.139834	-0.968050	-0.614744
H137	H	0.280320	-0.976926	-0.620359
H138	H	0.353993	-0.845889	-0.537279
H139	H	0.931214	-0.699221	-1.108555
H140	H	0.936546	-0.691498	-0.975427
C141	C	0.890967	-0.757501	-0.787342
C142	C	0.843104	-0.826854	-0.744981
C143	C	0.791986	-0.900855	-0.783340
C144	C	0.788729	-0.905503	-0.864059
C145	C	0.836593	-0.836148	-0.906424
C146	C	0.887712	-0.762147	-0.868066
H147	H	0.845513	-0.823415	-0.685223
H148	H	0.756553	-0.952196	-0.751978
H149	H	0.750888	-0.960283	-0.892455
H150	H	0.834184	-0.839587	-0.966182
H151	H	0.923144	-0.710806	-0.899428
