data_functionalizedCrystal
_audit_creation_method	'MofGen! by Chris Wilmer'
_symmetry_space_group_name_H-M	'P1'
_symmetry_Int_Tables_number	1
_symmetry_cell_setting	triclinic
loop_
_symmetry_equiv_pos_as_xyz
  x,y,z
_cell_length_a	10.723023
_cell_length_b	14.519709
_cell_length_c	9.198806
_cell_angle_alpha	90.011605
_cell_angle_beta	89.996513
_cell_angle_gamma	95.926154
loop_
_atom_site_label
_atom_site_type_symbol
_atom_site_fract_x
_atom_site_fract_y
_atom_site_fract_z
O1	O	1.655979	-0.129344	-0.120908
O2	O	1.292711	-0.141726	-0.120917
O3	O	1.483976	-0.001346	-0.120871
O4	O	1.464713	-0.269724	-0.120953
O5	O	1.483961	-0.001345	0.120914
O6	O	1.292695	-0.141725	0.120868
O7	O	1.655964	-0.129344	0.120877
Cu8	Cu	1.474328	-0.135534	0.142950
Cu9	Cu	1.474346	-0.135535	-0.142989
O10	O	1.464698	-0.269724	0.120832
C11	C	1.246212	-0.140825	-0.000025
C12	C	1.107683	-0.138129	-0.000026
C13	C	1.045914	-0.136927	0.125225
C14	C	0.902737	-0.134141	0.125226
C15	C	1.483071	0.033019	0.000029
C16	C	1.480381	0.135414	0.000050
C17	C	1.470477	0.510360	0.000090
C18	C	1.473227	0.406038	0.000079
C19	C	1.475428	0.322890	0.000071
C20	C	1.478179	0.218562	0.000058
C21	C	1.702462	-0.130245	-0.000018
C22	C	1.840992	-0.132940	-0.000026
N23	N	1.474325	-0.135534	0.344064
C24	C	1.465603	0.695912	-0.000019
C25	C	1.468293	0.593517	0.000103
N26	N	1.474359	-0.135529	-0.344103
C27	C	1.554634	-0.076332	0.416280
C28	C	1.554653	-0.076329	0.583692
H29	H	1.099031	-0.137956	0.232456
H30	H	1.054567	-0.137093	-0.107257
C31	C	1.381453	-0.204007	0.427958
C32	C	1.239290	-0.201808	0.407206
C33	C	1.146415	-0.270283	0.491096
C34	C	1.195703	-0.340958	0.595739
C35	C	1.337873	-0.343159	0.616497
C36	C	1.430748	-0.274684	0.532606
H37	H	1.202798	-0.149488	0.329738
H38	H	1.041172	-0.268653	0.475729
H39	H	1.126952	-0.391647	0.657840
H40	H	1.374365	-0.395479	0.693964
H41	H	1.535992	-0.276314	0.547973
H42	H	0.849616	-0.133113	0.232458
H43	H	0.894102	-0.133979	-0.107263
C44	C	1.647507	-0.007858	0.332388
C45	C	1.647240	-0.007869	0.164983
C46	C	1.740117	0.060607	0.081097
C47	C	1.833260	0.129095	0.164617
C48	C	1.833530	0.129109	0.332031
C49	C	1.740654	0.060632	0.415917
H50	H	1.578287	-0.058571	0.103148
H51	H	1.739916	0.060597	-0.042835
H52	H	1.902013	0.179786	0.102520
H53	H	1.902484	0.179811	0.393866
H54	H	1.740854	0.060643	0.539849
H55	H	1.623414	-0.025647	0.645795
H56	H	1.405604	-0.186219	0.593804
