data_functionalizedCrystal
_audit_creation_method	'MofGen! by Chris Wilmer'
_symmetry_space_group_name_H-M	'P1'
_symmetry_Int_Tables_number	1
_symmetry_cell_setting	triclinic
loop_
_symmetry_equiv_pos_as_xyz
  x,y,z
_cell_length_a	19.188933
_cell_length_b	17.666332
_cell_length_c	10.723024
_cell_angle_alpha	90.003996
_cell_angle_beta	83.806719
_cell_angle_gamma	90.007838
loop_
_atom_site_label
_atom_site_type_symbol
_atom_site_fract_x
_atom_site_fract_y
_atom_site_fract_z
O1	O	0.927161	0.062921	0.155793
O2	O	1.260494	0.396255	0.489126
O3	O	1.593828	0.729588	0.822459
O4	O	0.723986	0.062928	0.176761
O5	O	1.057320	0.396261	0.510094
O6	O	1.390653	0.729595	0.843428
O7	O	0.830260	0.062922	-0.015397
O8	O	1.163594	0.396255	0.317937
O9	O	1.496927	0.729588	0.651270
O10	O	0.820887	0.062928	0.347950
O11	O	1.154221	0.396261	0.681283
O12	O	1.487554	0.729594	1.014617
O13	O	0.830241	-0.062975	-0.015402
O14	O	1.163575	0.270358	0.317931
O15	O	1.496908	0.603692	0.651264
O16	O	0.723967	-0.062969	0.176755
O17	O	1.057301	0.270365	0.510089
O18	O	1.390634	0.603698	0.843422
O19	O	0.927142	-0.062976	0.155787
O20	O	1.260476	0.270358	0.489120
O21	O	1.593809	0.603691	0.822454
Cu22	Cu	0.825553	-0.074467	0.166271
Cu23	Cu	1.158886	0.258866	0.499604
Cu24	Cu	1.492220	0.592199	0.832937
Cu25	Cu	0.825575	0.074420	0.166277
Cu26	Cu	1.158909	0.407753	0.499611
Cu27	Cu	1.492242	0.741087	0.832944
O28	O	0.820868	-0.062969	0.347945
O29	O	1.154202	0.270364	0.681278
O30	O	1.487535	0.603697	1.014611
C31	C	0.697961	-0.000019	0.176079
C32	C	1.031295	0.333314	0.509412
C33	C	1.364628	0.666647	0.842745
C34	C	0.620444	-0.000017	0.174039
C35	C	0.953777	0.333316	0.507372
C36	C	1.287110	0.666650	0.840706
C37	C	0.067104	0.068601	0.159485
C38	C	0.400437	0.401934	0.492819
C39	C	0.733771	0.735268	0.826152
C40	C	0.139941	0.068604	0.161394
C41	C	0.473274	0.401937	0.494728
C42	C	0.806607	0.735271	0.828061
C43	C	0.176354	-0.000022	0.162352
C44	C	0.509687	0.333311	0.495685
C45	C	0.843020	0.666645	0.829018
C46	C	0.139926	-0.068656	0.161368
C47	C	0.473259	0.264677	0.494701
C48	C	0.806593	0.598010	0.828034
C49	C	0.067092	-0.068657	0.159446
C50	C	0.400425	0.264676	0.492780
C51	C	0.733758	0.598010	0.826113
N52	N	0.285847	-0.051102	0.236370
N53	N	0.619180	0.282231	0.569704
N54	N	0.952514	0.615564	0.903037
N55	N	0.355036	-0.051097	0.238198
N56	N	0.688370	0.282237	0.571531
N57	N	1.021703	0.615570	0.904865
C58	C	0.395800	-0.000023	0.168138
C59	C	0.729133	0.333310	0.501471
C60	C	1.062467	0.666643	0.834805
N61	N	0.364759	0.051056	0.096197
N62	N	0.698092	0.384389	0.429530
N63	N	1.031426	0.717723	0.762863
N64	N	0.295563	0.051053	0.094374
N65	N	0.628896	0.384386	0.427708
N66	N	0.962229	0.717719	0.761041
C67	C	0.255330	-0.000029	0.164434
C68	C	0.588664	0.333305	0.497768
C69	C	0.921997	0.666638	0.831101
C70	C	0.511197	0.068610	0.171183
C71	C	0.844530	0.401943	0.504516
C72	C	1.177864	0.735276	0.837849
C73	C	0.584036	0.068610	0.173084
C74	C	0.917369	0.401943	0.506417
C75	C	1.250702	0.735277	0.839751
C76	C	0.584019	-0.068652	0.173070
C77	C	0.917352	0.264681	0.506403
C78	C	1.250685	0.598014	0.839737
C79	C	0.511182	-0.068650	0.171156
C80	C	0.844516	0.264683	0.504490
C81	C	1.177849	0.598016	0.837823
C82	C	0.474776	-0.000017	0.170219
C83	C	0.808109	0.333316	0.503552
C84	C	1.141442	0.666649	0.836885
N85	N	0.825542	-0.179187	0.166265
N86	N	1.158876	0.154146	0.499599
N87	N	1.492209	0.487480	0.832932
C88	C	0.868242	-0.218791	0.241765
C89	C	1.201575	0.114543	0.575098
C90	C	1.534909	0.447876	0.908431
C91	C	0.868253	-0.298038	0.241761
C92	C	1.201586	0.035295	0.575094
C93	C	1.534920	0.368629	0.908428
C94	C	0.825552	-0.337679	0.166272
C95	C	1.158885	-0.004346	0.499606
C96	C	1.492218	0.328988	0.832939
C97	C	0.782850	-0.298066	0.090758
C98	C	1.116183	0.035267	0.424091
C99	C	1.449516	0.368601	0.757425
C100	C	0.782845	-0.218820	0.090754
C101	C	1.116178	0.114513	0.424088
C102	C	1.449512	0.447847	0.757421
N103	N	0.764384	-0.462117	0.163198
N104	N	1.097717	-0.128783	0.496531
N105	N	1.431050	0.204550	0.829864
N106	N	0.764390	-0.537397	0.163208
N107	N	1.097723	-0.204064	0.496542
N108	N	1.431056	0.129270	0.829875
C109	C	0.825565	-0.576443	0.166277
C110	C	1.158898	-0.243110	0.499610
C111	C	1.492231	0.090224	0.832943
N112	N	0.886733	-0.537365	0.169359
N113	N	1.220067	-0.204031	0.502692
N114	N	1.553400	0.129302	0.836025
N115	N	0.886726	-0.462077	0.169355
N116	N	1.220060	-0.128744	0.502688
N117	N	1.553393	0.204589	0.836022
C118	C	0.825552	-0.423608	0.166267
C119	C	1.158886	-0.090275	0.499601
C120	C	1.492219	0.243058	0.832934
C121	C	0.868280	-0.701976	0.241776
C122	C	1.201613	-0.368643	0.575109
C123	C	1.534947	-0.035309	0.908443
C124	C	0.868292	-0.781225	0.241763
C125	C	1.201626	-0.447892	0.575097
C126	C	1.534959	-0.114558	0.908430
C127	C	0.782882	-0.781251	0.090768
C128	C	1.116216	-0.447918	0.424101
C129	C	1.449549	-0.114585	0.757434
C130	C	0.782876	-0.702004	0.090773
C131	C	1.116210	-0.368670	0.424106
C132	C	1.449543	-0.035337	0.757440
C133	C	0.825574	-0.662371	0.166284
C134	C	1.158907	-0.329038	0.499617
C135	C	1.492241	0.004296	0.832951
C136	C	0.953167	-0.000026	0.156469
C137	C	1.286500	0.333307	0.489803
C138	C	1.619834	0.666640	0.823136
C139	C	1.030685	-0.000024	0.158509
C140	C	1.364018	0.333309	0.491842
C141	C	1.697351	0.666643	0.825175
C142	C	0.829569	-0.000026	-0.061885
C143	C	1.162902	0.333308	0.271448
C144	C	1.496235	0.666641	0.604782
C145	C	0.827528	-0.000023	-0.200397
C146	C	1.160861	0.333310	0.132936
C147	C	1.494195	0.666644	0.466270
N148	N	0.825592	0.179139	0.166273
N149	N	1.158925	0.512473	0.499606
N150	N	1.492258	0.845806	0.832939
C151	C	0.886993	-0.000024	-0.276613
C152	C	1.220327	0.333309	0.056720
C153	C	1.553660	0.666643	0.390054
C154	C	0.884885	-0.000021	-0.419773
C155	C	1.218219	0.333312	-0.086439
C156	C	1.551552	0.666645	0.246894
C157	C	0.821560	-0.000020	0.394433
C158	C	1.154893	0.333313	0.727766
C159	C	1.488226	0.666647	1.061099
C160	C	0.823601	-0.000018	0.532945
C161	C	1.156934	0.333316	0.866278
C162	C	1.490267	0.666649	1.199611
H163	H	0.481553	0.124495	0.170415
H164	H	0.814887	0.457828	0.503749
H165	H	1.148220	0.791162	0.837082
H166	H	0.169578	-0.124532	0.162145
H167	H	0.502912	0.208801	0.495478
H168	H	0.836245	0.542135	0.828812
Cl169	Cl	0.629822	0.154890	0.174299
Cl170	Cl	0.963155	0.488223	0.507632
Cl171	Cl	1.296488	0.821556	0.840965
Cl172	Cl	0.746513	-0.000013	-0.263275
Cl173	Cl	1.079846	0.333321	0.070059
Cl174	Cl	1.413179	0.666654	0.403392
H175	H	0.903025	-0.330290	0.303245
H176	H	1.236358	0.003044	0.636578
H177	H	1.569691	0.336377	0.969912
Cl178	Cl	0.021305	-0.154936	0.158224
Cl179	Cl	0.354638	0.178397	0.491558
Cl180	Cl	0.687971	0.511731	0.824891
Cl181	Cl	0.629790	-0.154926	0.174253
Cl182	Cl	0.963123	0.178407	0.507587
Cl183	Cl	1.296456	0.511740	0.840920
H184	H	0.037466	0.124488	0.158717
H185	H	0.370800	0.457821	0.492050
H186	H	0.704133	0.791154	0.825384
H187	H	0.772691	-0.000022	-0.401574
H188	H	1.106024	0.333311	-0.068241
H189	H	1.439358	0.666645	0.265093
H190	H	0.481529	-0.124532	0.170365
H191	H	0.814863	0.208801	0.503699
H192	H	1.148196	0.542134	0.837032
Cl193	Cl	0.968009	-0.000022	-0.213735
Cl194	Cl	1.301342	0.333311	0.119598
Cl195	Cl	1.634675	0.666645	0.452931
H196	H	0.169599	0.124489	0.162197
H197	H	0.502932	0.457822	0.495530
H198	H	0.836265	0.791155	0.828863
H199	H	0.748083	-0.330347	0.029293
H200	H	1.081416	0.002987	0.362627
H201	H	1.414749	0.336320	0.695960
H202	H	0.903012	-0.186526	0.303247
H203	H	1.236346	0.146807	0.636580
H204	H	1.569679	0.480140	0.969913
Cl205	Cl	0.963486	-0.000028	-0.520876
Cl206	Cl	1.296820	0.333305	-0.187543
Cl207	Cl	1.630153	0.666638	0.145790
H208	H	0.748072	-0.186575	0.029272
H209	H	1.081406	0.146758	0.362605
H210	H	1.414739	0.480092	0.695939
Cl211	Cl	0.729180	-0.652214	-0.004121
Cl212	Cl	1.062513	-0.318880	0.329212
Cl213	Cl	1.395846	0.014453	0.662545
Cl214	Cl	0.921971	-0.652148	0.336674
Cl215	Cl	1.255305	-0.318815	0.670007
Cl216	Cl	1.588638	0.014518	1.003340
Cl217	Cl	0.921981	-0.831013	0.336680
Cl218	Cl	1.255314	-0.497680	0.670013
Cl219	Cl	1.588647	-0.164347	1.003347
Cl220	Cl	0.729208	-0.831078	-0.004148
Cl221	Cl	1.062542	-0.497745	0.329185
Cl222	Cl	1.395875	-0.164412	0.662518
