data_functionalizedCrystal
_audit_creation_method	'MofGen! by Chris Wilmer'
_symmetry_space_group_name_H-M	'P1'
_symmetry_Int_Tables_number	1
_symmetry_cell_setting	triclinic
loop_
_symmetry_equiv_pos_as_xyz
  x,y,z
_cell_length_a	10.654545
_cell_length_b	11.792254
_cell_length_c	10.868271
_cell_angle_alpha	90.001586
_cell_angle_beta	90.003913
_cell_angle_gamma	84.340838
loop_
_atom_site_label
_atom_site_type_symbol
_atom_site_fract_x
_atom_site_fract_y
_atom_site_fract_z
O1	O	1.667402	0.159389	0.102311
O2	O	2.000735	0.492723	0.435644
O3	O	2.334069	0.826056	0.768977
O4	O	1.301881	0.174583	0.102316
O5	O	1.635214	0.507916	0.435649
O6	O	1.968547	0.841250	0.768983
O7	O	1.493503	0.001837	0.102304
O8	O	1.826837	0.335170	0.435638
O9	O	2.160170	0.668504	0.768971
O10	O	1.475779	0.332135	0.102322
O11	O	1.809113	0.665469	0.435655
O12	O	2.142446	0.998802	0.768989
O13	O	1.493486	0.001842	-0.102340
O14	O	1.826819	0.335176	0.230993
O15	O	2.160152	0.668509	0.564326
O16	O	1.301863	0.174588	-0.102329
O17	O	1.635197	0.507922	0.231005
O18	O	1.968530	0.841255	0.564338
O19	O	1.667385	0.159395	-0.102334
O20	O	2.000718	0.492728	0.230999
O21	O	2.334051	0.826061	0.564333
Zn22	Zn	1.484621	0.166992	-0.134823
Zn23	Zn	1.817954	0.500326	0.198510
Zn24	Zn	2.151288	0.833659	0.531844
Zn25	Zn	1.484644	0.166985	0.134805
Zn26	Zn	1.817977	0.500319	0.468138
Zn27	Zn	2.151311	0.833652	0.801472
O28	O	1.475762	0.332141	-0.102323
O29	O	1.809095	0.665474	0.231011
O30	O	2.142429	0.998808	0.564344
C31	C	1.255077	0.173471	-0.000006
C32	C	1.588410	0.506805	0.333327
C33	C	1.921744	0.840138	0.666661
C34	C	1.115643	0.170137	-0.000004
C35	C	1.448976	0.503470	0.333329
C36	C	1.782309	0.836803	0.666663
C37	C	1.050133	0.168570	-0.111557
C38	C	1.383466	0.501903	0.221777
C39	C	1.716800	0.835237	0.555110
C40	C	0.919122	0.165418	-0.111557
C41	C	1.252456	0.498751	0.221776
C42	C	1.585789	0.832085	0.555110
C43	C	0.919142	0.165404	0.111558
C44	C	1.252475	0.498738	0.444891
C45	C	1.585809	0.832071	0.778225
C46	C	1.050151	0.168548	0.111557
C47	C	1.383485	0.501882	0.444890
C48	C	1.716818	0.835215	0.778224
C49	C	1.492378	-0.040454	-0.000018
C50	C	1.825711	0.292880	0.333316
C51	C	2.159045	0.626213	0.666649
C52	C	1.489036	-0.166474	-0.000016
C53	C	1.822370	0.166859	0.333317
C54	C	2.155703	0.500192	0.666650
C55	C	1.486321	-0.268817	-0.000012
C56	C	1.819654	0.064516	0.333321
C57	C	2.152988	0.397850	0.666655
C58	C	1.482926	-0.397212	-0.000001
C59	C	1.816259	-0.063878	0.333333
C60	C	2.149592	0.269455	0.666666
C61	C	1.714188	0.160506	-0.000010
C62	C	2.047522	0.493840	0.333324
C63	C	2.380855	0.827173	0.666657
C64	C	1.853623	0.163841	-0.000003
C65	C	2.186956	0.497174	0.333330
C66	C	2.520289	0.830508	0.666663
C67	C	1.476887	0.374431	0.000002
C68	C	1.810220	0.707765	0.333335
C69	C	2.143554	1.041098	0.666669
C70	C	1.480229	0.500452	0.000009
C71	C	1.813562	0.833785	0.333342
C72	C	2.146896	1.167119	0.666676
N73	N	1.484615	0.166997	-0.318837
N74	N	1.817948	0.500330	0.014496
N75	N	2.151281	0.833663	0.347829
C76	C	1.484624	0.166997	-0.430175
C77	C	1.817958	0.500331	-0.096842
C78	C	2.151291	0.833664	0.236492
C79	C	1.484641	0.166987	-0.569852
C80	C	1.817974	0.500320	-0.236519
C81	C	2.151307	0.833653	0.096814
N82	N	1.484660	0.166972	0.318819
N83	N	1.817994	0.500305	0.652152
N84	N	2.151327	0.833639	0.985486
H85	H	0.865790	0.164143	-0.202394
H86	H	1.199123	0.497476	0.130939
H87	H	1.532457	0.830809	0.464272
H88	H	0.865803	0.164112	0.202387
H89	H	1.199136	0.497446	0.535720
H90	H	1.532469	0.830779	0.869054
H91	H	1.103452	0.169863	-0.202397
H92	H	1.436786	0.503197	0.130936
H93	H	1.770119	0.836530	0.464270
C94	C	1.122217	0.170265	0.234280
C95	C	1.455550	0.503598	0.567613
C96	C	1.788884	0.836932	0.900946
N97	N	1.176498	0.171553	0.326711
N98	N	1.509831	0.504887	0.660044
N99	N	1.843164	0.838220	0.993378
