data_functionalizedCrystal
_audit_creation_method	'MofGen! by Chris Wilmer'
_symmetry_space_group_name_H-M	'P1'
_symmetry_Int_Tables_number	1
_symmetry_cell_setting	triclinic
loop_
_symmetry_equiv_pos_as_xyz
  x,y,z
_cell_length_a	18.050591
_cell_length_b	21.295411
_cell_length_c	18.050589
_cell_angle_alpha	90.013095
_cell_angle_beta	89.975773
_cell_angle_gamma	89.969449
loop_
_atom_site_label
_atom_site_type_symbol
_atom_site_fract_x
_atom_site_fract_y
_atom_site_fract_z
Zn1	Zn	1.135363	-0.356049	0.295823
Zn2	Zn	1.135253	-0.250791	0.419995
Zn3	Zn	1.011161	-0.250783	0.295815
Zn4	Zn	1.011130	-0.356011	0.419967
O5	O	1.073227	-0.303409	0.357900
O6	O	1.239273	-0.342106	0.312310
O7	O	1.118759	-0.162700	0.403531
O8	O	1.027696	-0.264760	0.191892
O9	O	1.239192	-0.264772	0.403539
O10	O	1.118947	-0.342099	0.191898
O11	O	1.027589	-0.162695	0.312296
O12	O	0.907233	-0.264723	0.312269
O13	O	1.027643	-0.444106	0.403491
O14	O	0.907210	-0.342034	0.403483
O15	O	1.118916	-0.444134	0.312283
O16	O	1.118729	-0.264735	0.523916
O17	O	1.027536	-0.342040	0.523896
C18	C	0.880275	-0.303374	0.357873
C19	C	0.797729	-0.303374	0.357879
C20	C	1.073289	-0.467599	0.357885
C21	C	1.073315	-0.537567	0.357878
C22	C	0.598269	-0.261429	0.308219
C23	C	0.548847	-0.245942	0.375953
C24	C	0.646599	-0.303402	0.357901
C25	C	0.548940	-0.318888	0.290190
C26	C	0.500614	-0.303429	0.357917
C27	C	0.598263	-0.287885	0.425671
C28	C	0.598361	-0.360857	0.339863
C29	C	0.548960	-0.345392	0.407644
C30	C	0.730697	-0.303386	0.357891
C31	C	0.416517	-0.303445	0.357935
C32	C	1.120839	-0.570449	0.310384
C33	C	1.120838	-0.636192	0.310351
C34	C	1.073321	-0.669050	0.357827
C35	C	1.025787	-0.636159	0.405324
C36	C	1.025785	-0.570418	0.405350
N37	N	1.067593	-0.772273	0.422793
N38	N	1.067601	-0.834724	0.422767
C39	C	1.073325	-0.867125	0.357751
N40	N	1.079057	-0.834714	0.292762
N41	N	1.079054	-0.772257	0.292789
C42	C	1.073318	-0.740335	0.357804
C43	C	1.120851	-0.971292	0.310218
C44	C	1.120844	-1.037036	0.310185
C45	C	1.025798	-1.037002	0.405164
C46	C	1.025800	-0.971260	0.405191
C47	C	1.073331	-0.938409	0.357719
C48	C	1.266933	-0.303444	0.357929
C49	C	1.349478	-0.303459	0.357941
C50	C	1.073137	-0.303398	0.550852
C51	C	1.073167	-0.303415	0.633398
C52	C	1.073208	-0.139857	0.357862
C53	C	1.073326	-0.069889	0.357660
C54	C	1.073337	-0.303433	0.164195
C55	C	1.073384	-0.303443	0.081649
C56	C	1.023625	-0.345439	0.832864
C57	C	1.005516	-0.287996	0.882291
C58	C	1.073240	-0.303423	0.784528
C59	C	1.091386	-0.360873	0.882183
C60	C	1.073309	-0.303436	0.930514
C61	C	1.055095	-0.245949	0.832868
C62	C	1.140996	-0.318865	0.832756
C63	C	1.122913	-0.261383	0.882160
C64	C	1.073198	-0.303416	0.700430
C65	C	1.073351	-0.303436	1.014610
H66	H	0.527099	-0.197365	0.391222
H67	H	0.619839	-0.274745	0.482957
O68	O	0.624230	-0.219089	0.258159
C69	C	0.702332	-0.220028	0.258371
H70	H	0.722555	-0.267139	0.280524
H71	H	0.723685	-0.213083	0.199496
H72	H	0.723912	-0.180622	0.295263
H73	H	0.981606	-0.380920	0.811218
O74	O	1.166934	-0.939402	0.263996
C75	C	1.150757	-0.955460	0.189969
H76	H	1.091431	-0.973506	0.186203
H77	H	1.157173	-0.912222	0.153301
H78	H	1.190586	-0.993633	0.170543
O79	O	0.624297	-0.418773	0.321496
C80	C	0.599197	-0.434912	0.250031
H81	H	0.585295	-0.390353	0.217915
H82	H	0.644439	-0.461979	0.219612
H83	H	0.547561	-0.465454	0.254776
O84	O	1.172910	-0.218916	0.907917
C85	C	1.136223	-0.173870	0.951913
H86	H	1.082209	-0.194530	0.973738
H87	H	1.173137	-0.160141	1.000512
H88	H	1.123657	-0.130515	0.917065
H89	H	1.198250	-0.331942	0.810983
O90	O	1.109581	-0.418873	0.907939
C91	C	1.057076	-0.463007	0.882838
H92	H	1.028773	-0.444326	0.830870
H93	H	1.086159	-0.509176	0.869482
H94	H	1.013842	-0.471207	0.927861
H95	H	0.987101	-1.063755	0.443812
O96	O	0.523321	-0.387680	0.457929
C97	C	0.548604	-0.371143	0.529203
H98	H	0.562347	-0.318912	0.530523
H99	H	0.503533	-0.381654	0.571681
H100	H	0.600374	-0.399489	0.543040
O101	O	0.523179	-0.334431	0.221815
C102	C	0.548287	-0.290029	0.169611
H103	H	0.600260	-0.266010	0.191568
H104	H	0.561635	-0.314785	0.115212
H105	H	0.503270	-0.253390	0.159840
O106	O	1.167026	-0.538636	0.264196
C107	C	1.208985	-0.581762	0.222281
H108	H	1.178570	-0.628612	0.219690
H109	H	1.216941	-0.562768	0.163776
H110	H	1.265373	-0.588779	0.249484
O111	O	1.166902	-0.668172	0.264139
C112	C	1.124658	-0.706193	0.216162
H113	H	1.066170	-0.686356	0.211561
H114	H	1.151561	-0.706952	0.159018
H115	H	1.122084	-0.756016	0.239111
H116	H	0.987096	-0.662916	0.443977
H117	H	0.948249	-0.274946	0.904066
O118	O	0.979702	-0.538500	0.451599
C119	C	0.995879	-0.554593	0.525611
H120	H	1.055204	-0.572695	0.529360
H121	H	0.989465	-0.511359	0.562318
H122	H	0.956049	-0.592735	0.545003
O123	O	1.166936	-1.069077	0.264064
C124	C	1.156756	-1.134147	0.274226
H125	H	1.099430	-1.143102	0.298538
H126	H	1.161821	-1.159126	0.218586
H127	H	1.200784	-1.152832	0.313770
O128	O	0.979615	-0.939412	0.451401
C129	C	0.937659	-0.982507	0.493284
H130	H	0.968078	-1.029383	0.495845
H131	H	0.929699	-0.963513	0.551802
H132	H	0.881273	-0.989474	0.466075
O133	O	1.036715	-0.188022	0.807015
C134	C	1.036888	-0.188718	0.728908
H135	H	1.028590	-0.238872	0.708452
H136	H	0.990048	-0.157776	0.707395
H137	H	1.092163	-0.170067	0.707720
