data_functionalizedCrystal
_audit_creation_method	'MofGen! by Chris Wilmer'
_symmetry_space_group_name_H-M	'P1'
_symmetry_Int_Tables_number	1
_symmetry_cell_setting	triclinic
loop_
_symmetry_equiv_pos_as_xyz
  x,y,z
_cell_length_a	18.101395
_cell_length_b	18.101398
_cell_length_c	14.908308
_cell_angle_alpha	86.729425
_cell_angle_beta	93.266316
_cell_angle_gamma	89.976925
loop_
_atom_site_label
_atom_site_type_symbol
_atom_site_fract_x
_atom_site_fract_y
_atom_site_fract_z
Zn1	Zn	-0.319144	-1.107938	-0.510280
Zn2	Zn	0.180856	-0.607938	-0.010280
Zn3	Zn	-0.435852	-1.114983	-0.359427
Zn4	Zn	0.064148	-0.614983	0.140573
Zn5	Zn	-0.312011	-0.991246	-0.359419
Zn6	Zn	0.187989	-0.491246	0.140581
Zn7	Zn	-0.442928	-0.984051	-0.510213
Zn8	Zn	0.057072	-0.484051	-0.010213
O9	O	-0.377484	-1.049554	-0.434835
O10	O	0.122516	-0.549554	0.065165
O11	O	-0.334650	-1.212504	-0.490300
O12	O	0.165350	-0.712504	0.009700
O13	O	-0.413477	-1.104529	-0.233185
O14	O	0.086523	-0.604529	0.266815
O15	O	-0.209325	-1.006789	-0.379456
O16	O	0.290675	-0.506789	0.120544
O17	O	-0.420394	-1.217680	-0.379469
O18	O	0.079606	-0.717680	0.120531
O19	O	-0.214566	-1.092521	-0.490293
O20	O	0.285434	-0.592521	0.009707
O21	O	-0.322492	-1.013620	-0.233180
O22	O	0.177508	-0.513620	0.266820
O23	O	-0.329353	-0.886660	-0.379391
O24	O	0.170647	-0.386660	0.120609
O25	O	-0.432455	-0.994525	-0.636462
O26	O	0.067545	-0.494525	-0.136462
O27	O	-0.425538	-0.881374	-0.490178
O28	O	0.074462	-0.381374	0.009822
O29	O	-0.341511	-1.085544	-0.636511
O30	O	0.158489	-0.585544	-0.136511
O31	O	-0.540422	-1.097551	-0.379404
O32	O	-0.040422	-0.597551	0.120596
O33	O	-0.545621	-1.001356	-0.490186
O34	O	-0.045621	-0.501356	0.009814
C35	C	-0.377440	-0.857147	-0.434777
C36	C	0.122560	-0.357147	0.065223
C37	C	-0.377440	-0.774833	-0.434774
C38	C	0.122560	-0.274833	0.065226
C39	C	-0.377472	-0.475739	-0.434833
C40	C	0.122528	0.024261	0.065167
C41	C	-0.316687	-0.510349	-0.365470
C42	C	0.183313	-0.010349	0.134530
C43	C	-0.316833	-0.595981	-0.365179
C44	C	0.183167	-0.095981	0.134821
C45	C	-0.377455	-0.624123	-0.434804
C46	C	0.122545	-0.124123	0.065196
C47	C	-0.454236	-0.594236	-0.408828
C48	C	0.045764	-0.094236	0.091172
C49	C	-0.453888	-0.508614	-0.408341
C50	C	0.046112	-0.008614	0.091659
C51	C	-0.362164	-0.502827	-0.530336
C52	C	0.137836	-0.002827	-0.030336
C53	C	-0.360407	-0.588503	-0.529820
C54	C	0.139593	-0.088503	-0.029820
C55	C	-0.377451	-0.707983	-0.434788
C56	C	0.122549	-0.207983	0.065212
C57	C	-0.377481	-0.391879	-0.434846
C58	C	0.122519	0.108121	0.065154
C59	C	-0.569893	-1.049457	-0.434808
C60	C	-0.069893	-0.549457	0.065192
C61	C	-0.652208	-1.049481	-0.434827
C62	C	-0.152208	-0.549481	0.065173
C63	C	-0.951301	-1.049641	-0.434876
C64	C	-0.451301	-0.549641	0.065124
C65	C	-0.923286	-0.989242	-0.504750
C66	C	-0.423286	-0.489242	-0.004750
C67	C	-0.837658	-0.988981	-0.504531
C68	C	-0.337658	-0.488981	-0.004531
C69	C	-0.802918	-1.049562	-0.434852
C70	C	-0.302918	-0.549562	0.065148
C71	C	-0.829565	-1.032939	-0.339773
C72	C	-0.329565	-0.532939	0.160227
C73	C	-0.915230	-1.032551	-0.340191
C74	C	-0.415230	-0.532551	0.159809
C75	C	-0.920809	-1.126828	-0.459244
C76	C	-0.420809	-0.626828	0.040756
C77	C	-0.835257	-1.126269	-0.461329
C78	C	-0.335257	-0.626269	0.038671
C79	C	-0.719057	-1.049518	-0.434833
C80	C	-0.219057	-0.549518	0.065167
C81	C	-1.035161	-1.049683	-0.434888
C82	C	-0.535161	-0.549683	0.065112
C83	C	-0.184324	-1.049672	-0.434881
C84	C	0.315676	-0.549672	0.065119
C85	C	-0.102011	-1.049722	-0.434901
C86	C	0.397989	-0.549722	0.065099
C87	C	-0.388568	-1.038446	-0.670135
C88	C	0.111432	-0.538446	-0.170135
C89	C	-0.393292	-1.033712	-0.770406
C90	C	0.106708	-0.533712	-0.270406
C91	C	-0.377513	-0.242714	-0.434879
C92	C	0.122487	0.257286	0.065121
C93	C	-0.377487	-0.325029	-0.434863
C94	C	0.122513	0.174971	0.065137
C95	C	-0.307451	-1.119593	-0.958878
C96	C	0.192549	-0.619593	-0.458878
C97	C	-0.311886	-1.115148	-1.053092
C98	C	0.188114	-0.615148	-0.553092
C99	C	-0.406594	-1.020372	-1.053048
C100	C	0.093406	-0.520372	-0.553048
C101	C	-0.402158	-1.024818	-0.958834
C102	C	0.097842	-0.524818	-0.458834
C103	C	-0.352586	-1.074431	-0.911753
C104	C	0.147414	-0.574431	-0.411753
C105	C	-0.348155	-1.078879	-0.817538
C106	C	0.151845	-0.578879	-0.317538
C107	C	-0.442858	-0.984101	-0.817495
C108	C	0.057142	-0.484101	-0.317495
C109	C	-0.447294	-0.979655	-0.911709
C110	C	0.052706	-0.479655	-0.411709
C111	C	-0.366389	-1.060662	-0.200450
C112	C	0.133611	-0.560662	0.299550
C113	C	-0.361457	-1.065540	-0.100180
C114	C	0.138543	-0.565540	0.399820
H115	H	-0.467400	-0.491911	-0.338524
H116	H	0.032600	0.008089	0.161476
F117	F	-0.490904	-0.936039	-0.767334
F118	F	0.009096	-0.436039	-0.267334
F119	F	-0.940142	-0.958977	-0.313212
F120	F	-0.440142	-0.458977	0.186788
F121	F	-0.286589	-0.613889	-0.555430
F122	F	0.213411	-0.113889	-0.055430
H123	H	-0.487652	-0.939261	-0.950055
H124	H	0.012348	-0.439261	-0.450055
F125	F	-0.950518	-0.914792	-0.483931
F126	F	-0.450518	-0.414792	0.016069
H127	H	-0.933405	-1.074879	-0.286353
H128	H	-0.433405	-0.574879	0.213647
H129	H	-0.259756	-0.616250	-0.381461
H130	H	0.240244	-0.116250	0.118539
H131	H	-0.500546	-0.612281	-0.457770
H132	H	-0.000546	-0.112281	0.042230
F133	F	-0.241836	-0.482466	-0.386512
F134	F	0.258164	0.017534	0.113488
F135	F	-0.809950	-0.914080	-0.483435
F136	F	-0.309950	-0.414080	0.016565
H137	H	-0.938656	-1.171772	-0.408352
H138	H	-0.438656	-0.671772	0.091648
H139	H	-0.326317	-0.492134	-0.295115
H140	H	0.173683	0.007866	0.204885
F141	F	-0.812974	-1.142763	-0.552790
F142	F	-0.312974	-0.642763	-0.052790
F143	F	-0.295398	-1.131683	-0.767431
F144	F	0.204602	-0.631683	-0.267431
F145	F	-0.290562	-0.473171	-0.561202
F146	F	0.209438	0.026829	-0.061202
H147	H	-0.275131	-1.151922	-1.091458
H148	H	0.224869	-0.651922	-0.591458
F149	F	-0.459343	-0.967571	-1.103170
F150	F	0.040657	-0.467571	-0.603170
F151	F	-0.954523	-1.001964	-0.597199
F152	F	-0.454523	-0.501964	-0.097199
F153	F	-0.799640	-1.088889	-0.269866
F154	F	-0.299640	-0.588889	0.230134
H155	H	-0.811617	-1.173288	-0.414147
H156	H	-0.311617	-0.673288	0.085853
H157	H	-0.945586	-1.142862	-0.527395
H158	H	-0.445586	-0.642862	-0.027395
F159	F	-0.800308	-0.960179	-0.312309
F160	F	-0.300308	-0.460179	0.187691
F161	F	-0.254700	-1.172401	-0.908769
F162	F	0.245300	-0.672401	-0.408769
H163	H	-0.326594	-0.619789	-0.294414
H164	H	0.173406	-0.119789	0.205586
H165	H	-0.500469	-0.485602	-0.456659
H166	H	-0.000469	0.014398	0.043341
H167	H	-0.468077	-0.618923	-0.339767
H168	H	0.031923	-0.118923	0.160233
H169	H	-0.401816	-0.607327	-0.584272
H170	H	0.098184	-0.107327	-0.084272
H171	H	-0.406492	-0.480122	-0.582018
H172	H	0.093508	0.019878	-0.082018
H173	H	-0.819933	-0.998860	-0.575031
H174	H	-0.319933	-0.498860	-0.075031
