data_functionalizedCrystal
_audit_creation_method	'MofGen! by Chris Wilmer'
_symmetry_space_group_name_H-M	'P1'
_symmetry_Int_Tables_number	1
_symmetry_cell_setting	triclinic
loop_
_symmetry_equiv_pos_as_xyz
  x,y,z
_cell_length_a	17.699077
_cell_length_b	16.992695
_cell_length_c	16.176319
_cell_angle_alpha	89.993125
_cell_angle_beta	89.993140
_cell_angle_gamma	86.974400
loop_
_atom_site_label
_atom_site_type_symbol
_atom_site_fract_x
_atom_site_fract_y
_atom_site_fract_z
O1	O	1.010253	0.099123	-0.068736
O2	O	1.343586	0.432457	0.264597
O3	O	1.676920	0.765790	0.597930
O4	O	0.790678	0.112027	-0.068741
O5	O	1.124011	0.445361	0.264593
O6	O	1.457344	0.778694	0.597926
O7	O	0.899585	-0.008566	-0.068732
O8	O	1.232918	0.324768	0.264601
O9	O	1.566252	0.658101	0.597935
O10	O	0.901346	0.219716	-0.068745
O11	O	1.234679	0.553050	0.264588
O12	O	1.568012	0.886383	0.597922
O13	O	0.899569	-0.008573	0.068761
O14	O	1.232902	0.324760	0.402095
O15	O	1.566235	0.658093	0.735428
O16	O	0.790661	0.112020	0.068753
O17	O	1.123994	0.445353	0.402086
O18	O	1.457328	0.778686	0.735419
O19	O	1.010237	0.099116	0.068757
O20	O	1.343570	0.432449	0.402090
O21	O	1.676903	0.765782	0.735423
Cu22	Cu	0.900447	0.105567	0.081309
Cu23	Cu	1.233781	0.438900	0.414642
Cu24	Cu	1.567114	0.772234	0.747976
Cu25	Cu	0.900467	0.105576	-0.081293
Cu26	Cu	1.233800	0.438909	0.252041
Cu27	Cu	1.567133	0.772243	0.585374
O28	O	0.901329	0.219709	0.068748
O29	O	1.234662	0.553042	0.402081
O30	O	1.567996	0.886375	0.735415
C31	C	0.762443	0.111562	0.000006
C32	C	1.095777	0.444895	0.333339
C33	C	1.429110	0.778229	0.666672
C34	C	0.678339	0.110177	0.000004
C35	C	1.011672	0.443510	0.333337
C36	C	1.345006	0.776844	0.666671
C37	C	0.638822	0.109520	0.074953
C38	C	0.972155	0.442854	0.408286
C39	C	1.305489	0.776187	0.741619
C40	C	0.559798	0.108207	0.074954
C41	C	0.893131	0.441540	0.408287
C42	C	1.226464	0.774873	0.741620
C43	C	0.520291	0.107555	0.000005
C44	C	0.853625	0.440889	0.333338
C45	C	1.186958	0.774222	0.666672
C46	C	0.559814	0.108210	-0.074949
C47	C	0.893147	0.441543	0.258384
C48	C	1.226481	0.774877	0.591718
C49	C	0.638837	0.109518	-0.074949
C50	C	0.972171	0.442851	0.258384
C51	C	1.305504	0.776185	0.591717
C52	C	0.241122	0.102934	-0.074950
C53	C	0.574456	0.436267	0.258383
C54	C	0.907789	0.769600	0.591716
C55	C	0.162093	0.101628	-0.074945
C56	C	0.495427	0.434961	0.258389
C57	C	0.828760	0.768295	0.591722
C58	C	0.162083	0.101623	0.074952
C59	C	0.495416	0.434956	0.408286
C60	C	0.828749	0.768289	0.741619
C61	C	0.241106	0.102931	0.074952
C62	C	0.574439	0.436264	0.408286
C63	C	0.907772	0.769597	0.741619
C64	C	0.280622	0.103581	-0.000001
C65	C	0.613955	0.436914	0.333332
C66	C	0.947289	0.770248	0.666665
C67	C	0.366309	0.105004	-0.000002
C68	C	0.699642	0.438337	0.333332
C69	C	1.032976	0.771670	0.666665
C70	C	0.434605	0.106138	0.000004
C71	C	0.767939	0.439472	0.333338
C72	C	1.101272	0.772805	0.666671
C73	C	0.897312	-0.037778	0.000014
C74	C	1.230645	0.295556	0.333348
C75	C	1.563979	0.628889	0.666681
C76	C	0.890555	-0.124809	0.000014
C77	C	1.223888	0.208525	0.333347
C78	C	1.557222	0.541858	0.666681
C79	C	0.955753	-0.175175	0.000016
C80	C	1.289086	0.158158	0.333350
C81	C	1.622419	0.491492	0.666683
C82	C	0.949399	-0.256949	0.000008
C83	C	1.282732	0.076384	0.333342
C84	C	1.616066	0.409717	0.666675
C85	C	0.877847	-0.288356	0.000004
C86	C	1.211180	0.044977	0.333337
C87	C	1.544514	0.378311	0.666671
C88	C	0.812644	-0.237983	-0.000000
C89	C	1.145978	0.095350	0.333333
C90	C	1.479311	0.428683	0.666666
C91	C	0.818999	-0.156211	0.000002
C92	C	1.152332	0.177123	0.333335
C93	C	1.485665	0.510456	0.666668
C94	C	0.851511	-0.531903	-0.000008
C95	C	1.184844	-0.198570	0.333326
C96	C	1.518178	0.134764	0.666659
C97	C	0.845161	-0.613682	-0.000007
C98	C	1.178495	-0.280349	0.333326
C99	C	1.511828	0.052985	0.666659
C100	C	0.981917	-0.632642	-0.000000
C101	C	1.315250	-0.299309	0.333333
C102	C	1.648584	0.034024	0.666667
C103	C	0.988265	-0.550867	0.000007
C104	C	1.321598	-0.217534	0.333340
C105	C	1.654932	0.115799	0.666674
C106	C	0.923062	-0.500502	-0.000002
C107	C	1.256396	-0.167169	0.333331
C108	C	1.589729	0.166165	0.666665
N109	N	0.871351	-0.371942	-0.000001
N110	N	1.204684	-0.038609	0.333332
N111	N	1.538018	0.294724	0.666665
N112	N	0.929559	-0.416917	-0.000002
N113	N	1.262892	-0.083584	0.333331
N114	N	1.596226	0.249749	0.666664
C115	C	1.038471	0.099581	0.000009
C116	C	1.371804	0.432914	0.333342
C117	C	1.705137	0.766248	0.666675
C118	C	1.122575	0.100966	0.000005
C119	C	1.455909	0.434299	0.333338
C120	C	1.789242	0.767632	0.666671
C121	C	0.903602	0.248921	-0.000000
C122	C	1.236935	0.582254	0.333333
C123	C	1.570269	0.915587	0.666667
C124	C	0.910359	0.335952	-0.000005
C125	C	1.243693	0.669285	0.333328
C126	C	1.577026	1.002618	0.666661
N127	N	0.900439	0.105560	0.195674
N128	N	1.233772	0.438893	0.529007
N129	N	1.567106	0.772227	0.862341
N130	N	0.900481	0.105577	-0.195658
N131	N	1.233814	0.438910	0.137675
N132	N	1.567147	0.772243	0.471009
C133	C	0.948680	0.052183	0.238942
C134	C	1.282014	0.385517	0.572275
C135	C	1.615347	0.718850	0.905609
C136	C	0.948684	0.052182	0.325489
C137	C	1.282017	0.385516	0.658823
C138	C	1.615351	0.718849	0.992156
C139	C	0.900450	0.105563	0.368767
C140	C	1.233783	0.438896	0.702100
C141	C	1.567117	0.772229	1.035433
C142	C	0.852204	0.158942	0.325493
C143	C	1.185537	0.492275	0.658826
C144	C	1.518870	0.825609	0.992159
C145	C	0.852197	0.158939	0.238947
C146	C	1.185530	0.492272	0.572280
C147	C	1.518863	0.825605	0.905614
C148	C	0.852230	0.158957	0.674521
C149	C	1.185564	0.492290	1.007854
C150	C	1.518897	0.825623	1.341188
C151	C	0.852243	0.158958	0.761072
C152	C	1.185576	0.492291	1.094406
C153	C	1.518909	0.825624	1.427739
C154	C	0.948718	0.052201	0.761063
C155	C	1.282051	0.385534	1.094396
C156	C	1.615385	0.718867	1.427730
C157	C	0.948711	0.052197	0.674517
C158	C	1.282044	0.385530	1.007851
C159	C	1.615378	0.718864	1.341184
C160	C	0.900462	0.105573	0.631251
C161	C	1.233795	0.438907	0.964584
C162	C	1.567129	0.772240	1.297918
C163	C	0.900457	0.105573	0.537407
C164	C	1.233791	0.438906	0.870740
C165	C	1.567124	0.772239	1.204073
C166	C	0.900458	0.105568	0.462609
C167	C	1.233791	0.438901	0.795943
C168	C	1.567125	0.772235	1.129276
H169	H	0.670982	0.110057	0.135984
H170	H	1.004315	0.443391	0.469318
H171	H	1.337649	0.776724	0.802651
H172	H	1.014018	-0.149611	0.000025
H173	H	1.347351	0.183723	0.333358
H174	H	1.680685	0.517056	0.666691
H175	H	0.987965	0.008719	0.360718
H176	H	1.321298	0.342052	0.694051
H177	H	1.654632	0.675385	1.027384
O178	O	1.052241	-0.686962	0.000004
O179	O	1.385574	-0.353629	0.333337
O180	O	1.718908	-0.020296	0.666671
H181	H	1.035805	-0.749101	-0.000004
H182	H	1.369139	-0.415768	0.333330
H183	H	1.702472	-0.082434	0.666663
H184	H	0.812946	0.202419	0.639300
H185	H	1.146279	0.535752	0.972633
H186	H	1.479613	0.869086	1.305967
H187	H	0.812913	0.202402	0.203719
H188	H	1.146246	0.535736	0.537052
H189	H	1.479579	0.869069	0.870386
H190	H	0.129930	0.101097	-0.135980
H191	H	0.463263	0.434430	0.197353
H192	H	0.796596	0.767764	0.530686
H193	H	0.273287	0.103461	-0.135982
H194	H	0.606620	0.436794	0.197351
H195	H	0.939954	0.770127	0.530684
O196	O	0.283708	0.103643	0.155795
O197	O	0.617041	0.436976	0.489128
O198	O	0.950374	0.770310	0.822461
H199	H	0.323236	0.050829	0.159389
H200	H	0.656569	0.384162	0.492722
H201	H	0.989902	0.717495	0.826056
O202	O	0.748675	-0.101887	0.000008
O203	O	1.082009	0.231446	0.333341
O204	O	1.415342	0.564779	0.666674
H205	H	0.748301	-0.064175	-0.056035
H206	H	1.081634	0.269158	0.277298
H207	H	1.414968	0.602491	0.610632
O208	O	1.000726	-0.005384	0.627836
O209	O	1.334059	0.327950	0.961170
O210	O	1.667393	0.661283	1.294503
H211	H	1.060328	0.004517	0.644429
H212	H	1.393661	0.337850	0.977763
H213	H	1.726995	0.671183	1.311096
H214	H	0.527642	0.107674	-0.135973
H215	H	0.860975	0.441007	0.197360
H216	H	1.194309	0.774341	0.530693
O217	O	0.767984	-0.647561	-0.000021
O218	O	1.101318	-0.314228	0.333312
O219	O	1.434651	0.019105	0.666645
H220	H	0.723711	-0.598802	-0.000036
H221	H	1.057045	-0.265468	0.333297
H222	H	1.390378	0.067865	0.666630
O223	O	0.800224	0.216549	0.807746
O224	O	1.133558	0.549882	1.141080
O225	O	1.466891	0.883216	1.474413
H226	H	0.740621	0.206640	0.791165
H227	H	1.073955	0.539973	1.124499
H228	H	1.407288	0.873307	1.457832
H229	H	0.812927	0.202403	0.360734
H230	H	1.146260	0.535736	0.694067
H231	H	1.479593	0.869069	1.027401
O232	O	0.781184	-0.477592	0.000003
O233	O	1.114517	-0.144258	0.333336
O234	O	1.447851	0.189075	0.666669
H235	H	0.747176	-0.488740	-0.056031
H236	H	1.080509	-0.155407	0.277303
H237	H	1.413843	0.177926	0.610636
O238	O	0.517172	0.107507	0.155790
O239	O	0.850505	0.440840	0.489123
O240	O	1.183839	0.774174	0.822457
H241	H	0.557918	0.108192	0.207906
H242	H	0.891252	0.441526	0.541239
H243	H	1.224585	0.774859	0.874572
H244	H	1.002490	-0.297955	0.000012
H245	H	1.335824	0.035379	0.333345
H246	H	1.669157	0.368712	0.666678
O247	O	1.065439	-0.516992	-0.000009
O248	O	1.398772	-0.183659	0.333325
O249	O	1.732105	0.149675	0.666658
H250	H	1.109709	-0.565754	-0.000021
H251	H	1.443042	-0.232421	0.333312
H252	H	1.776376	0.100913	0.666646
O253	O	0.681465	0.110231	-0.155785
O254	O	1.014798	0.443564	0.177548
O255	O	1.348132	0.776898	0.510881
H256	H	0.640719	0.109567	-0.207903
H257	H	0.974052	0.442900	0.125431
H258	H	1.307386	0.776233	0.458764
H259	H	0.129899	0.101090	0.135983
H260	H	0.463233	0.434423	0.469317
H261	H	0.796566	0.767756	0.802650
H262	H	0.754385	-0.263561	-0.000009
H263	H	1.087718	0.069772	0.333324
H264	H	1.421052	0.403106	0.666658
H265	H	0.987961	0.008718	0.203711
H266	H	1.321295	0.342052	0.537045
H267	H	1.654628	0.675385	0.870378
H268	H	0.988003	0.008736	0.796300
H269	H	1.321336	0.342070	1.129633
H270	H	1.654669	0.675403	1.462966
