data_functionalizedCrystal
_audit_creation_method	'MofGen! by Chris Wilmer'
_symmetry_space_group_name_H-M	'P1'
_symmetry_Int_Tables_number	1
_symmetry_cell_setting	triclinic
loop_
_symmetry_equiv_pos_as_xyz
  x,y,z
_cell_length_a	18.215399
_cell_length_b	12.759401
_cell_length_c	12.759400
_cell_angle_alpha	90.014845
_cell_angle_beta	90.024546
_cell_angle_gamma	90.016498
loop_
_atom_site_label
_atom_site_type_symbol
_atom_site_fract_x
_atom_site_fract_y
_atom_site_fract_z
Zn1	Zn	-0.416068	-1.606235	0.418273
Zn2	Zn	-0.293009	-1.606135	0.593970
Zn3	Zn	-0.293022	-1.430543	0.418306
Zn4	Zn	-0.416041	-1.430525	0.593911
O5	O	-0.354535	-1.518360	0.506115
O6	O	-0.399749	-1.753243	0.441590
O7	O	-0.190026	-1.582808	0.570707
O8	O	-0.309361	-1.453898	0.271281
O9	O	-0.309338	-1.753169	0.570674
O10	O	-0.399762	-1.582978	0.271256
O11	O	-0.190036	-1.453801	0.441647
O12	O	-0.309335	-1.283520	0.441590
O13	O	-0.519029	-1.453868	0.570573
O14	O	-0.399717	-1.283507	0.570605
O15	O	-0.519049	-1.582961	0.441532
O16	O	-0.309312	-1.582791	0.740983
O17	O	-0.399704	-1.453772	0.740939
C18	C	-0.354525	-1.245392	0.506095
C19	C	-0.354538	-1.128616	0.506112
C20	C	-0.354520	-1.518297	0.779082
C21	C	-0.354538	-1.518367	0.895859
C22	C	-0.546488	-1.518424	0.506042
C23	C	-0.628287	-1.518451	0.506012
C24	C	-0.816492	-1.585694	0.438757
C25	C	-0.893351	-1.585706	0.438727
C26	C	-0.893319	-1.451282	0.573103
C27	C	-0.816462	-1.451265	0.573128
C28	C	-0.778050	-1.518477	0.505956
C29	C	-0.931767	-1.518506	0.505901
C30	C	-1.015100	-1.518520	0.505869
C31	C	-0.694711	-1.518463	0.505987
C32	C	-0.163329	-1.518356	0.506111
C33	C	-0.081530	-1.518533	0.505846
C34	C	-0.354545	-1.792393	0.506135
C35	C	-0.354550	-1.909169	0.506144
C36	C	-0.401522	-1.073774	0.573399
C37	C	-0.401530	-0.964050	0.573412
C38	C	-0.307564	-0.964018	0.438850
C39	C	-0.307560	-1.073740	0.438832
C40	C	-0.455770	-1.073792	0.651090
C41	C	-0.455778	-0.964068	0.651103
C42	C	-0.354566	-1.518451	0.232081
C43	C	-0.354580	-1.518490	0.115305
C44	C	-0.307523	-1.585622	0.950709
C45	C	-0.307546	-1.585686	1.060433
C46	C	-0.401600	-1.451232	1.060447
C47	C	-0.401580	-1.451173	0.950725
C48	C	-0.253219	-1.663245	0.950701
C49	C	-0.253242	-1.663310	1.060425
H50	H	-0.785220	-1.640419	0.384059
H51	H	-0.924647	-1.640439	0.384005
H52	H	-0.196237	-1.641575	1.090277
Br53	Br	-0.550809	-1.123480	0.614945
H54	H	-0.924603	-1.396563	0.627794
H55	H	-0.785162	-1.396522	0.627848
H56	H	-0.269317	-0.919326	0.384072
H57	H	-0.435257	-1.107807	0.728339
Br58	Br	-0.546081	-0.907386	0.602708
Br59	Br	-0.243811	-1.148166	0.347488
H60	H	-0.440415	-0.934273	0.732450
H61	H	-0.273704	-1.740613	1.094373
Br62	Br	-0.465402	-1.359915	0.876288
Br63	Br	-0.465442	-1.360048	1.134915
Br64	Br	-0.278729	-1.798817	0.900930
Br65	Br	-0.162952	-1.614676	0.894093
