data_functionalizedCrystal
_audit_creation_method	'MofGen! by Chris Wilmer'
_symmetry_space_group_name_H-M	'P1'
_symmetry_Int_Tables_number	1
_symmetry_cell_setting	triclinic
loop_
_symmetry_equiv_pos_as_xyz
  x,y,z
_cell_length_a	12.759401
_cell_length_b	16.625545
_cell_length_c	12.759393
_cell_angle_alpha	90.032830
_cell_angle_beta	90.019596
_cell_angle_gamma	90.025835
loop_
_atom_site_label
_atom_site_type_symbol
_atom_site_fract_x
_atom_site_fract_y
_atom_site_fract_z
Zn1	Zn	1.606187	-0.320957	0.593965
Zn2	Zn	1.606045	-0.455811	0.418278
Zn3	Zn	1.430486	-0.320997	0.418305
Zn4	Zn	1.430444	-0.455752	0.593920
O5	O	1.518291	-0.388379	0.506117
O6	O	1.753189	-0.338853	0.570668
O7	O	1.582714	-0.437969	0.271261
O8	O	1.453870	-0.208159	0.441637
O9	O	1.753085	-0.437930	0.441592
O10	O	1.582957	-0.208130	0.570694
O11	O	1.453732	-0.338922	0.271280
O12	O	1.283459	-0.338864	0.441592
O13	O	1.453799	-0.437829	0.740947
O14	O	1.283429	-0.437868	0.570616
O15	O	1.582917	-0.338796	0.740980
O16	O	1.582674	-0.568635	0.441547
O17	O	1.453661	-0.568592	0.570590
C18	C	1.245323	-0.388365	0.506103
C19	C	1.128547	-0.388378	0.506121
C20	C	0.963965	-0.440020	0.573205
C21	C	1.073689	-0.440011	0.573194
C22	C	1.073674	-0.336756	0.439047
C23	C	0.963952	-0.336770	0.439054
C24	C	1.518176	-0.597870	0.506084
C25	C	1.518224	-0.687491	0.506105
C26	C	1.518264	-0.760273	0.506126
C27	C	1.518326	-0.851582	0.506149
C28	C	1.518380	-0.924358	0.506162
C29	C	1.518440	-1.015672	0.506184
C30	C	1.792324	-0.388394	0.506132
C31	C	1.909100	-0.388400	0.506139
C32	C	1.518369	-0.388302	0.780151
C33	C	1.518403	-0.388269	0.896927
C34	C	1.518434	-0.178070	0.506173
C35	C	1.518495	-0.088449	0.506197
C36	C	1.518273	-0.388398	0.233150
C37	C	1.518443	-0.388204	0.116374
C38	C	1.585639	-0.336694	0.951808
C39	C	1.585657	-0.336659	1.061533
C40	C	1.451199	-0.439781	1.061485
C41	C	1.451177	-0.439811	0.951763
H42	H	0.919308	-0.482061	0.627830
H43	H	1.396468	-0.481747	1.106145
H44	H	1.118355	-0.482045	0.627806
H45	H	1.396417	-0.481809	0.907077
H46	H	0.919280	-0.294734	0.384435
C47	C	1.241865	-0.290881	0.379482
C48	C	1.133971	-0.279998	0.365321
H49	H	1.279086	-0.255834	0.333970
H50	H	1.259817	-0.345032	0.363975
H51	H	1.259865	-0.279143	0.450103
H52	H	1.115969	-0.291741	0.294701
H53	H	1.116012	-0.225834	0.380820
H54	H	1.640406	-0.294660	1.106212
C55	C	1.718536	-0.234752	0.962881
C56	C	1.659522	-0.280031	0.891532
H57	H	1.764142	-0.199766	0.925669
H58	H	1.758708	-0.269872	1.005668
H59	H	1.672777	-0.203900	1.005681
H60	H	1.705281	-0.310888	0.848737
H61	H	1.619347	-0.244906	0.848727
