data_functionalizedCrystal
_audit_creation_method	'MofGen! by Chris Wilmer'
_symmetry_space_group_name_H-M	'P1'
_symmetry_Int_Tables_number	1
_symmetry_cell_setting	triclinic
loop_
_symmetry_equiv_pos_as_xyz
  x,y,z
_cell_length_a	11.026607
_cell_length_b	11.792254
_cell_length_c	10.065875
_cell_angle_alpha	98.849918
_cell_angle_beta	79.302338
_cell_angle_gamma	96.392307
loop_
_atom_site_label
_atom_site_type_symbol
_atom_site_fract_x
_atom_site_fract_y
_atom_site_fract_z
O1	O	1.630988	0.462837	-0.113504
O2	O	1.277323	0.408645	-0.113505
O3	O	1.462728	0.272276	-0.113495
O4	O	1.445582	0.599207	-0.113514
O5	O	1.427375	0.298413	0.113492
O6	O	1.241969	0.434783	0.113482
O7	O	1.595634	0.488975	0.113483
Zn8	Zn	1.413189	0.466029	0.149521
Zn9	Zn	1.459768	0.431592	-0.149544
O10	O	1.410229	0.625345	0.113473
C11	C	1.214369	0.411717	-0.000011
C12	C	1.079457	0.381914	-0.000011
C13	C	1.443971	0.242839	-0.000002
C14	C	1.440738	0.116184	-0.000003
C15	C	1.006198	0.464204	-0.000017
C16	C	0.866760	0.433403	-0.000017
C17	C	1.438112	0.013325	-0.000008
C18	C	1.434829	-0.115715	-0.000021
C19	C	1.658589	0.485903	-0.000014
C20	C	1.793502	0.515705	-0.000023
C21	C	1.428986	0.654781	-0.000023
C22	C	1.432221	0.781435	-0.000031
N23	N	1.381408	0.489532	0.353625
N24	N	1.491559	0.408081	-0.353647
C25	C	1.448703	0.439760	0.421408
C26	C	1.424254	0.457860	0.578574
H27	H	1.046707	0.557458	-0.000015
H28	H	0.826260	0.340139	-0.000047
F29	F	1.325276	0.531069	0.654794
H30	H	1.524414	0.383744	0.363087
H31	H	1.038952	0.288656	-0.000041
H32	H	0.834003	0.608966	-0.000019
F33	F	1.590735	0.335095	0.570135
H34	H	1.305689	0.545539	0.411947
