data_functionalizedCrystal
_audit_creation_method	'MofGen! by Chris Wilmer'
_symmetry_space_group_name_H-M	'P1'
_symmetry_Int_Tables_number	1
_symmetry_cell_setting	triclinic
loop_
_symmetry_equiv_pos_as_xyz
  x,y,z
_cell_length_a	14.560432
_cell_length_b	18.426585
_cell_length_c	18.426585
_cell_angle_alpha	90.001513
_cell_angle_beta	59.999647
_cell_angle_gamma	60.002376
loop_
_atom_site_label
_atom_site_type_symbol
_atom_site_fract_x
_atom_site_fract_y
_atom_site_fract_z
Zr1	Zr	1.005311	0.699126	-0.095250
O2	O	1.196910	0.583248	-0.211127
O3	O	0.813711	0.734646	-0.059728
O4	O	1.005319	0.734642	-0.211132
O5	O	1.005296	0.583258	0.059708
O6	O	1.005325	0.854068	-0.211135
O7	O	1.005303	0.583252	-0.059723
O8	O	0.662574	0.854075	0.059699
O9	O	1.348047	0.583251	-0.211126
O10	O	0.892524	0.838925	-0.044580
O11	O	0.892514	0.749803	0.044552
O12	O	1.118107	0.749798	-0.133706
O13	O	1.118098	0.660677	-0.044574
Zr14	Zr	1.005311	0.889606	0.095224
Zr15	Zr	1.005321	0.889597	-0.095255
Zr16	Zr	1.005301	0.699136	0.095229
Zr17	Zr	1.246357	0.699131	-0.095248
Zr18	Zr	0.764265	0.889602	0.095222
O19	O	1.196910	0.854086	0.059702
O20	O	1.196925	0.854072	-0.211134
O21	O	1.196896	0.583262	0.059709
O22	O	0.813711	1.005485	0.211101
O23	O	0.813726	1.005471	-0.059735
O24	O	0.813697	0.734660	0.211108
O25	O	1.005325	1.005475	-0.059734
O26	O	1.005303	0.854090	0.211106
O27	O	1.005296	0.734664	0.211109
O28	O	1.005319	1.005481	0.059697
O29	O	1.348055	0.734649	-0.211129
O30	O	0.662566	0.854083	0.211104
O31	O	0.662574	1.005482	0.211100
O32	O	0.662582	1.005474	0.059695
O33	O	1.348039	0.583258	-0.059721
O34	O	1.348047	0.734657	-0.059724
O35	O	0.892514	0.838934	0.133680
O36	O	0.892524	0.928056	0.044548
O37	O	1.118107	0.838929	-0.044578
O38	O	1.118098	0.749808	0.044554
C39	C	0.703799	0.794360	-0.000015
C40	C	0.601469	0.794358	-0.000016
C41	C	0.767984	0.662758	-0.131601
C42	C	0.803164	0.596958	-0.197390
C43	C	0.707011	0.596961	-0.197387
C44	C	0.575666	0.662772	-0.131590
C45	C	0.540486	0.728572	-0.065801
C46	C	0.636651	0.728560	-0.065810
C47	C	0.373973	0.860174	0.065779
C48	C	0.470124	0.860169	0.065781
C49	C	0.242628	0.925986	0.131576
C50	C	0.207446	0.991783	0.197370
C51	C	0.303609	0.991777	0.197365
C52	C	0.434944	0.925969	0.131570
C53	C	1.005298	0.556117	-0.000007
C54	C	1.005294	0.475257	-0.000005
C55	C	1.005333	0.179142	-0.000020
C56	C	1.005327	0.261528	-0.000018
C57	C	1.005313	0.327197	-0.000013
C58	C	1.005308	0.409588	-0.000010
C59	C	1.306823	0.794372	-0.000011
C60	C	1.409153	0.794374	-0.000010
C61	C	1.005323	0.794354	-0.238273
C62	C	1.005328	0.794350	-0.319136
C63	C	1.005323	1.032616	-0.000019
C64	C	1.005328	1.113476	-0.000021
C65	C	1.005289	0.794383	-0.615220
C66	C	1.005294	0.794376	-0.532838
C67	C	1.005308	0.794366	-0.467180
C68	C	1.005314	0.794360	-0.384793
C69	C	1.005298	0.794379	0.238247
C70	C	1.005294	0.794383	0.319110
C71	C	0.703812	1.032610	-0.000021
C72	C	0.601486	1.113467	-0.000024
C73	C	0.703786	0.794373	0.238245
C74	C	0.601451	0.794375	0.319107
C75	C	0.703799	1.032622	0.238238
C76	C	0.601469	1.113484	0.319099
C77	C	1.306823	0.556110	-0.238264
C78	C	1.409153	0.475249	-0.319125
C79	C	1.306810	0.556123	-0.000005
C80	C	1.409136	0.475265	-0.000002
C81	C	1.306835	0.794360	-0.238270
C82	C	1.409170	0.794358	-0.319133
C83	C	0.553432	1.104914	-0.046557
C84	C	0.457299	1.180881	-0.046577
C85	C	0.409215	1.265401	-0.000059
C86	C	0.457278	1.273953	0.046475
C87	C	0.553416	1.197986	0.046490
C88	C	0.553394	0.840901	0.403613
C89	C	0.457253	0.840900	0.479599
C90	C	0.409165	0.794377	0.471077
C91	C	0.457232	0.747844	0.386563
C92	C	0.553378	0.747841	0.310579
C93	C	0.553418	1.197986	0.310546
C94	C	0.457281	1.273972	0.386515
C95	C	0.409190	1.265453	0.471037
C96	C	0.457250	1.180942	0.479589
C97	C	0.553392	1.104958	0.403620
C98	C	1.457215	0.390746	-0.310571
C99	C	1.553382	0.314761	-0.386541
C100	C	1.601478	0.323279	-0.471063
C101	C	1.553412	0.407790	-0.479614
C102	C	1.457254	0.483774	-0.403646
C103	C	1.457199	0.483819	0.046523
C104	C	1.553359	0.407852	0.046523
C105	C	1.601446	0.323332	0.000002
C106	C	1.553379	0.314780	-0.046529
C107	C	1.457228	0.390746	-0.046533
C108	C	1.457228	0.840890	-0.310583
C109	C	1.553369	0.840905	-0.386554
C110	C	1.601458	0.794383	-0.471075
C111	C	1.553391	0.747849	-0.479623
C112	C	1.457244	0.747840	-0.403652
H113	H	0.164341	0.925985	0.131571
F114	F	0.406146	1.363906	0.377395
F115	F	0.473336	0.662779	-0.131598
H116	H	0.592537	0.878786	0.410568
F117	F	1.406105	0.573706	-0.412763
H118	H	0.592582	1.036100	-0.084449
H119	H	0.100505	1.045365	0.250934
H120	H	1.592501	0.245956	-0.379561
F121	F	0.406087	1.363912	0.095983
H122	H	0.330877	0.794386	0.532956
F123	F	1.703789	0.794399	-0.551923
F124	F	1.703819	0.242402	-0.551909
H125	H	1.418054	0.552632	0.084412
H126	H	0.592560	1.204939	0.241730
H127	H	1.592584	0.414716	-0.548441
H128	H	0.274949	1.045362	0.250937
H129	H	0.513248	0.925954	0.131564
H130	H	1.592547	0.245954	-0.084405
F131	F	1.604494	0.416972	0.096052
F132	F	1.703779	0.242489	0.000015
F133	F	0.604514	1.015027	0.412737
H134	H	1.418097	0.383769	-0.084417
F135	F	0.306865	1.346330	0.551883
F136	F	0.406161	1.171760	-0.096105
F137	F	0.744453	0.526934	-0.267411
F138	F	1.604592	0.698333	-0.569584
H139	H	1.418089	0.878774	-0.241769
H140	H	0.418128	0.878795	0.548406
F141	F	1.406042	0.381660	-0.220624
H142	H	1.592495	0.878797	-0.379577
F143	F	1.406117	0.698303	-0.412766
F144	F	0.604541	1.207104	0.096025
H145	H	0.846285	0.662740	-0.131602
F146	F	0.406054	1.171890	0.569551
F147	F	0.942952	0.526921	-0.267414
H148	H	0.330933	1.327250	-0.000077
H149	H	0.418064	0.709967	0.379638
H150	H	0.592493	0.709957	0.241773
