data_functionalizedCrystal
_audit_creation_method	'MofGen! by Chris Wilmer'
_symmetry_space_group_name_H-M	'P1'
_symmetry_Int_Tables_number	1
_symmetry_cell_setting	triclinic
loop_
_symmetry_equiv_pos_as_xyz
  x,y,z
_cell_length_a	12.759401
_cell_length_b	19.805405
_cell_length_c	12.759393
_cell_angle_alpha	89.962322
_cell_angle_beta	89.980163
_cell_angle_gamma	90.027935
loop_
_atom_site_label
_atom_site_type_symbol
_atom_site_fract_x
_atom_site_fract_y
_atom_site_fract_z
Zn1	Zn	1.606169	-0.269395	-0.593976
Zn2	Zn	2.106169	0.230605	-0.093976
Zn3	Zn	1.606028	-0.382600	-0.418277
Zn4	Zn	2.106028	0.117400	0.081723
Zn5	Zn	1.430472	-0.269434	-0.418311
Zn6	Zn	1.930472	0.230566	0.081689
Zn7	Zn	1.430424	-0.382551	-0.593915
Zn8	Zn	1.930424	0.117449	-0.093915
O9	O	1.518273	-0.325995	-0.506120
O10	O	2.018273	0.174005	-0.006120
O11	O	1.753172	-0.284417	-0.570681
O12	O	2.253172	0.215583	-0.070681
O13	O	1.582701	-0.367625	-0.271261
O14	O	2.082701	0.132375	0.228739
O15	O	1.453857	-0.174712	-0.441653
O16	O	1.953857	0.325288	0.058347
O17	O	1.753068	-0.367588	-0.441596
O18	O	2.253068	0.132412	0.058404
O19	O	1.582942	-0.174684	-0.570713
O20	O	2.082942	0.325316	-0.070713
O21	O	1.453720	-0.284482	-0.271285
O22	O	1.953720	0.215518	0.228715
O23	O	1.283444	-0.284434	-0.441594
O24	O	1.783444	0.215566	0.058406
O25	O	1.453777	-0.367504	-0.740944
O26	O	1.953777	0.132496	-0.240944
O27	O	1.283409	-0.367541	-0.570609
O28	O	1.783409	0.132459	-0.070609
O29	O	1.582896	-0.284369	-0.740989
O30	O	2.082896	0.215631	-0.240989
O31	O	1.582655	-0.477310	-0.441536
O32	O	2.082655	0.022690	0.058464
O33	O	1.453639	-0.477274	-0.570576
O34	O	1.953639	0.022726	-0.070576
C35	C	1.245306	-0.325987	-0.506099
C36	C	1.745306	0.174013	-0.006099
C37	C	1.128529	-0.326000	-0.506115
C38	C	1.628529	0.174000	-0.006115
C39	C	1.518155	-0.501851	-0.506069
C40	C	2.018155	-0.001851	-0.006069
C41	C	1.518201	-0.577083	-0.506082
C42	C	2.018201	-0.077083	-0.006082
C43	C	1.073677	-0.369339	-0.573187
C44	C	1.573677	0.130661	-0.073187
C45	C	0.963953	-0.369342	-0.573208
C46	C	1.463953	0.130658	-0.073208
C47	C	0.963943	-0.282663	-0.439075
C48	C	1.463943	0.217337	0.060925
C49	C	1.073666	-0.282658	-0.439060
C50	C	1.573666	0.217342	0.060940
C51	C	1.585444	-0.612424	-0.438962
C52	C	2.085444	-0.112424	0.061038
C53	C	1.585489	-0.683112	-0.438985
C54	C	2.085489	-0.183112	0.061015
C55	C	1.518284	-0.718459	-0.506124
C56	C	2.018284	-0.218459	-0.006124
C57	C	1.451037	-0.683113	-0.573252
C58	C	1.951037	-0.183113	-0.073252
C59	C	1.450999	-0.612426	-0.573234
C60	C	1.950999	-0.112426	-0.073234
C61	C	1.451192	-0.968186	-0.573330
C62	C	1.951192	-0.468186	-0.073330
C63	C	1.451234	-1.038878	-0.573342
C64	C	1.951234	-0.538878	-0.073342
C65	C	1.585682	-1.038872	-0.439081
C66	C	2.085682	-0.538872	0.060919
C67	C	1.585644	-0.968185	-0.439063
C68	C	2.085644	-0.468185	0.060937
C69	C	1.518402	-0.932846	-0.506194
C70	C	2.018402	-0.432846	-0.006194
C71	C	1.518355	-0.856198	-0.506170
C72	C	2.018355	-0.356198	-0.006170
C73	C	1.518324	-0.795106	-0.506144
C74	C	2.018324	-0.295106	-0.006144
C75	C	1.792307	-0.326004	-0.506141
C76	C	2.292307	0.173996	-0.006141
C77	C	1.909083	-0.326008	-0.506150
C78	C	2.409083	0.173992	-0.006150
C79	C	1.518347	-0.325927	-0.780153
C80	C	2.018347	0.174073	-0.280153
C81	C	1.518378	-0.325897	-0.896930
C82	C	2.018378	0.174103	-0.396930
C83	C	1.518421	-0.149452	-0.506194
C84	C	2.018421	0.350548	-0.006194
C85	C	1.518483	-0.074220	-0.506225
C86	C	2.018483	0.425780	-0.006225
C87	C	1.451242	-0.282597	-0.951804
C88	C	1.951242	0.217403	-0.451804
C89	C	1.451266	-0.282576	-1.061528
C90	C	1.951266	0.217424	-0.561528
C91	C	1.585572	-0.369158	-1.061494
C92	C	2.085572	0.130842	-0.561494
C93	C	1.585541	-0.369182	-0.951772
C94	C	2.085541	0.130818	-0.451772
C95	C	1.518261	-0.326014	-0.233152
C96	C	2.018261	0.173986	0.266848
C97	C	1.518433	-0.325853	-0.116376
C98	C	2.018433	0.174147	0.383624
H99	H	1.118344	-0.404629	-0.627790
H100	H	1.618344	0.095371	-0.127790
H101	H	1.640255	-0.404398	-1.106160
H102	H	2.140255	0.095602	-0.606160
F103	F	1.379800	-0.236497	-1.119925
F104	F	1.879800	0.263503	-0.619925
H105	H	1.640166	-0.583649	-0.384284
H106	H	2.140166	-0.083649	0.115716
H107	H	1.396439	-0.939418	-0.627989
H108	H	1.896439	-0.439418	-0.127989
F109	F	1.379518	-0.720733	-0.644713
F110	F	1.879518	-0.220733	-0.144713
F111	F	1.657253	-1.076489	-0.367638
F112	F	2.157253	-0.576489	0.132362
H113	H	1.396244	-0.583652	-0.627892
H114	H	1.896244	-0.083652	-0.127892
H115	H	1.396509	-1.067656	-0.628022
H116	H	1.896509	-0.567656	-0.128022
F117	F	1.656997	-0.415273	-0.893367
F118	F	2.156997	0.084727	-0.393367
H119	H	0.919260	-0.247377	-0.384480
H120	H	1.419260	0.252623	0.115520
H121	H	1.118328	-0.247361	-0.384442
H122	H	1.618328	0.252639	0.115558
F123	F	1.657062	-0.720721	-0.367549
F124	F	2.157062	-0.220721	0.132451
F125	F	0.905579	-0.415468	-0.644598
F126	F	1.405579	0.084532	-0.144598
F127	F	1.657171	-0.930571	-0.367603
F128	F	2.157171	-0.430571	0.132397
H129	H	1.396553	-0.247352	-0.907155
H130	H	1.896553	0.252648	-0.407155
