data_functionalizedCrystal
_audit_creation_method	'MofGen! by Chris Wilmer'
_symmetry_space_group_name_H-M	'P1'
_symmetry_Int_Tables_number	1
_symmetry_cell_setting	triclinic
loop_
_symmetry_equiv_pos_as_xyz
  x,y,z
_cell_length_a	10.723024
_cell_length_b	10.654550
_cell_length_c	9.130313
_cell_angle_alpha	90.004369
_cell_angle_beta	89.997687
_cell_angle_gamma	95.523600
loop_
_atom_site_label
_atom_site_type_symbol
_atom_site_fract_x
_atom_site_fract_y
_atom_site_fract_z
O1	O	1.657213	-0.176149	-0.121759
O2	O	1.294063	-0.193010	-0.121770
O3	O	1.483988	-0.001839	-0.121755
O4	O	1.467289	-0.367320	-0.121774
O5	O	1.483974	-0.001834	0.121844
O6	O	1.294050	-0.193004	0.121828
O7	O	1.657200	-0.176144	0.121840
Cu8	Cu	1.475624	-0.184574	0.144077
Cu9	Cu	1.475639	-0.184580	-0.144007
O10	O	1.467275	-0.367315	0.121825
C11	C	1.247557	-0.191780	0.000028
C12	C	1.109002	-0.188109	0.000023
C13	C	1.482755	0.044961	0.000043
C14	C	1.479086	0.184404	0.000041
C15	C	1.703706	-0.177373	0.000039
C16	C	1.842261	-0.181045	0.000034
C17	C	1.917228	-0.074075	0.000037
C18	C	2.060432	-0.077867	0.000031
C19	C	1.468508	-0.414115	0.000023
C20	C	1.472176	-0.553558	0.000016
N21	N	1.475622	-0.184568	0.346699
C22	C	1.590911	0.263907	0.000044
C23	C	1.587457	0.394927	0.000026
C24	C	1.360343	0.366929	0.000008
C25	C	1.363799	0.235912	0.000016
N26	N	1.475651	-0.184576	-0.346630
C27	C	1.559749	-0.099954	0.423358
C28	C	1.559761	-0.099954	0.576695
C29	C	1.391515	-0.269194	0.576701
C30	C	1.391498	-0.269187	0.423367
H31	H	1.875392	0.020312	0.000067
H32	H	1.628246	-0.031050	0.360939
H33	H	1.678516	0.459653	0.000026
H34	H	1.628263	-0.031052	0.639106
H35	H	2.124851	0.013707	0.000025
Cl36	Cl	1.285768	-0.375572	0.673089
Cl37	Cl	1.285724	-0.375562	0.326986
H38	H	1.272732	0.171177	0.000009
Cl39	Cl	2.009558	-0.329506	0.000007
H40	H	1.684785	0.221974	0.000062
H41	H	1.884097	-0.275432	0.000035
H42	H	1.266480	0.408883	-0.000010
