data_functionalizedCrystal
_audit_creation_method	'MofGen! by Chris Wilmer'
_symmetry_space_group_name_H-M	'P1'
_symmetry_Int_Tables_number	1
_symmetry_cell_setting	triclinic
loop_
_symmetry_equiv_pos_as_xyz
  x,y,z
_cell_length_a	14.853566
_cell_length_b	14.853569
_cell_length_c	13.930277
_cell_angle_alpha	90.002857
_cell_angle_beta	89.998044
_cell_angle_gamma	96.365010
loop_
_atom_site_label
_atom_site_type_symbol
_atom_site_fract_x
_atom_site_fract_y
_atom_site_fract_z
O1	O	1.196367	-0.117695	-0.079770
O2	O	1.696367	0.382305	0.420230
O3	O	0.933907	-0.131717	-0.079786
O4	O	1.433907	0.368283	0.420214
O5	O	1.072147	0.006524	-0.079768
O6	O	1.572147	0.506524	0.420232
O7	O	1.058127	-0.255936	-0.079788
O8	O	1.558127	0.244064	0.420212
O9	O	1.072133	0.006520	0.079893
O10	O	1.572133	0.506520	0.579893
O11	O	0.933894	-0.131721	0.079876
O12	O	1.433894	0.368279	0.579876
O13	O	1.196353	-0.117698	0.079892
O14	O	1.696353	0.382302	0.579892
Zn15	Zn	1.065121	-0.124710	0.105234
Zn16	Zn	1.565121	0.375290	0.605234
Zn17	Zn	1.065139	-0.124705	-0.105128
Zn18	Zn	1.565139	0.375295	0.394872
O19	O	1.058114	-0.255939	0.079874
O20	O	1.558114	0.244061	0.579874
C21	C	0.900312	-0.131084	0.000043
C22	C	1.400312	0.368916	0.500043
C23	C	0.800228	-0.129181	0.000037
C24	C	1.300228	0.370819	0.500037
C25	C	0.377051	-0.121128	-0.086977
C26	C	0.877051	0.378872	0.413023
C27	C	0.377057	-0.121133	0.087092
C28	C	0.877057	0.378867	0.587092
C29	C	0.471091	-0.122920	0.087089
C30	C	0.971091	0.377080	0.587089
C31	C	0.518109	-0.123813	0.000052
C32	C	1.018109	0.376187	0.500052
C33	C	0.471093	-0.122918	-0.086983
C34	C	0.971093	0.377082	0.413017
C35	C	0.518113	-0.123824	0.174122
C36	C	1.018113	0.376176	0.674122
C37	C	0.612153	-0.125612	0.174122
C38	C	1.112153	0.374388	0.674122
C39	C	0.659173	-0.126499	0.087084
C40	C	1.159173	0.373501	0.587084
C41	C	0.612152	-0.125603	0.000046
C42	C	1.112152	0.374397	0.500046
C43	C	0.659170	-0.126496	-0.086992
C44	C	1.159170	0.373504	0.413008
C45	C	0.612150	-0.125593	-0.174031
C46	C	1.112150	0.374407	0.325969
C47	C	0.518114	-0.123804	-0.174022
C48	C	1.018114	0.376196	0.325978
C49	C	0.753210	-0.128288	0.087075
C50	C	1.253210	0.371712	0.587075
C51	C	0.753212	-0.128286	-0.086998
C52	C	1.253212	0.371714	0.413002
C53	C	1.071505	0.040111	0.000063
C54	C	1.571505	0.540111	0.500063
C55	C	1.069600	0.140194	0.000064
C56	C	1.569600	0.640194	0.500064
C57	C	1.229949	-0.118332	0.000061
C58	C	1.729949	0.381668	0.500061
C59	C	1.330033	-0.120235	0.000060
C60	C	1.830033	0.379765	0.500060
N61	N	1.065116	-0.124713	0.248800
N62	N	1.565116	0.375287	0.748800
C63	C	1.058756	-0.289526	0.000041
C64	C	1.558756	0.210474	0.500041
C65	C	1.060660	-0.389610	0.000034
C66	C	1.560660	0.110390	0.500034
C67	C	0.986590	0.176570	0.000060
C68	C	1.486590	0.676570	0.500060
C69	C	1.150822	0.197861	0.000060
C70	C	1.650822	0.697861	0.500060
C71	C	1.149036	0.291895	0.000056
C72	C	1.649036	0.791895	0.500056
C73	C	1.066025	0.328271	0.000052
C74	C	1.566025	0.828271	0.500052
C75	C	0.984800	0.270613	0.000053
C76	C	1.484800	0.770613	0.500053
C77	C	1.230259	0.349560	0.000045
C78	C	1.730259	0.849560	0.500045
C79	C	1.228475	0.443600	0.000040
C80	C	1.728475	0.943600	0.500040
C81	C	1.145463	0.479978	0.000043
C82	C	1.645463	0.979978	0.500043
C83	C	1.064236	0.422313	0.000045
C84	C	1.564236	0.922313	0.500045
C85	C	0.981225	0.458690	0.000042
C86	C	1.481225	0.958690	0.500042
C87	C	0.899996	0.401027	0.000050
C88	C	1.399996	0.901027	0.500050
C89	C	0.901788	0.306991	0.000056
C90	C	1.401788	0.806991	0.500056
C91	C	1.143671	0.574014	0.000037
C92	C	1.643671	1.074014	0.500037
C93	C	0.979436	0.552732	0.000035
C94	C	1.479436	1.052732	0.500035
N95	N	1.065152	-0.124695	-0.248694
N96	N	1.565152	0.375305	0.251306
C97	C	1.003895	-0.185908	0.299055
C98	C	1.503895	0.314092	0.799055
C99	C	1.126342	-0.063515	0.299049
C100	C	1.626342	0.436485	0.799049
C101	C	1.126352	-0.063512	0.399545
C102	C	1.626352	0.436488	0.899545
C103	C	1.065131	-0.124706	0.449800
C104	C	1.565131	0.375294	0.949800
C105	C	1.003901	-0.185904	0.399560
C106	C	1.503901	0.314096	0.899560
C107	C	1.187575	-0.002309	0.449793
C108	C	1.687575	0.497691	0.949793
C109	C	1.187586	-0.002302	0.550295
C110	C	1.687586	0.497698	1.050295
C111	C	1.126369	-0.063501	0.600552
C112	C	1.626369	0.436499	1.100552
C113	C	1.065137	-0.124702	0.550305
C114	C	1.565137	0.375298	1.050305
C115	C	1.003916	-0.185897	0.600561
C116	C	1.503916	0.314103	1.100561
C117	C	0.942687	-0.247103	0.550316
C118	C	1.442687	0.252897	1.050316
C119	C	0.942683	-0.247104	0.449817
C120	C	1.442683	0.252896	0.949817
C121	C	1.126373	-0.063501	0.701051
C122	C	1.626373	0.436499	1.201051
C123	C	1.003922	-0.185893	0.701066
C124	C	1.503922	0.314107	1.201066
H125	H	0.791488	-0.129031	0.157940
H126	H	1.291488	0.370969	0.657940
C127	C	0.875327	-0.314394	0.605599
C128	C	1.375327	0.185606	1.105599
H129	H	0.838850	-0.350838	0.561288
H130	H	1.338850	0.149162	1.061288
H131	H	0.907788	-0.351980	0.644818
H132	H	1.407788	0.148020	1.144818
H133	H	0.837766	-0.281865	0.644791
H134	H	1.337766	0.218135	1.144791
H135	H	0.954071	-0.235729	0.741978
H136	H	1.454071	0.264271	1.241978
H137	H	1.209806	0.620959	0.000021
H138	H	1.709806	1.120959	0.500021
H139	H	1.176182	-0.013688	0.258128
H140	H	1.676182	0.486312	0.758128
C141	C	0.325356	-0.120032	0.182825
C142	C	0.825356	0.379968	0.682825
H143	H	0.262622	-0.118797	0.170363
H144	H	0.762622	0.381203	0.670363
H145	H	0.333920	-0.172817	0.218667
H146	H	0.833920	0.327183	0.718667
H147	H	0.347624	-0.067750	0.218503
H148	H	0.847624	0.432250	0.718503
H149	H	0.479822	-0.123069	-0.244884
H150	H	0.979822	0.376931	0.255116
C151	C	0.812445	0.243566	0.000054
C152	C	1.312445	0.743566	0.500054
H153	H	0.762749	0.278696	0.000058
H154	H	1.262749	0.778696	0.500058
H155	H	0.809736	0.206438	-0.055624
H156	H	1.309736	0.706438	0.444376
H157	H	0.809727	0.206443	0.055738
H158	H	1.309727	0.706443	0.555738
H159	H	0.479823	-0.123103	0.244983
H160	H	0.979823	0.376897	0.744983
H161	H	0.791488	-0.129010	-0.157875
H162	H	1.291488	0.370990	0.342125
H163	H	0.920455	0.129618	0.000071
H164	H	1.420455	0.629618	0.500071
C165	C	0.663876	-0.126576	-0.269766
C166	C	1.163876	0.373424	0.230234
H167	H	0.726614	-0.127769	-0.257298
H168	H	1.226614	0.372231	0.242702
H169	H	0.641656	-0.178810	-0.305536
H170	H	1.141656	0.321190	0.194464
H171	H	0.655283	-0.073741	-0.305520
H172	H	1.155283	0.426259	0.194480
H173	H	0.650428	-0.126345	0.244995
H174	H	1.150428	0.373655	0.744995
H175	H	0.911837	0.582342	0.000041
H176	H	1.411837	1.082342	0.500041
C177	C	0.875329	-0.314411	0.394547
C178	C	1.375329	0.185589	0.894547
H179	H	0.884086	-0.305638	0.327497
H180	H	1.384086	0.194362	0.827497
H181	H	0.885187	-0.374601	0.411007
H182	H	1.385187	0.125399	0.911007
H183	H	0.815152	-0.304500	0.411029
H184	H	1.315152	0.195500	0.911029
H185	H	0.832409	0.430657	0.000042
H186	H	1.332409	0.930657	0.500042
H187	H	1.218406	0.168237	0.000082
H188	H	1.718406	0.668237	0.500082
H189	H	0.338764	-0.120390	-0.157842
H190	H	0.838764	0.379610	0.342158
C191	C	1.321561	0.309545	0.000045
C192	C	1.821561	0.809545	0.500045
H193	H	1.310991	0.245282	0.000061
H194	H	1.810991	0.745282	0.500061
H195	H	1.355009	0.329319	-0.055636
H196	H	1.855009	0.829319	0.444364
H197	H	1.355009	0.329336	0.055726
H198	H	1.855009	0.829336	0.555726
H199	H	1.294617	0.490542	0.000034
H200	H	1.794617	0.990542	0.500034
C201	C	0.936546	-0.253227	0.243792
C202	C	1.436546	0.246773	0.743792
H203	H	0.945304	-0.244465	0.176740
H204	H	1.445304	0.255535	0.676740
H205	H	0.946411	-0.313412	0.260265
H206	H	1.446411	0.186588	0.760265
H207	H	0.876367	-0.243320	0.260269
H208	H	1.376367	0.256680	0.760269
H209	H	1.176220	-0.013664	0.741955
H210	H	1.676220	0.486336	1.241955
C211	C	1.254892	0.065018	0.394513
C212	C	1.754892	0.565018	0.894513
H213	H	1.246119	0.056246	0.327463
H214	H	1.746119	0.556246	0.827463
H215	H	1.245007	0.125198	0.410990
H216	H	1.745007	0.625198	0.910990
H217	H	1.315082	0.055136	0.410967
H218	H	1.815082	0.555136	0.910967
H219	H	1.237442	0.047534	0.591198
H220	H	1.737442	0.547534	1.091198
