data_functionalizedCrystal
_audit_creation_method	'MofGen! by Chris Wilmer'
_symmetry_space_group_name_H-M	'P1'
_symmetry_Int_Tables_number	1
_symmetry_cell_setting	triclinic
loop_
_symmetry_equiv_pos_as_xyz
  x,y,z
_cell_length_a	19.077236
_cell_length_b	10.686685
_cell_length_c	10.685314
_cell_angle_alpha	99.026182
_cell_angle_beta	91.876074
_cell_angle_gamma	88.105664
loop_
_atom_site_label
_atom_site_type_symbol
_atom_site_fract_x
_atom_site_fract_y
_atom_site_fract_z
Zn1	Zn	1.061623	-0.489324	-0.827670
Zn2	Zn	1.561623	0.010676	-0.327670
Zn3	Zn	1.078228	-0.684224	-0.632847
Zn4	Zn	1.578228	-0.184224	-0.132847
Zn5	Zn	0.952923	-0.480385	-0.608159
Zn6	Zn	1.452923	0.019615	-0.108159
Zn7	Zn	0.952922	-0.708745	-0.836626
Zn8	Zn	1.452922	-0.208745	-0.336626
O9	O	1.011424	-0.590670	-0.726325
O10	O	1.511424	-0.090670	-0.226325
O11	O	1.161758	-0.508657	-0.808410
O12	O	1.661758	-0.008657	-0.308410
O13	O	1.068556	-0.643182	-0.452423
O14	O	1.568556	-0.143182	0.047577
O15	O	0.960393	-0.304435	-0.623197
O16	O	1.460393	0.195565	-0.123197
O17	O	1.173958	-0.651849	-0.665274
O18	O	1.673958	-0.151849	-0.165274
O19	O	1.040254	-0.311002	-0.784471
O20	O	1.540254	0.188998	-0.284471
O21	O	0.976495	-0.493422	-0.434285
O22	O	1.476495	0.006578	0.065715
O23	O	0.854991	-0.517198	-0.631881
O24	O	1.354991	-0.017198	-0.131881
O25	O	0.960392	-0.693641	-1.012587
O26	O	1.460392	-0.193641	-0.512587
O27	O	0.854990	-0.684974	-0.799735
O28	O	1.354990	-0.184974	-0.299735
O29	O	1.040253	-0.532433	-1.006007
O30	O	1.540253	-0.032433	-0.506007
O31	O	1.068555	-0.864613	-0.673959
O32	O	1.568555	-0.364613	-0.173959
O33	O	0.976494	-0.882628	-0.823674
O34	O	1.476494	-0.382628	-0.323674
C35	C	0.829598	-0.602778	-0.714102
C36	C	1.329598	-0.102778	-0.214102
C37	C	0.751812	-0.607991	-0.708905
C38	C	1.251812	-0.107991	-0.208905
C39	C	0.708917	-0.536025	-0.781121
C40	C	1.208917	-0.036025	-0.281121
C41	C	0.635829	-0.540916	-0.776226
C42	C	1.135829	-0.040916	-0.276226
C43	C	0.605638	-0.617780	-0.699123
C44	C	1.105638	-0.117780	-0.199123
C45	C	0.648538	-0.689748	-0.626899
C46	C	1.148538	-0.189748	-0.126899
C47	C	0.721625	-0.684850	-0.631787
C48	C	1.221625	-0.184850	-0.131787
C49	C	0.387734	-0.640405	-0.676491
C50	C	0.887734	-0.140405	-0.176491
C51	C	0.314641	-0.645301	-0.671611
C52	C	0.814641	-0.145301	-0.171611
C53	C	0.301937	-0.496466	-0.820938
C54	C	0.801937	0.003534	-0.320938
C55	C	0.375026	-0.491580	-0.825825
C56	C	0.875026	0.008420	-0.325825
C57	C	0.417920	-0.563543	-0.753596
C58	C	0.917920	-0.063543	-0.253596
N59	N	0.530930	-0.622785	-0.694121
N60	N	1.030930	-0.122785	-0.194121
N61	N	0.492626	-0.558531	-0.758591
N62	N	0.992626	-0.058531	-0.258591
C63	C	1.024344	-0.919551	-0.752496
C64	C	1.524344	-0.419551	-0.252496
C65	C	1.029934	-1.060247	-0.763739
C66	C	1.529934	-0.560247	-0.263739
C67	C	1.193960	-0.578515	-0.738597
C68	C	1.693960	-0.078515	-0.238597
C69	C	1.271746	-0.573335	-0.743827
C70	C	1.771746	-0.073335	-0.243827
C71	C	0.998470	-0.616770	-1.056514
C72	C	1.498470	-0.116770	-0.556514
C73	C	0.992950	-0.627892	-1.197220
C74	C	1.492950	-0.127892	-0.697220
C75	C	0.998472	-0.260505	-0.700081
C76	C	1.498472	0.239495	-0.200081
C77	C	0.992952	-0.119808	-0.688897
C78	C	1.492952	0.380192	-0.188897
C79	C	1.024364	-0.564577	-0.397417
C80	C	1.524364	-0.064577	0.102583
C81	C	1.030006	-0.553089	-0.256692
C82	C	1.530006	-0.053089	0.243308
H83	H	0.600906	-0.482317	-0.835035
H84	H	1.100906	0.017683	-0.335035
H85	H	1.065950	-0.480522	-1.199955
H86	H	1.565950	0.019478	-0.699955
H87	H	0.756550	-0.743451	-0.572981
H88	H	1.256550	-0.243451	-0.072981
H89	H	0.957017	-1.063165	-0.616222
H90	H	1.457017	-0.563165	-0.116222
H91	H	1.065877	-1.116897	-0.836409
H92	H	1.565877	-0.616897	-0.336409
H93	H	0.267005	-0.437877	-0.879740
H94	H	0.767005	0.062123	-0.379740
H95	H	0.290063	-0.707899	-0.608824
H96	H	0.790063	-0.207899	-0.108824
N97	N	0.741478	-0.453130	-0.864292
N98	N	1.241478	0.046870	-0.364292
H99	H	0.703211	-0.408282	-0.909295
H100	H	1.203211	0.091718	-0.409295
H101	H	0.771508	-0.388372	-0.810220
H102	H	1.271508	0.111628	-0.310220
H103	H	0.422650	-0.699003	-0.617678
H104	H	0.922650	-0.199003	-0.117678
H105	H	0.399602	-0.428994	-0.888616
H106	H	0.899602	0.071006	-0.388616
N107	N	0.615979	-0.772640	-0.543721
N108	N	1.115979	-0.272640	-0.043721
H109	H	0.563170	-0.764825	-0.551582
H110	H	1.063170	-0.264825	-0.051582
H111	H	0.631548	-0.863765	-0.571320
H112	H	1.131548	-0.363765	-0.071320
N113	N	0.945324	-0.723988	-1.272350
N114	N	1.445324	-0.223988	-0.772350
H115	H	0.947997	-0.718579	-1.365587
H116	H	1.447997	-0.218579	-0.865587
H117	H	0.960649	-0.811871	-1.257225
H118	H	1.460649	-0.311871	-0.757225
