data_functionalizedCrystal
_audit_creation_method	'MofGen! by Chris Wilmer'
_symmetry_space_group_name_H-M	'P1'
_symmetry_Int_Tables_number	1
_symmetry_cell_setting	triclinic
loop_
_symmetry_equiv_pos_as_xyz
  x,y,z
_cell_length_a	13.897449
_cell_length_b	13.897448
_cell_length_c	13.897441
_cell_angle_alpha	89.969401
_cell_angle_beta	89.979267
_cell_angle_gamma	90.018972
loop_
_atom_site_label
_atom_site_type_symbol
_atom_site_fract_x
_atom_site_fract_y
_atom_site_fract_z
Zn1	Zn	1.474703	-0.383951	-0.545381
Zn2	Zn	1.724703	-0.133951	-0.295381
Zn3	Zn	1.974703	0.116049	-0.045381
Zn4	Zn	2.224703	0.366049	0.204619
Zn5	Zn	1.474597	-0.545273	-0.384083
Zn6	Zn	1.724597	-0.295273	-0.134083
Zn7	Zn	1.974597	-0.045273	0.115917
Zn8	Zn	2.224597	0.204727	0.365917
Zn9	Zn	1.313392	-0.383997	-0.384100
Zn10	Zn	1.563392	-0.133997	-0.134100
Zn11	Zn	1.813392	0.116003	0.115900
Zn12	Zn	2.063392	0.366003	0.365900
Zn13	Zn	1.313373	-0.545210	-0.545335
Zn14	Zn	1.563373	-0.295210	-0.295335
Zn15	Zn	1.813373	-0.045210	-0.045335
Zn16	Zn	2.063373	0.204790	0.204665
O17	O	1.394016	-0.464608	-0.464725
O18	O	1.644016	-0.214608	-0.214725
O19	O	1.894016	0.035392	0.035275
O20	O	2.144016	0.285392	0.285275
O21	O	1.609670	-0.405358	-0.523997
O22	O	1.859670	-0.155358	-0.273997
O23	O	2.109670	0.094642	-0.023997
O24	O	2.359670	0.344642	0.226003
O25	O	1.453176	-0.523925	-0.249103
O26	O	1.703176	-0.273925	0.000897
O27	O	1.953176	-0.023925	0.250897
O28	O	2.203176	0.226075	0.500897
O29	O	1.334842	-0.249009	-0.405520
O30	O	1.584842	0.000991	-0.155520
O31	O	1.834842	0.250991	0.094480
O32	O	2.084842	0.500991	0.344480
O33	O	1.609592	-0.523881	-0.405491
O34	O	1.859592	-0.273881	-0.155491
O35	O	2.109592	-0.023881	0.094509
O36	O	2.359592	0.226119	0.344509
O37	O	1.453356	-0.248976	-0.524013
O38	O	1.703356	0.001024	-0.274013
O39	O	1.953356	0.251024	-0.024013
O40	O	2.203356	0.501024	0.225987
O41	O	1.334739	-0.405436	-0.249116
O42	O	1.584739	-0.155436	0.000884
O43	O	1.834739	0.094564	0.250884
O44	O	2.084739	0.344564	0.500884
O45	O	1.178408	-0.405375	-0.405476
O46	O	1.428408	-0.155375	-0.155476
O47	O	1.678408	0.094625	0.094524
O48	O	1.928408	0.344625	0.344524
O49	O	1.334811	-0.523773	-0.680323
O50	O	1.584811	-0.273773	-0.430323
O51	O	1.834811	-0.023773	-0.180323
O52	O	2.084811	0.226227	0.069677
O53	O	1.178394	-0.523817	-0.523935
O54	O	1.428394	-0.273817	-0.273935
O55	O	1.678394	-0.023817	-0.023935
O56	O	1.928394	0.226183	0.226065
O57	O	1.453339	-0.405297	-0.680357
O58	O	1.703339	-0.155297	-0.430357
O59	O	1.953339	0.094703	-0.180357
O60	O	2.203339	0.344703	0.069643
O61	O	1.453158	-0.680246	-0.405447
O62	O	1.703158	-0.430246	-0.155447
O63	O	1.953158	-0.180246	0.094553
O64	O	2.203158	0.069754	0.344553
O65	O	1.334708	-0.680200	-0.523918
O66	O	1.584708	-0.430200	-0.273918
O67	O	1.834708	-0.180200	-0.023918
O68	O	2.084708	0.069800	0.226082
C69	C	1.143402	-0.464595	-0.464703
C70	C	1.393402	-0.214595	-0.214703
C71	C	1.643402	0.035405	0.035297
C72	C	1.893402	0.285405	0.285297
C73	C	1.036188	-0.464613	-0.464716
C74	C	1.286188	-0.214613	-0.214716
C75	C	1.536188	0.035387	0.035284
C76	C	1.786188	0.285387	0.285284
C77	C	0.839893	-0.464616	-0.464741
C78	C	1.089893	-0.214616	-0.214741
C79	C	1.339893	0.035384	0.035259
C80	C	1.589893	0.285384	0.285259
C81	C	0.949125	-0.464611	-0.464725
C82	C	1.199125	-0.214611	-0.214725
C83	C	1.449125	0.035389	0.035275
C84	C	1.699125	0.285389	0.285275
C85	C	1.393946	-0.715222	-0.464697
C86	C	1.643946	-0.465222	-0.214697
C87	C	1.893946	-0.215222	0.035303
C88	C	2.143946	0.034778	0.285303
C89	C	1.394004	-0.822436	-0.464717
C90	C	1.644004	-0.572436	-0.214717
C91	C	1.894004	-0.322436	0.035283
C92	C	2.144004	-0.072436	0.285283
C93	C	1.394105	-1.018731	-0.464778
C94	C	1.644105	-0.768731	-0.214778
C95	C	1.894105	-0.518731	0.035222
C96	C	2.144105	-0.268731	0.285222
C97	C	1.394046	-0.909499	-0.464747
C98	C	1.644046	-0.659499	-0.214747
C99	C	1.894046	-0.409499	0.035253
C100	C	2.144046	-0.159499	0.285253
C101	C	1.645609	-0.464621	-0.464747
C102	C	1.895609	-0.214621	-0.214747
C103	C	2.145609	0.035379	0.035253
C104	C	2.395609	0.285379	0.285253
C105	C	1.752823	-0.464627	-0.464757
C106	C	2.002823	-0.214627	-0.214757
C107	C	2.252823	0.035373	0.035243
C108	C	2.502823	0.285373	0.285243
C109	C	1.394085	-0.464522	-0.716318
C110	C	1.644085	-0.214522	-0.466318
C111	C	1.894085	0.035478	-0.216318
C112	C	2.144085	0.285478	0.033682
C113	C	1.394114	-0.464486	-0.823532
C114	C	1.644114	-0.214486	-0.573532
C115	C	1.894114	0.035514	-0.323532
C116	C	2.144114	0.285514	-0.073532
C117	C	1.394113	-0.213015	-0.464774
C118	C	1.644113	0.036985	-0.214774
C119	C	1.894113	0.286985	0.035226
C120	C	2.144113	0.536985	0.285226
C121	C	1.394154	-0.105801	-0.464795
C122	C	1.644154	0.144199	-0.214795
C123	C	1.894154	0.394199	0.035205
C124	C	2.144154	0.644199	0.285205
C125	C	1.394140	-0.464421	-1.019827
C126	C	1.644140	-0.214421	-0.769827
C127	C	1.894140	0.035579	-0.519827
C128	C	2.144140	0.285579	-0.269827
C129	C	1.394122	-0.464460	-0.910594
C130	C	1.644122	-0.214460	-0.660594
C131	C	1.894122	0.035540	-0.410594
C132	C	2.144122	0.285540	-0.160594
C133	C	1.394003	-0.464623	-0.214110
C134	C	1.644003	-0.214623	0.035890
C135	C	1.894003	0.035377	0.285890
C136	C	2.144003	0.285377	0.535890
C137	C	1.394161	-0.464388	-0.106897
C138	C	1.644161	-0.214388	0.143103
C139	C	1.894161	0.035612	0.393103
C140	C	2.144161	0.285612	0.643103
