data_functionalizedCrystal
_audit_creation_method	'MofGen! by Chris Wilmer'
_symmetry_space_group_name_H-M	'P1'
_symmetry_Int_Tables_number	1
_symmetry_cell_setting	triclinic
loop_
_symmetry_equiv_pos_as_xyz
  x,y,z
_cell_length_a	14.971506
_cell_length_b	27.732048
_cell_length_c	14.048226
_cell_angle_alpha	89.988614
_cell_angle_beta	89.993237
_cell_angle_gamma	83.132521
loop_
_atom_site_label
_atom_site_type_symbol
_atom_site_fract_x
_atom_site_fract_y
_atom_site_fract_z
O1	O	1.185940	0.063037	-0.079178
O2	O	1.685940	0.563037	0.420822
O3	O	0.925423	0.070570	-0.079180
O4	O	1.425423	0.570570	0.420820
O5	O	1.063772	-0.003555	-0.079161
O6	O	1.563772	0.496445	0.420839
O7	O	1.047590	0.137163	-0.079197
O8	O	1.547590	0.637163	0.420803
O9	O	1.063756	-0.003560	0.079161
O10	O	1.563756	0.496440	0.579161
O11	O	0.925407	0.070566	0.079142
O12	O	1.425407	0.570566	0.579142
O13	O	1.185923	0.063033	0.079143
O14	O	1.685923	0.563033	0.579143
Zn15	Zn	1.055662	0.066799	0.104279
Zn16	Zn	1.555662	0.566799	0.604279
Zn17	Zn	1.055684	0.066805	-0.104316
Zn18	Zn	1.555684	0.566805	0.395684
O19	O	1.047574	0.137159	0.079124
O20	O	1.547574	0.637159	0.579124
C21	C	0.892096	0.070230	-0.000019
C22	C	1.392096	0.570230	0.499981
C23	C	0.792816	0.069215	-0.000019
C24	C	1.292816	0.569215	0.499981
C25	C	0.353906	0.108889	-0.000039
C26	C	0.853906	0.608889	0.499961
C27	C	0.447191	0.109839	-0.000043
C28	C	0.947191	0.609839	0.499957
C29	C	0.505100	0.066288	-0.000028
C30	C	1.005100	0.566288	0.499972
C31	C	0.469718	0.021783	-0.000018
C32	C	0.969718	0.521783	0.499982
C33	C	0.376435	0.020834	-0.000020
C34	C	0.876435	0.520834	0.499980
C35	C	0.664150	0.023765	-0.000010
C36	C	1.164150	0.523765	0.499990
C37	C	0.757440	0.024714	-0.000006
C38	C	1.257440	0.524714	0.499994
C39	C	0.734907	0.112770	-0.000033
C40	C	1.234907	0.612770	0.499967
C41	C	0.641623	0.111821	-0.000036
C42	C	1.141623	0.611821	0.499964
C43	C	0.606248	0.067316	-0.000024
C44	C	1.106248	0.567316	0.499976
C45	C	1.063425	-0.021566	0.000003
C46	C	1.563425	0.478434	0.500003
C47	C	1.062402	-0.075226	0.000010
C48	C	1.562402	0.424774	0.500010
C49	C	1.137718	-0.413690	-0.000038
C50	C	1.637718	0.086310	0.499962
C51	C	1.133923	-0.615367	-0.000051
C52	C	1.633923	-0.115367	0.499949
O53	O	1.202794	-0.646302	-0.000092
O54	O	1.702794	-0.146302	0.499908
N55	N	1.051887	-0.634873	-0.000051
N56	N	1.551887	-0.134873	0.499949
C57	C	0.970795	-0.603956	-0.000053
C58	C	1.470795	-0.103956	0.499947
O59	O	0.900931	-0.625174	-0.000063
O60	O	1.400931	-0.125174	0.499937
C61	C	0.974591	-0.402279	-0.000047
C62	C	1.474591	0.097721	0.499953
C63	C	1.056632	-0.382777	-0.000038
C64	C	1.556632	0.117223	0.499962
C65	C	1.219752	-0.394187	-0.000030
C66	C	1.719752	0.105813	0.499970
C67	C	1.220700	-0.343771	-0.000021
C68	C	1.720700	0.156229	0.499979
C69	C	1.139614	-0.312857	-0.000021
C70	C	1.639614	0.187143	0.499979
C71	C	1.057579	-0.332360	-0.000029
C72	C	1.557579	0.167640	0.499971
C73	C	0.893499	-0.371363	-0.000056
C74	C	1.393499	0.128637	0.499944
C75	C	0.894456	-0.320941	-0.000057
C76	C	1.394456	0.179059	0.499943
C77	C	0.976496	-0.301439	-0.000048
C78	C	1.476496	0.198561	0.499952
C79	C	0.977441	-0.251031	-0.000020
C80	C	1.477441	0.248969	0.499980
N81	N	1.059477	-0.231525	-0.000021
N82	N	1.559477	0.268475	0.499979
C83	C	1.140563	-0.262439	-0.000021
C84	C	1.640563	0.237561	0.499979
C85	C	0.968808	-0.709839	-0.000055
C86	C	1.468808	-0.209839	0.499945
C87	C	0.967858	-0.760258	-0.000055
C88	C	1.467858	-0.260258	0.499945
C89	C	1.130987	-0.771666	-0.000054
C90	C	1.630987	-0.271666	0.499946
C91	C	1.131935	-0.721246	-0.000048
C92	C	1.631935	-0.221246	0.499952
C93	C	1.050843	-0.690333	-0.000055
C94	C	1.550843	-0.190333	0.499945
C95	C	1.142547	-0.156560	-0.000002
C96	C	1.642547	0.343440	0.499998
C97	C	1.143488	-0.106139	0.000010
C98	C	1.643488	0.393861	0.500010
C99	C	0.980360	-0.094735	0.000005
C100	C	1.480360	0.405265	0.500005
C101	C	0.979419	-0.145152	-0.000003
C102	C	1.479419	0.354848	0.499997
C103	C	1.060520	-0.176064	-0.000009
C104	C	1.560520	0.323936	0.499991
O105	O	0.908607	-0.220067	0.000010
O106	O	1.408607	0.279933	0.500010
O107	O	1.210416	-0.241211	-0.000032
O108	O	1.710416	0.258789	0.499968
C109	C	1.136770	-0.464106	-0.000046
C110	C	1.636770	0.035894	0.499954
C111	C	1.054736	-0.483610	-0.000055
C112	C	1.554736	0.016390	0.499945
C113	C	0.973650	-0.452696	-0.000054
C114	C	1.473650	0.047304	0.499946
C115	C	1.053787	-0.534028	-0.000055
C116	C	1.553787	-0.034028	0.499945
C117	C	1.134873	-0.564942	-0.000055
C118	C	1.634873	-0.064942	0.499945
C119	C	1.216908	-0.545436	-0.000055
C120	C	1.716908	-0.045436	0.499945
C121	C	1.217856	-0.495020	-0.000047
C122	C	1.717856	0.004980	0.499953
C123	C	0.891614	-0.472202	-0.000054
C124	C	1.391614	0.027798	0.499946
C125	C	0.890673	-0.522619	-0.000061
C126	C	1.390673	-0.022619	0.499939
C127	C	0.971759	-0.553532	-0.000062
C128	C	1.471759	-0.053532	0.499938
C129	C	1.219251	0.063374	-0.000019
C130	C	1.719251	0.563374	0.499981
C131	C	1.318531	0.064389	-0.000026
C132	C	1.818531	0.564389	0.499974
C133	C	1.047922	0.155169	-0.000041
C134	C	1.547922	0.655169	0.499959
C135	C	1.048945	0.208829	-0.000055
C136	C	1.548945	0.708829	0.499945
N137	N	1.055654	0.066795	0.246640
N138	N	1.555654	0.566795	0.746640
N139	N	1.055699	0.066805	-0.246676
N140	N	1.555699	0.566805	0.253324
C141	C	1.116934	0.033985	0.296467
C142	C	1.616934	0.533985	0.796467
C143	C	1.116940	0.033985	0.396124
C144	C	1.616940	0.533985	0.896124
C145	C	1.055670	0.066797	0.445954
C146	C	1.555670	0.566797	0.945954
C147	C	0.994383	0.099608	0.396120
C148	C	1.494383	0.599608	0.896120
C149	C	0.994374	0.099605	0.296464
C150	C	1.494374	0.599605	0.796464
C151	C	0.994409	0.099611	0.603834
C152	C	1.494409	0.599611	1.103834
C153	C	0.994419	0.099614	0.703497
C154	C	1.494419	0.599614	1.203497
C155	C	1.116976	0.033991	0.703494
C156	C	1.616976	0.533991	1.203494
C157	C	1.116966	0.033989	0.603838
C158	C	1.616966	0.533989	1.103838
C159	C	1.055680	0.066800	0.554012
C160	C	1.555680	0.566800	1.054012
H161	H	0.475989	0.146076	-0.000063
H162	H	0.975989	0.646076	0.499937
Br163	Br	0.616142	-0.036635	0.000011
Br164	Br	1.116142	0.463365	0.500011
H165	H	0.944526	0.126332	0.744063
H166	H	1.444526	0.626332	1.244063
Br167	Br	0.856513	-0.786719	-0.000045
Br168	Br	1.356513	-0.286719	0.499955
Br169	Br	0.275325	0.167999	-0.000049
Br170	Br	0.775325	0.667999	0.499951
Br171	Br	1.329813	-0.436132	-0.000031
Br172	Br	1.829813	0.063868	0.499969
Br173	Br	0.548307	-0.037323	-0.000002
Br174	Br	1.048307	0.462677	0.499998
Br175	Br	0.563033	0.170927	-0.000049
Br176	Br	1.063033	0.670927	0.499951
H177	H	0.763713	0.149007	-0.000042
H178	H	1.263713	0.649007	0.499958
Br179	Br	0.784395	-0.278991	-0.000072
Br180	Br	1.284395	0.221009	0.499928
H181	H	0.804587	-0.010750	-0.000001
H182	H	1.304587	0.489250	0.499999
H183	H	0.902769	-0.684673	-0.000061
H184	H	1.402769	-0.184673	0.499939
H185	H	0.347634	-0.015403	-0.000011
H186	H	0.847634	0.484597	0.499989
Br187	Br	0.868077	-0.171621	0.000007
Br188	Br	1.368077	0.328379	0.500007
Br189	Br	1.200098	-0.010544	0.228851
Br190	Br	1.700098	0.489456	0.728851
H191	H	0.914342	-0.069556	0.000008
H192	H	1.414342	0.430444	0.500008
H193	H	1.198740	-0.705371	-0.000041
H194	H	1.698740	-0.205371	0.499959
H195	H	0.944501	0.126328	0.563269
H196	H	1.444501	0.626328	1.063269
Br197	Br	1.326953	-0.587400	-0.000048
Br198	Br	1.826953	-0.087400	0.499952
Br199	Br	1.200104	-0.010544	0.463749
Br200	Br	1.700104	0.489456	0.963749
Br201	Br	1.254837	-0.079675	0.000024
Br202	Br	1.754837	0.420325	0.500024
Br203	Br	1.252614	-0.198504	-0.000012
Br204	Br	1.752614	0.301496	0.499988
H205	H	1.287506	-0.327897	-0.000018
H206	H	1.787506	0.172103	0.499982
H207	H	1.197010	-0.796844	-0.000054
H208	H	1.697010	-0.296844	0.499946
H209	H	1.166861	0.007273	0.563268
H210	H	1.666861	0.507273	1.063268
H211	H	0.826693	-0.387233	-0.000070
H212	H	1.326693	0.112767	0.499930
H213	H	0.944491	0.126322	0.436697
H214	H	1.444491	0.626322	0.936697
H215	H	1.284662	-0.479146	-0.000039
H216	H	1.784662	0.020854	0.499961
Br217	Br	1.200151	-0.010536	0.771119
Br218	Br	1.700151	0.489464	1.271119
Br219	Br	0.779321	-0.549079	-0.000067
Br220	Br	1.279321	-0.049079	0.499933
Br221	Br	0.781556	-0.430255	-0.000059
Br222	Br	1.281556	0.069745	0.499941
Br223	Br	0.911198	0.144131	0.228842
Br224	Br	1.411198	0.644131	0.728842
