data_functionalizedCrystal
_audit_creation_method	'MofGen! by Chris Wilmer'
_symmetry_space_group_name_H-M	'P1'
_symmetry_Int_Tables_number	1
_symmetry_cell_setting	triclinic
loop_
_symmetry_equiv_pos_as_xyz
  x,y,z
_cell_length_a	23.532407
_cell_length_b	10.723024
_cell_length_c	9.798715
_cell_angle_alpha	90.001978
_cell_angle_beta	89.993867
_cell_angle_gamma	96.341727
loop_
_atom_site_label
_atom_site_type_symbol
_atom_site_fract_x
_atom_site_fract_y
_atom_site_fract_z
O1	O	0.756242	-0.151465	-0.113565
O2	O	0.590521	-0.173381	-0.113550
O3	O	0.677204	0.019272	-0.113553
O4	O	0.669559	-0.344118	-0.113562
O5	O	0.677197	0.019273	0.113430
O6	O	0.590514	-0.173381	0.113432
O7	O	0.756235	-0.151465	0.113418
Zn8	Zn	0.673374	-0.162423	0.149463
Zn9	Zn	0.673382	-0.162423	-0.149596
O10	O	0.669552	-0.344118	0.113420
C11	C	0.569298	-0.172823	-0.000057
C12	C	0.506070	-0.171145	-0.000052
C13	C	0.676644	0.065755	-0.000063
C14	C	0.674980	0.204257	-0.000068
C15	C	0.777458	-0.152023	-0.000078
C16	C	0.840686	-0.153701	-0.000093
C17	C	1.239118	-0.050217	-0.000043
C18	C	1.298528	-0.051776	-0.000037
O19	O	1.334650	0.044155	0.000014
N20	N	1.321897	-0.166308	-0.000044
C21	C	1.285853	-0.279289	-0.000043
O22	O	1.311186	-0.376851	-0.000047
C23	C	1.226444	-0.277729	-0.000039
C24	C	1.203078	-0.163189	-0.000046
C25	C	1.215751	0.064314	-0.000048
C26	C	1.156345	0.065872	-0.000057
C27	C	1.120305	-0.047100	-0.000060
C28	C	1.143672	-0.161631	-0.000055
C29	C	1.190400	-0.390708	-0.000029
C30	C	1.130988	-0.389138	-0.000024
C31	C	1.107622	-0.274599	-0.000031
C32	C	1.048226	-0.273045	-0.000066
N33	N	1.024856	-0.158513	-0.000059
C34	C	1.060896	-0.045540	-0.000056
C35	C	1.410617	-0.282556	-0.000048
C36	C	1.470025	-0.284118	-0.000062
C37	C	1.482696	-0.056604	-0.000053
C38	C	1.423287	-0.055044	-0.000050
C39	C	1.387247	-0.168024	-0.000041
C40	C	0.936138	-0.042277	-0.000075
C41	C	0.876726	-0.040728	-0.000090
C42	C	0.864060	-0.268242	-0.000091
C43	C	0.923467	-0.269791	-0.000084
C44	C	0.959505	-0.156798	-0.000072
O45	O	1.012069	-0.368925	-0.000112
O46	O	1.035555	0.052005	-0.000034
C47	C	0.670112	-0.390600	-0.000072
C48	C	0.671776	-0.529103	-0.000077
N49	N	0.673372	-0.162421	0.353563
C50	C	0.723483	0.280751	-0.000074
C51	C	0.721764	0.423901	-0.000079
N52	N	0.673388	-0.162414	-0.353695
C53	C	0.709768	-0.081180	0.421339
C54	C	0.709777	-0.081176	0.578501
H55	H	0.857705	0.052547	-0.000099
H56	H	1.209414	-0.483979	-0.000029
C57	C	0.631283	-0.256386	0.432343
C58	C	0.566399	-0.255431	0.412868
C59	C	0.524309	-0.349399	0.491645
C60	C	0.547103	-0.444321	0.589896
C61	C	0.611990	-0.445279	0.609376
C62	C	0.654080	-0.351311	0.530599
H63	H	0.549523	-0.185161	0.340133
H64	H	0.476275	-0.348689	0.477224
H65	H	0.515945	-0.513881	0.648211
H66	H	0.628866	-0.515549	0.682111
H67	H	0.702114	-0.352021	0.545020
H68	H	0.766281	0.240262	-0.000069
H69	H	0.965474	0.049733	-0.000066
H70	H	0.740919	-0.011624	0.363015
H71	H	0.632181	0.244746	-0.000073
H72	H	1.137326	0.159142	-0.000057
C73	C	0.751875	0.012794	0.657229
C74	C	0.751842	0.012625	0.814385
C75	C	0.793942	0.106597	0.893116
C76	C	0.836074	0.200738	0.814690
C77	C	0.836108	0.200910	0.657524
C78	C	0.794009	0.106938	0.578794
H79	H	0.720652	-0.057067	0.872449
H80	H	0.793916	0.106469	1.009460
H81	H	0.867238	0.270302	0.872970
H82	H	0.867298	0.270602	0.599461
H83	H	0.794034	0.107066	0.462450
C84	C	0.615675	0.382123	-0.000070
C85	C	0.602554	0.288361	-0.117931
C86	C	0.546453	0.199577	-0.117924
C87	C	0.503474	0.204554	-0.000055
C88	C	0.516595	0.298320	0.117815
C89	C	0.572695	0.387105	0.117808
H90	H	0.634371	0.284673	-0.205192
H91	H	0.536741	0.130165	-0.205180
H92	H	0.461945	0.138831	-0.000050
H93	H	0.484778	0.302008	0.205076
H94	H	0.582408	0.456517	0.205064
H95	H	1.245090	0.156315	-0.000041
H96	H	1.101647	-0.481143	-0.000011
H97	H	0.642229	-0.231976	0.588029
H98	H	1.404267	0.038224	-0.000054
C99	C	0.949177	-0.395777	-0.000093
C100	C	0.935773	-0.489412	0.117768
C101	C	0.961481	-0.615398	0.117772
C102	C	1.000592	-0.647750	-0.000084
C103	C	1.013998	-0.554114	-0.117953
C104	C	0.988291	-0.428127	-0.117958
H105	H	0.906819	-0.465465	0.205020
H106	H	0.951556	-0.684714	0.205028
H107	H	1.019622	-0.741013	-0.000081
H108	H	1.042952	-0.578060	-0.205205
H109	H	0.998215	-0.358811	-0.205213
H110	H	0.834706	-0.360220	-0.000101
H111	H	1.489044	-0.377387	-0.000075
C112	C	1.370976	-0.406846	-0.000063
C113	C	1.373928	-0.500896	-0.117938
C114	C	1.334291	-0.625184	-0.117950
C115	C	1.291702	-0.655421	-0.000087
C116	C	1.288748	-0.561368	0.117798
C117	C	1.328385	-0.437080	0.117810
H118	H	1.405457	-0.478515	-0.205196
H119	H	1.336478	-0.694808	-0.205217
H120	H	1.262360	-0.747426	-0.000096
H121	H	1.257220	-0.583749	0.205055
H122	H	1.326198	-0.367456	0.205076
H123	H	0.763286	0.489627	-0.000078
H124	H	1.512051	0.035384	-0.000051
