data_functionalizedCrystal
_audit_creation_method	'MofGen! by Chris Wilmer'
_symmetry_space_group_name_H-M	'P1'
_symmetry_Int_Tables_number	1
_symmetry_cell_setting	triclinic
loop_
_symmetry_equiv_pos_as_xyz
  x,y,z
_cell_length_a	12.759395
_cell_length_b	12.759394
_cell_length_c	18.215399
_cell_angle_alpha	90.025276
_cell_angle_beta	90.018218
_cell_angle_gamma	90.015525
loop_
_atom_site_label
_atom_site_type_symbol
_atom_site_fract_x
_atom_site_fract_y
_atom_site_fract_z
Zn1	Zn	1.606234	-0.418258	0.416098
Zn2	Zn	1.606134	-0.593955	0.293037
Zn3	Zn	1.430542	-0.418293	0.293049
Zn4	Zn	1.430525	-0.593898	0.416066
O5	O	1.518359	-0.506101	0.354562
O6	O	1.753242	-0.441574	0.399782
O7	O	1.582807	-0.570692	0.190055
O8	O	1.453898	-0.271267	0.309390
O9	O	1.753169	-0.570658	0.309370
O10	O	1.582978	-0.271242	0.399793
O11	O	1.453801	-0.441634	0.190063
O12	O	1.283519	-0.441578	0.309358
O13	O	1.453867	-0.570560	0.519054
O14	O	1.283506	-0.570594	0.399739
O15	O	1.582960	-0.441518	0.519078
O16	O	1.582790	-0.740969	0.309339
O17	O	1.453770	-0.740926	0.399727
C18	C	1.245391	-0.506084	0.354547
C19	C	1.128615	-0.506102	0.354557
C20	C	0.909216	-0.640688	0.448546
C21	C	0.964100	-0.707959	0.495523
C22	C	1.073822	-0.707946	0.495513
C23	C	1.128662	-0.640657	0.448520
C24	C	1.073778	-0.573386	0.401544
C25	C	0.964053	-0.573404	0.401560
C26	C	1.073730	-0.438831	0.307581
C27	C	0.964009	-0.438837	0.307593
C28	C	1.128570	-0.371542	0.260588
C29	C	1.073686	-0.304265	0.213613
C30	C	0.963958	-0.304279	0.213625
C31	C	0.909124	-0.371566	0.260616
C32	C	1.518296	-0.779069	0.354545
C33	C	1.518365	-0.895845	0.354562
C34	C	1.652814	-0.895836	0.260511
C35	C	1.720066	-0.950692	0.213494
C36	C	1.720128	-1.060414	0.213514
C37	C	1.652932	-1.115282	0.260557
C38	C	1.585680	-1.060426	0.307574
C39	C	1.585624	-0.950701	0.307547
C40	C	1.451238	-1.060435	0.401628
C41	C	1.451170	-0.950713	0.401605
C42	C	1.384043	-1.115303	0.448671
C43	C	1.316784	-1.060446	0.495685
C44	C	1.316724	-0.950718	0.495663
C45	C	1.383918	-0.895857	0.448622
C46	C	1.792392	-0.506119	0.354579
C47	C	1.909169	-0.506126	0.354586
C48	C	1.518423	-0.506029	0.546515
C49	C	1.518450	-0.505998	0.628314
C50	C	1.518451	-0.232068	0.354596
C51	C	1.518490	-0.115291	0.354611
C52	C	1.518356	-0.506097	0.163356
C53	C	1.518532	-0.505832	0.081558
C54	C	1.585693	-0.438743	0.816522
C55	C	1.585706	-0.438712	0.893381
C56	C	1.451281	-0.573090	0.893345
C57	C	1.451264	-0.573115	0.816487
C58	C	1.518476	-0.505943	0.778078
C59	C	1.518506	-0.505887	0.931794
C60	C	1.518519	-0.505855	1.015128
C61	C	1.518462	-0.505974	0.694739
H62	H	1.118345	-0.249488	0.175352
N63	N	1.133028	-0.780499	0.546179
H64	H	1.178524	-0.829120	0.516202
H65	H	1.081578	-0.823060	0.575939
N66	N	1.247004	-0.640639	0.448503
H67	H	1.273390	-0.659850	0.397990
H68	H	1.273371	-0.693458	0.485422
H69	H	1.652757	-0.806495	0.260480
H70	H	1.217911	-0.371542	0.260580
N71	N	0.904763	-0.231729	0.162952
H72	H	0.956157	-0.189106	0.133183
H73	H	0.859267	-0.183166	0.192970
H74	H	1.652998	-1.204623	0.260576
H75	H	1.383869	-0.806516	0.448594
N76	N	1.378808	-0.645550	0.934775
H77	H	1.336223	-0.688124	0.898756
H78	H	1.330207	-0.602777	0.966667
N79	N	1.658186	-0.366301	0.775093
H80	H	1.615506	-0.317624	0.743201
H81	H	1.706836	-0.409098	0.743252
H82	H	1.774895	-1.105078	0.175232
N83	N	0.790783	-0.371581	0.260629
H84	H	0.764375	-0.424416	0.297525
H85	H	0.764404	-0.390774	0.210099
H86	H	1.262084	-1.105128	0.533988
H87	H	1.774778	-0.906009	0.175193
N88	N	1.378741	-0.645576	0.775016
H89	H	1.336165	-0.688126	0.811009
H90	H	1.421469	-0.694212	0.743117
H91	H	1.261964	-0.906060	0.533952
H92	H	1.384102	-1.204644	0.448687
N93	N	1.658201	-0.366220	0.934837
H94	H	1.733261	-0.382542	0.921470
H95	H	1.647927	-0.376416	0.989343
N96	N	0.790874	-0.640688	0.448565
H97	H	0.764462	-0.693518	0.485462
H98	H	0.764485	-0.659877	0.398036
H99	H	0.919438	-0.762747	0.533782
