data_functionalizedCrystal
_audit_creation_method	'MofGen! by Chris Wilmer'
_symmetry_space_group_name_H-M	'P1'
_symmetry_Int_Tables_number	1
_symmetry_cell_setting	triclinic
loop_
_symmetry_equiv_pos_as_xyz
  x,y,z
_cell_length_a	13.034595
_cell_length_b	13.032831
_cell_length_c	11.169409
_cell_angle_alpha	82.804574
_cell_angle_beta	97.152496
_cell_angle_gamma	76.683238
loop_
_atom_site_label
_atom_site_type_symbol
_atom_site_fract_x
_atom_site_fract_y
_atom_site_fract_z
Zn1	Zn	-0.629163	1.677647	-1.014785
Zn2	Zn	-0.129163	2.177647	-0.514785
Zn3	Zn	-0.806765	1.700086	-0.843301
Zn4	Zn	-0.306765	2.200086	-0.343301
Zn5	Zn	-0.606639	1.500015	-0.784955
Zn6	Zn	-0.106639	2.000015	-0.284955
Zn7	Zn	-0.784104	1.522539	-1.014774
Zn8	Zn	-0.284104	2.022539	-0.514774
O9	O	-0.706668	1.600072	-0.914454
O10	O	-0.206668	2.100072	-0.414454
O11	O	-0.671632	1.829268	-1.016460
O12	O	-0.171632	2.329268	-0.516460
O13	O	-0.780276	1.673510	-0.667615
O14	O	-0.280276	2.173510	-0.167615
O15	O	-0.461029	1.504761	-0.791030
O16	O	0.038971	2.004761	-0.291030
O17	O	-0.802116	1.845753	-0.890472
O18	O	-0.302116	2.345753	-0.390472
O19	O	-0.477578	1.635267	-0.959885
O20	O	0.022422	2.135267	-0.459885
O21	O	-0.633244	1.526519	-0.624749
O22	O	-0.133244	2.026519	-0.124749
O23	O	-0.611269	1.354359	-0.791019
O24	O	-0.111269	1.854359	-0.291019
O25	O	-0.763493	1.543150	-1.182722
O26	O	-0.263493	2.043150	-0.682722
O27	O	-0.741652	1.370908	-0.959866
O28	O	-0.241652	1.870908	-0.459866
O29	O	-0.649658	1.657108	-1.182731
O30	O	-0.149658	2.157108	-0.682731
O31	O	-0.952357	1.695351	-0.890461
O32	O	-0.452357	2.195351	-0.390461
O33	O	-0.935707	1.564908	-1.016441
O34	O	-0.435707	2.064908	-0.516441
C35	C	-0.671558	1.324092	-0.869110
C36	C	-0.171558	1.824092	-0.369110
C37	C	-0.656564	1.206030	-0.849745
C38	C	-0.156564	1.706030	-0.349745
C39	C	-0.714493	1.161622	-0.924561
C40	C	-0.214493	1.661622	-0.424561
C41	C	-0.698997	1.039599	-0.904548
C42	C	-0.198997	1.539599	-0.404548
C43	C	-0.982565	1.635037	-0.959812
C44	C	-0.482565	2.135037	-0.459812
C45	C	-1.100607	1.650093	-0.979272
C46	C	-0.600607	2.150093	-0.479272
C47	C	-1.145138	1.592297	-0.904365
C48	C	-0.645138	2.092297	-0.404365
C49	C	-1.267141	1.607856	-0.924477
C50	C	-0.767141	2.107856	-0.424477
C51	C	-0.429696	1.564999	-0.868950
C52	C	0.070304	2.064999	-0.368950
C53	C	-0.311668	1.550053	-0.849559
C54	C	0.188332	2.050053	-0.349559
C55	C	-0.706560	1.600138	-1.227491
C56	C	-0.206560	2.100138	-0.727491
C57	C	-0.706514	1.600167	-1.360888
C58	C	-0.206514	2.100167	-0.860888
C59	C	-0.741915	1.877130	-0.959976
C60	C	-0.241915	2.377130	-0.459976
C61	C	-0.756935	1.995195	-0.979374
C62	C	-0.256935	2.495195	-0.479374
C63	C	-0.706706	1.600057	-0.602633
C64	C	-0.206706	2.100057	-0.102633
C65	C	-0.706479	1.600196	-0.469221
C66	C	-0.206479	2.100196	0.030779
H67	H	-0.775557	1.213940	-1.003434
H68	H	-0.275557	1.713940	-0.503434
Br69	Br	-0.597196	0.952411	-0.773091
Br70	Br	-0.097196	1.452411	-0.273091
Br71	Br	-0.858707	1.082377	-1.110861
Br72	Br	-0.358707	1.582377	-0.610861
Br73	Br	-1.224686	1.448382	-0.717832
Br74	Br	-0.724686	1.948382	-0.217832
H75	H	-1.152806	1.711097	-1.058288
H76	H	-0.652806	2.211097	-0.558288
Br77	Br	-1.058150	1.490630	-0.772647
Br78	Br	-0.558150	1.990630	-0.272647
H79	H	-0.595492	1.153710	-0.770880
H80	H	-0.095492	1.653710	-0.270880
Br81	Br	-1.354128	1.709545	-1.056184
Br82	Br	-0.854128	2.209545	-0.556184
