data_functionalizedCrystal
_audit_creation_method	'MofGen! by Chris Wilmer'
_symmetry_space_group_name_H-M	'P1'
_symmetry_Int_Tables_number	1
_symmetry_cell_setting	triclinic
loop_
_symmetry_equiv_pos_as_xyz
  x,y,z
_cell_length_a	18.101395
_cell_length_b	10.685986
_cell_length_c	10.686220
_cell_angle_alpha	99.031303
_cell_angle_beta	94.412841
_cell_angle_gamma	85.587711
loop_
_atom_site_label
_atom_site_type_symbol
_atom_site_fract_x
_atom_site_fract_y
_atom_site_fract_z
Zn1	Zn	-0.184159	-0.569024	1.885434
Zn2	Zn	-0.316858	-0.356785	1.901503
Zn3	Zn	-0.201862	-0.373053	1.689426
Zn4	Zn	-0.316805	-0.585229	1.673101
O5	O	-0.254921	-0.471023	1.787366
O6	O	-0.194375	-0.527279	2.065184
O7	O	-0.309034	-0.181324	1.886928
O8	O	-0.095875	-0.399076	1.715534
O9	O	-0.291868	-0.371348	2.076989
O10	O	-0.082869	-0.543054	1.859541
O11	O	-0.224547	-0.193276	1.731115
O12	O	-0.224496	-0.414789	1.509643
O13	O	-0.291779	-0.760698	1.687710
O14	O	-0.308944	-0.570674	1.497648
O15	O	-0.194324	-0.748792	1.843711
O16	O	-0.420490	-0.387062	1.871098
O17	O	-0.420451	-0.554899	1.703291
C18	C	-0.447340	-0.470998	1.787199
C19	C	-0.529651	-0.471021	1.787241
C20	C	-0.268636	-0.496256	1.457591
C21	C	-0.274520	-0.507081	1.316510
C22	C	-0.241071	-0.802088	1.762097
C23	C	-0.235169	-0.943168	1.751329
C24	C	-0.828728	-0.471068	1.787514
C25	C	-0.797390	-0.576893	1.682143
C26	C	-0.711804	-0.576621	1.681702
C27	C	-0.680352	-0.471046	1.787378
C28	C	-0.718584	-0.340048	1.761404
C29	C	-0.804231	-0.340685	1.760728
C30	C	-0.790055	-0.495048	1.919163
C31	C	-0.704314	-0.498043	1.918148
C32	C	-0.596497	-0.471025	1.787304
C33	C	-0.912583	-0.471081	1.787585
C34	C	-0.061748	-0.471072	1.787566
C35	C	0.020571	-0.471093	1.787651
C36	C	-0.268661	-0.141240	1.812610
C37	C	-0.274344	-0.000142	1.823624
C38	C	-0.241153	-0.445691	2.118429
C39	C	-0.235286	-0.434897	2.259508
H40	H	-0.685664	-0.674076	1.696766
H41	H	-0.810254	-0.417847	1.997542
C42	C	-0.183822	-0.340221	1.339379
C43	C	-0.099944	-0.352198	1.320520
C44	C	-0.048479	-0.257521	1.400400
C45	C	-0.080893	-0.150866	1.499139
C46	C	-0.164777	-0.138884	1.518002
C47	C	-0.216241	-0.233561	1.438122
H48	H	-0.075945	-0.431155	1.247423
H49	H	0.013617	-0.266391	1.386435
H50	H	-0.042796	-0.080780	1.558271
H51	H	-0.188775	-0.059927	1.591099
H52	H	-0.278337	-0.224691	1.452087
H53	H	-0.698476	-0.259500	1.836188
C54	C	-0.838467	-0.311639	1.631133
C55	C	-0.825124	-0.185372	1.586827
C56	C	-0.859355	-0.156330	1.457227
C57	C	-0.906929	-0.253556	1.371931
C58	C	-0.920274	-0.379832	1.416235
C59	C	-0.886043	-0.408873	1.545836
H60	H	-0.789904	-0.113392	1.649970
H61	H	-0.849475	-0.062852	1.424431
H62	H	-0.932268	-0.232057	1.275993
H63	H	-0.955493	-0.451811	1.353093
H64	H	-0.895923	-0.502352	1.578631
H65	H	-0.312617	-0.577160	1.257374
C66	C	-0.669731	-0.628210	1.944882
C67	C	-0.617208	-0.637180	2.063997
C68	C	-0.582624	-0.767350	2.090729
C69	C	-0.600562	-0.888549	1.998345
C70	C	-0.653088	-0.879583	1.879223
C71	C	-0.687672	-0.749413	1.852491
H72	H	-0.603927	-0.547458	2.132392
H73	H	-0.543741	-0.773986	2.178912
H74	H	-0.574961	-0.984908	2.018134
H75	H	-0.666369	-0.969305	1.810828
H76	H	-0.726555	-0.742777	1.764308
C77	C	-0.818289	-0.709012	1.702140
C78	C	-0.793416	-0.827714	1.609887
C79	C	-0.814322	-0.959837	1.629883
C80	C	-0.860101	-0.973258	1.742133
C81	C	-0.884977	-0.854552	1.834394
C82	C	-0.864071	-0.722429	1.814397
H83	H	-0.759525	-0.817783	1.526786
H84	H	-0.795907	-1.047710	1.561585
H85	H	-0.875577	-1.071063	1.756936
H86	H	-0.918868	-0.864484	1.917495
H87	H	-0.882486	-0.634556	1.882696
H88	H	-0.312391	-0.940989	1.893761
C89	C	-0.833374	-0.556858	1.550823
C90	C	-0.824244	-0.432540	1.499379
C91	C	-0.860232	-0.412500	1.368063
C92	C	-0.905350	-0.516779	1.288191
C93	C	-0.914482	-0.641106	1.339634
C94	C	-0.878494	-0.661146	1.470950
H95	H	-0.790843	-0.355339	1.558507
H96	H	-0.853471	-0.320465	1.329983
H97	H	-0.931990	-0.501945	1.190983
H98	H	-0.947883	-0.718307	1.280507
H99	H	-0.885254	-0.753181	1.509031
C100	C	-0.832658	-0.231262	1.860629
C101	C	-0.777424	-0.143577	1.940764
C102	C	-0.805849	-0.034144	2.040648
C103	C	-0.889507	-0.012396	2.060398
C104	C	-0.944746	-0.100083	1.980261
C105	C	-0.916322	-0.209516	1.880377
H106	H	-0.715491	-0.159674	1.926146
H107	H	-0.764957	0.030768	2.099971
H108	H	-0.910548	0.068613	2.134338
H109	H	-1.006680	-0.083986	1.994879
H110	H	-0.957214	-0.274428	1.821054
H111	H	-0.696469	-0.561548	1.583914
C112	C	-0.696830	-0.310178	1.633262
C113	C	-0.656180	-0.189786	1.628457
C114	C	-0.634428	-0.159925	1.500311
C115	C	-0.653325	-0.250457	1.376970
C116	C	-0.693978	-0.370857	1.381770
C117	C	-0.715730	-0.400718	1.509916
H118	H	-0.642189	-0.122762	1.719765
H119	H	-0.604334	-0.070797	1.496758
H120	H	-0.637223	-0.228352	1.282108
H121	H	-0.707969	-0.437881	1.290462
H122	H	-0.745824	-0.489847	1.513469
H123	H	-0.806233	-0.588403	1.944840
H124	H	-0.682473	-0.425765	1.999986
H125	H	-0.197112	-1.002326	1.681197
