data_functionalizedCrystal
_audit_creation_method	'MofGen! by Chris Wilmer'
_symmetry_space_group_name_H-M	'P1'
_symmetry_Int_Tables_number	1
_symmetry_cell_setting	triclinic
loop_
_symmetry_equiv_pos_as_xyz
  x,y,z
_cell_length_a	19.121414
_cell_length_b	19.121073
_cell_length_c	19.076919
_cell_angle_alpha	94.604058
_cell_angle_beta	94.615013
_cell_angle_gamma	94.803854
loop_
_atom_site_label
_atom_site_type_symbol
_atom_site_fract_x
_atom_site_fract_y
_atom_site_fract_z
Zn1	Zn	1.048446	-0.249492	-0.363868
Zn2	Zn	1.048062	-0.362436	-0.251007
Zn3	Zn	0.935513	-0.249805	-0.251018
Zn4	Zn	0.925284	-0.372581	-0.374332
O5	O	0.989326	-0.308579	-0.310056
O6	O	1.147041	-0.260098	-0.344513
O7	O	1.037252	-0.343381	-0.152168
O8	O	0.954935	-0.151114	-0.261613
O9	O	1.146759	-0.343078	-0.261595
O10	O	1.037907	-0.150884	-0.344524
O11	O	0.954563	-0.260632	-0.152176
O12	O	0.835510	-0.270468	-0.271759
O13	O	0.937501	-0.360367	-0.471784
O14	O	0.827994	-0.360670	-0.362357
O15	O	1.027988	-0.269935	-0.464097
O16	O	1.027334	-0.462432	-0.271741
O17	O	0.937129	-0.469884	-0.362347
C18	C	0.806174	-0.316704	-0.318195
C19	C	0.727820	-0.320198	-0.321695
C20	C	0.694901	-0.274811	-0.276240
C21	C	0.621278	-0.278100	-0.279528
C22	C	0.580575	-0.326773	-0.328275
C23	C	0.613499	-0.372165	-0.373731
C24	C	0.687121	-0.368879	-0.370439
C25	C	0.358092	-0.339051	-0.340568
C26	C	0.284465	-0.342333	-0.343858
C27	C	0.292249	-0.248268	-0.249654
C28	C	0.365871	-0.244983	-0.246369
C29	C	0.398789	-0.290378	-0.291823
C30	C	0.505321	-0.330135	-0.331639
C31	C	0.474042	-0.287019	-0.288455
C32	C	0.981098	-0.491737	-0.318193
C33	C	0.977642	-0.570090	-0.321694
C34	C	0.955756	-1.013441	-0.343918
C35	C	0.959004	-0.939819	-0.340620
C36	C	1.007625	-0.899107	-0.291828
C37	C	1.053007	-0.932020	-0.246336
C38	C	1.049761	-1.005641	-0.249638
C39	C	1.019778	-0.676624	-0.279504
C40	C	1.023018	-0.602999	-0.276204
C41	C	0.929016	-0.610803	-0.370489
C42	C	0.925773	-0.684425	-0.373784
C43	C	0.971156	-0.717332	-0.328294
C44	C	1.010945	-0.823853	-0.288455
C45	C	0.967839	-0.792584	-0.331672
C46	C	1.173193	-0.300422	-0.301886
C47	C	1.251546	-0.296946	-0.298404
C48	C	0.981646	-0.316247	-0.494285
C49	C	0.978374	-0.319515	-0.572792
C50	C	0.997605	-0.124705	-0.301903
C51	C	1.001133	-0.046349	-0.298428
C52	C	1.023945	-0.273970	-0.605674
C53	C	1.020862	-0.277038	-0.679440
C54	C	0.972209	-0.325656	-0.720324
C55	C	0.926633	-0.371204	-0.687437
C56	C	0.929714	-0.368132	-0.613672
C57	C	0.957941	-0.339890	-0.941367
C58	C	0.954865	-0.342960	-1.015136
C59	C	1.049094	-0.248793	-1.007135
C60	C	1.052173	-0.245728	-0.933369
C61	C	1.006594	-0.291273	-0.900488
N62	N	0.969058	-0.328795	-0.795725
N63	N	1.009742	-0.288130	-0.825089
C64	C	0.997019	-0.300887	-0.126540
C65	C	1.000437	-0.297414	-0.048018
H66	H	0.580354	-0.411799	-0.413419
H67	H	0.399007	-0.205353	-0.206670
N68	N	0.722625	-0.417834	-0.419467
H69	H	0.753096	-0.389241	-0.449609
H70	H	0.752860	-0.447888	-0.390740
N71	N	1.104622	-0.193262	-0.889277
H72	H	1.099652	-0.198222	-0.837558
H73	H	1.153945	-0.202515	-0.900409
N74	N	0.585761	-0.229138	-0.230522
H75	H	0.555290	-0.257726	-0.200376
H76	H	0.622751	-0.197804	-0.199190
H77	H	0.265439	-0.211311	-0.212648
N78	N	0.873325	-0.728335	-0.426403
H79	H	0.845069	-0.696316	-0.454720
H80	H	0.899280	-0.758929	-0.459207
N81	N	0.240562	-0.394826	-0.396443
H82	H	0.272586	-0.423084	-0.424740
H83	H	0.209744	-0.427567	-0.370455
N84	N	0.880079	-0.575309	-0.419558
H85	H	0.848787	-0.612272	-0.450969
H86	H	0.850020	-0.545058	-0.390866
H87	H	1.086713	-1.032433	-0.212597
N88	N	0.908792	-0.389023	-0.905911
H89	H	0.918121	-0.379702	-0.852977
H90	H	0.858402	-0.380824	-0.920554
N91	N	0.874142	-0.423628	-0.731528
H92	H	0.879102	-0.418662	-0.783248
H93	H	0.883371	-0.472956	-0.720386
H94	H	1.086201	-0.211712	-1.033914
H95	H	0.507185	-0.247392	-0.248764
N96	N	0.738799	-0.222307	-0.223670
H97	H	0.706770	-0.194054	-0.195374
H98	H	0.769421	-0.248222	-0.190841
N99	N	0.393590	-0.388011	-0.389590
H100	H	0.356632	-0.419340	-0.420970
H101	H	0.424065	-0.359369	-0.419687
H102	H	0.472173	-0.369764	-0.371329
N103	N	0.880554	-0.417255	-0.578210
H104	H	0.888695	-0.467674	-0.592793
H105	H	0.889906	-0.407872	-0.525286
N106	N	0.903309	-1.057350	-0.396539
H107	H	0.875058	-1.025328	-0.424856
H108	H	0.929269	-1.087941	-0.429342
H109	H	0.915244	-0.382553	-1.048422
N110	N	0.910060	-0.904324	-0.389681
H111	H	0.878763	-0.941287	-0.421087
H112	H	0.880007	-0.874074	-0.360981
H113	H	1.092599	-0.898867	-0.206611
H114	H	1.062613	-0.569853	-0.236469
H115	H	1.056730	-0.703408	-0.242461
H116	H	0.928255	-0.825735	-0.371401
N117	N	1.063376	-0.779933	-0.235826
H118	H	1.054000	-0.791162	-0.186412
H119	H	1.112695	-0.790927	-0.245223
N120	N	1.076425	-0.221535	-0.561581
H121	H	1.104825	-0.193148	-0.593608
H122	H	1.050479	-0.188910	-0.530801
N123	N	1.070000	-0.227901	-0.714907
H124	H	1.101287	-0.196634	-0.677814
H125	H	1.100055	-0.256412	-0.745346
