data_functionalizedCrystal
_audit_creation_method	'MofGen! by Chris Wilmer'
_symmetry_space_group_name_H-M	'P1'
_symmetry_Int_Tables_number	1
_symmetry_cell_setting	triclinic
loop_
_symmetry_equiv_pos_as_xyz
  x,y,z
_cell_length_a	16.959455
_cell_length_b	12.594516
_cell_length_c	12.594509
_cell_angle_alpha	89.972125
_cell_angle_beta	89.974058
_cell_angle_gamma	90.008836
loop_
_atom_site_label
_atom_site_type_symbol
_atom_site_fract_x
_atom_site_fract_y
_atom_site_fract_z
Zn1	Zn	1.208473	-0.423795	-0.601994
Zn2	Zn	1.208401	-0.601805	-0.424016
Zn3	Zn	1.076288	-0.423831	-0.424008
Zn4	Zn	1.076285	-0.601722	-0.601932
O5	O	1.142362	-0.512788	-0.512988
O6	O	1.319074	-0.447427	-0.578414
O7	O	1.190848	-0.578246	-0.275069
O8	O	1.093854	-0.274881	-0.447641
O9	O	1.319022	-0.578210	-0.447655
O10	O	1.190969	-0.274854	-0.578406
O11	O	1.093785	-0.447490	-0.275063
O12	O	0.965677	-0.447410	-0.447581
O13	O	1.093848	-0.578070	-0.750886
O14	O	0.965674	-0.578105	-0.578301
O15	O	1.190966	-0.447347	-0.750931
O16	O	1.190845	-0.750740	-0.447595
O17	O	1.093779	-0.750679	-0.578309
C18	C	0.936995	-0.512754	-0.512934
C19	C	0.849139	-0.512764	-0.512936
C20	C	0.477625	-0.580820	-0.444866
C21	C	0.477701	-0.444845	-0.581238
C22	C	0.560247	-0.444828	-0.581212
C23	C	0.601486	-0.512808	-0.513014
C24	C	0.560179	-0.580807	-0.444841
C25	C	0.601560	-0.376838	-0.649391
C26	C	0.684111	-0.376819	-0.649369
C27	C	0.725352	-0.444795	-0.581164
C28	C	0.684039	-0.512795	-0.512988
C29	C	0.725278	-0.580776	-0.444789
C30	C	0.683968	-0.648771	-0.376607
C31	C	0.601419	-0.648783	-0.376636
C32	C	0.807900	-0.444784	-0.581135
C33	C	0.807832	-0.580763	-0.444763
C34	C	1.142325	-0.789329	-0.512969
C35	C	1.142382	-0.907635	-0.512997
C36	C	1.195237	-0.976882	-0.441977
C37	C	1.214553	-1.047580	-0.539129
C38	C	1.123165	-1.047736	-0.415907
C39	C	1.161735	-0.976774	-0.610199
C40	C	1.070313	-0.976924	-0.486912
C41	C	1.089601	-1.047590	-0.584130
C42	C	1.348530	-0.512824	-0.513042
C43	C	1.436387	-0.512839	-0.513065
C44	C	1.142415	-0.512695	-0.790609
C45	C	1.142437	-0.512655	-0.908914
C46	C	1.142420	-0.235167	-0.513029
C47	C	1.142445	-0.116862	-0.513047
C48	C	1.089631	-0.583715	-0.978143
C49	C	1.161757	-0.609726	-1.048941
C50	C	1.070368	-0.486580	-1.048915
C51	C	1.214601	-0.538718	-0.978154
C52	C	1.123163	-0.415526	-0.978122
C53	C	1.195338	-0.441500	-1.048888
C54	C	1.142355	-0.512804	-0.236447
C55	C	1.142485	-0.512544	-0.118142
H56	H	0.567777	-0.704140	-0.321125
C57	C	1.255758	-0.360255	-1.090600
C58	C	1.228286	-0.266993	-1.160505
C59	C	1.288707	-0.185753	-1.202219
C60	C	1.376600	-0.197775	-1.174029
C61	C	1.404075	-0.291041	-1.104120
C62	C	1.343654	-0.372281	-1.062406
H63	H	1.163219	-0.258090	-1.181377
H64	H	1.268368	-0.116712	-1.253971
H65	H	1.421327	-0.137637	-1.204908
H66	H	1.469142	-0.299944	-1.083248
H67	H	1.363994	-0.441322	-1.010654
H68	H	0.717739	-0.321452	-0.704887
H69	H	1.044931	-1.078441	-0.644280
H70	H	1.009356	-0.945862	-0.464792
H71	H	1.239942	-0.945834	-0.381973
C72	C	1.101078	-0.304659	-0.936053
C73	C	1.020467	-0.255789	-0.963911
C74	C	0.998372	-0.144921	-0.921839
C75	C	1.056886	-0.082924	-0.851910
C76	C	1.137501	-0.131794	-0.824048
C77	C	1.159597	-0.242661	-0.866120
H78	H	0.977147	-0.301683	-1.015680
H79	H	0.938695	-0.108745	-0.942465
H80	H	1.040529	-0.000854	-0.820766
H81	H	1.180821	-0.085900	-0.772279
H82	H	1.219274	-0.278837	-0.845494
H83	H	0.841532	-0.389425	-0.636650
H84	H	1.177954	-0.945737	-0.692398
C85	C	0.988006	-0.456836	-1.090902
C86	C	0.916254	-0.526410	-1.062962
C87	C	0.833891	-0.496675	-1.104943
C88	C	0.823279	-0.397366	-1.174864
C89	C	0.895033	-0.327785	-1.202807
C90	C	0.977396	-0.357520	-1.160826
H91	H	0.924108	-0.599930	-1.011200
H92	H	0.780774	-0.548183	-1.084258
H93	H	0.762309	-0.375354	-1.205941
H94	H	0.887179	-0.254265	-1.254570
H95	H	1.030513	-0.306011	-1.181511
C96	C	1.296923	-1.089515	-0.568980
C97	C	1.368687	-1.061598	-0.499518
C98	C	1.451058	-1.103525	-0.529363
C99	C	1.461665	-1.173370	-0.628670
C100	C	1.389898	-1.201291	-0.698139
C101	C	1.307527	-1.159363	-0.668294
H102	H	1.360837	-1.009891	-0.425999
H103	H	1.504184	-1.082856	-0.477938
H104	H	1.522641	-1.204407	-0.650763
H105	H	1.397748	-1.252998	-0.771657
H106	H	1.254401	-1.180033	-0.719719
H107	H	0.443987	-0.636177	-0.389351
C108	C	0.556190	-0.302054	-0.724386
C109	C	0.499461	-0.348270	-0.807874
C110	C	0.454082	-0.273476	-0.882861
C111	C	0.465431	-0.152465	-0.874359
C112	C	0.522163	-0.106243	-0.790868
C113	C	0.567542	-0.181037	-0.715881
H114	H	0.491057	-0.437855	-0.814170
H115	H	0.412085	-0.307693	-0.944666
H116	H	0.431839	-0.097098	-0.929869
H117	H	0.530566	-0.016658	-0.784571
H118	H	0.609538	-0.146820	-0.654076
H119	H	0.444120	-0.389504	-0.636768
H120	H	0.841403	-0.636118	-0.389223
H121	H	0.717555	-0.704127	-0.321085
H122	H	1.275586	-0.560819	-0.947202
C123	C	1.029352	-0.665015	-0.936166
C124	C	1.038274	-0.783420	-0.964141
C125	C	0.978000	-0.864722	-0.922162
C126	C	0.908803	-0.827618	-0.852209
C127	C	0.899879	-0.709208	-0.824230
C128	C	0.960153	-0.627906	-0.866209
H129	H	1.089500	-0.810891	-1.015928
H130	H	0.984607	-0.952377	-0.942875
H131	H	0.864185	-0.887803	-0.821134
H132	H	0.848653	-0.681737	-0.772443
H133	H	0.953546	-0.540251	-0.845496
H134	H	1.106884	-1.078905	-0.333779
H135	H	1.178086	-0.691819	-1.080048
