data_functionalizedCrystal
_audit_creation_method	'MofGen! by Chris Wilmer'
_symmetry_space_group_name_H-M	'P1'
_symmetry_Int_Tables_number	1
_symmetry_cell_setting	triclinic
loop_
_symmetry_equiv_pos_as_xyz
  x,y,z
_cell_length_a	15.944551
_cell_length_b	14.044220
_cell_length_c	13.101039
_cell_angle_alpha	93.667477
_cell_angle_beta	86.646591
_cell_angle_gamma	88.343808
loop_
_atom_site_label
_atom_site_type_symbol
_atom_site_fract_x
_atom_site_fract_y
_atom_site_fract_z
O1	O	1.127901	0.117026	-0.085109
O2	O	1.627901	0.617026	0.414891
O3	O	0.884482	0.132096	-0.085135
O4	O	1.384482	0.632096	0.414865
O5	O	1.002537	-0.013423	-0.085112
O6	O	1.502537	0.486577	0.414888
O7	O	1.009846	0.262545	-0.085132
O8	O	1.509846	0.762545	0.414868
O9	O	0.994068	-0.002965	0.085316
O10	O	1.494068	0.497035	0.585316
O11	O	0.876013	0.142555	0.085293
O12	O	1.376013	0.642555	0.585293
O13	O	1.119432	0.127484	0.085319
O14	O	1.619432	0.627484	0.585319
Zn15	Zn	0.996378	0.136680	0.112365
Zn16	Zn	1.496378	0.636680	0.612365
Zn17	Zn	1.007536	0.122901	-0.112181
Zn18	Zn	1.507536	0.622901	0.387819
O19	O	1.001377	0.273003	0.085296
O20	O	1.501377	0.773003	0.585296
C21	C	0.848906	0.136700	0.000076
C22	C	1.348906	0.636700	0.500076
C23	C	0.755520	0.134823	0.000066
C24	C	1.255520	0.634823	0.500066
C25	C	0.995104	-0.043509	0.000102
C26	C	1.495104	0.456491	0.500102
C27	C	0.985563	-0.148735	0.000102
C28	C	1.485563	0.351265	0.500102
C29	C	0.968120	-0.341399	0.000085
C30	C	1.468120	0.158601	0.500085
C31	C	1.035791	-0.399027	0.000090
C32	C	1.535791	0.100973	0.500090
C33	C	1.026085	-0.506232	0.000080
C34	C	1.526085	-0.006232	0.500080
C35	C	0.977824	-0.234184	0.000095
C36	C	1.477824	0.265816	0.500095
C37	C	0.533573	0.040140	0.000093
C38	C	1.033573	0.540140	0.500093
C39	C	0.480021	0.078952	-0.083940
C40	C	0.980021	0.578952	0.416060
C41	C	0.584540	0.131430	0.000079
C42	C	1.084540	0.631430	0.500079
C43	C	0.471695	0.089285	0.084089
C44	C	0.971695	0.589285	0.584089
C45	C	0.419380	0.128147	0.000095
C46	C	0.919380	0.628147	0.500095
C47	C	0.532221	0.170263	-0.084024
C48	C	1.032221	0.670263	0.415976
C49	C	0.523897	0.180587	0.084080
C50	C	1.023897	0.680587	0.584080
C51	C	0.470369	0.219464	0.000027
C52	C	0.970369	0.719464	0.500027
C53	C	0.679684	0.133319	0.000068
C54	C	1.179684	0.633319	0.500068
C55	C	0.324238	0.126264	0.000098
C56	C	0.824238	0.626264	0.500098
C57	C	1.155008	0.122881	0.000106
C58	C	1.655008	0.622881	0.500106
C59	C	1.248394	0.124757	0.000109
C60	C	1.748394	0.624757	0.500109
C61	C	1.008810	0.303089	0.000080
C62	C	1.508810	0.803089	0.500080
C63	C	1.018352	0.408315	0.000073
C64	C	1.518352	0.908315	0.500073
N65	N	0.988769	0.146083	0.265612
N66	N	1.488769	0.646083	0.765612
N67	N	1.015152	0.113490	-0.265428
N68	N	1.515152	0.613490	0.234572
C69	C	0.978417	0.158885	0.474653
C70	C	1.478417	0.658885	0.974653
C71	C	1.025501	0.100691	0.525538
C72	C	1.525501	0.600691	1.025538
C73	C	1.019741	0.107814	0.641855
C74	C	1.519741	0.607814	1.141855
C75	C	0.984176	0.151763	0.358325
C76	C	1.484176	0.651763	0.858325
H77	H	0.902902	-0.372573	0.000076
H78	H	1.402902	0.127427	0.500076
H79	H	0.933784	0.214053	0.518441
H80	H	1.433784	0.714053	1.018441
H81	H	0.561238	-0.035630	-0.000006
H82	H	1.061238	0.464370	0.499994
H83	H	0.442891	0.295303	-0.000026
H84	H	0.942891	0.795303	0.499974
C85	C	1.063813	-0.065463	0.492545
C86	C	1.563813	0.434537	0.992545
C87	C	1.085749	0.026119	0.466553
C88	C	1.585749	0.526119	0.966553
H89	H	1.101001	-0.111524	0.456160
H90	H	1.601001	0.388476	0.956160
H91	H	1.067740	-0.070270	0.564106
H92	H	1.567740	0.429730	1.064106
H93	H	1.007823	-0.076708	0.474979
H94	H	1.507823	0.423292	0.974979
H95	H	1.141736	0.037367	0.484126
H96	H	1.641736	0.537367	0.984126
H97	H	1.081830	0.030929	0.394976
H98	H	1.581830	0.530929	0.894976
C99	C	0.519645	0.196001	0.267900
C100	C	1.019645	0.696001	0.767900
C101	C	0.550223	0.238550	0.179982
C102	C	1.050223	0.738550	0.679982
H103	H	0.535905	0.231778	0.327109
H104	H	1.035905	0.731778	0.827109
H105	H	0.460074	0.194755	0.268932
H106	H	0.960074	0.694755	0.768932
H107	H	0.542232	0.132618	0.267288
H108	H	1.042232	0.632618	0.767288
H109	H	0.527630	0.301932	0.180589
H110	H	1.027630	0.801932	0.680589
H111	H	0.609806	0.239807	0.178949
H112	H	1.109806	0.739807	0.678949
C113	C	1.137902	-0.306130	-0.087486
C114	C	1.637902	0.193870	0.412514
C115	C	1.123842	-0.356948	0.000113
C116	C	1.623842	0.143052	0.500113
H117	H	1.192257	-0.280145	-0.087463
H118	H	1.692257	0.219855	0.412537
H119	H	1.134276	-0.347883	-0.146913
H120	H	1.634276	0.152117	0.353087
H121	H	1.096715	-0.255885	-0.087481
H122	H	1.596715	0.244115	0.412519
H123	H	1.165026	-0.407197	0.000104
H124	H	1.665026	0.092803	0.500104
H125	H	1.127476	-0.315192	0.059555
H126	H	1.627476	0.184808	0.559555
C127	C	0.485754	-0.072933	-0.179679
C128	C	0.985754	0.427067	0.320321
C129	C	0.453725	0.020946	-0.179836
C130	C	0.953725	0.520946	0.320164
H131	H	0.469516	-0.108747	-0.238876
H132	H	0.969516	0.391253	0.261124
H133	H	0.545333	-0.072645	-0.180060
H134	H	1.045333	0.427355	0.319940
H135	H	0.464120	-0.101078	-0.120000
H136	H	0.964120	0.398922	0.380000
H137	H	0.475364	0.049093	-0.239512
H138	H	0.975364	0.549093	0.260488
H139	H	0.394133	0.020662	-0.179465
H140	H	0.894133	0.520662	0.320535
H141	H	0.558632	0.204482	-0.155145
H142	H	1.058632	0.704482	0.344855
H143	H	0.445186	0.055015	0.155130
H144	H	0.945186	0.555015	0.655130
