data_functionalizedCrystal
_audit_creation_method	'MofGen! by Chris Wilmer'
_symmetry_space_group_name_H-M	'P1'
_symmetry_Int_Tables_number	1
_symmetry_cell_setting	triclinic
loop_
_symmetry_equiv_pos_as_xyz
  x,y,z
_cell_length_a	11.169416
_cell_length_b	12.759401
_cell_length_c	12.759393
_cell_angle_alpha	89.980163
_cell_angle_beta	89.971305
_cell_angle_gamma	90.011865
loop_
_atom_site_label
_atom_site_type_symbol
_atom_site_fract_x
_atom_site_fract_y
_atom_site_fract_z
Zn1	Zn	-0.477687	1.606287	-0.594041
Zn2	Zn	-0.678420	1.606195	-0.418371
Zn3	Zn	-0.477755	1.430589	-0.418377
Zn4	Zn	-0.678332	1.430591	-0.594008
O5	O	-0.578048	1.518415	-0.506199
O6	O	-0.504323	1.753296	-0.570750
O7	O	-0.651866	1.582861	-0.271350
O8	O	-0.309796	1.453933	-0.441696
O9	O	-0.651801	1.753228	-0.441685
O10	O	-0.309746	1.583018	-0.570756
O11	O	-0.504438	1.453844	-0.271355
O12	O	-0.504353	1.283568	-0.441663
O13	O	-0.651651	1.453937	-0.741033
O14	O	-0.651717	1.283570	-0.570698
O15	O	-0.504238	1.583020	-0.741058
O16	O	-0.846358	1.582863	-0.441653
O17	O	-0.846293	1.453847	-0.570692
C18	C	-0.578034	1.245448	-0.506178
C19	C	-0.578056	1.128671	-0.506194
C20	C	-0.654905	1.073838	-0.573277
C21	C	-0.654910	0.964114	-0.573298
C22	C	-0.501213	0.964067	-0.439144
C23	C	-0.501204	1.073789	-0.439129
C24	C	-0.889873	1.518374	-0.506191
C25	C	-1.023273	1.518452	-0.506223
C26	C	-0.265006	1.518486	-0.506230
C27	C	-0.131606	1.518516	-0.506243
C28	C	-0.577927	1.518489	-0.780233
C29	C	-0.577875	1.518520	-0.897009
C30	C	-0.578064	1.792449	-0.506221
C31	C	-0.578071	1.909225	-0.506230
C32	C	-0.501096	1.451365	-0.951873
C33	C	-0.501059	1.451389	-1.061597
C34	C	-0.654584	1.585733	-1.061584
C35	C	-0.654626	1.585702	-0.951862
C36	C	-0.578083	1.518403	-0.233232
C37	C	-0.577796	1.518575	-0.116456
H38	H	-0.438644	0.919368	-0.384540
H39	H	-0.438538	1.396704	-1.106263
C40	C	-0.739450	0.903796	-0.647086
C41	C	-0.739463	0.783106	-0.647113
C42	C	-0.824007	0.722790	-0.720905
C43	C	-0.908538	0.783163	-0.794671
C44	C	-0.908528	0.903860	-0.794647
C45	C	-0.823984	0.964176	-0.720854
H46	H	-0.676885	0.738408	-0.592505
H47	H	-0.824014	0.633442	-0.720923
H48	H	-0.971122	0.738513	-0.849296
H49	H	-0.971106	0.948558	-0.849255
H50	H	-0.823977	1.053524	-0.720837
C51	C	-0.738998	1.659631	-1.121933
C52	C	-0.833181	1.614096	-1.197353
C53	C	-0.917594	1.687995	-1.257704
C54	C	-0.907824	1.807431	-1.242635
C55	C	-0.813638	1.852973	-1.167212
C56	C	-0.729225	1.779073	-1.106861
H57	H	-0.840416	1.525677	-1.208511
H58	H	-0.987317	1.654282	-1.313537
H59	H	-0.970312	1.862136	-1.287310
H60	H	-0.806402	1.941392	-1.156053
H61	H	-0.659502	1.812787	-1.051028
H62	H	-0.717481	1.118520	-0.627889
H63	H	-0.717154	1.640390	-0.907191
H64	H	-0.438617	1.118435	-0.384502
C65	C	-0.416681	1.377459	-0.891534
C66	C	-0.332230	1.303585	-0.951888
C67	C	-0.247816	1.229674	-0.891553
C68	C	-0.247853	1.229636	-0.770863
C69	C	-0.332307	1.303512	-0.710502
C70	C	-0.416721	1.377424	-0.770837
H71	H	-0.332200	1.303610	-1.041237
H72	H	-0.185298	1.174986	-0.936237
H73	H	-0.185365	1.174923	-0.726199
H74	H	-0.332337	1.303487	-0.621154
H75	H	-0.479239	1.432112	-0.726153
