data_functionalizedCrystal
_audit_creation_method	'MofGen! by Chris Wilmer'
_symmetry_space_group_name_H-M	'P1'
_symmetry_Int_Tables_number	1
_symmetry_cell_setting	triclinic
loop_
_symmetry_equiv_pos_as_xyz
  x,y,z
_cell_length_a	16.992701
_cell_length_b	17.019370
_cell_length_c	15.455313
_cell_angle_alpha	96.534600
_cell_angle_beta	87.136501
_cell_angle_gamma	87.022613
loop_
_atom_site_label
_atom_site_type_symbol
_atom_site_fract_x
_atom_site_fract_y
_atom_site_fract_z
O1	O	1.043058	0.164559	-0.059851
O2	O	1.543058	0.664559	0.440149
O3	O	0.814782	0.162720	-0.059988
O4	O	1.314782	0.662720	0.440012
O5	O	0.935697	0.048826	-0.068486
O6	O	1.435697	0.548826	0.431514
O7	O	0.922143	0.278453	-0.051353
O8	O	1.422143	0.778453	0.448647
O9	O	0.928783	0.055311	0.076260
O10	O	1.428783	0.555311	0.576260
O11	O	0.807867	0.169205	0.084758
O12	O	1.307867	0.669205	0.584758
O13	O	1.036144	0.171044	0.084895
O14	O	1.536144	0.671044	0.584895
Cu15	Cu	0.921374	0.170716	0.098043
Cu16	Cu	1.421374	0.670716	0.598043
Cu17	Cu	0.929551	0.163048	-0.073136
Cu18	Cu	1.429551	0.663048	0.426864
O19	O	0.915228	0.284938	0.093393
O20	O	1.415228	0.784938	0.593393
C21	C	0.782123	0.163594	0.012208
C22	C	1.282123	0.663594	0.512208
C23	C	0.695112	0.156529	0.011680
C24	C	1.195112	0.656529	0.511680
C25	C	0.931862	0.022551	0.001683
C26	C	1.431862	0.522551	0.501683
C27	C	0.930727	-0.065404	-0.004886
C28	C	1.430727	0.434596	0.495114
C29	C	0.206375	0.109053	0.008135
C30	C	0.706375	0.609053	0.508135
C31	C	0.288130	0.115699	0.008636
C32	C	0.788130	0.615699	0.508636
C33	C	0.319323	0.190526	0.014215
C34	C	0.819323	0.690526	0.514215
C35	C	0.268756	0.258713	0.019303
C36	C	0.768756	0.758713	0.519303
C37	C	0.187002	0.252067	0.018808
C38	C	0.687002	0.752067	0.518808
C39	C	0.562791	0.218070	0.016273
C40	C	1.062791	0.718070	0.516273
C41	C	0.644552	0.224711	0.016765
C42	C	1.144552	0.724711	0.516765
C43	C	0.663919	0.081695	0.006100
C44	C	1.163919	0.581695	0.506100
C45	C	0.582163	0.075056	0.005600
C46	C	1.082163	0.575056	0.505600
C47	C	0.531603	0.143243	0.010692
C48	C	1.031603	0.643243	0.510692
N49	N	0.402890	0.197320	0.014725
N50	N	0.902890	0.697320	0.514725
N51	N	0.448038	0.136448	0.010189
N52	N	0.948038	0.636448	0.510189
C53	C	0.926423	-0.103198	0.070926
C54	C	1.426423	0.396802	0.570926
C55	C	0.925362	-0.185842	0.064746
C56	C	1.425362	0.314158	0.564746
C57	C	0.928599	-0.230690	-0.017245
C58	C	1.428599	0.269310	0.482755
C59	C	0.932906	-0.192890	-0.093062
C60	C	1.432906	0.307110	0.406938
C61	C	0.933973	-0.110248	-0.086882
C62	C	1.433973	0.389752	0.413118
C63	C	0.925572	-0.480391	-0.039852
C64	C	1.425572	0.019609	0.460148
C65	C	0.924503	-0.563038	-0.046026
C66	C	1.424503	-0.063038	0.453974
C67	C	0.916960	-0.555984	0.111783
C68	C	1.416960	-0.055984	0.611783
C69	C	0.918023	-0.473341	0.117956
C70	C	1.418023	0.026659	0.617956
C71	C	0.922333	-0.435549	0.042139
C72	C	1.422333	0.064451	0.542139
C73	C	0.927512	-0.315164	-0.023563
C74	C	1.427512	0.184836	0.476437
C75	C	0.923426	-0.351076	0.048458
C76	C	1.423426	0.148924	0.548458
C77	C	1.068803	0.170170	0.012697
C78	C	1.568803	0.670170	0.512697
C79	C	1.155814	0.177235	0.013219
C80	C	1.655814	0.677235	0.513219
C81	C	0.919063	0.311214	0.023223
C82	C	1.419063	0.811214	0.523223
C83	C	0.920199	0.399168	0.029785
C84	C	1.420199	0.899168	0.529785
N85	N	0.915629	0.176110	0.218441
N86	N	1.415629	0.676110	0.718441
N87	N	0.935303	0.157648	-0.193534
N88	N	1.435303	0.657648	0.306466
C89	C	0.967016	0.127744	0.260226
C90	C	1.467016	0.627744	0.760226
C91	C	0.962678	0.131830	0.351339
C92	C	1.462678	0.631830	0.851339
C93	C	0.906956	0.184288	0.400665
C94	C	1.406956	0.684288	0.900665
C95	C	0.855564	0.232656	0.358874
C96	C	1.355564	0.732656	0.858874
C97	C	0.859898	0.228564	0.267762
C98	C	1.359898	0.728564	0.767762
C99	C	0.888246	0.201925	0.673563
C100	C	1.388246	0.701925	1.173563
C101	C	0.883916	0.206015	0.764680
C102	C	1.383916	0.706015	1.264680
C103	C	0.991030	0.105188	0.757140
C104	C	1.491030	0.605188	1.257140
C105	C	0.995363	0.101105	0.666027
C106	C	1.495363	0.601105	1.166027
C107	C	0.943968	0.149470	0.624243
C108	C	1.443968	0.649470	1.124243
N109	N	0.902522	0.188468	0.493797
N110	N	1.402522	0.688468	0.993797
N111	N	0.948398	0.145285	0.531112
N112	N	1.448398	0.645285	1.031112
H113	H	0.180984	0.048120	0.003586
H114	H	0.680984	0.548120	0.503586
H115	H	0.145836	0.307589	0.022951
H116	H	0.645836	0.807589	0.522951
C117	C	0.719541	0.006695	0.000512
C118	C	1.219541	0.506695	0.500512
N119	N	0.761435	-0.049798	-0.003690
N120	N	1.261435	0.450202	0.496310
H121	H	0.923774	-0.066688	0.137692
H122	H	1.423774	0.433312	0.637692
C123	C	0.507185	0.293080	0.021886
C124	C	1.007185	0.793080	0.521886
N125	N	0.465299	0.349581	0.026119
N126	N	0.965299	0.849581	0.526119
C127	C	0.303072	0.341025	0.025443
C128	C	0.803072	0.841025	0.525443
N129	N	0.328917	0.403024	0.030064
N130	N	0.828917	0.903024	0.530064
H131	H	1.012393	0.085031	0.220071
H132	H	1.512393	0.585031	0.720071
H133	H	0.838539	0.248735	0.804838
H134	H	1.338539	0.748735	1.304838
C135	C	0.803375	0.281778	0.221800
C136	C	1.303375	0.781778	0.721800
N137	N	0.760800	0.321860	0.187182
N138	N	1.260800	0.821860	0.687182
C139	C	0.920620	-0.227411	0.148146
C140	C	1.420620	0.272589	0.648146
N141	N	0.917046	-0.258720	0.210966
N142	N	1.417046	0.241280	0.710966
H143	H	1.004520	0.092446	0.385360
H144	H	1.504520	0.592446	0.885360
C145	C	0.914460	-0.424014	0.208153
C146	C	1.414460	0.075986	0.708153
N147	N	0.911773	-0.386861	0.276090
N148	N	1.411773	0.113139	0.776090
C149	C	1.056657	0.043393	0.611774
C150	C	1.556657	0.543393	1.111774
N151	N	1.102825	-0.000075	0.570911
N152	N	1.602825	0.499925	1.070911
H153	H	0.935547	-0.229412	-0.159821
H154	H	1.435547	0.270588	0.340179
H155	H	0.937478	-0.079478	-0.148616
H156	H	1.437478	0.420522	0.351384
C157	C	0.343743	0.040692	0.003042
C158	C	0.843743	0.540692	0.503042
N159	N	0.385631	-0.015806	-0.001171
N160	N	0.885631	0.484194	0.498829
C161	C	0.928033	-0.612367	-0.136227
C162	C	1.428033	-0.112367	0.363773
N163	N	0.930680	-0.649521	-0.204162
N164	N	1.430680	-0.149521	0.295838
H165	H	0.556772	0.014123	0.001057
H166	H	1.056772	0.514123	0.501057
H167	H	0.846399	0.241308	0.639550
H168	H	1.346399	0.741308	1.139550
H169	H	0.929081	-0.449631	-0.101588
H170	H	1.429081	0.050369	0.398412
C171	C	1.047554	0.051983	0.803109
C172	C	1.547554	0.551983	1.303109
N173	N	1.090128	0.011904	0.837733
N174	N	1.590128	0.511904	1.337733
H175	H	0.810190	0.275365	0.399040
H176	H	1.310190	0.775365	0.899040
H177	H	0.669945	0.285648	0.021321
H178	H	1.169945	0.785648	0.521321
H179	H	0.913452	-0.586763	0.173509
H180	H	1.413452	-0.086763	0.673509
H181	H	0.920795	-0.314558	0.115215
H182	H	1.420795	0.185442	0.615215
H183	H	0.930146	-0.351688	-0.090321
H184	H	1.430146	0.148312	0.409679
