data_functionalizedCrystal
_audit_creation_method	'MofGen! by Chris Wilmer'
_symmetry_space_group_name_H-M	'P1'
_symmetry_Int_Tables_number	1
_symmetry_cell_setting	triclinic
loop_
_symmetry_equiv_pos_as_xyz
  x,y,z
_cell_length_a	6.817900
_cell_length_b	11.102237
_cell_length_c	16.305550
_cell_angle_alpha	93.872939
_cell_angle_beta	103.455250
_cell_angle_gamma	108.604801
loop_
_atom_site_label
_atom_site_type_symbol
_atom_site_fract_x
_atom_site_fract_y
_atom_site_fract_z
V1	V	-4.052582	-0.176912	-0.263033
O2	O	-4.012740	0.007398	-0.258024
O3	O	-4.029758	-0.349725	-0.261236
O4	O	-4.003655	-0.174675	-0.377750
O5	O	-4.039024	-0.168864	-0.140703
V6	V	-4.532964	-0.154809	-0.248401
O7	O	-4.320730	-0.225396	-0.295129
O8	O	-4.715013	-0.106325	-0.216305
O9	O	-4.332580	0.018004	-0.250199
O10	O	-4.690202	-0.339119	-0.253410
O11	O	-4.663918	-0.162857	-0.370731
O12	O	-4.358684	-0.157046	-0.133684
C13	C	-3.880998	-0.391838	-0.257087
C14	C	-3.943621	-0.533118	-0.256382
C15	C	-4.015905	-0.617952	-0.333307
C16	C	-4.074738	-0.750700	-0.332644
C17	C	-3.989001	-0.713766	-0.178124
C18	C	-3.930156	-0.581021	-0.178788
C19	C	-4.065414	-0.639277	-0.422519
C20	C	-4.124246	-0.772025	-0.421856
C21	C	-3.847699	-0.168543	-0.405711
C22	C	-3.889149	-0.167857	-0.499493
C23	C	-4.039840	-0.165201	-0.840239
C24	C	-3.802618	-0.157315	-0.799310
C25	C	-3.759609	-0.158554	-0.701815
C26	C	-3.965079	-0.166518	-0.671191
C27	C	-4.150797	-0.292034	-0.721818
C28	C	-4.192555	-0.291324	-0.819368
C29	C	-4.077234	-0.048574	-0.794394
C30	C	-4.029157	-0.047581	-0.696551
C31	C	-3.922841	-0.167267	-0.575653
C32	C	-4.082089	-0.164461	-0.935778
C33	C	-4.144683	0.060110	-0.254345
C34	C	-4.061299	0.201389	-0.255055
C35	C	-4.177982	-0.163183	-0.105719
C36	C	-4.115770	-0.163862	-0.011936
H37	H	-3.871278	-0.511951	-0.116147
Cl38	Cl	-3.972082	-0.773996	-0.080582
H39	H	-3.770001	-0.241106	-0.830823
H40	H	-3.971675	0.046528	-0.807761
H41	H	-3.705800	-0.243312	-0.685522
Cl42	Cl	-4.157042	-0.427635	-0.866280
H43	H	-4.299766	-0.821218	-0.459158
H44	H	-3.927909	-0.606463	-0.453723
H45	H	-4.012872	-0.814680	-0.446019
Cl46	Cl	-4.463458	-0.308293	-0.862587
H47	H	-4.176212	-0.046019	-0.675204
H48	H	-3.682982	-0.066643	-0.811673
H49	H	-4.207525	-0.609857	-0.453739
Cl50	Cl	-3.820930	0.095760	-0.643479
Cl51	Cl	-3.543512	-0.019245	-0.647737
Cl52	Cl	-4.389650	-0.308045	-0.692624
Cl53	Cl	-4.085520	-0.428387	-0.695865
Cl54	Cl	-4.343953	-0.055763	-0.835798
