data_functionalizedCrystal
_audit_creation_method	'MofGen! by Chris Wilmer'
_symmetry_space_group_name_H-M	'P1'
_symmetry_Int_Tables_number	1
_symmetry_cell_setting	triclinic
loop_
_symmetry_equiv_pos_as_xyz
  x,y,z
_cell_length_a	16.959454
_cell_length_b	16.959455
_cell_length_c	16.959447
_cell_angle_alpha	89.985678
_cell_angle_beta	89.973264
_cell_angle_gamma	90.017022
loop_
_atom_site_label
_atom_site_type_symbol
_atom_site_fract_x
_atom_site_fract_y
_atom_site_fract_z
Zn1	Zn	-0.314730	1.208384	-0.446928
Zn2	Zn	-0.446923	1.208306	-0.314758
Zn3	Zn	-0.314755	1.076212	-0.314766
Zn4	Zn	-0.446864	1.076177	-0.446897
O5	O	-0.380818	1.142270	-0.380837
O6	O	-0.332280	1.318984	-0.429406
O7	O	-0.429426	1.190766	-0.204148
O8	O	-0.204141	1.093792	-0.332314
O9	O	-0.429402	1.318927	-0.332301
O10	O	-0.204123	1.190898	-0.429413
O11	O	-0.332323	1.093717	-0.204154
O12	O	-0.332265	0.965597	-0.332283
O13	O	-0.429301	1.093732	-0.557512
O14	O	-0.429325	0.965571	-0.429359
O15	O	-0.332223	1.190864	-0.557535
O16	O	-0.557526	1.190732	-0.332270
O17	O	-0.557482	1.093657	-0.429352
C18	C	-0.380792	0.936904	-0.380819
C19	C	-0.380800	0.849047	-0.380830
C20	C	-0.586184	1.142204	-0.380824
C21	C	-0.674041	1.142248	-0.380844
C22	C	-0.330238	0.477560	-0.330395
C23	C	-0.431463	0.477582	-0.431324
C24	C	-0.431452	0.560128	-0.431320
C25	C	-0.380834	0.601394	-0.380851
C26	C	-0.330226	0.560114	-0.330387
C27	C	-0.482064	0.601414	-0.481777
C28	C	-0.482055	0.683965	-0.481773
C29	C	-0.431432	0.725233	-0.431308
C30	C	-0.380822	0.683948	-0.380843
C31	C	-0.330204	0.725213	-0.330374
C32	C	-0.279589	0.683930	-0.279913
C33	C	-0.279603	0.601381	-0.279922
C34	C	-0.431418	0.807781	-0.431299
C35	C	-0.330193	0.807767	-0.330366
C36	C	-1.045524	1.091796	-0.431382
C37	C	-1.045509	1.192963	-0.330373
C38	C	-0.962963	1.192936	-0.330365
C39	C	-0.921694	1.142337	-0.380867
C40	C	-0.962970	1.091765	-0.431375
C41	C	-0.921680	1.243501	-0.279852
C42	C	-0.839130	1.243475	-0.279842
C43	C	-0.797859	1.192879	-0.330348
C44	C	-0.839140	1.142306	-0.380859
C45	C	-0.797871	1.091707	-0.431360
C46	C	-0.839151	1.041137	-0.481876
C47	C	-0.921699	1.041170	-0.481881
C48	C	-0.715310	1.192847	-0.330343
C49	C	-0.715317	1.091676	-0.431353
C50	C	-0.174650	1.142358	-0.380868
C51	C	-0.086793	1.142395	-0.380881
C52	C	-0.380753	1.142303	-0.587006
C53	C	-0.380725	1.142317	-0.674862
C54	C	-0.380845	1.348438	-0.380856
C55	C	-0.380856	1.436295	-0.380864
C56	C	-0.431185	1.091839	-1.046328
C57	C	-0.330097	1.192983	-1.046348
C58	C	-0.330114	1.192962	-0.963802
C59	C	-0.380668	1.142380	-0.922515
C60	C	-0.431205	1.091818	-0.963775
C61	C	-0.279584	1.243529	-0.922536
C62	C	-0.279599	1.243510	-0.839985
C63	C	-0.330149	1.192923	-0.798697
C64	C	-0.380688	1.142359	-0.839962
C65	C	-0.431242	1.091776	-0.798675
C66	C	-0.481777	1.041207	-0.839938
C67	C	-0.481756	1.041231	-0.922487
C68	C	-0.330171	1.192899	-0.716149
C69	C	-0.431262	1.091755	-0.716122
C70	C	-0.380826	1.142283	-0.175471
C71	C	-0.380631	1.142422	-0.087615
H72	H	-0.238379	0.717539	-0.238818
H73	H	-0.288968	0.841360	-0.289273
C74	C	-1.070999	0.957936	-0.469778
C75	C	-1.090891	1.036211	-0.486909
H76	H	-1.099003	0.923621	-0.504063
H77	H	-1.084575	0.946411	-0.416669
H78	H	-1.015927	0.950687	-0.476996
H79	H	-1.145962	1.043461	-0.479685
H80	H	-1.077320	1.047739	-0.540031
C81	C	-0.179670	1.343510	-0.914270
C82	C	-0.224018	1.299128	-0.967917
H83	H	-0.145368	1.377838	-0.942290
H84	H	-0.149439	1.309080	-0.882078
H85	H	-0.214130	1.373723	-0.882066
H86	H	-0.189559	1.268910	-1.000117
H87	H	-0.254251	1.333562	-1.000122
C88	C	-0.526687	0.996275	-0.713382
C89	C	-0.537345	0.985607	-0.794550
H90	H	-0.560989	0.961947	-0.685361
H91	H	-0.538269	1.049370	-0.699863
H92	H	-0.473577	0.984729	-0.699875
H93	H	-0.590454	0.997159	-0.808059
H94	H	-0.525768	0.932499	-0.808075
C95	C	-0.520713	0.709412	-0.615553
C96	C	-0.537681	0.729340	-0.537246
H97	H	-0.555050	0.737429	-0.649801
H98	H	-0.527968	0.654349	-0.622771
H99	H	-0.467614	0.722954	-0.627198
H100	H	-0.590779	0.715792	-0.525600
H101	H	-0.530432	0.784415	-0.530026
C102	C	-0.947175	0.907308	-0.520269
C103	C	-0.967071	0.985582	-0.537401
H104	H	-0.975184	0.872992	-0.554548
H105	H	-0.960743	0.895786	-0.467157
H106	H	-0.892104	0.900060	-0.527496
H107	H	-1.022141	0.992831	-0.530169
H108	H	-0.953509	0.997108	-0.590526
H109	H	-0.238450	1.284686	-0.806396
H110	H	-1.079115	1.234154	-0.289252
H111	H	-0.238397	0.567761	-0.238838
H112	H	-0.288943	1.234170	-1.079968
H113	H	-0.472630	0.841390	-0.472381
H114	H	-0.289028	1.234074	-0.682556
C115	C	-0.291565	0.452111	-0.196618
C116	C	-0.274604	0.432188	-0.274928
H117	H	-0.257214	0.424102	-0.162377
H118	H	-0.344652	0.438561	-0.184966
H119	H	-0.284316	0.507182	-0.189401
H120	H	-0.281858	0.377118	-0.282147
H121	H	-0.221503	0.445732	-0.286584
H122	H	-0.522901	1.000063	-0.956091
H123	H	-0.472327	1.050665	-1.079928
H124	H	-0.955288	1.284690	-0.238731
H125	H	-0.523280	0.567810	-0.522860
C126	C	-0.476424	0.351051	-0.476147
C127	C	-0.487101	0.432225	-0.486797
H128	H	-0.510771	0.323049	-0.510400
H129	H	-0.487933	0.337510	-0.423026
H130	H	-0.423329	0.337542	-0.487805
H131	H	-0.540195	0.445734	-0.475134
H132	H	-0.475598	0.445771	-0.539930
C133	C	-0.622434	1.080590	-0.537660
C134	C	-0.669957	1.036057	-0.486868
H135	H	-0.594434	1.046252	-0.571935
H136	H	-0.586038	1.110691	-0.507575
H137	H	-0.654604	1.115021	-0.567925
H138	H	-0.637786	1.001630	-0.456599
H139	H	-0.706357	1.005943	-0.516956
C140	C	-0.746256	1.030059	-0.588172
C141	C	-0.793781	0.985521	-0.537387
H142	H	-0.718249	0.995724	-0.622444
H143	H	-0.709867	1.060164	-0.558083
H144	H	-0.778426	1.064487	-0.618442
H145	H	-0.761611	0.951098	-0.507113
H146	H	-0.830174	0.955404	-0.567480
H147	H	-0.805524	1.284651	-0.238711
H148	H	-0.681704	1.234016	-0.289211
H149	H	-0.472422	1.050557	-0.682512
