data_functionalizedCrystal
_audit_creation_method	'MofGen! by Chris Wilmer'
_symmetry_space_group_name_H-M	'P1'
_symmetry_Int_Tables_number	1
_symmetry_cell_setting	triclinic
loop_
_symmetry_equiv_pos_as_xyz
  x,y,z
_cell_length_a	15.995350
_cell_length_b	14.971486
_cell_length_c	13.448316
_cell_angle_alpha	89.996136
_cell_angle_beta	90.001430
_cell_angle_gamma	96.446748
loop_
_atom_site_label
_atom_site_type_symbol
_atom_site_fract_x
_atom_site_fract_y
_atom_site_fract_z
O1	O	1.111102	-0.115292	0.082608
O2	O	0.867341	-0.129529	0.082629
O3	O	0.995755	0.007797	0.082611
O4	O	0.982688	-0.252618	0.082626
O5	O	0.995742	0.007798	-0.082773
O6	O	0.867328	-0.129528	-0.082755
O7	O	1.111089	-0.115291	-0.082776
Cu8	Cu	0.989207	-0.122409	-0.097866
Cu9	Cu	0.989222	-0.122411	0.097719
O10	O	0.982675	-0.252617	-0.082758
C11	C	0.836139	-0.128940	-0.000061
C12	C	0.743187	-0.127175	-0.000053
N13	N	0.989203	-0.122408	-0.235431
C14	C	0.995164	0.041122	-0.000081
C15	C	0.993413	0.140417	-0.000080
C16	C	0.405433	-0.120838	-0.000074
C17	C	0.452769	-0.023037	-0.000449
C18	C	0.549461	-0.024802	-0.000069
C19	C	0.572997	-0.123982	-0.000064
C20	C	0.531965	-0.172221	0.094377
C21	C	0.435327	-0.169764	0.094449
C22	C	0.434976	-0.171784	-0.093623
C23	C	0.531921	-0.171760	-0.094865
C24	C	0.667696	-0.125763	-0.000055
C25	C	0.310733	-0.119060	-0.000076
C26	C	1.142291	-0.115880	-0.000084
C27	C	1.235243	-0.117645	-0.000085
C28	C	0.983266	-0.285942	-0.000064
C29	C	0.985017	-0.385237	-0.000059
C30	C	1.068852	0.197728	-0.000087
C31	C	1.067202	0.291026	-0.000077
C32	C	0.990111	0.327010	-0.000067
C33	C	0.914666	0.269691	-0.000057
C34	C	0.916317	0.176395	-0.000060
C35	C	0.911229	0.464150	-0.000053
C36	C	0.909577	0.557452	-0.000052
C37	C	1.062114	0.578780	-0.000070
C38	C	1.063766	0.485484	-0.000073
C39	C	0.988320	0.428172	-0.000065
C40	C	1.040035	-0.176691	-0.287468
C41	C	1.040046	-0.176687	-0.391571
C42	C	0.989219	-0.122404	-0.443635
C43	C	0.938384	-0.068115	-0.391591
C44	C	0.938379	-0.068115	-0.287489
C45	C	0.938397	-0.068121	-0.608571
C46	C	0.938401	-0.068122	-0.712679
C47	C	1.040064	-0.176693	-0.712652
C48	C	1.040059	-0.176693	-0.608551
C49	C	0.989223	-0.122405	-0.556514
N50	N	0.989234	-0.122405	0.235283
H51	H	0.577847	0.013117	-0.067769
Cl52	Cl	0.385646	-0.280621	0.101074
Cl53	Cl	1.103976	-0.244937	-0.778070
Cl54	Cl	0.553910	-0.284710	0.099830
Cl55	Cl	0.816381	0.392101	-0.000042
H56	H	0.559197	-0.136546	-0.164732
Cl57	Cl	0.812661	0.602688	-0.000040
Cl58	Cl	1.103935	-0.244937	-0.222026
Cl59	Cl	1.103937	-0.244956	-0.543100
H60	H	1.126540	0.456189	-0.000088
Cl61	Cl	0.407011	-0.115452	0.203438
H62	H	0.434203	0.016057	-0.068177
Cl63	Cl	0.874481	0.000139	-0.222071
Cl64	Cl	0.874501	0.000143	-0.543154
H65	H	1.128633	0.337686	-0.000085
Cl66	Cl	0.422463	0.037049	0.103527
H67	H	0.414403	-0.139810	-0.165207
Cl68	Cl	0.874509	0.000126	-0.778130
Cl69	Cl	1.156961	0.650829	-0.000075
H70	H	0.577286	0.013372	0.067744
Cl71	Cl	0.874488	0.000128	-0.457043
H72	H	0.560311	-0.138717	0.164658
Cl73	Cl	0.555746	-0.283430	-0.103665
H74	H	0.403286	-0.243892	-0.094259
Cl75	Cl	0.817750	0.314929	-0.000032
Cl76	Cl	1.165773	0.152501	-0.000110
Cl77	Cl	1.103951	-0.244934	-0.456985
Cl78	Cl	0.821474	0.104346	-0.000047
