data_functionalizedCrystal
_audit_creation_method	'MofGen! by Chris Wilmer'
_symmetry_space_group_name_H-M	'P1'
_symmetry_Int_Tables_number	1
_symmetry_cell_setting	triclinic
loop_
_symmetry_equiv_pos_as_xyz
  x,y,z
_cell_length_a	16.992694
_cell_length_b	16.992695
_cell_length_c	16.053802
_cell_angle_alpha	92.741074
_cell_angle_beta	87.249047
_cell_angle_gamma	90.668223
loop_
_atom_site_label
_atom_site_type_symbol
_atom_site_fract_x
_atom_site_fract_y
_atom_site_fract_z
O1	O	1.053959	0.163815	-0.069325
O2	O	0.825560	0.161983	-0.069350
O3	O	0.938844	0.048699	-0.069331
O4	O	0.940676	0.277099	-0.069344
O5	O	0.932607	0.054907	0.069527
O6	O	0.819323	0.168191	0.069508
O7	O	1.047722	0.170023	0.069533
Zn8	Zn	0.932532	0.170093	0.091567
Zn9	Zn	0.940750	0.161913	-0.091384
O10	O	0.934438	0.283307	0.069514
C11	C	0.793082	0.162731	0.000076
C12	C	0.705597	0.155702	0.000067
C13	C	0.933370	0.022443	0.000098
C14	C	0.926341	-0.065042	0.000097
C15	C	0.659607	0.223520	0.000064
C16	C	0.577405	0.216911	0.000076
C17	C	0.541197	0.142484	0.000085
C18	C	0.587193	0.074661	0.000091
C19	C	0.669393	0.081270	0.000085
C20	C	0.295881	0.115090	0.000109
C21	C	0.213676	0.108486	0.000112
C22	C	0.203893	0.250737	0.000099
C23	C	0.286095	0.257339	0.000088
C24	C	0.332084	0.189517	0.000098
N25	N	0.457174	0.135727	0.000094
N26	N	0.416105	0.196275	0.000094
C27	C	0.994158	-0.111032	0.000105
C28	C	0.987550	-0.193233	0.000096
C29	C	0.913123	-0.229442	0.000086
C30	C	0.845300	-0.183446	0.000075
C31	C	0.851910	-0.101246	0.000078
C32	C	0.885729	-0.474757	0.000071
C33	C	0.879124	-0.556962	0.000071
C34	C	1.021375	-0.566745	0.000091
C35	C	1.027978	-0.484543	0.000099
C36	C	0.960155	-0.438554	0.000083
N37	N	0.906366	-0.313465	0.000079
N38	N	0.966913	-0.354533	0.000084
C39	C	1.080201	0.169275	0.000105
C40	C	1.167685	0.176304	0.000109
C41	C	0.939913	0.309563	0.000084
C42	C	0.946942	0.397047	0.000079
N43	N	0.926930	0.175675	0.216427
N44	N	0.946358	0.156325	-0.216243
C45	C	0.975152	0.127492	0.260129
C46	C	0.971241	0.131404	0.347535
C47	C	0.919110	0.183504	0.391237
C48	C	0.870883	0.231689	0.347529
C49	C	0.874791	0.227772	0.260125
C50	C	0.902039	0.200593	0.652644
C51	C	0.898136	0.204508	0.740055
C52	C	0.998493	0.104222	0.740054
C53	C	1.002400	0.100313	0.652648
C54	C	0.954169	0.148494	0.608948
N55	N	0.915113	0.187507	0.480580
N56	N	0.958163	0.144487	0.519606
H57	H	0.539963	0.272136	0.000072
H58	H	1.017605	0.085070	0.224552
H59	H	1.010506	0.092170	0.383116
H60	H	1.088584	-0.455068	0.000108
H61	H	0.855683	0.246937	0.775633
N62	N	0.798846	-0.596019	0.000058
H63	H	0.756883	-0.554413	0.000046
H64	H	0.795326	-0.632211	-0.051419
H65	H	1.076592	-0.604198	0.000102
H66	H	0.166440	0.305954	0.000092
N67	N	1.058627	0.044120	0.605513
H68	H	1.088582	0.014188	0.646462
H69	H	1.027933	0.005789	0.569258
H70	H	1.037759	0.064994	0.775643
H71	H	0.557705	0.014061	0.000110
N72	N	0.174620	0.028207	0.000117
H73	H	0.216226	-0.013756	0.000123
H74	H	0.138419	0.024672	0.051593
H75	H	0.835522	0.267007	0.224543
N76	N	0.325134	0.337621	0.000084
H77	H	0.356716	0.345840	0.051555
H78	H	0.361282	0.341185	-0.051428
N79	N	0.719004	0.008126	0.000083
H80	H	0.751020	0.010002	0.051557
H81	H	0.683545	-0.039988	0.000056
N82	N	0.765024	-0.222495	0.000058
H83	H	0.771126	-0.281547	0.000060
H84	H	0.732808	-0.203690	0.051530
H85	H	0.796685	-0.063801	0.000071
H86	H	0.862769	0.239826	0.617070
H87	H	0.333316	0.059864	0.000118
N88	N	1.074434	-0.071981	0.000125
H89	H	1.116392	-0.113592	0.000127
H90	H	1.082588	-0.040386	-0.051349
H91	H	1.042774	-0.230676	0.000105
H92	H	0.689081	0.284126	0.000056
N93	N	0.812581	-0.425161	0.000058
H94	H	0.764431	-0.460574	0.000055
H95	H	0.809911	-0.388544	0.051535
N96	N	0.814650	0.287878	0.394661
H97	H	0.819492	0.283051	0.456663
H98	H	0.827921	0.343613	0.379370
