data_functionalizedCrystal
_audit_creation_method	'MofGen! by Chris Wilmer'
_symmetry_space_group_name_H-M	'P1'
_symmetry_Int_Tables_number	1
_symmetry_cell_setting	triclinic
loop_
_symmetry_equiv_pos_as_xyz
  x,y,z
_cell_length_a	13.897448
_cell_length_b	13.897449
_cell_length_c	10.686551
_cell_angle_alpha	94.398514
_cell_angle_beta	94.407384
_cell_angle_gamma	90.018519
loop_
_atom_site_label
_atom_site_type_symbol
_atom_site_fract_x
_atom_site_fract_y
_atom_site_fract_z
Zn1	Zn	-0.342075	1.516575	0.713555
Zn2	Zn	-0.092075	1.766575	0.963555
Zn3	Zn	0.157925	2.016575	1.213555
Zn4	Zn	0.407925	2.266575	1.463555
Zn5	Zn	-0.515784	1.504086	0.502545
Zn6	Zn	-0.265784	1.754086	0.752545
Zn7	Zn	-0.015784	2.004086	1.002545
Zn8	Zn	0.234216	2.254086	1.252545
Zn9	Zn	-0.354506	1.342882	0.502557
Zn10	Zn	-0.104506	1.592882	0.752557
Zn11	Zn	0.145494	1.842882	1.002557
Zn12	Zn	0.395494	2.092882	1.252557
Zn13	Zn	-0.503336	1.355241	0.713485
Zn14	Zn	-0.253336	1.605241	0.963485
Zn15	Zn	-0.003336	1.855241	1.213485
Zn16	Zn	0.246664	2.105241	1.463485
O17	O	-0.428925	1.429696	0.608036
O18	O	-0.178925	1.679696	0.858036
O19	O	0.071075	1.929696	1.108036
O20	O	0.321075	2.179696	1.358036
O21	O	-0.365125	1.649901	0.685588
O22	O	-0.115125	1.899901	0.935588
O23	O	0.134875	2.149901	1.185588
O24	O	0.384875	2.399901	1.435588
O25	O	-0.504801	1.472304	0.325964
O26	O	-0.254801	1.722304	0.575964
O27	O	-0.004801	1.972304	0.825964
O28	O	0.245199	2.222304	1.075964
O29	O	-0.217873	1.365977	0.530581
O30	O	0.032127	1.615977	0.780581
O31	O	0.282127	1.865977	1.030581
O32	O	0.532127	2.115977	1.280581
O33	O	-0.492748	1.640726	0.530560
O34	O	-0.242748	1.890726	0.780560
O35	O	0.007252	2.140726	1.030560
O36	O	0.257252	2.390726	1.280560
O37	O	-0.208740	1.493588	0.685600
O38	O	0.041260	1.743588	0.935600
O39	O	0.291260	1.993588	1.185600
O40	O	0.541260	2.243588	1.435600
O41	O	-0.386311	1.353868	0.325973
O42	O	-0.136311	1.603868	0.575973
O43	O	0.113689	1.853868	0.825973
O44	O	0.363689	2.103868	1.075973
O45	O	-0.374241	1.209539	0.530513
O46	O	-0.124241	1.459539	0.780513
O47	O	0.125759	1.709539	1.030513
O48	O	0.375759	1.959539	1.280513
O49	O	-0.471533	1.387041	0.890077
O50	O	-0.221533	1.637041	1.140077
O51	O	0.028467	1.887041	1.390077
O52	O	0.278467	2.137041	1.640077
O53	O	-0.483586	1.218619	0.685481
O54	O	-0.233586	1.468619	0.935481
O55	O	0.016414	1.718619	1.185481
O56	O	0.266414	1.968619	1.435481
O57	O	-0.353055	1.505572	0.890128
O58	O	-0.103055	1.755572	1.140128
O59	O	0.146945	2.005572	1.390128
O60	O	0.396945	2.255572	1.640128
O61	O	-0.649116	1.484288	0.530492
O62	O	-0.399116	1.734288	0.780492
O63	O	-0.149116	1.984288	1.030492
O64	O	0.100884	2.234288	1.280492
O65	O	-0.639971	1.374932	0.685469
O66	O	-0.389971	1.624932	0.935469
O67	O	-0.139971	1.874932	1.185469
O68	O	0.110029	2.124932	1.435469
C69	C	-0.428913	1.179079	0.607992
C70	C	-0.178913	1.429079	0.857992
C71	C	0.071087	1.679079	1.107992
C72	C	0.321087	1.929079	1.357992
C73	C	-0.428929	1.071866	0.608003
C74	C	-0.178929	1.321866	0.858003
C75	C	0.071071	1.571866	1.108003
C76	C	0.321071	1.821866	1.358003
C77	C	-0.428931	0.984797	0.608024
C78	C	-0.178931	1.234797	0.858024
C79	C	0.071069	1.484797	1.108024
C80	C	0.321069	1.734797	1.358024
C81	C	-0.428935	0.875567	0.608062
C82	C	-0.178935	1.125567	0.858062
C83	C	0.071065	1.375567	1.108062
C84	C	0.321065	1.625567	1.358062
C85	C	-0.679542	1.429624	0.607999
C86	C	-0.429542	1.679624	0.857999
C87	C	-0.179542	1.929624	1.107999
C88	C	0.070458	2.179624	1.357999
C89	C	-0.786754	1.429683	0.608026
C90	C	-0.536754	1.679683	0.858026
C91	C	-0.286754	1.929683	1.108026
C92	C	-0.036754	2.179683	1.358026
C93	C	-0.983044	1.429789	0.608105
C94	C	-0.733044	1.679789	0.858105
C95	C	-0.483044	1.929789	1.108105
C96	C	-0.233044	2.179789	1.358105
C97	C	-0.873814	1.429728	0.608065
C98	C	-0.623814	1.679728	0.858065
C99	C	-0.373814	1.929728	1.108065
C100	C	-0.123814	2.179728	1.358065
C101	C	-0.177328	1.429797	0.608100
C102	C	0.072672	1.679797	0.858100
C103	C	0.322672	1.929797	1.108100
C104	C	0.572672	2.179797	1.358100
C105	C	-0.070113	1.429840	0.608127
C106	C	0.179887	1.679840	0.858127
C107	C	0.429887	1.929840	1.108127
C108	C	0.679887	2.179840	1.358127
C109	C	-0.409519	1.449078	0.937169
C110	C	-0.159519	1.699078	1.187169
C111	C	0.090481	1.949078	1.437169
C112	C	0.340481	2.199078	1.687169
C113	C	-0.401249	1.457338	1.077426
C114	C	-0.151249	1.707338	1.327426
C115	C	0.098751	1.957338	1.577426
C116	C	0.348751	2.207338	1.827426
C117	C	-0.428938	1.681292	0.608080
C118	C	-0.178938	1.931292	0.858080
C119	C	0.071062	2.181292	1.108080
C120	C	0.321062	2.431292	1.358080
C121	C	-0.428944	1.788507	0.608100
C122	C	-0.178944	2.038507	0.858100
C123	C	0.071056	2.288507	1.108100
C124	C	0.321056	2.538507	1.358100
C125	C	-0.448186	1.410445	0.280183
C126	C	-0.198186	1.660445	0.530183
C127	C	0.051814	1.910445	0.780183
C128	C	0.301814	2.160445	1.030183
C129	C	-0.456184	1.402372	0.139927
C130	C	-0.206184	1.652372	0.389927
C131	C	0.043816	1.902372	0.639927
C132	C	0.293816	2.152372	0.889927
H133	H	-0.509547	1.348998	1.086136
H134	H	-0.259547	1.598998	1.336136
H135	H	-0.009547	1.848998	1.586136
H136	H	0.240453	2.098998	1.836136
H137	H	-0.347890	1.510723	1.131223
H138	H	-0.097890	1.760723	1.381223
H139	H	0.152110	2.010723	1.631223
H140	H	0.402110	2.260723	1.881223
