data_functionalizedCrystal
_audit_creation_method	'MofGen! by Chris Wilmer'
_symmetry_space_group_name_H-M	'P1'
_symmetry_Int_Tables_number	1
_symmetry_cell_setting	triclinic
loop_
_symmetry_equiv_pos_as_xyz
  x,y,z
_cell_length_a	17.640112
_cell_length_b	14.908932
_cell_length_c	14.908662
_cell_angle_alpha	89.829774
_cell_angle_beta	82.721545
_cell_angle_gamma	105.099652
loop_
_atom_site_label
_atom_site_type_symbol
_atom_site_fract_x
_atom_site_fract_y
_atom_site_fract_z
Zn1	Zn	1.215101	-0.091461	0.224904
Zn2	Zn	1.199828	-0.236878	0.069194
Zn3	Zn	1.075581	-0.116788	0.104744
Zn4	Zn	1.074717	-0.275956	0.246578
O5	O	1.141307	-0.180271	0.161355
O6	O	1.323824	-0.083797	0.180300
O7	O	1.177317	-0.215193	-0.050613
O8	O	1.100842	0.014042	0.126491
O9	O	1.312603	-0.190635	0.065900
O10	O	1.203347	0.032649	0.214772
O11	O	1.086033	-0.126963	-0.024495
O12	O	0.964718	-0.164855	0.147507
O13	O	1.099369	-0.257237	0.368226
O14	O	0.964083	-0.281795	0.251712
O15	O	1.202508	-0.121690	0.352302
O16	O	1.176479	-0.369532	0.086917
O17	O	1.084560	-0.398242	0.217240
C18	C	0.935684	-0.230315	0.205820
C19	C	0.847718	-0.251747	0.224862
C20	C	1.128791	-0.416934	0.150587
C21	C	1.123510	-0.518163	0.145995
C22	C	1.152546	-0.190997	0.393454
C23	C	1.157335	-0.195568	0.492361
C24	C	0.559994	-0.017439	0.016701
C25	C	0.477336	-0.037596	0.034605
C26	C	0.476711	-0.159517	0.142909
C27	C	0.559371	-0.139367	0.125017
C28	C	0.601006	-0.068327	0.061911
C29	C	0.600383	-0.190256	0.170228
C30	C	0.683036	-0.170110	0.152334
C31	C	0.724676	-0.099075	0.089229
C32	C	0.683659	-0.048182	0.044017
C33	C	0.558746	-0.261299	0.233329
C34	C	0.599758	-0.312188	0.278540
C35	C	0.682413	-0.292038	0.260651
C36	C	0.724053	-0.221004	0.197545
C37	C	0.723430	-0.342932	0.305862
C38	C	0.806083	-0.322786	0.287968
C39	C	0.806706	-0.200858	0.179651
C40	C	1.347733	-0.130032	0.116717
C41	C	1.435699	-0.108623	0.097695
C42	C	1.153894	0.057321	0.172179
C43	C	1.159259	0.158569	0.176792
C44	C	1.062582	0.329445	0.093540
C45	C	1.067619	0.424575	0.097871
C46	C	1.174366	0.443961	0.189792
C47	C	1.169329	0.348830	0.185460
C48	C	1.113436	0.291576	0.137331
C49	C	1.108403	0.196445	0.132995
C50	C	1.215145	0.215830	0.224921
C51	C	1.220182	0.310961	0.229252
C52	C	1.130161	-0.169509	-0.069848
C53	C	1.125538	-0.164644	-0.168776
C54	C	1.211603	-0.247943	0.618172
C55	C	1.207108	-0.243652	0.525239
C56	C	1.112051	-0.151775	0.552423
C57	C	1.116546	-0.156067	0.645357
C58	C	1.166324	-0.204151	0.678227
C59	C	1.170822	-0.208437	0.771161
C60	C	1.075761	-0.116567	0.798345
C61	C	1.071267	-0.112275	0.705412
H62	H	0.840609	-0.142997	0.128278
N63	N	1.017586	-0.060413	0.669946
H64	H	1.034112	0.006916	0.686423
H65	H	0.961090	-0.089137	0.697710
N66	N	0.728571	0.028447	-0.024041
H67	H	0.710355	0.013836	-0.085168
H68	H	0.787141	0.033448	-0.028438
N69	N	1.265297	-0.299789	0.653632
H70	H	1.293303	-0.326877	0.601484
H71	H	1.232717	-0.351567	0.697236
N72	N	1.255942	-0.290888	0.460465
H73	H	1.288154	-0.321998	0.495396
H74	H	1.292668	-0.243117	0.415677
N75	N	0.604910	0.059190	-0.051356
H76	H	0.566390	0.088377	-0.077282
H77	H	0.635246	0.032439	-0.101703
N78	N	1.270004	0.175010	0.272172
H79	H	1.302846	0.146139	0.226290
H80	H	1.237702	0.125849	0.318577
N81	N	1.234632	0.505717	0.241718
H82	H	1.230099	0.571725	0.237821
H83	H	1.289609	0.503499	0.214894
N84	N	0.678524	-0.419551	0.373924
H85	H	0.688805	-0.480458	0.353923
H86	H	0.619957	-0.424514	0.378370
N87	N	1.048123	0.134693	0.081082
H88	H	0.993124	0.136844	0.107889
H89	H	1.052718	0.068713	0.084992
H90	H	1.211357	-0.247586	0.797922
N91	N	1.002310	0.267691	0.041620
H92	H	0.947306	0.269839	0.068417
H93	H	1.006907	0.201712	0.045535
N94	N	0.813823	-0.077350	0.069923
H95	H	0.837583	-0.058668	0.127435
H96	H	0.833908	-0.024649	0.023059
N97	N	0.433099	0.017291	-0.014165
H98	H	0.472019	0.065348	-0.056856
H99	H	0.402789	0.049354	0.031461
N100	N	0.431795	-0.236130	0.210973
H101	H	0.450012	-0.221509	0.272097
H102	H	0.442087	-0.297009	0.190901
N103	N	1.026930	-0.069317	0.863117
H104	H	1.037333	-0.079326	0.926978
H105	H	0.968869	-0.096494	0.858453
H106	H	1.071517	-0.112637	0.525644
H107	H	1.265687	0.357588	0.268441
N108	N	0.469598	-0.283040	0.252623
H109	H	0.453530	-0.274079	0.318759
H110	H	0.445670	-0.349588	0.237572
N111	N	1.012770	0.465422	0.050641
H112	H	0.976600	0.414714	0.019496
H113	H	1.045080	0.514635	0.004289
N114	N	0.554850	-0.388811	0.346597
H115	H	0.496266	-0.393854	0.351072
H116	H	0.573129	-0.374145	0.407682
H117	H	0.839476	-0.364224	0.324784
