data_functionalizedCrystal
_audit_creation_method	'MofGen! by Chris Wilmer'
_symmetry_space_group_name_H-M	'P1'
_symmetry_Int_Tables_number	1
_symmetry_cell_setting	triclinic
loop_
_symmetry_equiv_pos_as_xyz
  x,y,z
_cell_length_a	17.699083
_cell_length_b	11.892095
_cell_length_c	17.699083
_cell_angle_alpha	93.880337
_cell_angle_beta	96.716985
_cell_angle_gamma	93.885077
loop_
_atom_site_label
_atom_site_type_symbol
_atom_site_fract_x
_atom_site_fract_y
_atom_site_fract_z
O1	O	1.008916	0.093846	-0.090872
O2	O	0.788539	0.093884	-0.103322
O3	O	0.904953	0.093854	0.013092
O4	O	0.892502	0.093876	-0.207286
O5	O	0.895247	-0.094151	0.003400
O6	O	0.778833	-0.094121	-0.113014
O7	O	0.999210	-0.094159	-0.100563
Zn8	Zn	0.887480	-0.123990	-0.108327
Zn9	Zn	0.900269	0.123715	-0.095558
O10	O	0.882796	-0.094129	-0.216977
C11	C	0.755490	-0.000114	-0.107722
C12	C	0.671472	-0.000100	-0.106382
N13	N	0.878758	-0.293042	-0.117041
C14	C	0.622852	-0.000094	-0.174715
C15	C	0.543907	-0.000109	-0.173454
C16	C	0.513586	-0.000122	-0.103858
C17	C	0.562213	-0.000132	-0.035520
C18	C	0.641155	-0.000125	-0.036783
C19	C	0.243848	-0.000160	-0.030426
C20	C	0.164900	-0.000163	-0.029168
C21	C	0.146601	-0.000144	-0.167097
C22	C	0.225543	-0.000137	-0.168360
C23	C	0.274162	-0.000153	-0.100023
C24	C	0.359762	-0.000139	-0.101391
C25	C	0.427988	-0.000128	-0.102488
C26	C	0.969691	-0.529713	-0.026159
C27	C	0.963600	-0.648053	-0.032256
C28	C	0.860481	-0.648065	-0.135327
C29	C	0.866572	-0.529725	-0.129230
C30	C	0.921180	-0.470553	-0.074645
C31	C	0.927274	-0.352210	-0.068553
C32	C	0.824152	-0.352224	-0.171620
C33	C	0.818061	-0.470565	-0.177716
C34	C	1.032260	-0.000158	-0.096164
C35	C	1.116277	-0.000165	-0.097503
C36	C	0.899654	-0.000149	0.036443
C37	C	0.898315	-0.000149	0.120461
N38	N	0.908997	0.292767	-0.086838
C39	C	0.888095	-0.000124	-0.240328
C40	C	0.889434	-0.000116	-0.324346
C41	C	0.966648	-0.000162	0.169081
C42	C	0.965386	-0.000152	0.248025
C43	C	0.895791	-0.000137	0.278347
C44	C	0.827453	-0.000120	0.229720
C45	C	0.828716	-0.000122	0.150778
C46	C	0.822358	-0.000110	0.548084
C47	C	0.821100	-0.000111	0.627032
C48	C	0.959029	-0.000140	0.645331
C49	C	0.960292	-0.000142	0.566389
C50	C	0.891955	-0.000119	0.517770
C51	C	0.893324	-0.000128	0.432170
C52	C	0.894420	-0.000136	0.363944
H53	H	0.504323	-0.000102	-0.229098
N54	N	0.986154	-0.288372	-0.009674
H55	H	1.022142	-0.239259	-0.036015
H56	H	1.015906	-0.343873	0.020108
H57	H	0.770787	-0.000101	0.254415
H58	H	0.647533	-0.000082	-0.231388
N59	N	0.748654	-0.000093	0.495652
H60	H	0.749700	0.069606	0.466086
H61	H	0.704419	-0.000128	0.526896
N62	N	0.759171	-0.534399	-0.236587
H63	H	0.768852	-0.513801	-0.289232
H64	H	0.706556	-0.513791	-0.226817
H65	H	0.773072	-0.000111	0.111192
N66	N	0.801585	-0.711911	-0.194186
H67	H	0.827919	-0.761010	-0.230184
H68	H	0.771787	-0.656417	-0.223929
N69	N	1.035354	-0.000167	0.533684
H70	H	1.078453	-0.000173	0.576465
H71	H	1.042480	0.069527	0.504918
H72	H	0.784653	-0.304043	-0.211103
H73	H	1.023321	-0.000182	0.144400
N74	N	1.039087	-0.000173	0.300466
H75	H	1.083366	-0.000193	0.269278
H76	H	1.037962	-0.069869	0.330028
H77	H	1.014672	-0.000152	0.684926
N78	N	0.746033	-0.000101	0.659738
H79	H	0.702932	-0.000087	0.616960
H80	H	0.746107	0.069592	0.695687
H81	H	0.250226	-0.000121	-0.225032
H82	H	0.140216	-0.000176	0.027508
N83	N	0.094161	-0.000130	-0.240808
H84	H	0.039550	-0.000140	-0.229452
H85	H	0.100375	-0.069817	-0.274740
N86	N	0.296281	-0.000185	0.043277
H87	H	0.265091	-0.000192	0.087554
H88	H	0.333029	0.069508	0.049357
H89	H	1.014160	-0.481534	0.018281
N90	N	0.529512	-0.000164	0.039545
H91	H	0.472125	-0.000167	0.029977
H92	H	0.550898	0.069525	0.073038
H93	H	1.003101	-0.696218	0.007227
N94	N	0.693599	-0.000141	0.036918
H95	H	0.662413	-0.000149	0.081199
H96	H	0.730345	0.069555	0.042995
