data_functionalizedCrystal
_audit_creation_method	'MofGen! by Chris Wilmer'
_symmetry_space_group_name_H-M	'P1'
_symmetry_Int_Tables_number	1
_symmetry_cell_setting	triclinic
loop_
_symmetry_equiv_pos_as_xyz
  x,y,z
_cell_length_a	14.560438
_cell_length_b	31.640172
_cell_length_c	14.560438
_cell_angle_alpha	90.002813
_cell_angle_beta	60.005846
_cell_angle_gamma	59.997712
loop_
_atom_site_label
_atom_site_type_symbol
_atom_site_fract_x
_atom_site_fract_y
_atom_site_fract_z
Zr1	Zr	1.005080	0.407202	-0.120260
O2	O	1.196684	0.339717	-0.266899
O3	O	0.813490	0.427887	-0.075327
O4	O	1.005075	0.427892	-0.266901
O5	O	1.005098	0.339710	0.075816
O6	O	1.005056	0.497449	-0.266881
O7	O	1.005099	0.339711	-0.075324
O8	O	0.662345	0.497440	0.075811
O9	O	1.347809	0.339720	-0.266877
O10	O	0.892275	0.488621	-0.056125
O11	O	0.892289	0.436711	0.056654
O12	O	1.117855	0.436717	-0.168900
O13	O	1.117869	0.384806	-0.056122
Zr14	Zr	1.005049	0.518135	0.120823
Zr15	Zr	1.005050	0.518137	-0.120228
Zr16	Zr	1.005080	0.407199	0.120790
Zr17	Zr	1.246108	0.407206	-0.120225
Zr18	Zr	0.764022	0.518130	0.120787
O19	O	1.196640	0.497450	0.075889
O20	O	1.196641	0.497453	-0.266853
O21	O	1.196683	0.339714	0.075844
O22	O	0.813446	0.585620	0.267462
O23	O	0.813446	0.585623	-0.075281
O24	O	0.813489	0.427884	0.267416
O25	O	1.005031	0.585626	-0.075253
O26	O	1.005055	0.497444	0.267464
O27	O	1.005074	0.427887	0.267444
O28	O	1.005031	0.585625	0.075887
O29	O	1.347785	0.427898	-0.266851
O30	O	0.662344	0.497438	0.267414
O31	O	0.662320	0.585617	0.267439
O32	O	0.662321	0.585619	0.075837
O33	O	1.347809	0.339718	-0.075274
O34	O	1.347785	0.427897	-0.075248
O35	O	0.892274	0.488619	0.169463
O36	O	0.892260	0.540530	0.056684
O37	O	1.117841	0.488626	-0.056092
O38	O	1.117855	0.436715	0.056687
C39	C	0.703576	0.462663	0.000237
C40	C	0.601253	0.462661	0.000222
C41	C	0.636391	0.424345	-0.083010
C42	C	0.540202	0.424353	-0.082954
C43	C	0.373739	0.500995	0.083577
C44	C	0.469927	0.500989	0.083515
C45	C	0.767717	0.386017	-0.166303
C46	C	0.802861	0.347698	-0.249541
C47	C	0.706672	0.347706	-0.249485
C48	C	0.575339	0.386034	-0.166190
C49	C	1.005103	0.323905	0.000241
C50	C	1.005116	0.276810	0.000228
C51	C	0.887302	0.011897	0.059172
C52	C	0.887279	-0.165088	0.059194
O53	O	0.787136	-0.164931	0.109300
N54	N	1.005029	-0.214311	0.000325
C55	C	1.122793	-0.219287	-0.058548
O56	O	1.222946	-0.265216	-0.108610
C57	C	1.122814	-0.042303	-0.058563
C58	C	1.005057	0.006920	0.000301
C59	C	0.769553	0.061118	0.118032
C60	C	0.769560	0.105361	0.118021
C61	C	0.887315	0.100384	0.059150
C62	C	1.005063	0.051163	0.000289
C63	C	1.240577	-0.047279	-0.117429
C64	C	1.240572	-0.003028	-0.117425
C65	C	1.122814	0.046195	-0.058561
C66	C	1.122825	0.090430	-0.058593
N67	N	1.005075	0.139653	0.000276
C68	C	0.887320	0.144630	0.059148
C69	C	1.122774	-0.312205	-0.058538
C70	C	1.122769	-0.356451	-0.058536
C71	C	0.887254	-0.302248	0.059208
C72	C	0.887261	-0.258002	0.059199
C73	C	1.005024	-0.262981	0.000331
C74	C	0.887343	0.237542	0.059119
C75	C	0.887361	0.281787	0.059099
C76	C	1.122874	0.227581	-0.058640
C77	C	1.122858	0.183340	-0.058625
C78	C	1.005082	0.188324	0.000263
O79	O	1.222916	0.090313	-0.108662
O80	O	0.787182	0.190563	0.109223
C81	C	0.887295	-0.032346	0.059183
C82	C	1.005043	-0.081567	0.000323
C83	C	1.122798	-0.086544	-0.058548
C84	C	1.005038	-0.125813	0.000325
C85	C	0.887283	-0.120835	0.059196
C86	C	0.769533	-0.071612	0.118065
C87	C	0.769540	-0.027369	0.118054
C88	C	1.240548	-0.135767	-0.117418
C89	C	1.240531	-0.180008	-0.117403
C90	C	1.122777	-0.175031	-0.058531
C91	C	1.306554	0.462674	0.000326
C92	C	1.408876	0.462676	0.000341
C93	C	1.005065	0.462671	-0.301236
C94	C	1.005066	0.462672	-0.403568
C95	C	1.005027	0.601432	0.000322
C96	C	1.005014	0.648527	0.000335
C97	C	1.005061	0.500989	-0.451641
C98	C	1.005055	0.500987	-0.547790
C99	C	1.005065	0.424345	-0.547788
C100	C	1.005061	0.424350	-0.451636
C101	C	1.005065	0.539311	-0.403574
C102	C	1.005061	0.577631	-0.451647
C103	C	1.005056	0.577628	-0.547796
C104	C	1.005054	0.539306	-0.595872
C105	C	1.005064	0.462665	0.301799
C106	C	1.005064	0.462664	0.404131
C107	C	0.703538	0.601426	0.000277
C108	C	0.601202	0.648519	0.000276
C109	C	0.703575	0.462660	0.301754
C110	C	0.601253	0.462657	0.404072
C111	C	0.703537	0.601423	0.301795
C112	C	0.601202	0.648515	0.404125
C113	C	1.306592	0.323913	-0.301232
C114	C	1.408928	0.276821	-0.403563
C115	C	1.306592	0.323910	0.000285
C116	C	1.408927	0.276817	0.000287
C117	C	1.306554	0.462677	-0.301192
C118	C	1.408877	0.462679	-0.403509
C119	C	0.553152	0.643539	-0.058620
C120	C	0.457010	0.687783	-0.058644
C121	C	0.408914	0.737008	0.000236
C122	C	0.456974	0.741987	0.059133
C123	C	0.553121	0.697743	0.059150
C124	C	0.553136	0.697732	0.393312
C125	C	0.456995	0.741984	0.489453
C126	C	0.408913	0.737019	0.596407
C127	C	0.456988	0.687797	0.607219
C128	C	0.553134	0.643546	0.511078
C129	C	1.457005	0.227605	-0.392749
C130	C	1.553176	0.183352	-0.488890
C131	C	1.601263	0.188317	-0.595845
C132	C	1.553182	0.237539	-0.606656
C133	C	1.457019	0.281790	-0.510516
C134	C	1.456987	0.281798	0.059173
C135	C	1.553156	0.237553	0.059170
C136	C	1.601255	0.188328	0.000287
C137	C	1.553191	0.183349	-0.058606
C138	C	1.457031	0.227593	-0.058609
C139	C	0.553169	0.489752	0.511026
C140	C	0.457031	0.489745	0.607159
C141	C	0.457065	0.435548	0.489372
C142	C	0.553208	0.435552	0.393240
C143	C	0.601213	0.516858	0.521857
C144	C	0.553129	0.543956	0.628816
C145	C	0.456990	0.543949	0.724950
C146	C	0.408937	0.516844	0.714125
H147	H	0.846048	0.386005	-0.166356
H148	H	0.592257	0.603473	0.519899
Cl149	Cl	0.396572	0.803856	0.475836
H150	H	0.673653	-0.067566	0.165994
Cl151	Cl	1.388586	-0.241887	-0.191414
H152	H	1.679565	0.152281	-0.674119
H153	H	1.592347	0.241576	-0.693750
H154	H	1.218747	0.223537	-0.106576
H155	H	0.592311	0.603462	-0.106580
H156	H	0.417892	0.683719	-0.106605
H157	H	0.909795	0.316496	-0.317362
H158	H	0.673649	0.012707	0.165990
H159	H	1.592308	0.143278	-0.480065
Cl160	Cl	0.750852	0.299538	-0.354131
H161	H	0.679491	0.516867	0.443586
Cl162	Cl	0.288040	0.792625	0.000206
H163	H	1.417875	0.321863	-0.519334
Cl164	Cl	0.613548	0.578022	0.642421
H165	H	1.417832	0.321875	0.107129
Cl166	Cl	0.396555	0.578009	0.859408
Cl167	Cl	0.288087	0.516832	0.834982
H168	H	0.497022	0.386045	-0.166168
Cl169	Cl	0.425757	0.549160	0.188147
Cl170	Cl	0.396650	0.401478	0.475770
H171	H	0.592357	0.413489	0.306152
H172	H	0.266804	0.532199	0.151394
Cl173	Cl	0.739311	0.343667	0.133103
H174	H	0.417800	0.782072	0.107070
H175	H	0.673670	0.145437	0.165949
Cl176	Cl	0.621498	0.067388	0.192054
Cl177	Cl	0.739280	0.243816	0.133147
Cl178	Cl	1.613667	0.121463	-0.132619
Cl179	Cl	1.613554	0.243824	0.133218
H180	H	1.417858	0.223552	-0.305670
H181	H	0.791372	-0.217925	0.107141
H182	H	1.005065	0.393144	-0.586938
H183	H	0.791373	-0.298202	0.107137
H184	H	1.218659	-0.396527	-0.106483
H185	H	1.679555	0.152306	0.000299
H186	H	0.592231	0.701805	0.107116
H187	H	1.218676	-0.316268	-0.106483
H188	H	0.330624	0.773055	0.674682
Cl189	Cl	1.388599	-0.142035	-0.191436
H190	H	1.336471	-0.007089	-0.165349
Cl191	Cl	1.388625	-0.109151	-0.191423
H192	H	1.218746	0.143259	-0.106572
H193	H	1.005036	0.539310	-0.674156
H194	H	0.417826	0.683762	0.694314
H195	H	1.005073	0.539315	-0.325286
H196	H	1.005052	0.608834	-0.412494
H197	H	1.005040	0.608832	-0.586931
Cl198	Cl	1.005062	0.376180	-0.391197
H199	H	0.592270	0.701784	0.306233
H200	H	1.417903	0.223531	-0.106558
