data_functionalizedCrystal
_audit_creation_method	'MofGen! by Chris Wilmer'
_symmetry_space_group_name_H-M	'P1'
_symmetry_Int_Tables_number	1
_symmetry_cell_setting	triclinic
loop_
_symmetry_equiv_pos_as_xyz
  x,y,z
_cell_length_a	14.560438
_cell_length_b	23.196402
_cell_length_c	14.560438
_cell_angle_alpha	89.999011
_cell_angle_beta	59.996693
_cell_angle_gamma	59.999449
loop_
_atom_site_label
_atom_site_type_symbol
_atom_site_fract_x
_atom_site_fract_y
_atom_site_fract_z
Zr1	Zr	1.005293	0.555376	-0.120610
O2	O	1.196907	0.463322	-0.267267
O3	O	0.813683	0.583595	-0.075643
O4	O	1.005294	0.583593	-0.267259
O5	O	1.005294	0.463327	0.075490
O6	O	1.005291	0.678464	-0.267262
O7	O	1.005296	0.463325	-0.075651
O8	O	0.662533	0.678468	0.075505
O9	O	1.348051	0.463323	-0.267277
O10	O	0.892491	0.666432	-0.056477
O11	O	0.892492	0.595632	0.056320
O12	O	1.118089	0.595630	-0.169284
O13	O	1.118090	0.524830	-0.056487
Zr14	Zr	1.005283	0.706690	0.120437
Zr15	Zr	1.005287	0.706686	-0.120615
Zr16	Zr	1.005289	0.555380	0.120442
Zr17	Zr	1.246350	0.555377	-0.120625
Zr18	Zr	0.764226	0.706688	0.120453
O19	O	1.196893	0.678471	0.075470
O20	O	1.196899	0.678465	-0.267275
O21	O	1.196902	0.463328	0.075478
O22	O	0.813669	0.798743	0.267095
O23	O	0.813674	0.798738	-0.075650
O24	O	0.813677	0.583600	0.267102
O25	O	1.005282	0.798739	-0.075662
O26	O	1.005282	0.678473	0.267087
O27	O	1.005285	0.583601	0.267090
O28	O	1.005280	0.798741	0.075478
O29	O	1.348046	0.583594	-0.267281
O30	O	0.662530	0.678471	0.267109
O31	O	0.662525	0.798742	0.267105
O32	O	0.662528	0.798739	0.075501
O33	O	1.348048	0.463326	-0.075673
O34	O	1.348043	0.583597	-0.075677
O35	O	0.892487	0.666436	0.169112
O36	O	0.892486	0.737236	0.056315
O37	O	1.118084	0.666433	-0.056492
O38	O	1.118085	0.595633	0.056305
C39	C	0.703763	0.631031	-0.000067
C40	C	0.601428	0.631031	-0.000060
C41	C	0.636645	0.578763	-0.083341
C42	C	0.540505	0.578766	-0.083370
C43	C	0.373931	0.683308	0.083173
C44	C	0.470070	0.683307	0.083196
C45	C	1.005296	0.441767	-0.000080
C46	C	1.005298	0.377532	-0.000078
C47	C	1.005309	0.347359	-0.083348
C48	C	1.005298	0.287008	-0.083347
C49	C	1.005301	0.256824	-0.000086
C50	C	1.005283	0.287008	0.083199
C51	C	1.005281	0.347362	0.083203
C52	C	1.080987	0.137450	0.025855
C53	C	1.080997	0.077095	0.025843
C54	C	1.005300	0.070674	-0.000092
C55	C	0.929610	0.124611	-0.026039
C56	C	0.929608	0.184965	-0.026035
C57	C	1.005302	0.191381	-0.000080
C58	C	1.005296	-0.024939	-0.083366
C59	C	1.005276	-0.085288	-0.083359
C60	C	1.005275	-0.085292	0.083184
C61	C	1.005281	-0.024939	0.083180
C62	C	1.005298	0.005232	-0.000100
C63	C	1.306814	0.631034	-0.000106
C64	C	1.409149	0.631035	-0.000112
C65	C	1.005293	0.631028	-0.301606
C66	C	1.005295	0.631026	-0.403939
C67	C	1.005280	0.820298	-0.000093
C68	C	1.005278	0.884533	-0.000095
C69	C	1.123053	0.594069	-0.510899
C70	C	1.123047	0.594077	-0.607048
C71	C	0.887514	0.668001	-0.489262
C72	C	0.887522	0.667997	-0.393116
C73	C	1.005283	0.631038	0.301433
C74	C	1.005281	0.631039	0.403766
C75	C	0.703755	0.820297	-0.000073
C76	C	0.601417	0.884531	-0.000069
C77	C	0.703757	0.631036	0.301453
C78	C	0.601421	0.631037	0.403792
C79	C	0.703750	0.820302	0.301446
C80	C	0.601410	0.884538	0.403784
C81	C	1.306826	0.441764	-0.301619
C82	C	1.409166	0.377528	-0.403956
C83	C	1.306821	0.441769	-0.000099
C84	C	1.409159	0.377534	-0.000103
C85	C	1.306819	0.631029	-0.301625
C86	C	1.409155	0.631028	-0.403965
C87	C	0.553361	0.877738	-0.058953
C88	C	0.457217	0.938087	-0.058972
C89	C	0.409125	1.005229	-0.000098
C90	C	0.457191	1.012021	0.058788
C91	C	0.553339	0.951673	0.058799
C92	C	0.553350	0.951667	0.392963
C93	C	0.457205	1.012029	0.489111
C94	C	0.409115	1.005261	0.596078
C95	C	0.457185	0.938125	0.606896
C96	C	0.553335	0.877764	0.510749
C97	C	1.457238	0.310399	-0.393136
C98	C	1.553413	0.250036	-0.489283
C99	C	1.601508	0.256805	-0.596250
C100	C	1.553432	0.323941	-0.607068
C101	C	1.457265	0.384302	-0.510922
C102	C	1.457225	0.384328	0.058771
C103	C	1.553396	0.323979	0.058763
C104	C	1.601491	0.256836	-0.000114
C105	C	1.553421	0.250044	-0.058996
C106	C	1.457259	0.310393	-0.058993
C107	C	0.553338	0.667996	0.510748
C108	C	0.457191	0.667989	0.606903
C109	C	0.457213	0.594064	0.489133
C110	C	0.553365	0.594067	0.392980
H111	H	0.743599	0.536192	-0.151128
N112	N	0.760508	0.707856	-0.277739
H113	H	0.755268	0.745045	-0.235227
H114	H	0.685970	0.731229	-0.285562
N115	N	0.578502	0.522390	-0.173202
H116	H	0.631627	0.474406	-0.169558
H117	H	0.497614	0.530383	-0.160545
H118	H	1.218937	0.563984	-0.694136
N119	N	1.605311	0.331230	-0.722446
H120	H	1.531958	0.357883	-0.731462
H121	H	1.645226	0.357871	-0.731403
H122	H	0.418073	0.563965	0.480343
H123	H	1.679812	0.207649	-0.674529
H124	H	1.418073	0.438993	0.106723
H125	H	0.418048	0.698083	0.693988
N126	N	0.605218	0.958980	0.277602
H127	H	0.673425	0.910560	0.218323
H128	H	0.531785	0.985675	0.268697
N129	N	0.432076	0.739688	0.173031
H130	H	0.468239	0.716886	0.216794
H131	H	0.468266	0.767132	0.136627
N132	N	1.405401	0.456707	-0.522590
H133	H	1.478758	0.462364	-0.565071
H134	H	1.365506	0.462300	-0.565040
H135	H	1.005277	-0.109854	-0.151165
H136	H	1.592518	0.329523	0.106716
N137	N	1.162625	0.018927	0.053834
H138	H	1.151147	-0.020283	0.049890
H139	H	1.257031	-0.000151	-0.001907
H140	H	0.592454	0.957214	0.106756
H141	H	1.679792	0.207702	-0.000107
H142	H	0.592517	0.823072	-0.106909
N143	N	1.005305	0.007608	-0.173182
H144	H	0.925228	0.057786	-0.136853
H145	H	1.085449	0.007459	-0.216910
H146	H	1.592595	0.195369	-0.106931
N147	N	0.605149	0.805359	0.522421
H148	H	0.701672	0.778656	0.485154
H149	H	0.559993	0.810294	0.604795
N150	N	0.405368	1.084434	0.477429
H151	H	0.450418	1.079557	0.395075
H152	H	0.308842	1.111090	0.514765
N153	N	0.305410	1.070368	0.699774
H154	H	0.282266	1.113919	0.676678
H155	H	0.225683	1.070339	0.746017
N156	N	0.405388	0.930752	-0.122488
H157	H	0.450441	0.879059	-0.159770
H158	H	0.308862	0.954185	-0.068429
H159	H	1.418084	0.304874	-0.306047
H160	H	0.330833	1.054363	-0.000116
N161	N	1.405420	0.303060	-0.122496
H162	H	1.450485	0.251367	-0.159789
H163	H	1.308897	0.326484	-0.068431
N164	N	0.232257	0.739690	0.172966
H165	H	0.176695	0.731760	0.160317
H166	H	0.212676	0.737385	0.249379
H167	H	1.005319	0.371924	-0.151157
N168	N	0.605311	0.554155	0.277609
H169	H	0.560296	0.530723	0.285349
H170	H	0.588629	0.588053	0.235087
H171	H	0.418020	1.066697	0.106720
N172	N	1.005307	0.254454	-0.173162
H173	H	1.005315	0.282726	-0.225917
H174	H	1.085397	0.204278	-0.216829
H175	H	0.867976	0.228880	-0.047159
H176	H	0.592467	0.698097	0.519558
N177	N	0.405309	0.930830	0.722270
H178	H	0.337103	0.979258	0.781527
H179	H	0.365473	0.904149	0.731187
H180	H	1.005270	-0.109864	0.150981
H181	H	0.867975	0.119385	-0.047164
N182	N	1.605251	0.177631	-0.477601
H183	H	1.560175	0.182509	-0.395247
H184	H	1.588530	0.150974	-0.514932
H185	H	1.005280	-0.000372	0.150983
H186	H	1.005283	0.262430	0.150994
N187	N	1.162650	0.144368	0.053814
H188	H	1.257089	0.104224	-0.001933
H189	H	1.151056	0.190809	0.049892
N190	N	1.005254	0.379915	0.173027
H191	H	1.005245	0.351642	0.225781
H192	H	1.085338	0.379823	0.136619
H193	H	0.791627	0.698100	-0.480464
N194	N	1.250073	0.554199	-0.522566
H195	H	1.324670	0.530789	-0.604918
H196	H	1.255204	0.588132	-0.485238
