data_functionalizedCrystal
_audit_creation_method	'MofGen! by Chris Wilmer'
_symmetry_space_group_name_H-M	'P1'
_symmetry_Int_Tables_number	1
_symmetry_cell_setting	triclinic
loop_
_symmetry_equiv_pos_as_xyz
  x,y,z
_cell_length_a	17.077404
_cell_length_b	17.077402
_cell_length_c	17.077396
_cell_angle_alpha	90.027528
_cell_angle_beta	90.019501
_cell_angle_gamma	90.023718
loop_
_atom_site_label
_atom_site_type_symbol
_atom_site_fract_x
_atom_site_fract_y
_atom_site_fract_z
Zn1	Zn	1.200051	-0.312503	0.443848
Zn2	Zn	1.700051	0.187497	0.943848
Zn3	Zn	1.199957	-0.443778	0.312584
Zn4	Zn	1.699957	0.056222	0.812584
Zn5	Zn	1.068783	-0.312531	0.312596
Zn6	Zn	1.568783	0.187469	0.812596
Zn7	Zn	1.068750	-0.443732	0.443808
Zn8	Zn	1.568750	0.056268	0.943808
O9	O	1.134385	-0.378136	0.378209
O10	O	1.634385	0.121864	0.878209
O11	O	1.309886	-0.329925	0.426447
O12	O	1.809886	0.170075	0.926447
O13	O	1.182531	-0.426399	0.202739
O14	O	1.682531	0.073601	0.702739
O15	O	1.086250	-0.202680	0.330028
O16	O	1.586250	0.297320	0.830028
O17	O	1.309816	-0.426372	0.330008
O18	O	1.809816	0.073628	0.830008
O19	O	1.182692	-0.202660	0.426459
O20	O	1.682692	0.297340	0.926459
O21	O	1.086158	-0.329972	0.202747
O22	O	1.586158	0.170028	0.702747
O23	O	0.958932	-0.329927	0.329989
O24	O	1.458932	0.170073	0.829989
O25	O	1.086193	-0.426293	0.553660
O26	O	1.586193	0.073707	1.053660
O27	O	0.958907	-0.426320	0.426390
O28	O	1.458907	0.073680	0.926390
O29	O	1.182659	-0.329880	0.553690
O30	O	1.682659	0.170120	1.053690
O31	O	1.182499	-0.553619	0.329969
O32	O	1.682499	-0.053619	0.829969
O33	O	1.086101	-0.553585	0.426379
O34	O	1.586101	-0.053585	0.926379
C35	C	0.930437	-0.378122	0.378187
C36	C	1.430437	0.121878	0.878187
C37	C	0.843188	-0.378135	0.378197
C38	C	1.343188	0.121865	0.878197
C39	C	1.134307	-0.582084	0.378186
C40	C	1.634307	-0.082084	0.878186
C41	C	1.134346	-0.669334	0.378202
C42	C	1.634346	-0.169334	0.878202
C43	C	0.802205	-0.428402	0.428312
C44	C	1.302205	0.071598	0.928312
C45	C	0.720225	-0.428404	0.428324
C46	C	1.220225	0.071596	0.928324
C47	C	0.679228	-0.378141	0.378217
C48	C	1.179228	0.121859	0.878217
C49	C	0.720216	-0.327869	0.328100
C50	C	1.220216	0.172131	0.828100
C51	C	0.802195	-0.327863	0.328092
C52	C	1.302195	0.172137	0.828092
C53	C	0.549346	-0.327884	0.328118
C54	C	1.049346	0.172116	0.828118
C55	C	0.467362	-0.327890	0.328125
C56	C	0.967362	0.172110	0.828125
C57	C	0.467376	-0.428424	0.428351
C58	C	0.967376	0.071576	0.928351
C59	C	0.549355	-0.428419	0.428343
C60	C	1.049355	0.071581	0.928343
C61	C	0.590337	-0.378147	0.378225
C62	C	1.090337	0.121853	0.878225
C63	C	1.184536	-0.710246	0.428454
C64	C	1.684536	-0.210246	0.928454
C65	C	1.184569	-0.792226	0.428470
C66	C	1.684569	-0.292226	0.928470
C67	C	1.134415	-0.833293	0.378231
C68	C	1.634415	-0.333293	0.878231
C69	C	1.084220	-0.792375	0.327977
C70	C	1.584220	-0.292375	0.827977
C71	C	1.084183	-0.710396	0.327965
C72	C	1.584183	-0.210396	0.827965
C73	C	1.084300	-0.963245	0.328004
C74	C	1.584300	-0.463245	0.828004
C75	C	1.084337	-1.045230	0.328015
C76	C	1.584337	-0.545230	0.828015
C77	C	1.184686	-1.045075	0.428510
C78	C	1.684686	-0.545075	0.928510
C79	C	1.184649	-0.963096	0.428498
C80	C	1.684649	-0.463096	0.928498
C81	C	1.134455	-0.922184	0.378243
C82	C	1.634455	-0.422184	0.878243
C83	C	1.339130	-0.378151	0.378231
C84	C	1.839130	0.121849	0.878231
C85	C	1.426379	-0.378157	0.378241
C86	C	1.926379	0.121843	0.878241
C87	C	1.134433	-0.378078	0.582953
C88	C	1.634433	0.121922	1.082953
C89	C	1.134453	-0.378054	0.670203
C90	C	1.634453	0.121946	1.170203
C91	C	1.134485	-0.173392	0.378249
C92	C	1.634485	0.326608	0.878249
C93	C	1.134527	-0.086142	0.378267
C94	C	1.634527	0.413858	0.878267
C95	C	1.134383	-0.378137	0.174261
C96	C	1.634383	0.121863	0.674261
C97	C	1.134515	-0.377941	0.087012
C98	C	1.634515	0.122059	0.587012
C99	C	1.184685	-0.327847	0.711210
C100	C	1.684685	0.172153	1.211210
C101	C	1.184695	-0.327821	0.793190
C102	C	1.684695	0.172179	1.293190
C103	C	1.134475	-0.378006	0.834163
C104	C	1.634475	0.121994	1.334163
C105	C	1.084238	-0.428214	0.793150
C106	C	1.584238	0.071786	1.293150
C107	C	1.084225	-0.428236	0.711171
C108	C	1.584225	0.071764	1.211171
C109	C	1.084269	-0.428167	0.964020
C110	C	1.584269	0.071833	1.464020
C111	C	1.084283	-0.428147	1.046005
C112	C	1.584283	0.071853	1.546005
C113	C	1.184739	-0.327752	1.046040
C114	C	1.684739	0.172248	1.546040
C115	C	1.184726	-0.327774	0.964061
C116	C	1.684726	0.172226	1.464061
C117	C	1.134489	-0.377984	0.923054
C118	C	1.634489	0.122016	1.423054
H119	H	0.686861	-0.469337	0.469133
H120	H	1.186861	0.030663	0.969133
H121	H	0.686830	-0.286941	0.287305
H122	H	1.186830	0.213059	0.787305
H123	H	1.225582	-0.286983	0.677856
H124	H	1.725582	0.213017	1.177856
H125	H	1.043349	-0.469041	0.930635
H126	H	1.543349	0.030959	1.430635
H127	H	0.582732	-0.469352	0.469141
H128	H	1.082732	0.030648	0.969141
O129	O	1.030064	-0.482337	0.837338
O130	O	1.530064	0.017663	1.337338
H131	H	1.065180	-0.522274	0.874682
H132	H	1.565180	-0.022274	1.374682
O133	O	1.030049	-0.666270	0.273761
O134	O	1.530049	-0.166270	0.773761
H135	H	1.038443	-0.602366	0.282198
H136	H	1.538443	-0.102366	0.782198
O137	O	1.238877	-0.273675	0.837422
O138	O	1.738877	0.226325	1.337422
H139	H	1.273804	-0.238791	0.795159
H140	H	1.773804	0.261209	1.295159
O141	O	0.423181	-0.482643	0.482417
O142	O	0.923181	0.017357	0.982417
H143	H	0.359288	-0.474197	0.474014
H144	H	0.859288	0.025803	0.974014
O145	O	1.238922	-0.273596	1.090267
O146	O	1.738922	0.226404	1.590267
H147	H	1.273848	-0.238712	1.048004
H148	H	1.773848	0.261288	1.548004
O149	O	1.238896	-0.273654	0.919865
O150	O	1.738896	0.226346	1.419865
H151	H	1.225467	-0.212038	0.935601
H152	H	1.725467	0.287962	1.435601
H153	H	1.043380	-0.825818	0.287074
H154	H	1.543380	-0.325818	0.787074
H155	H	1.043388	-0.469010	1.079362
H156	H	1.543388	0.030990	1.579362
O157	O	1.030036	-0.482376	0.666936
O158	O	1.530036	0.017624	1.166936
H159	H	0.995118	-0.517270	0.709197
H160	H	1.495118	-0.017270	1.209197
O161	O	1.030162	-0.919117	0.273800
O162	O	1.530162	-0.419117	0.773800
H163	H	1.065307	-0.881759	0.233897
H164	H	1.565307	-0.381759	0.733897
O165	O	0.846422	-0.482611	0.482360
O166	O	1.346422	0.017389	0.982360
H167	H	0.804148	-0.517558	0.517216
H168	H	1.304148	-0.017558	1.017216
H169	H	0.433985	-0.286953	0.287333
H170	H	0.933985	0.213047	0.787333
O171	O	0.593554	-0.273671	0.274056
O172	O	1.093554	0.226329	0.774056
H173	H	0.551275	-0.238729	0.239205
H174	H	1.051275	0.261271	0.739205
H175	H	1.225492	-0.929660	0.469402
H176	H	1.725492	-0.429660	0.969402
H177	H	0.835562	-0.286927	0.287287
H178	H	1.335562	0.213073	0.787287
H179	H	1.225380	-0.676815	0.469361
H180	H	1.725380	-0.176815	0.969361
O181	O	1.238703	-0.836356	0.482669
O182	O	1.738703	-0.336356	0.982669
H183	H	1.273578	-0.794027	0.517594
H184	H	1.773578	-0.294027	1.017594
H185	H	1.225556	-1.078390	0.469430
H186	H	1.725556	-0.578390	0.969430
H187	H	1.043495	-1.078664	0.287109
H188	H	1.543495	-0.578664	0.787109
