data_functionalizedCrystal
_audit_creation_method	'MofGen! by Chris Wilmer'
_symmetry_space_group_name_H-M	'P1'
_symmetry_Int_Tables_number	1
_symmetry_cell_setting	triclinic
loop_
_symmetry_equiv_pos_as_xyz
  x,y,z
_cell_length_a	16.959454
_cell_length_b	16.959455
_cell_length_c	16.959447
_cell_angle_alpha	89.983056
_cell_angle_beta	89.973182
_cell_angle_gamma	90.017022
loop_
_atom_site_label
_atom_site_type_symbol
_atom_site_fract_x
_atom_site_fract_y
_atom_site_fract_z
Zn1	Zn	-0.314730	1.208404	-0.446928
Zn2	Zn	-0.446922	1.208321	-0.314758
Zn3	Zn	-0.314755	1.076227	-0.314766
Zn4	Zn	-0.446863	1.076197	-0.446897
O5	O	-0.380817	1.142287	-0.380837
O6	O	-0.332280	1.319004	-0.429406
O7	O	-0.429425	1.190775	-0.204148
O8	O	-0.204140	1.093807	-0.332314
O9	O	-0.429401	1.318943	-0.332301
O10	O	-0.204122	1.190918	-0.429413
O11	O	-0.332322	1.093726	-0.204154
O12	O	-0.332265	0.965612	-0.332283
O13	O	-0.429300	1.093758	-0.557512
O14	O	-0.429324	0.965590	-0.429359
O15	O	-0.332222	1.190889	-0.557535
O16	O	-0.557525	1.190747	-0.332270
O17	O	-0.557482	1.093677	-0.429352
C18	C	-0.380791	0.936921	-0.380819
C19	C	-0.380799	0.849064	-0.380830
C20	C	-0.330237	0.477576	-0.330395
C21	C	-0.431463	0.477602	-0.431324
C22	C	-0.431451	0.560148	-0.431320
C23	C	-0.380833	0.601411	-0.380851
C24	C	-0.330226	0.560129	-0.330387
C25	C	-0.482063	0.601436	-0.481777
C26	C	-0.482055	0.683987	-0.481773
C27	C	-0.431432	0.725252	-0.431308
C28	C	-0.380822	0.683965	-0.380843
C29	C	-0.330203	0.725228	-0.330374
C30	C	-0.279589	0.683943	-0.279913
C31	C	-0.279603	0.601394	-0.279922
C32	C	-0.431418	0.807801	-0.431299
C33	C	-0.330192	0.807782	-0.330366
C34	C	-0.586184	1.142221	-0.380824
C35	C	-0.674040	1.142265	-0.380844
C36	C	-1.045523	1.091816	-0.431382
C37	C	-1.045509	1.192979	-0.330373
C38	C	-0.962963	1.192951	-0.330365
C39	C	-0.921693	1.142354	-0.380867
C40	C	-0.962970	1.091785	-0.431375
C41	C	-0.921680	1.243514	-0.279852
C42	C	-0.839129	1.243487	-0.279842
C43	C	-0.797858	1.192894	-0.330348
C44	C	-0.839140	1.142323	-0.380859
C45	C	-0.797870	1.091727	-0.431360
C46	C	-0.839150	1.041160	-0.481876
C47	C	-0.921699	1.041192	-0.481881
C48	C	-0.715310	1.192862	-0.330343
C49	C	-0.715317	1.091696	-0.431353
C50	C	-0.174649	1.142375	-0.380868
C51	C	-0.086793	1.142413	-0.380881
C52	C	-0.380752	1.142330	-0.587006
C53	C	-0.380724	1.142348	-0.674862
C54	C	-0.380844	1.348455	-0.380856
C55	C	-0.380856	1.436312	-0.380864
C56	C	-0.330083	1.091888	-1.046347
C57	C	-0.431198	1.192946	-1.046329
C58	C	-0.431216	1.192932	-0.963783
C59	C	-0.380668	1.142395	-0.922515
C60	C	-0.330102	1.091871	-0.963794
C61	C	-0.481787	1.243449	-0.922498
C62	C	-0.481808	1.243437	-0.839947
C63	C	-0.431256	1.192903	-0.798678
C64	C	-0.380687	1.142378	-0.839962
C65	C	-0.330139	1.091841	-0.798694
C66	C	-0.279565	1.041319	-0.839976
C67	C	-0.279549	1.041337	-0.922525
C68	C	-0.431272	1.192885	-0.716130
C69	C	-0.330157	1.091824	-0.716141
C70	C	-0.380826	1.142291	-0.175471
C71	C	-0.380631	1.142426	-0.087615
H72	H	-0.523280	0.567834	-0.522860
H73	H	-0.522949	1.284585	-0.956104
C74	C	-0.669906	1.248483	-0.274781
N75	N	-0.635708	1.290382	-0.232930
H76	H	-0.472357	1.234085	-1.079934
C77	C	-0.793743	0.985504	-0.537425
N78	N	-0.759539	0.943587	-0.579264
H79	H	-1.079137	1.050648	-0.472513
C80	C	-0.967081	1.299154	-0.224294
N81	N	-1.001281	1.341063	-0.182443
H82	H	-0.472679	0.444000	-0.472409
H83	H	-0.522989	1.284574	-0.806343
C84	C	-0.967113	0.985564	-0.537434
N85	N	-1.001322	0.943662	-0.579272
C86	C	-1.090908	1.248624	-0.274817
N87	N	-1.125106	1.290538	-0.232969
C88	C	-0.537728	0.729394	-0.537284
N89	N	-0.579660	0.763595	-0.579098
C90	C	-0.486902	1.248452	-0.670724
N91	N	-0.528805	1.290309	-0.636524
H92	H	-0.472629	0.841412	-0.472381
C93	C	-0.793729	1.299107	-0.224270
N94	N	-0.759532	1.340999	-0.182411
C95	C	-0.274549	1.036228	-0.670753
N96	N	-0.232666	0.994351	-0.636567
C97	C	-0.223961	0.985733	-0.794571
N98	N	-0.182079	0.943870	-0.760369
C99	C	-0.223927	0.985765	-0.967941
N100	N	-0.182035	0.943906	-1.002151
H101	H	-0.288967	0.841373	-0.289273
H102	H	-0.288905	1.050757	-1.079963
C103	C	-0.274563	0.432161	-0.274891
N104	N	-0.232630	0.397954	-0.233084
H105	H	-0.681720	1.050497	-0.472480
C106	C	-0.223908	0.729343	-0.224402
N107	N	-0.181967	0.763542	-0.182595
H108	H	-0.238396	0.567772	-0.238838
