data_functionalizedCrystal
_audit_creation_method	'MofGen! by Chris Wilmer'
_symmetry_space_group_name_H-M	'P1'
_symmetry_Int_Tables_number	1
_symmetry_cell_setting	triclinic
loop_
_symmetry_equiv_pos_as_xyz
  x,y,z
_cell_length_a	18.050589
_cell_length_b	12.759401
_cell_length_c	12.759393
_cell_angle_alpha	89.980324
_cell_angle_beta	89.970454
_cell_angle_gamma	90.028647
loop_
_atom_site_label
_atom_site_type_symbol
_atom_site_fract_x
_atom_site_fract_y
_atom_site_fract_z
Zn1	Zn	-0.295615	1.606168	-0.593992
Zn2	Zn	-0.419823	1.606017	-0.418315
Zn3	Zn	-0.295652	1.430466	-0.418331
Zn4	Zn	-0.419769	1.430417	-0.593956
O5	O	-0.357715	1.518267	-0.506148
O6	O	-0.312099	1.753169	-0.570696
O7	O	-0.403390	1.582688	-0.271296
O8	O	-0.191723	1.453857	-0.441654
O9	O	-0.403354	1.753058	-0.441627
O10	O	-0.191695	1.582944	-0.570712
O11	O	-0.312162	1.453711	-0.271307
O12	O	-0.312109	1.283439	-0.441619
O13	O	-0.403261	1.453773	-0.740982
O14	O	-0.403297	1.283402	-0.570650
O15	O	-0.312046	1.582896	-0.741008
O16	O	-0.523740	1.582640	-0.441592
O17	O	-0.523700	1.453627	-0.570635
C18	C	-0.357702	1.245300	-0.506133
C19	C	-0.357714	1.128523	-0.506152
C20	C	-0.310284	1.073719	-0.573462
C21	C	-0.310291	0.963995	-0.573469
C22	C	-0.405167	0.963888	-0.438853
C23	C	-0.405155	1.073610	-0.438841
C24	C	-0.550667	1.518140	-0.506131
C25	C	-0.633213	1.518182	-0.506158
C26	C	-0.832669	1.448094	-0.576307
C27	C	-0.882116	1.422478	-0.480439
C28	C	-0.784343	1.518285	-0.506172
C29	C	-0.881977	1.543953	-0.602051
C30	C	-0.930328	1.518383	-0.506194
C31	C	-0.832703	1.492619	-0.410253
C32	C	-0.832560	1.614138	-0.531930
C33	C	-0.881985	1.588559	-0.435996
C34	C	-0.700245	1.518226	-0.506161
C35	C	-1.014425	1.518442	-0.506194
C36	C	-0.164009	1.518423	-0.506189
C37	C	-0.081463	1.518489	-0.506206
C38	C	-0.357643	1.518346	-0.780182
C39	C	-0.357613	1.518379	-0.896958
C40	C	-0.357728	1.792300	-0.506164
C41	C	-0.357734	1.909077	-0.506170
C42	C	-0.310110	1.585619	-0.951836
C43	C	-0.310078	1.585637	-1.061560
C44	C	-0.405059	1.451172	-1.061520
C45	C	-0.405086	1.451150	-0.951797
C46	C	-0.357732	1.518249	-0.233181
C47	C	-0.357553	1.518419	-0.116405
H48	H	-0.443791	0.919165	-0.384052
Br49	Br	-0.469519	1.147994	-0.347471
H50	H	-0.443769	1.396388	-0.907115
H51	H	-0.811014	1.388648	-0.635534
H52	H	-0.903900	1.341464	-0.458672
Br53	Br	-0.796783	1.456348	-0.275081
H54	H	-0.443711	1.396439	-1.106183
Br55	Br	-0.245899	1.148241	-0.664808
Br56	Br	-0.245915	0.889622	-0.664818
H57	H	-0.903503	1.647959	-0.376625
H58	H	-0.271452	1.640358	-0.907189
Br59	Br	-0.918059	1.580070	-0.737179
Br60	Br	-0.796253	1.749140	-0.568284
H61	H	-0.271395	1.640388	-1.106236
