data_functionalizedCrystal
_audit_creation_method	'MofGen! by Chris Wilmer'
_symmetry_space_group_name_H-M	'P1'
_symmetry_Int_Tables_number	1
_symmetry_cell_setting	triclinic
loop_
_symmetry_equiv_pos_as_xyz
  x,y,z
_cell_length_a	16.625548
_cell_length_b	16.625545
_cell_length_c	16.625539
_cell_angle_alpha	90.028107
_cell_angle_beta	90.020568
_cell_angle_gamma	90.026626
loop_
_atom_site_label
_atom_site_type_symbol
_atom_site_fract_x
_atom_site_fract_y
_atom_site_fract_z
Zn1	Zn	1.232663	-0.320977	0.455910
Zn2	Zn	1.232559	-0.455820	0.321078
Zn3	Zn	1.097825	-0.321008	0.321091
Zn4	Zn	1.097788	-0.455774	0.455868
O5	O	1.165209	-0.388395	0.388487
O6	O	1.345482	-0.338871	0.438037
O7	O	1.214658	-0.437969	0.208247
O8	O	1.115771	-0.208171	0.338998
O9	O	1.345405	-0.437940	0.338976
O10	O	1.214836	-0.208149	0.438050
O11	O	1.115670	-0.338923	0.208257
O12	O	0.984988	-0.338878	0.338957
O13	O	1.115708	-0.437861	0.568706
O14	O	0.984961	-0.437891	0.437977
O15	O	1.214800	-0.338826	0.568737
O16	O	1.214622	-0.568647	0.338935
O17	O	1.115607	-0.568613	0.437965
C18	C	0.955718	-0.388383	0.388464
C19	C	0.866097	-0.388398	0.388474
C20	C	0.537921	-0.388403	0.388508
C21	C	0.629230	-0.388399	0.388496
C22	C	0.702006	-0.388401	0.388490
C23	C	0.793320	-0.388396	0.388480
C24	C	1.165121	-0.597886	0.388462
C25	C	1.165158	-0.687507	0.388478
C26	C	1.165189	-0.760289	0.388494
C27	C	1.165236	-0.851598	0.388511
C28	C	1.165278	-0.924374	0.388522
C29	C	1.165324	-1.015688	0.388538
C30	C	1.375518	-0.388407	0.388510
C31	C	1.465139	-0.388412	0.388520
C32	C	1.165261	-0.388335	0.598796
C33	C	1.165284	-0.388309	0.688417
C34	C	1.165319	-0.178086	0.388530
C35	C	1.165366	-0.088465	0.388548
C36	C	1.165203	-0.388397	0.178996
C37	C	1.165337	-0.388195	0.089375
C38	C	1.165321	-0.388219	1.016593
C39	C	1.165308	-0.388247	0.925284
C40	C	1.165303	-0.388265	0.852508
C41	C	1.165289	-0.388291	0.761194
