data_functionalizedCrystal
_audit_creation_method	'MofGen! by Chris Wilmer'
_symmetry_space_group_name_H-M	'P1'
_symmetry_Int_Tables_number	1
_symmetry_cell_setting	triclinic
loop_
_symmetry_equiv_pos_as_xyz
  x,y,z
_cell_length_a	10.723024
_cell_length_b	11.804365
_cell_length_c	10.723024
_cell_angle_alpha	78.053832
_cell_angle_beta	84.467869
_cell_angle_gamma	101.962134
loop_
_atom_site_label
_atom_site_type_symbol
_atom_site_fract_x
_atom_site_fract_y
_atom_site_fract_z
O1	O	1.682181	0.099016	0.150049
O2	O	1.319030	0.099020	0.166801
O3	O	1.508981	0.099013	-0.023150
O4	O	1.492230	0.099022	0.340000
O5	O	1.458974	-0.099041	0.026806
O6	O	1.269022	-0.099034	0.216757
O7	O	1.632174	-0.099038	0.200005
Cu8	Cu	1.446032	-0.117120	0.212943
Cu9	Cu	1.505171	0.117102	0.153864
O10	O	1.442223	-0.099032	0.389956
C11	C	1.247527	-0.000007	0.190560
C12	C	1.108973	-0.000005	0.186912
C13	C	1.033991	-0.000002	0.293199
C14	C	0.890788	-0.000000	0.289431
N15	N	1.404446	-0.281859	0.254495
C16	C	1.646632	-0.655816	0.012496
C17	C	1.678090	-0.531156	-0.018944
C18	C	1.609681	-0.468825	0.049413
C19	C	1.509809	-0.531168	0.149215
C20	C	1.478354	-0.655841	0.180664
C21	C	1.441404	-0.468850	0.217582
C22	C	1.341532	-0.531193	0.317384
C23	C	1.310081	-0.655853	0.348827
C24	C	1.378490	-0.718184	0.280470
C25	C	1.472859	-0.344177	0.186132
C26	C	1.304582	-0.344202	0.354301
C27	C	1.273123	-0.468863	0.385740
C28	C	1.703678	-0.000009	0.176246
C29	C	1.842233	-0.000003	0.179892
C30	C	1.482758	-0.000012	-0.044672
C31	C	1.479112	-0.000008	-0.183227
N32	N	1.546768	0.281841	0.112302
C33	C	1.585400	-0.000007	-0.258210
C34	C	1.581633	-0.000003	-0.401414
C35	C	1.468446	-0.000003	0.411478
C36	C	1.472094	0.000000	0.550031
H37	H	1.075812	-0.000006	0.386986
H38	H	0.906660	0.000002	0.088895
H39	H	1.067158	0.000023	0.093119
H40	H	1.248879	-0.293454	0.409966
H41	H	1.352874	-0.819693	0.306064
H42	H	0.826357	0.000007	0.380419
H43	H	1.672622	-0.000008	-0.465846
H44	H	1.228769	-0.706613	0.430101
H45	H	1.554175	-0.293429	0.104874
H46	H	1.635300	-0.367321	0.023810
H47	H	1.702328	-0.706574	-0.043145
H48	H	1.191805	-0.519638	0.467002
H49	H	1.759406	-0.480401	-0.100200
H50	H	1.381097	-0.000008	-0.385542
H51	H	1.679183	-0.000016	-0.216386
H52	H	1.385328	0.000001	-0.225052
