data_functionalizedCrystal
_audit_creation_method	'MofGen! by Chris Wilmer'
_symmetry_space_group_name_H-M	'P1'
_symmetry_Int_Tables_number	1
_symmetry_cell_setting	triclinic
loop_
_symmetry_equiv_pos_as_xyz
  x,y,z
_cell_length_a	18.215407
_cell_length_b	16.120484
_cell_length_c	18.215399
_cell_angle_alpha	87.130211
_cell_angle_beta	90.019833
_cell_angle_gamma	92.926015
loop_
_atom_site_label
_atom_site_type_symbol
_atom_site_fract_x
_atom_site_fract_y
_atom_site_fract_z
Zn1	Zn	1.110213	-0.331906	0.430960
Zn2	Zn	1.610213	0.168094	0.930960
Zn3	Zn	1.103879	-0.471328	0.314129
Zn4	Zn	1.603879	0.028672	0.814129
Zn5	Zn	0.987144	-0.331934	0.307908
Zn6	Zn	1.487144	0.168066	0.807908
Zn7	Zn	0.980871	-0.471282	0.437152
Zn8	Zn	1.480871	0.028718	0.937152
O9	O	1.045527	-0.401612	0.372537
O10	O	1.545527	0.098388	0.872537
O11	O	1.212356	-0.350409	0.415474
O12	O	1.712356	0.149591	0.915474
O13	O	1.088368	-0.452868	0.210321
O14	O	1.588368	0.047132	0.710321
O15	O	1.008745	-0.215264	0.319037
O16	O	1.508745	0.284736	0.819037
O17	O	1.207703	-0.452841	0.329639
O18	O	1.707703	0.047159	0.829639
O19	O	1.099163	-0.215244	0.409442
O20	O	1.599163	0.284756	0.909442
O21	O	1.002604	-0.350456	0.205751
O22	O	1.502604	0.149544	0.705751
O23	O	0.883328	-0.350411	0.325041
O24	O	1.383328	0.149589	0.825041
O25	O	0.998054	-0.452762	0.539313
O26	O	1.498054	0.047238	1.039313
O27	O	0.878719	-0.452789	0.419995
O28	O	1.378719	0.047211	0.919995
O29	O	1.093081	-0.350364	0.534764
O30	O	1.593081	0.149636	1.034764
O31	O	1.082286	-0.587988	0.335643
O32	O	1.582286	-0.087988	0.835643
O33	O	0.991913	-0.587954	0.426027
O34	O	1.491913	-0.087954	0.926027
C35	C	0.854321	-0.401598	0.372516
C36	C	1.354321	0.098402	0.872516
C37	C	0.772522	-0.401612	0.372525
C38	C	1.272522	0.098388	0.872525
C39	C	1.035751	-0.618221	0.382198
C40	C	1.535751	-0.118221	0.882198
C41	C	1.031637	-0.710887	0.386356
C42	C	1.531637	-0.210887	0.886356
C43	C	0.581943	-0.455004	0.421912
C44	C	1.081943	0.044996	0.921912
C45	C	0.505085	-0.455007	0.421921
C46	C	1.005085	0.044993	0.921921
C47	C	0.509861	-0.348236	0.323179
C48	C	1.009861	0.151764	0.823179
C49	C	0.586719	-0.348229	0.323174
C50	C	1.086719	0.151771	0.823174
C51	C	0.622758	-0.401619	0.372540
C52	C	1.122758	0.098381	0.872540
C53	C	0.469041	-0.401627	0.372554
C54	C	0.969041	0.098373	0.872554
C55	C	0.385708	-0.401630	0.372564
C56	C	0.885708	0.098370	0.872564
C57	C	0.706097	-0.401615	0.372531
C58	C	1.206097	0.098385	0.872531
C59	C	1.024129	-0.880549	0.393961
C60	C	1.524129	-0.380549	0.893961
C61	C	1.067056	-0.921836	0.351125
C62	C	1.567056	-0.421836	0.851125
C63	C	1.062879	-1.016241	0.355357
C64	C	1.562879	-0.516241	0.855357
C65	C	1.028305	-0.786135	0.389730
C66	C	1.528305	-0.286135	0.889730
C67	C	1.237479	-0.401627	0.372560
C68	C	1.737479	0.098373	0.872560
C69	C	1.319277	-0.401634	0.372569
C70	C	1.819277	0.098366	0.872569
C71	C	1.045574	-0.401555	0.564488
C72	C	1.545574	0.098445	1.064488
C73	C	1.045594	-0.401530	0.646286
C74	C	1.545594	0.098470	1.146286
C75	C	1.055360	-0.184158	0.362855
C76	C	1.555360	0.315842	0.862855
C77	C	1.059551	-0.091492	0.358729
C78	C	1.559551	0.408508	0.858729
C79	C	1.045524	-0.401610	0.181331
C80	C	1.545524	0.098390	0.681331
C81	C	1.045657	-0.401399	0.099523
C82	C	1.545657	0.098601	0.599523
C83	C	1.095094	-0.348162	0.832110
C84	C	1.595094	0.151838	1.332110
C85	C	1.095104	-0.348138	0.908967
C86	C	1.595104	0.151862	1.408967
C87	C	0.996153	-0.454770	0.913694
C88	C	1.496153	0.045230	1.413694
C89	C	0.996140	-0.454790	0.836837
C90	C	1.496140	0.045210	1.336837
C91	C	1.045615	-0.401487	0.796047
C92	C	1.545615	0.098513	1.296047
C93	C	1.045637	-0.401443	0.949761
C94	C	1.545637	0.098557	1.449761
C95	C	1.045648	-0.401417	1.033094
C96	C	1.545648	0.098583	1.533094
C97	C	1.045603	-0.401511	0.712709
C98	C	1.545603	0.098489	1.212709
H99	H	0.611284	-0.498475	0.462110
H100	H	1.111284	0.001525	0.962110
H101	H	0.471857	-0.498478	0.462126
H102	H	0.971857	0.001522	0.962126
H103	H	0.984243	-0.916101	0.433809
H104	H	1.484243	-0.416101	0.933809
H105	H	0.480509	-0.304769	0.282986
H106	H	0.980509	0.195231	0.782986
H107	H	0.619951	-0.304751	0.282969
H108	H	1.119951	0.195249	0.782969
H109	H	1.135377	-0.304757	0.798901
H110	H	1.635377	0.195243	1.298901
C111	C	1.114662	-0.788257	0.303481
C112	C	1.614662	-0.288257	0.803481
C113	C	1.120898	-0.873845	0.297318
C114	C	1.620898	-0.373845	0.797318
H115	H	1.147895	-0.758629	0.270259
H116	H	1.647895	-0.258629	0.770259
H117	H	1.126032	-0.773986	0.352303
H118	H	1.626032	-0.273986	0.852303
H119	H	1.065830	-0.774109	0.292050
H120	H	1.565830	-0.274109	0.792050
H121	H	1.169728	-0.887994	0.308755
H122	H	1.669728	-0.387994	0.808755
H123	H	1.109532	-0.888121	0.248486
H124	H	1.609532	-0.388121	0.748486
C125	C	1.192917	-0.242748	0.896571
C126	C	1.692917	0.257252	1.396571
C127	C	1.149496	-0.289525	0.948607
C128	C	1.649496	0.210475	1.448607
H129	H	1.226500	-0.206566	0.921045
H130	H	1.726500	0.293434	1.421045
H131	H	1.162291	-0.210865	0.865170
H132	H	1.662291	0.289135	1.365170
H133	H	1.219417	-0.279093	0.868216
H134	H	1.719417	0.220907	1.368216
H135	H	1.122992	-0.253180	0.976959
H136	H	1.622992	0.246820	1.476959
H137	H	1.180126	-0.321410	0.980021
H138	H	1.680126	0.178590	1.480021
C139	C	0.980834	-0.566952	0.755384
C140	C	1.480834	-0.066952	1.255384
C141	C	0.941750	-0.513409	0.797189
C142	C	1.441750	-0.013409	1.297189
H143	H	0.947255	-0.603133	0.730903
H144	H	1.447255	-0.103133	1.230903
H145	H	1.011452	-0.598837	0.786791
H146	H	1.511452	-0.098837	1.286791
H147	H	1.010292	-0.535196	0.720096
H148	H	1.510292	-0.035196	1.220096
H149	H	0.912295	-0.545165	0.832480
H150	H	1.412295	-0.045165	1.332480
H151	H	0.911118	-0.481521	0.765778
H152	H	1.411118	0.018479	1.265778
H153	H	0.955874	-0.498169	0.946914
H154	H	1.455874	0.001831	1.446914
