data_functionalizedCrystal
_audit_creation_method	'MofGen! by Chris Wilmer'
_symmetry_space_group_name_H-M	'P1'
_symmetry_Int_Tables_number	1
_symmetry_cell_setting	triclinic
loop_
_symmetry_equiv_pos_as_xyz
  x,y,z
_cell_length_a	23.532407
_cell_length_b	10.268362
_cell_length_c	11.792254
_cell_angle_alpha	90.005455
_cell_angle_beta	83.523638
_cell_angle_gamma	89.999248
loop_
_atom_site_label
_atom_site_type_symbol
_atom_site_fract_x
_atom_site_fract_y
_atom_site_fract_z
O1	O	0.756079	0.108138	0.137771
O2	O	0.590334	0.108177	0.157705
O3	O	0.677225	0.108147	-0.017526
O4	O	0.669188	0.108168	0.313002
O5	O	0.677218	-0.108453	-0.017533
O6	O	0.590327	-0.108424	0.157698
O7	O	0.756072	-0.108462	0.137764
Cu8	Cu	0.673198	-0.128220	0.147730
Cu9	Cu	0.673207	0.127935	0.147739
O10	O	0.669181	-0.108433	0.312995
C11	C	0.569112	-0.000119	0.157194
C12	C	0.505885	-0.000104	0.155668
N13	N	0.673196	-0.308386	0.147724
C14	C	0.673205	-0.574057	0.147736
C15	C	0.673198	-0.426219	0.147733
C16	C	0.107342	-0.000158	0.249793
C17	C	0.047934	-0.000166	0.248376
O18	O	0.011708	-0.000208	0.335631
N19	N	0.024688	-0.000170	0.144201
C20	C	0.060854	-0.000179	0.041437
O21	O	0.035626	-0.000185	-0.047302
C22	C	0.120261	-0.000181	0.042856
C23	C	0.143504	-0.000163	0.147037
C24	C	0.130585	-0.000142	0.353967
C25	C	0.189990	-0.000131	0.355384
C26	C	0.226151	-0.000137	0.252628
C27	C	0.202908	-0.000153	0.148455
C28	C	0.156427	-0.000199	-0.059907
C29	C	0.215838	-0.000202	-0.058479
C30	C	0.239080	-0.000184	0.045703
C31	C	0.298475	-0.000148	0.047116
N32	N	0.321721	-0.000143	0.151291
C33	C	0.285559	-0.000138	0.254047
C34	C	-0.063906	-0.000179	0.038465
C35	C	-0.123313	-0.000168	0.037045
C36	C	-0.136229	-0.000157	0.243984
C37	C	-0.076821	-0.000158	0.245403
C38	C	-0.040660	-0.000175	0.142640
C39	C	0.410313	-0.000115	0.257016
C40	C	0.469724	-0.000099	0.258424
C41	C	0.482635	-0.000117	0.051485
C42	C	0.423230	-0.000126	0.050076
C43	C	0.387070	-0.000129	0.152851
O44	O	0.334735	-0.000111	-0.040094
O45	O	0.310795	-0.000149	0.342771
C46	C	0.777294	-0.000164	0.138275
C47	C	0.840521	-0.000170	0.139801
C48	C	0.676715	-0.000152	-0.059808
C49	C	0.675200	-0.000151	-0.185786
N50	N	0.673214	0.308101	0.147736
C51	C	0.673969	-0.000146	-0.288093
C52	C	0.672429	-0.000134	-0.416444
C53	C	0.669691	-0.000130	0.355277
C54	C	0.671206	-0.000123	0.481255
H55	H	0.380878	-0.000122	0.340705
H56	H	0.101148	-0.000142	0.437648
O57	O	-0.054340	-0.000208	0.346704
C58	C	-0.073438	-0.000112	0.551807
C59	C	-0.098969	-0.000083	0.437160
H60	H	-0.109507	0.000016	0.624971
H61	H	-0.045970	-0.090783	0.557727
H62	H	-0.045928	0.090511	0.557591
H63	H	-0.126505	-0.090645	0.431299
H64	H	-0.126403	0.090648	0.431289
O65	O	-0.145954	-0.000342	-0.064086
C66	C	-0.205490	-0.112608	-0.185837
C67	C	-0.179900	-0.112550	-0.071253
H68	H	-0.232931	-0.203332	-0.191679
H69	H	-0.233020	-0.022026	-0.191693
H70	H	-0.169425	-0.112544	-0.259010
H71	H	-0.215928	-0.112660	0.001986
H72	H	-0.152355	-0.203124	-0.065496
H73	H	0.208908	-0.000116	0.440219
H74	H	-0.165683	-0.000159	0.327653
H75	H	0.488644	-0.000084	0.343264
O76	O	-0.028863	-0.000116	-0.061471
C77	C	-0.022334	-0.000191	-0.266874
C78	C	-0.062082	-0.000231	-0.153784
H79	H	-0.049175	-0.000312	-0.341538
H80	H	0.005789	0.090479	-0.271462
H81	H	0.005816	-0.090815	-0.271338
H82	H	-0.090267	0.090331	-0.149245
H83	H	-0.090166	-0.090961	-0.149243
H84	H	0.137513	-0.000215	-0.144743
H85	H	0.245278	-0.000216	-0.142163
O86	O	0.400743	-0.000183	-0.051223
C87	C	0.419831	-0.000106	-0.256328
C88	C	0.445367	-0.000060	-0.141687
H89	H	0.455898	0.000021	-0.329497
H90	H	0.392368	-0.090783	-0.262252
H91	H	0.392315	0.090511	-0.262098
H92	H	0.472909	-0.090616	-0.135839
H93	H	0.472798	0.090677	-0.135812
O94	O	0.517827	0.000048	-0.048252
C95	C	0.592382	0.112278	-0.166764
C96	C	0.552567	0.112251	-0.053761
H97	H	0.620471	0.202998	-0.171266
H98	H	0.620558	0.021692	-0.171273
H99	H	0.565559	0.112200	-0.241457
H100	H	0.579345	0.112375	0.020996
H101	H	0.524389	0.202829	-0.049351
