data_functionalizedCrystal
_audit_creation_method	'MofGen! by Chris Wilmer'
_symmetry_space_group_name_H-M	'P1'
_symmetry_Int_Tables_number	1
_symmetry_cell_setting	triclinic
loop_
_symmetry_equiv_pos_as_xyz
  x,y,z
_cell_length_a	19.188933
_cell_length_b	19.188930
_cell_length_c	12.376457
_cell_angle_alpha	101.232575
_cell_angle_beta	78.746972
_cell_angle_gamma	83.145175
loop_
_atom_site_label
_atom_site_type_symbol
_atom_site_fract_x
_atom_site_fract_y
_atom_site_fract_z
O1	O	0.939571	0.073754	-0.093977
O2	O	0.736261	0.085486	-0.093990
O3	O	0.843780	-0.022032	-0.093961
O4	O	0.832052	0.181272	-0.094006
O5	O	0.816910	0.004811	0.094044
O6	O	0.709391	0.112329	0.094015
O7	O	0.912701	0.100597	0.094028
Zn8	Zn	0.806780	0.110725	0.123871
Zn9	Zn	0.842182	0.075358	-0.123833
O10	O	0.805182	0.208115	0.093999
C11	C	0.696816	0.098527	0.000012
C12	C	0.619312	0.097385	0.000008
C13	C	0.080701	0.074610	-0.102460
C14	C	0.153526	0.075677	-0.102464
C15	C	0.175296	0.090846	0.000017
C16	C	0.124237	0.104931	0.102510
C17	C	0.051415	0.103856	0.102512
N18	N	0.273415	0.143155	0.076289
N19	N	0.342594	0.144177	0.076281
C20	C	0.394705	0.094084	0.000018
N21	N	0.375024	0.042939	-0.076253
N22	N	0.305839	0.041919	-0.076248
C23	C	0.254258	0.092013	0.000026
C24	C	0.524720	0.081153	-0.102474
C25	C	0.597546	0.082217	-0.102474
C26	C	0.568254	0.111478	0.102503
C27	C	0.495431	0.110407	0.102501
C28	C	0.473668	0.095247	0.000009
C29	C	0.829964	-0.034621	0.000045
C30	C	0.828822	-0.112125	0.000054
C31	C	0.891912	-0.157047	0.000064
C32	C	0.890843	-0.229873	0.000045
C33	C	0.826677	-0.257771	0.000041
C34	C	0.763581	-0.212840	0.000025
C35	C	0.764653	-0.140017	0.000032
N36	N	0.768486	-0.356641	0.064019
N37	N	0.767471	-0.425821	0.064015
C38	C	0.823443	-0.477183	0.000018
N39	N	0.880476	-0.456752	-0.063962
N40	N	0.881492	-0.387566	-0.063953
C41	C	0.825508	-0.336735	0.000033
C42	C	0.885377	-0.601073	0.000005
C43	C	0.884307	-0.673901	-0.000020
C44	C	0.757041	-0.656864	-0.000029
C45	C	0.758115	-0.584039	-0.000015
C46	C	0.822285	-0.556147	0.000008
C47	C	0.952147	0.087556	0.000024
C48	C	1.029652	0.088697	0.000020
C49	C	0.818998	0.220704	-0.000009
C50	C	0.820141	0.298206	-0.000026
N51	N	0.782624	0.134861	0.292923
N52	N	0.866344	0.051216	-0.292885
C53	C	0.922418	-0.004826	0.647945
C54	C	0.939321	-0.021719	0.529610
C55	C	0.900148	0.017424	0.470432
C56	C	0.844069	0.073464	0.529602
C57	C	0.827168	0.090363	0.647949
C58	C	0.804898	0.112613	0.470436
C59	C	0.748820	0.168653	0.529605
C60	C	0.731921	0.185549	0.647941
C61	C	0.771094	0.146405	0.707118
C62	C	0.821799	0.095715	0.352089
C63	C	0.726550	0.190903	0.352093
C64	C	0.709647	0.207797	0.470428
H65	H	0.585979	0.123827	0.185945
H66	H	0.944164	-0.134343	0.000078
C67	C	0.439271	0.125910	0.215232
C68	C	0.463212	0.142593	0.327962
C69	C	0.407051	0.158092	0.440699
C70	C	0.326949	0.156907	0.440706
C71	C	0.303004	0.140223	0.327971
C72	C	0.359165	0.124724	0.215234
H73	H	0.522512	0.143471	0.327961
H74	H	0.424778	0.170443	0.524153
H75	H	0.285376	0.168381	0.524160
H76	H	0.243705	0.139346	0.327972
H77	H	0.341439	0.112374	0.131781
H78	H	0.984980	-0.067346	0.481438
H79	H	0.686264	0.231185	0.696117
H80	H	0.141967	0.117281	0.185951
C81	C	0.683454	0.233965	0.287009
C82	C	0.702041	0.215377	0.156840
C83	C	0.658951	0.258435	0.091748
C84	C	0.597273	0.320083	0.156826
C85	C	0.578683	0.338674	0.287003
C86	C	0.621773	0.295615	0.352094
H87	H	0.747701	0.169739	0.108659
H88	H	0.672713	0.244672	-0.004618
H89	H	0.565376	0.351958	0.108641
H90	H	0.533023	0.384312	0.335184
H91	H	0.608011	0.309378	0.448460
C92	C	0.918735	-0.001161	0.340262
C93	C	0.914009	-0.076870	0.275203
C94	C	0.932596	-0.095461	0.145027
C95	C	0.955907	-0.038341	0.079912
C96	C	0.960634	0.037373	0.144971
C97	C	0.942047	0.055964	0.275147
H98	H	0.896752	-0.119158	0.323405
H99	H	0.929097	-0.151510	0.096866
H100	H	0.969666	-0.052103	-0.016452
H101	H	0.977891	0.079661	0.096769
H102	H	0.945546	0.112013	0.323308
H103	H	0.062988	0.062262	-0.185916
H104	H	0.009848	0.115331	0.185966
H105	H	0.713276	-0.103440	0.000025
H106	H	0.757330	0.160157	0.803477
C107	C	0.965506	-0.047878	0.713037
C108	C	0.926775	-0.089589	0.794419
C109	C	0.969869	-0.132645	0.859509
C110	C	1.051694	-0.133990	0.843218
C111	C	1.090430	-0.092278	0.761833
C112	C	1.047336	-0.049222	0.696742
H113	H	0.866199	-0.088595	0.806482
H114	H	0.941194	-0.163524	0.919756
H115	H	1.083595	-0.165863	0.891402
H116	H	1.151006	-0.093272	0.749770
H117	H	1.076011	-0.018343	0.636495
H118	H	0.942220	-0.266456	0.000048
C119	C	0.209692	0.060185	-0.215198
C120	C	0.185754	0.043510	-0.327932
C121	C	0.241917	0.028020	-0.440665
C122	C	0.322018	0.029204	-0.440664
C123	C	0.345960	0.045880	-0.327926
C124	C	0.289797	0.061371	-0.215193
H125	H	0.126455	0.042632	-0.327937
H126	H	0.224193	0.015675	-0.524122
H127	H	0.363593	0.017737	-0.524116
H128	H	0.405259	0.046758	-0.327921
H129	H	0.307520	0.073715	-0.131736
C130	C	0.953711	-0.723318	-0.000012
C131	C	0.992393	-0.706406	0.097629
C132	C	1.061799	-0.755824	0.097636
C133	C	1.092524	-0.822154	0.000003
C134	C	1.053842	-0.839069	-0.097645
C135	C	0.984436	-0.789651	-0.097653
H136	H	0.969648	-0.657302	0.169909
H137	H	1.090433	-0.743302	0.169923
H138	H	1.143902	-0.858736	0.000009
H139	H	1.076586	-0.888173	-0.169926
H140	H	0.955802	-0.802173	-0.169939
C141	C	0.500778	0.064468	-0.215211
C142	C	0.446634	0.120320	-0.243415
C143	C	0.422695	0.103634	-0.356153
C144	C	0.452900	0.031097	-0.440687
C145	C	0.507047	-0.024760	-0.412485
C146	C	0.530986	-0.008074	-0.299747
H147	H	0.424272	0.174021	-0.180836
H148	H	0.382612	0.144983	-0.377029
H149	H	0.435179	0.018745	-0.524143
H150	H	0.529409	-0.078461	-0.475065
H151	H	0.571069	-0.049424	-0.278871
H152	H	0.639112	0.070739	-0.185929
C153	C	0.692998	-0.243524	0.000019
C154	C	0.691814	-0.323625	0.000016
C155	C	0.621229	-0.354309	0.000002
C156	C	0.551829	-0.304891	-0.000010
C157	C	0.553010	-0.224785	-0.000008
C158	C	0.623595	-0.194101	0.000007
H159	H	0.743191	-0.360211	0.000025
H160	H	0.620355	-0.413609	-0.000000
H161	H	0.499578	-0.327605	-0.000021
H162	H	0.501633	-0.188199	-0.000017
H163	H	0.624469	-0.134801	0.000009
H164	H	0.937629	-0.578363	0.000019
C165	C	0.688711	-0.534618	-0.000006
C166	C	0.650018	-0.551531	-0.097632
C167	C	0.580610	-0.502110	-0.097625
C168	C	0.549896	-0.435777	0.000007
C169	C	0.588589	-0.418862	0.097640
C170	C	0.657997	-0.468282	0.097634
H171	H	0.672754	-0.600637	-0.169911
H172	H	0.551966	-0.514633	-0.169900
H173	H	0.498516	-0.399194	0.000012
H174	H	0.565853	-0.369756	0.169920
H175	H	0.686641	-0.455760	0.169909
H176	H	0.704797	-0.679578	-0.000038
H177	H	0.867459	0.050087	0.303924
H178	H	0.663987	0.253426	0.518619
