data_functionalizedCrystal
_audit_creation_method	'MofGen! by Chris Wilmer'
_symmetry_space_group_name_H-M	'P1'
_symmetry_Int_Tables_number	1
_symmetry_cell_setting	triclinic
loop_
_symmetry_equiv_pos_as_xyz
  x,y,z
_cell_length_a	35.277640
_cell_length_b	35.282854
_cell_length_c	35.288234
_cell_angle_alpha	89.993733
_cell_angle_beta	59.998174
_cell_angle_gamma	119.985346
loop_
_atom_site_label
_atom_site_type_symbol
_atom_site_fract_x
_atom_site_fract_y
_atom_site_fract_z
O1	O	-0.271411	0.322991	0.011272
O2	O	-0.193772	0.267884	-0.011221
O3	O	-0.271392	0.267883	0.066378
O4	O	-0.193791	0.322991	-0.066326
O5	O	-0.334420	0.204856	0.066377
O6	O	-0.256800	0.204856	-0.011221
O7	O	-0.334439	0.259963	0.011272
Cu8	Cu	-0.301374	0.226654	0.000025
Cu9	Cu	-0.226837	0.301192	0.000026
O10	O	-0.256819	0.259963	-0.066327
C11	C	-0.466033	0.431889	0.034174
C12	C	-0.443449	0.477496	0.034496
C13	C	-0.534678	0.431888	0.034177
C14	C	-0.511990	0.477494	0.034499
C15	C	-0.466055	0.500511	0.034177
C16	C	-0.511967	0.408977	0.034496
C17	C	-0.411651	0.320736	0.021742
C18	C	-0.386524	0.298986	0.018227
C19	C	-0.339559	0.322435	0.016463
C20	C	-0.312306	0.298857	0.012643
C21	C	-0.317725	0.367634	0.018218
C22	C	-0.342856	0.389379	0.021738
C23	C	-0.389821	0.365928	0.023501
C24	C	-0.342490	0.665993	0.021756
C25	C	-0.317233	0.712855	0.018245
C26	C	-0.338929	0.736365	0.016481
C27	C	-0.311545	0.787178	0.012668
C28	C	-0.385890	0.713006	0.018236
C29	C	-0.411151	0.666144	0.021755
C30	C	-0.389443	0.642640	0.023513
C31	C	-0.687750	0.320732	0.021755
C32	C	-0.731104	0.298982	0.018238
C33	C	-0.752864	0.322430	0.016476
C34	C	-0.799869	0.298850	0.012660
C35	C	-0.731267	0.367627	0.018229
C36	C	-0.687913	0.389375	0.021745
C37	C	-0.666161	0.365921	0.023512
C38	C	-0.417065	0.389512	0.027315
C39	C	-0.438784	0.408309	0.030356
C40	C	-0.581683	0.408307	0.030363
C41	C	-0.619152	0.389509	0.027324
C42	C	-0.438667	0.551323	0.030363
C43	C	-0.416835	0.591826	0.027325
C44	C	0.006335	0.500223	-0.438370
C45	C	-0.016361	0.477207	-0.392764
C46	C	-0.062287	0.431601	-0.438372
C47	C	-0.084878	0.408689	-0.392766
C48	C	-0.062288	0.431600	-0.369749
C49	C	-0.016360	0.477208	-0.461282
C50	C	0.159389	0.665705	-0.549520
C51	C	0.202738	0.712568	-0.571270
C52	C	0.224482	0.736076	-0.547821
C53	C	0.271478	0.786890	-0.571398
C54	C	0.202877	0.712717	-0.502622
C55	C	0.159536	0.665856	-0.480878
C56	C	0.137792	0.642350	-0.504329
C57	C	-0.116621	0.389695	-0.204267
C58	C	-0.141734	0.368095	-0.157404
C59	C	-0.188691	0.322903	-0.133894
C60	C	-0.215929	0.299483	-0.083082
C61	C	-0.210532	0.299309	-0.157254
C62	C	-0.185414	0.320905	-0.204116
C63	C	-0.138457	0.366102	-0.227620
C64	C	-0.116616	0.389699	-0.549528
C65	C	-0.141732	0.368103	-0.571278
C66	C	-0.188690	0.322909	-0.547831
C67	C	-0.215926	0.299491	-0.571410
C68	C	-0.210531	0.299316	-0.502634
C69	C	-0.185415	0.320914	-0.480886
C70	C	-0.138453	0.366106	-0.504339
C71	C	0.090792	0.591538	-0.480746
C72	C	0.053330	0.551035	-0.461949
C73	C	-0.089519	0.408185	-0.461953
C74	C	-0.111225	0.389520	-0.480752
C75	C	-0.089521	0.408183	-0.318937
C76	C	-0.111228	0.389517	-0.278434
O77	O	-0.925475	0.204851	-0.011204
O78	O	-0.815251	0.259955	0.011294
O79	O	-0.815240	0.259960	-0.066306
O80	O	-0.925486	0.204845	0.066397
O81	O	-0.815261	0.322987	-0.066303
O82	O	-0.815272	0.322982	0.011298
O83	O	-0.925496	0.267877	-0.011200
Cu84	Cu	-0.870386	0.301184	0.000049
Cu85	Cu	-0.870361	0.226648	0.000045
O86	O	-0.925507	0.267872	0.066400
C87	C	-0.071369	0.163432	-0.023510
C88	C	-0.024594	0.186816	-0.020291
C89	C	-0.094059	0.117825	-0.023829
C90	C	-0.140009	0.163433	-0.023514
C91	C	-0.166625	0.186819	-0.020299
C92	C	-0.162594	0.117826	-0.023833
C93	C	-0.139992	0.094809	-0.023510
C94	C	-0.166589	0.044822	-0.020290
C95	C	-0.094076	0.186344	-0.023834
C96	C	-0.188077	0.004436	-0.017687
C97	C	0.013194	0.205708	-0.017688
C98	C	-0.188128	0.205712	-0.017701
C99	C	-0.215035	-0.046228	-0.014423
C100	C	0.060602	0.229409	-0.014425
C101	C	-0.215104	0.229414	-0.014442
O102	O	-0.256732	0.936640	-0.011204
O103	O	-0.334318	0.803934	0.011294
O104	O	-0.256716	0.881523	-0.066307
O105	O	-0.334334	0.859051	0.066396
O106	O	-0.193674	0.881521	-0.066300
O107	O	-0.271276	0.803933	0.011301
O108	O	-0.193690	0.936638	-0.011197
Cu109	Cu	-0.226726	0.870285	0.000053
Cu110	Cu	-0.301281	0.870287	0.000044
O111	O	-0.271292	0.859049	0.066404
O112	O	-0.271383	0.267892	-0.665417
O113	O	-0.193784	0.322998	-0.610306
O114	O	-0.271403	0.322998	-0.610304
O115	O	-0.193764	0.267892	-0.665419
O116	O	-0.334431	0.259970	-0.547278
O117	O	-0.256812	0.259970	-0.547280
O118	O	-0.334412	0.204864	-0.602391
Cu119	Cu	-0.301367	0.226662	-0.569081
Cu120	Cu	-0.226829	0.301200	-0.643616
O121	O	-0.256792	0.204863	-0.602393
O122	O	0.397071	0.936350	-0.602370
O123	O	0.286862	0.803646	-0.547264
O124	O	0.286836	0.881240	-0.547260
O125	O	0.397097	0.858756	-0.602374
O126	O	0.286836	0.881240	-0.610287
O127	O	0.286862	0.803646	-0.610292
O128	O	0.397071	0.936350	-0.665397
Cu129	Cu	0.341967	0.869998	-0.643599
Cu130	Cu	0.341967	0.869998	-0.569062
O131	O	0.397097	0.858755	-0.665402
C132	C	-0.456763	0.094819	0.293167
C133	C	-0.503531	0.044832	0.316552
C134	C	-0.434068	0.117836	0.316078
C135	C	-0.388142	0.163440	0.224545
C136	C	-0.361540	0.186824	0.174558
C137	C	-0.365551	0.186353	0.247560
C138	C	-0.388140	0.163442	0.293166
C139	C	-0.361536	0.186828	0.316550
C140	C	-0.434070	0.117834	0.247561
C141	C	-0.340041	0.205720	0.335441
C142	C	-0.541314	0.004448	0.335444
C143	C	-0.340047	0.205715	0.134174
C144	C	-0.313076	0.229422	0.359141
C145	C	-0.588715	-0.046216	0.359145
C146	C	-0.313084	0.229415	0.083510
C147	C	-1.140063	0.163408	0.293180
C148	C	-1.166684	0.186791	0.316565
C149	C	-1.162650	0.117799	0.316088
C150	C	-1.071409	0.163413	0.224560
C151	C	-1.024625	0.186802	0.174575
C152	C	-1.094101	0.117805	0.247572
C153	C	-1.140042	0.094786	0.293175
C154	C	-1.166641	0.044797	0.316555
C155	C	-1.094122	0.186323	0.247576
C156	C	-1.188131	0.004411	0.335443
C157	C	-1.188191	0.205682	0.335457
C158	C	-0.986829	0.205697	0.134192
C159	C	-1.215090	-0.046255	0.359140
C160	C	-1.215173	0.229381	0.359159
C161	C	-0.939412	0.229402	0.083531
C162	C	-0.388079	0.846772	0.293190
C163	C	-0.361472	0.849993	0.316577
C164	C	-0.434019	0.846455	0.316098
C165	C	-0.388075	0.846765	0.224566
C166	C	-0.361464	0.849977	0.174580
C167	C	-0.434015	0.846448	0.247578
C168	C	-0.456718	0.846774	0.293183
C169	C	-0.503500	0.849995	0.316564
C170	C	-0.365480	0.846446	0.247584
C171	C	-0.541294	0.852599	0.335452
C172	C	-0.339976	0.852595	0.335471
C173	C	-0.339965	0.852574	0.134196
C174	C	-0.588710	0.855865	0.359149
C175	C	-0.313008	0.855860	0.359175
C176	C	-0.312993	0.855830	0.083532
C177	C	-0.465991	0.500246	-0.438332
C178	C	-0.443380	0.477234	-0.461243
C179	C	-0.534621	0.431619	-0.369715
C180	C	-0.511907	0.408711	-0.392731
C181	C	-0.465965	0.431626	-0.438335
C182	C	-0.511932	0.477227	-0.392728
C183	C	-0.411702	0.665727	-0.480224
C184	C	-0.386596	0.712590	-0.501819
C185	C	-0.339625	0.736103	-0.547010
C186	C	-0.312396	0.786918	-0.570424
C187	C	-0.317764	0.712748	-0.570605
C188	C	-0.342874	0.665886	-0.549012
C189	C	-0.389845	0.642376	-0.503819
C190	C	-0.342314	0.389735	-0.549485
C191	C	-0.317031	0.368139	-0.571236
C192	C	-0.338707	0.322946	-0.547792
C193	C	-0.311294	0.299529	-0.571369
C194	C	-0.385674	0.299348	-0.502596
C195	C	-0.410961	0.320940	-0.480849
C196	C	-0.389273	0.366138	-0.504299
C197	C	-0.687743	0.389701	-0.204239
C198	C	-0.731104	0.368100	-0.157376
C199	C	-0.752844	0.322905	-0.133870
C200	C	-0.799856	0.299482	-0.083058
C201	C	-0.731219	0.299315	-0.157227
C202	C	-0.687858	0.320918	-0.204088
C203	C	-0.666126	0.366111	-0.227592
C204	C	-0.417066	0.591563	-0.480406
C205	C	-0.438766	0.551059	-0.461744
C206	C	-0.581634	0.408199	-0.318905
C207	C	-0.619110	0.389530	-0.278404
C208	C	-0.438548	0.408213	-0.461915
C209	C	-0.416694	0.389550	-0.480712
O210	O	-1.271330	-0.196094	0.389668
O211	O	-1.193738	-0.063385	0.334580
O212	O	-1.271322	-0.140967	0.334556
O213	O	-1.193745	-0.118512	0.389693
O214	O	-1.334379	-0.140972	0.397582
O215	O	-1.256794	-0.063390	0.397606
O216	O	-1.334386	-0.196098	0.452694
Cu217	Cu	-1.301348	-0.129744	0.430905
Cu218	Cu	-1.226776	-0.129739	0.356369
O219	O	-1.256802	-0.118516	0.452719
C220	C	0.006504	0.904366	-0.438341
C221	C	-0.016196	0.904684	-0.461255
C222	C	-0.062139	0.904375	-0.369723
C223	C	-0.084734	0.904693	-0.392741
C224	C	-0.062136	0.904367	-0.438347
C225	C	-0.016199	0.904692	-0.392735
C226	C	0.159605	0.891934	-0.480230
C227	C	0.202967	0.888418	-0.501826
C228	C	0.224720	0.886650	-0.547018
C229	C	0.271731	0.882829	-0.570433
C230	C	0.203111	0.888401	-0.570616
C231	C	0.159756	0.891923	-0.549022
C232	C	0.138003	0.893690	-0.503828
C233	C	-0.116469	0.891932	-0.549507
C234	C	-0.141585	0.888418	-0.571260
C235	C	-0.188554	0.886656	-0.547817
C236	C	-0.215795	0.882838	-0.571396
C237	C	-0.210403	0.888414	-0.502619
C238	C	-0.185283	0.891937	-0.480869
C239	C	-0.138314	0.893693	-0.504318
C240	C	-0.116484	0.891969	-0.204240
C241	C	-0.141607	0.888456	-0.157376
C242	C	-0.188577	0.886696	-0.133870
C243	C	-0.215820	0.882885	-0.083057
C244	C	-0.210423	0.888445	-0.157229
C245	C	-0.185300	0.891957	-0.204092
C246	C	-0.138326	0.893723	-0.227595
C247	C	0.090988	0.897504	-0.480415
C248	C	0.053514	0.900547	-0.461753
C249	C	-0.089379	0.900565	-0.318911
C250	C	-0.111090	0.897530	-0.278409
C251	C	-0.089372	0.900550	-0.461930
C252	C	-0.111081	0.897508	-0.480729
H253	H	-0.406485	0.495973	0.035009
O254	O	-0.456681	0.095875	0.360793
C255	C	-0.426779	0.125990	0.376164
H256	H	-0.403528	0.163480	0.354324
H257	H	-0.455110	0.120516	0.414139
H258	H	-0.397520	0.118325	0.372459
H259	H	-0.453057	0.099348	0.229080
O260	O	-0.752481	0.390359	0.016600
C261	C	-0.806881	0.365174	0.054435
H262	H	-0.814260	0.342006	0.083365
H263	H	-0.817282	0.390365	0.067776
H264	H	-0.833089	0.342786	0.042756
H265	H	-0.328513	0.845929	0.229111
H266	H	-0.121833	0.371216	-0.374291
H267	H	-0.453015	0.845923	0.229098
O268	O	-0.321450	0.231050	0.225579
C269	C	-0.306302	0.246428	0.255698
H270	H	-0.322532	0.215218	0.283271
H271	H	-0.260718	0.270021	0.235000
H272	H	-0.323406	0.266480	0.273178
H273	H	0.141951	0.646841	-0.444078
O274	O	-0.272054	0.390421	0.016420
C275	C	-0.230241	0.394541	-0.025485
H276	H	-0.239706	0.391862	-0.052291
H277	H	-0.191066	0.429570	-0.038914
H278	H	-0.226139	0.365525	-0.019137
O279	O	-0.666527	0.298022	0.023414
C280	C	-0.612131	0.323198	-0.014429
H281	H	-0.595935	0.361141	-0.027202
H282	H	-0.588207	0.320672	-0.002982
H283	H	-0.608266	0.308141	-0.043704
O284	O	-0.206743	0.095731	-0.024369
C285	C	-0.249042	0.055724	0.015386
H286	H	-0.241862	0.059923	0.043694
H287	H	-0.288529	0.050785	0.028380
H288	H	-0.250941	0.024115	0.006232
O289	O	-1.206794	0.095683	0.360769
C290	C	-1.249097	0.055692	0.363299
H291	H	-1.231975	0.044186	0.332500
H292	H	-1.273358	0.026670	0.396972
H293	H	-1.276163	0.063881	0.362473
O294	O	-0.071339	0.231057	-0.024477
C295	C	-0.025855	0.246430	-0.024672
H296	H	-0.010181	0.224597	-0.038909
H297	H	0.006642	0.284407	-0.047511
H298	H	-0.037244	0.242716	0.012247
O299	O	-0.406663	0.255477	-0.479810
C300	C	-0.368873	0.255578	-0.475682
H301	H	-0.339394	0.291846	-0.478354
H302	H	-0.390478	0.229831	-0.440653
H303	H	-0.346190	0.245140	-0.504699
H304	H	-0.670332	0.426176	0.023172
H305	H	-0.530996	0.495972	0.035013
O306	O	-0.070958	0.433574	-0.572377
C307	C	-0.030937	0.434554	-0.613219
H308	H	-0.050547	0.404213	-0.624140
H309	H	-0.005989	0.468578	-0.642065
H310	H	-0.003914	0.431664	-0.606478
O311	O	-0.128811	0.905346	-0.370646
C312	C	-0.143991	0.905552	-0.325368
H313	H	-0.107916	0.919784	-0.323942
H314	H	-0.159128	0.928402	-0.315721
H315	H	-0.177201	0.868639	-0.299830
H316	H	-0.530952	0.371506	0.035008
H317	H	-0.453013	0.845950	0.353567
O318	O	0.006510	0.905369	-0.505981
C319	C	0.021861	0.945547	-0.534209
H320	H	0.027477	0.973133	-0.516672
H321	H	0.061144	0.959375	-0.569296
H322	H	-0.010621	0.936623	-0.539486
H323	H	-0.530897	0.371239	-0.374253
O324	O	-0.666586	0.433633	-0.227028
C325	C	-0.647846	0.463928	-0.205048
H326	H	-0.639316	0.448107	-0.184734
H327	H	-0.609466	0.498652	-0.232352
H328	H	-0.679602	0.469523	-0.180284
O329	O	-0.399252	0.499361	-0.505932
C330	C	-0.384092	0.544636	-0.521306
H331	H	-0.400359	0.555964	-0.490092
H332	H	-0.338507	0.569510	-0.544872
H333	H	-0.401152	0.545046	-0.541387
H334	H	-0.075051	0.099348	-0.024346
O335	O	-1.071498	0.095715	0.225519
C336	C	-1.108956	0.055711	0.223219
H337	H	-1.140258	0.059907	0.226203
H338	H	-1.087399	0.050779	0.188679
H339	H	-1.129500	0.024098	0.252915
H340	H	-1.075134	0.223796	0.229102
O341	O	-0.534555	0.499328	-0.370755
C342	C	-0.504647	0.544611	-0.400853
H343	H	-0.481386	0.546038	-0.438349
H344	H	-0.532976	0.554276	-0.395367
H345	H	-0.475397	0.570136	-0.393180
O346	O	0.224283	0.886766	-0.614543
C347	C	0.243032	0.927488	-0.644848
H348	H	0.251557	0.956332	-0.629034
H349	H	0.281417	0.938552	-0.679570
H350	H	0.211284	0.920511	-0.650446
O351	O	-0.752067	0.391025	-0.134646
C352	C	-0.747849	0.395232	-0.096967
H353	H	-0.714328	0.392471	-0.103658
H354	H	-0.738456	0.430322	-0.092952
H355	H	-0.787351	0.366306	-0.063822
H356	H	-0.449948	0.646589	-0.443427
H357	H	0.002776	0.905173	-0.374244
H358	H	-0.404398	0.731603	-0.482604
O359	O	-0.255994	0.886823	-0.134405
C360	C	-0.247365	0.924664	-0.117856
H361	H	-0.202642	0.953588	-0.139403
H362	H	-0.269607	0.938011	-0.120816
H363	H	-0.262869	0.912991	-0.079969
H364	H	-0.279522	0.731894	-0.607400
H365	H	-0.670256	0.301707	-0.223103
O366	O	-0.321555	0.643276	-0.571988
C367	C	-0.274722	0.674072	-0.616508
H368	H	-0.257694	0.711315	-0.616462
H369	H	-0.243772	0.666507	-0.626100
H370	H	-0.284827	0.669295	-0.642961
O371	O	-0.321196	0.433629	-0.572339
C372	C	-0.274319	0.449829	-0.616887
H373	H	-0.275574	0.418995	-0.627687
H374	H	-0.271757	0.471908	-0.642825
H375	H	-0.237719	0.471683	-0.616173
O376	O	-0.456527	0.298030	-0.436918
C377	C	-0.446016	0.286471	-0.406694
H378	H	-0.401360	0.310899	-0.422506
H379	H	-0.469744	0.289993	-0.371904
H380	H	-0.458443	0.249176	-0.401231
O381	O	-0.120458	0.886637	-0.615136
C382	C	-0.158149	0.844721	-0.615099
H383	H	-0.200190	0.830905	-0.583670
H384	H	-0.155586	0.851209	-0.648213
H385	H	-0.149150	0.818154	-0.613386
H386	H	0.002640	0.495684	-0.374289
H387	H	-0.278791	0.387356	-0.608034
O388	O	-0.752334	0.255436	-0.134331
C389	C	-0.748099	0.255535	-0.096657
H390	H	-0.744776	0.287042	-0.086174
H391	H	-0.785204	0.222492	-0.066052
H392	H	-0.710892	0.257152	-0.107279
H393	H	-0.123823	0.887020	-0.138357
O394	O	-0.070873	0.893656	-0.226996
C395	C	-0.056972	0.891367	-0.196334
H396	H	-0.094186	0.874284	-0.159045
H397	H	-0.039784	0.870034	-0.204004
H398	H	-0.025707	0.927931	-0.201159
O399	O	0.138558	0.893669	-0.436337
C400	C	0.166919	0.891360	-0.420138
H401	H	0.208562	0.903425	-0.450973
H402	H	0.170771	0.914735	-0.398061
H403	H	0.144359	0.854053	-0.398281
O404	O	0.224032	0.886793	-0.478952
C405	C	0.278422	0.924623	-0.504046
H406	H	0.285886	0.953551	-0.527300
H407	H	0.288686	0.937970	-0.478790
H408	H	0.304674	0.912937	-0.526340
O409	O	0.138725	0.893539	-0.571932
C410	C	0.120067	0.852804	-0.583484
H411	H	0.111461	0.823974	-0.559051
H412	H	0.081746	0.841728	-0.579961
H413	H	0.151906	0.859771	-0.620778
O414	O	-0.070790	0.893725	-0.572336
C415	C	-0.030784	0.932735	-0.613193
H416	H	-0.040198	0.959635	-0.609334
H417	H	0.009808	0.948434	-0.619378
H418	H	-0.029611	0.921680	-0.643903
H419	H	-0.248644	0.886986	-0.483533
O420	O	-0.206589	0.893619	-0.436958
C421	C	-0.253423	0.891324	-0.420932
H422	H	-0.270461	0.874241	-0.441138
H423	H	-0.284366	0.869986	-0.382427
H424	H	-0.243315	0.927885	-0.426269
O425	O	-0.206608	0.893590	-0.226718
C426	C	-0.258889	0.852849	-0.204663
H427	H	-0.275756	0.837010	-0.167135
H428	H	-0.285553	0.861690	-0.205374
H429	H	-0.257635	0.826903	-0.223646
O430	O	-0.752036	0.255068	0.016564
C431	C	-0.723531	0.239038	0.018867
H432	H	-0.703363	0.259249	0.035944
H433	H	-0.752437	0.200536	0.040213
H434	H	-0.691744	0.244365	-0.017692
H435	H	-0.449892	0.301636	0.023179
H436	H	-0.325077	0.426179	0.023168
O437	O	-0.407787	0.255091	0.016503
C438	C	-0.454632	0.239053	0.018824
H439	H	-0.453244	0.269974	0.006758
H440	H	-0.457286	0.216985	-0.004545
H441	H	-0.491247	0.217233	0.056135
H442	H	-0.278997	0.731871	0.016814
O443	O	-0.321321	0.643228	0.023415
C444	C	-0.269043	0.665186	-0.017313
H445	H	-0.252054	0.702752	-0.033171
H446	H	-0.242455	0.664350	-0.008448
H447	H	-0.270346	0.646212	-0.043253
O448	O	-0.406961	0.735871	0.016586
C449	C	-0.419640	0.752410	0.054433
H450	H	-0.394460	0.755844	0.067202
H451	H	-0.410737	0.787771	0.042992
H452	H	-0.463976	0.726990	0.083709
H453	H	-0.449387	0.647128	0.023185
O454	O	-0.120433	0.391034	-0.134778
C455	C	-0.068143	0.402569	-0.156832
H456	H	-0.051271	0.403592	-0.194359
H457	H	-0.041492	0.438064	-0.156122
H458	H	-0.069381	0.375380	-0.137847
O459	O	0.006361	0.499236	-0.506010
C460	C	0.059425	0.512112	-0.534231
H461	H	0.063859	0.488956	-0.516689
H462	H	0.069082	0.507925	-0.569320
H463	H	0.088244	0.549865	-0.539503
O464	O	-0.120504	0.391090	-0.615160
C465	C	-0.118681	0.431942	-0.616070
H466	H	-0.118637	0.442732	-0.585634
H467	H	-0.080677	0.460846	-0.650021
H468	H	-0.155251	0.425283	-0.613290
H469	H	0.141690	0.646570	-0.568621
O470	O	0.223637	0.735194	-0.615164
C471	C	0.195158	0.704396	-0.631201
H472	H	0.153564	0.674871	-0.600279
H473	H	0.191187	0.723805	-0.653264
H474	H	0.217692	0.689609	-0.653027
H475	H	0.220587	0.731860	-0.483534
H476	H	-0.248762	0.262510	-0.138113
H477	H	-0.078386	0.426494	-0.223401
O478	O	-0.206710	0.297928	-0.226732
C479	C	-0.253532	0.253404	-0.195941
H480	H	-0.270579	0.253444	-0.158695
H481	H	-0.284475	0.243804	-0.203508
H482	H	-0.243403	0.226959	-0.200721
O483	O	-0.206686	0.297921	-0.436990
C484	C	-0.253522	0.253406	-0.420954
H485	H	-0.252119	0.242736	-0.451876
H486	H	-0.256176	0.227378	-0.398885
H487	H	-0.290144	0.254107	-0.399135
O488	O	-0.256095	0.255384	-0.479900
C489	C	-0.247458	0.226176	-0.505084
H490	H	-0.202734	0.241958	-0.528255
H491	H	-0.269695	0.190596	-0.479892
H492	H	-0.262962	0.222355	-0.527470
