data_functionalizedCrystal
_audit_creation_method	'MofGen! by Chris Wilmer'
_symmetry_space_group_name_H-M	'P1'
_symmetry_Int_Tables_number	1
_symmetry_cell_setting	triclinic
loop_
_symmetry_equiv_pos_as_xyz
  x,y,z
_cell_length_a	17.077404
_cell_length_b	15.299816
_cell_length_c	17.077396
_cell_angle_alpha	80.343631
_cell_angle_beta	90.019777
_cell_angle_gamma	80.346343
loop_
_atom_site_label
_atom_site_type_symbol
_atom_site_fract_x
_atom_site_fract_y
_atom_site_fract_z
Zn1	Zn	1.254135	-0.359177	0.497999
Zn2	Zn	1.754135	0.140823	0.997999
Zn3	Zn	1.276752	-0.510010	0.389473
Zn4	Zn	1.776752	-0.010010	0.889473
Zn5	Zn	1.122869	-0.359196	0.366749
Zn6	Zn	1.622869	0.140804	0.866749
Zn7	Zn	1.145535	-0.509943	0.520686
Zn8	Zn	1.645535	-0.009943	1.020686
O9	O	1.199823	-0.434582	0.443727
O10	O	1.699823	0.065418	0.943727
O11	O	1.366985	-0.379205	0.483618
O12	O	1.866985	0.120795	0.983618
O13	O	1.256319	-0.490039	0.276617
O14	O	1.756319	0.009961	0.776617
O15	O	1.121331	-0.232981	0.365155
O16	O	1.621331	0.267019	0.865155
O17	O	1.383602	-0.490021	0.403885
O18	O	1.883602	0.009979	0.903885
O19	O	1.217771	-0.232968	0.461584
O20	O	1.717771	0.267032	0.961584
O21	O	1.143262	-0.379237	0.259922
O22	O	1.643262	0.120763	0.759922
O23	O	1.016026	-0.379173	0.387154
O24	O	1.516026	0.120827	0.887154
O25	O	1.159961	-0.489908	0.627518
O26	O	1.659961	0.010092	1.127518
O27	O	1.032678	-0.489927	0.500251
O28	O	1.532678	0.010073	1.000251
O29	O	1.239749	-0.379141	0.610850
O30	O	1.739749	0.120859	1.110850
O31	O	1.278297	-0.636213	0.425884
O32	O	1.778297	-0.136213	0.925884
O33	O	1.181892	-0.636164	0.522285
O34	O	1.681892	-0.136164	1.022285
C35	C	0.995869	-0.434545	0.443699
C36	C	1.495869	0.065455	0.943699
C37	C	0.908621	-0.434552	0.443709
C38	C	1.408621	0.065448	0.943709
C39	C	1.235030	-0.668914	0.479029
C40	C	1.735030	-0.168914	0.979029
C41	C	1.250163	-0.769162	0.494158
C42	C	1.750163	-0.269162	0.994158
C43	C	0.541521	-0.492380	0.502580
C44	C	1.041521	0.007620	1.002580
C45	C	0.623500	-0.492368	0.502566
C46	C	1.123500	0.007632	1.002566
C47	C	0.655780	-0.434605	0.443743
C48	C	1.155780	0.065395	0.943743
C49	C	0.606077	-0.376857	0.384926
C50	C	1.106077	0.123143	0.884926
C51	C	0.524100	-0.376874	0.384937
C52	C	1.024100	0.123126	0.884937
C53	C	0.776942	-0.376824	0.384908
C54	C	1.276942	0.123176	0.884908
C55	C	0.858924	-0.376806	0.384897
C56	C	1.358924	0.123194	0.884897
C57	C	0.876342	-0.492318	0.502537
C58	C	1.376342	0.007682	1.002537
C59	C	0.794365	-0.492335	0.502548
C60	C	1.294365	0.007665	1.002548
C61	C	0.744668	-0.434586	0.443731
C62	C	1.244668	0.065414	0.943731
C63	C	1.092176	-1.052073	0.335867
C64	C	1.592176	-0.552073	0.835867
C65	C	1.077954	-0.957885	0.321655
C66	C	1.577954	-0.457885	0.821655
C67	C	1.121005	-0.910700	0.364779
C68	C	1.621005	-0.410700	0.864779
C69	C	1.178281	-0.957712	0.422118
C70	C	1.678281	-0.457712	0.922118
C71	C	1.192501	-1.051910	0.436336
C72	C	1.692501	-0.551910	0.936336
C73	C	1.221329	-0.910536	0.465248
C74	C	1.721329	-0.410536	0.965248
C75	C	1.278605	-0.957548	0.522588
C76	C	1.778605	-0.457548	1.022588
C77	C	1.292823	-1.051736	0.536803
C78	C	1.792823	-0.551736	1.036803
C79	C	1.249772	-1.098922	0.493679
C80	C	1.749772	-0.598922	0.993679
C81	C	1.207110	-0.816338	0.451030
C82	C	1.707110	-0.316338	0.951030
C83	C	1.307434	-0.816175	0.551500
C84	C	1.807434	-0.316175	1.051500
C85	C	1.321657	-0.910363	0.565712
C86	C	1.821657	-0.410363	1.065712
C87	C	1.404573	-0.434618	0.443756
C88	C	1.904573	0.065382	0.943756
C89	C	1.491825	-0.434634	0.443768
C90	C	1.991825	0.065366	0.943768
C91	C	1.199860	-0.434515	0.648461
C92	C	1.699860	0.065485	1.148461
C93	C	1.199876	-0.434487	0.735707
C94	C	1.699876	0.065513	1.235707
C95	C	1.164500	-0.199334	0.408304
C96	C	1.664500	0.300666	0.908304
C97	C	1.149447	-0.099086	0.393209
C98	C	1.649447	0.400914	0.893209
C99	C	1.199821	-0.434583	0.239779
C100	C	1.699821	0.065417	0.739779
C101	C	1.199919	-0.434357	0.152496
C102	C	1.699919	0.065643	0.652496
C103	C	1.241423	-0.376805	0.768019
C104	C	1.741423	0.123195	1.268019
C105	C	1.241428	-0.376775	0.849995
C106	C	1.741428	0.123225	1.349995
C107	C	1.199890	-0.434432	0.899658
C108	C	1.699890	0.065568	1.399658
C109	C	1.158338	-0.492116	0.867341
C110	C	1.658338	0.007884	1.367341
C111	C	1.158329	-0.492141	0.785366
C112	C	1.658329	0.007859	1.285366
C113	C	1.158362	-0.492062	1.038203
C114	C	1.658362	0.007938	1.538203
C115	C	1.158372	-0.492038	1.120184
C116	C	1.658372	0.007962	1.620184
C117	C	1.241460	-0.376696	1.102832
C118	C	1.741460	0.123304	1.602832
C119	C	1.241451	-0.376721	1.020857
C120	C	1.741451	0.123279	1.520857
C121	C	1.199900	-0.434406	0.988545
C122	C	1.699900	0.065594	1.488545
H123	H	0.515246	-0.539412	0.550483
H124	H	1.015246	-0.039412	1.050483
C125	C	0.678163	-0.555883	0.567262
C126	C	1.178163	-0.055883	1.067262
H127	H	0.647196	-0.590277	0.602303
H128	H	1.147196	-0.090277	1.102303
H129	H	0.716034	-0.595133	0.543092
H130	H	1.216034	-0.095133	1.043092
H131	H	0.704972	-0.521417	0.596320
H132	H	1.204972	-0.021417	1.096320
C133	C	0.931009	-0.555869	0.567214
C134	C	1.431009	-0.055869	1.067214
H135	H	0.984457	-0.547603	0.558774
H136	H	1.484457	-0.047603	1.058774
H137	H	0.915640	-0.542772	0.618010
H138	H	1.415640	-0.042772	1.118010
H139	H	0.926669	-0.616449	0.564743
H140	H	1.426669	-0.116449	1.064743
H141	H	1.368291	-0.948654	0.612399
H142	H	1.868291	-0.448654	1.112399
H143	H	1.031319	-0.919611	0.274971
H144	H	1.531319	-0.419611	0.774971
H145	H	0.768086	-0.539366	0.550449
H146	H	1.268086	-0.039366	1.050449
C147	C	1.354795	-0.764281	0.598937
C148	C	1.854795	-0.264281	1.098937
H149	H	1.338130	-0.701450	0.582251
H150	H	1.838130	-0.201450	1.082251
H151	H	1.345605	-0.779683	0.653994
H152	H	1.845605	-0.279683	1.153994
H153	H	1.409871	-0.779681	0.589815
H154	H	1.909871	-0.279681	1.089815
H155	H	1.275280	-0.329777	0.980423
H156	H	1.775280	0.170223	1.480423
H157	H	1.339457	-1.090011	0.583496
H158	H	1.839457	-0.590011	1.083496
H159	H	1.275250	-0.329858	0.727588
H160	H	1.775250	0.170142	1.227588
C161	C	0.894430	-0.313264	0.320198
C162	C	1.394430	0.186736	0.820198
H163	H	0.853093	-0.278878	0.285166
H164	H	1.353093	0.221122	0.785166
H165	H	0.920512	-0.274006	0.344372
H166	H	1.420512	0.225994	0.844372
H167	H	0.931581	-0.347708	0.291131
H168	H	1.431581	0.152292	0.791131
C169	C	1.144114	-0.764631	0.387961
C170	C	1.644114	-0.264631	0.887961
H171	H	1.141804	-0.701776	0.385672
H172	H	1.641804	-0.201776	0.885672
H173	H	1.157964	-0.780101	0.337565
H174	H	1.657964	-0.280101	0.837565
H175	H	1.093700	-0.780108	0.401746
H176	H	1.593700	-0.280108	0.901746
H177	H	1.275261	-0.329808	0.876299
H178	H	1.775261	0.170192	1.376299
C179	C	0.469433	-0.313350	0.320247
C180	C	0.969433	0.186650	0.820247
H181	H	0.500396	-0.278940	0.285217
H182	H	1.000396	0.221060	0.785217
H183	H	0.442621	-0.347805	0.291189
H184	H	0.942621	0.152195	0.791189
H185	H	0.431563	-0.274102	0.344428
H186	H	0.931563	0.225898	0.844428
H187	H	0.736480	-0.329797	0.337014
H188	H	1.236480	0.170203	0.837014
H189	H	1.275291	-0.329725	1.129143
H190	H	1.775291	0.170275	1.629143
H191	H	0.632366	-0.329830	0.337028
H192	H	1.132366	0.170170	0.837028
C193	C	1.044828	-1.103977	0.288438
C194	C	1.544828	-0.603977	0.788438
H195	H	1.061505	-1.166807	0.305116
H196	H	1.561505	-0.666807	0.805116
H197	H	0.989755	-1.088580	0.297551
H198	H	1.489755	-0.588580	0.797551
H199	H	1.054027	-1.088576	0.233378
H200	H	1.554027	-0.588576	0.733378
C201	C	1.112677	-0.555453	1.174812
C202	C	1.612677	-0.055453	1.674812
H203	H	1.087920	-0.589803	1.143828
H204	H	1.587920	-0.089803	1.643828
H205	H	1.148607	-0.594749	1.212714
H206	H	1.648607	-0.094749	1.712714
H207	H	1.073298	-0.520924	1.201587
H208	H	1.573298	-0.020924	1.701587
C209	C	1.112630	-0.555589	0.749819
C210	C	1.612630	-0.055589	1.249819
H211	H	1.118566	-0.547340	0.693884
H212	H	1.618566	-0.047340	1.193884
H213	H	1.133215	-0.616187	0.772378
H214	H	1.633215	-0.116187	1.272378
H215	H	1.057903	-0.542366	0.761255
H216	H	1.557903	-0.042366	1.261255
C217	C	1.265368	-1.202530	0.509364
C218	C	1.765368	-0.702530	1.009364
H219	H	1.305630	-1.223773	0.549703
H220	H	1.805630	-0.723773	1.049703
H221	H	1.217903	-1.223816	0.526116
H222	H	1.717903	-0.723816	1.026116
H223	H	1.282192	-1.223921	0.461960
H224	H	1.782192	-0.723921	0.961960
C225	C	1.112647	-0.555538	0.921965
C226	C	1.612647	-0.055538	1.421965
H227	H	1.087896	-0.589889	0.890978
H228	H	1.587896	-0.089889	1.390978
H229	H	1.148579	-0.594832	0.959867
H230	H	1.648579	-0.094832	1.459867
H231	H	1.073263	-0.521016	0.948741
H232	H	1.573263	-0.021016	1.448741
H233	H	1.109422	-0.834007	0.353203
H234	H	1.609422	-0.334007	0.853203
H235	H	1.124512	-0.539021	1.011897
H236	H	1.624512	-0.039021	1.511897
