data_functionalizedCrystal
_audit_creation_method	'MofGen! by Chris Wilmer'
_symmetry_space_group_name_H-M	'P1'
_symmetry_Int_Tables_number	1
_symmetry_cell_setting	triclinic
loop_
_symmetry_equiv_pos_as_xyz
  x,y,z
_cell_length_a	11.792241
_cell_length_b	23.532407
_cell_length_c	10.868271
_cell_angle_alpha	89.990218
_cell_angle_beta	89.999893
_cell_angle_gamma	83.521047
loop_
_atom_site_label
_atom_site_type_symbol
_atom_site_fract_x
_atom_site_fract_y
_atom_site_fract_z
O1	O	1.505071	0.078055	-0.102217
O2	O	2.005071	0.578055	0.397783
O3	O	1.174541	0.086099	-0.102247
O4	O	1.674541	0.586099	0.397753
O5	O	1.349773	-0.000796	-0.102208
O6	O	1.849773	0.499204	0.397792
O7	O	1.329839	0.164950	-0.102255
O8	O	1.829839	0.664950	0.397745
O9	O	1.349759	-0.000799	0.102436
O10	O	1.849759	0.499201	0.602436
O11	O	1.174526	0.086096	0.102398
O12	O	1.674526	0.586096	0.602398
O13	O	1.505057	0.078051	0.102428
O14	O	2.005057	0.578051	0.602428
Zn15	Zn	1.339789	0.082073	0.134905
Zn16	Zn	1.839789	0.582073	0.634905
Zn17	Zn	1.339808	0.082078	-0.134723
Zn18	Zn	1.839808	0.582078	0.365277
O19	O	1.329824	0.164946	0.102390
O20	O	1.829824	0.664946	0.602390
C21	C	1.132254	0.085592	0.000072
C22	C	1.632254	0.585592	0.500072
C23	C	1.006276	0.084080	0.000062
C24	C	1.506276	0.584080	0.500062
C25	C	0.775630	0.081299	0.000098
C26	C	1.275630	0.581299	0.500098
C27	C	0.903978	0.082844	0.000078
C28	C	1.403978	0.582844	0.500078
C29	C	1.349258	-0.022016	0.000117
C30	C	1.849258	0.477984	0.500117
C31	C	1.347732	-0.085242	0.000127
C32	C	1.847732	0.414758	0.500127
C33	C	1.441858	-0.483788	0.000068
C34	C	1.941858	0.016212	0.500068
C35	C	1.440440	-0.543196	0.000058
C36	C	1.940440	-0.043196	0.500058
O37	O	1.527696	-0.579424	0.000021
O38	O	2.027696	-0.079424	0.500021
N39	N	1.336265	-0.566440	0.000050
N40	N	1.836265	-0.066440	0.500050
C41	C	1.233500	-0.530271	0.000038
C42	C	1.733500	-0.030271	0.500038
O43	O	1.144761	-0.555497	0.000029
O44	O	1.644761	-0.055497	0.500029
C45	C	1.234919	-0.470864	0.000039
C46	C	1.734919	0.029136	0.500039
C47	C	1.339102	-0.447624	0.000060
C48	C	1.839102	0.052376	0.500060
C49	C	1.546032	-0.460547	0.000087
C50	C	2.046032	0.039453	0.500087
C51	C	1.547449	-0.401142	0.000099
C52	C	2.047449	0.098858	0.500099
C53	C	1.444693	-0.364979	0.000091
C54	C	1.944693	0.135021	0.500091
C55	C	1.340519	-0.388219	0.000072
C56	C	1.840519	0.111781	0.500072
C57	C	1.132156	-0.434696	0.000018
C58	C	1.632156	0.065304	0.500018
C59	C	1.133584	-0.375285	0.000018
C60	C	1.633584	0.124715	0.500018
C61	C	1.237766	-0.352045	0.000039
C62	C	1.737766	0.147955	0.500039
C63	C	1.239180	-0.292651	0.000075
C64	C	1.739180	0.207349	0.500075
N65	N	1.343355	-0.269407	0.000084
N66	N	1.843355	0.230593	0.500084
C67	C	1.446112	-0.305571	0.000092
C68	C	1.946112	0.194429	0.500092
C69	C	1.230528	-0.655031	0.000034
C70	C	1.730528	-0.155031	0.500034
C71	C	1.229108	-0.714438	0.000043
C72	C	1.729108	-0.214438	0.500043
C73	C	1.436049	-0.727359	0.000061
C74	C	1.936049	-0.227359	0.500061
C75	C	1.437468	-0.667951	0.000061
C76	C	1.937468	-0.167951	0.500061
C77	C	1.334704	-0.631788	0.000043
C78	C	1.834704	-0.131788	0.500043
C79	C	1.449080	-0.180817	0.000118
C80	C	1.949080	0.319183	0.500118
C81	C	1.450489	-0.121406	0.000135
C82	C	1.950489	0.378594	0.500135
C83	C	1.243549	-0.108491	0.000110
C84	C	1.743549	0.391509	0.500110
C85	C	1.242140	-0.167896	0.000100
C86	C	1.742140	0.332104	0.500100
C87	C	1.344915	-0.204058	0.000099
C88	C	1.844915	0.295942	0.500099
O89	O	1.151970	-0.256388	0.000108
O90	O	1.651970	0.243612	0.500108
O91	O	1.534837	-0.280337	0.000085
O92	O	2.034837	0.219663	0.500085
C93	C	1.547343	0.078558	0.000107
C94	C	2.047343	0.578558	0.500107
C95	C	1.673321	0.080071	0.000109
C96	C	2.173321	0.580071	0.500109
C97	C	1.330339	0.186167	0.000061
C98	C	1.830339	0.686167	0.500061
C99	C	1.331865	0.249393	0.000044
C100	C	1.831865	0.749393	0.500044
N101	N	1.339785	0.082070	0.318919
N102	N	1.839785	0.582070	0.818919
N103	N	1.339822	0.082077	-0.318737
N104	N	1.839822	0.582077	0.181263
C105	C	1.339802	0.082076	0.569925
C106	C	1.839802	0.582076	1.069925
C107	C	1.339789	0.082074	0.430247
C108	C	1.839789	0.582074	0.930247
H109	H	1.532770	-0.210254	0.000113
H110	H	2.032770	0.289746	0.500113
H111	H	1.047320	-0.453608	-0.000006
H112	H	1.547320	0.046392	0.499994
H113	H	1.144273	-0.733354	0.000047
H114	H	1.644273	-0.233354	0.500047
H115	H	1.629714	-0.489986	0.000089
H116	H	2.129714	0.010014	0.500089
H117	H	1.522302	-0.649034	0.000077
H118	H	2.022302	-0.149034	0.500077
N119	N	1.546884	-0.766370	0.000069
N120	N	2.046884	-0.266370	0.500069
H121	H	1.530167	-0.807530	0.000062
H122	H	2.030167	-0.307530	0.500062
H123	H	1.592320	-0.758803	-0.075791
H124	H	2.092320	-0.258803	0.424209
H125	H	1.146840	-0.625590	0.000030
H126	H	1.646840	-0.125590	0.500030
N127	N	1.659813	-0.376076	0.000091
N128	N	2.159813	0.123924	0.500091
H129	H	1.665027	-0.351722	0.075951
H130	H	2.165027	0.148278	0.575951
H131	H	1.724624	-0.408036	0.000040
H132	H	2.224624	0.091964	0.500040
H133	H	1.157306	-0.186819	0.000117
H134	H	1.657306	0.313181	0.500117
H135	H	1.049899	-0.345843	0.000001
H136	H	1.549899	0.154157	0.500001
H137	H	1.159887	-0.079035	0.000108
H138	H	1.659887	0.420965	0.500108
H139	H	1.535330	-0.102488	0.000155
H140	H	2.035330	0.397512	0.500155
