data_functionalizedCrystal
_audit_creation_method	'MofGen! by Chris Wilmer'
_symmetry_space_group_name_H-M	'P1'
_symmetry_Int_Tables_number	1
_symmetry_cell_setting	triclinic
loop_
_symmetry_equiv_pos_as_xyz
  x,y,z
_cell_length_a	13.033293
_cell_length_b	13.032721
_cell_length_c	18.215399
_cell_angle_alpha	97.154738
_cell_angle_beta	82.790882
_cell_angle_gamma	105.184121
loop_
_atom_site_label
_atom_site_type_symbol
_atom_site_fract_x
_atom_site_fract_y
_atom_site_fract_z
Zn1	Zn	1.570202	-0.216841	-0.576181
Zn2	Zn	2.070202	0.283159	-0.076181
Zn3	Zn	1.547521	-0.394482	-0.466968
Zn4	Zn	2.047521	0.105518	0.033032
Zn5	Zn	1.392567	-0.239410	-0.439233
Zn6	Zn	1.892567	0.260590	0.060767
Zn7	Zn	1.369981	-0.416947	-0.576096
Zn8	Zn	1.869981	0.083053	-0.076096
O9	O	1.470068	-0.316920	-0.514620
O10	O	1.970068	0.183080	-0.014620
O11	O	1.715835	-0.221558	-0.573337
O12	O	2.215835	0.278442	-0.073337
O13	O	1.526926	-0.373955	-0.360305
O14	O	2.026926	0.126045	0.139695
O15	O	1.435076	-0.087774	-0.445827
O16	O	1.935076	0.412226	0.054173
O17	O	1.699171	-0.352070	-0.493099
O18	O	2.199171	0.147930	0.006901
O19	O	1.565583	-0.071192	-0.546443
O20	O	2.065583	0.428808	-0.046443
O21	O	1.413082	-0.260025	-0.339928
O22	O	1.913082	0.239975	0.160072
O23	O	1.240929	-0.281808	-0.445745
O24	O	1.740929	0.218192	0.054255
O25	O	1.396580	-0.390359	-0.679092
O26	O	1.896580	0.109641	-0.179092
O27	O	1.224335	-0.412243	-0.546298
O28	O	1.724335	0.087757	-0.046298
O29	O	1.543682	-0.243342	-0.679154
O30	O	2.043682	0.256658	-0.179154
O31	O	1.505025	-0.546105	-0.493017
O32	O	2.005025	-0.046105	0.006983
O33	O	1.374587	-0.562609	-0.573192
O34	O	1.874587	-0.062609	-0.073192
C35	C	1.194091	-0.351913	-0.493003
C36	C	1.694091	0.148087	0.006997
C37	C	1.076023	-0.366909	-0.483775
C38	C	1.576023	0.133091	0.016225
C39	C	1.031617	-0.309120	-0.519438
C40	C	1.531617	0.190880	-0.019438
C41	C	0.909589	-0.324618	-0.509901
C42	C	1.409589	0.175382	-0.009901
C43	C	1.434923	-0.592895	-0.536123
C44	C	1.934923	-0.092895	-0.036123
C45	C	1.419985	-0.710946	-0.545355
C46	C	1.919985	-0.210946	-0.045355
C47	C	1.477920	-0.755368	-0.509839
C48	C	1.977920	-0.255368	-0.009839
C49	C	1.462483	-0.877380	-0.519380
C50	C	1.962483	-0.377380	-0.019380
C51	C	1.747122	-0.281791	-0.536321
C52	C	2.247122	0.218209	-0.036321
C53	C	1.865186	-0.266821	-0.545569
C54	C	2.365186	0.233179	-0.045569
C55	C	1.470142	-0.316838	-0.706572
C56	C	1.970142	0.183162	-0.206572
C57	C	1.470173	-0.316804	-0.788371
C58	C	1.970173	0.183196	-0.288371
C59	C	1.505379	-0.039864	-0.493050
C60	C	2.005379	0.460136	0.006950
C61	C	1.520426	0.078201	-0.483859
C62	C	2.020426	0.578201	0.016141
C63	C	1.546802	-0.240185	-0.976595
C64	C	2.046802	0.259815	-0.476595
C65	C	1.546818	-0.240153	-1.053453
C66	C	2.046818	0.259847	-0.553453
C67	C	1.393641	-0.393248	-1.053377
C68	C	1.893641	0.106752	-0.553377
C69	C	1.393621	-0.393275	-0.976520
C70	C	1.893621	0.106725	-0.476520
C71	C	1.470207	-0.316745	-0.938132
C72	C	1.970207	0.183255	-0.438132
C73	C	1.470244	-0.316685	-1.091846
C74	C	1.970244	0.183315	-0.591846
C75	C	1.470261	-0.316650	-1.175178
C76	C	1.970261	0.183350	-0.675178
C77	C	1.470188	-0.316778	-0.854794
C78	C	1.970188	0.183222	-0.354794
C79	C	1.470065	-0.316917	-0.323413
C80	C	1.970065	0.183083	0.176587
C81	C	1.470277	-0.316626	-0.241607
C82	C	1.970277	0.183374	0.258393
H83	H	1.023700	-0.427855	-0.446180
H84	H	1.523700	0.072145	0.053820
Cl85	Cl	1.325762	-0.791679	-0.603211
Cl86	Cl	1.825762	-0.291679	-0.103211
Cl87	Cl	1.368256	-0.958109	-0.577239
Cl88	Cl	1.868256	-0.458109	-0.077239
Cl89	Cl	1.297372	-0.489458	-1.101643
Cl90	Cl	1.797372	0.010542	-0.601643
H91	H	1.331240	-0.455619	-0.945202
H92	H	1.831240	0.044381	-0.445202
H93	H	1.083941	-0.248168	-0.557028
H94	H	1.583941	0.251832	-0.057028
H95	H	1.538955	-0.703073	-0.472372
H96	H	2.038955	-0.203073	0.027628
Cl97	Cl	1.614665	-0.841071	-0.426007
Cl98	Cl	2.114665	-0.341071	0.073993
H99	H	0.857269	-0.385568	-0.472304
H100	H	1.357269	0.114432	0.027696
Cl101	Cl	1.643122	-0.143911	-1.101805
Cl102	Cl	2.143122	0.356089	-0.601805
H103	H	1.609161	-0.177867	-0.945341
H104	H	2.109161	0.322133	-0.445341
Cl105	Cl	0.945956	-0.172704	-0.603608
Cl106	Cl	1.445956	0.327296	-0.103608
