data_functionalizedCrystal
_audit_creation_method	'MofGen! by Chris Wilmer'
_symmetry_space_group_name_H-M	'P1'
_symmetry_Int_Tables_number	1
_symmetry_cell_setting	triclinic
loop_
_symmetry_equiv_pos_as_xyz
  x,y,z
_cell_length_a	10.654545
_cell_length_b	10.723023
_cell_length_c	9.130313
_cell_angle_alpha	89.996488
_cell_angle_beta	89.996934
_cell_angle_gamma	84.475313
loop_
_atom_site_label
_atom_site_type_symbol
_atom_site_fract_x
_atom_site_fract_y
_atom_site_fract_z
O1	O	1.667816	0.175248	-0.121781
O2	O	1.302334	0.191953	-0.121787
O3	O	1.493506	0.002025	-0.121778
O4	O	1.476644	0.365176	-0.121790
O5	O	1.493493	0.002020	0.121821
O6	O	1.302321	0.191947	0.121812
O7	O	1.667803	0.175242	0.121818
Cu8	Cu	1.485061	0.183594	0.144057
Cu9	Cu	1.485076	0.183601	-0.144027
O10	O	1.476631	0.365170	0.121809
C11	C	1.255530	0.190725	0.000012
C12	C	1.116087	0.187059	0.000009
C13	C	1.050575	0.185330	0.132796
C14	C	0.919556	0.181864	0.132796
C15	C	0.919571	0.181862	-0.132789
C16	C	1.050589	0.185318	-0.132787
C17	C	1.492272	-0.044477	0.000020
C18	C	1.488602	-0.183032	0.000015
C19	C	1.486972	-0.244795	-0.126178
C20	C	1.483178	-0.387999	-0.126186
C21	C	1.714607	0.176471	0.000016
C22	C	1.854050	0.180137	0.000008
C23	C	1.477864	0.411673	0.000007
C24	C	1.481535	0.550227	0.000003
N25	N	1.485059	0.183589	0.346680
N26	N	1.485088	0.183597	-0.346649
C27	C	1.569738	0.099525	0.423336
C28	C	1.569751	0.099525	0.576672
C29	C	1.400399	0.267665	0.576684
C30	C	1.400382	0.267657	0.423350
H31	H	0.866223	0.180457	0.240924
H32	H	1.481783	-0.441114	-0.234225
O33	O	1.486865	-0.246216	0.129037
C34	C	1.489152	-0.160989	0.246373
H35	H	1.451923	-0.063320	0.207590
H36	H	1.427281	-0.191316	0.339187
H37	H	1.590097	-0.159415	0.287224
H38	H	1.482943	-0.396667	0.108047
H39	H	1.331459	0.336113	0.639124
O40	O	1.488514	-0.181247	-0.254969
C41	C	1.381922	-0.092751	-0.262832
H42	H	1.346208	-0.068993	-0.147515
H43	H	1.408793	-0.004105	-0.318867
H44	H	1.304574	-0.133593	-0.328469
H45	H	1.638686	0.031069	0.360914
O46	O	0.856056	0.180360	-0.261872
C47	C	0.874752	0.289110	-0.342637
H48	H	0.965447	0.327579	-0.304882
H49	H	0.882226	0.264971	-0.464118
H50	H	0.791703	0.362715	-0.324224
O51	O	1.652132	0.017822	0.650908
C52	C	1.726837	-0.056398	0.550350
H53	H	1.728679	-0.005221	0.441043
H54	H	1.826973	-0.074506	0.594635
H55	H	1.685270	-0.149482	0.534059
O56	O	1.318074	0.349444	0.349104
C57	C	1.243326	0.423633	0.449651
H58	H	1.294836	0.425531	0.558943
H59	H	1.225010	0.523112	0.405329
H60	H	1.149690	0.382248	0.465986
O61	O	1.114174	0.186783	0.261826
C62	C	1.095430	0.078063	0.342624
H63	H	1.068715	0.001710	0.264925
H64	H	1.186053	0.044118	0.402860
H65	H	1.016367	0.100444	0.425420
H66	H	1.103930	0.186723	-0.240925
