data_functionalizedCrystal
_audit_creation_method	'MofGen! by Chris Wilmer'
_symmetry_space_group_name_H-M	'P1'
_symmetry_Int_Tables_number	1
_symmetry_cell_setting	triclinic
loop_
_symmetry_equiv_pos_as_xyz
  x,y,z
_cell_length_a	11.026607
_cell_length_b	9.482900
_cell_length_c	10.967961
_cell_angle_alpha	87.495787
_cell_angle_beta	83.619011
_cell_angle_gamma	101.363848
loop_
_atom_site_label
_atom_site_type_symbol
_atom_site_fract_x
_atom_site_fract_y
_atom_site_fract_z
O1	O	-1.652491	-0.244280	0.492555
O2	O	-1.296439	-0.229808	0.434777
O3	O	-1.475837	-0.193380	0.289384
O4	O	-1.473093	-0.280708	0.637949
O5	O	-1.439405	0.040975	0.319068
O6	O	-1.260006	0.004547	0.464462
O7	O	-1.616058	-0.009925	0.522240
Cu8	Cu	-1.434706	0.018710	0.496061
Cu9	Cu	-1.477792	-0.258442	0.460956
O10	O	-1.436660	-0.046353	0.667633
C11	C	-1.232505	-0.109961	0.438961
C12	C	-1.096281	-0.102002	0.407186
C13	C	-1.454668	-0.064852	0.258908
C14	C	-1.445856	-0.031030	0.123872
C15	C	-1.679993	-0.129775	0.518056
C16	C	-1.816219	-0.137743	0.549830
C17	C	-1.026646	-0.123984	0.494921
C18	C	-0.885851	-0.115758	0.462082
N19	N	-1.404410	0.213643	0.520753
N20	N	-1.508096	-0.453374	0.436256
C21	C	-1.468847	0.299002	0.468231
C22	C	-1.443650	0.461269	0.488787
C23	C	-1.451698	-0.102397	-0.091274
C24	C	-1.460804	-0.137363	0.048291
C25	C	-1.457829	-0.174884	0.698109
C26	C	-1.466643	-0.208715	0.833144
H27	H	-1.071263	-0.148885	0.594346
N28	N	-0.875289	-0.170758	0.681541
H29	H	-0.835472	-0.094342	0.734275
H30	H	-0.967490	-0.171991	0.686233
N31	N	-1.425831	0.052466	-0.142412
H32	H	-1.417110	0.118614	-0.072797
H33	H	-1.346050	0.072794	-0.200943
N34	N	-0.826769	-0.082743	0.330374
H35	H	-0.734564	-0.081541	0.325584
H36	H	-0.866673	-0.159183	0.277715
N37	N	-1.037193	-0.068989	0.275484
H38	H	-0.944988	-0.067786	0.270695
H39	H	-1.077098	-0.145429	0.222825
H40	H	-1.369820	0.508315	0.548970
N41	N	-1.492505	-0.363564	-0.115682
H42	H	-1.575247	-0.415607	-0.138180
H43	H	-1.424191	-0.412163	-0.151364
N44	N	-1.566602	0.236705	0.388470
H45	H	-1.570731	0.129621	0.385076
H46	H	-1.650343	0.254224	0.424276
H47	H	-1.581917	0.499583	0.376062
N48	N	-1.306615	0.275952	0.600467
H49	H	-1.302475	0.383039	0.603850
H50	H	-1.329076	0.227935	0.686240
N51	N	-1.486599	-0.292235	0.099411
H52	H	-1.489410	-0.295261	0.191862
H53	H	-1.569315	-0.344229	0.076826
N54	N	-1.419973	0.123848	0.072755
H55	H	-1.340173	0.144305	0.014242
H56	H	-1.491222	0.140912	0.027461
