data_functionalizedCrystal
_audit_creation_method	'MofGen! by Chris Wilmer'
_symmetry_space_group_name_H-M	'P1'
_symmetry_Int_Tables_number	1
_symmetry_cell_setting	triclinic
loop_
_symmetry_equiv_pos_as_xyz
  x,y,z
_cell_length_a	16.992694
_cell_length_b	14.044220
_cell_length_c	15.455313
_cell_angle_alpha	92.908275
_cell_angle_beta	87.142206
_cell_angle_gamma	91.928550
loop_
_atom_site_label
_atom_site_type_symbol
_atom_site_fract_x
_atom_site_fract_y
_atom_site_fract_z
O1	O	1.057683	0.198159	-0.072025
O2	O	0.829244	0.195941	-0.072050
O3	O	0.940034	0.058806	-0.072029
O4	O	0.946893	0.335294	-0.072046
O5	O	0.933696	0.066614	0.072232
O6	O	0.822906	0.203749	0.072211
O7	O	1.051345	0.205967	0.072236
Cu8	Cu	0.936547	0.205571	0.085396
Cu9	Cu	0.944042	0.196337	-0.085210
O10	O	0.940555	0.343102	0.072215
C11	C	0.796663	0.196993	0.000077
C12	C	0.709024	0.188484	0.000068
C13	C	0.664526	0.270581	0.000063
C14	C	0.582179	0.262581	0.000076
C15	C	0.544332	0.172483	0.000086
C16	C	0.588836	0.090381	0.000093
C17	C	0.671181	0.098382	0.000087
C18	C	0.298414	0.139322	0.000112
C19	C	0.216063	0.131327	0.000115
C20	C	0.209411	0.303528	0.000100
C21	C	0.291759	0.311521	0.000088
C22	C	0.336255	0.229419	0.000099
N23	N	0.460161	0.164304	0.000096
N24	N	0.420425	0.237599	0.000096
C25	C	0.933863	0.027168	0.000101
C26	C	0.924909	-0.078736	0.000101
C27	C	0.908540	-0.272638	0.000087
C28	C	0.972046	-0.325460	0.000092
C29	C	0.962938	-0.433354	0.000084
C30	C	0.917647	-0.164734	0.000095
C31	C	1.083926	0.204915	0.000107
C32	C	1.171565	0.213424	0.000111
C33	C	0.946726	0.374740	0.000083
C34	C	0.955680	0.480644	0.000077
N35	N	0.931281	0.212065	0.205390
N36	N	0.949314	0.189836	-0.205204
C37	C	0.978368	0.153829	0.250793
C38	C	0.974393	0.158750	0.341600
C39	C	0.923335	0.221911	0.387003
C40	C	0.876243	0.280149	0.341594
C41	C	0.880214	0.275223	0.250788
C42	C	0.906193	0.243148	0.658581
C43	C	0.902227	0.248072	0.749393
C44	C	1.000377	0.126671	0.749394
C45	C	1.004347	0.121754	0.658586
C46	C	0.957251	0.179989	0.613185
N47	N	0.919273	0.226945	0.479822
N48	N	0.961310	0.174950	0.520367
H49	H	0.322568	0.384887	0.000070
H50	H	0.847335	-0.308444	0.000078
H51	H	1.019948	0.102401	0.213833
H52	H	1.033258	-0.289655	0.000040
C53	C	1.071830	0.038285	0.332480
C54	C	1.026166	0.094751	0.391507
H55	H	1.103799	-0.001219	0.363292
H56	H	1.038176	-0.000433	0.297079
H57	H	1.104494	0.078217	0.297047
H58	H	0.993498	0.054819	0.426937
H59	H	1.059824	0.133473	0.426923
H60	H	1.045922	0.070323	0.621622
H61	H	0.173174	0.370371	0.000092
C62	C	0.764394	0.011493	0.074248
C63	C	0.720095	0.008137	0.000090
H64	H	0.794586	-0.044226	0.074253
H65	H	0.798716	0.066289	0.074235
H66	H	0.729920	0.014676	0.124550
H67	H	0.754570	0.004961	-0.050213
H68	H	0.685771	-0.046673	0.000095
C69	C	0.742465	0.327177	0.369571
C70	C	0.820115	0.349572	0.391502
H71	H	0.707815	0.370034	0.400387
H72	H	0.738094	0.332585	0.309001
H73	H	0.728822	0.263728	0.384468
H74	H	0.833760	0.413019	0.376599
H75	H	0.824489	0.344173	0.452086
H76	H	0.334634	0.072468	0.000121
H77	H	0.695334	0.343947	0.000054
H78	H	0.860647	0.299509	0.786355
C79	C	1.033903	-0.033242	0.777364
C80	C	1.052131	0.062651	0.799302
H81	H	1.065856	-0.072768	0.808173
H82	H	0.979924	-0.046792	0.792257
H83	H	1.043579	-0.045201	0.716785
H84	H	1.042450	0.074611	0.859880
H85	H	1.106122	0.076206	0.784415
C86	C	0.465563	0.001654	0.000101
C87	C	0.547237	-0.008657	0.000103
H88	H	0.439885	-0.059491	0.000100
H89	H	0.448501	0.038435	0.050404
H90	H	0.452913	0.032998	-0.050211
H91	H	0.559888	-0.039995	0.050419
H92	H	0.564306	-0.045453	-0.050204
H93	H	0.185251	0.057956	0.000123
C94	C	0.808786	0.363649	0.667714
C95	C	0.854433	0.307167	0.608684
H96	H	0.776835	0.403177	0.636905
H97	H	0.776112	0.323736	0.703141
H98	H	0.842457	0.402352	0.703122
H99	H	0.820761	0.268458	0.573280
H100	H	0.887109	0.347085	0.573242
C101	C	0.846682	0.435137	0.222802
C102	C	0.828459	0.339241	0.200875
H103	H	0.814731	0.474656	0.191983
H104	H	0.837007	0.447105	0.283371
H105	H	0.900667	0.448688	0.207906
H106	H	0.774474	0.325687	0.215777
H107	H	0.838128	0.327268	0.140292
H108	H	0.545952	0.329433	0.000072
