data_functionalizedCrystal
_audit_creation_method	'MofGen! by Chris Wilmer'
_symmetry_space_group_name_H-M	'P1'
_symmetry_Int_Tables_number	1
_symmetry_cell_setting	triclinic
loop_
_symmetry_equiv_pos_as_xyz
  x,y,z
_cell_length_a	21.395362
_cell_length_b	25.639240
_cell_length_c	21.395355
_cell_angle_alpha	90.026516
_cell_angle_beta	90.043940
_cell_angle_gamma	90.048633
loop_
_atom_site_label
_atom_site_type_symbol
_atom_site_fract_x
_atom_site_fract_y
_atom_site_fract_z
Zn1	Zn	0.957851	-0.207990	0.354551
Zn2	Zn	0.957749	-0.295409	0.249759
Zn3	Zn	0.853066	-0.208014	0.249752
Zn4	Zn	0.853031	-0.295420	0.354463
O5	O	0.905424	-0.251708	0.302131
O6	O	1.045515	-0.219571	0.340689
O7	O	0.943835	-0.283822	0.162080
O8	O	0.867022	-0.134846	0.263688
O9	O	1.045441	-0.283798	0.263699
O10	O	0.944007	-0.134828	0.340683
O11	O	0.866924	-0.219613	0.162075
O12	O	0.765383	-0.219623	0.263603
O13	O	0.866963	-0.283817	0.442153
O14	O	0.765358	-0.283840	0.340534
O15	O	0.943974	-0.219582	0.442217
O16	O	0.943801	-0.368576	0.263614
O17	O	0.866865	-0.368584	0.340540
C18	C	0.742636	-0.251736	0.302059
C19	C	0.672995	-0.251760	0.302042
C20	C	0.640285	-0.285243	0.342040
C21	C	0.574850	-0.285230	0.342068
C22	C	0.542127	-0.251740	0.302087
C23	C	0.574845	-0.218252	0.262086
C24	C	0.640279	-0.218262	0.262064
C25	C	0.438402	-0.247528	0.245682
C26	C	0.372969	-0.247522	0.245704
C27	C	0.340306	-0.251706	0.302156
C28	C	0.373084	-0.255908	0.358589
C29	C	0.438518	-0.255918	0.358567
C30	C	0.471174	-0.251725	0.302107
C31	C	0.236644	-0.285176	0.342188
C32	C	0.171207	-0.285160	0.342217
C33	C	0.171203	-0.218184	0.262229
C34	C	0.236639	-0.218198	0.262206
C35	C	0.269355	-0.251697	0.302184
C36	C	0.905336	-0.387551	0.302082
C37	C	0.905355	-0.445665	0.302082
C38	C	0.945530	-0.805980	0.342295
C39	C	0.945549	-0.860585	0.342308
O40	O	0.979602	-0.888781	0.376448
N41	N	0.905511	-0.887947	0.302192
C42	C	0.865448	-0.860703	0.262065
O43	O	0.831394	-0.888991	0.227945
C44	C	0.865427	-0.806100	0.262056
C45	C	0.905471	-0.778740	0.302170
C46	C	0.985571	-0.778620	0.382406
C47	C	0.985553	-0.724020	0.382392
C48	C	0.945495	-0.696779	0.342267
C49	C	0.905454	-0.724139	0.302156
C50	C	0.825361	-0.778857	0.221933
C51	C	0.825343	-0.724250	0.221928
C52	C	0.865387	-0.696890	0.262042
C53	C	0.865377	-0.642298	0.262018
N54	N	0.905415	-0.614935	0.302133
C55	C	0.945473	-0.642176	0.342258
C56	C	0.865495	-0.975374	0.262088
C57	C	0.865518	-1.029976	0.262094
C58	C	0.945619	-1.029854	0.342337
C59	C	0.945597	-0.975250	0.342328
C60	C	0.905532	-0.948011	0.302204
C61	C	0.945433	-0.527511	0.342226
C62	C	0.945414	-0.472905	0.342207
C63	C	0.865312	-0.473033	0.261966
C64	C	0.865333	-0.527633	0.261983
C65	C	0.905396	-0.554871	0.302118
O66	O	0.831340	-0.614067	0.227897
O67	O	0.979516	-0.613881	0.376378
C68	C	1.068847	-0.251681	0.302205
C69	C	1.138489	-0.251669	0.302236
C70	C	0.905476	-0.251698	0.465555
C71	C	0.905498	-0.251693	0.535196
C72	C	0.905530	-0.115335	0.302194
C73	C	0.905575	-0.057221	0.302221
C74	C	0.905408	-0.251681	0.139344
C75	C	0.905508	-0.251538	0.069703
C76	C	0.945596	-0.218245	0.567943
C77	C	0.945595	-0.218222	0.633379
C78	C	0.905503	-0.251658	0.666064
C79	C	0.865398	-0.285108	0.633309
C80	C	0.865395	-0.285126	0.567875
C81	C	0.900525	-0.298736	0.769720
C82	C	0.900532	-0.298719	0.835153
C83	C	0.905507	-0.251602	0.867885
C84	C	0.910488	-0.204501	0.835176
C85	C	0.910486	-0.204519	0.769742
C86	C	0.905501	-0.251642	0.737017
C87	C	0.945606	-0.218127	0.971585
C88	C	0.945601	-0.218103	1.037022
C89	C	0.865407	-0.284994	1.036951
C90	C	0.865409	-0.285013	0.971515
C91	C	0.905512	-0.251580	0.938836
H92	H	0.978025	-0.450631	0.374873
C93	C	0.676270	-0.322086	0.386023
C94	C	0.667192	-0.381515	0.380776
C95	C	0.703177	-0.418357	0.424761
C96	C	0.748241	-0.395769	0.473992
C97	C	0.757322	-0.336337	0.479240
C98	C	0.721336	-0.299495	0.435255
H99	H	0.633831	-0.398239	0.344331
H100	H	0.696455	-0.462353	0.420876
H101	H	0.774880	-0.423042	0.506552
H102	H	0.790683	-0.319613	0.515685
H103	H	0.728058	-0.255499	0.439141
C104	C	0.821296	-0.321808	0.935494
C105	C	0.772119	-0.299167	0.890485
C106	C	0.727998	-0.335961	0.854466
C107	C	0.733055	-0.395396	0.863456
C108	C	0.782235	-0.418040	0.908467
C109	C	0.826356	-0.381246	0.944486
H110	H	0.768373	-0.255167	0.883828
H111	H	0.691592	-0.319198	0.821146
H112	H	0.700394	-0.422633	0.836793
H113	H	0.785980	-0.462040	0.915124
H114	H	0.862762	-0.398009	0.977806
H115	H	0.978052	-0.549681	0.374912
H116	H	0.346287	-0.244104	0.199753
C117	C	0.474328	-0.242922	0.183580
C118	C	0.438278	-0.238305	0.121508
C119	C	0.474203	-0.233696	0.059408
C120	C	0.546178	-0.233703	0.059381
C121	C	0.582232	-0.238320	0.121456
C122	C	0.546307	-0.242929	0.183555
H123	H	0.384995	-0.238300	0.121525
H124	H	0.447514	-0.230279	0.013456
H125	H	0.572772	-0.230291	0.013411
H126	H	0.635516	-0.238325	0.121438
H127	H	0.572997	-0.246346	0.229507
C128	C	1.029595	-0.693930	0.426530
C129	C	1.100828	-0.701378	0.421520
C130	C	1.144869	-0.671294	0.465664
C131	C	1.117677	-0.633763	0.514818
C132	C	1.046441	-0.626313	0.519830
C133	C	1.002400	-0.656397	0.475686
H134	H	1.120960	-0.729163	0.385132
H135	H	1.197603	-0.676809	0.461954
H136	H	1.150279	-0.611493	0.547496
H137	H	1.026309	-0.598529	0.556218
H138	H	0.949666	-0.650882	0.479396
H139	H	0.465203	-0.259338	0.404516
H140	H	0.978250	-0.191020	0.541340
H141	H	0.978236	-1.052043	0.375010
H142	H	0.548197	-0.190984	0.229534
H143	H	0.548212	-0.312495	0.374642
H144	H	0.978246	-0.190982	0.660047
H145	H	0.666911	-0.190995	0.229493
C146	C	0.915959	-0.152667	0.871172
C147	C	0.921435	-0.100860	0.835195
C148	C	0.926907	-0.049029	0.871194
C149	C	0.926903	-0.049004	0.943169
C150	C	0.921426	-0.100813	0.979149
C151	C	0.915954	-0.152645	0.943151
H152	H	0.921439	-0.100877	0.781911
H153	H	0.930962	-0.010676	0.844558
H154	H	0.930954	-0.010635	0.969817
H155	H	0.921423	-0.100797	1.032433
H156	H	0.911900	-0.190997	0.969786
C157	C	0.915958	-0.152710	0.733763
C158	C	0.863552	-0.135851	0.688743
C159	C	0.869022	-0.084041	0.652766
C160	C	0.926898	-0.049090	0.661808
C161	C	0.979309	-0.065948	0.706831
C162	C	0.973839	-0.117758	0.742808
H163	H	0.820705	-0.161725	0.682047
H164	H	0.830225	-0.071562	0.619437
H165	H	0.930948	-0.010737	0.635176
H166	H	1.022156	-0.040075	0.713527
H167	H	1.012636	-0.130238	0.776137
C168	C	1.029644	-0.808578	0.426546
C169	C	1.100868	-0.800991	0.421512
C170	C	1.144949	-0.830944	0.465651
C171	C	1.117805	-0.868483	0.514824
C172	C	1.046577	-0.876071	0.519860
C173	C	1.002496	-0.846118	0.475721
H174	H	1.120965	-0.773201	0.385109
H175	H	1.197677	-0.825327	0.461923
H176	H	1.150436	-0.890655	0.547498
H177	H	1.026480	-0.903861	0.556262
H178	H	0.949768	-0.851736	0.479449
H179	H	0.144561	-0.190914	0.229679
H180	H	0.978257	-0.190901	0.944977
C181	C	0.989709	-0.181305	1.073047
C182	C	1.033817	-0.144532	1.037098
C183	C	1.077926	-0.107733	1.073124
C184	C	1.077925	-0.107707	1.145099
C185	C	1.033815	-0.144482	1.181052
C186	C	0.989707	-0.181281	1.145026
H187	H	1.033819	-0.144550	0.983814
H188	H	1.110579	-0.080510	1.046509
H189	H	1.110577	-0.080466	1.171768
H190	H	1.033813	-0.144464	1.234336
H191	H	0.957053	-0.208503	1.171641
H192	H	0.978205	-0.952977	0.374993
H193	H	0.346491	-0.259314	0.404558
H194	H	0.832917	-1.052248	0.229422
C195	C	0.821427	-0.945413	0.217940
C196	C	0.826585	-0.952959	0.146722
C197	C	0.782517	-0.923002	0.102575
C198	C	0.733291	-0.885499	0.129645
C199	C	0.728131	-0.877951	0.200867
C200	C	0.772199	-0.907909	0.245014
H201	H	0.863026	-0.980722	0.126679
H202	H	0.786337	-0.928589	0.049852
H203	H	0.700670	-0.863323	0.096965
H204	H	0.691690	-0.850188	0.220910
H205	H	0.768379	-0.902321	0.297737
C206	C	0.895054	-0.350569	0.733719
C207	C	0.889585	-0.402377	0.769693
C208	C	0.884112	-0.454208	0.733692
C209	C	0.884109	-0.454230	0.661717
C210	C	0.889578	-0.402420	0.625739
C211	C	0.895050	-0.350589	0.661740
H212	H	0.889587	-0.402363	0.822977
H213	H	0.880064	-0.492561	0.760326
H214	H	0.880058	-0.492598	0.635068
H215	H	0.889576	-0.402434	0.572455
H216	H	0.899099	-0.312236	0.635106
C217	C	0.272624	-0.181376	0.218195
C218	C	0.236634	-0.144541	0.174212
C219	C	0.272619	-0.107718	0.130198
C220	C	0.344594	-0.107731	0.130167
C221	C	0.380588	-0.144568	0.174153
C222	C	0.344603	-0.181390	0.218167
H223	H	0.183350	-0.144530	0.174232
H224	H	0.245974	-0.080449	0.097637
H225	H	0.371233	-0.080472	0.097586
H226	H	0.433872	-0.144578	0.174132
H227	H	0.371248	-0.208660	0.250727
C228	C	0.821303	-0.321773	1.072896
C229	C	0.821302	-0.321756	1.144871
C230	C	0.777195	-0.358534	1.180820
C231	C	0.733089	-0.395331	1.144794
C232	C	0.733089	-0.395350	1.072815
C233	C	0.777196	-0.358571	1.036866
H234	H	0.853954	-0.294515	1.171544
H235	H	0.777196	-0.358520	1.234104
H236	H	0.700439	-0.422557	1.171406
H237	H	0.700437	-0.422590	1.046143
H238	H	0.777195	-0.358586	0.983582
C239	C	0.781271	-0.694286	0.177788
C240	C	0.786419	-0.701830	0.106569
C241	C	0.742350	-0.671868	0.062428
C242	C	0.693132	-0.634362	0.089507
C243	C	0.687981	-0.626817	0.160730
C244	C	0.732051	-0.656779	0.204870
H245	H	0.822856	-0.729595	0.086520
H246	H	0.746163	-0.677453	0.009705
H247	H	0.660509	-0.612182	0.056832
H248	H	0.651545	-0.599052	0.180778
H249	H	0.728238	-0.651194	0.257594
H250	H	0.792752	-0.801124	0.189267
H251	H	0.832730	-0.549911	0.229314
C252	C	0.821297	-0.321889	0.669260
C253	C	0.821300	-0.321873	0.741235
C254	C	0.777195	-0.358653	0.777184
C255	C	0.733086	-0.395448	0.741159
C256	C	0.733081	-0.395465	0.669180
C257	C	0.777186	-0.358685	0.633230
H258	H	0.853954	-0.294634	0.767906
H259	H	0.777199	-0.358641	0.830468
H260	H	0.700437	-0.422675	0.767771
H261	H	0.700428	-0.422704	0.642508
H262	H	0.777182	-0.358698	0.579946
H263	H	0.263283	-0.312450	0.374744
H264	H	0.144576	-0.312424	0.374792
H265	H	0.832698	-0.450845	0.229295
H266	H	0.896480	-0.337072	0.861780
H267	H	0.832740	-0.312363	0.541212
