data_functionalizedCrystal
_audit_creation_method	'MofGen! by Chris Wilmer'
_symmetry_space_group_name_H-M	'P1'
_symmetry_Int_Tables_number	1
_symmetry_cell_setting	triclinic
loop_
_symmetry_equiv_pos_as_xyz
  x,y,z
_cell_length_a	8.559649
_cell_length_b	19.288864
_cell_length_c	18.366186
_cell_angle_alpha	89.971967
_cell_angle_beta	89.991101
_cell_angle_gamma	76.457457
loop_
_atom_site_label
_atom_site_type_symbol
_atom_site_fract_x
_atom_site_fract_y
_atom_site_fract_z
O1	O	2.120308	-0.023572	-0.060528
O2	O	1.654846	0.012313	-0.060546
O3	O	1.901026	-0.107459	-0.060492
O4	O	1.874127	0.096200	-0.060583
O5	O	1.900985	-0.107462	0.060608
O6	O	1.654804	0.012310	0.060553
O7	O	2.120266	-0.023575	0.060571
Zn8	Zn	1.887529	-0.005633	0.079789
Zn9	Zn	1.887583	-0.005629	-0.079764
O10	O	1.874086	0.096197	0.060517
C11	C	1.595275	0.015031	0.000002
C12	C	1.417837	0.023126	-0.000003
C13	C	1.900140	-0.133292	0.000068
C14	C	1.897542	-0.210261	0.000098
N15	N	1.887503	-0.005637	0.188680
C16	C	2.179837	-0.026293	0.000022
C17	C	2.357275	-0.034388	0.000022
C18	C	1.874972	0.122030	-0.000045
C19	C	1.877570	0.198998	-0.000079
C20	C	1.733122	0.251204	-0.000070
C21	C	1.735563	0.323524	-0.000054
C22	C	1.882460	0.343635	-0.000031
C23	C	2.026927	0.291419	-0.000044
C24	C	2.024482	0.219101	-0.000068
C25	C	1.997922	0.445881	0.042438
C26	C	2.000361	0.518199	0.042467
C27	C	1.890008	0.566688	0.000039
C28	C	1.777188	0.542854	-0.042408
C29	C	1.774742	0.470536	-0.042432
C30	C	1.885128	0.422050	-0.000006
C31	C	1.748197	0.697312	0.000065
C32	C	1.750644	0.769633	0.000077
C33	C	2.042011	0.737527	0.000093
C34	C	2.039560	0.665208	0.000074
C35	C	1.892648	0.645105	0.000063
N36	N	1.887622	-0.005631	-0.188655
C37	C	1.996547	-0.058651	0.226805
C38	C	1.996557	-0.058654	0.303033
C39	C	1.887538	-0.005633	0.341133
C40	C	1.778473	0.047385	0.302999
C41	C	1.778456	0.047383	0.226773
C42	C	1.866140	0.058767	0.461865
C43	C	1.866169	0.058769	0.538090
C44	C	1.887584	-0.005627	0.576241
C45	C	1.909003	-0.070030	0.538158
C46	C	1.908985	-0.070032	0.461931
C47	C	1.887545	-0.005625	0.423788
C48	C	1.996645	-0.058649	0.697020
C49	C	1.996644	-0.058653	0.773250
C50	C	1.778568	0.047393	0.773215
C51	C	1.778561	0.047391	0.696987
C52	C	1.887608	-0.005629	0.658894
H53	H	1.441171	-0.089821	0.000043
H54	H	2.092220	0.537599	0.077032
Cl55	Cl	1.641479	0.114043	0.649054
Cl56	Cl	1.288305	0.108717	-0.000048
Cl57	Cl	1.632928	0.440574	-0.095795
Cl58	Cl	1.638433	0.603807	-0.095742
H59	H	1.613496	0.234842	-0.000085
H60	H	1.617933	0.366037	-0.000045
H61	H	1.628572	0.680944	0.000060
H62	H	1.633012	0.812140	0.000079
H63	H	2.161618	0.753900	0.000058
Cl64	Cl	1.641362	0.114035	0.178842
H65	H	2.157185	0.622700	0.000071
Cl66	Cl	2.136677	0.384928	0.095776
H67	H	1.926440	-0.122467	0.569218
Cl68	Cl	2.211597	0.316701	-0.000021
H69	H	2.085336	-0.101824	0.195792
H70	H	2.142112	0.176593	-0.000076
H71	H	2.085357	-0.101826	0.334080
H72	H	1.926422	-0.122470	0.430927
Cl73	Cl	2.133723	-0.125305	0.649131
H74	H	1.689706	0.090555	0.334024
H75	H	2.085436	-0.101826	0.804291
Cl76	Cl	1.839366	0.139724	0.413911
H77	H	1.689796	0.090561	0.804235
H78	H	1.848738	0.111209	0.569091
