data_functionalizedCrystal
_audit_creation_method	'MofGen! by Chris Wilmer'
_symmetry_space_group_name_H-M	'P1'
_symmetry_Int_Tables_number	1
_symmetry_cell_setting	triclinic
loop_
_symmetry_equiv_pos_as_xyz
  x,y,z
_cell_length_a	13.262390
_cell_length_b	22.610064
_cell_length_c	13.339070
_cell_angle_alpha	89.992166
_cell_angle_beta	99.429367
_cell_angle_gamma	105.925562
loop_
_atom_site_label
_atom_site_type_symbol
_atom_site_fract_x
_atom_site_fract_y
_atom_site_fract_z
O1	O	1.432453	0.279616	0.136352
O2	O	1.131179	0.231152	0.151198
O3	O	1.247239	0.249821	-0.003633
O4	O	1.316392	0.260948	0.291183
O5	O	1.247217	0.151448	-0.003610
O6	O	1.131157	0.132780	0.151221
O7	O	1.432431	0.181244	0.136374
Zn8	Zn	1.281790	0.141393	0.143801
Zn9	Zn	1.281819	0.271003	0.143771
O10	O	1.316370	0.162576	0.291205
C11	C	1.091821	0.175637	0.150380
C12	C	0.974574	0.156776	0.147896
N13	N	1.281778	0.052938	0.143821
C14	C	0.644128	0.318111	0.140830
C15	C	0.754286	0.335833	0.143159
C16	C	0.809364	0.291070	0.144344
C17	C	0.754272	0.228583	0.143198
C18	C	0.644102	0.210860	0.140861
C19	C	0.809338	0.183818	0.144374
C20	C	0.754246	0.121331	0.143229
C21	C	0.644087	0.103611	0.140892
C22	C	0.589009	0.148374	0.139708
C23	C	0.919508	0.201542	0.146712
C24	C	0.919482	0.094290	0.146743
C25	C	0.809323	0.076569	0.144414
C26	C	1.333217	-0.347429	0.075223
C27	C	1.333220	-0.409348	0.075216
O28	O	1.376915	-0.434339	0.016906
N29	N	1.281812	-0.448593	0.143750
C30	C	1.230389	-0.425917	0.212290
O31	O	1.186662	-0.464984	0.270583
C32	C	1.230380	-0.364000	0.212292
C33	C	1.281800	-0.324756	0.143759
C34	C	1.384632	-0.308186	0.006695
C35	C	1.384631	-0.246271	0.006704
C36	C	1.333214	-0.223598	0.075241
C37	C	1.281798	-0.262841	0.143768
C38	C	1.178950	-0.341326	0.280826
C39	C	1.178945	-0.279404	0.280821
C40	C	1.230365	-0.240161	0.212289
C41	C	1.230379	-0.178253	0.212314
N42	N	1.281787	-0.139008	0.143779
C43	C	1.333205	-0.161681	0.075242
C44	C	1.230410	-0.555948	0.212280
C45	C	1.230425	-0.617863	0.212284
C46	C	1.333255	-0.601290	0.075208
C47	C	1.333246	-0.539373	0.075210
C48	C	1.281818	-0.516703	0.143745
C49	C	1.333198	-0.031655	0.075267
C50	C	1.333195	0.030266	0.075284
C51	C	1.230361	0.013687	0.212356
C52	C	1.230368	-0.048228	0.212343
C53	C	1.281788	-0.070897	0.143789
O54	O	1.186703	-0.153220	0.270591
O55	O	1.376912	-0.122610	0.016950
C56	C	1.471789	0.236761	0.137193
C57	C	1.589035	0.255625	0.139677
C58	C	1.235547	0.198756	-0.041359
C59	C	1.200728	0.193157	-0.153806
N60	N	1.281837	0.359459	0.143744
C61	C	1.471463	0.236708	-0.517471
C62	C	1.504181	0.241966	-0.411822
C63	C	1.428320	0.229764	-0.347313
C64	C	1.319737	0.212304	-0.388463
C65	C	1.287016	0.207041	-0.494122
C66	C	1.243873	0.200097	-0.323964
C67	C	1.135289	0.182637	-0.365115
C68	C	1.102574	0.177376	-0.470764
C69	C	1.178434	0.189577	-0.535273
C70	C	1.276594	0.205360	-0.218305
C71	C	1.092147	0.175693	-0.194957
C72	C	1.059429	0.170436	-0.300606
C73	C	1.328063	0.213641	0.328932
C74	C	1.362882	0.219244	0.441379
H75	H	0.964353	0.252419	0.147647
H76	H	0.799133	0.386709	0.144086
H77	H	0.599273	0.354550	0.139855
H78	H	1.014158	0.163154	-0.504265
H79	H	0.499310	0.133948	0.137815
H80	H	0.899060	0.305503	0.146241
H81	H	1.375116	-0.507423	0.019404
H82	H	0.599231	0.052730	0.139941
H83	H	0.764452	0.025691	0.143480
H84	H	1.188536	-0.537493	0.268099
H85	H	0.971018	0.156219	-0.334126
H86	H	1.137078	-0.373271	0.336630
H87	H	1.375067	-0.050105	0.019443
H88	H	1.188568	-0.649809	0.268100
H89	H	1.375120	-0.619761	0.019400
H90	H	1.137062	-0.260951	0.336630
H91	H	1.030374	0.165755	-0.142433
H92	H	1.426498	-0.214322	-0.049104
H93	H	1.188509	-0.080179	0.268158
H94	H	1.188501	0.032157	0.268161
H95	H	1.592589	0.256181	-0.378325
H96	H	1.426501	-0.326640	-0.049120
H97	H	1.375072	0.062218	0.019477
H98	H	0.964325	0.057840	0.147706
H99	H	1.365003	0.219576	-0.184811
H100	H	1.533217	0.246636	-0.570002
H101	H	1.454966	0.234046	-0.261289
H102	H	1.151801	0.185299	-0.621302
