data_functionalizedCrystal
_audit_creation_method	'MofGen! by Chris Wilmer'
_symmetry_space_group_name_H-M	'P1'
_symmetry_Int_Tables_number	1
_symmetry_cell_setting	triclinic
loop_
_symmetry_equiv_pos_as_xyz
  x,y,z
_cell_length_a	6.817900
_cell_length_b	8.749630
_cell_length_c	12.200875
_cell_angle_alpha	93.117997
_cell_angle_beta	107.143593
_cell_angle_gamma	105.181985
loop_
_atom_site_label
_atom_site_type_symbol
_atom_site_fract_x
_atom_site_fract_y
_atom_site_fract_z
V1	V	-4.075833	-0.219162	-0.356169
V2	V	-3.742500	0.114171	-0.022836
V3	V	-3.409167	0.447504	0.310497
O4	O	-4.054691	0.010162	-0.350922
O5	O	-3.721358	0.343495	-0.017588
O6	O	-3.388024	0.676829	0.315745
O7	O	-4.034441	-0.434206	-0.352259
O8	O	-3.701108	-0.100873	-0.018926
O9	O	-3.367774	0.232460	0.314407
O10	O	-4.045446	-0.215953	-0.512179
O11	O	-3.712113	0.117380	-0.178846
O12	O	-3.378780	0.450713	0.154487
O13	O	-4.043609	-0.209602	-0.189895
O14	O	-3.710276	0.123731	0.143439
O15	O	-3.376943	0.457065	0.476772
V16	V	-4.556219	-0.191713	-0.336460
V17	V	-4.222886	0.141620	-0.003127
V18	V	-3.889552	0.474953	0.330206
O19	O	-4.343973	-0.279374	-0.399402
O20	O	-4.010640	0.053959	-0.066069
O21	O	-3.677307	0.387293	0.267265
O22	O	-4.738276	-0.131502	-0.293228
O23	O	-4.404943	0.201832	0.040106
O24	O	-4.071610	0.535165	0.373439
O25	O	-4.374405	0.023331	-0.340370
O26	O	-4.041071	0.356664	-0.007037
O27	O	-3.707738	0.689998	0.326296
O28	O	-4.694758	-0.421038	-0.341708
O29	O	-4.361425	-0.087704	-0.008375
O30	O	-4.028092	0.245629	0.324959
O31	O	-4.705840	-0.201274	-0.502735
O32	O	-4.372506	0.132060	-0.169402
O33	O	-4.039173	0.465393	0.163932
O34	O	-4.363399	-0.194922	-0.180450
O35	O	-4.030066	0.138411	0.152883
O36	O	-3.696733	0.471744	0.486216
C37	C	-3.880564	-0.486625	-0.346260
C38	C	-3.547230	-0.153291	-0.012927
C39	C	-3.213897	0.180042	0.320406
C40	C	-3.928127	-0.662427	-0.344103
C41	C	-3.594794	-0.329094	-0.010770
C42	C	-3.261461	0.004240	0.322563
C43	C	-3.894601	-0.208219	-0.550253
C44	C	-3.561268	0.125114	-0.216919
C45	C	-3.227934	0.458448	0.116414
C46	C	-3.951086	-0.207018	-0.677782
C47	C	-3.617753	0.126315	-0.344449
C48	C	-3.284419	0.459649	-0.011115
C49	C	-4.054462	-0.204822	-0.911271
C50	C	-3.721129	0.128512	-0.577938
C51	C	-3.387796	0.461845	-0.244605
C52	C	-3.996928	-0.206043	-0.781341
C53	C	-3.663595	0.127290	-0.448008
C54	C	-3.330261	0.460623	-0.114674
C55	C	-4.191624	0.075741	-0.346366
C56	C	-3.858291	0.409074	-0.013033
C57	C	-3.524957	0.742407	0.320301
C58	C	-4.123299	0.251542	-0.348530
C59	C	-3.789966	0.584875	-0.015197
C60	C	-3.456633	0.918208	0.318136
C61	C	-4.177586	-0.202662	-0.142371
C62	C	-3.844253	0.130672	0.190962
C63	C	-3.510920	0.464005	0.524296
C64	C	-4.100339	-0.203855	-0.014840
C65	C	-3.767006	0.129479	0.318493
C66	C	-3.433673	0.462812	0.651826
H67	H	-3.797416	-0.723275	-0.338670
H68	H	-3.464083	-0.389942	-0.005336
H69	H	-3.130750	-0.056608	0.327997
H70	H	-4.254009	-0.687621	-0.353976
H71	H	-3.920676	-0.354287	-0.020643
H72	H	-3.587343	-0.020954	0.312691
