data_functionalizedCrystal
_audit_creation_method	'MofGen! by Chris Wilmer'
_symmetry_space_group_name_H-M	'P1'
_symmetry_Int_Tables_number	1
_symmetry_cell_setting	triclinic
loop_
_symmetry_equiv_pos_as_xyz
  x,y,z
_cell_length_a	6.817900
_cell_length_b	8.749629
_cell_length_c	9.170709
_cell_angle_alpha	84.483581
_cell_angle_beta	112.460645
_cell_angle_gamma	105.181975
loop_
_atom_site_label
_atom_site_type_symbol
_atom_site_fract_x
_atom_site_fract_y
_atom_site_fract_z
V1	V	-4.114308	-0.151134	-0.484960
O2	O	-4.092599	0.077188	-0.477814
O3	O	-4.072494	-0.366925	-0.479637
O4	O	-4.100774	-0.118128	-0.697383
O5	O	-4.064123	-0.173332	-0.258561
V6	V	-4.592565	-0.127450	-0.458124
O7	O	-4.387119	-0.203089	-0.543826
O8	O	-4.769952	-0.075496	-0.399259
O9	O	-4.411173	0.088341	-0.463447
O10	O	-4.731672	-0.355772	-0.465270
O11	O	-4.760148	-0.105252	-0.684523
O12	O	-4.382893	-0.160456	-0.245701
C13	C	-3.917969	-0.420489	-0.471469
C14	C	-3.965300	-0.596704	-0.468533
C15	C	-3.954042	-0.103121	-0.749223
C16	C	-4.024303	-0.077563	-0.922867
C17	C	-4.229040	0.141896	-0.471611
C18	C	-4.160948	0.318110	-0.474557
C19	C	-4.192966	-0.175469	-0.193853
C20	C	-4.101943	-0.201020	-0.020208
H21	H	-4.292255	-0.620004	-0.481975
C22	C	-4.119140	-0.370240	-0.953332
N23	N	-4.132088	-0.497699	-0.902952
H24	H	-4.011593	0.047701	-0.972379
H25	H	-3.834008	-0.658582	-0.461132
