data_functionalizedCrystal
_audit_creation_method	'MofGen! by Chris Wilmer'
_symmetry_space_group_name_H-M	'P1'
_symmetry_Int_Tables_number	1
_symmetry_cell_setting	triclinic
loop_
_symmetry_equiv_pos_as_xyz
  x,y,z
_cell_length_a	12.759401
_cell_length_b	12.759399
_cell_length_c	12.759393
_cell_angle_alpha	90.025704
_cell_angle_beta	89.980186
_cell_angle_gamma	89.984225
loop_
_atom_site_label
_atom_site_type_symbol
_atom_site_fract_x
_atom_site_fract_y
_atom_site_fract_z
Zn1	Zn	1.606258	0.418184	-0.594047
Zn2	Zn	1.606154	0.593896	-0.418379
Zn3	Zn	1.430560	0.418237	-0.418382
Zn4	Zn	1.430550	0.593826	-0.594016
O5	O	1.518381	0.506036	-0.506206
O6	O	1.753265	0.441500	-0.570756
O7	O	1.582822	0.570646	-0.271358
O8	O	1.453915	0.271209	-0.441699
O9	O	1.753189	0.570595	-0.441693
O10	O	1.582999	0.271170	-0.570759
O11	O	1.453814	0.441590	-0.271361
O12	O	1.283538	0.441522	-0.441669
O13	O	1.453897	0.570476	-0.741041
O14	O	1.283530	0.570527	-0.570706
O15	O	1.582989	0.441432	-0.741064
O16	O	1.582812	0.740908	-0.441662
O17	O	1.453796	0.740857	-0.570702
C18	C	1.245413	0.506023	-0.506185
C19	C	1.128637	0.506043	-0.506201
C20	C	1.073798	0.573318	-0.573285
C21	C	0.964074	0.573322	-0.573306
C22	C	0.964036	0.438773	-0.439150
C23	C	1.073758	0.438764	-0.439135
C24	C	0.814176	0.611023	-0.697169
C25	C	0.759334	0.678314	-0.764243
C26	C	0.794932	0.780845	-0.780198
C27	C	0.885371	0.816106	-0.729062
C28	C	0.940207	0.748820	-0.661980
C29	C	0.904610	0.646274	-0.646045
C30	C	1.223659	0.401074	-0.315271
C31	C	1.278497	0.333793	-0.248182
C32	C	1.242901	0.231260	-0.232217
C33	C	1.152459	0.196003	-0.283334
C34	C	1.097620	0.263285	-0.350423
C35	C	1.133224	0.365816	-0.366389
C36	C	1.518320	0.779003	-0.506202
C37	C	1.518391	0.895780	-0.506235
C38	C	1.585646	0.950634	-0.439124
C39	C	1.585716	1.060358	-0.439167
C40	C	1.451264	1.060364	-0.573435
C41	C	1.451201	0.950642	-0.573396
C42	C	1.709727	1.210232	-0.401790
C43	C	1.776974	1.265090	-0.334663
C44	C	1.793138	1.229547	-0.232150
C45	C	1.742040	1.139149	-0.196744
C46	C	1.674786	1.084297	-0.263866
C47	C	1.658642	1.119838	-0.366393
C48	C	1.327188	0.800766	-0.610762
C49	C	1.259928	0.745912	-0.677879
C50	C	1.243753	0.781452	-0.780394
C51	C	1.294832	0.871854	-0.815796
C52	C	1.362092	0.926708	-0.748679
C53	C	1.378269	0.891160	-0.646166
C54	C	1.792414	0.506049	-0.506227
C55	C	1.909190	0.506055	-0.506237
C56	C	1.518454	0.505940	-0.780239
C57	C	1.518485	0.505900	-0.897016
C58	C	1.518473	1.232003	-0.506251
C59	C	1.518523	1.115226	-0.506317
C60	C	1.585663	0.573069	-0.951880
C61	C	1.585694	0.573017	-1.061605
C62	C	1.451359	0.438623	-1.061590
C63	C	1.451335	0.438670	-0.951868
C64	C	1.709620	0.610499	-1.211569
C65	C	1.776789	0.677685	-1.266437
C66	C	1.792876	0.780216	-1.230827
C67	C	1.741779	0.815582	-1.140350
C68	C	1.674602	0.748401	-1.085488
C69	C	1.658535	0.645855	-1.121096
C70	C	1.327407	0.401199	-0.801901
C71	C	1.260225	0.334023	-0.747037
C72	C	1.244127	0.231491	-0.782645
C73	C	1.295205	0.196129	-0.873126
C74	C	1.362388	0.263305	-0.927990
C75	C	1.378487	0.365837	-0.892374
C76	C	1.518368	0.506055	-0.233239
C77	C	1.518540	0.505800	-0.116462
H78	H	1.352139	0.362508	-0.206559
H79	H	1.282097	0.112638	-0.902120
Cl80	Cl	0.645648	0.633985	-0.828530
H81	H	1.118477	0.628098	-0.627897
H82	H	1.396687	0.383889	-1.106264
Cl83	Cl	0.769428	0.482114	-0.677134
Cl84	Cl	0.983916	0.218963	-0.414680
Cl85	Cl	1.610381	0.792846	-0.971744
Cl86	Cl	1.670116	0.881667	-0.354696
Cl87	Cl	1.196070	0.378456	-0.633245
H88	H	1.847560	0.834922	-1.275513
Cl89	Cl	1.107698	0.067104	-0.263257
Cl90	Cl	1.347524	0.756076	-0.481882
H91	H	1.818393	0.648880	-1.340103
H92	H	0.919341	0.383999	-0.384545
Cl93	Cl	1.311834	0.146684	-0.147860
H94	H	1.189413	0.176800	-0.737969
H95	H	1.847893	1.274220	-0.177495
Cl96	Cl	1.159132	0.712534	-0.864744
Cl97	Cl	1.053893	0.793138	-0.597696
H98	H	1.696538	0.527007	-1.240565
H99	H	1.403992	0.234499	-1.001655
H100	H	1.252656	0.484562	-0.328274
Cl101	Cl	1.274500	0.916538	-0.944676
H102	H	1.754872	0.899078	-1.111371
Cl103	Cl	1.347644	0.530103	-0.757128
H104	H	1.633185	1.010695	-0.235039
H105	H	1.218342	0.672297	-0.649048
H106	H	1.755198	1.110224	-0.113263
Cl107	Cl	1.841208	1.378729	-0.379174
H108	H	1.403688	1.000315	-0.777515
H109	H	0.914341	0.899602	-0.742049
H110	H	0.750272	0.835634	-0.834813
Cl111	Cl	1.689426	1.254912	-0.530675
Cl112	Cl	1.366798	1.129342	-0.657858
H113	H	1.640350	0.627802	-0.907223
