data_functionalizedCrystal
_audit_creation_method	'MofGen! by Chris Wilmer'
_symmetry_space_group_name_H-M	'P1'
_symmetry_Int_Tables_number	1
_symmetry_cell_setting	triclinic
loop_
_symmetry_equiv_pos_as_xyz
  x,y,z
_cell_length_a	19.288864
_cell_length_b	9.130313
_cell_length_c	19.288865
_cell_angle_alpha	90.009433
_cell_angle_beta	83.136245
_cell_angle_gamma	90.015800
loop_
_atom_site_label
_atom_site_type_symbol
_atom_site_fract_x
_atom_site_fract_y
_atom_site_fract_z
O1	O	0.921346	0.122286	0.086647
O2	O	0.719085	0.122188	0.098336
O3	O	0.826060	0.122211	-0.008639
O4	O	0.814371	0.122263	0.193622
O5	O	0.826056	-0.121388	-0.008641
O6	O	0.719081	-0.121411	0.098333
O7	O	0.921342	-0.121313	0.086645
Cu8	Cu	0.820211	-0.143605	0.092489
Cu9	Cu	0.820216	0.144479	0.092492
O10	O	0.814367	-0.121336	0.193619
C11	C	0.693207	0.000375	0.097959
C12	C	0.616103	0.000337	0.096830
N13	N	0.820213	-0.346227	0.092486
C14	C	0.571407	0.000376	0.159598
C15	C	0.498960	0.000392	0.158537
C16	C	0.471212	0.000398	0.094705
C17	C	0.515918	0.000350	0.031929
C18	C	0.588364	0.000320	0.032991
C19	C	0.362952	0.085778	0.044527
C20	C	0.290507	0.085817	0.043467
C21	C	0.247767	0.000486	0.091425
C22	C	0.277478	-0.084866	0.140455
C23	C	0.349923	-0.084897	0.141518
C24	C	0.392658	0.000430	0.093546
C25	C	0.124514	0.000540	0.153047
C26	C	0.052066	0.000547	0.151984
C27	C	0.069026	0.000520	0.025374
C28	C	0.141473	0.000499	0.026439
C29	C	0.169212	0.000516	0.090278
C30	C	0.778227	-0.422936	0.050464
C31	C	0.778228	-0.576273	0.050467
C32	C	0.862207	-0.576179	0.134516
C33	C	0.862202	-0.422845	0.134516
C34	C	0.736237	-0.346318	0.008433
C35	C	0.694248	-0.423027	-0.033593
C36	C	0.694250	-0.576364	-0.033589
C37	C	0.736240	-0.652992	0.008440
C38	C	0.947220	0.000502	0.087022
C39	C	1.024324	0.000551	0.088151
C40	C	0.825682	0.000407	-0.034516
C41	C	0.824553	0.000393	-0.111620
N42	N	0.820220	0.347102	0.092489
C43	C	0.887321	0.000416	-0.156316
C44	C	0.886260	0.000439	-0.228763
C45	C	0.822428	0.000409	-0.256511
C46	C	0.759652	0.000394	-0.211805
C47	C	0.760714	0.000386	-0.139359
C48	C	0.772247	-0.084943	-0.364799
C49	C	0.771187	-0.084944	-0.437244
C50	C	0.819148	0.000440	-0.479956
C51	C	0.868181	0.085806	-0.450217
C52	C	0.869243	0.085798	-0.377772
C53	C	0.821269	0.000419	-0.335065
C54	C	0.880770	0.000490	-0.603209
C55	C	0.879707	0.000522	-0.675657
C56	C	0.753097	0.000462	-0.658697
C57	C	0.754162	0.000445	-0.586250
C58	C	0.818000	0.000452	-0.558511
C59	C	0.814745	0.000471	0.219497
C60	C	0.815874	0.000494	0.296601
H61	H	0.593987	0.000393	0.211580
Br62	Br	0.637258	-0.680466	-0.090615
H63	H	0.177866	0.000475	-0.024674
Br64	Br	-0.008596	0.000587	0.237177
H65	H	0.660057	-0.360627	-0.067807
H66	H	0.736233	-0.221464	0.008425
H67	H	0.266322	0.155322	0.003546
Br68	Br	0.675522	0.000359	-0.078695
H69	H	0.736234	-0.777849	0.008443
H70	H	0.701123	0.000445	-0.681288
H71	H	0.896394	-0.638582	0.168734
H72	H	0.896388	-0.360387	0.168737
Br73	Br	0.973958	0.000467	-0.118673
Br74	Br	0.478263	0.000344	-0.054702
H75	H	0.909166	0.155309	-0.353561
Br76	Br	0.971451	0.000477	-0.289434
Br77	Br	0.438288	0.000436	0.243728
H78	H	0.046435	0.000616	-0.026600
H79	H	0.624756	0.000289	-0.018124
Br80	Br	0.967406	0.000485	-0.565558
H81	H	0.397746	0.155274	0.005472
H82	H	0.907235	0.155335	-0.484993
Br83	Br	0.668972	0.000412	-0.525587
Br84	Br	0.704648	-0.200805	-0.477597
Br85	Br	0.707151	-0.200832	-0.306839
H86	H	0.374111	-0.154399	0.181437
Br87	Br	0.219482	-0.200678	0.205549
Br88	Br	0.162165	0.000553	0.239683
H89	H	0.930822	0.000549	-0.712049
H90	H	0.707679	0.000373	-0.234401
