data_functionalizedCrystal
_audit_creation_method	'MofGen! by Chris Wilmer'
_symmetry_space_group_name_H-M	'P1'
_symmetry_Int_Tables_number	1
_symmetry_cell_setting	triclinic
loop_
_symmetry_equiv_pos_as_xyz
  x,y,z
_cell_length_a	10.908925
_cell_length_b	10.654559
_cell_length_c	9.483334
_cell_angle_alpha	99.429052
_cell_angle_beta	96.950706
_cell_angle_gamma	107.712329
loop_
_atom_site_label
_atom_site_type_symbol
_atom_site_fract_x
_atom_site_fract_y
_atom_site_fract_z
O1	O	-1.682286	-0.169757	0.121007
O2	O	-1.309304	-0.071884	0.120981
O3	O	-1.504364	-0.305421	0.120995
O4	O	-1.487226	0.063781	0.120994
O5	O	-1.543951	-0.353007	-0.120778
O6	O	-1.348891	-0.119470	-0.120792
O7	O	-1.721872	-0.217343	-0.120765
Cu8	Cu	-1.538996	-0.172751	-0.142854
Cu9	Cu	-1.492180	-0.116475	0.143070
O10	O	-1.526812	0.016195	-0.120779
C11	C	-1.281339	-0.086530	0.000091
C12	C	-1.139033	-0.059292	0.000081
C13	C	-0.942051	-0.130547	0.000099
C14	C	-1.089136	-0.158706	0.000088
C15	C	-1.522896	-0.375737	0.000111
C16	C	-1.519123	-0.514358	0.000120
C17	C	-0.749839	-0.202699	0.000117
C18	C	-0.892149	-0.229946	0.000106
C19	C	-1.400728	-0.540165	0.000115
C20	C	-1.397193	-0.670420	0.000104
C21	C	-1.630457	-0.749054	0.000108
C22	C	-1.633992	-0.618802	0.000109
C23	C	-1.266054	-0.494766	0.000119
C24	C	-1.262519	-0.625021	0.000108
C25	C	-1.508280	0.086512	0.000107
C26	C	-1.512052	0.225134	0.000108
N27	N	-1.571934	-0.212335	-0.343958
C28	C	-1.501880	-0.128148	-0.416192
C29	C	-1.529317	-0.161103	-0.583596
N30	N	-1.459253	-0.076903	0.344173
H31	H	-1.155299	-0.264658	0.000093
C32	C	-1.378836	0.165019	-0.608712
C33	C	-1.350861	0.053347	-0.572033
H34	H	-1.311924	0.245427	-0.556974
H35	H	-1.383050	0.159948	-0.710205
H36	H	-1.460501	0.165427	-0.583807
H37	H	-1.269200	0.052933	-0.596947
H38	H	-1.346633	0.058420	-0.470517
H39	H	-1.236695	-0.671865	-0.104277
C40	C	-0.896673	0.052977	-0.124177
C41	C	-0.852744	0.012487	0.000109
H42	H	-0.841544	0.141286	-0.124162
H43	H	-0.894461	-0.007681	-0.208470
H44	H	-0.983803	0.052807	-0.124172
H45	H	-0.765617	0.012647	0.000098
H46	H	-0.854942	0.073161	0.084424
C47	C	-1.864208	-0.709620	0.000093
C48	C	-1.764137	-0.590439	0.000098
H49	H	-1.944555	-0.692107	0.000092
H50	H	-1.871769	-0.775375	-0.084212
H51	H	-1.844174	-0.742194	0.084412
H52	H	-1.784167	-0.557871	-0.084228
H53	H	-1.756578	-0.524663	0.084411
H54	H	-1.231869	-0.461900	-0.101059
C55	C	-1.038879	-0.370302	0.124381
C56	C	-0.981464	-0.372975	0.000102
H57	H	-1.094021	-0.458604	0.124371
H58	H	-0.972331	-0.338921	0.208679
H59	H	-1.089240	-0.311582	0.124361
H60	H	-0.931095	-0.431687	0.000127
H61	H	-1.048021	-0.404374	-0.084218
C62	C	-1.686518	-0.350015	-0.577379
C63	C	-1.680320	-0.342577	-0.427764
H64	H	-1.753428	-0.430428	-0.629111
H65	H	-1.705484	-0.274251	-0.602235
H66	H	-1.604848	-0.350433	-0.602259
H67	H	-1.761987	-0.342148	-0.402882
H68	H	-1.661362	-0.418361	-0.402898
H69	H	-1.072870	0.046663	0.000088
C70	C	-1.421466	0.113770	-0.369054
C71	C	-1.393495	0.002093	-0.332383
H72	H	-1.354554	0.194176	-0.317307
H73	H	-1.425673	0.108707	-0.470544
H74	H	-1.503133	0.114176	-0.344154
H75	H	-1.311832	0.001682	-0.357292
H76	H	-1.389273	0.007157	-0.230869
C77	C	-1.213463	-0.575917	0.260967
C78	C	-1.169097	-0.622372	0.136702
H79	H	-1.155801	-0.574298	0.345291
H80	H	-1.215843	-0.487541	0.260977
H81	H	-1.298830	-0.634426	0.260916
H82	H	-1.083734	-0.563858	0.136747
H83	H	-1.166703	-0.710763	0.136692
H84	H	-1.208275	-0.419734	0.104510
H85	H	-1.723979	-0.834107	0.000099
H86	H	-1.609615	-0.257579	-0.645680
