data_functionalizedCrystal
_audit_creation_method	'MofGen! by Chris Wilmer'
_symmetry_space_group_name_H-M	'P1'
_symmetry_Int_Tables_number	1
_symmetry_cell_setting	triclinic
loop_
_symmetry_equiv_pos_as_xyz
  x,y,z
_cell_length_a	15.995350
_cell_length_b	10.489741
_cell_length_c	14.472310
_cell_angle_alpha	89.999301
_cell_angle_beta	89.990621
_cell_angle_gamma	84.015774
loop_
_atom_site_label
_atom_site_type_symbol
_atom_site_fract_x
_atom_site_fract_y
_atom_site_fract_z
O1	O	1.111988	0.164399	-0.076762
O2	O	0.868335	0.184702	-0.076781
O3	O	0.995706	-0.011125	-0.076766
O4	O	0.984617	0.360226	-0.076777
O5	O	0.995673	-0.011114	0.076916
O6	O	0.868302	0.184713	0.076901
O7	O	1.111955	0.164411	0.076920
Cu8	Cu	0.990125	0.174563	0.090943
Cu9	Cu	0.990164	0.174549	-0.090804
O10	O	0.984584	0.360237	0.076905
C11	C	0.837119	0.183868	0.000058
C12	C	0.744153	0.181352	0.000050
C13	C	0.406351	0.172315	0.000070
C14	C	0.452944	0.032851	0.000417
C15	C	0.549650	0.035368	0.000064
C16	C	0.573939	0.176797	0.000061
C17	C	0.533285	0.245579	-0.087698
C18	C	0.436628	0.242076	-0.087765
C19	C	0.436269	0.244970	0.087001
C20	C	0.533214	0.244937	0.088154
C21	C	0.668651	0.179338	0.000053
C22	C	0.311638	0.169778	0.000072
C23	C	0.994852	-0.058639	0.000075
C24	C	0.992346	-0.200234	0.000073
C25	C	0.911304	-0.267240	0.000060
C26	C	0.949571	-0.359892	0.075836
C27	C	0.949623	-0.359878	-0.075682
C28	C	1.030647	-0.291021	0.075912
C29	C	1.030687	-0.290998	-0.075675
C30	C	1.069013	-0.383624	0.000120
C31	C	1.143171	0.165244	0.000079
C32	C	1.236137	0.167761	0.000080
C33	C	0.985438	0.407752	0.000062
C34	C	0.987944	0.549346	0.000058
N35	N	0.990104	0.174572	0.218774
N36	N	0.990192	0.174531	-0.218635
C37	C	0.990163	0.174544	0.592865
C38	C	0.921777	0.278976	0.553691
C39	C	0.921938	0.279357	0.446603
C40	C	0.990133	0.174558	0.407274
C41	C	1.077673	0.203626	0.446117
C42	C	1.077290	0.204368	0.553238
C43	C	0.971787	0.040735	0.553397
C44	C	0.969789	0.041628	0.446269
C45	C	0.990122	0.174563	0.302386
C46	C	0.990181	0.174542	0.697753
H47	H	0.415444	0.199381	0.153519
N48	N	0.397203	0.373962	0.087770
N49	N	0.412731	0.448274	0.151574
H50	H	0.385137	0.539371	0.152113
H51	H	0.915266	-0.390419	0.139894
H52	H	1.064894	-0.260664	0.140046
H53	H	0.844671	-0.216656	0.000131
N54	N	0.906616	-0.398126	-0.156059
N55	N	0.933494	-0.374687	-0.234700
H56	H	0.903115	-0.401693	-0.291464
N57	N	1.143089	0.112589	0.585775
N58	N	1.143277	-0.003022	0.564765
H59	H	1.189751	-0.067829	0.587748
H60	H	0.856894	0.262038	0.420342
H61	H	0.856524	0.261942	0.579474
N62	N	1.152668	-0.446832	0.000166
N63	N	1.176994	-0.519837	-0.064903
H64	H	1.236074	-0.564483	-0.064868
H65	H	0.577193	-0.019074	-0.062951
H66	H	1.093360	0.301954	0.578212
N67	N	1.073682	-0.252669	-0.156045
N68	N	1.046084	-0.274351	-0.234669
H69	H	1.076443	-0.247279	-0.291438
N70	N	0.936407	0.402837	0.587452
N71	N	0.996981	0.414532	0.640239
H72	H	1.007317	0.502008	0.664085
N73	N	0.888998	0.013967	0.414422
N74	N	0.846516	0.091798	0.363194
H75	H	0.789456	0.072267	0.340696
H76	H	1.094107	0.300099	0.419278
N77	N	0.429268	-0.037108	0.079354
N78	N	0.460065	-0.150361	0.091408
H79	H	0.443339	-0.199775	0.147158
H80	H	1.016301	-0.039726	0.419501
N81	N	0.893366	0.005714	0.587301
N82	N	0.826856	0.075536	0.570858
H83	H	0.771465	0.050816	0.594798
N84	N	0.567074	0.181923	0.169595
N85	N	0.621001	0.087182	0.162855
H86	H	0.644920	0.042674	0.220371
N87	N	0.936718	0.403948	0.414449
N88	N	0.946954	0.490888	0.471123
H89	H	0.957379	0.578893	0.448416
N90	N	1.143082	0.110739	0.414172
N91	N	1.140944	-0.005170	0.433006
H92	H	1.187138	-0.070776	0.410445
N93	N	0.584881	-0.032472	0.078981
N94	N	0.538052	-0.082014	0.134703
H95	H	0.562931	-0.129938	0.190438
N96	N	0.427947	-0.036765	-0.078088
N97	N	0.375966	0.015887	-0.134292
H98	H	0.358310	-0.033275	-0.189739
H99	H	0.549200	0.348073	0.093452
H100	H	1.021649	-0.036979	0.578729
H101	H	0.418031	0.191907	-0.153364
H102	H	0.404998	0.344468	-0.091750
H103	H	0.548037	0.349484	-0.090963
H104	H	0.561385	0.197797	-0.153007
