data_functionalizedCrystal
_audit_creation_method	'MofGen! by Chris Wilmer'
_symmetry_space_group_name_H-M	'P1'
_symmetry_Int_Tables_number	1
_symmetry_cell_setting	triclinic
loop_
_symmetry_equiv_pos_as_xyz
  x,y,z
_cell_length_a	23.096457
_cell_length_b	14.809374
_cell_length_c	23.096457
_cell_angle_alpha	55.138786
_cell_angle_beta	90.011518
_cell_angle_gamma	55.129487
loop_
_atom_site_label
_atom_site_type_symbol
_atom_site_fract_x
_atom_site_fract_y
_atom_site_fract_z
Zr1	Zr	0.439215	1.187689	-0.194503
O2	O	0.324154	1.414053	-0.309535
O3	O	0.490154	0.961325	-0.143578
O4	O	0.467533	1.187692	-0.286955
O5	O	0.346797	1.187682	-0.070876
O6	O	0.562813	1.187695	-0.286958
O7	O	0.346774	1.187685	-0.166158
O8	O	0.603277	0.782765	-0.030484
O9	O	0.306333	1.592613	-0.327351
O10	O	0.564058	1.054434	-0.140784
O11	O	0.492968	1.054429	-0.069673
O12	O	0.466336	1.320948	-0.238480
O13	O	0.395247	1.320944	-0.167369
Zr14	Zr	0.591213	1.187689	-0.042545
Zr15	Zr	0.591176	1.187693	-0.194509
Zr16	Zr	0.439252	1.187684	-0.042539
Zr17	Zr	0.410794	1.472471	-0.222917
Zr18	Zr	0.619634	0.902906	-0.014131
O19	O	0.540274	1.414053	-0.093470
O20	O	0.540222	1.414060	-0.309544
O21	O	0.324206	1.414046	-0.093461
O22	O	0.706274	0.961325	0.072487
O23	O	0.706222	0.961331	-0.143587
O24	O	0.490206	0.961318	0.072496
O25	O	0.683631	1.187695	-0.166172
O26	O	0.562895	1.187685	0.049907
O27	O	0.467614	1.187682	0.049910
O28	O	0.683654	1.187692	-0.070890
O29	O	0.427122	1.592617	-0.327356
O30	O	0.603306	0.782761	0.090308
O31	O	0.724094	0.782765	0.090303
O32	O	0.724065	0.782768	-0.030489
O33	O	0.306363	1.592609	-0.206559
O34	O	0.427151	1.592613	-0.206564
O35	O	0.564092	1.054429	0.001432
O36	O	0.635181	1.054434	-0.069679
O37	O	0.537460	1.320948	-0.167375
O38	O	0.466370	1.320944	-0.096264
C39	C	0.550765	0.831469	-0.082982
C40	C	0.562830	0.710572	-0.070920
C41	C	0.508983	0.750158	-0.124753
C42	C	0.521452	0.625206	-0.112287
C43	C	0.325134	1.187683	-0.118516
C44	C	0.260623	1.187681	-0.118514
C45	C	0.281326	1.048567	-0.067524
C46	C	0.220711	1.048565	-0.067521
C47	C	0.139392	1.187684	-0.118522
C48	C	0.118689	1.326816	-0.169515
C49	C	0.179304	1.326814	-0.169511
N50	N	0.006247	1.291239	-0.189265
N51	N	-0.051332	1.291232	-0.189267
C52	C	-0.043242	1.187698	-0.118536
N53	N	0.024610	1.084149	-0.047802
N54	N	0.082195	1.084152	-0.047801
C55	C	0.073659	1.187702	-0.118532
C56	C	-0.088261	1.048572	-0.067539
C57	C	-0.148879	1.048576	-0.067534
C58	C	-0.250902	1.326831	-0.169535
C59	C	-0.190283	1.326824	-0.169532
C60	C	-0.108965	1.187690	-0.118535
C61	C	0.705294	1.187695	-0.118532
C62	C	0.769805	1.187697	-0.118534
C63	C	0.515168	1.187695	-0.308608
C64	C	0.515153	1.187697	-0.373121
C65	C	0.479663	1.543908	-0.154066
C66	C	0.467598	1.664806	-0.166128
C67	C	0.464147	1.326810	-0.454421
C68	C	0.464165	1.326813	-0.515037
C69	C	0.515180	1.187693	-0.494349
C70	C	0.566195	1.048561	-0.413035
C71	C	0.566182	1.048563	-0.352421
N72	N	0.520392	1.084138	-0.551572
N73	N	0.520400	1.084146	-0.609157
C74	C	0.515224	1.187679	-0.676973
N75	N	0.510025	1.291228	-0.685039
N76	N	0.510012	1.291225	-0.627450
C77	C	0.515200	1.187676	-0.560069
C78	C	0.464235	1.326805	-0.824004
C79	C	0.464259	1.326801	-0.884620
C80	C	0.566285	1.048546	-0.782615
C81	C	0.566266	1.048554	-0.722002
C82	C	0.515237	1.187687	-0.742702
C83	C	0.515260	1.187683	0.071560
C84	C	0.515275	1.187681	0.136073
C85	C	0.740844	0.831475	-0.082990
C86	C	0.817421	0.710580	-0.070930
C87	C	0.550810	0.831463	0.107102
C88	C	0.562892	0.710563	0.183677
C89	C	0.740890	0.831469	0.107094
C90	C	0.817483	0.710572	0.183667
C91	C	0.289538	1.543908	-0.344142
C92	C	0.212945	1.664806	-0.420715
C93	C	0.289584	1.543902	-0.154058
C94	C	0.213007	1.664798	-0.166118
C95	C	0.479617	1.543914	-0.344150
C96	C	0.467536	1.664814	-0.420725
C97	C	0.816257	0.653806	-0.102389
C98	C	0.888202	0.540227	-0.091073
C99	C	0.961311	0.483417	-0.048293
C100	C	0.962473	0.540202	-0.016834
C101	C	0.890528	0.653786	-0.028155
C102	C	0.605691	0.653788	0.256760
C103	C	0.617038	0.540206	0.328715
C104	C	0.585590	0.483393	0.327586
C105	C	0.542785	0.540180	0.254494
C106	C	0.531434	0.653768	0.182540
C107	C	0.890565	0.653799	0.182507
C108	C	0.962536	0.540219	0.254448
C109	C	0.961423	0.483405	0.327548
C110	C	0.888332	0.540189	0.328706
C111	C	0.816362	0.653775	0.256765
C112	C	0.139861	1.721592	-0.419556
C113	C	0.067887	1.835208	-0.491501
C114	C	0.068999	1.892027	-0.564602
C115	C	0.142091	1.835236	-0.565758
C116	C	0.214063	1.721631	-0.493816
C117	C	0.214170	1.721584	-0.134666
C118	C	0.142222	1.835193	-0.146002
C119	C	0.069113	1.892008	-0.188785
C120	C	0.067951	1.835217	-0.220240
C121	C	0.139897	1.721617	-0.208909
C122	C	0.498995	1.721590	-0.419569
C123	C	0.487659	1.835173	-0.491513
C124	C	0.444859	1.891986	-0.564611
C125	C	0.413400	1.835198	-0.565765
C126	C	0.424742	1.721610	-0.493821
H127	H	0.347536	0.935273	-0.026003
C128	C	-0.012471	1.897713	-0.267292
H129	H	-0.055146	1.973486	-0.269522
H130	H	-0.022237	1.942037	-0.320549
H131	H	-0.009649	1.816160	-0.240814
C132	C	0.366315	1.897715	-0.646177
H133	H	0.364062	1.973508	-0.688854
H134	H	0.392769	1.816190	-0.643376
H135	H	0.313052	1.942055	-0.655919
C136	C	0.243480	0.895534	-0.011434
H137	H	0.300591	0.812673	0.018934
H138	H	0.221961	0.889741	0.024267
H139	H	0.221945	0.889770	-0.042910
H140	H	0.496586	0.699980	0.123037
H141	H	0.891487	0.700040	0.122992
H142	H	0.533845	1.675351	-0.360056
H143	H	0.138940	1.675385	-0.234520
H144	H	1.022043	0.493997	0.253492
H145	H	0.052475	1.440088	-0.211040
H146	H	0.143184	1.881413	-0.120382
H147	H	-0.022047	0.935281	-0.025999
C148	C	-0.010023	2.016959	-0.201241
H149	H	-0.053736	2.042677	-0.231230
H150	H	-0.006291	1.979716	-0.150233
H151	H	-0.018869	2.105587	-0.229960
H152	H	0.273693	1.675334	-0.099824
H153	H	0.422726	1.440089	-0.950821
C154	C	-0.010171	2.016984	-0.643734
H155	H	0.000952	2.042705	-0.687441
H156	H	-0.033875	1.979744	-0.640013
H157	H	-0.046431	2.105610	-0.652570
C158	C	0.522256	1.897636	-0.490231
H159	H	0.549355	1.847547	-0.436393
H160	H	0.559242	1.879016	-0.510467
H161	H	0.479504	2.004888	-0.523035
C162	C	1.040444	0.358464	-0.035838
H163	H	1.029274	0.332783	-0.060696
H164	H	1.064154	0.395679	-0.059424
H165	H	1.076721	0.269819	0.020299
C166	C	0.390122	1.659186	-0.495104
H167	H	0.363002	1.709310	-0.548946
H168	H	0.432855	1.551940	-0.462306
H169	H	0.353133	1.677832	-0.474868
H170	H	1.020032	0.390916	0.386121
C171	C	0.408115	1.479838	-0.846763
H172	H	0.415403	1.459916	-0.799020
H173	H	0.420738	1.537004	-0.877637
H174	H	0.353574	1.536997	-0.877667
H175	H	0.631301	0.700032	0.257695
C176	C	0.598083	0.358444	0.406737
H177	H	0.573222	0.332738	0.395603
H178	H	0.654226	0.269825	0.442998
H179	H	0.574495	0.395699	0.430437
H180	H	-0.132014	0.935288	-0.026007
C181	C	-0.012502	1.897644	-0.490213
H182	H	-0.002848	1.847507	-0.436369
H183	H	-0.048403	2.004885	-0.523002
H184	H	-0.035839	1.879024	-0.510459
C185	C	0.887120	0.477670	0.409120
H186	H	0.940454	0.401879	0.451795
H187	H	0.853801	0.559194	0.406320
H188	H	0.866370	0.433327	0.418865
C189	C	0.664131	0.477747	0.409105
H190	H	0.681244	0.527837	0.399468
H191	H	0.630249	0.496371	0.432444
H192	H	0.709968	0.370494	0.444995
H193	H	0.517183	0.493907	0.253587
C194	C	0.432382	2.016942	-0.643743
H195	H	0.457243	2.042623	-0.632580
H196	H	0.455962	1.979728	-0.667459
H197	H	0.376237	2.105586	-0.680006
C198	C	0.143310	1.897728	-0.646169
H199	H	0.197143	1.847648	-0.636564
H200	H	0.123049	1.879110	-0.669491
H201	H	0.110497	2.004980	-0.682057
C202	C	0.294458	1.659118	-0.495090
H203	H	0.337169	1.583312	-0.441777
H204	H	0.304156	1.614827	-0.515862
H205	H	0.291650	1.740649	-0.528412
H206	H	0.453654	0.876554	-0.180073
H207	H	0.756734	0.700060	-0.137234
C208	C	0.735975	0.716207	0.258047
H209	H	0.693265	0.791999	0.204736
H210	H	0.738817	0.634639	0.291378
H211	H	0.726244	0.760525	0.278812
C212	C	0.596205	0.454458	-0.037551
H213	H	0.594776	0.392876	-0.038974
H214	H	0.643716	0.432574	-0.037530
H215	H	0.596228	0.432582	0.009960
C216	C	0.891815	0.716230	0.006453
H217	H	0.838499	0.792023	-0.006418
H218	H	0.925158	0.634669	0.063420
H219	H	0.912573	0.760549	-0.016310
H220	H	0.138941	1.675336	-0.360040
H221	H	0.618163	0.584175	-0.015604
C222	C	0.392840	0.835552	-0.240861
H223	H	0.394261	0.897137	-0.239434
H224	H	0.392804	0.857441	-0.288374
H225	H	0.345332	0.857420	-0.240868
C226	C	1.042897	0.477687	0.030229
H227	H	1.085573	0.401898	0.032470
H228	H	1.040088	0.559215	0.003776
H229	H	1.052654	0.433345	0.083491
C230	C	0.622406	0.895513	-0.759848
H231	H	0.652785	0.812659	-0.702743
H232	H	0.590957	0.889719	-0.781386
H233	H	0.658117	0.889737	-0.781359
H234	H	0.162440	1.440101	-0.211031
H235	H	-0.317113	1.440105	-0.211061
C236	C	0.622364	0.895527	-0.632570
H237	H	0.652745	0.812670	-0.628928
H238	H	0.658060	0.889740	-0.606787
H239	H	0.590890	0.889749	-0.606823
H240	H	-0.207145	1.440105	-0.211058
H241	H	0.422598	1.440104	-0.471282
C242	C	0.408056	1.479839	-0.604477
H243	H	0.415377	1.459908	-0.637611
H244	H	0.353513	1.536996	-0.615511
H245	H	0.420674	1.537011	-0.615490
C246	C	0.622307	0.895534	-0.390277
H247	H	0.615004	0.915456	-0.438021
H248	H	0.676847	0.838369	-0.359376
H249	H	0.609678	0.838375	-0.359402
C250	C	0.886910	0.477768	-0.125672
H251	H	0.833066	0.527855	-0.152757
H252	H	0.907135	0.496393	-0.162665
H253	H	0.919725	0.370515	-0.082929
H254	H	0.607718	0.935276	-0.286220
