data_functionalizedCrystal
_audit_creation_method	'MofGen! by Chris Wilmer'
_symmetry_space_group_name_H-M	'P1'
_symmetry_Int_Tables_number	1
_symmetry_cell_setting	triclinic
loop_
_symmetry_equiv_pos_as_xyz
  x,y,z
_cell_length_a	18.101390
_cell_length_b	14.908571
_cell_length_c	14.908520
_cell_angle_alpha	90.205961
_cell_angle_beta	86.735556
_cell_angle_gamma	93.312229
loop_
_atom_site_label
_atom_site_type_symbol
_atom_site_fract_x
_atom_site_fract_y
_atom_site_fract_z
Zn1	Zn	-0.503463	-1.353961	0.437368
Zn2	Zn	-0.003463	-0.853961	0.937368
Zn3	Zn	-0.386327	-1.345179	0.587742
Zn4	Zn	0.113673	-0.845179	1.087742
Zn5	Zn	-0.372116	-1.203597	0.428720
Zn6	Zn	0.127884	-0.703597	0.928720
Zn7	Zn	-0.502607	-1.194889	0.578992
Zn8	Zn	-0.002607	-0.694889	1.078992
O9	O	-0.441128	-1.274407	0.508206
O10	O	0.058872	-0.774407	1.008206
O11	O	-0.494230	-1.478621	0.464597
O12	O	0.005770	-0.978621	0.964597
O13	O	-0.280810	-1.326367	0.566690
O14	O	0.219190	-0.826367	1.066690
O15	O	-0.383951	-1.230863	0.304046
O16	O	0.116049	-0.730863	0.804046
O17	O	-0.408171	-1.472169	0.575076
O18	O	0.091829	-0.972169	1.075076
O19	O	-0.480450	-1.341335	0.310400
O20	O	0.019550	-0.841335	0.810400
O21	O	-0.270369	-1.222347	0.449857
O22	O	0.229631	-0.722347	0.949857
O23	O	-0.383121	-1.076617	0.441373
O24	O	0.116879	-0.576617	0.941373
O25	O	-0.606353	-1.216022	0.560163
O26	O	-0.106353	-0.716022	1.060163
O27	O	-0.478992	-1.070220	0.551777
O28	O	0.021008	-0.570220	1.051777
O29	O	-0.606982	-1.332891	0.456113
O30	O	-0.106982	-0.832891	0.956113
O31	O	-0.407341	-1.317923	0.712403
O32	O	0.092659	-0.817923	1.212403
O33	O	-0.492771	-1.207506	0.705974
O34	O	0.007229	-0.707506	1.205974
C35	C	-0.429422	-1.040793	0.494688
C36	C	0.070578	-0.540793	0.994688
C37	C	-0.424432	-0.940851	0.488927
C38	C	0.075568	-0.440851	0.988927
C39	C	-0.451523	-1.260841	0.741814
C40	C	0.048477	-0.760841	1.241814
C41	C	-0.455998	-1.255119	0.841757
C42	C	0.044002	-0.755119	1.341757
C43	C	-0.634289	-1.274465	0.508127
C44	C	-0.134289	-0.774465	1.008127
C45	C	-0.716603	-1.274490	0.508093
C46	C	-0.216603	-0.774490	1.008093
C47	C	-1.015694	-1.274541	0.508040
C48	C	-0.515694	-0.774541	1.008040
C49	C	-0.984787	-1.348287	0.442832
C50	C	-0.484787	-0.848287	0.942832
C51	C	-0.899146	-1.348085	0.442562
C52	C	-0.399146	-0.848085	0.942562
C53	C	-0.867312	-1.274516	0.508066
C54	C	-0.367312	-0.774516	1.008066
C55	C	-0.892498	-1.181275	0.476848
C56	C	-0.392498	-0.681275	0.976848
C57	C	-0.978141	-1.181722	0.476353
C58	C	-0.478141	-0.681722	0.976353
C59	C	-0.989561	-1.293193	0.604596
C60	C	-0.489561	-0.793193	1.104596
C61	C	-0.903993	-1.295299	0.604230
C62	C	-0.403993	-0.795299	1.104230
C63	C	-0.783452	-1.274496	0.508082
C64	C	-0.283452	-0.774496	1.008082
C65	C	-1.099553	-1.274555	0.508021
C66	C	-0.599553	-0.774555	1.008021
C67	C	-0.248718	-1.274404	0.508222
C68	C	0.251282	-0.774404	1.008222
C69	C	-0.166403	-1.274568	0.508013
C70	C	0.333597	-0.774568	1.008013
C71	C	-0.452881	-1.508932	0.521777
C72	C	0.047119	-1.008932	1.021777
C73	C	-0.457889	-1.608873	0.527560
C74	C	0.042111	-1.108873	1.027560
C75	C	-0.514767	-0.746426	0.593243
C76	C	-0.014767	-0.246426	1.093243
C77	C	-0.510082	-0.652521	0.587833
C78	C	-0.010082	-0.152521	1.087833
C79	C	-0.410380	-0.659136	0.472692
C80	C	0.089620	-0.159136	0.972692
C81	C	-0.415065	-0.753041	0.478102
C82	C	0.084935	-0.253041	0.978102
C83	C	-0.467260	-0.796682	0.538381
C84	C	0.032740	-0.296682	1.038381
C85	C	-0.471941	-0.890588	0.543795
C86	C	0.028059	-0.390588	1.043795
C87	C	-0.372244	-0.897201	0.428650
C88	C	0.127756	-0.397201	0.928650
C89	C	-0.367558	-0.803297	0.423239
C90	C	0.132442	-0.303297	0.923239
C91	C	-0.430711	-1.288050	0.273687
C92	C	0.069289	-0.788050	0.773687
C93	C	-0.426272	-1.293864	0.173748
C94	C	0.073728	-0.793864	0.673748
C95	C	-0.375532	-1.359464	1.036201
C96	C	0.124468	-0.859464	1.536201
C97	C	-0.379735	-1.354092	1.130107
C98	C	0.120265	-0.854092	1.630107
C99	C	-0.468610	-1.239007	1.123477
C100	C	0.031390	-0.739007	1.623477
C101	C	-0.464407	-1.244379	1.029571
C102	C	0.035593	-0.744379	1.529571
C103	C	-0.417866	-1.304609	0.985937
C104	C	0.082134	-0.804609	1.485937
C105	C	-0.413659	-1.309977	0.892029
C106	C	0.086341	-0.809977	1.392029
C107	C	-0.502538	-1.194897	0.885401
C108	C	-0.002538	-0.694897	1.385401
C109	C	-0.506741	-1.189524	0.979307
C110	C	-0.006741	-0.689524	1.479307
H111	H	-0.882371	-1.417396	0.462743
H112	H	-0.382371	-0.917396	0.962743
H113	H	-0.345264	-1.398762	1.171029
H114	H	0.154736	-0.898762	1.671029
H115	H	-0.514440	-0.926119	0.592879
H116	H	-0.014440	-0.426119	1.092879
H117	H	-1.015645	-1.359705	0.631959
H118	H	-0.515645	-0.859705	1.131959
C119	C	-0.923580	-1.322496	0.288406
C120	C	-0.423580	-0.822496	0.788406
C121	C	-0.866175	-1.331995	0.346150
C122	C	-0.366175	-0.831995	0.846150
H123	H	-0.903223	-1.312556	0.228884
H124	H	-0.403223	-0.812556	0.728884
H125	H	-0.955200	-1.375643	0.290013
H126	H	-0.455200	-0.875643	0.790013
H127	H	-0.951241	-1.272834	0.307155
H128	H	-0.451241	-0.772834	0.807155
H129	H	-0.838517	-1.381661	0.327405
H130	H	-0.338517	-0.881661	0.827405
H131	H	-0.834543	-1.278842	0.344539
H132	H	-0.334543	-0.778842	0.844539
C133	C	-0.329621	-1.418790	0.895191
C134	C	0.170379	-0.918790	1.395191
C135	C	-0.324371	-1.425660	0.988230
C136	C	0.175629	-0.925660	1.488230
H137	H	-0.298032	-1.459653	0.865578
H138	H	0.201968	-0.959653	1.365578
H139	H	-0.379349	-1.432801	0.880512
H140	H	0.120651	-0.932801	1.380512
H141	H	-0.315031	-1.359256	0.876384
H142	H	0.184969	-0.859256	1.376384
H143	H	-0.338967	-1.485192	1.007038
H144	H	0.161033	-0.985192	1.507038
H145	H	-0.274633	-1.411655	1.002916
H146	H	0.225367	-0.911655	1.502916
H147	H	-0.537007	-1.150227	0.844464
H148	H	-0.037007	-0.650227	1.344464
H149	H	-0.866948	-1.164407	0.406855
H150	H	-0.366948	-0.664407	0.906855
H151	H	-1.009624	-1.417840	0.462827
H152	H	-0.509624	-0.917840	0.962827
C153	C	-0.805263	-1.387956	0.638868
C154	C	-0.305263	-0.887956	1.138868
C155	C	-0.882436	-1.387888	0.635874
C156	C	-0.382436	-0.887888	1.135874
H157	H	-0.791949	-1.445114	0.658404
H158	H	-0.291949	-0.945114	1.158404
H159	H	-0.782927	-1.375758	0.580665
H160	H	-0.282927	-0.875758	1.080665
H161	H	-0.788579	-1.343049	0.679579
H162	H	-0.288579	-0.843049	1.179579
H163	H	-0.899119	-1.432791	0.595159
H164	H	-0.399119	-0.932791	1.095159
H165	H	-0.904780	-1.400097	0.694086
H166	H	-0.404780	-0.900097	1.194086
H167	H	-1.002407	-1.336553	0.371816
H168	H	-0.502407	-0.836553	0.871816
C169	C	-0.552644	-1.130183	1.120315
C170	C	-0.052644	-0.630183	1.620315
C171	C	-0.557894	-1.123318	1.027275
C172	C	-0.057894	-0.623318	1.527275
H173	H	-0.584220	-1.089303	1.149924
H174	H	-0.084220	-0.589303	1.649924
H175	H	-0.567244	-1.189703	1.139127
H176	H	-0.067244	-0.689703	1.639127
H177	H	-0.502906	-1.116184	1.134991
H178	H	-0.002906	-0.616184	1.634991
H179	H	-0.607631	-1.137323	1.012598
H180	H	-0.107631	-0.637323	1.512598
H181	H	-0.543298	-1.063784	1.008456
H182	H	-0.043298	-0.563784	1.508456
H183	H	-0.994004	-1.165271	0.405609
H184	H	-0.494004	-0.665271	0.905609
H185	H	-0.998314	-1.125200	0.521484
H186	H	-0.498314	-0.625200	1.021484
H187	H	-0.882645	-1.245055	0.655868
H188	H	-0.382645	-0.745055	1.155868
H189	H	-0.506507	-1.189977	1.159021
H190	H	-0.006507	-0.689977	1.659021
C191	C	-0.335150	-1.044086	0.385816
C192	C	0.164850	-0.544086	0.885816
C193	C	-0.320019	-0.952446	0.368339
C194	C	0.179981	-0.452446	0.868339
H195	H	-0.302910	-1.078189	0.348581
H196	H	0.197090	-0.578189	0.848581
H197	H	-0.327688	-1.055962	0.447093
H198	H	0.172312	-0.555962	0.947093
H199	H	-0.385113	-1.060257	0.373610
H200	H	0.114887	-0.560257	0.873610
H201	H	-0.270058	-0.936273	0.380551
H202	H	0.229942	-0.436273	0.880551
H203	H	-0.327475	-0.940564	0.307048
H204	H	0.172525	-0.440564	0.807048
H205	H	-0.871631	-1.125073	0.522641
H206	H	-0.371631	-0.625073	1.022641
H207	H	-1.009572	-1.239417	0.653251
H208	H	-0.509572	-0.739417	1.153251
H209	H	-0.548769	-0.611606	0.632506
H210	H	-0.048769	-0.111606	1.132506
C211	C	-0.612846	-0.730459	0.706515
C212	C	-0.112846	-0.230459	1.206515
C213	C	-0.572137	-0.794403	0.659499
C214	C	-0.072137	-0.294403	1.159499
H215	H	-0.648267	-0.760080	0.747414
H216	H	-0.148267	-0.260080	1.247414
H217	H	-0.580235	-0.691828	0.738751
H218	H	-0.080235	-0.191828	1.238751
H219	H	-0.637655	-0.696113	0.665263
H220	H	-0.137655	-0.196113	1.165263
H221	H	-0.547323	-0.828745	0.700751
H222	H	-0.047323	-0.328745	1.200751
H223	H	-0.604753	-0.833049	0.627262
H224	H	-0.104753	-0.333049	1.127262
C225	C	-0.358977	-0.518122	0.413225
C226	C	0.141023	-0.018122	0.913225
C227	C	-0.353040	-0.611156	0.406402
C228	C	0.146960	-0.111156	0.906402
H229	H	-0.323581	-0.488503	0.372294
H230	H	0.176419	0.011497	0.872294
H231	H	-0.407411	-0.503548	0.399283
H232	H	0.092589	-0.003548	0.899283
H233	H	-0.349952	-0.499219	0.472727
H234	H	0.150048	0.000781	0.972727
H235	H	-0.362070	-0.630061	0.346902
H236	H	0.137930	-0.130061	0.846902
H237	H	-0.304594	-0.625737	0.420338
H238	H	0.195406	-0.125737	0.920338
H239	H	-0.325065	-0.767751	0.374160
H240	H	0.174935	-0.267751	0.874160
H241	H	-0.375761	-1.359016	0.856502
H242	H	0.124239	-0.859016	1.356502
