data_functionalizedCrystal
_audit_creation_method	'MofGen! by Chris Wilmer'
_symmetry_space_group_name_H-M	'P1'
_symmetry_Int_Tables_number	1
_symmetry_cell_setting	triclinic
loop_
_symmetry_equiv_pos_as_xyz
  x,y,z
_cell_length_a	14.908993
_cell_length_b	14.908178
_cell_length_c	12.759393
_cell_angle_alpha	93.331280
_cell_angle_beta	86.727935
_cell_angle_gamma	96.795214
loop_
_atom_site_label
_atom_site_type_symbol
_atom_site_fract_x
_atom_site_fract_y
_atom_site_fract_z
Zn1	Zn	1.363035	-0.280420	0.483711
Zn2	Zn	1.354196	-0.431828	0.298435
Zn3	Zn	1.211660	-0.289207	0.317610
Zn4	Zn	1.202915	-0.440498	0.483637
O5	O	1.282952	-0.360488	0.395848
O6	O	1.488525	-0.293199	0.451140
O7	O	1.335250	-0.412958	0.153957
O8	O	1.239100	-0.161361	0.347700
O9	O	1.482031	-0.404437	0.315018
O10	O	1.350314	-0.154906	0.469734
O11	O	1.230529	-0.308175	0.168044
O12	O	1.083838	-0.316582	0.347627
O13	O	1.224194	-0.419215	0.630669
O14	O	1.077412	-0.427735	0.469607
O15	O	1.341834	-0.301606	0.630723
O16	O	1.326769	-0.559658	0.314946
O17	O	1.215623	-0.566028	0.451013
C18	C	1.047783	-0.374054	0.410690
C19	C	0.947175	-0.379879	0.417063
C20	C	1.269313	-0.595689	0.380912
C21	C	1.263561	-0.696304	0.374552
C22	C	0.764772	-0.274907	0.302221
C23	C	0.670242	-0.280378	0.308205
C24	C	0.663584	-0.396294	0.435011
C25	C	0.758114	-0.390823	0.429026
C26	C	0.808704	-0.330127	0.362630
C27	C	0.903236	-0.324653	0.356652
C28	C	0.896576	-0.440573	0.483451
C29	C	0.802047	-0.446043	0.489436
C30	C	1.368472	-0.878502	0.489826
C31	C	1.363071	-0.973039	0.483853
C32	C	1.247353	-0.979915	0.356642
C33	C	1.252754	-0.885378	0.362614
C34	C	1.313317	-0.834675	0.429207
C35	C	1.318722	-0.740137	0.435173
C36	C	1.203000	-0.747015	0.307968
C37	C	1.197599	-0.841551	0.301996
C38	C	1.519039	-0.346871	0.380949
C39	C	1.619645	-0.341068	0.374600
C40	C	1.283024	-0.360398	0.669883
C41	C	1.283055	-0.360359	0.786660
C42	C	1.296669	-0.124368	0.410864
C43	C	1.302514	-0.023748	0.417263
C44	C	1.282935	-0.360511	0.122880
C45	C	1.283094	-0.360284	0.006109
C46	C	1.344315	-0.299111	0.841553
C47	C	1.344333	-0.299071	0.951278
C48	C	1.221828	-0.421535	0.951209
C49	C	1.221807	-0.421570	0.841486
H50	H	0.944426	-0.275226	0.302595
H51	H	0.932356	-0.485532	0.532647
C52	C	0.622423	-0.220388	0.242793
C53	C	0.571509	-0.165578	0.309491
C54	C	0.527434	-0.110317	0.249264
H55	H	0.665990	-0.183378	0.202377
H56	H	0.583479	-0.257097	0.197120
H57	H	0.610450	-0.128872	0.355146
H58	H	0.527927	-0.202563	0.349909
H59	H	0.488489	-0.147026	0.203591
H60	H	0.571007	-0.073313	0.208850
H61	H	0.492877	-0.073128	0.294509
C62	C	1.155437	-0.487955	1.010921
C63	C	1.168583	-0.474834	1.118760
C64	C	1.107449	-0.536014	1.173795
H65	H	1.095348	-0.478278	0.997741
H66	H	1.165153	-0.548041	0.988293
H67	H	1.158860	-0.414763	1.141380
H68	H	1.228660	-0.484519	1.131972
H69	H	1.117165	-0.596100	1.151167
H70	H	1.047363	-0.526332	1.160606
H71	H	1.116365	-0.527126	1.246968
C72	C	1.142959	-0.699557	0.242207
C73	C	1.052073	-0.727803	0.269165
C74	C	0.996743	-0.684114	0.208596
H75	H	1.154726	-0.635985	0.255236
H76	H	1.155303	-0.714347	0.169797
H77	H	1.039734	-0.713007	0.341558
H78	H	1.040278	-0.791368	0.256132
H79	H	1.009087	-0.698904	0.136186
H80	H	1.008518	-0.620544	0.221629
H81	H	0.935071	-0.703279	0.226871
H82	H	0.760843	-0.495463	0.543491
C83	C	0.819543	-0.208989	0.230033
C84	C	0.760834	-0.161813	0.178390
C85	C	0.811255	-0.101092	0.111869
H86	H	0.858729	-0.167371	0.270347
H87	H	0.854376	-0.241426	0.179608
H88	H	0.726017	-0.129378	0.228807
H89	H	0.721648	-0.203407	0.138056
H90	H	0.846088	-0.133529	0.061444
H91	H	0.850439	-0.059480	0.152191
H92	H	0.771428	-0.069082	0.076814
C93	C	0.608490	-0.462103	0.507064
C94	C	0.516304	-0.455059	0.499384
C95	C	0.465525	-0.515661	0.565753
H96	H	0.620345	-0.522058	0.486805
H97	H	0.624714	-0.448022	0.577563
H98	H	0.500086	-0.469146	0.428900
H99	H	0.504421	-0.395118	0.519652
H100	H	0.481749	-0.501580	0.636253
H101	H	0.477387	-0.575612	0.545489
H102	H	0.402971	-0.510884	0.560559
C103	C	1.181657	-1.034850	0.284183
C104	C	1.202713	-1.010756	0.180456
C105	C	1.142205	-1.061332	0.113680
H106	H	1.186277	-1.097447	0.289170
H107	H	1.121704	-1.022890	0.304253
H108	H	1.262652	-1.022723	0.160392
H109	H	1.198087	-0.948167	0.175436
H110	H	1.082252	-1.049372	0.133750
H111	H	1.146830	-1.123927	0.118676
H112	H	1.156478	-1.044985	0.043295
H113	H	1.394215	-0.249195	0.995967
C114	C	1.384493	-0.685246	0.507580
C115	C	1.431618	-0.743869	0.559413
C116	C	1.492202	-0.693340	0.626138
H117	H	1.426143	-0.646071	0.467390
H118	H	1.351966	-0.650389	0.557889
H119	H	1.464144	-0.778711	0.509110
H120	H	1.389992	-0.783045	0.599622
H121	H	1.459675	-0.658483	0.676447
H122	H	1.533847	-0.654167	0.585940
H123	H	1.524178	-0.733108	0.661322
H124	H	1.171915	-0.471446	0.796792
H125	H	1.148288	-0.882847	0.247781
C126	C	1.422906	-1.020513	0.549849
C127	C	1.404473	-0.998587	0.656480
C128	C	1.459583	-1.042296	0.717311
H129	H	1.411071	-1.084088	0.536895
H130	H	1.484635	-1.001446	0.531745
H131	H	1.342758	-1.017660	0.674577
H132	H	1.416312	-0.935021	0.669466
H133	H	1.521312	-1.023228	0.699207
H134	H	1.447744	-1.105868	0.704348
H135	H	1.447090	-1.027419	0.789665
C136	C	1.410845	-0.232547	0.782221
C137	C	1.464480	-0.178884	0.853787
C138	C	1.525769	-0.117544	0.799174
H139	H	1.448351	-0.264808	0.734727
H140	H	1.378526	-0.195065	0.744133
H141	H	1.496797	-0.216361	0.891857
H142	H	1.426999	-0.146603	0.901282
H143	H	1.493449	-0.080061	0.761086
H144	H	1.563268	-0.149812	0.751682
H145	H	1.562161	-0.081121	0.847723
H146	H	1.417791	-0.837219	0.544040
