data_functionalizedCrystal
_audit_creation_method	'MofGen! by Chris Wilmer'
_symmetry_space_group_name_H-M	'P1'
_symmetry_Int_Tables_number	1
_symmetry_cell_setting	triclinic
loop_
_symmetry_equiv_pos_as_xyz
  x,y,z
_cell_length_a	10.654546
_cell_length_b	10.654551
_cell_length_c	9.730223
_cell_angle_alpha	90.001575
_cell_angle_beta	89.995791
_cell_angle_gamma	95.515578
loop_
_atom_site_label
_atom_site_type_symbol
_atom_site_fract_x
_atom_site_fract_y
_atom_site_fract_z
O1	O	1.667842	-0.176377	-0.114311
O2	O	1.302363	-0.193188	-0.114306
O3	O	1.493505	-0.002043	-0.114309
O4	O	1.476700	-0.367522	-0.114307
O5	O	1.493493	-0.002038	0.114271
O6	O	1.302351	-0.193183	0.114274
O7	O	1.667830	-0.176372	0.114269
Zn8	Zn	1.485088	-0.184777	0.150564
Zn9	Zn	1.485105	-0.184784	-0.150600
O10	O	1.476688	-0.367517	0.114272
C11	C	1.255559	-0.191952	-0.000015
C12	C	1.116116	-0.188262	-0.000014
C13	C	1.050628	-0.186519	-0.124619
C14	C	0.919607	-0.183041	-0.124630
C15	C	0.919574	-0.183046	0.124580
C16	C	1.050592	-0.186532	0.124590
C17	C	1.050646	-0.186510	-0.268499
C18	C	0.919625	-0.183033	-0.268510
C19	C	1.492265	0.044757	-0.000022
C20	C	1.488572	0.184200	-0.000031
C21	C	1.714634	-0.177608	-0.000024
C22	C	1.854078	-0.181298	-0.000035
C23	C	1.477928	-0.414317	-0.000017
C24	C	1.481621	-0.553760	-0.000017
C25	C	1.486847	0.249709	-0.124628
C26	C	1.483367	0.380730	-0.124622
C27	C	1.483343	0.380721	0.124589
C28	C	1.486814	0.249702	0.124581
C29	C	1.486866	0.249716	-0.268508
C30	C	1.483386	0.380736	-0.268501
N31	N	1.485086	-0.184771	0.356100
N32	N	1.485117	-0.184779	-0.356137
C33	C	1.569753	-0.100168	0.428025
C34	C	1.569766	-0.100169	0.571907
C35	C	1.400441	-0.269386	0.571929
C36	C	1.400423	-0.269378	0.428048
H37	H	1.102370	-0.097070	-0.313134
H38	H	1.400080	0.203433	-0.323756
H39	H	1.638689	-0.031274	0.369448
O40	O	1.652135	-0.017942	0.641561
C41	C	1.820032	0.149946	0.626347
C42	C	1.726835	0.056866	0.547294
H43	H	1.880433	0.210471	0.550166
H44	H	1.883330	0.095200	0.693654
H45	H	1.765255	0.213139	0.693760
H46	H	1.781509	-0.006349	0.479806
H47	H	1.663537	0.111691	0.480074
H48	H	0.894813	-0.094352	-0.323753
H49	H	1.331512	-0.338273	0.630523
H50	H	1.331471	-0.338273	0.369484
H51	H	1.488212	0.196368	0.226039
O52	O	1.374068	0.415806	-0.321861
C53	C	1.172132	0.347484	-0.421944
C54	C	1.295886	0.307592	-0.361588
H55	H	1.108877	0.260014	-0.454053
H56	H	1.194035	0.410368	-0.515370
H57	H	1.121832	0.401613	-0.340989
H58	H	1.346248	0.253413	-0.442441
H59	H	1.273900	0.244769	-0.268132
H60	H	1.103905	-0.187965	0.226055
H61	H	0.866209	-0.181638	0.226028
H62	H	1.075468	-0.275190	-0.323741
O63	O	1.481419	0.444267	0.245668
C64	C	1.371761	0.470998	0.458702
C65	C	1.373769	0.398962	0.321613
H66	H	1.284750	0.434378	0.520156
H67	H	1.368898	0.575900	0.437393
H68	H	1.460217	0.455988	0.520091
H69	H	1.285332	0.413868	0.260155
H70	H	1.376698	0.294086	0.343019
H71	H	0.867916	-0.272474	-0.313168
H72	H	1.578468	0.220150	-0.313150
H73	H	1.570180	0.427027	-0.323746
