data_functionalizedCrystal
_audit_creation_method	'MofGen! by Chris Wilmer'
_symmetry_space_group_name_H-M	'P1'
_symmetry_Int_Tables_number	1
_symmetry_cell_setting	triclinic
loop_
_symmetry_equiv_pos_as_xyz
  x,y,z
_cell_length_a	21.395364
_cell_length_b	18.215405
_cell_length_c	21.395355
_cell_angle_alpha	90.016841
_cell_angle_beta	90.024516
_cell_angle_gamma	90.018496
loop_
_atom_site_label
_atom_site_type_symbol
_atom_site_fract_x
_atom_site_fract_y
_atom_site_fract_z
Zn1	Zn	0.957894	-0.293153	0.354268
Zn2	Zn	1.291227	0.040181	0.687601
Zn3	Zn	1.624560	0.373514	1.020935
Zn4	Zn	0.957811	-0.416201	0.249494
Zn5	Zn	1.291144	-0.082868	0.582827
Zn6	Zn	1.624477	0.250466	0.916160
Zn7	Zn	0.853109	-0.293144	0.249505
Zn8	Zn	1.186442	0.040190	0.582838
Zn9	Zn	1.519775	0.373523	0.916172
Zn10	Zn	0.853093	-0.416173	0.354234
Zn11	Zn	1.186426	-0.082840	0.687567
Zn12	Zn	1.519759	0.250494	1.020901
O13	O	0.905476	-0.354668	0.301875
O14	O	1.238810	-0.021334	0.635208
O15	O	1.572143	0.311999	0.968542
O16	O	1.045561	-0.309491	0.340379
O17	O	1.378894	0.023843	0.673712
O18	O	1.712227	0.357176	1.007046
O19	O	0.943894	-0.399885	0.161817
O20	O	1.277227	-0.066552	0.495151
O21	O	1.610561	0.266782	0.828484
O22	O	0.867050	-0.190161	0.263421
O23	O	1.200384	0.143173	0.596754
O24	O	1.533717	0.476506	0.930088
O25	O	1.045500	-0.399894	0.263402
O26	O	1.378833	-0.066560	0.596735
O27	O	1.712166	0.266773	0.930069
O28	O	0.944035	-0.190167	0.340390
O29	O	1.277369	0.143166	0.673723
O30	O	1.610702	0.476499	1.007057
O31	O	0.866970	-0.309476	0.161825
O32	O	1.200303	0.023858	0.495159
O33	O	1.533636	0.357191	0.828492
O34	O	0.765429	-0.309448	0.263388
O35	O	1.098762	0.023885	0.596721
O36	O	1.432095	0.357218	0.930054
O37	O	0.867023	-0.399846	0.441916
O38	O	1.200356	-0.066513	0.775250
O39	O	1.533689	0.266821	1.108583
O40	O	0.765417	-0.399837	0.340332
O41	O	1.098750	-0.066504	0.673665
O42	O	1.432083	0.266829	1.006998
O43	O	0.944020	-0.309464	0.441941
O44	O	1.277353	0.023870	0.775275
O45	O	1.610686	0.357203	1.108608
O46	O	0.943878	-0.519181	0.263369
O47	O	1.277212	-0.185848	0.596702
O48	O	1.610545	0.147485	0.930035
O49	O	0.866942	-0.519161	0.340321
O50	O	1.200275	-0.185828	0.673654
O51	O	1.533609	0.147506	1.006988
C52	C	0.742689	-0.354639	0.301858
C53	C	1.076022	-0.021306	0.635191
C54	C	1.409356	0.312027	0.968524
C55	C	0.673048	-0.354645	0.301865
C56	C	1.006381	-0.021312	0.635198
C57	C	1.339714	0.312022	0.968532
C58	C	0.171283	-0.307706	0.342031
C59	C	0.504616	0.025628	0.675365
C60	C	0.837949	0.358961	1.008698
C61	C	0.236718	-0.307700	0.342031
C62	C	0.570051	0.025633	0.675365
C63	C	0.903385	0.358966	1.008698
C64	C	0.269409	-0.354690	0.301889
C65	C	0.602743	-0.021357	0.635223
C66	C	0.936076	0.311977	0.968556
C67	C	0.236660	-0.401702	0.261756
C68	C	0.569993	-0.068369	0.595089
C69	C	0.903326	0.264965	0.928422
C70	C	0.171226	-0.401711	0.261761
C71	C	0.504559	-0.068378	0.595095
C72	C	0.837892	0.264955	0.928428
C73	C	0.373046	-0.360389	0.245422
C74	C	0.706380	-0.027055	0.578755
C75	C	1.039713	0.306278	0.912089
C76	C	0.438479	-0.360374	0.245415
C77	C	0.771813	-0.027041	0.578749
C78	C	1.105146	0.306292	0.912082
C79	C	0.471230	-0.354666	0.301872
C80	C	0.804563	-0.021332	0.635205
C81	C	1.137897	0.312001	0.968539
C82	C	0.438540	-0.348956	0.358337
C83	C	0.771873	-0.015623	0.691670
C84	C	1.105206	0.317711	1.025004
C85	C	0.373105	-0.348965	0.358343
C86	C	0.706439	-0.015632	0.691676
C87	C	1.039772	0.317701	1.025009
C88	C	0.340362	-0.354686	0.301879
C89	C	0.673695	-0.021352	0.635212
C90	C	1.007028	0.311981	0.968545
C91	C	0.574924	-0.307654	0.342006
C92	C	0.908257	0.025679	0.675339
C93	C	1.241591	0.359012	1.008672
C94	C	0.640361	-0.307654	0.342007
C95	C	0.973694	0.025679	0.675340
C96	C	1.307027	0.359013	1.008673
C97	C	0.640301	-0.401652	0.261726
C98	C	0.973635	-0.068319	0.595059
C99	C	1.306968	0.265015	0.928392
C100	C	0.574866	-0.401656	0.261730
C101	C	0.908199	-0.068323	0.595064
C102	C	1.241533	0.265011	0.928397
C103	C	0.542181	-0.354653	0.301870
C104	C	0.875515	-0.021320	0.635203
C105	C	1.208848	0.312013	0.968536
C106	C	0.905416	-0.545874	0.301854
C107	C	1.238750	-0.212541	0.635187
C108	C	1.572083	0.120793	0.968520
C109	C	0.905448	-0.627673	0.301865
C110	C	1.238781	-0.294339	0.635199
C111	C	1.572115	0.038994	0.968532
C112	C	0.945553	-0.815809	0.341997
C113	C	1.278887	-0.482476	0.675331
C114	C	1.612220	-0.149142	1.008664
C115	C	0.945576	-0.892668	0.342009
C116	C	1.278909	-0.559334	0.675342
C117	C	1.612243	-0.226001	1.008676
C118	C	0.865477	-0.892774	0.261792
C119	C	1.198810	-0.559441	0.595125
C120	C	1.532144	-0.226107	0.928458
C121	C	0.865452	-0.815917	0.261784
C122	C	1.198785	-0.482583	0.595117
C123	C	1.532118	-0.149250	0.928450
C124	C	0.905493	-0.777436	0.301885
C125	C	1.238827	-0.444103	0.635219
C126	C	1.572160	-0.110770	0.968552
C127	C	0.905541	-0.931152	0.301905
C128	C	1.238875	-0.597819	0.635239
C129	C	1.572208	-0.264486	0.968572
C130	C	0.905566	-1.014486	0.301918
C131	C	1.238899	-0.681153	0.635251
C132	C	1.572233	-0.347819	0.968584
C133	C	0.905468	-0.694097	0.301874
C134	C	1.238802	-0.360764	0.635207
C135	C	1.572135	-0.027431	0.968541
C136	C	1.068900	-0.354696	0.301893
C137	C	1.402233	-0.021363	0.635226
C138	C	1.735566	0.311970	0.968560
C139	C	1.138541	-0.354709	0.301901
C140	C	1.471874	-0.021375	0.635234
C141	C	1.805208	0.311958	0.968567
C142	C	0.905528	-0.354653	0.465298
C143	C	1.238862	-0.021319	0.798632
C144	C	1.572195	0.312014	1.131965
C145	C	0.905551	-0.354646	0.534940
C146	C	1.238884	-0.021313	0.868273
C147	C	1.572217	0.312020	1.201606
C148	C	0.905554	-0.162715	0.301911
C149	C	1.238887	0.170619	0.635244
C150	C	1.572220	0.503952	0.968577
C151	C	0.905587	-0.080916	0.301926
C152	C	1.238920	0.252418	0.635259
C153	C	1.572253	0.585751	0.968592
C154	C	0.905461	-0.354629	0.139088
C155	C	1.238794	-0.021296	0.472421
C156	C	1.572127	0.312037	0.805754
C157	C	0.905560	-0.354428	0.069447
C158	C	1.238893	-0.021095	0.402780
C159	C	1.572227	0.312238	0.736113
C160	C	0.945641	-0.307582	0.567667
C161	C	1.278975	0.025751	0.901000
C162	C	1.612308	0.359084	1.234334
C163	C	0.945640	-0.307551	0.633102
C164	C	1.278974	0.025783	0.966436
C165	C	1.612307	0.359116	1.299769
C166	C	0.905556	-0.354596	0.665808
C167	C	1.238889	-0.021263	0.999141
C168	C	1.572222	0.312070	1.332475
C169	C	0.865457	-0.401664	0.633073
C170	C	1.198790	-0.068330	0.966406
C171	C	1.532124	0.265003	1.299740
C172	C	0.865455	-0.401689	0.567639
C173	C	1.198788	-0.068355	0.900972
C174	C	1.532121	0.264978	1.234306
C175	C	0.900587	-0.420860	0.769475
C176	C	1.233921	-0.087526	1.102809
C177	C	1.567254	0.245807	1.436142
C178	C	0.900594	-0.420836	0.834908
C179	C	1.233928	-0.087503	1.168242
C180	C	1.567261	0.245831	1.501575
C181	C	0.905559	-0.354518	0.867629
C182	C	1.238893	-0.021185	1.200962
C183	C	1.572226	0.312148	1.534296
C184	C	0.910531	-0.288223	0.834909
C185	C	1.243864	0.045111	1.168242
C186	C	1.577197	0.378444	1.501575
C187	C	0.910528	-0.288248	0.769474
C188	C	1.243862	0.045086	1.102808
C189	C	1.577195	0.378419	1.436141
C190	C	0.905553	-0.354574	0.736761
C191	C	1.238887	-0.021241	1.070094
C192	C	1.572220	0.312093	1.403427
C193	C	0.945651	-0.307416	0.971309
C194	C	1.278985	0.025917	1.304642
C195	C	1.612318	0.359251	1.637975
C196	C	0.945646	-0.307383	1.036745
C197	C	1.278979	0.025950	1.370079
C198	C	1.612313	0.359284	1.703412
C199	C	0.865466	-0.401503	1.036715
C200	C	1.198799	-0.068169	1.370048
C201	C	1.532133	0.265164	1.703382
C202	C	0.865468	-0.401529	0.971279
C203	C	1.198801	-0.068196	1.304613
C204	C	1.532135	0.265138	1.637946
C205	C	0.905564	-0.354487	0.938580
C206	C	1.238897	-0.021153	1.271914
C207	C	1.572231	0.312180	1.605247
H208	H	0.346492	-0.344318	0.404318
H209	H	0.679825	-0.010985	0.737652
H210	H	1.013158	0.322349	1.070985
H211	H	0.832825	-0.439858	0.944633
H212	H	1.166159	-0.106525	1.277966
H213	H	1.499492	0.226808	1.611299
H214	H	0.832827	-0.784671	0.229120
H215	H	1.166160	-0.451338	0.562453
H216	H	1.499494	-0.118005	0.895786
F217	F	0.895317	-0.491450	0.734658
F218	F	1.228650	-0.158117	1.067991
F219	F	1.561984	0.175216	1.401325
H220	H	0.832878	-0.924114	0.229141
H221	H	1.166211	-0.590781	0.562475
H222	H	1.499544	-0.257448	0.895808
F223	F	0.988313	-0.257512	0.532870
F224	F	1.321646	0.075821	0.866203
F225	F	1.654979	0.409154	1.199537
F226	F	0.271453	-0.451714	0.219036
F227	F	0.604786	-0.118381	0.552369
F228	F	0.938120	0.214952	0.885703
H229	H	0.978195	-0.923908	0.374674
H230	H	1.311529	-0.590574	0.708007
H231	H	1.644862	-0.257241	1.041340
F232	F	0.822794	-0.451731	0.667882
F233	F	1.156127	-0.118397	1.001215
F234	F	1.489461	0.214936	1.334548
H235	H	0.978286	-0.269221	0.659754
H236	H	1.311619	0.064112	0.993087
H237	H	1.644952	0.397445	1.326421
F238	F	0.915816	-0.217693	0.734653
F239	F	1.249149	0.115640	1.067987
F240	F	1.582483	0.448973	1.401320
F241	F	0.915818	-0.217637	0.869727
F242	F	1.249151	0.115696	1.203060
F243	F	1.582484	0.449030	1.536394
H244	H	0.896550	-0.474818	0.861544
H245	H	1.229883	-0.141485	1.194878
H246	H	1.563217	0.191849	1.528211
H247	H	0.978296	-0.269107	0.944684
H248	H	1.311630	0.064226	1.278017
H249	H	1.644963	0.397559	1.611350
H250	H	0.832805	-0.440013	0.540993
H251	H	1.166138	-0.106680	0.874326
H252	H	1.499472	0.226654	1.207659
F253	F	0.271571	-0.257670	0.384745
F254	F	0.604904	0.075663	0.718078
F255	F	0.938238	0.408996	1.051411
H256	H	0.978292	-0.269054	1.063391
H257	H	1.311625	0.064280	1.396724
H258	H	1.644958	0.397613	1.730058
F259	F	0.136379	-0.451738	0.219045
F260	F	0.469712	-0.118405	0.552378
F261	F	0.803045	0.214928	0.885712
H262	H	0.978157	-0.784480	0.374652
H263	H	1.311490	-0.451147	0.707985
H264	H	1.644823	-0.117813	1.041318
H265	H	0.667018	-0.269381	0.374690
H266	H	1.000351	0.063953	0.708024
H267	H	1.333685	0.397286	1.041357
F268	F	0.136501	-0.257686	0.384755
F269	F	0.469834	0.075648	0.718089
F270	F	0.803167	0.408981	1.051422
H271	H	0.832822	-0.439801	1.063343
H272	H	1.166155	-0.106467	1.396677
H273	H	1.499488	0.226866	1.730010
H274	H	0.465204	-0.344303	0.404309
H275	H	0.798537	-0.010970	0.737642
H276	H	1.131870	0.322363	1.070976
H277	H	0.666918	-0.439918	0.229046
H278	H	1.000251	-0.106584	0.562379
H279	H	1.333585	0.226749	0.895713
F280	F	0.540019	-0.451674	0.219009
F281	F	0.873352	-0.118341	0.552343
F282	F	1.206685	0.214992	0.885676
F283	F	0.540136	-0.257633	0.384726
F284	F	0.873470	0.075701	0.718060
F285	F	1.206803	0.409034	1.051393
H286	H	0.346386	-0.365041	0.199445
H287	H	0.679720	-0.031707	0.532779
H288	H	1.013053	0.301626	0.866112
F289	F	0.473265	-0.366439	0.185320
F290	F	0.806598	-0.033106	0.518654
F291	F	1.139932	0.300228	0.851987
