data_functionalizedCrystal
_audit_creation_method	'MofGen! by Chris Wilmer'
_symmetry_space_group_name_H-M	'P1'
_symmetry_Int_Tables_number	1
_symmetry_cell_setting	triclinic
loop_
_symmetry_equiv_pos_as_xyz
  x,y,z
_cell_length_a	17.699083
_cell_length_b	16.992695
_cell_length_c	16.776229
_cell_angle_alpha	90.006741
_cell_angle_beta	90.001114
_cell_angle_gamma	86.975619
loop_
_atom_site_label
_atom_site_type_symbol
_atom_site_fract_x
_atom_site_fract_y
_atom_site_fract_z
O1	O	1.010251	0.099146	0.066177
O2	O	1.510251	0.599146	0.566177
O3	O	0.790676	0.112045	0.066203
O4	O	1.290676	0.612045	0.566203
O5	O	0.899583	-0.008546	0.066184
O6	O	1.399583	0.491454	0.566184
O7	O	0.901344	0.219736	0.066196
O8	O	1.401344	0.719736	0.566196
O9	O	0.899568	-0.008553	-0.066393
O10	O	1.399568	0.491447	0.433607
O11	O	0.790660	0.112037	-0.066374
O12	O	1.290660	0.612037	0.433626
O13	O	1.010235	0.099138	-0.066400
O14	O	1.510235	0.599138	0.433600
Zn15	Zn	0.900445	0.105587	-0.087436
Zn16	Zn	1.400445	0.605587	0.412564
Zn17	Zn	0.900466	0.105596	0.087239
Zn18	Zn	1.400466	0.605596	0.587239
O19	O	0.901328	0.219729	-0.066381
O20	O	1.401328	0.719729	0.433619
C21	C	0.762442	0.111579	-0.000082
C22	C	1.262442	0.611579	0.499918
C23	C	0.678338	0.110192	-0.000072
C24	C	1.178338	0.610192	0.499928
C25	C	0.634124	0.180976	-0.000069
C26	C	1.134124	0.680976	0.499931
C27	C	0.555099	0.179669	-0.000079
C28	C	1.055099	0.679669	0.499921
C29	C	0.520290	0.107576	-0.000087
C30	C	1.020290	0.607576	0.499913
C31	C	0.564510	0.036787	-0.000093
C32	C	1.064510	0.536787	0.499907
C33	C	0.643533	0.038095	-0.000089
C34	C	1.143533	0.538095	0.499911
C35	C	0.245818	0.031509	-0.000113
C36	C	0.745818	0.531509	0.499887
C37	C	0.166789	0.030206	-0.000116
C38	C	0.666789	0.530206	0.499884
C39	C	0.157384	0.173082	-0.000104
C40	C	0.657384	0.673082	0.499896
C41	C	0.236408	0.174391	-0.000099
C42	C	0.736408	0.674391	0.499901
C43	C	0.280621	0.103602	-0.000109
C44	C	0.780621	0.603602	0.499891
C45	C	0.366308	0.105020	-0.000099
C46	C	0.866308	0.605020	0.499901
C47	C	0.434604	0.106157	-0.000091
C48	C	0.934604	0.606157	0.499909
C49	C	0.897311	-0.037758	-0.000104
C50	C	1.397311	0.462242	0.499896
C51	C	0.890554	-0.124789	-0.000103
C52	C	1.390554	0.375211	0.499897
C53	C	0.955751	-0.175154	-0.000112
C54	C	1.455751	0.324846	0.499888
C55	C	0.949398	-0.256928	-0.000104
C56	C	1.449398	0.243072	0.499896
C57	C	0.877846	-0.288336	-0.000092
C58	C	1.377846	0.211664	0.499908
C59	C	0.812643	-0.237965	-0.000081
C60	C	1.312643	0.262035	0.499919
C61	C	0.818998	-0.156192	-0.000084
C62	C	1.318998	0.343808	0.499916
C63	C	0.851510	-0.531884	-0.000078
C64	C	1.351510	-0.031884	0.499922
C65	C	0.845160	-0.613663	-0.000078
C66	C	1.345160	-0.113663	0.499922
C67	C	0.981915	-0.632621	-0.000099
C68	C	1.481915	-0.132621	0.499901
C69	C	0.988263	-0.550845	-0.000106
C70	C	1.488263	-0.050845	0.499894
C71	C	0.923061	-0.500481	-0.000091
C72	C	1.423061	-0.000481	0.499909
N73	N	0.871350	-0.371923	-0.000086
N74	N	1.371350	0.128077	0.499914
N75	N	0.929558	-0.416897	-0.000091
N76	N	1.429558	0.083103	0.499909
C77	C	1.038469	0.099604	-0.000113
C78	C	1.538469	0.599604	0.499887
C79	C	1.122574	0.100991	-0.000118
C80	C	1.622574	0.600991	0.499882
C81	C	0.903601	0.248941	-0.000091
C82	C	1.403601	0.748941	0.499909
C83	C	0.910358	0.335972	-0.000087
C84	C	1.410358	0.835972	0.499913
N85	N	0.900437	0.105579	-0.206647
N86	N	1.400437	0.605579	0.293353
C87	C	0.948678	0.052204	-0.248373
C88	C	1.448678	0.552204	0.251627
C89	C	0.948682	0.052203	-0.331825
C90	C	1.448682	0.552203	0.168175
C91	C	0.900448	0.105582	-0.373550
C92	C	1.400448	0.605582	0.126450
C93	C	0.852202	0.158961	-0.331819
C94	C	1.352202	0.658961	0.168181
C95	C	0.852194	0.158957	-0.248368
C96	C	1.352194	0.658957	0.251632
C97	C	0.852230	0.158976	-0.668366
C98	C	1.352230	0.658976	-0.168366
C99	C	0.852243	0.158977	-0.751822
C100	C	1.352243	0.658977	-0.251822
C101	C	0.948718	0.052222	-0.751823
C102	C	1.448718	0.552222	-0.251823
C103	C	0.948710	0.052219	-0.668372
C104	C	1.448710	0.552219	-0.168372
C105	C	0.900461	0.105594	-0.626648
C106	C	1.400461	0.605594	-0.126648
C107	C	0.900456	0.105593	-0.536160
C108	C	1.400456	0.605593	-0.036160
C109	C	0.900456	0.105588	-0.464037
C110	C	1.400456	0.605588	0.035963
N111	N	0.900481	0.105597	0.206450
N112	N	1.400481	0.605597	0.706450
H113	H	0.121377	0.230722	-0.000100
H114	H	0.621377	0.730722	0.499900
H115	H	0.988002	0.008759	-0.785804
H116	H	1.488002	0.508759	-0.285804
H117	H	0.812945	0.202437	-0.634401
H118	H	1.312945	0.702437	-0.134401
H119	H	0.281807	-0.026132	-0.000122
H120	H	0.781807	0.473868	0.499878
H121	H	0.786891	-0.639232	-0.000082
H122	H	1.286891	-0.139232	0.499918
Br123	Br	0.119548	-0.067641	-0.000125
Br124	Br	0.619548	0.432359	0.499875
H125	H	0.812962	0.202447	-0.785794
H126	H	1.312962	0.702447	-0.285794
Br127	Br	0.786734	0.231400	-0.388442
Br128	Br	1.286734	0.731400	0.111558
Br129	Br	0.495097	0.275737	-0.000072
Br130	Br	0.995097	0.775737	0.499928
Br131	Br	0.703539	-0.057973	-0.000101
Br132	Br	1.203539	0.442027	0.499899
H133	H	0.754384	-0.263544	-0.000067
H134	H	1.254384	0.236456	0.499933
H135	H	0.812910	0.202420	-0.214396
H136	H	1.312910	0.702420	0.285604
H137	H	0.798417	-0.490887	-0.000066
H138	H	1.298417	0.009113	0.499934
H139	H	0.264745	0.233096	-0.000089
H140	H	0.764745	0.733096	0.499911
Br141	Br	1.014150	-0.020239	-0.388456
Br142	Br	1.514150	0.479761	0.111544
Br143	Br	0.681357	0.278821	-0.000049
Br144	Br	1.181357	0.778821	0.499951
Br145	Br	0.517270	-0.061055	-0.000113
Br146	Br	1.017270	0.438945	0.499887
H147	H	1.002489	-0.297933	-0.000112
H148	H	1.502489	0.202067	0.499888
Br149	Br	1.052862	-0.132537	-0.000139
Br150	Br	1.552862	0.367463	0.499861
Br151	Br	1.085373	-0.508226	-0.000096
Br152	Br	1.585373	-0.008226	0.499904
Br153	Br	1.070400	-0.700975	-0.000119
Br154	Br	1.570400	-0.200975	0.499881
Br155	Br	1.014148	-0.020238	-0.191755
Br156	Br	1.514148	0.479762	0.308245
H157	H	0.765906	-0.115186	-0.000077
H158	H	1.265906	0.384814	0.499923
Br159	Br	1.014176	-0.020222	-0.611748
Br160	Br	1.514176	0.479778	-0.111748
