data_functionalizedCrystal
_audit_creation_method	'MofGen! by Chris Wilmer'
_symmetry_space_group_name_H-M	'P1'
_symmetry_Int_Tables_number	1
_symmetry_cell_setting	triclinic
loop_
_symmetry_equiv_pos_as_xyz
  x,y,z
_cell_length_a	21.295420
_cell_length_b	21.295417
_cell_length_c	21.395355
_cell_angle_alpha	89.979596
_cell_angle_beta	89.975403
_cell_angle_gamma	90.025484
loop_
_atom_site_label
_atom_site_type_symbol
_atom_site_fract_x
_atom_site_fract_y
_atom_site_fract_z
Zn1	Zn	0.962359	-0.250753	-0.354254
Zn2	Zn	0.962263	-0.356004	-0.249473
Zn3	Zn	0.857082	-0.250745	-0.249491
Zn4	Zn	0.857053	-0.355980	-0.354213
O5	O	0.909689	-0.303371	-0.301858
O6	O	1.050435	-0.264728	-0.340364
O7	O	0.948282	-0.342048	-0.161797
O8	O	0.871100	-0.162657	-0.263412
O9	O	1.050365	-0.342056	-0.263382
O10	O	0.948446	-0.162663	-0.340381
O11	O	0.871006	-0.264715	-0.161810
O12	O	0.768989	-0.264692	-0.263372
O13	O	0.871050	-0.342015	-0.441896
O14	O	0.768967	-0.342008	-0.340312
O15	O	0.948418	-0.264705	-0.441926
O16	O	0.948254	-0.444091	-0.263343
O17	O	0.870957	-0.444073	-0.340295
C18	C	0.746138	-0.303347	-0.301840
C19	C	0.676169	-0.303352	-0.301847
C20	C	0.176748	-0.263201	-0.342017
C21	C	0.242490	-0.263196	-0.342017
C22	C	0.275330	-0.303390	-0.301872
C23	C	0.242422	-0.343603	-0.261736
C24	C	0.176681	-0.343611	-0.261742
N25	N	0.378520	-0.308125	-0.247010
N26	N	0.440971	-0.308114	-0.247007
C27	C	0.473405	-0.303369	-0.301854
N28	N	0.441027	-0.298624	-0.356706
N29	N	0.378570	-0.298632	-0.356709
C30	C	0.346615	-0.303386	-0.301862
C31	C	0.577590	-0.263157	-0.341990
C32	C	0.643334	-0.263157	-0.341991
C33	C	0.643265	-0.343560	-0.261705
C34	C	0.577522	-0.343563	-0.261710
C35	C	0.544689	-0.303359	-0.301852
C36	C	0.909609	-0.466922	-0.301826
C37	C	0.909632	-0.536891	-0.301833
C38	C	0.949883	-0.569703	-0.341940
C39	C	0.949906	-0.635445	-0.341955
C40	C	0.909683	-0.668373	-0.301853
C41	C	0.869424	-0.635553	-0.261744
C42	C	0.869399	-0.569811	-0.261734
N43	N	0.904924	-0.771625	-0.247019
N44	N	0.904952	-0.834076	-0.247031
C45	C	0.909757	-0.866448	-0.301881
N46	N	0.914545	-0.834008	-0.356722
N47	N	0.914520	-0.771551	-0.356710
C48	C	0.909706	-0.739658	-0.301860
C49	C	0.950034	-0.970546	-0.342008
C50	C	0.950052	-1.036289	-0.342024
C51	C	0.869574	-1.036395	-0.261807
C52	C	0.869553	-0.970653	-0.261796
C53	C	0.909786	-0.937732	-0.301896
C54	C	1.073879	-0.303395	-0.301876
C55	C	1.143847	-0.303406	-0.301884
C56	C	0.909741	-0.303358	-0.465281
C57	C	0.909764	-0.303353	-0.534922
C58	C	0.909787	-0.139181	-0.301903
C59	C	0.909828	-0.069212	-0.301923
C60	C	0.950047	-0.263096	-0.567652
C61	C	0.950047	-0.263068	-0.633087
C62	C	0.909769	-0.303310	-0.665791
C63	C	0.869477	-0.343570	-0.633053
C64	C	0.869475	-0.343591	-0.567619
C65	C	0.904770	-0.359989	-0.769454
C66	C	0.904777	-0.359969	-0.834887
C67	C	0.909772	-0.303243	-0.867612
C68	C	0.914774	-0.246536	-0.834895
C69	C	0.914772	-0.246557	-0.769460
C70	C	0.909766	-0.303291	-0.736743
C71	C	0.950057	-0.262953	-0.971294
C72	C	0.950052	-0.262925	-1.036730
C73	C	0.869486	-0.343432	-1.036695
C74	C	0.869488	-0.343455	-0.971259
C75	C	0.909777	-0.303216	-0.938563
C76	C	0.909673	-0.303338	-0.139070
C77	C	0.909773	-0.303166	-0.069429
H78	H	0.550856	-0.230420	-0.374676
F79	F	0.992751	-0.670374	-0.384641
F80	F	0.826614	-0.670597	-0.219067
F81	F	0.678349	-0.220368	-0.384714
H82	H	0.836621	-0.543095	-0.229074
F83	F	0.826712	-0.935730	-0.219109
H84	H	0.918843	-0.200344	-0.861537
F85	F	0.920092	-0.186207	-0.734643
H86	H	0.982855	-0.230139	-1.063378
H87	H	0.982860	-0.230185	-0.944671
H88	H	0.550735	-0.376300	-0.229026
H89	H	0.982853	-0.230329	-0.541035
F90	F	0.992913	-0.220209	-0.667928
F91	F	0.992851	-0.935507	-0.384687
H92	H	0.836685	-0.376191	-1.063321
H93	H	0.836688	-0.376240	-0.944611
F94	F	0.899459	-0.420322	-0.869701
H95	H	0.982829	-1.063004	-0.374687
H96	H	0.900534	-0.406171	-0.742816
H97	H	0.836681	-0.376332	-0.659684
H98	H	0.836668	-0.376372	-0.540971
F99	F	0.826764	-1.071435	-0.219129
H100	H	0.150019	-0.230466	-0.374706
H101	H	0.269283	-0.230454	-0.374697
H102	H	0.269164	-0.376330	-0.229052
H103	H	0.149894	-0.376351	-0.229060
F104	F	0.992701	-0.534670	-0.384621
F105	F	0.678211	-0.386341	-0.218984
