data_functionalizedCrystal
_audit_creation_method	'MofGen! by Chris Wilmer'
_symmetry_space_group_name_H-M	'P1'
_symmetry_Int_Tables_number	1
_symmetry_cell_setting	triclinic
loop_
_symmetry_equiv_pos_as_xyz
  x,y,z
_cell_length_a	13.034570
_cell_length_b	13.033286
_cell_length_c	13.032268
_cell_angle_alpha	105.163409
_cell_angle_beta	105.145796
_cell_angle_gamma	74.858830
loop_
_atom_site_label
_atom_site_type_symbol
_atom_site_fract_x
_atom_site_fract_y
_atom_site_fract_z
Zn1	Zn	-0.681731	1.624261	-0.470832
Zn2	Zn	-0.841336	1.664694	-0.311246
Zn3	Zn	-0.641273	1.464654	-0.311276
Zn4	Zn	-0.841294	1.464604	-0.511395
O5	O	-0.751408	1.554554	-0.401187
O6	O	-0.719853	1.780160	-0.432674
O7	O	-0.797883	1.655101	-0.160712
O8	O	-0.496136	1.468926	-0.315478
O9	O	-0.837113	1.809865	-0.315427
O10	O	-0.525860	1.586189	-0.432703
O11	O	-0.650898	1.508132	-0.160734
O12	O	-0.650857	1.314113	-0.354811
O13	O	-0.837041	1.468841	-0.656552
O14	O	-0.797811	1.314076	-0.501837
O15	O	-0.719812	1.586140	-0.626750
O16	O	-0.991834	1.655052	-0.354759
O17	O	-0.991803	1.508047	-0.501808
C18	C	-0.719940	1.275063	-0.432729
C19	C	-0.706506	1.155495	-0.446252
C20	C	-0.758423	1.116886	-0.394156
C21	C	-0.744540	0.993308	-0.408131
C22	C	-1.030849	1.585958	-0.432702
C23	C	-1.150410	1.599487	-0.446209
C24	C	-1.312658	1.561547	-0.408126
C25	C	-1.189086	1.547563	-0.394171
C26	C	-0.470883	1.523053	-0.369569
C27	C	-0.351340	1.509629	-0.356096
C28	C	-0.782935	1.522975	-0.681775
C29	C	-0.796370	1.509518	-0.801345
C30	C	-0.783001	1.835136	-0.369522
C31	C	-0.796463	1.954703	-0.356028
C32	C	-0.744356	1.561556	-0.839908
C33	C	-0.758240	1.547649	-0.963489
C34	C	-0.719934	1.586063	-0.121675
C35	C	-0.706220	1.599694	-0.002048
H36	H	-0.813152	1.175321	-0.339213
H37	H	-0.689543	1.616399	-0.781432
C38	C	-1.229252	1.673528	-0.520352
N39	N	-1.288636	1.729292	-0.576197
C40	C	-0.632170	1.673798	-0.923059
N41	N	-0.576398	1.729614	-0.863564
H42	H	-1.371026	1.616353	-0.462997
C43	C	-0.670596	0.914373	-0.482362
N44	N	-0.614899	0.854917	-0.538267
C45	C	-1.272492	1.435592	-0.281959
N46	N	-1.213106	1.379824	-0.226119
C47	C	-1.110242	1.473522	-0.320031
N48	N	-1.050856	1.417754	-0.264191
H49	H	-0.813046	1.492790	-1.021962
C50	C	-0.870412	1.435415	-0.880339
N51	N	-0.926183	1.379598	-0.939836
H52	H	-0.651785	1.097061	-0.501203
C53	C	-0.870402	1.033636	-0.281792
N54	N	-0.926091	1.093089	-0.225877
