data_functionalizedCrystal
_audit_creation_method	'MofGen! by Chris Wilmer'
_symmetry_space_group_name_H-M	'P1'
_symmetry_Int_Tables_number	1
_symmetry_cell_setting	triclinic
loop_
_symmetry_equiv_pos_as_xyz
  x,y,z
_cell_length_a	13.897448
_cell_length_b	12.759387
_cell_length_c	12.759401
_cell_angle_alpha	90.043577
_cell_angle_beta	89.983106
_cell_angle_gamma	89.937072
loop_
_atom_site_label
_atom_site_type_symbol
_atom_site_fract_x
_atom_site_fract_y
_atom_site_fract_z
Zn1	Zn	-0.383697	-0.594071	-1.606456
Zn2	Zn	-0.545110	-0.418386	-1.606275
Zn3	Zn	-0.383828	-0.418399	-1.430692
Zn4	Zn	-0.544949	-0.594016	-1.430737
O5	O	-0.464396	-0.506218	-1.518540
O6	O	-0.405121	-0.570783	-1.753453
O7	O	-0.523837	-0.271366	-1.582889
O8	O	-0.248829	-0.441731	-1.454064
O9	O	-0.523710	-0.441708	-1.753320
O10	O	-0.248733	-0.570797	-1.583197
O11	O	-0.405344	-0.271376	-1.453889
O12	O	-0.405189	-0.441678	-1.283677
O13	O	-0.523437	-0.741045	-1.454141
O14	O	-0.523564	-0.570703	-1.283710
O15	O	-0.404965	-0.741085	-1.583241
O16	O	-0.680070	-0.441655	-1.582933
O17	O	-0.679952	-0.570690	-1.453966
C18	C	-0.715010	-0.506188	-1.518463
C19	C	-0.822224	-0.506210	-1.518527
C20	C	-0.464374	-0.506186	-1.245573
C21	C	-0.464388	-0.506198	-1.128796
C22	C	-0.464169	-0.780252	-1.518716
C23	C	-0.464072	-0.897029	-1.518791
C24	C	-1.018519	-0.506276	-1.518637
C25	C	-0.909287	-0.506242	-1.518573
C26	C	-0.212803	-0.506272	-1.518646
C27	C	-0.105589	-0.506294	-1.518691
C28	C	-0.464553	-0.233250	-1.518425
C29	C	-0.464378	-0.116474	-1.518554
C30	C	-0.402905	0.048064	-1.451083
C31	C	-0.403060	-0.061660	-1.450962
C32	C	-0.525551	-0.061559	-1.586265
C33	C	-0.525400	0.048163	-1.586380
C34	C	-0.369621	-0.211479	-1.326642
C35	C	-0.308439	-0.266390	-1.258943
C36	C	-0.214379	-0.231015	-1.242145
C37	C	-0.181482	-0.140730	-1.293060
C38	C	-0.242659	-0.085824	-1.360766
C39	C	-0.336732	-0.121198	-1.377545
C40	C	-0.558830	0.197984	-1.710701
C41	C	-0.620002	0.252892	-1.778414
C42	C	-0.714064	0.217518	-1.795223
C43	C	-0.746957	0.127230	-1.744327
C44	C	-0.685785	0.072322	-1.676614
C45	C	-0.591725	0.107703	-1.659803
C46	C	-0.526050	-0.438911	-0.964136
C47	C	-0.526038	-0.438895	-1.073860
C48	C	-0.402739	-0.573512	-1.074003
C49	C	-0.402747	-0.573521	-0.964280
C50	C	-0.560416	-0.314911	-1.223698
C51	C	-0.622073	-0.247609	-1.278487
C52	C	-0.716185	-0.231301	-1.242841
C53	C	-0.748660	-0.282311	-1.152406
C54	C	-0.687008	-0.349621	-1.097622
C55	C	-0.592882	-0.365909	-1.133267
C56	C	-0.368379	-0.697507	-0.814441
C57	C	-0.306731	-0.764823	-0.759655
C58	C	-0.212617	-0.781142	-0.795300
C59	C	-0.180146	-0.730150	-0.885738
C60	C	-0.241794	-0.662834	-0.940524
C61	C	-0.335907	-0.646514	-0.904872
C62	C	-0.464413	-0.506240	-0.792573
C63	C	-0.464408	-0.506222	-0.909350
H64	H	-0.352968	0.092686	-1.396048
C65	C	-0.897101	0.155603	-1.832973
C66	C	-0.850353	0.088341	-1.762797
H67	H	-0.960935	0.131597	-1.844374
H68	H	-0.863237	0.156441	-1.897637
H69	H	-0.898849	0.224387	-1.804489
H70	H	-0.848600	0.019558	-1.791285
H71	H	-0.884227	0.087492	-1.698121
H72	H	-0.445016	-0.684227	-0.785411
C73	C	-0.717001	-0.514299	-1.012802
C74	C	-0.722692	-0.405689	-0.998220
H75	H	-0.739037	-0.548906	-0.951433
H76	H	-0.652129	-0.533629	-1.026184
H77	H	-0.755993	-0.534019	-1.070671
H78	H	-0.683694	-0.385967	-0.940356
H79	H	-0.787575	-0.386350	-0.984826
C80	C	-0.111028	0.032875	-1.387687
C81	C	-0.206512	0.013417	-1.416724
H82	H	-0.088717	0.094151	-1.422224
H83	H	-0.072005	-0.025121	-1.407153
H84	H	-0.107612	0.042809	-1.313990
H85	H	-0.209928	0.003476	-1.490421
H86	H	-0.245546	0.071427	-1.397265
H87	H	-0.483779	-0.328173	-1.252723
C88	C	-0.735583	-0.115991	-1.389961
C89	C	-0.783958	-0.157316	-1.303060
H90	H	-0.777419	-0.070308	-1.427134
H91	H	-0.715837	-0.171513	-1.434717
H92	H	-0.680692	-0.078109	-1.366961
H93	H	-0.838845	-0.195205	-1.326061
H94	H	-0.803718	-0.101785	-1.258296
C95	C	-0.347986	-0.633280	-1.242263
C96	C	-0.334973	-0.647495	-1.134386
H97	H	-0.306154	-0.678962	-1.279537
H98	H	-0.333822	-0.562725	-1.260185
H99	H	-0.412808	-0.648531	-1.260229
H100	H	-0.270152	-0.632237	-1.116419
H101	H	-0.349131	-0.718067	-1.116457
C102	C	-0.031335	-0.169105	-1.204415
C103	C	-0.078083	-0.101850	-1.274598
H104	H	0.032497	-0.145093	-1.193012
H105	H	-0.029587	-0.237884	-1.232886
H106	H	-0.065205	-0.169934	-1.139743
H107	H	-0.044217	-0.101027	-1.339273
H108	H	-0.079826	-0.033053	-1.246130
C109	C	-0.793396	0.380458	-1.832863
C110	C	-0.781311	0.277866	-1.869658
H111	H	-0.834918	0.417706	-1.878811
H112	H	-0.732675	0.414445	-1.830154
H113	H	-0.820808	0.378797	-1.764675
H114	H	-0.753892	0.279527	-1.937844
H115	H	-0.842043	0.243871	-1.872379
C116	C	-0.507261	-0.128433	-1.352860
C117	C	-0.586374	-0.191529	-1.377883
H118	H	-0.485231	-0.093810	-1.414223
H119	H	-0.457081	-0.170850	-1.325338
H120	H	-0.525825	-0.077836	-1.302059
H121	H	-0.567808	-0.242132	-1.428678
H122	H	-0.636564	-0.149109	-1.405419
H123	H	-0.593208	0.326401	-1.819868
C124	C	-0.901441	-0.360018	-1.111770
C125	C	-0.852120	-0.264394	-1.113236
H126	H	-0.965315	-0.348951	-1.087593
H127	H	-0.869375	-0.407391	-1.066199
H128	H	-0.903094	-0.388551	-1.180533
H129	H	-0.850460	-0.235864	-1.044471
H130	H	-0.884194	-0.217004	-1.158808
H131	H	-0.164565	-0.275732	-1.187022
C132	C	-0.126976	-0.543690	-1.014928
C133	C	-0.206104	-0.606771	-1.039932
H134	H	-0.104950	-0.509076	-1.076297
H135	H	-0.076799	-0.586116	-0.987414
H136	H	-0.145523	-0.493086	-0.964126
H137	H	-0.187556	-0.657381	-1.090728
H138	H	-0.256292	-0.564342	-1.067461
C139	C	-0.079167	-0.790174	-1.026264
C140	C	-0.076691	-0.748086	-0.924920
H141	H	-0.015297	-0.801256	-1.050446
H142	H	-0.111224	-0.742787	-1.071830
H143	H	-0.112649	-0.855033	-1.025241
H144	H	-0.043216	-0.683222	-0.925945
H145	H	-0.044620	-0.795475	-0.879342
C146	C	-0.184673	-0.955869	-0.732446
C147	C	-0.144853	-0.855146	-0.735084
H148	H	-0.142839	-1.001551	-0.695270
H149	H	-0.192812	-0.980924	-0.801994
H150	H	-0.245370	-0.953443	-0.698267
H151	H	-0.084158	-0.857571	-0.769270
H152	H	-0.136703	-0.830085	-0.665523
C153	C	-0.287066	-0.451121	-1.231668
C154	C	-0.344600	-0.365626	-1.202974
H155	H	-0.309391	-0.512386	-1.197121
H156	H	-0.222296	-0.437914	-1.211979
H157	H	-0.290506	-0.461056	-1.305363
H158	H	-0.341155	-0.355687	-1.129279
H159	H	-0.409386	-0.378836	-1.222657
C160	C	-0.470424	-0.351757	-1.387068
C161	C	-0.473019	-0.250362	-1.345098
H162	H	-0.534259	-0.375760	-1.398468
H163	H	-0.438699	-0.397368	-1.339464
H164	H	-0.436566	-0.350900	-1.451748
H165	H	-0.506872	-0.251219	-1.280414
H166	H	-0.504758	-0.204738	-1.392705
H167	H	-0.333179	-0.806348	-0.686019
C168	C	-0.817421	-0.046383	-1.649711
C169	C	-0.721941	-0.026924	-1.620661
H170	H	-0.839741	-0.107649	-1.615164
H171	H	-0.820830	-0.056326	-1.723398
H172	H	-0.856450	0.011626	-1.630256
H173	H	-0.682912	-0.084929	-1.640124
H174	H	-0.718526	-0.016988	-1.546959
C175	C	-0.538189	-0.185167	-1.727557
C176	C	-0.592954	-0.121808	-1.660565
H177	H	-0.579802	-0.222355	-1.773432
H178	H	-0.501791	-0.233568	-1.687216
H179	H	-0.495844	-0.142542	-1.767469
H180	H	-0.635294	-0.164434	-1.620647
H181	H	-0.629368	-0.073401	-1.700910
C182	C	-0.655808	-0.424073	-0.840708
C183	C	-0.593821	-0.364930	-0.903756
H184	H	-0.697650	-0.378396	-0.803441
H185	H	-0.619099	-0.464152	-0.792377
H186	H	-0.692725	-0.469770	-0.883554
H187	H	-0.556899	-0.319239	-0.860909
H188	H	-0.630534	-0.324833	-0.952093
H189	H	-0.482248	0.226816	-1.696990
