data_functionalizedCrystal
_audit_creation_method	'MofGen! by Chris Wilmer'
_symmetry_space_group_name_H-M	'P1'
_symmetry_Int_Tables_number	1
_symmetry_cell_setting	triclinic
loop_
_symmetry_equiv_pos_as_xyz
  x,y,z
_cell_length_a	10.967926
_cell_length_b	15.995350
_cell_length_c	9.482900
_cell_angle_alpha	99.336743
_cell_angle_beta	92.549900
_cell_angle_gamma	84.114908
loop_
_atom_site_label
_atom_site_type_symbol
_atom_site_fract_x
_atom_site_fract_y
_atom_site_fract_z
O1	O	1.610206	0.147803	0.282524
O2	O	1.260993	0.149639	0.195032
O3	O	1.445145	0.027148	0.241171
O4	O	1.426054	0.270294	0.236385
O5	O	1.407740	0.052133	0.473591
O6	O	1.223587	0.174625	0.427452
O7	O	1.572801	0.172789	0.514944
Cu8	Cu	1.394779	0.175988	0.492420
Cu9	Cu	1.439015	0.146440	0.217556
O10	O	1.388648	0.295280	0.468805
C11	C	1.197603	0.160110	0.300046
C12	C	1.064450	0.154077	0.266685
C13	C	0.985708	0.164330	0.372213
C14	C	0.848087	0.158094	0.337736
C15	C	1.425654	0.008419	0.357181
C16	C	1.423289	-0.084610	0.356580
C17	C	1.414790	-0.422636	0.354455
C18	C	1.283724	-0.379574	0.321076
C19	C	1.286006	-0.282750	0.322193
C20	C	1.419006	-0.254937	0.355508
C21	C	1.462334	-0.279619	0.504437
C22	C	1.459021	-0.376351	0.503722
C23	C	1.504267	-0.405033	0.240095
C24	C	1.504519	-0.308277	0.238333
C25	C	1.421394	-0.160161	0.356110
C26	C	1.412404	-0.517412	0.353864
C27	C	1.636191	0.162317	0.409927
C28	C	1.769346	0.168349	0.443278
C29	C	1.408140	0.314008	0.352792
C30	C	1.410507	0.407036	0.353384
N31	N	1.363674	0.196770	0.685747
N32	N	1.470129	0.125651	0.024231
C33	C	1.429832	0.152565	0.774522
C34	C	1.403961	0.169863	0.935458
H35	H	0.813621	0.144697	0.221858
Cl36	Cl	1.231137	-0.257238	0.155636
H37	H	1.505622	0.101909	0.731383
Cl38	Cl	1.656256	-0.280961	0.263461
Cl39	Cl	1.286927	0.248067	1.002043
Cl40	Cl	0.822549	0.189020	0.622189
Cl41	Cl	1.011241	0.133389	0.087785
Cl42	Cl	1.179478	-0.397179	0.446528
Cl43	Cl	1.183288	-0.226506	0.449527
Cl44	Cl	1.226434	-0.426644	0.153850
H45	H	1.601108	-0.433708	0.263426
H46	H	1.395883	-0.385539	0.591119
H47	H	1.554341	-0.404783	0.533864
Cl48	Cl	1.611965	-0.252028	0.549856
Cl49	Cl	1.368425	-0.221694	0.639556
H50	H	1.477578	-0.437798	0.128757
Cl51	Cl	1.587414	0.047628	0.957713
Cl52	Cl	1.456499	-0.284400	0.068576
Cl53	Cl	1.246645	0.274971	0.752340
H54	H	1.020181	0.177720	0.488083
