data_functionalizedCrystal
_audit_creation_method	'MofGen! by Chris Wilmer'
_symmetry_space_group_name_H-M	'P1'
_symmetry_Int_Tables_number	1
_symmetry_cell_setting	triclinic
loop_
_symmetry_equiv_pos_as_xyz
  x,y,z
_cell_length_a	25.639242
_cell_length_b	12.827892
_cell_length_c	12.827885
_cell_angle_alpha	90.029786
_cell_angle_beta	89.969977
_cell_angle_gamma	89.989080
loop_
_atom_site_label
_atom_site_type_symbol
_atom_site_fract_x
_atom_site_fract_y
_atom_site_fract_z
Zn1	Zn	0.799350	0.416107	-0.591148
Zn2	Zn	1.299350	0.916107	-0.091148
Zn3	Zn	0.799297	0.590884	-0.416409
Zn4	Zn	1.299297	1.090884	0.083591
Zn5	Zn	0.711915	0.416144	-0.416389
Zn6	Zn	1.211915	0.916144	0.083611
Zn7	Zn	0.711907	0.590793	-0.591076
Zn8	Zn	1.211907	1.090793	-0.091076
O9	O	0.755617	0.503482	-0.503756
O10	O	1.255617	1.003482	-0.003756
O11	O	0.872508	0.439314	-0.568007
O12	O	1.372508	0.939314	-0.068007
O13	O	0.787687	0.567759	-0.270170
O14	O	1.287687	1.067759	0.229830
O15	O	0.723538	0.269903	-0.439594
O16	O	1.223538	0.769903	0.060406
O17	O	0.872470	0.567722	-0.439627
O18	O	1.372470	1.067722	0.060373
O19	O	0.787777	0.269876	-0.567988
O20	O	1.287777	0.769876	-0.067988
O21	O	0.723487	0.439378	-0.270156
O22	O	1.223487	0.939378	0.229844
O23	O	0.638748	0.439289	-0.439523
O24	O	1.138748	0.939289	0.060477
O25	O	0.723526	0.567567	-0.737322
O26	O	1.223526	1.067567	-0.237322
O27	O	0.638743	0.567603	-0.567865
O28	O	1.138743	1.067603	-0.067865
O29	O	0.787770	0.439226	-0.737375
O30	O	1.287770	0.939226	-0.237375
O31	O	0.787680	0.737108	-0.439556
O32	O	1.287680	1.237108	0.060444
O33	O	0.723474	0.737041	-0.567884
O34	O	1.223474	1.237041	-0.067884
C35	C	0.619775	0.503441	-0.503685
C36	C	1.119775	1.003441	-0.003685
C37	C	0.561661	0.503449	-0.503679
C38	C	1.061661	1.003449	-0.003679
C39	C	0.755585	0.774992	-0.503737
C40	C	1.255585	1.274992	-0.003737
C41	C	0.755619	0.891145	-0.503764
C42	C	1.255619	1.391145	-0.003764
C43	C	0.755653	0.503382	-0.776326
C44	C	1.255653	1.003382	-0.276326
C45	C	0.755668	0.503339	-0.892479
C46	C	1.255668	1.003339	-0.392479
C47	C	0.201304	0.570407	-0.570520
C48	C	0.701304	1.070407	-0.070520
C49	C	0.146699	0.570413	-0.570536
C50	C	0.646699	1.070413	-0.070536
O51	O	0.118468	0.627292	-0.627306
O52	O	0.618468	1.127292	-0.127306
N53	N	0.119378	0.503511	-0.503824
N54	N	0.619378	1.003511	-0.003824
C55	C	0.146664	0.436590	-0.437098
C56	C	0.646664	0.936590	0.062902
O57	O	0.118412	0.379685	-0.380356
O58	O	0.618412	0.879685	0.119644
C59	C	0.201268	0.436580	-0.437088
C60	C	0.701268	0.936580	0.062912
C61	C	0.228586	0.503494	-0.503797
C62	C	0.728586	1.003494	-0.003797
C63	C	0.228622	0.637315	-0.637224
C64	C	0.728622	1.137315	-0.137224
C65	C	0.283223	0.637309	-0.637206
C66	C	0.783223	1.137309	-0.137206
C67	C	0.310505	0.570396	-0.570483
C68	C	0.810505	1.070396	-0.070483
C69	C	0.283186	0.503488	-0.503779
C70	C	0.783186	1.003488	-0.003779
C71	C	0.228553	0.369655	-0.370368
C72	C	0.728553	0.869655	0.129632
C73	C	0.283160	0.369649	-0.370364
C74	C	0.783160	0.869649	0.129636
C75	C	0.310478	0.436563	-0.437073
C76	C	0.810478	0.936563	0.062927
C77	C	0.365069	0.436570	-0.437038
C78	C	0.865069	0.936570	0.062962
N79	N	0.392390	0.503472	-0.503750
N80	N	0.892390	1.003472	-0.003750
C81	C	0.365108	0.570385	-0.570473
C82	C	0.865108	1.070385	-0.070473
C83	C	0.031994	0.436617	-0.437126
C84	C	0.531994	0.936617	0.062874
C85	C	-0.022609	0.436632	-0.437131
C86	C	0.477391	0.936632	0.062869
C87	C	-0.022570	0.570454	-0.570570
C88	C	0.477430	1.070454	-0.070570
C89	C	0.032034	0.570443	-0.570560
C90	C	0.532034	1.070443	-0.070560
C91	C	0.059315	0.503519	-0.503839
C92	C	0.559315	1.003519	-0.003839
C93	C	0.479773	0.570370	-0.570429
C94	C	0.979773	1.070370	-0.070429
C95	C	0.534379	0.570362	-0.570402
C96	C	1.034379	1.070362	-0.070402
C97	C	0.534335	0.436537	-0.436967
C98	C	1.034335	0.936537	0.063033
C99	C	0.479734	0.436548	-0.436989
C100	C	0.979734	0.936548	0.063011
C101	C	0.452455	0.503468	-0.503729
C102	C	0.952455	1.003468	-0.003729
O103	O	0.393335	0.379717	-0.380300
O104	O	0.893335	0.879717	0.119700
O105	O	0.393368	0.627272	-0.627215
O106	O	0.893368	1.127272	-0.127215
C107	C	0.891990	0.503524	-0.503827
C108	C	1.391990	1.003524	-0.003827
C109	C	0.950104	0.503542	-0.503858
C110	C	1.450104	1.003542	-0.003858
C111	C	0.755664	0.230912	-0.503797
C112	C	1.255664	0.730912	-0.003797
C113	C	0.755685	0.114759	-0.503815
C114	C	1.255685	0.614759	-0.003815
C115	C	0.787427	0.942929	-0.440334
C116	C	1.287427	1.442929	0.059666
C117	C	0.787463	1.062979	-0.440361
C118	C	1.287463	1.562979	0.059639
C119	C	0.787462	0.439819	-0.944290
C120	C	1.287462	0.939819	-0.444290
C121	C	0.787478	0.439774	-1.064341
C122	C	1.287478	0.939774	-0.564341
C123	C	0.755612	0.503507	-0.232246
C124	C	1.255612	1.003507	0.267754
C125	C	0.755698	0.503255	-0.116093
C126	C	1.255698	1.003255	0.383907
H127	H	0.556619	0.624855	-0.624726
H128	H	1.056619	1.124855	-0.124726
Cl129	Cl	0.317558	0.721428	-0.721081
Cl130	Cl	0.817558	1.221428	-0.221081
Cl131	Cl	0.194334	0.721447	-0.721116
Cl132	Cl	0.694334	1.221447	-0.221116
H133	H	0.728415	0.935688	-0.558092
H134	H	1.228415	1.435688	-0.058092
H135	H	0.054203	0.382120	-0.382786
H136	H	0.554203	0.882120	0.117214
Cl137	Cl	0.829457	0.355880	-0.875565
Cl138	Cl	1.329457	0.855880	-0.375565
Cl139	Cl	0.713672	0.587229	-1.047314
Cl140	Cl	1.213672	1.087229	-0.547314
H141	H	0.457569	0.624860	-0.624777
H142	H	0.957569	1.124860	-0.124777
Cl143	Cl	0.066371	0.654564	-0.654428
Cl144	Cl	0.566371	1.154564	-0.154428
Cl145	Cl	0.829508	0.355814	-1.133126
Cl146	Cl	1.329508	0.855814	-0.633126
Cl147	Cl	0.713657	0.587247	-0.961205
Cl148	Cl	1.213657	1.087247	-0.461205
H149	H	-0.044847	0.382155	-0.382799
H150	H	0.455153	0.882155	0.117201
Cl151	Cl	-0.056877	0.654564	-0.654462
Cl152	Cl	0.443123	1.154564	-0.154462
H153	H	0.305369	0.315144	-0.316036
H154	H	0.805369	0.815144	0.183964
Cl155	Cl	0.194223	0.285521	-0.286507
Cl156	Cl	0.694223	0.785521	0.213493
Cl157	Cl	0.829436	0.874166	-0.356464
Cl158	Cl	1.329436	1.374166	0.143536
Cl159	Cl	0.445390	0.352443	-0.353109
Cl160	Cl	0.945390	0.852443	0.146891
H161	H	0.556558	0.382061	-0.382639
H162	H	1.056558	0.882061	0.117361
H163	H	0.814694	1.107511	-0.386053
H164	H	1.314694	1.607511	0.113947
H165	H	0.728448	1.070234	-0.558118
H166	H	1.228448	1.570234	-0.058118
