data_functionalizedCrystal
_audit_creation_method	'MofGen! by Chris Wilmer'
_symmetry_space_group_name_H-M	'P1'
_symmetry_Int_Tables_number	1
_symmetry_cell_setting	triclinic
loop_
_symmetry_equiv_pos_as_xyz
  x,y,z
_cell_length_a	15.995350
_cell_length_b	15.995350
_cell_length_c	13.596369
_cell_angle_alpha	89.996243
_cell_angle_beta	89.998321
_cell_angle_gamma	83.492375
loop_
_atom_site_label
_atom_site_type_symbol
_atom_site_fract_x
_atom_site_fract_y
_atom_site_fract_z
O1	O	1.110986	0.107928	-0.081703
O2	O	1.610986	0.607928	0.418297
O3	O	0.867211	0.121256	-0.081723
O4	O	1.367211	0.621256	0.418277
O5	O	0.995763	-0.007296	-0.081712
O6	O	1.495763	0.492704	0.418288
O7	O	0.982435	0.236479	-0.081714
O8	O	1.482435	0.736479	0.418286
O9	O	0.995750	-0.007303	0.081871
O10	O	1.495750	0.492697	0.581871
O11	O	0.867198	0.121249	0.081860
O12	O	1.367198	0.621249	0.581860
O13	O	1.110974	0.107921	0.081880
O14	O	1.610974	0.607921	0.581880
Zn15	Zn	0.989084	0.114584	0.107842
Zn16	Zn	1.489084	0.614584	0.607842
Zn17	Zn	0.989101	0.114593	-0.107685
Zn18	Zn	1.489101	0.614593	0.392315
O19	O	0.982422	0.236473	0.081869
O20	O	1.482422	0.736473	0.581869
C21	C	0.836010	0.120701	0.000066
C22	C	1.336010	0.620701	0.500066
C23	C	0.743060	0.119049	0.000058
C24	C	1.243060	0.619049	0.500058
C25	C	0.405312	0.113117	0.000079
C26	C	0.905312	0.613117	0.500079
C27	C	0.452746	0.021565	0.000445
C28	C	0.952746	0.521565	0.500445
C29	C	0.549436	0.023217	0.000069
C30	C	1.049436	0.523217	0.500069
C31	C	0.572873	0.116060	0.000069
C32	C	1.072873	0.616060	0.500069
C33	C	0.531793	0.161220	-0.093341
C34	C	1.031793	0.661220	0.406659
C35	C	0.435157	0.158920	-0.093412
C36	C	0.935157	0.658920	0.406588
C37	C	0.434804	0.160804	0.092612
C38	C	0.934804	0.660804	0.592612
C39	C	0.531749	0.160782	0.093840
C40	C	1.031749	0.660782	0.593840
C41	C	0.667570	0.117727	0.000061
C42	C	1.167570	0.617727	0.500061
C43	C	0.310614	0.111452	0.000081
C44	C	0.810614	0.611452	0.500081
C45	C	0.995205	-0.038494	0.000078
C46	C	1.495205	0.461506	0.500078
C47	C	0.993553	-0.131444	0.000072
C48	C	1.493553	0.368556	0.500072
C49	C	0.987621	-0.469192	0.000075
C50	C	1.487621	0.030808	0.500075
C51	C	0.896069	-0.421758	-0.000299
C52	C	1.396069	0.078242	0.499701
C53	C	0.897721	-0.325068	0.000070
C54	C	1.397721	0.174932	0.500070
C55	C	0.990564	-0.301631	0.000073
C56	C	1.490564	0.198369	0.500073
C57	C	1.035713	-0.342713	0.093489
C58	C	1.535713	0.157287	0.593489
C59	C	1.033413	-0.439349	0.093567
C60	C	1.533413	0.060651	0.593567
C61	C	1.035319	-0.439699	-0.092457
C62	C	1.535319	0.060301	0.407543
C63	C	1.035297	-0.342753	-0.093692
C64	C	1.535297	0.157247	0.406308
C65	C	0.992231	-0.206934	0.000075
C66	C	1.492231	0.293066	0.500075
C67	C	0.985956	-0.563890	0.000080
C68	C	1.485956	-0.063890	0.500080
C69	C	1.142175	0.108476	0.000089
C70	C	1.642175	0.608476	0.500089
C71	C	1.235125	0.110127	0.000090
C72	C	1.735125	0.610127	0.500090
C73	C	0.982980	0.267671	0.000077
C74	C	1.482980	0.767671	0.500077
C75	C	0.984631	0.360621	0.000076
C76	C	1.484631	0.860621	0.500076
N77	N	0.989079	0.114577	0.254934
N78	N	1.489079	0.614577	0.754934
N79	N	0.989113	0.114593	-0.254777
N80	N	1.489113	0.614593	0.245223
C81	C	0.989100	0.114594	0.656225
C82	C	1.489100	0.614594	1.156225
C83	C	0.989091	0.114592	0.544574
C84	C	1.489091	0.614592	1.044574
C85	C	0.989090	0.114586	0.455583
C86	C	1.489090	0.614586	0.955583
C87	C	0.989080	0.114583	0.343925
C88	C	1.489080	0.614583	0.843925
H89	H	0.560173	0.129859	-0.162859
H90	H	1.060173	0.629859	0.337141
H91	H	1.103002	-0.327391	-0.099329
H92	H	1.603002	0.172609	0.400671
H93	H	0.433158	-0.014859	-0.066173
H94	H	0.933158	0.485141	0.433827
H95	H	1.005392	-0.460236	-0.163261
H96	H	1.505392	0.039764	0.336739
H97	H	1.103921	-0.328587	0.096965
H98	H	1.603921	0.171413	0.596965
C99	C	0.427711	-0.027884	0.090931
C100	C	0.927711	0.472116	0.590931
H101	H	0.457022	-0.082962	0.089777
H102	H	0.957022	0.417038	0.589777
H103	H	0.368832	-0.031386	0.089690
H104	H	0.868832	0.468614	0.589690
H105	H	0.441847	0.000184	0.149158
H106	H	0.941847	0.500184	0.649158
H107	H	0.577299	-0.012515	-0.067007
H108	H	1.077299	0.487485	0.432993
H109	H	0.547114	0.228485	0.099482
H110	H	1.047114	0.728485	0.599482
C111	C	0.988915	-0.464084	0.187887
C112	C	1.488915	0.035916	0.687887
H113	H	0.987122	-0.523244	0.188768
H114	H	1.487122	-0.023244	0.688768
H115	H	0.933205	-0.436284	0.189334
H116	H	1.433205	0.063716	0.689334
H117	H	1.018977	-0.447992	0.243752
H118	H	1.518977	0.052008	0.743752
C119	C	0.391899	0.251989	0.093476
C120	C	0.891899	0.751989	0.593476
H121	H	0.409972	0.280487	0.149552
H122	H	0.909972	0.780487	0.649552
H123	H	0.332583	0.251672	0.095879
H124	H	0.832583	0.751672	0.595879
H125	H	0.406686	0.280068	0.035525
H126	H	0.906686	0.780068	0.535525
H127	H	0.861981	-0.297206	0.067143
H128	H	1.361981	0.202794	0.567143
C129	C	0.990780	-0.305863	-0.187057
C130	C	1.490780	0.194137	0.312943
H131	H	1.018131	-0.330987	-0.243528
H132	H	1.518131	0.169013	0.256472
H133	H	0.993034	-0.246791	-0.188772
H134	H	1.493034	0.253209	0.311228
H135	H	0.933711	-0.317062	-0.186477
H136	H	1.433711	0.182938	0.313523
H137	H	1.102820	-0.471460	-0.093082
H138	H	1.602820	0.028540	0.406918
C139	C	0.407057	0.120370	0.188261
C140	C	0.907057	0.620370	0.688261
H141	H	0.377226	0.074020	0.172654
H142	H	0.877226	0.574020	0.672654
H143	H	0.371583	0.160771	0.224731
H144	H	0.871583	0.660771	0.724731
H145	H	0.455251	0.101352	0.226398
H146	H	0.955251	0.601352	0.726398
C147	C	0.849766	-0.286662	-0.090382
C148	C	1.349766	0.213338	0.409618
H149	H	0.829093	-0.330149	-0.127682
H150	H	1.329093	0.169851	0.372318
H151	H	0.886662	-0.258369	-0.129905
H152	H	1.386662	0.241631	0.370095
H153	H	0.803937	-0.247784	-0.069353
H154	H	1.303937	0.252216	0.430647
C155	C	0.587839	-0.024737	0.090524
C156	C	1.087839	0.475263	0.590524
H157	H	0.544351	-0.045410	0.127830
H158	H	1.044351	0.454590	0.627830
H159	H	0.616126	0.012164	0.130041
H160	H	1.116126	0.512164	0.630041
H161	H	0.626721	-0.070565	0.069504
H162	H	1.126721	0.429435	0.569504
H163	H	0.416854	0.125993	-0.163239
H164	H	0.916854	0.625993	0.336761
H165	H	0.402909	0.226136	-0.097652
H166	H	0.902909	0.726136	0.402348
H167	H	0.559060	0.127815	0.162944
H168	H	1.059060	0.627815	0.662944
C169	C	1.124210	-0.482917	0.099315
C170	C	1.624210	0.017083	0.599315
H171	H	1.162337	-0.441533	0.101600
H172	H	1.662337	0.058467	0.601600
H173	H	1.135765	-0.517433	0.042990
H174	H	1.635765	-0.017433	0.542990
H175	H	1.130545	-0.516653	0.156923
H176	H	1.630545	-0.016653	0.656923
C177	C	0.993331	-0.304391	0.187399
C178	C	1.493331	0.195609	0.687399
H179	H	0.948129	-0.263366	0.169878
H180	H	1.448129	0.236634	0.669878
H181	H	1.033315	-0.278654	0.225199
H182	H	1.533315	0.221346	0.725199
H183	H	0.972383	-0.347517	0.225048
H184	H	1.472383	0.152483	0.725048
H185	H	0.545918	0.229429	-0.096815
H186	H	1.045918	0.729429	0.403185
C187	C	0.846633	-0.446796	-0.090787
C188	C	1.346633	0.053204	0.409213
H189	H	0.881380	-0.486406	-0.129148
H190	H	1.381380	0.013594	0.370852
H191	H	0.829798	-0.398219	-0.129257
H192	H	1.329798	0.101781	0.370743
H193	H	0.798226	-0.471232	-0.069775
H194	H	1.298226	0.028768	0.430225
C195	C	0.846848	-0.448219	0.089690
C196	C	1.346848	0.051781	0.589690
H197	H	0.881850	-0.488046	0.127491
H198	H	1.381850	0.011954	0.627491
H199	H	0.798651	-0.472763	0.068212
H200	H	1.298651	0.027237	0.568212
H201	H	0.829690	-0.400167	0.128901
H202	H	1.329690	0.099833	0.628901
