data_functionalizedCrystal
_audit_creation_method	'MofGen! by Chris Wilmer'
_symmetry_space_group_name_H-M	'P1'
_symmetry_Int_Tables_number	1
_symmetry_cell_setting	triclinic
loop_
_symmetry_equiv_pos_as_xyz
  x,y,z
_cell_length_a	19.121241
_cell_length_b	19.120786
_cell_length_c	11.169409
_cell_angle_alpha	87.520717
_cell_angle_beta	87.533638
_cell_angle_gamma	94.790376
loop_
_atom_site_label
_atom_site_type_symbol
_atom_site_fract_x
_atom_site_fract_y
_atom_site_fract_z
Zn1	Zn	1.063786	-0.234278	-0.739197
Zn2	Zn	1.058669	-0.351977	-0.529534
Zn3	Zn	0.946109	-0.239329	-0.529557
Zn4	Zn	0.941065	-0.356926	-0.721218
O5	O	1.002407	-0.295627	-0.629876
O6	O	1.161573	-0.245705	-0.718899
O7	O	1.043707	-0.337077	-0.361582
O8	O	0.965971	-0.140187	-0.564900
O9	O	1.157814	-0.332179	-0.564861
O10	O	1.052428	-0.136476	-0.718922
O11	O	0.961009	-0.254316	-0.361599
O12	O	0.846974	-0.259114	-0.547467
O13	O	0.957375	-0.340613	-0.891558
O14	O	0.843268	-0.345512	-0.688279
O15	O	1.047538	-0.250504	-0.904767
O16	O	1.038816	-0.451106	-0.547427
O17	O	0.952413	-0.454741	-0.688257
C18	C	0.819590	-0.303399	-0.615925
C19	C	0.741379	-0.306740	-0.609984
C20	C	0.706591	-0.263359	-0.687504
C21	C	0.633104	-0.266496	-0.681912
C22	C	0.594406	-0.313017	-0.598804
C23	C	0.629200	-0.356399	-0.521276
C24	C	0.702686	-0.353259	-0.526864
C25	C	0.372428	-0.324744	-0.577910
C26	C	0.298937	-0.327883	-0.572331
C27	C	0.302846	-0.237978	-0.732966
C28	C	0.376333	-0.234845	-0.738551
C29	C	0.411120	-0.278224	-0.661019
C30	C	0.519290	-0.316225	-0.593089
C31	C	0.486235	-0.275012	-0.666730
C32	C	0.994531	-0.478455	-0.615916
C33	C	0.991226	-0.556667	-0.609989
C34	C	1.034654	-0.591420	-0.687455
C35	C	1.031545	-0.664908	-0.681887
C36	C	0.985013	-0.703643	-0.598848
C37	C	0.941581	-0.668885	-0.521378
C38	C	0.944686	-0.595398	-0.526952
C39	C	0.973384	-0.925625	-0.578008
C40	C	0.970283	-0.999117	-0.572437
C41	C	1.060247	-0.995135	-0.732948
C42	C	1.063351	-0.921647	-0.738510
C43	C	1.019917	-0.886896	-0.661046
C44	C	0.981836	-0.778759	-0.593152
C45	C	1.023090	-0.811781	-0.666747
C46	C	1.185938	-0.287826	-0.643883
C47	C	1.264149	-0.284502	-0.649851
C48	C	1.002465	-0.295547	-0.942929
C49	C	1.002489	-0.295513	-1.076334
C50	C	1.010333	-0.112085	-0.643919
C51	C	1.013711	-0.033870	-0.649903
C52	C	1.002393	-0.295655	-0.318049
C53	C	1.002513	-0.295485	-0.184670
H54	H	0.731010	-0.388584	-0.463738
Cl55	Cl	0.580552	-0.414880	-0.416791
H56	H	0.487775	-0.354103	-0.525422
Cl57	Cl	0.534884	-0.216529	-0.771201
Cl58	Cl	0.424976	-0.176363	-0.843041
Cl59	Cl	1.081583	-0.763085	-0.771143
H60	H	1.072548	-0.559887	-0.755070
H61	H	1.066914	-0.693200	-0.744959
H62	H	1.101242	-0.890111	-0.806128
Cl63	Cl	0.890088	-0.551709	-0.429564
Cl64	Cl	1.114844	-1.038827	-0.830331
H65	H	0.932388	-1.030653	-0.504815
Cl66	Cl	0.918773	-0.881948	-0.480633
H67	H	0.267431	-0.365769	-0.504654
H68	H	0.903690	-0.700428	-0.453770
H69	H	0.400743	-0.360068	-0.514779
H70	H	0.738093	-0.225479	-0.755183
Cl71	Cl	0.589372	-0.211959	-0.779374
Cl72	Cl	0.923336	-0.827460	-0.488769
H73	H	0.274514	-0.202660	-0.796087
