data_functionalizedCrystal
_audit_creation_method	'MofGen! by Chris Wilmer'
_symmetry_space_group_name_H-M	'P1'
_symmetry_Int_Tables_number	1
_symmetry_cell_setting	triclinic
loop_
_symmetry_equiv_pos_as_xyz
  x,y,z
_cell_length_a	16.974897
_cell_length_b	16.109301
_cell_length_c	15.186229
_cell_angle_alpha	90.005167
_cell_angle_beta	93.654932
_cell_angle_gamma	83.431140
loop_
_atom_site_label
_atom_site_type_symbol
_atom_site_fract_x
_atom_site_fract_y
_atom_site_fract_z
O1	O	-1.049104	-0.106024	-0.147917
O2	O	-0.818897	-0.119508	-0.131531
O3	O	-0.940325	0.008270	-0.140165
O4	O	-0.927677	-0.233802	-0.139283
O5	O	-0.940317	0.008272	0.006293
O6	O	-0.818889	-0.119506	0.014927
O7	O	-1.049096	-0.106022	-0.001459
Zn8	Zn	-0.933991	-0.112764	0.029987
Zn9	Zn	-0.934002	-0.112766	-0.162977
O10	O	-0.927669	-0.233800	0.007175
C11	C	-0.939808	0.039246	-0.066899
C12	C	-0.938272	0.131540	-0.066789
C13	C	-0.789435	-0.118992	-0.056205
C14	C	-0.701660	-0.117447	-0.049957
C15	C	-1.078558	-0.106538	-0.076787
C16	C	-1.166333	-0.108083	-0.083041
C17	C	-0.660420	-0.116725	-0.126849
C18	C	-0.577945	-0.115287	-0.120965
C19	C	-0.536711	-0.114565	-0.038188
C20	C	-0.577956	-0.115291	0.038710
C21	C	-0.660430	-0.116735	0.032825
C22	C	-0.290052	-0.110252	-0.012028
C23	C	-0.207573	-0.108805	-0.006149
C24	C	-0.207567	-0.108803	-0.165825
C25	C	-0.290042	-0.110242	-0.171702
C26	C	-0.331280	-0.110972	-0.094804
N27	N	-0.452408	-0.113093	-0.032172
N28	N	-0.415581	-0.112450	-0.100821
C29	C	-0.928185	-0.264776	-0.066093
C30	C	-0.929721	-0.357070	-0.066209
N31	N	-0.933990	-0.112762	0.161680
C32	C	-1.006753	0.353867	-0.071677
C33	C	-1.005304	0.440586	-0.071581
C34	C	-0.861234	0.420596	-0.061323
C35	C	-0.862685	0.333879	-0.061425
C36	C	-0.935446	0.300517	-0.066598
C37	C	-0.932547	0.473953	-0.066400
C38	C	-0.930975	0.567978	-0.066296
C39	C	-0.937019	0.206486	-0.066704
N40	N	-0.934010	-0.112762	-0.294671
C41	C	-0.987776	-0.056201	0.383578
C42	C	-0.987779	-0.056199	0.475768
C43	C	-0.880218	-0.169326	0.483425
C44	C	-0.880212	-0.169323	0.391238
C45	C	-0.933996	-0.112761	0.341316
C46	C	-0.934004	-0.112762	0.525693
C47	C	-0.934006	-0.112760	0.625649
C48	C	-0.933993	-0.112762	0.241354
H49	H	-0.693987	-0.117309	-0.194255
H50	H	-1.063369	0.484021	-0.075719
H51	H	-0.801994	0.447770	-0.057110
C52	C	-1.034258	0.087753	0.500843
C53	C	-1.046899	0.005973	0.522220
H54	H	-1.070761	0.126136	0.529517
H55	H	-0.981501	0.096753	0.519720
H56	H	-1.041952	0.095835	0.438792
H57	H	-1.039199	-0.002110	0.584270
H58	H	-1.099668	-0.003030	0.503348
H59	H	-1.031569	-0.010144	0.342934
C60	C	-0.586226	-0.115404	-0.279386
C61	C	-0.532616	-0.114479	-0.205488
H62	H	-0.558241	-0.114899	-0.331568
H63	H	-0.612352	-0.164425	-0.277943
H64	H	-0.624434	-0.067506	-0.278769
H65	H	-0.494410	-0.162380	-0.206101
H66	H	-0.506476	-0.065453	-0.206932
H67	H	-0.323610	-0.110823	-0.239108
C68	C	-0.772623	-0.187425	0.594781
C69	C	-0.821108	-0.231500	0.538306
H70	H	-0.736135	-0.225812	0.628664
H71	H	-0.744189	-0.152840	0.560851
H72	H	-0.804664	-0.153742	0.633140
H73	H	-0.789067	-0.265179	0.499943
H74	H	-0.849544	-0.266100	0.572238
C75	C	-0.081137	-0.106597	-0.227707
C76	C	-0.162235	-0.108013	-0.250347
H77	H	-0.053153	-0.106117	-0.279891
H78	H	-0.073664	-0.057902	-0.194376
H79	H	-0.061594	-0.154821	-0.193510
H80	H	-0.181780	-0.059785	-0.284538
H81	H	-0.169713	-0.156712	-0.283692
C82	C	-0.215857	-0.108966	0.151101
C83	C	-0.162246	-0.108017	0.084846
H84	H	-0.187872	-0.108482	0.207273
H85	H	-0.254063	-0.061075	0.145065
H86	H	-0.241985	-0.157993	0.145904
H87	H	-0.136123	-0.058986	0.090039
H88	H	-0.124027	-0.155913	0.090885
H89	H	-0.804614	0.290438	-0.057291
C90	C	-0.391696	-0.040437	0.073362
C91	C	-0.335373	-0.111041	0.072499
H92	H	-0.419679	-0.040926	0.125546
H93	H	-0.365558	0.008576	0.071908
H94	H	-0.428055	-0.041087	0.023222
H95	H	-0.299010	-0.110387	0.122635
H96	H	-0.361513	-0.160066	0.073961
C97	C	-0.773894	-0.281155	0.408059
C98	C	-0.821094	-0.231502	0.344776
H99	H	-0.737402	-0.319541	0.379373
H100	H	-0.745466	-0.246565	0.446047
H101	H	-0.806807	-0.311046	0.441665
H102	H	-0.788182	-0.201606	0.311174
H103	H	-0.849525	-0.266097	0.306773
C104	C	-0.561479	-0.043414	0.175993
C105	C	-0.532636	-0.114498	0.129702
H106	H	-0.533503	-0.042927	0.232171
H107	H	-0.553994	0.005273	0.143729
H108	H	-0.616499	-0.044388	0.183486
H109	H	-0.477616	-0.113520	0.122203
H110	H	-0.540113	-0.163197	0.161973
H111	H	-0.694006	-0.117327	0.095439
H112	H	-1.066001	0.326707	-0.075891
