data_functionalizedCrystal
_audit_creation_method	'MofGen! by Chris Wilmer'
_symmetry_space_group_name_H-M	'P1'
_symmetry_Int_Tables_number	1
_symmetry_cell_setting	triclinic
loop_
_symmetry_equiv_pos_as_xyz
  x,y,z
_cell_length_a	14.395555
_cell_length_b	14.395555
_cell_length_c	20.016444
_cell_angle_alpha	60.000516
_cell_angle_beta	90.003415
_cell_angle_gamma	59.996404
loop_
_atom_site_label
_atom_site_type_symbol
_atom_site_fract_x
_atom_site_fract_y
_atom_site_fract_z
Zr1	Zr	0.894845	1.016795	-0.087639
O2	O	0.746494	1.210612	-0.194322
O3	O	0.940330	0.822988	-0.054935
O4	O	0.940308	1.016800	-0.194315
O5	O	0.746525	1.016793	0.055003
O6	O	1.093182	1.016793	-0.194309
O7	O	0.746517	1.016800	-0.054942
O8	O	1.093222	0.670099	0.055015
O9	O	0.746485	1.363487	-0.194321
O10	O	1.073808	0.902695	-0.040983
O11	O	0.959725	0.902695	0.041064
O12	O	0.959699	1.130884	-0.123038
O13	O	0.845617	1.130884	-0.040991
Zr14	Zr	1.138674	1.016773	0.087720
Zr15	Zr	1.138661	1.016784	-0.087630
Zr16	Zr	0.894858	1.016784	0.087711
Zr17	Zr	0.894830	1.260614	-0.087639
Zr18	Zr	1.138689	0.772954	0.087720
O19	O	1.093188	1.210580	0.055016
O20	O	1.093170	1.210597	-0.194308
O21	O	0.746513	1.210596	0.055003
O22	O	1.287024	0.822956	0.194403
O23	O	1.287006	0.822972	-0.054922
O24	O	0.940349	0.822971	0.194390
O25	O	1.286994	1.016775	-0.054922
O26	O	1.093211	1.016768	0.194396
O27	O	0.940337	1.016775	0.194390
O28	O	1.287002	1.016768	0.055023
O29	O	0.940287	1.363479	-0.194314
O30	O	1.093232	0.670089	0.194395
O31	O	1.287034	0.670081	0.194403
O32	O	1.287024	0.670090	0.055023
O33	O	0.746495	1.363478	-0.054942
O34	O	0.940297	1.363469	-0.054934
O35	O	1.073820	0.902684	0.123119
O36	O	1.187902	0.902684	0.041072
O37	O	1.073793	1.130873	-0.040982
O38	O	0.959711	1.130873	0.041064
C39	C	1.016778	0.711804	0.000040
C40	C	1.016785	0.608297	0.000040
C41	C	1.078962	0.485812	-0.044697
C42	C	0.971698	0.623946	-0.077133
C43	C	1.124029	0.471574	0.032438
C44	C	0.909406	0.562105	-0.032439
C45	C	1.061815	0.409658	0.077174
C46	C	0.954487	0.547783	0.044758
C47	C	0.711782	1.016798	0.000029
C48	C	0.608276	1.016802	0.000025
C49	C	0.485470	1.141221	-0.044708
C50	C	0.454636	1.079027	-0.077127
C51	C	0.454686	1.078991	0.032438
C52	C	0.578805	0.954608	-0.032439
C53	C	0.578852	0.954590	0.077168
C54	C	0.548092	0.892305	0.044769
C55	C	1.321737	1.016770	0.000052
C56	C	1.425243	1.016766	0.000056
C57	C	1.016743	1.016799	-0.219295
C58	C	1.016738	1.016804	-0.293736
C59	C	1.016741	1.321764	0.000041
C60	C	1.016734	1.425271	0.000041
C61	C	0.957194	1.135901	-0.507824
C62	C	0.957203	1.135895	-0.577765
C63	C	1.076332	0.897658	-0.492087
C64	C	1.076329	0.897665	-0.422147
C65	C	1.016753	1.016790	-0.430019
C66	C	1.016766	1.016778	-0.569900
C67	C	1.016776	1.016771	-0.645733
C68	C	1.016744	1.016798	-0.354182
C69	C	1.016776	1.016769	0.219376
C70	C	1.016781	1.016764	0.293817
C71	C	1.321756	0.711791	0.000052
C72	C	1.425269	0.608279	0.000056
C73	C	1.016794	0.711790	0.219376
C74	C	1.016806	0.608278	0.293816
C75	C	1.321772	0.711776	0.219388
C76	C	1.425290	0.608259	0.293832
C77	C	0.711747	1.321792	-0.219306
C78	C	0.608229	1.425309	-0.293751
C79	C	0.711763	1.321777	0.000029
C80	C	0.608250	1.425289	0.000026
C81	C	1.016724	1.321778	-0.219295
C82	C	1.016712	1.425290	-0.293735
C83	C	1.076368	0.559662	0.371614
C84	C	1.076375	0.462415	0.441565
C85	C	1.016826	0.413779	0.433717
C86	C	0.957257	0.462404	0.355912
C87	C	0.957244	0.559656	0.285962
C88	C	1.533463	0.559647	0.285964
C89	C	1.630739	0.462395	0.355906
C90	C	1.619839	0.413751	0.433715
C91	C	1.511655	0.462373	0.441580
C92	C	1.414381	0.559630	0.371640
C93	C	0.500055	1.473933	-0.285883
C94	C	0.402779	1.571215	-0.355825
C95	C	0.413679	1.619864	-0.433633
C96	C	0.521864	1.571236	-0.441499
C97	C	0.619137	1.473962	-0.371558
C98	C	1.076273	1.473896	-0.285861
C99	C	1.076284	1.571143	-0.355799
C100	C	1.016727	1.619791	-0.433610
C101	C	0.957165	1.571176	-0.441483
C102	C	0.957161	1.473923	-0.371546
C103	C	1.548070	0.547712	0.044774
C104	C	1.578943	0.409595	0.077177
C105	C	1.578831	0.562013	-0.032387
C106	C	1.454777	0.471462	0.032504
C107	C	1.454669	0.623953	-0.077102
C108	C	1.485468	0.485846	-0.044718
H109	H	0.818647	0.599518	-0.059917
H110	H	1.131477	0.458699	-0.082575
H111	H	1.542360	0.599238	0.222615
H112	H	0.707214	1.434373	-0.377974
N113	N	0.892924	1.623659	-0.525409
H114	H	0.924157	1.549473	-0.531975
H115	H	0.901988	1.692664	-0.568461
H116	H	0.632375	0.902047	0.142381
N117	N	1.140579	0.769185	-0.338224
H118	H	1.109346	0.717109	-0.331666
H119	H	1.131523	0.787374	-0.295163
N120	N	0.893051	0.409920	0.347457
H121	H	0.855314	0.455466	0.287559
H122	H	0.833184	0.426842	0.374612
H123	H	1.099954	0.318015	0.142392
H124	H	0.908746	0.599226	0.222619
N125	N	1.747414	0.409963	0.347412
H126	H	1.739549	0.455531	0.287506
H127	H	1.790375	0.312329	0.374569
N128	N	1.140511	1.623585	-0.347303
H129	H	1.200456	1.606650	-0.374398
H130	H	1.178154	1.577997	-0.287383
N131	N	1.383728	0.745397	-0.163469
H132	H	1.306037	0.764583	-0.177611
H133	H	1.422395	0.730400	-0.202631
H134	H	1.326305	0.599197	0.378057
N135	N	1.244189	0.422274	0.068736
H136	H	1.291099	0.399820	0.034894
H137	H	1.278616	0.341269	0.126676
N138	N	0.884727	0.583606	0.094872
H139	H	0.803744	0.618538	0.070308
H140	H	0.885751	0.653170	0.094983
H141	H	1.016739	1.698981	-0.490551
H142	H	0.401110	1.131615	-0.142353
N143	N	0.649475	0.885007	-0.068833
H144	H	0.719394	0.885484	-0.068643
H145	H	0.602972	0.931679	-0.126910
H146	H	1.124887	0.422835	0.504911
N147	N	1.649652	0.611348	-0.068700
H148	H	1.656797	0.610964	-0.118771
H149	H	1.727810	0.552279	-0.026936
H150	H	1.124860	0.599250	0.378019
H151	H	0.460017	1.246428	-0.082595
H152	H	0.933585	0.715566	-0.142364
N153	N	1.140571	0.769175	-0.483594
H154	H	1.223888	0.717094	-0.452691
H155	H	1.131446	0.787346	-0.539732
H156	H	1.401444	0.434043	0.059984
H157	H	0.908684	1.232900	-0.514238
N158	N	0.582083	0.752837	0.094889
H159	H	0.628141	0.706022	0.070323
H160	H	0.511506	0.753686	0.095006
N161	N	1.451438	0.450131	-0.094872
H162	H	1.405389	0.415208	-0.070309
H163	H	1.521991	0.380594	-0.095033
N164	N	0.383814	1.148660	0.068737
H165	H	0.359314	1.242647	0.034887
H166	H	0.430411	1.102524	0.126672
N167	N	0.892997	1.264363	-0.661684
H168	H	0.855268	1.339824	-0.656053
H169	H	0.833123	1.269582	-0.692593
N170	N	0.892915	1.421506	-0.380044
H171	H	0.855190	1.467090	-0.439951
H172	H	0.833036	1.438444	-0.352901
H173	H	1.699055	0.334559	0.490658
N174	N	1.016848	0.308877	0.509164
H175	H	0.982961	0.342729	0.542826
H176	H	1.097543	0.228216	0.542763
H177	H	1.502797	0.422753	0.504941
H178	H	0.491159	1.434328	-0.222534
N179	N	0.286101	1.623649	-0.347338
H180	H	0.276999	1.663974	-0.316427
H181	H	0.277078	1.549380	-0.316470
N182	N	0.308763	1.724773	-0.509070
H183	H	0.261952	1.805470	-0.509095
H184	H	0.262048	1.690805	-0.509050
H185	H	0.530726	1.610858	-0.504859
N186	N	1.140512	1.421439	-0.201942
H187	H	1.178244	1.466995	-0.207579
H188	H	1.200387	1.323805	-0.171055
N189	N	1.581768	0.583581	0.094959
H190	H	1.627764	0.503414	0.153219
H191	H	1.511075	0.654331	0.094144
N192	N	1.649879	0.288188	0.163563
H193	H	1.674383	0.310721	0.197329
H194	H	1.719343	0.218445	0.162772
