data_functionalizedCrystal
_audit_creation_method	'MofGen! by Chris Wilmer'
_symmetry_space_group_name_H-M	'P1'
_symmetry_Int_Tables_number	1
_symmetry_cell_setting	triclinic
loop_
_symmetry_equiv_pos_as_xyz
  x,y,z
_cell_length_a	12.477989
_cell_length_b	20.016444
_cell_length_c	12.477952
_cell_angle_alpha	122.956218
_cell_angle_beta	95.275455
_cell_angle_gamma	64.368664
loop_
_atom_site_label
_atom_site_type_symbol
_atom_site_fract_x
_atom_site_fract_y
_atom_site_fract_z
Zr1	Zr	0.990987	0.811919	0.206158
O2	O	0.843823	0.939312	0.368354
O3	O	1.036101	0.676219	0.156444
O4	O	1.055754	0.817191	0.382261
O5	O	0.808667	0.797077	-0.035599
O6	O	1.222928	0.830800	0.393221
O7	O	0.824170	0.798339	0.142538
O8	O	1.187772	0.578626	-0.010723
O9	O	0.843823	1.049252	0.368345
O10	O	1.180101	0.745267	0.143412
O11	O	1.043771	0.734169	0.002291
O12	O	1.066910	0.900146	0.268161
O13	O	0.930580	0.889048	0.127039
Zr14	Zr	1.232885	0.831610	-0.060468
Zr15	Zr	1.257610	0.833623	0.223639
Zr16	Zr	0.966261	0.809906	-0.077950
Zr17	Zr	0.990986	0.987260	0.206144
Zr18	Zr	1.232885	0.656269	-0.060454
O19	O	1.187771	0.967310	-0.010755
O20	O	1.222928	0.970172	0.393210
O21	O	0.808666	0.936450	-0.035611
O22	O	1.380048	0.704217	-0.222665
O23	O	1.415205	0.707079	0.181300
O24	O	1.000944	0.673357	-0.247521
O25	O	1.415205	0.846452	0.181289
O26	O	1.168118	0.826338	-0.236571
O27	O	1.000943	0.812729	-0.247532
O28	O	1.399701	0.845190	0.003152
O29	O	1.055753	1.066503	0.382240
O30	O	1.168118	0.577026	-0.236551
O31	O	1.380049	0.594278	-0.222656
O32	O	1.399702	0.595877	0.003172
O33	O	0.824169	1.047652	0.142517
O34	O	1.036099	1.064903	0.156413
O35	O	1.156961	0.743383	-0.122471
O36	O	1.293291	0.754481	0.018651
O37	O	1.180100	0.909360	0.143399
O38	O	1.043770	0.898262	0.002277
C39	C	1.111936	0.602440	0.072863
C40	C	1.111937	0.528003	0.072869
C41	C	1.183102	0.362526	0.146511
C42	C	1.183105	0.292579	0.146501
C43	C	1.040767	0.281006	-0.000830
C44	C	1.040771	0.350947	-0.000826
C45	C	1.111937	0.391709	0.072852
C46	C	1.111935	0.251820	0.072838
C47	C	1.111937	0.175980	0.072827
C48	C	1.111936	0.467553	0.072862
C49	C	0.778430	0.794616	0.050979
C50	C	0.665241	0.785402	0.043557
C51	C	1.445441	0.848913	0.094711
C52	C	1.558630	0.858127	0.102132
C53	C	1.142864	0.824282	0.428220
C54	C	1.153361	0.825137	0.548832
C55	C	1.111935	1.041089	0.072827
C56	C	1.111935	1.115526	0.072821
C57	C	1.081008	0.819247	0.717469
C58	C	1.070511	0.818392	0.596858
C59	C	1.445442	0.629588	0.094729
C60	C	1.558631	0.564365	0.102156
C61	C	1.081008	0.599922	-0.282513
C62	C	1.070512	0.524631	-0.403118
C63	C	1.414514	0.627071	-0.260647
C64	C	1.517206	0.560993	-0.373831
C65	C	0.809358	1.016458	0.406336
C66	C	0.706665	1.082536	0.519520
C67	C	0.778429	1.013941	0.050961
C68	C	0.665240	1.079164	0.043534
C69	C	1.142863	1.043607	0.428203
C70	C	1.153360	1.118898	0.548808
C71	C	1.552702	0.528926	0.170780
C72	C	1.659048	0.467652	0.177785
C73	C	1.771319	0.441812	0.116157
C74	C	1.777245	0.477258	0.047530
C75	C	1.670902	0.538536	0.040534
C76	C	1.124666	0.494083	-0.524892
C77	C	1.114797	0.423348	-0.638224
C78	C	1.050782	0.383158	-0.629780
C79	C	0.996621	0.413713	-0.507993
C80	C	1.006483	0.484450	-0.394664
C81	C	1.636606	0.535757	-0.353318
C82	C	1.733107	0.473680	-0.459655
C83	C	1.710206	0.436838	-0.586503
C84	C	1.590795	0.462080	-0.607014
C85	C	1.494296	0.524160	-0.500678
C86	C	0.587266	1.107781	0.499008
C87	C	0.490764	1.169879	0.605345
C88	C	0.513665	1.206725	0.732193
C89	C	0.633077	1.181478	0.752703
C90	C	0.729576	1.119386	0.646368
C91	C	0.671170	1.114610	-0.025079
C92	C	0.564827	1.175904	-0.032052
C93	C	0.452556	1.201746	0.029580
C94	C	0.446630	1.166297	0.098201
C95	C	0.552972	1.105009	0.105181
C96	C	1.217384	1.159067	0.540322
C97	C	1.227270	1.229803	0.653634
C98	C	1.173123	1.260375	0.775430
C99	C	1.109097	1.220199	0.783914
C100	C	1.099219	1.149460	0.670603
H101	H	1.241051	0.395712	0.206502
C102	C	1.276964	1.125448	0.406357
N103	N	1.321852	1.100127	0.305458
H104	H	0.762576	1.093574	-0.075277
C105	C	0.671569	0.691757	-0.031871
N106	N	0.676332	0.621225	-0.088685
H107	H	1.241055	0.268819	0.206479
C108	C	1.888289	0.374397	0.123855
N109	N	1.976386	0.323615	0.129652
H110	H	0.553949	0.927439	0.157967
C111	C	0.335586	1.269162	0.021882
N112	N	0.247488	1.319937	0.016075
H113	H	0.355204	1.187347	0.148379
C114	C	1.565623	0.421537	-0.746558
N115	N	1.546668	0.390992	-0.851666
H116	H	1.176793	0.526798	-0.531792
H117	H	0.991548	0.811970	0.545710
C118	C	1.039959	0.305337	-0.754458
N119	N	1.031817	0.246719	-0.848369
H120	H	0.548127	1.076149	0.161049
H121	H	1.279404	1.262507	0.646701
C122	C	1.183998	1.338193	0.900064
N123	N	1.192191	1.396808	0.993933
C124	C	1.028765	1.105293	0.679959
N125	N	0.975693	1.072031	0.687015
C126	C	0.571373	1.214880	-0.107554
N127	N	0.576306	1.244232	-0.164425
C128	C	1.362956	0.551911	-0.523264
N129	N	1.264032	0.572811	-0.540286
H130	H	0.393543	1.190424	0.588619
H131	H	1.232321	0.831569	0.599994
H132	H	1.461297	0.549965	0.220983
H133	H	1.675745	0.567383	-0.015354
H134	H	0.982825	0.247810	-0.060814
C135	C	1.864450	0.445917	-0.437065
N136	N	1.963376	0.425005	-0.420046
H137	H	0.944500	0.380980	-0.501137
H138	H	0.962387	0.509313	-0.295515
H139	H	1.654199	0.438798	0.233667
H140	H	0.982819	0.374707	-0.060814
H141	H	1.158908	0.398480	-0.737376
H142	H	1.655275	0.565746	-0.250041
C143	C	1.900756	0.448818	-0.020266
N144	N	1.993786	0.427390	-0.071338
H145	H	1.788793	0.386289	-0.673077
H146	H	0.568596	1.077782	0.395731
H147	H	0.435078	1.257283	0.818767
H148	H	1.065014	1.245101	0.883095
C149	C	0.658248	1.222010	0.892248
N150	N	0.677203	1.252534	0.997356
H151	H	0.826795	1.098833	0.663085
