data_functionalizedCrystal
_audit_creation_method	'MofGen! by Chris Wilmer'
_symmetry_space_group_name_H-M	'P1'
_symmetry_Int_Tables_number	1
_symmetry_cell_setting	triclinic
loop_
_symmetry_equiv_pos_as_xyz
  x,y,z
_cell_length_a	8.497374
_cell_length_b	8.497374
_cell_length_c	15.297475
_cell_angle_alpha	99.665776
_cell_angle_beta	99.693313
_cell_angle_gamma	90.005237
loop_
_atom_site_label
_atom_site_type_symbol
_atom_site_fract_x
_atom_site_fract_y
_atom_site_fract_z
Zn1	Zn	1.046486	1.308968	1.379243
Zn2	Zn	1.310230	1.045232	1.379236
Zn3	Zn	1.000732	0.999609	1.228416
Zn4	Zn	1.264484	1.263373	1.228394
O5	O	1.155483	1.154295	1.303822
O6	O	1.119765	1.312158	1.505491
O7	O	1.269171	0.818419	1.359235
O8	O	0.786043	1.040635	1.248435
O9	O	1.313537	1.118392	1.505486
O10	O	0.819658	1.267920	1.359247
O11	O	1.041784	0.784901	1.248428
O12	O	0.997426	0.996423	1.102163
O13	O	1.235570	1.490181	1.248398
O14	O	1.191204	1.190209	1.102147
O15	O	1.075408	1.523680	1.359226
O16	O	1.524920	1.074180	1.359214
O17	O	1.491311	1.234447	1.248391
C18	C	1.084387	1.083419	1.069420
C19	C	1.054010	1.053135	0.969142
C20	C	1.565359	1.154315	1.303811
C21	C	1.744011	1.154296	1.303835
C22	C	1.155483	1.565774	1.303815
C23	C	1.155501	1.744418	1.303817
C24	C	1.372604	1.370743	0.686542
C25	C	1.401156	1.399192	0.780758
C26	C	1.314372	1.312681	0.827859
C27	C	1.199031	1.197715	0.780734
C28	C	1.170484	1.169254	0.686509
C29	C	1.112252	1.111192	0.827825
C30	C	0.996911	0.996226	0.780700
C31	C	0.968369	0.967772	0.686484
C32	C	1.055153	1.054283	0.639384
C33	C	1.140799	1.139652	0.922051
C34	C	0.938679	0.938163	0.922017
C35	C	0.910127	0.909715	0.827801
C36	C	1.226857	1.225450	1.539139
C37	C	1.257273	1.255771	1.639417
H38	H	1.234710	1.233260	0.960411
F39	F	1.344761	1.342964	0.928133
H40	H	0.816215	0.816108	0.789419
F41	F	1.024762	1.024019	0.539106
H42	H	0.868015	0.867716	0.960366
H43	H	0.874467	0.874142	0.648118
H44	H	1.495071	1.492794	0.819121
F45	F	1.464979	1.462772	0.636409
