data_functionalizedCrystal
_audit_creation_method	'MofGen! by Chris Wilmer'
_symmetry_space_group_name_H-M	'P1'
_symmetry_Int_Tables_number	1
_symmetry_cell_setting	triclinic
loop_
_symmetry_equiv_pos_as_xyz
  x,y,z
_cell_length_a	19.288864
_cell_length_b	19.188930
_cell_length_c	17.766277
_cell_angle_alpha	89.988508
_cell_angle_beta	89.976791
_cell_angle_gamma	83.140512
loop_
_atom_site_label
_atom_site_type_symbol
_atom_site_fract_x
_atom_site_fract_y
_atom_site_fract_z
O1	O	0.921360	0.087099	-0.062844
O2	O	1.254693	0.420433	0.270489
O3	O	1.588026	0.753766	0.603823
O4	O	0.719100	0.098849	-0.062794
O5	O	1.052433	0.432182	0.270540
O6	O	1.385766	0.765515	0.603873
O7	O	0.826066	-0.008682	-0.062806
O8	O	1.159400	0.324651	0.270528
O9	O	1.492733	0.657985	0.603861
O10	O	0.814393	0.194630	-0.062832
O11	O	1.147726	0.527963	0.270501
O12	O	1.481060	0.861297	0.603835
O13	O	0.826048	-0.008688	0.062383
O14	O	1.159381	0.324646	0.395716
O15	O	1.492714	0.657979	0.729050
O16	O	0.719081	0.098843	0.062395
O17	O	1.052414	0.432177	0.395728
O18	O	1.385748	0.765510	0.729062
O19	O	0.921341	0.087094	0.062345
O20	O	1.254674	0.420427	0.395678
O21	O	1.588008	0.753760	0.729011
Cu22	Cu	0.820209	0.092968	0.073800
Cu23	Cu	1.153543	0.426301	0.407134
Cu24	Cu	1.486876	0.759635	0.740467
Cu25	Cu	0.820231	0.092974	-0.074250
Cu26	Cu	1.153565	0.426308	0.259084
Cu27	Cu	1.486898	0.759641	0.592417
O28	O	0.814374	0.194625	0.062356
O29	O	1.147708	0.527958	0.395690
O30	O	1.481041	0.861291	0.729023
C31	C	0.693214	0.098468	-0.000193
C32	C	1.026547	0.431801	0.333141
C33	C	1.359881	0.765135	0.666474
C34	C	0.616110	0.097333	-0.000173
C35	C	0.949444	0.430666	0.333160
C36	C	1.282777	0.764000	0.666494
C37	C	0.571419	0.160427	-0.000193
C38	C	0.904752	0.493761	0.333140
C39	C	1.238085	0.827094	0.666474
C40	C	0.498972	0.159361	-0.000201
C41	C	0.832305	0.492694	0.333132
C42	C	1.165638	0.826028	0.666466
C43	C	0.471219	0.095197	-0.000204
C44	C	0.804553	0.428530	0.333129
C45	C	1.137886	0.761864	0.666462
C46	C	0.515921	0.032095	-0.000180
C47	C	0.849254	0.365428	0.333153
C48	C	1.182587	0.698761	0.666487
C49	C	0.588366	0.033163	-0.000164
C50	C	0.921700	0.366496	0.333169
C51	C	1.255033	0.699829	0.666502
C52	C	0.362960	0.044759	-0.044082
C53	C	0.696293	0.378092	0.289251
C54	C	1.029627	0.711426	0.622585
C55	C	0.290515	0.043694	-0.044103
C56	C	0.623849	0.377027	0.289231
C57	C	0.957182	0.710360	0.622564
C58	C	0.247773	0.091900	-0.000249
C59	C	0.581107	0.425234	0.333084
C60	C	0.914440	0.758567	0.666417
C61	C	0.277483	0.141184	0.043614
C62	C	0.610817	0.474518	0.376948
C63	C	0.944150	0.807851	0.710281
C64	C	0.349929	0.142252	0.043630
C65	C	0.683262	0.475586	0.376963
C66	C	1.016595	0.808919	0.710297
C67	C	0.392665	0.094032	-0.000221
C68	C	0.725998	0.427365	0.333112
C69	C	1.059332	0.760699	0.666446
C70	C	0.124526	0.153843	-0.000277
C71	C	0.457859	0.487176	0.333056
C72	C	0.791192	0.820510	0.666389
C73	C	0.052078	0.152774	-0.000281
C74	C	0.385411	0.486107	0.333052
C75	C	0.718744	0.819441	0.666386
C76	C	0.069028	0.025506	-0.000267
C77	C	0.402362	0.358839	0.333066
C78	C	0.735695	0.692172	0.666399
C79	C	0.141475	0.026576	-0.000256
C80	C	0.474808	0.359910	0.333077
C81	C	0.808142	0.693243	0.666410
C82	C	0.169219	0.090747	-0.000265
C83	C	0.502552	0.424080	0.333069
C84	C	0.835886	0.757414	0.666402
C85	C	0.825679	-0.034696	-0.000209
C86	C	1.159012	0.298638	0.333124
C87	C	1.492346	0.631971	0.666458
C88	C	0.824544	-0.112200	-0.000202
C89	C	1.157878	0.221133	0.333131
C90	C	1.491211	0.554466	0.666464
C91	C	0.887309	-0.157129	-0.000214
C92	C	1.220642	0.176204	0.333119
C93	C	1.553975	0.509538	0.666452
C94	C	0.886243	-0.229953	-0.000226
C95	C	1.219576	0.103381	0.333107
C96	C	1.552909	0.436714	0.666441
C97	C	0.822408	-0.257844	-0.000211
C98	C	1.155742	0.075489	0.333123
C99	C	1.489075	0.408822	0.666456
C100	C	0.759636	-0.212906	-0.000203
C101	C	1.092969	0.120427	0.333130
C102	C	1.426302	0.453761	0.666464
C103	C	0.760704	-0.140084	-0.000199
C104	C	1.094037	0.193250	0.333135
C105	C	1.427370	0.526583	0.666468
N106	N	0.773608	-0.365848	0.042405
N107	N	1.106942	-0.032514	0.375739
N108	N	1.440275	0.300819	0.709072
N109	N	0.772598	-0.435026	0.042403
N110	N	1.105932	-0.101693	0.375736
N111	N	1.439265	0.231641	0.709070
C112	C	0.819187	-0.477253	-0.000225
C113	C	1.152520	-0.143919	0.333108
C114	C	1.485854	0.189414	0.666441
N115	N	0.866835	-0.447689	-0.042841
N116	N	1.200168	-0.114356	0.290492
N117	N	1.533502	0.218978	0.623825
N118	N	0.867847	-0.378504	-0.042836
N119	N	1.201180	-0.045171	0.290498
N120	N	1.534514	0.288162	0.623831
C121	C	0.821243	-0.336807	-0.000216
C122	C	1.154577	-0.003473	0.333117
C123	C	1.487910	0.329860	0.666451
C124	C	0.880800	-0.601146	-0.000251
C125	C	1.214133	-0.267813	0.333082
C126	C	1.547467	0.065521	0.666416
C127	C	0.879731	-0.673971	-0.000268
C128	C	1.213065	-0.340637	0.333066
C129	C	1.546398	-0.007304	0.666399
C130	C	0.753122	-0.656922	-0.000237
C131	C	1.086456	-0.323589	0.333097
C132	C	1.419789	0.009745	0.666430
C133	C	0.754193	-0.584099	-0.000228
C134	C	1.087526	-0.250766	0.333105
C135	C	1.420860	0.082568	0.666439
C136	C	0.818034	-0.556216	-0.000231
C137	C	1.151367	-0.222882	0.333102
C138	C	1.484700	0.110451	0.666435
C139	C	0.947227	0.087475	-0.000258
C140	C	1.280560	0.420808	0.333075
C141	C	1.613893	0.754141	0.666409
C142	C	1.024330	0.088609	-0.000283
C143	C	1.357664	0.421943	0.333051
C144	C	1.690997	0.755276	0.666384
C145	C	0.814762	0.220638	-0.000242
C146	C	1.148095	0.553972	0.333092
C147	C	1.481428	0.887305	0.666425
C148	C	0.815896	0.298143	-0.000253
C149	C	1.149230	0.631476	0.333080
C150	C	1.482563	0.964809	0.666413
N151	N	0.820199	0.092963	0.177931
N152	N	1.153532	0.426296	0.511264
N153	N	1.486865	0.759630	0.844597
N154	N	0.820247	0.092974	-0.178380
N155	N	1.153581	0.426307	0.154953
N156	N	1.486914	0.759641	0.488287
C157	C	0.867579	0.045372	0.217312
C158	C	1.200912	0.378705	0.550646
C159	C	1.534245	0.712038	0.883979
C160	C	0.867583	0.045368	0.296114
C161	C	1.200916	0.378702	0.629448
C162	C	1.534250	0.712035	0.962781
C163	C	0.820213	0.092969	0.335531
C164	C	1.153547	0.426302	0.668865
C165	C	1.486880	0.759635	1.002198
C166	C	0.772824	0.140564	0.296140
C167	C	1.106158	0.473897	0.629474
C168	C	1.439491	0.807230	0.962807
C169	C	0.772817	0.140561	0.217340
C170	C	1.106150	0.473894	0.550673
C171	C	1.439484	0.807228	0.884007
C172	C	0.810919	0.156585	0.460362
C173	C	1.144253	0.489919	0.793696
C174	C	1.477586	0.823252	1.127029
C175	C	0.810931	0.156589	0.539161
C176	C	1.144265	0.489922	0.872495
C177	C	1.477598	0.823256	1.205828
C178	C	0.820232	0.092977	0.578578
C179	C	1.153565	0.426310	0.911911
C180	C	1.486899	0.759644	1.245244
C181	C	0.829535	0.029359	0.539185
C182	C	1.162868	0.362692	0.872519
C183	C	1.496202	0.696025	1.205852
C184	C	0.829528	0.029356	0.460385
C185	C	1.162861	0.362689	0.793719
C186	C	1.496194	0.696022	1.127052
C187	C	0.820216	0.092977	0.420977
C188	C	1.153549	0.426310	0.754310
C189	C	1.486882	0.759643	1.087644
C190	C	0.867619	0.045378	0.703405
C191	C	1.200952	0.378711	1.036739
C192	C	1.534286	0.712045	1.370072
C193	C	0.867618	0.045374	0.782208
C194	C	1.200951	0.378707	1.115542
C195	C	1.534285	0.712041	1.448875
C196	C	0.772863	0.140575	0.782233
C197	C	1.106196	0.473909	1.115566
C198	C	1.439530	0.807242	1.448900
C199	C	0.772861	0.140573	0.703431
C200	C	1.106194	0.473907	1.036765
C201	C	1.439527	0.807240	1.370098
C202	C	0.820242	0.092976	0.664022
C203	C	1.153576	0.426309	0.997355
C204	C	1.486909	0.759642	1.330689
H205	H	0.594003	0.212680	-0.000201
H206	H	0.927336	0.546013	0.333132
H207	H	1.260670	0.879347	0.666465
F208	F	0.801071	0.224296	0.418420
F209	F	1.134404	0.557629	0.751754
F210	F	1.467737	0.890963	1.085087
H211	H	0.734254	0.179319	0.328238
H212	H	1.067588	0.512653	0.661571
H213	H	1.400921	0.845986	0.994904
F214	F	0.635932	-0.033994	-0.000143
F215	F	0.969266	0.299339	0.333190
F216	F	1.302599	0.632673	0.666524
H217	H	0.462577	0.210742	-0.000215
H218	H	0.795910	0.544075	0.333118
H219	H	1.129243	0.877408	0.666451
H220	H	0.937355	-0.266541	-0.000239
H221	H	1.270688	0.066793	0.333094
H222	H	1.604021	0.400126	0.666428
F223	F	0.722435	0.191230	0.661515
F224	F	1.055768	0.524563	0.994848
F225	F	1.389102	0.857896	1.328182
H226	H	0.242684	0.180439	0.079324
H227	H	0.576017	0.513772	0.412658
H228	H	0.909350	0.847105	0.745991
F229	F	0.691699	-0.242591	-0.000192
F230	F	1.025032	0.090742	0.333142
F231	F	1.358365	0.424076	0.666475
H232	H	0.906199	0.006616	0.814274
H233	H	1.239532	0.339949	1.147607
H234	H	1.572865	0.673282	1.480940
H235	H	0.709591	-0.103502	-0.000189
H236	H	1.042925	0.229831	0.333145
H237	H	1.376258	0.563165	0.666478
H238	H	0.939293	-0.134431	-0.000220
H239	H	1.272626	0.198902	0.333114
H240	H	1.605960	0.532235	0.666447
H241	H	0.932783	-0.578442	-0.000257
H242	H	1.266116	-0.245109	0.333076
H243	H	1.599450	0.088225	0.666409
F244	F	0.918014	-0.005287	0.338034
F245	F	1.251347	0.328046	0.671367
F246	F	1.584681	0.661379	1.004701
H247	H	0.734234	0.179316	0.185275
H248	H	1.067567	0.512650	0.518608
H249	H	1.400900	0.845983	0.851941
H250	H	0.374116	0.182379	0.079348
H251	H	0.707449	0.515712	0.412681
H252	H	1.040782	0.849046	0.746014
H253	H	0.397756	0.005502	-0.079797
H254	H	0.731089	0.338835	0.253536
H255	H	1.064422	0.672168	0.586870
H256	H	0.734291	0.179330	0.814326
H257	H	1.067625	0.512663	1.147659
H258	H	1.400958	0.845996	1.480992
H259	H	0.930844	-0.710552	-0.000281
H260	H	1.264177	-0.377218	0.333052
H261	H	1.597510	-0.043885	0.666385
H262	H	0.701147	-0.679631	-0.000228
H263	H	1.034481	-0.346297	0.333105
H264	H	1.367814	-0.012964	0.666439
F265	F	0.189041	-0.040578	-0.000239
F266	F	0.522374	0.292755	0.333095
F267	F	0.855708	0.626089	0.666428
H268	H	0.906198	0.006619	0.671317
H269	H	1.239531	0.339952	1.004650
H270	H	1.572865	0.673286	1.337984
F271	F	0.918003	-0.005288	0.175372
F272	F	1.251337	0.328046	0.508705
F273	F	1.584670	0.661379	0.842039
F274	F	0.687389	-0.536280	-0.000212
F275	F	1.020723	-0.202947	0.333121
F276	F	1.354056	0.130386	0.666455
H277	H	0.837108	-0.022440	0.571277
H278	H	1.170441	0.310893	0.904610
H279	H	1.503775	0.644226	1.237943
F280	F	0.154056	0.222138	-0.000281
F281	F	0.487389	0.555471	0.333053
F282	F	0.820722	0.888804	0.666386
F283	F	0.004513	0.219931	-0.000298
F284	F	0.337846	0.553265	0.333035
F285	F	0.671179	0.886598	0.666368
H286	H	0.493320	-0.020148	-0.000193
H287	H	0.826653	0.313185	0.333140
H288	H	1.159987	0.646518	0.666474
H289	H	0.837101	-0.022444	0.428315
H290	H	1.170434	0.310889	0.761649
H291	H	1.503767	0.644222	1.094982
F292	F	0.039497	-0.042783	-0.000263
F293	F	0.372831	0.290550	0.333070
F294	F	0.706164	0.623884	0.666403
H295	H	0.803361	0.208391	0.571228
H296	H	1.136694	0.541724	0.904562
H297	H	1.470028	0.875057	1.237895
F298	F	0.258902	-0.008753	-0.090792
F299	F	0.592235	0.324581	0.242541
F300	F	0.925569	0.657914	0.575874
