data_functionalizedCrystal
_audit_creation_method	'MofGen! by Chris Wilmer'
_symmetry_space_group_name_H-M	'P1'
_symmetry_Int_Tables_number	1
_symmetry_cell_setting	triclinic
loop_
_symmetry_equiv_pos_as_xyz
  x,y,z
_cell_length_a	12.759401
_cell_length_b	17.638516
_cell_length_c	12.759393
_cell_angle_alpha	78.830562
_cell_angle_beta	90.019097
_cell_angle_gamma	101.242864
loop_
_atom_site_label
_atom_site_type_symbol
_atom_site_fract_x
_atom_site_fract_y
_atom_site_fract_z
Zn1	Zn	1.521590	-0.314635	0.678455
Zn2	Zn	2.021590	0.185365	1.178455
Zn3	Zn	1.485909	-0.446836	0.538261
Zn4	Zn	1.985909	0.053164	1.038261
Zn5	Zn	1.345880	-0.314675	0.502803
Zn6	Zn	1.845880	0.185325	1.002803
Zn7	Zn	1.310322	-0.446775	0.713885
Zn8	Zn	1.810322	0.053225	1.213885
O9	O	1.415925	-0.380730	0.608351
O10	O	1.915925	0.119270	1.108351
O11	O	1.663875	-0.332180	0.659870
O12	O	2.163875	0.167820	1.159870
O13	O	1.467283	-0.429347	0.386548
O14	O	1.967283	0.070653	0.886548
O15	O	1.399002	-0.204059	0.496437
O16	O	1.899002	0.295941	0.996437
O17	O	1.637661	-0.429308	0.556870
O18	O	2.137661	0.070692	1.056870
O19	O	1.528095	-0.204029	0.625487
O20	O	2.028095	0.295971	1.125487
O21	O	1.364405	-0.332250	0.360497
O22	O	1.864405	0.167750	0.860497
O23	O	1.194145	-0.332190	0.530792
O24	O	1.694145	0.167810	1.030792
O25	O	1.338398	-0.429203	0.856194
O26	O	1.838398	0.070797	1.356194
O27	O	1.168020	-0.429243	0.685872
O28	O	1.668020	0.070757	1.185872
O29	O	1.493615	-0.332120	0.830164
O30	O	1.993615	0.167880	1.330164
O31	O	1.432804	-0.557438	0.591225
O32	O	1.932804	-0.057438	1.091225
O33	O	1.303801	-0.557393	0.720255
O34	O	1.803801	-0.057393	1.220255
C35	C	1.142962	-0.380715	0.608330
C36	C	1.642962	0.119285	1.108330
C37	C	1.026182	-0.380727	0.608351
C38	C	1.526182	0.119273	1.108351
C39	C	1.360601	-0.586096	0.663455
C40	C	1.860601	-0.086096	1.163455
C41	C	1.337029	-0.673952	0.687064
C42	C	1.837029	-0.173952	1.187064
C43	C	0.875213	-0.330254	0.662123
C44	C	1.375213	0.169746	1.162123
C45	C	0.984940	-0.330244	0.662110
C46	C	1.484940	0.169756	1.162110
C47	C	0.957690	-0.431231	0.554609
C48	C	1.457690	0.068769	1.054609
C49	C	0.847964	-0.431246	0.554628
C50	C	1.347964	0.068754	1.054628
C51	C	0.833978	-0.279762	0.715877
C52	C	1.333978	0.220238	1.215877
C53	C	0.902463	-0.229259	0.769620
C54	C	1.402463	0.270741	1.269620
C55	C	1.012190	-0.229248	0.769608
C56	C	1.512190	0.270752	1.269608
C57	C	1.053432	-0.279740	0.715852
C58	C	1.553432	0.220260	1.215852
C59	C	1.595631	-0.962880	0.429077
C60	C	2.095631	-0.462880	0.929077
C61	C	1.573464	-1.045435	0.451278
C62	C	2.073464	-0.545435	0.951278
C63	C	1.439020	-1.045432	0.585530
C64	C	1.939020	-0.545432	1.085530
C65	C	1.461173	-0.962876	0.563336
C66	C	1.961173	-0.462876	1.063336
C67	C	1.539480	-0.921607	0.485109
C68	C	2.039480	-0.421607	0.985109
C69	C	1.405021	-0.921603	0.619369
C70	C	1.905021	-0.421603	1.119369
C71	C	1.427177	-0.839054	0.597181
C72	C	1.927177	-0.339054	1.097181
C73	C	1.505483	-0.797779	0.518960
C74	C	2.005483	-0.297779	1.018960
C75	C	1.561636	-0.839058	0.462921
C76	C	2.061636	-0.339058	0.962921
C77	C	1.326719	-0.962874	0.697601
C78	C	1.826719	-0.462874	1.197601
C79	C	1.270568	-0.921600	0.753634
C80	C	1.770568	-0.421600	1.253634
C81	C	1.292718	-0.839050	0.731441
C82	C	1.792718	-0.339050	1.231441
C83	C	1.371024	-0.797775	0.653219
C84	C	1.871024	-0.297775	1.153219
C85	C	1.236565	-0.797771	0.787479
C86	C	1.736565	-0.297771	1.287479
C87	C	1.258721	-0.715222	0.765291
C88	C	1.758721	-0.215222	1.265291
C89	C	1.393180	-0.715226	0.631031
C90	C	1.893180	-0.215226	1.131031
C91	C	1.689954	-0.380746	0.608373
C92	C	2.189954	0.119254	1.108373
C93	C	1.806729	-0.380753	0.608382
C94	C	2.306729	0.119247	1.108382
C95	C	1.416020	-0.380650	0.882363
C96	C	1.916020	0.119350	1.382363
C97	C	1.416061	-0.380616	0.999131
C98	C	1.916061	0.119384	1.499131
C99	C	1.471495	-0.174562	0.553055
C100	C	1.971495	0.325438	1.053055
C101	C	1.495175	-0.086706	0.529491
C102	C	1.995175	0.413294	1.029491
C103	C	1.415907	-0.380752	0.335390
C104	C	1.915907	0.119248	0.835390
C105	C	1.416130	-0.380564	0.218563
C106	C	1.916130	0.119436	0.718563
C107	C	1.496893	-0.330061	1.040439
C108	C	1.996893	0.169939	1.540439
C109	C	1.496926	-0.330032	1.150156
C110	C	1.996926	0.169968	1.650156
C111	C	1.335289	-0.431122	1.177247
C112	C	1.835289	0.068878	1.677247
C113	C	1.335253	-0.431146	1.067532
C114	C	1.835253	0.068854	1.567532
C115	C	1.577701	-0.279531	0.972038
C116	C	2.077701	0.220469	1.472038
C117	C	1.658540	-0.228972	1.013346
C118	C	2.158540	0.271028	1.513346
C119	C	1.658573	-0.228943	1.123063
C120	C	2.158573	0.271057	1.623063
C121	C	1.577766	-0.279474	1.191471
C122	C	2.077766	0.220526	1.691471
H123	H	0.744636	-0.279761	0.715887
H124	H	1.244636	0.220239	1.215887
F125	F	1.633235	-1.089358	0.391635
F126	F	2.133235	-0.589358	0.891635
F127	F	0.775072	-0.485001	0.497448
F128	F	1.275072	0.014999	0.997448
H129	H	1.724324	-0.187827	0.957640
H130	H	2.224324	0.312173	1.457640
F131	F	1.577675	-0.279560	0.855269
F132	F	2.077675	0.220440	1.355269
F133	F	1.355685	-1.089363	0.668786
F134	F	1.855685	-0.589363	1.168786
F135	F	0.858567	-0.175532	0.826839
F136	F	1.358567	0.324468	1.326839
H137	H	1.724390	-0.187770	1.156690
H138	H	2.224390	0.312230	1.656690
H139	H	1.172815	-0.831385	0.851179
H140	H	1.672815	-0.331385	1.351179
F141	F	1.001587	-0.484963	0.497400
F142	F	1.501587	0.015037	0.997400
H143	H	1.456938	-0.681622	0.567323
H144	H	1.956938	-0.181622	1.067323
F145	F	1.198960	-0.671293	0.824929
F146	F	1.698960	-0.171293	1.324929
F147	F	1.644964	-0.795131	0.379646
F148	F	2.144964	-0.295131	0.879646
H149	H	1.067947	-0.188131	0.813377
H150	H	1.567947	0.311869	1.313377
F151	F	1.678959	-0.918954	0.345801
F152	F	2.178959	-0.418954	0.845801
F153	F	1.170214	-0.279732	0.715851
F154	F	1.670214	0.220268	1.215851
H155	H	1.577789	-0.279437	1.280806
H156	H	2.077789	0.220563	1.780806
F157	F	1.187234	-0.965531	0.836889
F158	F	1.687234	-0.465531	1.336889
F159	F	1.529137	-0.709922	0.495419
F160	F	2.029137	-0.209922	0.995419
F161	F	1.249298	-0.484898	1.250056
F162	F	1.749298	0.015102	1.750056
F163	F	1.302798	-1.050730	0.720870
F164	F	1.802798	-0.550730	1.220870
H165	H	1.269420	-0.472301	1.033895
H166	H	1.769420	0.027699	1.533895
