data_functionalizedCrystal
_audit_creation_method	'MofGen! by Chris Wilmer'
_symmetry_space_group_name_H-M	'P1'
_symmetry_Int_Tables_number	1
_symmetry_cell_setting	triclinic
loop_
_symmetry_equiv_pos_as_xyz
  x,y,z
_cell_length_a	11.026607
_cell_length_b	26.210047
_cell_length_c	11.026660
_cell_angle_alpha	89.991207
_cell_angle_beta	108.585426
_cell_angle_gamma	90.010318
loop_
_atom_site_label
_atom_site_type_symbol
_atom_site_fract_x
_atom_site_fract_y
_atom_site_fract_z
O1	O	1.726734	0.042424	0.533603
O2	O	1.360155	0.042425	0.472840
O3	O	1.513065	0.042424	0.319933
O4	O	1.573824	0.042425	0.686510
O5	O	1.513033	-0.042434	0.319955
O6	O	1.360124	-0.042433	0.472862
O7	O	1.726703	-0.042435	0.533625
Cu8	Cu	1.543410	-0.050182	0.503246
Cu9	Cu	1.543447	0.050172	0.503220
O10	O	1.573793	-0.042434	0.686532
C11	C	1.312480	-0.000004	0.461642
C12	C	1.170466	-0.000003	0.428225
N13	N	1.543394	-0.120766	0.503266
C14	C	1.116816	-0.000003	0.520494
C15	C	0.970037	-0.000002	0.485958
C16	C	1.611151	-0.473280	0.435530
C17	C	1.611175	-0.686939	0.435519
O18	O	1.668737	-0.714561	0.377922
N19	N	1.543448	-0.713660	0.503193
C20	C	1.475703	-0.686963	0.570869
O21	O	1.418086	-0.714593	0.628419
C22	C	1.475672	-0.473305	0.570872
C23	C	1.543414	-0.446587	0.503203
C24	C	1.678887	-0.446562	0.367866
C25	C	1.678886	-0.393151	0.367875
C26	C	1.611149	-0.366458	0.435549
C27	C	1.543413	-0.393176	0.503213
C28	C	1.407920	-0.446609	0.638539
C29	C	1.407916	-0.393191	0.638531
C30	C	1.475658	-0.366473	0.570863
C31	C	1.475675	-0.313071	0.570895
N32	N	1.543403	-0.286350	0.503221
C33	C	1.611140	-0.313043	0.435547
C34	C	1.475726	-0.799136	0.570864
C35	C	1.475735	-0.852550	0.570865
C36	C	1.611206	-0.852523	0.435513
C37	C	1.611203	-0.799108	0.435520
C38	C	1.543453	-0.772415	0.503190
C39	C	1.611133	-0.200876	0.435573
C40	C	1.611130	-0.147459	0.435592
C41	C	1.475655	-0.147491	0.570939
C42	C	1.475662	-0.200903	0.570925
C43	C	1.543404	-0.227594	0.503232
O44	O	1.418132	-0.285416	0.628450
O45	O	1.668725	-0.285404	0.377982
C46	C	1.611152	-0.526692	0.435521
C47	C	1.543416	-0.553410	0.503185
C48	C	1.475680	-0.526717	0.570858
C49	C	1.543426	-0.606824	0.503186
C50	C	1.611163	-0.633518	0.435513
C51	C	1.678890	-0.606797	0.367838
C52	C	1.678889	-0.553385	0.367847
C53	C	1.407952	-0.553438	0.638533
C54	C	1.407960	-0.606849	0.638519
C55	C	1.475697	-0.633542	0.570846
C56	C	1.774378	-0.000005	0.544824
C57	C	1.916392	-0.000002	0.578241
C58	C	1.501840	-0.000004	0.272285
C59	C	1.468424	-0.000001	0.130272
N60	N	1.543472	0.120756	0.503192
C61	C	1.526166	-0.000003	-0.070154
C62	C	1.560705	-0.000002	0.076624
C63	C	1.585018	-0.000004	0.734180
C64	C	1.618433	-0.000004	0.876193
H65	H	0.907310	0.000011	0.381389
C66	C	1.757786	-0.000029	-0.039959
C67	C	1.764339	-0.000040	0.088954
C68	C	1.892692	-0.000070	0.166228
H69	H	1.799157	0.029554	-0.057433
H70	H	1.799035	-0.029634	-0.057500
H71	H	1.723108	0.029561	0.106488
H72	H	1.722995	-0.029621	0.106468
H73	H	1.933940	-0.029674	0.148687
H74	H	1.934052	0.029514	0.148743
H75	H	1.897155	-0.000082	0.253703
C76	C	1.752192	-0.635813	0.294168
C77	C	1.667249	-0.666466	0.201279
C78	C	1.734713	-0.693201	0.133376
H79	H	1.815251	-0.656692	0.351482
H80	H	1.792502	-0.612271	0.253780
H81	H	1.626960	-0.690005	0.241665
H82	H	1.604189	-0.645600	0.143937
H83	H	1.775023	-0.669659	0.092988
H84	H	1.797770	-0.714077	0.190700
H85	H	1.677089	-0.713999	0.070336
C86	C	1.087051	-0.000028	0.288722
C87	C	1.164993	-0.000041	0.210290
C88	C	1.088200	-0.000070	0.081771
H89	H	1.034565	0.029555	0.271666
H90	H	1.034587	-0.029632	0.271795
H91	H	1.217435	0.029560	0.227209
H92	H	1.217479	-0.029622	0.227306
H93	H	1.035736	-0.029674	0.064844
H94	H	1.035717	0.029514	0.064728
H95	H	1.141072	-0.000084	0.028539
C96	C	1.200296	0.000076	0.659974
C97	C	1.174066	0.043728	0.720433
C98	C	1.250928	0.043814	0.848928
H99	H	1.287867	0.000101	0.664833
H100	H	1.182638	-0.029500	0.701275
H101	H	1.191733	0.073296	0.679143
H102	H	1.086509	0.043712	0.715610
H103	H	1.233270	0.014238	0.890230
H104	H	1.338495	0.043838	0.853774
H105	H	1.233133	0.073429	0.889969
H106	H	0.979118	-0.000005	0.682810
H107	H	1.666299	-0.125707	0.380489
C108	C	1.684810	-0.229757	0.362052
C109	C	1.744147	-0.194917	0.302830
C110	C	1.812046	-0.221503	0.235111
H111	H	1.627510	-0.250594	0.298868
H112	H	1.747941	-0.250582	0.419486
H113	H	1.681024	-0.174100	0.245401
H114	H	1.801468	-0.174078	0.365985
H115	H	1.875177	-0.242328	0.292545
H116	H	1.754737	-0.242339	0.171933
H117	H	1.852324	-0.197868	0.194930
C118	C	1.752447	-0.364239	0.294260
C119	C	1.811729	-0.399058	0.234970
C120	C	1.879489	-0.372447	0.167122
H121	H	1.815602	-0.343398	0.351585
H122	H	1.695031	-0.343416	0.231106
H123	H	1.869141	-0.419872	0.298116
H124	H	1.748603	-0.419901	0.177624
H125	H	1.822073	-0.351624	0.103968
H126	H	1.942638	-0.351607	0.224456
H127	H	1.919711	-0.396067	0.126876
C128	C	1.752206	-0.475565	0.294198
C129	C	1.667305	-0.506224	0.201288
C130	C	1.734812	-0.532938	0.133394
H131	H	1.815278	-0.496439	0.351514
H132	H	1.792504	-0.452011	0.253828
H133	H	1.627028	-0.529775	0.241656
H134	H	1.604232	-0.485362	0.143944
H135	H	1.775110	-0.509385	0.093024
H136	H	1.797881	-0.553809	0.190720
H137	H	1.677216	-0.553740	0.070339
H138	H	1.666364	-0.777357	0.380418
H139	H	1.666362	-0.874266	0.380413
C140	C	1.334228	-0.524432	0.711788
C141	C	1.241358	-0.493774	0.626843
C142	C	1.173414	-0.467055	0.694290
H143	H	1.391521	-0.503557	0.774880
H144	H	1.293820	-0.547983	0.752056
H145	H	1.281764	-0.470227	0.586596
H146	H	1.184038	-0.514637	0.563750
H147	H	1.133006	-0.490605	0.734558
H148	H	1.230717	-0.446182	0.757380
H149	H	1.110387	-0.446253	0.636664
H150	H	1.352801	-0.628599	0.693635
H151	H	1.363854	0.000001	0.067548
C152	C	1.402147	-0.770252	0.644480
C153	C	1.342875	-0.805092	0.703768
C154	C	1.275102	-0.778506	0.771613
H155	H	1.338985	-0.749416	0.587153
H156	H	1.459554	-0.749426	0.707634
H157	H	1.285471	-0.825910	0.640622
H158	H	1.406007	-0.825930	0.761115
H159	H	1.332510	-0.757679	0.834767
H160	H	1.211947	-0.757670	0.714277
H161	H	1.234888	-0.802140	0.811858
C162	C	1.334552	-0.364239	0.712247
C163	C	1.382587	-0.377232	0.841998
C164	C	1.315052	-0.350567	0.909947
H165	H	1.246459	-0.372977	0.679935
H166	H	1.344272	-0.328595	0.702652
H167	H	1.372855	-0.412867	0.851585
H168	H	1.470672	-0.368492	0.874346
H169	H	1.324772	-0.314923	0.900353
H170	H	1.226961	-0.359307	0.877626
H171	H	1.347641	-0.359375	0.997992
H172	H	1.421603	-0.000000	-0.132884
C173	C	1.401981	-0.229822	0.644415
C174	C	1.342636	-0.195010	0.703656
C175	C	1.274719	-0.221627	0.771336
H176	H	1.459272	-0.250667	0.707587
H177	H	1.338854	-0.250643	0.586955
H178	H	1.405755	-0.174198	0.761111
H179	H	1.285324	-0.174164	0.640513
H180	H	1.211592	-0.242448	0.713877
H181	H	1.332019	-0.242471	0.834502
H182	H	1.234436	-0.198011	0.811530
H183	H	1.420589	-0.874301	0.625983
H184	H	1.352757	-0.468356	0.693640
H185	H	1.420508	-0.125749	0.626042
H186	H	1.734051	-0.531635	0.312745
H187	H	1.665275	0.000016	0.139349
