data_functionalizedCrystal
_audit_creation_method	'MofGen! by Chris Wilmer'
_symmetry_space_group_name_H-M	'P1'
_symmetry_Int_Tables_number	1
_symmetry_cell_setting	triclinic
loop_
_symmetry_equiv_pos_as_xyz
  x,y,z
_cell_length_a	16.956995
_cell_length_b	9.482900
_cell_length_c	16.974813
_cell_angle_alpha	84.269849
_cell_angle_beta	79.732302
_cell_angle_gamma	98.589332
loop_
_atom_site_label
_atom_site_type_symbol
_atom_site_fract_x
_atom_site_fract_y
_atom_site_fract_z
O1	O	1.070688	0.123269	0.019320
O2	O	0.838830	0.126474	0.046731
O3	O	0.959850	0.111446	-0.081036
O4	O	0.949668	0.138297	0.147087
O5	O	0.935269	-0.127283	-0.054986
O6	O	0.814250	-0.112255	0.072781
O7	O	1.046107	-0.115460	0.045370
Cu8	Cu	0.927934	-0.135655	0.061454
Cu9	Cu	0.957004	0.146669	0.030647
O10	O	0.925087	-0.100431	0.173137
C11	C	0.796847	0.007272	0.061160
C12	C	0.708372	0.007756	0.065333
N13	N	0.907494	-0.334227	0.083122
C14	C	0.209420	0.011483	0.096539
C15	C	0.292552	0.011020	0.092613
C16	C	0.342828	0.002334	0.018915
C17	C	0.309970	-0.005874	-0.050862
C18	C	0.226841	-0.005401	-0.046936
C19	C	0.592384	0.000021	-0.000519
C20	C	0.675518	-0.000456	-0.004439
C21	C	0.658095	0.016440	0.139036
C22	C	0.574964	0.016905	0.142957
C23	C	0.542114	0.008704	0.073178
N24	N	0.427802	0.001856	0.014901
N25	N	0.457142	0.009193	0.077192
C26	C	0.950969	-0.411847	0.037034
C27	C	0.933968	-0.577143	0.055067
C28	C	1.088091	0.003745	0.030941
C29	C	1.176567	0.003271	0.026767
C30	C	0.946716	-0.011335	-0.097064
C31	C	0.944191	-0.021516	-0.183633
N32	N	0.977450	0.345240	0.008973
C33	C	0.956405	0.103830	-0.238499
C34	C	0.954027	0.094260	-0.319839
C35	C	0.939440	-0.040659	-0.346312
C36	C	0.927222	-0.166015	-0.291439
C37	C	0.929595	-0.156443	-0.210100
C38	C	0.930903	-0.083241	-0.588055
C39	C	0.928534	-0.092804	-0.669401
C40	C	0.955337	0.167473	-0.697795
C41	C	0.957713	0.177033	-0.616454
C42	C	0.945491	0.051677	-0.561587
N43	N	0.937012	-0.050445	-0.429454
N44	N	0.947914	0.061464	-0.478446
C45	C	0.938222	0.022353	0.189165
C46	C	0.940748	0.032543	0.275733
H47	H	0.168489	0.018545	0.156553
H48	H	0.915341	-0.275869	-0.312998
H49	H	0.920967	-0.185315	-0.543394
O50	O	0.526072	0.025544	0.214480
C51	C	0.434900	0.159630	0.288692
C52	C	0.490225	0.150005	0.207639
H53	H	0.405916	0.260265	0.283193
H54	H	0.385200	0.060441	0.305035
H55	H	0.472676	0.165353	0.337876
H56	H	0.452517	0.144327	0.158401
H57	H	0.539927	0.249194	0.191365
H58	H	0.319298	0.017720	0.149427
O59	O	0.967232	0.289378	-0.750987
C60	C	0.993959	0.548547	-0.770543
C61	C	0.980538	0.410598	-0.710226
H62	H	1.004703	0.646589	-0.737608
H63	H	1.049187	0.549457	-0.820084
H64	H	0.937857	0.551714	-0.798587
H65	H	1.036594	0.407341	-0.682122
H66	H	0.925278	0.409744	-0.660733
H67	H	0.716453	-0.007523	-0.064457
H68	H	0.916651	-0.202676	-0.690950
H69	H	0.857684	-0.390145	0.135927
H70	H	0.919637	-0.258514	-0.165425
O71	O	0.560604	-0.008036	-0.068367
C72	C	0.586672	-0.024784	-0.211095
C73	C	0.622770	-0.015694	-0.134313
H74	H	0.636919	-0.030948	-0.264436
H75	H	0.537920	-0.124922	-0.201990
H76	H	0.558454	0.074903	-0.223709
H77	H	0.651031	-0.115307	-0.121655
H78	H	0.671482	0.084507	-0.143456
H79	H	0.684851	0.023119	0.195846
H80	H	0.969592	0.286898	-0.594907
O81	O	0.358909	-0.014113	-0.122427
C82	C	0.475590	0.099257	-0.223647
C83	C	0.420246	0.108759	-0.142584
H84	H	0.525184	0.198600	-0.239978
H85	H	0.504710	-0.001230	-0.218187
H86	H	0.437805	0.093403	-0.272821
H87	H	0.457973	0.114669	-0.093368
H88	H	0.391121	0.209230	-0.148112
O89	O	0.195050	-0.013451	-0.114782
C90	C	0.221109	-0.030165	-0.257515
C91	C	0.257212	-0.021099	-0.180734
H92	H	0.271353	-0.036320	-0.310860
H93	H	0.172355	-0.130299	-0.248414
H94	H	0.192893	0.069527	-0.270119
H95	H	0.285472	-0.120718	-0.168087
H96	H	0.305927	0.079098	-0.189873
H97	H	0.968288	0.213696	-0.216953
O98	O	1.010307	-0.345192	-0.026050
C99	C	1.059930	-0.315208	-0.169870
C100	C	0.992662	-0.390783	-0.098510
H101	H	1.045696	-0.352062	-0.228469
H102	H	1.063039	-0.193777	-0.173235
H103	H	1.120892	-0.343910	-0.160723
H104	H	0.931664	-0.362196	-0.107607
H105	H	0.989624	-0.512196	-0.095165
H106	H	0.884155	-0.633056	0.107876
O107	O	1.036770	-0.588302	-0.054180
C108	C	1.086215	-0.558910	-0.198016
C109	C	1.018984	-0.634144	-0.126537
H110	H	1.071868	-0.595966	-0.256532
H111	H	1.089421	-0.437445	-0.201523
H112	H	1.147168	-0.587697	-0.188897
H113	H	0.957996	-0.605472	-0.135607
H114	H	1.015850	-0.755591	-0.123051
O115	O	0.965979	0.216163	-0.373042
C116	C	0.992848	0.475329	-0.392627
C117	C	0.979324	0.337384	-0.332289
H118	H	1.003623	0.573372	-0.359699
H119	H	1.048089	0.476140	-0.442135
H120	H	0.936778	0.478593	-0.420714
H121	H	1.035347	0.334030	-0.304143
H122	H	0.924050	0.336629	-0.282830
