data_functionalizedCrystal
_audit_creation_method	'MofGen! by Chris Wilmer'
_symmetry_space_group_name_H-M	'P1'
_symmetry_Int_Tables_number	1
_symmetry_cell_setting	triclinic
loop_
_symmetry_equiv_pos_as_xyz
  x,y,z
_cell_length_a	12.594516
_cell_length_b	12.827893
_cell_length_c	12.827885
_cell_angle_alpha	89.980728
_cell_angle_beta	89.971946
_cell_angle_gamma	90.016213
loop_
_atom_site_label
_atom_site_type_symbol
_atom_site_fract_x
_atom_site_fract_y
_atom_site_fract_z
Zn1	Zn	-0.423686	1.597665	-0.590861
Zn2	Zn	0.076314	2.097665	-0.090861
Zn3	Zn	-0.601702	1.597557	-0.416127
Zn4	Zn	-0.101702	2.097557	0.083873
Zn5	Zn	-0.423738	1.422906	-0.416135
Zn6	Zn	0.076262	1.922906	0.083865
Zn7	Zn	-0.601623	1.422889	-0.590827
Zn8	Zn	-0.101623	1.922889	-0.090827
O9	O	-0.512687	1.510254	-0.503487
O10	O	-0.012687	2.010254	-0.003487
O11	O	-0.447311	1.743887	-0.567693
O12	O	0.052689	2.243887	-0.067693
O13	O	-0.578150	1.574351	-0.269892
O14	O	-0.078150	2.074351	0.230108
O15	O	-0.274786	1.446140	-0.439330
O16	O	0.225214	1.946140	0.060670
O17	O	-0.578099	1.743807	-0.439317
O18	O	-0.078099	2.243807	0.060683
O19	O	-0.274747	1.574535	-0.567701
O20	O	0.225253	2.074535	-0.067701
O21	O	-0.447400	1.446036	-0.269898
O22	O	0.052600	1.946036	0.230102
O23	O	-0.447324	1.276668	-0.439297
O24	O	0.052676	1.776668	0.060703
O25	O	-0.577965	1.446112	-0.737067
O26	O	-0.077965	1.946112	-0.237067
O27	O	-0.578016	1.276656	-0.567642
O28	O	-0.078016	1.776656	-0.067642
O29	O	-0.447235	1.574519	-0.737093
O30	O	0.052765	2.074519	-0.237093
O31	O	-0.750637	1.574335	-0.439283
O32	O	-0.250637	2.074335	0.060717
O33	O	-0.750580	1.446007	-0.567635
O34	O	-0.250580	1.946007	-0.067635
C35	C	-0.512668	1.238744	-0.503468
C36	C	-0.012668	1.738744	-0.003468
C37	C	-0.512685	1.122591	-0.503484
C38	C	-0.012685	1.622591	-0.003484
C39	C	-0.448082	1.070846	-0.567108
C40	C	0.051918	1.570846	-0.067108
C41	C	-0.448098	0.950795	-0.567126
C42	C	0.051902	1.450795	-0.067126
C43	C	-0.789228	1.510186	-0.503477
C44	C	-0.289228	2.010186	-0.003477
C45	C	-0.907534	1.510252	-0.503508
C46	C	-0.407534	2.010252	-0.003508
C47	C	-0.976794	1.440448	-0.573269
C48	C	-0.476794	1.940448	-0.073269
C49	C	-1.047663	1.414986	-0.477914
C50	C	-0.547663	1.914986	0.022086
C51	C	-1.047464	1.535809	-0.598879
C52	C	-0.547464	2.035809	-0.098879
C53	C	-0.976844	1.484740	-0.408102
C54	C	-0.476844	1.984740	0.091898
C55	C	-0.976639	1.605607	-0.529132
C56	C	-0.476639	2.105607	-0.029132
C57	C	-1.047476	1.580182	-0.433711
C58	C	-0.547476	2.080182	0.066289
C59	C	-0.235067	1.510352	-0.503521
C60	C	0.264933	2.010352	-0.003521
C61	C	-0.116761	1.510393	-0.503535
C62	C	0.383239	2.010393	-0.003535
C63	C	-0.512585	1.510325	-0.776058
C64	C	-0.012585	2.010325	-0.276058
C65	C	-0.512542	1.510356	-0.892211
C66	C	-0.012542	2.010356	-0.392211
C67	C	-0.512708	1.782824	-0.503508
C68	C	-0.012708	2.282824	-0.003508
C69	C	-0.512717	1.898978	-0.503517
C70	C	-0.012717	2.398978	-0.003517
C71	C	-0.447840	1.573902	-0.944008
C72	C	0.052160	2.073902	-0.444008
C73	C	-0.447793	1.573935	-1.064059
C74	C	0.052207	2.073935	-0.564059
C75	C	-0.512712	1.510244	-0.231978
C76	C	-0.012712	2.010244	0.268022
C77	C	-0.512456	1.510416	-0.115825
C78	C	-0.012456	2.010416	0.384175
H79	H	-0.945758	1.381312	-0.632178
H80	H	-0.445758	1.881312	-0.132178
H81	H	-0.392477	1.628279	-0.899477
H82	H	0.107523	2.128279	-0.399477
H83	H	-1.078316	1.639273	-0.374660
H84	H	-0.578316	2.139273	0.125340
H85	H	-0.567857	1.456012	-1.071287
H86	H	-0.067857	1.956012	-0.571287
N87	N	-0.585870	1.438323	-0.951198
N88	N	-0.085870	1.938323	-0.451198
H89	H	-0.661947	1.454502	-0.932256
H90	H	-0.161947	1.954502	-0.432256
H91	H	-0.569268	1.363669	-0.932235
H92	H	-0.069268	1.863669	-0.432235
N93	N	-0.374817	1.129877	-0.639266
N94	N	0.125183	1.629877	-0.139266
H95	H	-0.385201	1.207269	-0.629035
H96	H	0.114799	1.707269	-0.129035
H97	H	-0.391484	1.110875	-0.713884
H98	H	0.108516	1.610875	-0.213884
N99	N	-0.374836	0.891862	-0.639290
N100	N	0.125164	1.391862	-0.139290
H101	H	-0.385234	0.814456	-0.629076
H102	H	0.114766	1.314456	-0.129076
H103	H	-0.298779	0.910887	-0.623164
H104	H	0.201221	1.410887	-0.123164
N105	N	-1.088567	1.564371	-0.705694
N106	N	-0.588567	2.064371	-0.205694
H107	H	-1.062856	1.511537	-0.758317
H108	H	-0.562856	2.011537	-0.258317
H109	H	-1.061615	1.635848	-0.725490
H110	H	-0.561615	2.135848	-0.225490
N111	N	-0.374419	1.646012	-1.123051
N112	N	0.125581	2.146012	-0.623051
H113	H	-0.384788	1.635820	-1.200448
H114	H	0.115212	2.135820	-0.700448
H115	H	-0.298390	1.629786	-1.104036
H116	H	0.201610	2.129786	-0.604036
N117	N	-0.585990	0.957899	-0.431354
N118	N	-0.085990	1.457899	0.068646
H119	H	-0.635319	1.003199	-0.473773
H120	H	-0.135319	1.503199	0.026227
H121	H	-0.542553	1.003107	-0.383045
H122	H	-0.042553	1.503107	0.116955
N123	N	-0.585965	1.063550	-0.431349
N124	N	-0.085965	1.563550	0.068651
H125	H	-0.662050	1.082484	-0.447433
H126	H	-0.162050	1.582484	0.052567
H127	H	-0.569270	1.082478	-0.356718
H128	H	-0.069270	1.582478	0.143282
H129	H	-0.945951	1.463087	-0.327436
H130	H	-0.445951	1.963087	0.172564
N131	N	-1.088977	1.308253	-0.449196
N132	N	-0.588977	1.808253	0.050804
H133	H	-1.063271	1.255518	-0.501920
H134	H	-0.563271	1.755518	-0.001920
H135	H	-1.169158	1.309357	-0.448733
H136	H	-0.669158	1.809357	0.051267
N137	N	-0.935284	1.712315	-0.557862
N138	N	-0.435284	2.212315	-0.057862
H139	H	-0.960924	1.731506	-0.629945
H140	H	-0.460924	2.231506	-0.129945
H141	H	-0.855104	1.711555	-0.556903
H142	H	-0.355104	2.211555	-0.056903
