data_functionalizedCrystal
_audit_creation_method	'MofGen! by Chris Wilmer'
_symmetry_space_group_name_H-M	'P1'
_symmetry_Int_Tables_number	1
_symmetry_cell_setting	triclinic
loop_
_symmetry_equiv_pos_as_xyz
  x,y,z
_cell_length_a	12.827893
_cell_length_b	12.759400
_cell_length_c	12.827885
_cell_angle_alpha	90.030494
_cell_angle_beta	90.019272
_cell_angle_gamma	90.014655
loop_
_atom_site_label
_atom_site_type_symbol
_atom_site_fract_x
_atom_site_fract_y
_atom_site_fract_z
Zn1	Zn	1.597675	-0.418216	0.590844
Zn2	Zn	2.097675	0.081784	1.090844
Zn3	Zn	1.597571	-0.593932	0.416102
Zn4	Zn	2.097571	-0.093932	0.916102
Zn5	Zn	1.422916	-0.418267	0.416117
Zn6	Zn	1.922916	0.081733	0.916117
Zn7	Zn	1.422904	-0.593854	0.590802
Zn8	Zn	1.922904	-0.093854	1.090802
O9	O	1.510266	-0.506067	0.503466
O10	O	2.010266	-0.006067	1.003466
O11	O	1.743897	-0.441537	0.567675
O12	O	2.243897	0.058463	1.067675
O13	O	1.574365	-0.570684	0.269868
O14	O	2.074365	-0.070684	0.769868
O15	O	1.446147	-0.271240	0.439319
O16	O	1.946147	0.228760	0.939319
O17	O	1.743821	-0.570634	0.439293
O18	O	2.243821	-0.070634	0.939293
O19	O	1.574541	-0.271202	0.567690
O20	O	2.074541	0.228798	1.067690
O21	O	1.446046	-0.441624	0.269879
O22	O	1.946046	0.058376	0.769879
O23	O	1.276678	-0.441548	0.439278
O24	O	1.776678	0.058452	0.939278
O25	O	1.446125	-0.570501	0.737043
O26	O	1.946125	-0.070501	1.237043
O27	O	1.276669	-0.570550	0.567618
O28	O	1.776669	-0.070550	1.067618
O29	O	1.574529	-0.441461	0.737074
O30	O	2.074529	0.058539	1.237074
O31	O	1.574352	-0.740942	0.439252
O32	O	2.074352	-0.240942	0.939252
O33	O	1.446025	-0.740885	0.567603
O34	O	1.946025	-0.240885	1.067603
C35	C	1.238756	-0.506047	0.503446
C36	C	1.738756	-0.006047	1.003446
C37	C	1.122603	-0.506064	0.503462
C38	C	1.622603	-0.006064	1.003462
C39	C	1.070842	-0.569998	0.566871
C40	C	1.570842	-0.069998	1.066871
C41	C	0.950791	-0.570017	0.566889
C42	C	1.450791	-0.070017	1.066889
C43	C	1.510204	-0.779035	0.503444
C44	C	2.010204	-0.279035	1.003444
C45	C	1.510273	-0.895811	0.503470
C46	C	2.010273	-0.395811	1.003470
C47	C	1.577168	-0.950668	0.436711
C48	C	2.077168	-0.450668	0.936711
C49	C	1.577232	-1.060392	0.436743
C50	C	2.077232	-0.560392	0.936743
C51	C	1.443499	-1.060393	0.570296
C52	C	1.943499	-0.560393	1.070296
C53	C	1.443440	-0.950671	0.570268
C54	C	1.943440	-0.450671	1.070268
C55	C	1.644001	-0.895809	0.369913
C56	C	2.144001	-0.395809	0.869913
C57	C	1.710899	-0.950666	0.303148
C58	C	2.210899	-0.450666	0.803148
C59	C	1.710964	-1.060390	0.303180
C60	C	2.210964	-0.560390	0.803180
C61	C	1.644129	-1.115257	0.369977
C62	C	2.144129	-0.615257	0.869977
C63	C	1.782836	-0.506088	0.503487
C64	C	2.282836	-0.006088	1.003487
C65	C	1.898990	-0.506097	0.503495
C66	C	2.398990	-0.006097	1.003495
C67	C	1.510337	-0.505966	0.776036
C68	C	2.010337	-0.005966	1.276036
C69	C	1.510368	-0.505923	0.892190
C70	C	2.010368	-0.005923	1.392190
C71	C	1.510357	-0.232034	0.503511
C72	C	2.010357	0.267966	1.003511
C73	C	1.510396	-0.115257	0.503530
C74	C	2.010396	0.384743	1.003530
C75	C	1.510256	-0.506092	0.231956
C76	C	2.010256	-0.006092	0.731956
C77	C	1.510428	-0.505839	0.115803
C78	C	2.010428	-0.005839	0.615803
C79	C	1.573913	-0.442058	0.943989
C80	C	2.073913	0.057942	1.443989
C81	C	1.573946	-0.442012	1.064040
C82	C	2.073946	0.057988	1.564040
H83	H	1.643953	-0.806466	0.369876
H84	H	2.143953	-0.306466	0.869876
Br85	Br	1.801612	-0.876208	0.212513
Br86	Br	2.301612	-0.376208	0.712513
H87	H	1.388970	-0.906006	0.624630
H88	H	1.888970	-0.406006	1.124630
Br89	Br	1.419752	-0.596990	1.041570
Br90	Br	1.919752	-0.096990	1.541570
Br91	Br	0.973168	-0.414866	0.412996
Br92	Br	1.473168	0.085134	0.912996
Br93	Br	1.664636	-0.350882	1.138280
Br94	Br	2.164636	0.149118	1.638280
Br95	Br	0.876606	-0.661262	0.657368
Br96	Br	1.376606	-0.161262	1.157368
H97	H	1.115403	-0.624717	0.621148
H98	H	1.615403	-0.124717	1.121148
H99	H	1.455982	-0.560560	0.936718
H100	H	1.955982	-0.060560	1.436718
H101	H	1.644195	-1.204602	0.370006
H102	H	2.144195	-0.704602	0.870006
Br103	Br	1.801764	-1.134837	0.212585
Br104	Br	2.301764	-0.634837	0.712585
Br105	Br	1.352799	-1.134854	0.660942
Br106	Br	1.852799	-0.634854	1.160942
H107	H	1.078042	-0.451337	0.449194
H108	H	1.578042	0.048663	0.949194
Br109	Br	1.664522	-0.350944	0.869783
Br110	Br	2.164522	0.149056	1.369783
