data_functionalizedCrystal
_audit_creation_method	'MofGen! by Chris Wilmer'
_symmetry_space_group_name_H-M	'P1'
_symmetry_Int_Tables_number	1
_symmetry_cell_setting	triclinic
loop_
_symmetry_equiv_pos_as_xyz
  x,y,z
_cell_length_a	16.109301
_cell_length_b	10.654551
_cell_length_c	14.586319
_cell_angle_alpha	89.999036
_cell_angle_beta	89.999213
_cell_angle_gamma	83.973421
loop_
_atom_site_label
_atom_site_type_symbol
_atom_site_fract_x
_atom_site_fract_y
_atom_site_fract_z
O1	O	1.104091	0.161419	-0.076177
O2	O	0.862148	0.181507	-0.076190
O3	O	0.988682	-0.011352	-0.076184
O4	O	0.977557	0.354278	-0.076183
O5	O	0.988673	-0.011354	0.076297
O6	O	0.862140	0.181504	0.076290
O7	O	1.104082	0.161416	0.076304
Cu8	Cu	0.983110	0.171460	0.090220
Cu9	Cu	0.983121	0.171463	-0.090106
O10	O	0.977549	0.354275	0.076297
C11	C	0.831164	0.180692	0.000048
C12	C	0.738854	0.178252	0.000043
C13	C	0.987861	-0.058140	0.000055
C14	C	0.985416	-0.197550	0.000048
C15	C	0.517229	0.287018	0.000053
C16	C	0.430495	0.284716	0.000059
C17	C	0.449008	0.055896	0.000055
C18	C	0.535741	0.058199	0.000056
C19	C	0.569849	0.173764	0.000050
C20	C	0.396382	0.169159	0.000056
C21	C	0.302341	0.166662	0.000062
C22	C	0.663895	0.176262	0.000046
C23	C	0.984274	-0.263045	-0.083067
C24	C	0.981970	-0.394034	-0.083063
C25	C	0.981954	-0.394022	0.083180
C26	C	0.984252	-0.263034	0.083175
C27	C	0.985439	-0.197560	-0.166194
C28	C	0.984298	-0.263055	-0.249316
C29	C	0.981994	-0.394044	-0.249312
C30	C	0.980831	-0.459538	-0.166185
C31	C	1.135066	0.162231	0.000064
C32	C	1.227376	0.164671	0.000063
C33	C	0.978370	0.401063	0.000057
C34	C	0.980814	0.540473	0.000057
N35	N	0.983109	0.171457	0.217052
N36	N	0.983128	0.171456	-0.216938
C37	C	1.039157	0.086087	0.452061
C38	C	1.039159	0.086084	0.548042
C39	C	0.927074	0.256830	0.548046
C40	C	0.927069	0.256826	0.452066
C41	C	0.983114	0.171456	0.404077
C42	C	0.983123	0.171457	0.596037
C43	C	0.983125	0.171454	0.700104
C44	C	0.983111	0.171457	0.300003
H45	H	0.387655	0.376940	0.000064
O46	O	0.586742	-0.051939	0.000011
C47	C	0.595959	-0.279141	0.000063
C48	C	0.538106	-0.154513	0.000088
H49	H	0.556660	-0.362104	0.000145
H50	H	0.637015	-0.283864	-0.063763
H51	H	0.637043	-0.283712	0.063863
H52	H	0.496970	-0.149858	-0.063668
H53	H	0.497107	-0.149842	0.063957
O54	O	0.550401	0.399243	-0.000108
C55	C	0.637615	0.534622	-0.079073
C56	C	0.600092	0.407494	-0.079017
H57	H	0.677812	0.541324	-0.142855
H58	H	0.585136	0.615221	-0.079128
H59	H	0.677723	0.541400	-0.015232
H60	H	0.559993	0.400593	-0.142848
H61	H	0.652611	0.326957	-0.078915
H62	H	1.084792	0.016568	0.587109
O63	O	0.872672	0.339931	0.594562
C64	C	0.825241	0.558277	0.623960
C65	C	0.886888	0.464301	0.571213
H66	H	0.836725	0.658851	0.605116
H67	H	0.758542	0.541984	0.605075
H68	H	0.834857	0.543559	0.700798
H69	H	0.877348	0.478963	0.494362
H70	H	0.953565	0.480618	0.590173
H71	H	0.987317	-0.090903	-0.166206
H72	H	0.881429	0.326344	0.412995
H73	H	0.421227	-0.038193	0.000065
H74	H	0.985237	-0.209720	-0.316995
H75	H	0.981056	-0.447365	-0.316994
H76	H	0.978943	-0.566196	-0.166189
H77	H	0.981008	-0.447358	0.150857
H78	H	0.985164	-0.209704	0.150855
H79	H	1.084791	0.016573	0.412990
