data_functionalizedCrystal
_audit_creation_method	'MofGen! by Chris Wilmer'
_symmetry_space_group_name_H-M	'P1'
_symmetry_Int_Tables_number	1
_symmetry_cell_setting	triclinic
loop_
_symmetry_equiv_pos_as_xyz
  x,y,z
_cell_length_a	17.699097
_cell_length_b	16.176319
_cell_length_c	17.699083
_cell_angle_alpha	89.992304
_cell_angle_beta	83.285707
_cell_angle_gamma	89.988305
loop_
_atom_site_label
_atom_site_type_symbol
_atom_site_fract_x
_atom_site_fract_y
_atom_site_fract_z
O1	O	-1.004072	0.068830	-0.095761
O2	O	-0.783695	0.068814	-0.108203
O3	O	-0.900110	0.068815	0.008207
O4	O	-0.887658	0.068829	-0.212171
O5	O	-0.900094	-0.068678	0.008215
O6	O	-0.783679	-0.068679	-0.108195
O7	O	-1.004057	-0.068663	-0.095753
Cu8	Cu	-0.893867	-0.081226	-0.101974
Cu9	Cu	-0.893885	0.081376	-0.101982
O10	O	-0.887642	-0.068664	-0.212163
C11	C	-0.755491	0.000065	-0.107751
C12	C	-0.671473	0.000059	-0.106409
C13	C	-0.155764	0.075032	-0.098184
C14	C	-0.234708	0.075029	-0.099440
C15	C	-0.274165	0.000079	-0.100065
C16	C	-0.234675	-0.074873	-0.099427
C17	C	-0.155733	-0.074869	-0.098165
C18	C	-0.553039	-0.074890	-0.104514
C19	C	-0.631986	-0.074889	-0.105778
C20	C	-0.632014	0.075008	-0.105789
C21	C	-0.553072	0.075012	-0.104527
C22	C	-0.513589	0.000060	-0.103885
C23	C	-0.427989	0.000065	-0.102521
C24	C	-0.359763	0.000074	-0.101434
N25	N	-0.893859	-0.195591	-0.101967
C26	C	-0.945423	-0.238854	-0.050442
C27	C	-0.945427	-0.325402	-0.050441
C28	C	-0.893869	-0.368683	-0.101970
C29	C	-0.842300	-0.325414	-0.153497
C30	C	-0.842293	-0.238868	-0.153494
C31	C	-0.842326	-0.674442	-0.153512
C32	C	-0.842338	-0.760993	-0.153512
C33	C	-0.945459	-0.760975	-0.050458
C34	C	-0.945452	-0.674430	-0.050455
C35	C	-0.893881	-0.631168	-0.101980
C36	C	-0.893876	-0.537323	-0.101979
C37	C	-0.893877	-0.462526	-0.101974
C38	C	-0.032261	0.000084	-0.096205
C39	C	-0.116279	0.000086	-0.097547
C40	C	-0.899656	0.000068	0.036408
C41	C	-0.898317	0.000068	0.120426
N42	N	-0.893899	0.195741	-0.101983
C43	C	-0.888096	0.000084	-0.240364
C44	C	-0.889435	0.000090	-0.324382
C45	C	-0.966650	0.000072	0.169044
C46	C	-0.965388	0.000079	0.247987
C47	C	-0.895792	0.000076	0.278311
C48	C	-0.827454	0.000075	0.229687
C49	C	-0.828717	0.000074	0.150746
C50	C	-0.822359	0.000081	0.548051
C51	C	-0.821101	0.000080	0.626999
C52	C	-0.959030	0.000087	0.645292
C53	C	-0.960293	0.000085	0.566350
C54	C	-0.891955	0.000088	0.517734
C55	C	-0.893325	0.000082	0.432134
C56	C	-0.894422	0.000077	0.363909
H57	H	-0.266808	-0.135899	-0.099931
H58	H	-0.987409	-0.203620	-0.008484
C59	C	-1.048090	-0.070607	0.090898
C60	C	-1.043155	0.000074	0.135718
H61	H	-1.095325	-0.070604	0.070331
H62	H	-1.007582	-0.070606	0.050646
H63	H	-1.044724	-0.118548	0.121328
H64	H	-1.046516	0.048015	0.105287
H65	H	-1.083675	0.000080	0.175976
H66	H	-1.021032	0.000080	0.287569
H67	H	-0.664110	-0.135926	-0.106287
C68	C	-1.096508	0.000102	0.592365
C69	C	-1.036795	0.000092	0.533019
H70	H	-1.143737	0.000114	0.571787
H71	H	-1.093145	-0.047843	0.622778
H72	H	-1.093145	0.048051	0.622771
H73	H	-1.040155	-0.047861	0.502617
H74	H	-1.040160	0.048042	0.502594
H75	H	-0.800336	-0.639225	-0.195466
C76	C	-1.018351	0.000105	0.774430
C77	C	-1.034151	0.000096	0.698735
H78	H	-1.064727	0.000114	0.807420
H79	H	-0.989807	-0.047840	0.783614
H80	H	-0.989814	0.048054	0.783593
H81	H	-1.062683	-0.047857	0.689570
H82	H	-1.062707	0.048046	0.689548
H83	H	-0.123585	-0.135898	-0.097655
H84	H	-0.800352	-0.796232	-0.195475
C85	C	-0.560951	-0.223060	-0.104643
C86	C	-0.509645	-0.157276	-0.103820
H87	H	-0.534156	-0.273923	-0.104221
H88	H	-0.597591	-0.219947	-0.061019
H89	H	-0.585890	-0.219928	-0.149257
H90	H	-0.484709	-0.160404	-0.059203
H91	H	-0.472991	-0.160390	-0.147448
C92	C	-1.047380	-0.316691	0.051405
C93	C	-1.002119	-0.372957	0.006186
H94	H	-1.082385	-0.346051	0.086360
H95	H	-1.015932	-0.282956	0.078603
H96	H	-1.074527	-0.282914	0.019918
H97	H	-0.974967	-0.406729	0.037673
H98	H	-1.033571	-0.406705	-0.021014
C99	C	-0.743755	0.070763	0.448670
C100	C	-0.747240	0.000081	0.494622
H101	H	-0.697375	0.070764	0.415687
H102	H	-0.785374	0.070760	0.419309
H103	H	-0.746142	0.118703	0.479851
H104	H	-0.744859	-0.047859	0.463440
H105	H	-0.705610	0.000076	0.523985
H106	H	-0.764424	0.000077	0.651685
H107	H	-0.987437	-0.639192	-0.008498
C108	C	-0.990156	-0.787624	0.080628
C109	C	-1.002141	-0.808532	0.006189
H110	H	-1.025152	-0.816979	0.115596
H111	H	-0.939669	-0.801827	0.088781
H112	H	-0.997533	-0.729885	0.087991
H113	H	-0.994758	-0.866270	-0.001176
H114	H	-1.052640	-0.794334	-0.001967
H115	H	-0.770787	0.000078	0.254383
C116	C	-0.796526	-0.458088	-0.199269
C117	C	-0.785629	-0.372987	-0.210141
H118	H	-0.761542	-0.487455	-0.234244
H119	H	-0.788401	-0.472282	-0.148772
H120	H	-0.847024	-0.472242	-0.207429
H121	H	-0.735132	-0.358832	-0.201975
H122	H	-0.793748	-0.358788	-0.260650
C123	C	-0.797603	-0.212203	-0.284575
C124	C	-0.785617	-0.191307	-0.210134
H125	H	-0.762613	-0.182836	-0.319541
H126	H	-0.790226	-0.269932	-0.291948
H127	H	-0.848099	-0.197996	-0.292724
H128	H	-0.735123	-0.205519	-0.201984
H129	H	-0.792988	-0.133565	-0.202758
C130	C	-0.163729	0.223203	-0.098318
C131	C	-0.112396	0.157422	-0.097497
H132	H	-0.136956	0.274067	-0.097889
H133	H	-0.188665	0.220086	-0.142926
H134	H	-0.200372	0.220075	-0.054688
H135	H	-0.075756	0.160547	-0.141131
H136	H	-0.087447	0.160541	-0.052885
C137	C	-0.314875	0.161989	-0.165904
C138	C	-0.278107	0.157414	-0.100144
H139	H	-0.341670	0.212851	-0.166334
H140	H	-0.278228	0.158875	-0.209522
H141	H	-0.349673	0.117350	-0.166444
H142	H	-0.243306	0.202050	-0.099606
H143	H	-0.314759	0.160537	-0.056514
C144	C	-0.711548	0.070746	0.110839
C145	C	-0.753603	0.000069	0.097302
H146	H	-0.665173	0.070741	0.077848
H147	H	-0.740099	0.118684	0.101653
H148	H	-0.700841	0.070735	0.162195
H149	H	-0.764315	0.000082	0.045947
H150	H	-0.725046	-0.047882	0.106482
C151	C	-0.561032	0.223184	-0.104655
C152	C	-0.509702	0.157400	-0.103836
H153	H	-0.534257	0.274047	-0.104221
H154	H	-0.585965	0.220072	-0.149264
H155	H	-0.597677	0.220054	-0.061026
H156	H	-0.473060	0.160526	-0.147468
H157	H	-0.484756	0.160514	-0.059222
H158	H	-0.664170	0.136038	-0.106309
