data_functionalizedCrystal
_audit_creation_method	'MofGen! by Chris Wilmer'
_symmetry_space_group_name_H-M	'P1'
_symmetry_Int_Tables_number	1
_symmetry_cell_setting	triclinic
loop_
_symmetry_equiv_pos_as_xyz
  x,y,z
_cell_length_a	16.992694
_cell_length_b	15.944551
_cell_length_c	16.053919
_cell_angle_alpha	92.876391
_cell_angle_beta	92.715508
_cell_angle_gamma	87.083481
loop_
_atom_site_label
_atom_site_type_symbol
_atom_site_fract_x
_atom_site_fract_y
_atom_site_fract_z
O1	O	1.043346	0.181444	0.069327
O2	O	0.815061	0.179491	0.069351
O3	O	0.935437	0.058610	0.069331
O4	O	0.922970	0.302325	0.069347
O5	O	0.929528	0.051924	-0.069526
O6	O	0.809152	0.172804	-0.069505
O7	O	1.037437	0.174757	-0.069530
Zn8	Zn	0.922356	0.172719	-0.091564
Zn9	Zn	0.930142	0.181529	0.091386
O10	O	0.917061	0.295638	-0.069509
C11	C	0.782894	0.173634	-0.000074
C12	C	0.695850	0.166135	-0.000065
C13	C	0.931965	0.023938	-0.000097
C14	C	0.930413	-0.069412	-0.000098
C15	C	0.645614	0.238500	-0.000061
C16	C	0.563826	0.231447	-0.000073
C17	C	0.532277	0.152029	-0.000083
C18	C	0.582520	0.079658	-0.000089
C19	C	0.664305	0.086711	-0.000083
C20	C	0.288677	0.122796	-0.000107
C21	C	0.206885	0.115749	-0.000111
C22	C	0.188196	0.267538	-0.000095
C23	C	0.269985	0.274585	-0.000084
C24	C	0.320220	0.202214	-0.000095
N25	N	0.448677	0.144818	-0.000092
N26	N	0.403818	0.209425	-0.000092
C27	C	0.852090	-0.289520	-0.000078
C28	C	0.885547	-0.351396	-0.068546
C29	C	0.927606	-0.240326	-0.000091
C30	C	0.891391	-0.344785	0.068355
C31	C	0.924889	-0.405420	-0.000081
C32	C	0.961082	-0.300974	-0.068616
C33	C	0.966918	-0.294355	0.068347
C34	C	1.000429	-0.356210	-0.000138
C35	C	0.929169	-0.145219	-0.000098
C36	C	0.923332	-0.500526	-0.000080
C37	C	1.069604	0.180614	-0.000103
C38	C	1.156648	0.188114	-0.000106
C39	C	0.920533	0.330310	-0.000079
C40	C	0.922085	0.423660	-0.000073
N41	N	0.917048	0.166706	-0.216422
C42	C	0.889758	0.135489	-0.740044
C43	C	0.893465	0.139727	-0.652639
C44	C	0.942867	0.196017	-0.608947
C45	C	0.988571	0.248066	-0.652666
C46	C	0.984867	0.243823	-0.740070
C47	C	0.959048	0.214512	-0.347544
C48	C	0.962747	0.218753	-0.260135
C49	C	0.867642	0.110412	-0.260113
C50	C	0.863938	0.106178	-0.347518
C51	C	0.909645	0.158224	-0.391229
N52	N	0.946657	0.200353	-0.519605
N53	N	0.905860	0.153883	-0.480570
N54	N	0.935456	0.187536	0.216244
H55	H	0.671294	0.303171	-0.000052
H56	H	0.147286	0.326458	-0.000088
H57	H	0.705208	0.027784	-0.000086
H58	H	0.181201	0.051074	-0.000118
C59	C	1.085179	-0.395333	-0.000202
N60	N	1.149011	-0.424804	-0.000254
C61	C	0.343926	0.043185	-0.000114
N62	N	0.385542	-0.016781	-0.000118
C63	C	0.835410	0.073565	-0.788096
N64	N	0.794477	0.026920	-0.824287
C65	C	0.767408	-0.250199	-0.000162
N66	N	0.703628	-0.220580	-0.000231
C67	C	1.017098	0.280677	-0.212076
N68	N	1.058032	0.327316	-0.175878
C69	C	1.042921	0.309980	-0.604603
N70	N	1.083858	0.356615	-0.568402
H71	H	0.851144	-0.376433	-0.126424
H72	H	0.990530	-0.281634	-0.126565
H73	H	1.001294	-0.269297	0.126228
H74	H	0.861904	-0.364217	0.126244
C75	C	0.843190	0.082474	-0.604559
N76	N	0.805319	0.039349	-0.568346
H77	H	0.522926	0.290375	-0.000068
C78	C	0.809587	0.044259	-0.395572
N79	N	0.768644	-0.002374	-0.431766
C80	C	0.817453	0.053081	-0.212024
N81	N	0.779680	0.009864	-0.175803
H82	H	1.022080	0.286205	-0.775659
H83	H	0.556826	0.014993	-0.000110
H84	H	0.295666	0.339256	-0.000066
H85	H	0.996265	0.256893	-0.383123
