data_functionalizedCrystal
_audit_creation_method	'MofGen! by Chris Wilmer'
_symmetry_space_group_name_H-M	'P1'
_symmetry_Int_Tables_number	1
_symmetry_cell_setting	triclinic
loop_
_symmetry_equiv_pos_as_xyz
  x,y,z
_cell_length_a	17.077404
_cell_length_b	14.908178
_cell_length_c	17.077396
_cell_angle_alpha	93.326565
_cell_angle_beta	90.018362
_cell_angle_gamma	93.311930
loop_
_atom_site_label
_atom_site_type_symbol
_atom_site_fract_x
_atom_site_fract_y
_atom_site_fract_z
Zn1	Zn	1.182045	-0.359235	0.425771
Zn2	Zn	1.682045	0.140765	0.925771
Zn3	Zn	1.174388	-0.510118	0.286925
Zn4	Zn	1.674388	-0.010118	0.786925
Zn5	Zn	1.050776	-0.359261	0.294520
Zn6	Zn	1.550776	0.140739	0.794520
Zn7	Zn	1.043184	-0.510059	0.418154
Zn8	Zn	1.543184	-0.010059	0.918154
O9	O	1.112598	-0.434668	0.356342
O10	O	1.612598	0.065332	0.856342
O11	O	1.290876	-0.379264	0.407362
O12	O	1.790876	0.120736	0.907362
O13	O	1.157963	-0.490142	0.178083
O14	O	1.657963	0.009858	0.678083
O15	O	1.074571	-0.233003	0.318297
O16	O	1.574571	0.266997	0.818297
O17	O	1.285250	-0.490117	0.305352
O18	O	1.785250	0.009883	0.805352
O19	O	1.171014	-0.232984	0.414727
O20	O	1.671014	0.267016	0.914727
O21	O	1.067146	-0.379308	0.183664
O22	O	1.567146	0.120692	0.683664
O23	O	0.939922	-0.379250	0.310911
O24	O	1.439922	0.120750	0.810911
O25	O	1.061631	-0.490016	0.529013
O26	O	1.561631	0.009984	1.029013
O27	O	0.934345	-0.490041	0.401745
O28	O	1.434345	0.009959	0.901745
O29	O	1.163652	-0.379207	0.534609
O30	O	1.663652	0.120793	1.034609
O31	O	1.150602	-0.636365	0.297966
O32	O	1.650602	-0.136365	0.797966
O33	O	1.054206	-0.636321	0.394379
O34	O	1.554206	-0.136321	0.894379
C35	C	0.908652	-0.434643	0.356326
C36	C	1.408652	0.065357	0.856326
C37	C	0.821401	-0.434653	0.356337
C38	C	1.321401	0.065347	0.856337
C39	C	0.783336	-0.377035	0.409525
C40	C	1.283336	0.122965	0.909525
C41	C	0.701355	-0.377041	0.409528
C42	C	1.201355	0.122959	0.909528
C43	C	0.657441	-0.434670	0.356346
C44	C	1.157441	0.065330	0.856346
C45	C	0.695512	-0.492291	0.303153
C46	C	1.195512	0.007709	0.803153
C47	C	0.777491	-0.492280	0.303146
C48	C	1.277491	0.007720	0.803146
C49	C	0.524641	-0.492312	0.303171
C50	C	1.024641	0.007688	0.803171
C51	C	0.442656	-0.492324	0.303178
C52	C	0.942656	0.007676	0.803178
C53	C	0.448505	-0.377072	0.409553
C54	C	0.948505	0.122928	0.909553
C55	C	0.530484	-0.377061	0.409546
C56	C	1.030484	0.122939	0.909546
C57	C	0.568549	-0.434684	0.356353
C58	C	1.068549	0.065316	0.856353
C59	C	1.100771	-0.669079	0.344539
C60	C	1.600771	-0.169079	0.844539
C61	C	1.095783	-0.769361	0.339516
C62	C	1.595783	-0.269361	0.839516
C63	C	1.186760	-0.957632	0.430596
C64	C	1.686760	-0.457632	0.930596
C65	C	1.182076	-1.051856	0.425879
C66	C	1.682076	-0.551856	0.925879
C67	C	1.081727	-1.052034	0.325369
C68	C	1.581727	-0.552034	0.825369
C69	C	1.086411	-0.957810	0.330086
C70	C	1.586411	-0.457810	0.830086
C71	C	1.138930	-0.910612	0.382700
C72	C	1.638930	-0.410612	0.882700
C73	C	1.143617	-0.816387	0.387413
C74	C	1.643617	-0.316387	0.887413
C75	C	1.043266	-0.816567	0.286907
C76	C	1.543266	-0.316567	0.786907
C77	C	1.038582	-0.910791	0.282190
C78	C	1.538582	-0.410791	0.782190
C79	C	1.317341	-0.434695	0.356359
C80	C	1.817341	0.065305	0.856359
C81	C	1.404590	-0.434706	0.356366
C82	C	1.904590	0.065294	0.856366
C83	C	1.112649	-0.434602	0.561090
C84	C	1.612649	0.065398	1.061090
C85	C	1.112671	-0.434573	0.648341
C86	C	1.612671	0.065427	1.148341
C87	C	1.124493	-0.199342	0.368209
C88	C	1.624493	0.300658	0.868209
C89	C	1.129562	-0.099060	0.373266
C90	C	1.629562	0.400940	0.873266
C91	C	1.112596	-0.434669	0.152395
C92	C	1.612596	0.065331	0.652395
C93	C	1.112739	-0.434443	0.065156
C94	C	1.612739	0.065557	0.565156
C95	C	1.165795	-0.376870	0.692247
C96	C	1.665795	0.123130	1.192247
C97	C	1.165806	-0.376840	0.774229
C98	C	1.665806	0.123160	1.274229
C99	C	1.112696	-0.434519	0.812304
C100	C	1.612696	0.065481	1.312304
C101	C	1.059566	-0.492224	0.768392
C102	C	1.559566	0.007776	1.268392
C103	C	1.059552	-0.492249	0.686412
C104	C	1.559552	0.007751	1.186412
C105	C	1.059600	-0.492170	0.939265
C106	C	1.559600	0.007830	1.439265
C107	C	1.059615	-0.492147	1.021251
C108	C	1.559615	0.007853	1.521251
C109	C	1.165854	-0.376761	1.027082
C110	C	1.665854	0.123239	1.527082
C111	C	1.165840	-0.376786	0.945102
C112	C	1.665840	0.123214	1.445102
C113	C	1.112711	-0.434493	0.901196
C114	C	1.612711	0.065507	1.401196
H115	H	0.417508	-0.330152	0.452863
H116	H	0.917508	0.169848	0.952863
C117	C	1.224297	-0.313282	1.075380
C118	C	1.724297	0.186718	1.575380
N119	N	1.268316	-0.265474	1.111762
N120	N	1.768316	0.234526	1.611762
H121	H	0.406902	-0.539252	0.259874
H122	H	0.906902	-0.039252	0.759874
C123	C	1.001112	-0.555729	0.638116
C124	C	1.501112	-0.055729	1.138116
N125	N	0.957092	-0.603542	0.601740
N126	N	1.457092	-0.103542	1.101740
H127	H	0.819085	-0.330108	0.452833
H128	H	1.319085	0.169892	0.952833
H129	H	1.186383	-0.777959	0.430252
H130	H	1.686383	-0.277959	0.930252
C131	C	1.224248	-0.313364	0.822522
C132	C	1.724248	0.186636	1.322522
N133	N	1.268270	-0.265550	0.858895
N134	N	1.768270	0.234450	1.358895
H135	H	1.016320	-0.539184	0.799399
H136	H	1.516320	-0.039184	1.299399
H137	H	1.016366	-0.539112	1.052249
H138	H	1.516366	-0.039112	1.552249
H139	H	1.209091	-0.329824	0.914104
H140	H	1.709091	0.170176	1.414104
C141	C	0.566510	-0.555702	0.244658
C142	C	1.066510	-0.055702	0.744658
N143	N	0.598046	-0.603452	0.200590
N144	N	1.098046	-0.103452	0.700590
H145	H	1.016325	-0.539147	0.903520
H146	H	1.516325	-0.039147	1.403520
H147	H	0.670366	-0.330124	0.452840
H148	H	1.170366	0.169876	0.952840
H149	H	0.808483	-0.539199	0.259835
H150	H	1.308483	-0.039199	0.759835
H151	H	0.659750	-0.539210	0.259848
H152	H	1.159750	-0.039210	0.759848
C153	C	0.578788	-0.313664	0.468048
C154	C	1.078788	0.186336	0.968048
N155	N	0.615171	-0.265909	0.512109
N156	N	1.115171	0.234091	1.012109
C157	C	1.234696	-1.103573	0.478563
C158	C	1.734696	-0.603573	0.978563
N159	N	1.274334	-1.142527	0.518247
N160	N	1.774334	-0.642527	1.018247
C161	C	1.244532	-0.905712	0.488469
C162	C	1.744532	-0.405712	0.988469
N163	N	1.288047	-0.866607	0.532062
N164	N	1.788047	-0.366607	1.032062
C165	C	1.024054	-1.103968	0.267405
C166	C	1.524054	-0.603968	0.767405
N167	N	0.980650	-1.143086	0.223710
N168	N	1.480650	-0.643086	0.723710
H169	H	1.004322	-0.778273	0.247905
H170	H	1.504322	-0.278273	0.747905
C171	C	0.980863	-0.962719	0.224268
C172	C	1.480863	-0.462719	0.724268
N173	N	0.937408	-1.001831	0.180620
N174	N	1.437408	-0.501831	0.680620
C175	C	1.224221	-0.313417	0.650373
C176	C	1.724221	0.186583	1.150373
N177	N	1.268226	-0.265620	0.618836
N178	N	1.768226	0.234380	1.118836
