data_functionalizedCrystal
_audit_creation_method	'MofGen! by Chris Wilmer'
_symmetry_space_group_name_H-M	'P1'
_symmetry_Int_Tables_number	1
_symmetry_cell_setting	triclinic
loop_
_symmetry_equiv_pos_as_xyz
  x,y,z
_cell_length_a	14.560438
_cell_length_b	14.446369
_cell_length_c	14.560438
_cell_angle_alpha	59.997193
_cell_angle_beta	90.000443
_cell_angle_gamma	60.001796
loop_
_atom_site_label
_atom_site_type_symbol
_atom_site_fract_x
_atom_site_fract_y
_atom_site_fract_z
Zr1	Zr	0.884760	1.013259	-0.120579
O2	O	0.738113	1.206378	-0.267235
O3	O	0.929714	0.820140	-0.075615
O4	O	0.929712	1.013262	-0.267228
O5	O	0.738117	1.013253	0.075519
O6	O	1.080851	1.013265	-0.267229
O7	O	0.738114	1.013256	-0.075622
O8	O	1.080853	0.667804	0.075532
O9	O	0.738114	1.358714	-0.267242
O10	O	1.061680	0.899574	-0.056446
O11	O	0.948889	0.899570	0.056349
O12	O	0.948888	1.126947	-0.169250
O13	O	0.836097	1.126943	-0.056455
Zr14	Zr	1.125812	1.013259	0.120472
Zr15	Zr	1.125808	1.013263	-0.120581
Zr16	Zr	0.884764	1.013255	0.120474
Zr17	Zr	0.884762	1.256217	-0.120590
Zr18	Zr	1.125810	0.770301	0.120483
O19	O	1.080858	1.206378	0.075508
O20	O	1.080852	1.206384	-0.267238
O21	O	0.738118	1.206372	0.075510
O22	O	1.272458	0.820139	0.267128
O23	O	1.272453	0.820146	-0.075617
O24	O	0.929719	0.820133	0.267131
O25	O	1.272455	1.013265	-0.075626
O26	O	1.080859	1.013255	0.267121
O27	O	0.929721	1.013253	0.267122
O28	O	1.272457	1.013262	0.075515
O29	O	0.929715	1.358717	-0.267244
O30	O	1.080856	0.667800	0.267137
O31	O	1.272457	0.667803	0.267135
O32	O	1.272454	0.667807	0.075531
O33	O	0.738117	1.358711	-0.075638
O34	O	0.929719	1.358714	-0.075639
O35	O	1.061684	0.899570	0.169143
O36	O	1.174475	0.899574	0.056348
O37	O	1.061682	1.126947	-0.056457
O38	O	0.948891	1.126943	0.056339
C39	C	0.703771	1.013254	-0.000051
C40	C	0.601440	1.013252	-0.000051
C41	C	1.005283	0.709355	-0.000040
C42	C	1.005282	0.606213	-0.000035
C43	C	0.612238	0.894568	0.058828
C44	C	0.516083	0.894574	0.058829
C45	C	0.398335	1.131959	-0.058937
C46	C	0.494489	1.131951	-0.058930
C47	C	0.934486	0.459201	0.071431
C48	C	0.934101	0.566821	0.071142
C49	C	0.953385	0.655211	-0.122606
C50	C	0.952853	0.547978	-0.122235
C51	C	1.128025	0.372757	0.050016
C52	C	1.127845	0.478907	0.052516
C53	C	1.306800	1.013264	-0.000056
C54	C	1.409131	1.013266	-0.000057
C55	C	1.005281	1.013264	-0.301573
C56	C	1.005279	1.013266	-0.403906
C57	C	1.005288	1.317162	-0.000067
C58	C	1.005289	1.420304	-0.000072
C59	C	0.946412	1.131943	-0.607019
C60	C	0.946402	1.131951	-0.510872
C61	C	1.064161	0.894566	-0.393090
C62	C	1.064164	0.894559	-0.489237
C63	C	1.005291	1.013253	0.301466
C64	C	1.005292	1.013251	0.403799
C65	C	1.306797	0.709361	-0.000042
C66	C	1.409128	0.606220	-0.000038
C67	C	1.005288	0.709350	0.301480
C68	C	1.005289	0.606206	0.403818
C69	C	1.306802	0.709355	0.301478
C70	C	1.409134	0.606213	0.403815
C71	C	0.703769	1.317163	-0.301585
C72	C	0.601437	1.420305	-0.403922
C73	C	0.703774	1.317157	-0.000065
C74	C	0.601444	1.420297	-0.000069
C75	C	1.005284	1.317168	-0.301587
C76	C	1.005283	1.420312	-0.403925
C77	C	1.398328	0.557762	-0.058911
C78	C	1.494482	0.460859	-0.058911
C79	C	1.612232	0.460876	0.058843
C80	C	1.516079	0.557784	0.058836
C81	C	1.064165	0.557747	0.510773
C82	C	1.064153	0.460841	0.606927
C83	C	0.946386	0.460859	0.489155
C84	C	0.946392	0.557769	0.393004
C85	C	1.516086	0.557756	0.393018
C86	C	1.612233	0.460852	0.489178
C87	C	1.494465	0.460865	0.606929
C88	C	1.398319	0.557774	0.510770
H89	H	0.524885	0.797929	0.106775
O90	O	0.727593	0.766549	0.122340
H91	H	0.718943	0.684023	0.163291
H92	H	1.699316	0.421403	0.480379
O93	O	0.882891	1.259973	-0.522547
H94	H	0.892765	1.240044	-0.437722
H95	H	1.311247	0.597208	-0.106862
H96	H	1.485679	0.421411	-0.106853
H97	H	1.485673	0.421413	0.694022
O98	O	1.016719	0.518907	-0.196665
H99	H	1.016815	0.442176	-0.196960
O100	O	0.282984	1.259983	-0.122463
H101	H	0.217934	1.240052	-0.112592
H102	H	1.171385	0.279009	0.138883
H103	H	1.112094	0.797931	-0.305990
H104	H	0.898442	0.597229	0.305910
O105	O	1.527742	0.610025	0.277658
H106	H	1.618268	0.560058	0.286310
O107	O	1.282951	0.610035	0.522407
H108	H	1.291581	0.560054	0.612933
O109	O	1.203611	0.507388	-0.009299
H110	H	1.207283	0.579794	-0.004437
H111	H	0.898436	0.421408	0.480364
O112	O	0.482875	1.259952	-0.122453
H113	H	0.436190	1.316898	-0.088455
H114	H	0.862537	0.588675	-0.162332
O115	O	1.127680	0.609995	0.522438
H116	H	1.192766	0.591381	0.481464
O117	O	1.127671	0.408555	0.722289
H118	H	1.168633	0.458511	0.713649
H119	H	0.968912	0.530110	0.161399
O120	O	1.127673	0.766530	-0.477566
H121	H	1.117770	0.786469	-0.562394
O122	O	0.980330	0.341489	0.191285
H123	H	1.054065	0.253997	0.201176
H124	H	1.524881	0.597243	0.106778
O125	O	0.815271	0.506556	0.025842
H126	H	0.806228	0.502513	-0.047524
H127	H	0.898472	1.228590	-0.694111
O128	O	1.727584	0.408623	0.122356
H129	H	1.792633	0.333084	0.112482
H130	H	1.002479	0.683998	-0.178185
O131	O	0.814185	0.684473	0.025115
H132	H	0.756244	0.664639	0.002966
H133	H	0.863932	0.747518	-0.162977
H134	H	1.181027	0.346784	-0.001817
O135	O	1.179191	0.426393	0.172151
H136	H	1.117691	0.490694	0.194099
