data_functionalizedCrystal
_audit_creation_method	'MofGen! by Chris Wilmer'
_symmetry_space_group_name_H-M	'P1'
_symmetry_Int_Tables_number	1
_symmetry_cell_setting	triclinic
loop_
_symmetry_equiv_pos_as_xyz
  x,y,z
_cell_length_a	23.096457
_cell_length_b	17.917603
_cell_length_c	17.917603
_cell_angle_alpha	60.138055
_cell_angle_beta	90.000770
_cell_angle_gamma	63.033951
loop_
_atom_site_label
_atom_site_type_symbol
_atom_site_fract_x
_atom_site_fract_y
_atom_site_fract_z
Zr1	Zr	0.590802	0.806868	-0.129087
O2	O	0.507725	0.951899	-0.249619
O3	O	0.612299	0.654640	-0.087437
O4	O	0.622788	0.796492	-0.242846
O5	O	0.493477	0.820740	0.023032
O6	O	0.718069	0.796494	-0.242850
O7	O	0.497235	0.810047	-0.094210
O8	O	0.699306	0.542746	0.035148
O9	O	0.512241	1.074488	-0.254967
O10	O	0.697371	0.719920	-0.075356
O11	O	0.623460	0.727899	0.012144
O12	O	0.635810	0.894912	-0.170831
O13	O	0.561898	0.902891	-0.083331
Zr14	Zr	0.736770	0.823925	0.057893
Zr15	Zr	0.742763	0.806870	-0.129094
Zr16	Zr	0.584808	0.823922	0.057900
Zr17	Zr	0.598005	1.002383	-0.137616
Zr18	Zr	0.729567	0.628410	0.066422
O19	O	0.715273	0.976153	0.016243
O20	O	0.723794	0.951903	-0.249629
O21	O	0.499203	0.976149	0.016253
O22	O	0.819847	0.678894	0.178425
O23	O	0.828369	0.654644	-0.087447
O24	O	0.603777	0.678890	0.178435
O25	O	0.834094	0.810053	-0.094226
O26	O	0.704783	0.834300	0.171652
O27	O	0.609503	0.834299	0.171656
O28	O	0.830336	0.820746	0.023016
O29	O	0.633030	1.074490	-0.254972
O30	O	0.694542	0.556303	0.183778
O31	O	0.815331	0.556305	0.183773
O32	O	0.820095	0.542748	0.035143
O33	O	0.507477	1.088044	-0.106337
O34	O	0.628266	1.088046	-0.106342
O35	O	0.691762	0.735881	0.099637
O36	O	0.765673	0.727902	0.012137
O37	O	0.704112	0.902894	-0.083338
O38	O	0.630201	0.910873	0.004162
C39	C	0.654776	0.570836	-0.024929
C40	C	0.651718	0.487835	-0.021308
C41	C	0.646132	0.335868	-0.014697
C42	C	0.681438	0.294920	-0.056495
C43	C	0.678330	0.210360	-0.052816
C44	C	0.649239	0.420436	-0.018375
C45	C	0.473705	0.815393	-0.035588
C46	C	0.409193	0.815392	-0.035585
C47	C	0.411023	0.724050	0.014243
C48	C	0.350407	0.724049	0.014247
C49	C	0.287963	0.815393	-0.035595
C50	C	0.286137	0.906748	-0.085426
C51	C	0.346752	0.906747	-0.085421
N52	N	0.170169	0.879707	-0.113030
N53	N	0.112590	0.879702	-0.113033
C54	C	0.105331	0.815401	-0.035611
N55	N	0.157834	0.751091	0.041814
N56	N	0.215420	0.751093	0.041815
C57	C	0.222233	0.815405	-0.035605
C58	C	0.041436	0.724052	0.014226
C59	C	-0.019182	0.724055	0.014232
C60	C	-0.083451	0.906756	-0.085449
C61	C	-0.022834	0.906751	-0.085446
C62	C	0.039608	0.815396	-0.035611
C63	C	0.853867	0.815400	-0.035606
C64	C	0.918378	0.815401	-0.035609
C65	C	0.671283	0.794063	-0.269490
C66	C	0.673827	0.786823	-0.348871
C67	C	0.672796	1.059956	-0.046265
C68	C	0.675853	1.142958	-0.049886
C69	C	0.678489	0.773598	-0.494226
C70	C	0.649084	0.857190	-0.576971
C71	C	0.651678	0.849832	-0.657852
C72	C	0.675896	0.780955	-0.413336
C73	C	0.656289	0.836729	0.198296
C74	C	0.653745	0.843970	0.277677
C75	C	0.844857	0.570840	-0.024938
C76	C	0.906311	0.487840	-0.021320
C77	C	0.647279	0.592169	0.208964
C78	C	0.641677	0.516408	0.291965
C79	C	0.837360	0.592173	0.208955
C80	C	0.896270	0.516413	0.291953
C81	C	0.490212	1.038620	-0.280149
C82	C	0.431302	1.114380	-0.363147
C83	C	0.482715	1.059953	-0.046256
C84	C	0.421261	1.142953	-0.049874
C85	C	0.680292	1.038623	-0.280157
C86	C	0.685895	1.114384	-0.363159
C87	C	0.899517	0.444695	-0.065300
C88	C	0.957255	0.366716	-0.061918
C89	C	1.021785	0.331879	-0.014552
C90	C	1.028577	0.375032	0.029428
C91	C	0.970841	0.453014	0.026041
C92	C	0.674699	0.484997	0.376622
C93	C	0.669433	0.413823	0.454617
C94	C	0.631148	0.374056	0.447954
C95	C	0.598122	0.405474	0.363289
C96	C	0.603385	0.476652	0.285295
C97	C	0.962521	0.476670	0.285257
C98	C	1.017880	0.405496	0.363235
C99	C	1.006984	0.374060	0.447910
C100	C	0.940726	0.413810	0.454604
C101	C	0.885369	0.484989	0.376627
C102	C	0.365051	1.154132	-0.356451
C103	C	0.309693	1.225331	-0.434430
C104	C	0.320589	1.256770	-0.519105
C105	C	0.386847	1.217015	-0.525800
C106	C	0.442203	1.145823	-0.447821
C107	C	0.428055	1.186105	-0.005903
C108	C	0.370319	1.264103	-0.009305
C109	C	0.305789	1.298943	-0.056674
C110	C	0.298996	1.255787	-0.100651
C111	C	0.356732	1.177795	-0.097253
C112	C	0.724185	1.154129	-0.356467
C113	C	0.729462	1.225305	-0.434448
C114	C	0.696444	1.256740	-0.519121
C115	C	0.658153	1.216988	-0.525811
C116	C	0.652880	1.145808	-0.447830
H117	H	0.461861	0.649661	0.054818
H118	H	0.480593	1.157746	0.032676
H119	H	0.258782	1.362449	-0.059434
H120	H	0.576496	0.502217	0.216367
H121	H	0.705609	0.696512	-0.484131
H122	H	0.846979	0.473057	-0.103881
C123	C	0.624781	0.260537	0.127927
C124	C	0.602225	0.297386	0.037383
H125	H	0.597691	0.236744	0.160090
H126	H	0.621092	0.313159	0.132252
H127	H	0.670856	0.206703	0.152848
H128	H	0.556151	0.351226	0.012460
H129	H	0.605907	0.244759	0.033053
C130	C	0.446628	1.264451	0.081354
C131	C	0.377796	1.311520	0.039049
H132	H	0.451243	1.293718	0.111211
H133	H	0.470583	1.273292	0.037579
H134	H	0.464737	1.194420	0.123976
H135	H	0.359688	1.381550	-0.003578
H136	H	0.353832	1.302687	0.082829
C137	C	0.178826	1.371643	-0.146390
C138	C	0.228061	1.294082	-0.152709
H139	H	0.135032	1.395277	-0.178520
H140	H	0.186934	1.425561	-0.171394
H141	H	0.181116	1.346683	-0.084968
H142	H	0.225774	1.319044	-0.214131
H143	H	0.219950	1.240154	-0.127709
H144	H	0.751072	1.128547	-0.287530
H145	H	0.351896	0.649665	0.054824
C146	C	0.689917	0.577735	0.427670
C147	C	0.716774	0.528718	0.383954
H148	H	0.715888	0.604734	0.432195
H149	H	0.691513	0.530845	0.486227
H150	H	0.644140	0.630883	0.394226
H151	H	0.762550	0.475565	0.417403
H152	H	0.715185	0.575613	0.325388
C153	C	0.793285	0.253884	-0.071715
C154	C	0.725393	0.333323	-0.108540
H155	H	0.820417	0.277599	-0.103844
H156	H	0.796931	0.201282	-0.076042
H157	H	0.808551	0.228906	-0.010287
H158	H	0.710125	0.358295	-0.169967
H159	H	0.721743	0.385942	-0.104222
H160	H	0.696330	0.388251	0.523548
C161	C	0.769215	1.338110	-0.513402
C162	C	0.771548	1.268999	-0.427082
H163	H	0.795200	1.365078	-0.508850
H164	H	0.723446	1.391267	-0.546836
H165	H	0.787427	1.304847	-0.543055
H166	H	0.753331	1.302264	-0.397431
H167	H	0.817326	1.215833	-0.393634
C168	C	0.585774	1.037137	-0.682808
C169	C	0.612464	0.961266	-0.590610
H170	H	0.563170	1.101385	-0.691222
H171	H	0.554448	1.030741	-0.709865
H172	H	0.621609	1.030747	-0.709861
H173	H	0.576629	0.967651	-0.563558
H174	H	0.643792	0.967665	-0.563541
H175	H	1.071826	0.373137	0.357768
H176	H	0.971406	0.502254	0.216317
H177	H	0.235291	0.981121	-0.126007
C178	C	0.162895	0.642926	0.058483
C179	C	0.110076	0.623639	0.069010
H180	H	0.205268	0.580934	0.092301
H181	H	0.158299	0.684220	0.079327
H182	H	0.160944	0.676690	-0.003319
H183	H	0.112024	0.589882	0.130812
H184	H	0.114673	0.582329	0.048171
H185	H	0.345258	0.981131	-0.125995
C186	C	0.858914	0.429167	0.537108
C187	C	0.928756	0.379255	0.547683
H188	H	0.851528	0.407835	0.594573
H189	H	0.837336	0.413549	0.506688
H190	H	0.840516	0.499970	0.502903
H191	H	0.947153	0.308452	0.581883
H192	H	0.950342	0.394866	0.578117
H193	H	0.356166	1.128538	-0.287511
C194	C	0.280421	1.177407	-0.187863
C195	C	0.349256	1.130355	-0.145578
H196	H	0.275804	1.148116	-0.217693
H197	H	0.262308	1.247428	-0.230495
H198	H	0.256473	1.168572	-0.144072
H199	H	0.373204	1.139197	-0.189371
H200	H	0.367378	1.060318	-0.102942
C201	C	0.880942	0.366323	-0.152527
C202	C	0.949777	0.319284	-0.110255
H203	H	0.876326	0.337035	-0.182361
H204	H	0.862819	0.436346	-0.195154
H205	H	0.857000	0.357471	-0.108728
H206	H	0.973718	0.328141	-0.154055
H207	H	0.967908	0.249243	-0.067623
H208	H	0.700743	1.314701	-0.582611
C209	C	0.634569	1.322436	-0.685912
C210	C	0.621854	1.251559	-0.618889
H211	H	0.612153	1.343787	-0.743375
H212	H	0.682066	1.292596	-0.678039
H213	H	0.618098	1.379001	-0.681784
H214	H	0.638329	1.194989	-0.623013
H215	H	0.574347	1.281397	-0.626765
H216	H	0.621697	1.113455	-0.453292
H217	H	-0.017687	0.649671	0.054815
H218	H	-0.134293	0.981131	-0.126032
H219	H	1.068792	0.268380	-0.011800
C220	C	0.561324	1.033026	-0.368873
C221	C	0.515028	1.102145	-0.455191
H222	H	0.606283	1.006076	-0.373431
H223	H	0.552965	0.979857	-0.335449
H224	H	0.556129	1.066276	-0.339207
H225	H	0.520220	1.068893	-0.484855
H226	H	0.523390	1.155323	-0.488629
C227	C	1.130575	0.233997	0.149922
C228	C	1.099513	0.336720	0.081502
H229	H	1.174366	0.210342	0.182076
H230	H	1.134782	0.197160	0.124202
H231	H	1.103644	0.224828	0.189897
H232	H	1.126441	0.345888	0.041523
H233	H	1.095308	0.373568	0.107222
C234	C	-0.092449	1.087336	-0.183984
C235	C	-0.024841	1.007157	-0.140232
H236	H	-0.093688	1.149324	-0.217810
H237	H	-0.116080	1.087309	-0.140595
H238	H	-0.113426	1.079757	-0.223230
H239	H	-0.003866	1.014732	-0.100981
H240	H	-0.001201	1.007186	-0.183627
H241	H	0.831425	0.517338	0.382092
H242	H	0.976381	0.488133	0.061861
H243	H	0.255748	1.257688	-0.428962
H244	H	0.626868	0.316099	0.511469
C245	C	1.128288	0.267566	0.509849
C246	C	1.067838	0.295810	0.533620
H247	H	1.165856	0.219252	0.562762
H248	H	1.131598	0.325338	0.473460
H249	H	1.128408	0.238938	0.477216
H250	H	1.067716	0.324445	0.566247
H251	H	1.064526	0.238027	0.570023
H252	H	0.275508	1.314740	-0.582593
C253	C	0.336232	1.322445	-0.685899
C254	C	0.398816	1.251572	-0.618879
H255	H	0.343621	1.343770	-0.743362
H256	H	0.312914	1.379017	-0.681790
H257	H	0.309721	1.292604	-0.678003
H258	H	0.425325	1.281414	-0.626771
H259	H	0.422144	1.194989	-0.622991
H260	H	0.566951	0.373085	0.357877
