data_functionalizedCrystal
_audit_creation_method	'MofGen! by Chris Wilmer'
_symmetry_space_group_name_H-M	'P1'
_symmetry_Int_Tables_number	1
_symmetry_cell_setting	triclinic
loop_
_symmetry_equiv_pos_as_xyz
  x,y,z
_cell_length_a	21.395362
_cell_length_b	12.759399
_cell_length_c	21.395355
_cell_angle_alpha	90.012690
_cell_angle_beta	90.043940
_cell_angle_gamma	90.031625
loop_
_atom_site_label
_atom_site_type_symbol
_atom_site_fract_x
_atom_site_fract_y
_atom_site_fract_z
Zn1	Zn	0.957925	-0.417943	0.354611
Zn2	Zn	1.457925	0.082057	0.854611
Zn3	Zn	0.957854	-0.593607	0.249844
Zn4	Zn	1.457854	-0.093607	0.749844
Zn5	Zn	0.853140	-0.417992	0.249812
Zn6	Zn	1.353140	0.082008	0.749812
Zn7	Zn	0.853136	-0.593629	0.354549
Zn8	Zn	1.353136	-0.093629	0.854549
O9	O	0.905514	-0.505793	0.302204
O10	O	1.405514	-0.005793	0.802204
O11	O	1.045593	-0.441215	0.340753
O12	O	1.545593	0.058785	0.840753
O13	O	0.943936	-0.570323	0.162162
O14	O	1.443936	-0.070323	0.662162
O15	O	0.867070	-0.270964	0.263727
O16	O	1.367070	0.229036	0.763727
O17	O	1.045542	-0.570275	0.263781
O18	O	1.545542	-0.070275	0.763781
O19	O	0.944055	-0.270928	0.340722
O20	O	1.444055	0.229072	0.840722
O21	O	0.867002	-0.441299	0.162139
O22	O	1.367002	0.058701	0.662139
O23	O	0.765461	-0.441320	0.263666
O24	O	1.265461	0.058680	0.763666
O25	O	0.867064	-0.570312	0.442235
O26	O	1.367064	-0.070312	0.942235
O27	O	0.765459	-0.570360	0.340616
O28	O	1.265459	-0.070360	0.840616
O29	O	0.944052	-0.441236	0.442281
O30	O	1.444052	0.058764	0.942281
O31	O	0.943933	-0.740631	0.263721
O32	O	1.443933	-0.240631	0.763721
O33	O	0.866996	-0.740647	0.340647
O34	O	1.366996	-0.240647	0.840647
C35	C	0.742726	-0.505848	0.302131
C36	C	1.242726	-0.005848	0.802131
C37	C	0.673085	-0.505897	0.302115
C38	C	1.173085	-0.005897	0.802115
C39	C	0.640387	-0.573177	0.342123
C40	C	1.140387	-0.073177	0.842123
C41	C	0.574951	-0.573152	0.342151
C42	C	1.074951	-0.073152	0.842151
C43	C	0.542216	-0.505857	0.302160
C44	C	1.042216	-0.005857	0.802160
C45	C	0.574922	-0.438564	0.262149
C46	C	1.074922	0.061436	0.762149
C47	C	0.640357	-0.438584	0.262127
C48	C	1.140357	0.061416	0.762127
C49	C	0.438490	-0.497393	0.245754
C50	C	0.938490	0.002607	0.745754
C51	C	0.373057	-0.497380	0.245775
C52	C	0.873057	0.002620	0.745775
C53	C	0.340396	-0.505788	0.302229
C54	C	0.840396	-0.005788	0.802229
C55	C	0.373175	-0.514231	0.358663
C56	C	0.873175	-0.014231	0.858663
C57	C	0.438609	-0.514251	0.358641
C58	C	0.938609	-0.014251	0.858641
C59	C	0.471264	-0.505827	0.302180
C60	C	0.971264	-0.005827	0.802180
C61	C	0.236745	-0.573044	0.342270
C62	C	0.736745	-0.073044	0.842270
C63	C	0.171309	-0.573011	0.342299
C64	C	0.671309	-0.073011	0.842299
C65	C	0.171281	-0.438428	0.262292
C66	C	0.671281	0.061572	0.762292
C67	C	0.236716	-0.438456	0.262269
C68	C	0.736716	0.061544	0.762269
C69	C	0.269444	-0.505769	0.302257
C70	C	0.769444	-0.005769	0.802257
C71	C	0.905473	-0.778760	0.302194
C72	C	1.405473	-0.278760	0.802194
C73	C	0.905514	-0.895537	0.302211
C74	C	1.405514	-0.395537	0.802211
C75	C	0.865447	-0.950445	0.342237
C76	C	1.365447	-0.450445	0.842237
C77	C	0.865486	-1.060169	0.342249
C78	C	1.365486	-0.560169	0.842249
C79	C	0.945664	-1.060067	0.262207
C80	C	1.445664	-0.560067	0.762207
C81	C	0.945621	-0.950345	0.262192
C82	C	1.445621	-0.450345	0.762192
C83	C	0.791641	-1.210252	0.364564
C84	C	1.291641	-0.710252	0.864564
C85	C	0.751580	-1.265164	0.404600
C86	C	1.251580	-0.765164	0.904600
C87	C	0.741917	-1.229527	0.465719
C88	C	1.241917	-0.729527	0.965719
C89	C	0.772325	-1.138980	0.486814
C90	C	1.272325	-0.638980	0.986814
C91	C	0.812391	-1.084073	0.446781
C92	C	1.312391	-0.584073	0.946781
C93	C	0.822042	-1.119709	0.385654
C94	C	1.322042	-0.619709	0.885654
C95	C	1.019467	-0.800260	0.239884
C96	C	1.519467	-0.300260	0.739884
C97	C	1.059536	-0.745351	0.199854
C98	C	1.559536	-0.245351	0.699854
C99	C	1.069205	-0.780986	0.138734
C100	C	1.569205	-0.280986	0.638734
C101	C	1.038809	-0.871537	0.117641
C102	C	1.538809	-0.371537	0.617641
C103	C	0.998739	-0.926445	0.157671
C104	C	1.498739	-0.426445	0.657671
C105	C	0.989069	-0.890803	0.218791
C106	C	1.489069	-0.390803	0.718791
C107	C	1.068937	-0.505738	0.302277
C108	C	1.568937	-0.005738	0.802277
C109	C	1.138578	-0.505714	0.302309
C110	C	1.638578	-0.005714	0.802309
C111	C	0.905566	-0.505771	0.465627
C112	C	1.405566	-0.005771	0.965627
C113	C	0.905588	-0.505762	0.535269
C114	C	1.405588	-0.005762	1.035269
C115	C	0.905571	-0.231759	0.302228
C116	C	1.405571	0.268241	0.802228
C117	C	0.905596	-0.114983	0.302238
C118	C	1.405596	0.385017	0.802238
C119	C	0.905498	-0.505738	0.139417
C120	C	1.405498	-0.005738	0.639417
C121	C	0.905597	-0.505451	0.069776
C122	C	1.405597	-0.005451	0.569776
C123	C	0.945674	-0.438550	0.568007
C124	C	1.445674	0.061450	1.068007
C125	C	0.945673	-0.438504	0.633442
C126	C	1.445673	0.061496	1.133442
C127	C	0.905593	-0.505691	0.666137
C128	C	1.405593	-0.005691	1.166137
C129	C	0.865499	-0.572908	0.633391
C130	C	1.365499	-0.072908	1.133391
C131	C	0.865497	-0.572944	0.567957
C132	C	1.365497	-0.072944	1.067957
C133	C	0.900632	-0.600292	0.769807
C134	C	1.400632	-0.100292	1.269807
C135	C	0.900638	-0.600258	0.835240
C136	C	1.400638	-0.100258	1.335240
C137	C	0.905597	-0.505580	0.867958
C138	C	1.405597	-0.005580	1.367958
C139	C	0.910561	-0.410932	0.835235
C140	C	1.410561	0.089068	1.335235
C141	C	0.910559	-0.410968	0.769801
C142	C	1.410559	0.089032	1.269801
C143	C	0.905591	-0.505659	0.737090
C144	C	1.405591	-0.005659	1.237090
C145	C	0.945684	-0.438312	0.971648
C146	C	1.445684	0.061688	1.471648
C147	C	0.945678	-0.438265	1.037085
C148	C	1.445678	0.061735	1.537085
C149	C	0.865508	-0.572678	1.037033
C150	C	1.365508	-0.072678	1.537033
C151	C	0.865510	-0.572716	0.971598
C152	C	1.365510	-0.072716	1.471598
C153	C	0.905601	-0.505534	0.938909
C154	C	1.405601	-0.005534	1.438909
H155	H	0.548265	-0.383770	0.229590
H156	H	1.048265	0.116230	0.729590
Br157	Br	1.006333	-0.751876	0.322832
Br158	Br	1.506333	-0.251876	0.822832
Br159	Br	0.687552	-1.304056	0.520053
Br160	Br	1.187552	-0.804056	1.020053
Br161	Br	0.530565	-0.664465	0.396452
Br162	Br	1.030565	-0.164465	0.896452
Br163	Br	1.000089	-0.347137	0.927282
Br164	Br	1.500089	0.152863	1.427282
H165	H	1.101835	-0.736270	0.106143
H166	H	1.601835	-0.236270	0.606143
Br167	Br	0.917293	-0.282526	0.725393
Br168	Br	1.417293	0.217474	1.225393
H169	H	0.832788	-0.905823	0.374822
H170	H	1.332788	-0.405823	0.874822
H171	H	0.263339	-0.383674	0.229687
H172	H	0.763339	0.116326	0.729687
H173	H	0.978318	-0.383844	0.541396
H174	H	1.478318	0.116156	1.041396
Br175	Br	1.000063	-0.347255	0.677882
Br176	Br	1.500063	0.152745	1.177882
Br177	Br	0.281166	-0.664391	0.396541
Br178	Br	0.781166	-0.164391	0.896541
H179	H	0.978319	-1.104704	0.229626
H180	H	1.478319	-0.604704	0.729626
H181	H	0.144687	-0.627796	0.374882
H182	H	0.644687	-0.127796	0.874882
Br183	Br	1.100796	-0.622466	0.228483
Br184	Br	1.600796	-0.122466	0.728483
H185	H	0.832872	-0.627454	0.944942
H186	H	1.332872	-0.127454	1.444942
Br187	Br	0.126862	-0.347088	0.208024
Br188	Br	0.626862	0.152912	0.708024
H189	H	0.832868	-0.627372	1.063653
H190	H	1.332868	-0.127372	1.563653
H191	H	0.914600	-0.333836	0.861873
H192	H	1.414600	0.166164	1.361873
H193	H	0.896426	-0.677371	0.743173
H194	H	1.396426	-0.177371	1.243173
H195	H	0.465295	-0.521123	0.404591
H196	H	0.965295	-0.021123	0.904591
Br197	Br	0.811089	-0.664167	0.523524
Br198	Br	1.311089	-0.164167	1.023524
Br199	Br	0.328857	-0.525640	0.435285
Br200	Br	0.828857	-0.025640	0.935285
H201	H	0.973990	-1.000178	0.140493
H202	H	1.473990	-0.500178	0.640493
H203	H	0.978320	-0.383527	1.063739
H204	H	1.478320	0.116473	1.563739
H205	H	0.896600	-0.677325	0.861878
H206	H	1.396600	-0.177325	1.361878
Br207	Br	0.811100	-0.664083	0.677761
Br208	Br	1.311100	-0.164083	1.177761
H209	H	0.667030	-0.627988	0.374685
H210	H	1.167030	-0.127988	0.874685
H211	H	0.837149	-1.010352	0.463957
H212	H	1.337149	-0.510352	0.963957
H213	H	0.666979	-0.383793	0.229548
H214	H	1.166979	0.116207	0.729548
Br215	Br	0.759220	-1.090633	0.569771
Br216	Br	1.259220	-0.590633	1.069771
H217	H	0.726822	-1.338888	0.387418
H218	H	1.226822	-0.838888	0.887418
H219	H	0.799498	-1.239268	0.314793
H220	H	1.299498	-0.739268	0.814793
Br221	Br	1.051935	-0.919912	0.034692
Br222	Br	1.551935	-0.419912	0.534692
H223	H	0.346374	-0.490512	0.199823
H224	H	0.846374	0.009488	0.699823
H225	H	0.465078	-0.490542	0.199780
H226	H	0.965078	0.009458	0.699780
