data_functionalizedCrystal
_audit_creation_method	'MofGen! by Chris Wilmer'
_symmetry_space_group_name_H-M	'P1'
_symmetry_Int_Tables_number	1
_symmetry_cell_setting	triclinic
loop_
_symmetry_equiv_pos_as_xyz
  x,y,z
_cell_length_a	18.050591
_cell_length_b	18.050589
_cell_length_c	18.050582
_cell_angle_alpha	90.018912
_cell_angle_beta	90.021817
_cell_angle_gamma	90.024227
loop_
_atom_site_label
_atom_site_type_symbol
_atom_site_fract_x
_atom_site_fract_y
_atom_site_fract_z
Zn1	Zn	-1.135299	0.295781	-0.420054
Zn2	Zn	-0.885299	0.545781	-0.170054
Zn3	Zn	-0.635299	0.795781	0.079946
Zn4	Zn	-0.385299	1.045781	0.329946
Zn5	Zn	-1.135208	0.419965	-0.295873
Zn6	Zn	-0.885208	0.669965	-0.045873
Zn7	Zn	-0.635208	0.919965	0.204127
Zn8	Zn	-0.385208	1.169965	0.454127
Zn9	Zn	-1.011116	0.295785	-0.295865
Zn10	Zn	-0.761116	0.545785	-0.045865
Zn11	Zn	-0.511116	0.795785	0.204135
Zn12	Zn	-0.261116	1.045785	0.454135
Zn13	Zn	-1.011066	0.419925	-0.420009
Zn14	Zn	-0.761066	0.669925	-0.170009
Zn15	Zn	-0.511066	0.919925	0.079991
Zn16	Zn	-0.261066	1.169925	0.329991
O17	O	-1.073172	0.357864	-0.357950
O18	O	-0.823172	0.607864	-0.107950
O19	O	-0.573172	0.857864	0.142050
O20	O	-0.323172	1.107864	0.392050
O21	O	-1.239212	0.312269	-0.403603
O22	O	-0.989212	0.562269	-0.153603
O23	O	-0.739212	0.812269	0.096397
O24	O	-0.489212	1.062269	0.346397
O25	O	-1.118730	0.403512	-0.191948
O26	O	-0.868730	0.653512	0.058052
O27	O	-0.618730	0.903512	0.308052
O28	O	-0.368730	1.153512	0.558052
O29	O	-1.027649	0.191860	-0.312354
O30	O	-0.777649	0.441860	-0.062354
O31	O	-0.527649	0.691860	0.187646
O32	O	-0.277649	0.941860	0.437646
O33	O	-1.239145	0.403507	-0.312369
O34	O	-0.989145	0.653507	-0.062369
O35	O	-0.739145	0.903507	0.187631
O36	O	-0.489145	1.153507	0.437631
O37	O	-1.118885	0.191857	-0.403595
O38	O	-0.868885	0.441857	-0.153595
O39	O	-0.618885	0.691857	0.096405
O40	O	-0.368885	0.941857	0.346405
O41	O	-1.027560	0.312277	-0.191942
O42	O	-0.777560	0.562277	0.058058
O43	O	-0.527560	0.812277	0.308058
O44	O	-0.277560	1.062277	0.558058
O45	O	-0.907185	0.312237	-0.312311
O46	O	-0.657185	0.562237	-0.062311
O47	O	-0.407185	0.812237	0.187689
O48	O	-0.157185	1.062237	0.437689
O49	O	-1.027563	0.403438	-0.523940
O50	O	-0.777563	0.653438	-0.273940
O51	O	-0.527563	0.903438	-0.023940
O52	O	-0.277563	1.153438	0.226060
O53	O	-0.907148	0.403442	-0.403519
O54	O	-0.657148	0.653442	-0.153519
O55	O	-0.407148	0.903442	0.096481
O56	O	-0.157148	1.153442	0.346481
O57	O	-1.118837	0.312230	-0.523973
O58	O	-0.868837	0.562230	-0.273973
O59	O	-0.618837	0.812230	-0.023973
O60	O	-0.368837	1.062230	0.226027
O61	O	-1.118681	0.523885	-0.312325
O62	O	-0.868681	0.773885	-0.062325
O63	O	-0.618681	1.023885	0.187675
O64	O	-0.368681	1.273885	0.437675
O65	O	-1.027475	0.523855	-0.403527
O66	O	-0.777475	0.773855	-0.153527
O67	O	-0.527475	1.023855	0.096473
O68	O	-0.277475	1.273855	0.346473
C69	C	-0.880220	0.357836	-0.357909
C70	C	-0.630220	0.607836	-0.107909
C71	C	-0.380220	0.857836	0.142091
C72	C	-0.130220	1.107836	0.392091
C73	C	-0.797674	0.357842	-0.357909
C74	C	-0.547674	0.607842	-0.107909
C75	C	-0.297674	0.857842	0.142091
C76	C	-0.047674	1.107842	0.392091
C77	C	-1.073083	0.550816	-0.357938
C78	C	-0.823083	0.800816	-0.107938
C79	C	-0.573083	1.050816	0.142062
C80	C	-0.323083	1.300816	0.392062
C81	C	-1.073112	0.633362	-0.357958
C82	C	-0.823112	0.883362	-0.107958
C83	C	-0.573112	1.133362	0.142042
C84	C	-0.323112	1.383362	0.392042
C85	C	-1.266878	0.357892	-0.357992
C86	C	-1.016878	0.607892	-0.107992
C87	C	-0.766878	0.857892	0.142008
C88	C	-0.516878	1.107892	0.392008
C89	C	-1.349424	0.357904	-0.358010
C90	C	-1.099424	0.607904	-0.108010
C91	C	-0.849424	0.857904	0.141990
C92	C	-0.599424	1.107904	0.391990
C93	C	-1.073205	0.357829	-0.551656
C94	C	-0.823205	0.607829	-0.301656
C95	C	-0.573205	0.857829	-0.051656
C96	C	-0.323205	1.107829	0.198344
C97	C	-1.073218	0.357814	-0.634202
C98	C	-0.823218	0.607814	-0.384202
C99	C	-0.573218	0.857814	-0.134202
C100	C	-0.323218	1.107814	0.115798
C101	C	-0.598222	0.308188	-0.308425
C102	C	-0.348222	0.558188	-0.058425
C103	C	-0.098222	0.808188	0.191575
C104	C	0.151778	1.058188	0.441575
C105	C	-0.548802	0.375924	-0.290154
C106	C	-0.298802	0.625924	-0.040154
C107	C	-0.048802	0.875924	0.209846
C108	C	0.201198	1.125924	0.459846
C109	C	-0.646544	0.357865	-0.357943
C110	C	-0.396544	0.607865	-0.107943
C111	C	-0.146544	0.857865	0.142057
C112	C	0.103456	1.107865	0.392057
C113	C	-0.548882	0.290152	-0.376212
C114	C	-0.298882	0.540152	-0.126212
C115	C	-0.048882	0.790152	0.123788
C116	C	0.201118	1.040152	0.373788
C117	C	-0.500559	0.357881	-0.357974
C118	C	-0.250559	0.607881	-0.107974
C119	C	-0.000559	0.857881	0.142026
C120	C	0.249441	1.107881	0.392026
C121	C	-0.598211	0.425637	-0.339637
C122	C	-0.348211	0.675637	-0.089637
C123	C	-0.098211	0.925637	0.160363
C124	C	0.151789	1.175637	0.410363
C125	C	-0.598296	0.339819	-0.425726
C126	C	-0.348296	0.589819	-0.175726
C127	C	-0.098296	0.839819	0.074274
C128	C	0.151704	1.089819	0.324274
C129	C	-0.548898	0.407602	-0.407481
C130	C	-0.298898	0.657602	-0.157481
C131	C	-0.048898	0.907602	0.092519
C132	C	0.201102	1.157602	0.342519
C133	C	-0.730642	0.357855	-0.357923
C134	C	-0.480642	0.607855	-0.107923
C135	C	-0.230642	0.857855	0.142077
C136	C	0.019358	1.107855	0.392077
C137	C	-0.416462	0.357898	-0.357994
C138	C	-0.166462	0.607898	-0.107994
C139	C	0.083538	0.857898	0.142006
C140	C	0.333538	1.107898	0.392006
C141	C	-1.073283	0.164158	-0.357979
C142	C	-0.823283	0.414158	-0.107979
C143	C	-0.573283	0.664158	0.142021
C144	C	-0.323283	0.914158	0.392021
C145	C	-1.073330	0.081612	-0.357991
C146	C	-0.823330	0.331612	-0.107991
C147	C	-0.573330	0.581612	0.142009
C148	C	-0.323330	0.831612	0.392009
C149	C	-1.023563	0.832823	-0.407536
C150	C	-0.773563	1.082823	-0.157536
C151	C	-0.523563	1.332823	0.092464
C152	C	-0.273563	1.582823	0.342464
C153	C	-1.005464	0.882257	-0.339767
C154	C	-0.755464	1.132257	-0.089767
C155	C	-0.505464	1.382257	0.160233
C156	C	-0.255464	1.632257	0.410233
C157	C	-1.073185	0.784492	-0.357967
C158	C	-0.823185	1.034492	-0.107967
C159	C	-0.573185	1.284492	0.142033
C160	C	-0.323185	1.534492	0.392033
C161	C	-1.091321	0.882140	-0.425744
C162	C	-0.841321	1.132140	-0.175744
C163	C	-0.591321	1.382140	0.074256
C164	C	-0.341321	1.632140	0.324256
C165	C	-1.073254	0.930477	-0.357983
C166	C	-0.823254	1.180477	-0.107983
C167	C	-0.573254	1.430477	0.142017
C168	C	-0.323254	1.680477	0.392017
C169	C	-1.055051	0.832838	-0.290162
C170	C	-0.805051	1.082838	-0.040162
C171	C	-0.555051	1.332838	0.209838
C172	C	-0.305051	1.582838	0.459838
C173	C	-1.140939	0.832718	-0.376186
C174	C	-0.890939	1.082718	-0.126186
C175	C	-0.640939	1.332718	0.123814
C176	C	-0.390939	1.582718	0.373814
C177	C	-1.122866	0.882129	-0.308370
C178	C	-0.872866	1.132129	-0.058370
C179	C	-0.622866	1.382129	0.191630
C180	C	-0.372866	1.632129	0.441630
C181	C	-1.073144	0.700394	-0.357959
C182	C	-0.823144	0.950394	-0.107959
C183	C	-0.573144	1.200394	0.142041
C184	C	-0.323144	1.450394	0.392041
C185	C	-1.073296	1.014574	-0.357983
C186	C	-0.823296	1.264574	-0.107983
C187	C	-0.573296	1.514574	0.142017
C188	C	-0.323296	1.764574	0.392017
C189	C	-1.023630	0.407332	-0.883010
C190	C	-0.773630	0.657332	-0.633010
C191	C	-0.523630	0.907332	-0.383010
C192	C	-0.273630	1.157332	-0.133010
C193	C	-1.005490	0.339593	-0.833615
C194	C	-0.755490	0.589593	-0.583615
C195	C	-0.505490	0.839593	-0.333615
C196	C	-0.255490	1.089593	-0.083615
C197	C	-1.073281	0.357704	-0.931322
C198	C	-0.823281	0.607704	-0.681322
C199	C	-0.573281	0.857704	-0.431322
C200	C	-0.323281	1.107704	-0.181322
C201	C	-1.091355	0.425493	-0.833636
C202	C	-0.841355	0.675493	-0.583636
C203	C	-0.591355	0.925493	-0.333636
C204	C	-0.341355	1.175493	-0.083636
C205	C	-1.073248	0.357762	-0.785337
C206	C	-0.823248	0.607762	-0.535337
C207	C	-0.573248	0.857762	-0.285337
C208	C	-0.323248	1.107762	-0.035337
C209	C	-1.055106	0.289930	-0.883015
C210	C	-0.805106	0.539930	-0.633015
C211	C	-0.555106	0.789930	-0.383015
C212	C	-0.305106	1.039930	-0.133015
C213	C	-1.141003	0.375875	-0.883040
C214	C	-0.891003	0.625875	-0.633040
C215	C	-0.641003	0.875875	-0.383040
C216	C	-0.391003	1.125875	-0.133040
C217	C	-1.122888	0.308090	-0.833667
C218	C	-0.872888	0.558090	-0.583667
C219	C	-0.622888	0.808090	-0.333667
C220	C	-0.372888	1.058090	-0.083667
C221	C	-1.073298	0.357672	-1.015421
C222	C	-0.823298	0.607672	-0.765421
C223	C	-0.573298	0.857672	-0.515421
C224	C	-0.323298	1.107672	-0.265421
C225	C	-1.073231	0.357786	-0.701241
C226	C	-0.823231	0.607786	-0.451241
C227	C	-0.573231	0.857786	-0.201241
C228	C	-0.323231	1.107786	0.048759
C229	C	-1.073183	0.357846	-0.164998
C230	C	-0.823183	0.607846	0.085002
C231	C	-0.573183	0.857846	0.335002
C232	C	-0.323183	1.107846	0.585002
C233	C	-1.073313	0.357651	-0.082453
C234	C	-0.823313	0.607651	0.167547
C235	C	-0.573313	0.857651	0.417547
C236	C	-0.323313	1.107651	0.667547
H237	H	-0.619879	0.266222	-0.266503
H238	H	-0.369879	0.516222	-0.016503
H239	H	-0.119879	0.766222	0.233497
H240	H	0.130121	1.016222	0.483497
H241	H	-1.198271	0.391245	-0.904766
H242	H	-0.948271	0.641245	-0.654766
H243	H	-0.698271	0.891245	-0.404766
H244	H	-0.448271	1.141245	-0.154766
H245	H	-1.106632	0.903797	-0.483056
H246	H	-0.856632	1.153797	-0.233056
H247	H	-0.606632	1.403797	0.016944
H248	H	-0.356632	1.653797	0.266944
H249	H	-0.981624	0.449222	-0.904676
H250	H	-0.731624	0.699222	-0.654676
H251	H	-0.481624	0.949222	-0.404676
H252	H	-0.231624	1.199222	-0.154676
H253	H	-1.198190	0.810943	-0.391613
H254	H	-0.948190	1.060943	-0.141613
H255	H	-0.698190	1.310943	0.108387
H256	H	-0.448190	1.560943	0.358387
H257	H	-1.106657	0.482797	-0.811946
H258	H	-0.856657	0.732797	-0.561946
H259	H	-0.606657	0.982797	-0.311946
H260	H	-0.356657	1.232797	-0.061946
H261	H	-1.164859	0.903642	-0.266409
H262	H	-0.914859	1.153642	-0.016409
H263	H	-0.664859	1.403642	0.233591
H264	H	-0.414859	1.653642	0.483591
H265	H	-0.948200	0.904033	-0.324371
H266	H	-0.698200	1.154033	-0.074371
H267	H	-0.448200	1.404033	0.175629
H268	H	-0.198200	1.654033	0.425629
H269	H	-0.981538	0.811173	-0.449395
H270	H	-0.731538	1.061173	-0.199395
H271	H	-0.481538	1.311173	0.050605
H272	H	-0.231538	1.561173	0.300605
H273	H	-1.039740	0.232609	-0.904614
H274	H	-0.789740	0.482609	-0.654614
H275	H	-0.539740	0.732609	-0.404614
H276	H	-0.289740	0.982609	-0.154614
H277	H	-1.164863	0.266098	-0.812139
H278	H	-0.914863	0.516098	-0.562139
H279	H	-0.664863	0.766098	-0.312139
H280	H	-0.414863	1.016098	-0.062139
H281	H	-0.619790	0.482924	-0.324134
H282	H	-0.369790	0.732924	-0.074134
H283	H	-0.119790	0.982924	0.175866
H284	H	0.130210	1.232924	0.425866
H285	H	-0.948205	0.324244	-0.811905
H286	H	-0.698205	0.574244	-0.561905
H287	H	-0.448205	0.824244	-0.311905
H288	H	-0.198205	1.074244	-0.061905
H289	H	-0.527064	0.391199	-0.232844
H290	H	-0.277064	0.641199	0.017156
H291	H	-0.027064	0.891199	0.267156
H292	H	0.222936	1.141199	0.517156
H293	H	-0.527377	0.449668	-0.449370
H294	H	-0.277377	0.699668	-0.199370
H295	H	-0.027377	0.949668	0.050630
H296	H	0.222623	1.199668	0.300630
H297	H	-0.620052	0.324524	-0.483019
H298	H	-0.370052	0.574524	-0.233019
H299	H	-0.120052	0.824524	0.016981
H300	H	0.129948	1.074524	0.266981
H301	H	-1.039673	0.811272	-0.232834
H302	H	-0.789673	1.061272	0.017166
H303	H	-0.539673	1.311272	0.267166
H304	H	-0.289673	1.561272	0.517166
H305	H	-0.527175	0.232889	-0.391625
H306	H	-0.277175	0.482889	-0.141625
H307	H	-0.027175	0.732889	0.108375
H308	H	0.222825	0.982889	0.358375
