data_functionalizedCrystal
_audit_creation_method	'MofGen! by Chris Wilmer'
_symmetry_space_group_name_H-M	'P1'
_symmetry_Int_Tables_number	1
_symmetry_cell_setting	triclinic
loop_
_symmetry_equiv_pos_as_xyz
  x,y,z
_cell_length_a	16.959455
_cell_length_b	16.625546
_cell_length_c	16.959447
_cell_angle_alpha	89.967784
_cell_angle_beta	89.985678
_cell_angle_gamma	90.019415
loop_
_atom_site_label
_atom_site_type_symbol
_atom_site_fract_x
_atom_site_fract_y
_atom_site_fract_z
Zn1	Zn	1.208371	-0.321051	-0.446898
Zn2	Zn	1.208288	-0.455899	-0.314715
Zn3	Zn	1.076199	-0.321077	-0.314736
Zn4	Zn	1.076158	-0.455839	-0.446854
O5	O	1.142254	-0.388466	-0.380801
O6	O	1.318970	-0.338954	-0.429374
O7	O	1.190748	-0.438050	-0.204107
O8	O	1.093784	-0.208241	-0.332295
O9	O	1.318909	-0.438026	-0.332260
O10	O	1.190890	-0.208222	-0.429394
O11	O	1.093703	-0.338997	-0.204122
O12	O	0.965583	-0.338939	-0.332252
O13	O	1.093714	-0.437923	-0.557471
O14	O	0.965553	-0.437947	-0.429318
O15	O	1.190850	-0.338895	-0.557503
O16	O	1.190709	-0.568723	-0.332217
O17	O	1.093634	-0.568679	-0.429298
C18	C	0.936888	-0.388440	-0.380783
C19	C	0.849031	-0.388448	-0.380794
C20	C	0.477547	-0.336870	-0.330364
C21	C	0.477564	-0.440129	-0.431283
C22	C	0.560110	-0.440117	-0.431278
C23	C	0.601378	-0.388482	-0.380815
C24	C	0.560100	-0.336859	-0.330356
C25	C	0.601394	-0.491746	-0.481731
C26	C	0.683945	-0.491737	-0.481727
C27	C	0.725215	-0.440097	-0.431267
C28	C	0.683932	-0.388471	-0.380807
C29	C	0.725200	-0.336836	-0.330343
C30	C	0.683918	-0.285205	-0.279886
C31	C	0.601370	-0.285219	-0.279895
C32	C	0.807763	-0.440083	-0.431257
C33	C	0.807753	-0.336824	-0.330335
C34	C	1.142179	-0.597957	-0.380768
C35	C	1.142219	-0.687578	-0.380780
C36	C	1.142357	-1.015754	-0.380862
C37	C	1.142316	-0.924445	-0.380842
C38	C	1.142288	-0.851669	-0.380821
C39	C	1.142248	-0.760355	-0.380801
C40	C	1.348422	-0.388494	-0.380819
C41	C	1.436279	-0.388505	-0.380827
C42	C	1.142287	-0.388400	-0.586969
C43	C	1.142301	-0.388371	-0.674826
C44	C	1.142351	-0.178157	-0.380851
C45	C	1.142392	-0.088536	-0.380873
C46	C	1.091821	-0.439845	-1.046287
C47	C	1.192969	-0.336727	-1.046316
C48	C	1.192948	-0.336744	-0.963770
C49	C	1.142364	-0.388313	-0.922479
C50	C	1.091800	-0.439866	-0.963734
C51	C	1.243517	-0.285199	-0.922509
C52	C	1.243498	-0.285214	-0.839958
C53	C	1.192909	-0.336780	-0.798666
C54	C	1.142343	-0.388334	-0.839925
C55	C	1.091758	-0.439903	-0.798634
C56	C	1.041187	-0.491453	-0.839892
C57	C	1.041211	-0.491431	-0.922441
C58	C	1.192886	-0.336802	-0.716117
C59	C	1.091737	-0.439923	-0.716080
C60	C	1.142267	-0.388475	-0.175435
C61	C	1.142406	-0.388276	-0.087578
H62	H	0.567751	-0.243185	-0.238815
H63	H	1.234158	-0.294746	-1.079940
H64	H	1.234062	-0.294833	-0.682528
H65	H	1.284705	-0.243219	-0.956135
H66	H	1.284676	-0.243239	-0.806373
C67	C	0.555997	-0.548538	-0.537237
C68	C	0.499211	-0.611796	-0.502880
C69	C	0.453808	-0.668588	-0.558391
C70	C	0.465189	-0.662121	-0.648259
C71	C	0.521977	-0.598861	-0.682621
C72	C	0.567381	-0.542069	-0.627110
H73	H	0.490784	-0.616585	-0.436351
H74	H	0.411770	-0.715417	-0.532954
H75	H	0.431579	-0.704162	-0.689352
H76	H	0.530405	-0.594071	-0.749151
H77	H	0.609419	-0.495239	-0.652548
C78	C	0.985548	-0.548179	-0.794464
C79	C	0.895695	-0.541587	-0.805800
C80	C	0.840059	-0.598312	-0.760366
C81	C	0.874278	-0.661629	-0.703598
C82	C	0.964136	-0.668224	-0.692259
C83	C	1.019771	-0.611499	-0.737693
H84	H	0.870360	-0.494714	-0.847825
H85	H	0.773540	-0.593430	-0.768760
H86	H	0.833093	-0.703620	-0.669965
H87	H	0.989471	-0.715097	-0.650233
H88	H	1.086291	-0.616381	-0.729299
C89	C	0.432175	-0.496928	-0.486790
C90	C	0.443555	-0.490459	-0.576658
C91	C	0.398163	-0.547260	-0.632169
C92	C	0.341390	-0.610530	-0.597812
C93	C	0.330007	-0.617002	-0.507939
C94	C	0.375400	-0.560200	-0.452428
H95	H	0.485583	-0.443620	-0.602095
H96	H	0.406589	-0.542469	-0.698699
H97	H	0.307788	-0.652578	-0.638904
H98	H	0.287979	-0.663840	-0.482502
H99	H	0.366973	-0.564991	-0.385898
H100	H	1.000041	-0.533403	-0.956041
C101	C	1.036092	-0.496652	-0.670663
C102	C	0.946240	-0.490055	-0.682014
C103	C	0.890595	-0.546783	-0.636597
C104	C	0.924801	-0.610108	-0.579829
C105	C	1.014657	-0.616708	-0.568476
C106	C	1.070302	-0.559979	-0.613893
H107	H	0.920914	-0.443176	-0.724039
H108	H	0.824077	-0.541897	-0.645002
H109	H	0.883609	-0.652102	-0.546209
H110	H	1.039983	-0.663587	-0.526451
H111	H	1.136820	-0.564865	-0.605488
H112	H	0.841348	-0.294771	-0.289245
C113	C	1.036200	-0.496550	-1.091671
C114	C	1.070439	-0.559841	-1.148402
C115	C	1.014820	-0.616546	-1.193789
C116	C	0.924962	-0.609961	-1.182443
C117	C	0.890719	-0.546667	-1.125709
C118	C	0.946338	-0.489962	-1.080322
H119	H	1.136961	-0.564718	-1.156803
H120	H	1.040170	-0.663400	-1.235787
H121	H	0.883790	-0.651937	-1.216041
H122	H	0.824197	-0.541790	-1.117308
H123	H	0.920988	-0.443108	-1.038324
H124	H	0.717529	-0.243167	-0.238795
H125	H	0.443932	-0.294831	-0.289285
H126	H	0.717550	-0.533777	-0.522813
H127	H	0.841371	-0.482122	-0.472336
