data_functionalizedCrystal
_audit_creation_method	'MofGen! by Chris Wilmer'
_symmetry_space_group_name_H-M	'P1'
_symmetry_Int_Tables_number	1
_symmetry_cell_setting	triclinic
loop_
_symmetry_equiv_pos_as_xyz
  x,y,z
_cell_length_a	25.639242
_cell_length_b	25.639239
_cell_length_c	25.639234
_cell_angle_alpha	90.021106
_cell_angle_beta	90.019181
_cell_angle_gamma	90.033587
loop_
_atom_site_label
_atom_site_type_symbol
_atom_site_fract_x
_atom_site_fract_y
_atom_site_fract_z
Zn1	Zn	0.799213	-0.208273	0.295734
Zn2	Zn	0.799140	-0.295696	0.208298
Zn3	Zn	0.711793	-0.208268	0.208299
Zn4	Zn	0.711734	-0.295672	0.295689
O5	O	0.755470	-0.251977	0.252005
O6	O	0.872368	-0.219882	0.284154
O7	O	0.787547	-0.284106	0.135133
O8	O	0.723444	-0.135104	0.219917
O9	O	0.872315	-0.284111	0.219915
O10	O	0.787671	-0.135107	0.284155
O11	O	0.723373	-0.219874	0.135134
O12	O	0.638620	-0.219851	0.219873
O13	O	0.723344	-0.284070	0.368860
O14	O	0.638577	-0.284065	0.284078
O15	O	0.787614	-0.219859	0.368893
O16	O	0.787490	-0.368858	0.219872
O17	O	0.723274	-0.368840	0.284078
C18	C	0.619627	-0.251955	0.251971
C19	C	0.561513	-0.251958	0.251969
C20	C	0.310333	-0.218485	0.218631
C21	C	0.364938	-0.218480	0.218625
O22	O	0.393186	-0.189989	0.190250
N23	N	0.392239	-0.251965	0.251995
C24	C	0.364934	-0.285453	0.285378
O25	O	0.393170	-0.313934	0.313762
C26	C	0.310330	-0.285455	0.285387
C27	C	0.283032	-0.251971	0.252011
C28	C	0.283035	-0.185004	0.185258
C29	C	0.228434	-0.185009	0.185264
C30	C	0.201132	-0.218496	0.218644
C31	C	0.228431	-0.251977	0.252017
C32	C	0.283026	-0.318940	0.318773
C33	C	0.228419	-0.318939	0.318779
C34	C	0.201120	-0.285455	0.285403
C35	C	0.146529	-0.285469	0.285402
N36	N	0.119227	-0.251985	0.252032
C37	C	0.146529	-0.218498	0.218652
C38	C	0.479604	-0.285446	0.285358
C39	C	0.534207	-0.285447	0.285347
C40	C	0.534207	-0.218473	0.218594
C41	C	0.479604	-0.218475	0.218602
C42	C	0.452303	-0.251961	0.251987
C43	C	0.031864	-0.218513	0.218667
C44	C	-0.022742	-0.218523	0.218675
C45	C	-0.022737	-0.285494	0.285430
C46	C	0.031864	-0.285487	0.285421
C47	C	0.059163	-0.251991	0.252038
O48	O	0.118246	-0.313945	0.313764
O49	O	0.118286	-0.190017	0.190278
C50	C	0.755382	-0.387820	0.251981
C51	C	0.755392	-0.445934	0.251988
C52	C	0.788995	-0.806294	0.218630
C53	C	0.789015	-0.860898	0.218637
O54	O	0.817494	-0.889132	0.190249
N55	N	0.755562	-0.888216	0.252040
C56	C	0.722090	-0.860928	0.285441
O57	O	0.693637	-0.889178	0.313854
C58	C	0.722073	-0.806324	0.285437
C59	C	0.755524	-0.779009	0.252028
C60	C	0.822444	-0.778978	0.185225
C61	C	0.822423	-0.724377	0.185217
C62	C	0.788952	-0.697092	0.218615
C63	C	0.755503	-0.724408	0.252021
C64	C	0.688604	-0.779037	0.318840
C65	C	0.688590	-0.724430	0.318833
C66	C	0.722041	-0.697114	0.285425
C67	C	0.722012	-0.642523	0.285411
N68	N	0.755465	-0.615204	0.252008
C69	C	0.788935	-0.642489	0.218610
C70	C	0.722129	-0.975598	0.285449
C71	C	0.722143	-1.030201	0.285452
C72	C	0.789069	-1.030167	0.218648
C73	C	0.789052	-0.975564	0.218644
C74	C	0.755582	-0.948280	0.252047
C75	C	0.788888	-0.527824	0.218597
C76	C	0.788862	-0.473219	0.218591
C77	C	0.721939	-0.473257	0.285396
C78	C	0.721962	-0.527858	0.285400
C79	C	0.755441	-0.555140	0.251999
O80	O	0.693549	-0.614254	0.313786
O81	O	0.817388	-0.614232	0.190208
C82	C	0.891843	-0.252000	0.252040
C83	C	0.949957	-0.252009	0.252054
C84	C	0.755481	-0.251963	0.388378
C85	C	0.755486	-0.251956	0.446492
C86	C	0.755572	-0.115604	0.252041
C87	C	0.755616	-0.057490	0.252056
C88	C	0.755489	-0.251954	0.116163
C89	C	0.755585	-0.251813	0.058049
C90	C	0.722055	-0.285325	0.697663
C91	C	0.722046	-0.285337	0.643059
O92	O	0.693572	-0.313761	0.614803
N93	N	0.755506	-0.251914	0.615766
C94	C	0.788973	-0.218473	0.643081
O95	O	0.817432	-0.190045	0.614853
C96	C	0.788979	-0.218459	0.697684
C97	C	0.755521	-0.251888	0.724974
C98	C	0.688599	-0.318751	0.724953
C99	C	0.688609	-0.318740	0.779553
C100	C	0.722075	-0.285303	0.806864
C101	C	0.755531	-0.251877	0.779575
C102	C	0.822443	-0.185016	0.724998
C103	C	0.822446	-0.185005	0.779605
C104	C	0.788988	-0.218434	0.806895
C105	C	0.789007	-0.218429	0.861486
N106	N	0.755547	-0.251852	0.888778
C107	C	0.722081	-0.285289	0.861467
C108	C	0.788957	-0.218505	0.528410
C109	C	0.788954	-0.218521	0.473808
C110	C	0.722026	-0.285384	0.473789
C111	C	0.722032	-0.285370	0.528393
C112	C	0.755497	-0.251928	0.555703
C113	C	0.722105	-0.285263	0.976133
C114	C	0.722120	-0.285250	1.030738
C115	C	0.789045	-0.218385	1.030752
C116	C	0.789033	-0.218400	0.976151
C117	C	0.755559	-0.251840	0.948843
O118	O	0.817465	-0.190018	0.889777
O119	O	0.693622	-0.313707	0.889702
H120	H	0.206194	-0.346206	0.345967
C121	C	0.685309	-0.322024	1.060753
N122	N	0.657583	-0.349720	1.083359
C123	C	0.651769	-0.694421	0.355580
N124	N	0.624036	-0.671819	0.383258
H125	H	0.305243	-0.346206	0.345951
C126	C	0.825661	-0.443175	0.181835
N127	N	0.853376	-0.420547	0.154150
H128	H	0.694775	-0.312610	0.451543
C129	C	0.198412	-0.148167	0.148555
N130	N	0.175804	-0.120413	0.120906
H131	H	0.816204	-0.191305	0.451593
C132	C	0.685284	-0.322052	0.946101
N133	N	0.657553	-0.349764	0.923482
H134	H	0.054092	-0.312755	0.312594
H135	H	0.661363	-0.345960	0.801767
H136	H	0.305258	-0.157732	0.158076
H137	H	0.816212	-0.191272	0.550643
H138	H	0.661361	-0.801268	0.346043
C139	C	0.825853	-0.945522	0.181894
N140	N	0.853573	-0.922896	0.154213
H141	H	0.849702	-0.801187	0.158028
C142	C	0.859245	-0.148235	0.694992
N143	N	0.886964	-0.120527	0.672392
H144	H	0.816325	-1.052392	0.191456
H145	H	0.457380	-0.191208	0.191426
H146	H	0.694899	-1.052436	0.312652
C147	C	-0.052767	-0.181684	0.181959
N148	N	-0.075380	-0.153937	0.154307
C149	C	0.449578	-0.322295	0.322077
N150	N	0.426966	-0.350050	0.349733
C151	C	0.651781	-0.355538	0.694919
N152	N	0.624049	-0.383251	0.672302
C153	C	0.685310	-0.945591	0.322200
N154	N	0.657580	-0.922992	0.349884
H155	H	0.694725	-0.550099	0.312606
C156	C	0.564249	-0.181634	0.181879
N157	N	0.586879	-0.153887	0.154227
C158	C	0.685125	-0.443233	0.322134
N159	N	0.657400	-0.420618	0.349808
H160	H	0.816281	-0.191183	0.953931
C161	C	0.685222	-0.322141	0.558406
N162	N	0.657494	-0.349836	0.581010
H163	H	-0.044976	-0.312760	0.312605
C164	C	0.825713	-0.557827	0.181851
N165	N	0.853447	-0.580424	0.154170
H166	H	0.849696	-0.157769	0.801838
C167	C	0.859218	-0.694337	0.148461
N168	N	0.886934	-0.671714	0.120772
H169	H	0.816294	-0.191164	1.052998
H170	H	0.556429	-0.312718	0.312520
C171	C	0.061885	-0.181669	0.181942
N172	N	0.084496	-0.153921	0.154277
