data_functionalizedCrystal
_audit_creation_method	'MofGen! by Chris Wilmer'
_symmetry_space_group_name_H-M	'P1'
_symmetry_Int_Tables_number	1
_symmetry_cell_setting	triclinic
loop_
_symmetry_equiv_pos_as_xyz
  x,y,z
_cell_length_a	12.594517
_cell_length_b	12.594516
_cell_length_c	12.645323
_cell_angle_alpha	90.025622
_cell_angle_beta	90.015775
_cell_angle_gamma	90.011773
loop_
_atom_site_label
_atom_site_type_symbol
_atom_site_fract_x
_atom_site_fract_y
_atom_site_fract_z
Zn1	Zn	1.627314	-0.423735	0.599246
Zn2	Zn	1.627213	-0.601738	0.421983
Zn3	Zn	1.449313	-0.423774	0.422011
Zn4	Zn	1.449313	-0.601672	0.599220
O5	O	1.538288	-0.512730	0.510615
O6	O	1.776246	-0.447359	0.575730
O7	O	1.603572	-0.578175	0.273640
O8	O	1.472967	-0.274823	0.445544
O9	O	1.776172	-0.578137	0.445497
O10	O	1.603744	-0.274794	0.575757
O11	O	1.472870	-0.447425	0.273660
O12	O	1.300367	-0.447361	0.445519
O13	O	1.472967	-0.578024	0.747571
O14	O	1.300367	-0.578062	0.575714
O15	O	1.603744	-0.447295	0.747590
O16	O	1.603572	-0.750675	0.445472
O17	O	1.472870	-0.750626	0.575687
C18	C	1.261747	-0.512709	0.510618
C19	C	1.143442	-0.512726	0.510644
C20	C	1.538239	-0.789271	0.510597
C21	C	1.538315	-0.907576	0.510624
C22	C	1.003456	-0.583943	0.581325
C23	C	1.074226	-0.609847	0.484574
C24	C	1.074243	-0.486869	0.607384
C25	C	1.003426	-0.538715	0.413810
C26	C	1.003437	-0.415692	0.536685
C27	C	1.074175	-0.441559	0.439867
C28	C	1.609487	-0.976817	0.439876
C29	C	1.635500	-1.047517	0.536632
C30	C	1.512435	-1.047675	0.413930
C31	C	1.564378	-0.976718	0.607431
C32	C	1.441268	-0.976869	0.484664
C33	C	1.467244	-1.047538	0.581486
C34	C	1.815909	-0.512751	0.510613
C35	C	1.934214	-0.512760	0.510612
C36	C	1.538367	-0.512647	0.787120
C37	C	1.538400	-0.512612	0.904951
C38	C	1.538367	-0.235109	0.510657
C39	C	1.538400	-0.116803	0.510675
C40	C	1.538271	-0.512735	0.235185
C41	C	1.538444	-0.512470	0.117356
C42	C	1.455875	-0.594467	1.072503
C43	C	1.456091	-0.594872	0.949943
C44	C	1.650553	-0.543053	0.949457
C45	C	1.650101	-0.543567	1.072055
C46	C	1.509832	-0.399859	1.072153
C47	C	1.507330	-0.400535	0.949547
H48	H	0.972404	-0.644200	0.641037
H49	H	1.490511	-1.078842	0.332136
H50	H	1.717607	-1.078553	0.558618
F51	F	1.593171	-0.936157	0.714370
F52	F	1.333975	-0.936278	0.455893
F53	F	0.962942	-0.567444	0.306826
F54	F	1.347389	-0.569968	0.910608
H55	H	1.105031	-0.381348	0.380012
F56	F	1.404796	-0.363591	1.112556
H57	H	1.372463	-0.575601	1.101987
H58	H	0.972320	-0.333642	0.558760
H59	H	1.105350	-0.464985	0.689210
H60	H	1.474980	-0.678355	0.920626
H61	H	1.713724	-0.485220	0.920315
H62	H	1.669684	-0.945764	0.380100
F63	F	1.681796	-0.651165	1.109449
H64	H	1.105319	-0.691921	0.462527
F65	F	1.480273	-0.702892	1.112842
F66	F	1.388622	-1.087873	0.659804
F67	F	1.733195	-0.468847	1.110841
F68	F	1.682797	-0.649524	0.909341
F69	F	1.399445	-0.370531	0.911538
F70	F	1.580201	-0.316460	0.909528
H71	H	1.569972	-0.338769	1.101161
