data_functionalizedCrystal
_audit_creation_method	'MofGen! by Chris Wilmer'
_symmetry_space_group_name_H-M	'P1'
_symmetry_Int_Tables_number	1
_symmetry_cell_setting	triclinic
loop_
_symmetry_equiv_pos_as_xyz
  x,y,z
_cell_length_a	10.654550
_cell_length_b	10.489716
_cell_length_c	9.130313
_cell_angle_alpha	89.999518
_cell_angle_beta	89.999724
_cell_angle_gamma	84.507033
loop_
_atom_site_label
_atom_site_type_symbol
_atom_site_fract_x
_atom_site_fract_y
_atom_site_fract_z
O1	O	1.667908	0.179164	-0.121676
O2	O	1.302436	0.196234	-0.121701
O3	O	1.493504	0.002095	-0.121693
O4	O	1.476840	0.373303	-0.121684
O5	O	1.493491	0.002089	0.121906
O6	O	1.302423	0.196228	0.121898
O7	O	1.667895	0.179158	0.121923
Cu8	Cu	1.485157	0.187693	0.144153
Cu9	Cu	1.485173	0.187699	-0.143931
O10	O	1.476826	0.373297	0.121915
C11	C	1.255631	0.194977	0.000095
C12	C	1.116186	0.191228	0.000084
C13	C	1.492245	-0.045440	0.000102
C14	C	1.488499	-0.187069	0.000088
C15	C	1.036744	0.305533	0.000092
C16	C	0.905722	0.302002	0.000117
C17	C	0.933597	0.069850	0.000122
C18	C	1.064616	0.073382	0.000107
C19	C	1.605668	-0.284799	0.000110
C20	C	1.543760	-0.362127	-0.119998
C21	C	1.543720	-0.362097	0.120172
C22	C	1.426640	-0.262531	-0.120118
C23	C	1.426617	-0.262495	0.120159
C24	C	1.364623	-0.339774	0.000022
C25	C	1.714700	0.180414	0.000124
C26	C	1.854144	0.184164	0.000125
C27	C	1.478085	0.420831	0.000117
C28	C	1.481831	0.562461	0.000121
N29	N	1.485156	0.187687	0.346776
N30	N	1.485185	0.187695	-0.346554
C31	C	1.569789	0.101759	0.423431
C32	C	1.569801	0.101759	0.576768
C33	C	1.400542	0.273627	0.576780
C34	C	1.400525	0.273619	0.423446
H35	H	1.078728	0.401490	0.000084
H36	H	1.593201	-0.405595	0.221710
C37	C	1.307474	0.368211	0.339120
N38	N	1.237410	0.439473	0.275606
H39	H	0.841045	0.395082	0.000126
C40	C	0.876857	-0.059774	0.000133
N41	N	0.834122	-0.157409	0.000136
C42	C	1.359878	-0.204000	-0.257461
N43	N	1.309600	-0.159913	-0.360908
C44	C	1.610590	-0.420929	-0.257162
N45	N	1.660934	-0.465218	-0.360468
C46	C	1.359842	-0.203683	0.257340
N47	N	1.309553	-0.159388	0.360677
C48	C	1.152009	-0.052370	0.000100
N49	N	1.217832	-0.147082	0.000098
C50	C	1.662876	0.007221	0.339099
N51	N	1.732987	-0.063993	0.275584
C52	C	1.226836	-0.372719	-0.000073
N53	N	1.123056	-0.397535	-0.000152
C54	C	1.662895	0.007221	0.661082
N55	N	1.733013	-0.063994	0.724586
H56	H	1.331639	0.343593	0.639221
H57	H	1.707585	-0.260172	-0.000005
