data_functionalizedCrystal
_audit_creation_method	'MofGen! by Chris Wilmer'
_symmetry_space_group_name_H-M	'P1'
_symmetry_Int_Tables_number	1
_symmetry_cell_setting	triclinic
loop_
_symmetry_equiv_pos_as_xyz
  x,y,z
_cell_length_a	11.792241
_cell_length_b	11.792241
_cell_length_c	10.868271
_cell_angle_alpha	90.000107
_cell_angle_beta	90.005281
_cell_angle_gamma	84.193416
loop_
_atom_site_label
_atom_site_type_symbol
_atom_site_fract_x
_atom_site_fract_y
_atom_site_fract_z
O1	O	-0.155568	-1.506908	-0.102203
O2	O	0.094432	-1.256908	0.147797
O3	O	0.344432	-1.006908	0.397797
O4	O	0.594432	-0.756908	0.647797
O5	O	-0.171601	-1.176567	-0.102232
O6	O	0.078399	-0.926567	0.147768
O7	O	0.328399	-0.676567	0.397768
O8	O	0.578399	-0.426567	0.647768
O9	O	0.001586	-1.349754	-0.102208
O10	O	0.251586	-1.099754	0.147792
O11	O	0.501586	-0.849754	0.397792
O12	O	0.751586	-0.599754	0.647792
O13	O	-0.328755	-1.333721	-0.102227
O14	O	-0.078755	-1.083721	0.147773
O15	O	0.171245	-0.833721	0.397773
O16	O	0.421245	-0.583721	0.647773
O17	O	0.001592	-1.349740	0.102436
O18	O	0.251592	-1.099740	0.352436
O19	O	0.501592	-0.849740	0.602436
O20	O	0.751592	-0.599740	0.852436
O21	O	-0.171595	-1.176553	0.102413
O22	O	0.078405	-0.926553	0.352413
O23	O	0.328405	-0.676553	0.602413
O24	O	0.578405	-0.426553	0.852413
O25	O	-0.155562	-1.506894	0.102441
O26	O	0.094438	-1.256894	0.352441
O27	O	0.344438	-1.006894	0.602441
O28	O	0.594438	-0.756894	0.852441
Zn29	Zn	-0.163577	-1.341721	0.134919
Zn30	Zn	0.086423	-1.091721	0.384919
Zn31	Zn	0.336423	-0.841721	0.634919
Zn32	Zn	0.586423	-0.591721	0.884919
Zn33	Zn	-0.163586	-1.341740	-0.134709
Zn34	Zn	0.086414	-1.091740	0.115291
Zn35	Zn	0.336414	-0.841740	0.365291
Zn36	Zn	0.586414	-0.591740	0.615291
O37	O	-0.328749	-1.333707	0.102418
O38	O	-0.078749	-1.083707	0.352418
O39	O	0.171251	-0.833707	0.602418
O40	O	0.421251	-0.583707	0.852418
C41	C	-0.170591	-1.134269	0.000087
C42	C	0.079409	-0.884269	0.250087
C43	C	0.329409	-0.634269	0.500087
C44	C	0.579409	-0.384269	0.750087
C45	C	-0.167576	-1.008255	0.000076
C46	C	0.082424	-0.758255	0.250076
C47	C	0.332424	-0.508255	0.500076
C48	C	0.582424	-0.258255	0.750076
C49	C	0.043880	-1.348740	0.000114
C50	C	0.293880	-1.098740	0.250114
C51	C	0.543880	-0.848740	0.500114
C52	C	0.793880	-0.598740	0.750114
C53	C	0.169894	-1.345726	0.000112
C54	C	0.419894	-1.095726	0.250112
C55	C	0.669894	-0.845726	0.500112
C56	C	0.919894	-0.595726	0.750112
C57	C	-0.156572	-1.549192	0.000120
C58	C	0.093428	-1.299192	0.250120
C59	C	0.343428	-1.049192	0.500120
C60	C	0.593428	-0.799192	0.750120
C61	C	-0.159587	-1.675206	0.000123
C62	C	0.090413	-1.425206	0.250123
C63	C	0.340413	-1.175206	0.500123
C64	C	0.590413	-0.925206	0.750123
C65	C	-0.371043	-1.334721	0.000093
C66	C	-0.121043	-1.084721	0.250093
C67	C	0.128957	-0.834721	0.500093
C68	C	0.378957	-0.584721	0.750093
C69	C	-0.497057	-1.337736	0.000087
C70	C	-0.247057	-1.087736	0.250087
C71	C	0.002943	-0.837736	0.500087
C72	C	0.252943	-0.587736	0.750087
C73	C	0.400606	-1.340183	0.000091
C74	C	0.650606	-1.090183	0.250091
C75	C	0.900606	-0.840183	0.500091
C76	C	1.150606	-0.590183	0.750091
C77	C	0.272221	-1.343262	0.000102
C78	C	0.522221	-1.093262	0.250102
C79	C	0.772221	-0.843262	0.500102
C80	C	1.022221	-0.593262	0.750102
N81	N	-0.163570	-1.341717	0.318933
N82	N	0.086430	-1.091717	0.568933
N83	N	0.336430	-0.841717	0.818933
N84	N	0.586430	-0.591717	1.068933
C85	C	-0.162034	-0.777543	0.000112
C86	C	0.087966	-0.527543	0.250112
C87	C	0.337966	-0.277543	0.500112
C88	C	0.587966	-0.027543	0.750112
C89	C	-0.165113	-0.905928	0.000092
C90	C	0.084887	-0.655928	0.250092
C91	C	0.334887	-0.405928	0.500092
C92	C	0.584887	-0.155928	0.750092
N93	N	-0.163584	-1.341754	-0.318723
N94	N	0.086416	-1.091754	-0.068723
N95	N	0.336416	-0.841754	0.181277
N96	N	0.586416	-0.591754	0.431277
C97	C	-0.163584	-1.341734	0.569939
C98	C	0.086416	-1.091734	0.819939
C99	C	0.336416	-0.841734	1.069939
C100	C	0.586416	-0.591734	1.319939
C101	C	-0.163580	-1.341721	0.430261
C102	C	0.086420	-1.091721	0.680261
C103	C	0.336420	-0.841721	0.930261
C104	C	0.586420	-0.591721	1.180261
