data_functionalizedCrystal
_audit_creation_method	'MofGen! by Chris Wilmer'
_symmetry_space_group_name_H-M	'P1'
_symmetry_Int_Tables_number	1
_symmetry_cell_setting	triclinic
loop_
_symmetry_equiv_pos_as_xyz
  x,y,z
_cell_length_a	14.519709
_cell_length_b	14.472310
_cell_length_c	14.519709
_cell_angle_alpha	89.997999
_cell_angle_beta	96.319855
_cell_angle_gamma	90.007418
loop_
_atom_site_label
_atom_site_type_symbol
_atom_site_fract_x
_atom_site_fract_y
_atom_site_fract_z
O1	O	1.223880	0.076723	-0.120885
O2	O	0.955403	0.076751	-0.135121
O3	O	1.096759	0.076728	0.006235
O4	O	1.082523	0.076746	-0.262242
O5	O	1.096723	-0.076954	0.006227
O6	O	0.955366	-0.076931	-0.135130
O7	O	1.223843	-0.076959	-0.120893
Cu8	Cu	1.089601	-0.090978	-0.128012
Cu9	Cu	1.089644	0.090769	-0.128002
O10	O	1.082486	-0.076936	-0.262250
C11	C	0.921025	-0.000086	-0.134462
C12	C	0.818643	-0.000076	-0.132474
N13	N	1.089578	-0.218808	-0.128018
C14	C	0.443748	-0.000118	-0.125154
C15	C	0.548056	-0.000106	-0.127187
C16	C	0.631192	-0.000096	-0.128814
C17	C	0.735507	-0.000086	-0.130847
C18	C	1.089643	-0.592900	-0.127999
C19	C	1.013752	-0.553721	-0.203381
C20	C	1.013927	-0.446633	-0.203657
C21	C	1.089610	-0.407309	-0.128009
C22	C	1.185870	-0.446154	-0.149184
C23	C	1.185444	-0.553276	-0.149720
C24	C	1.070132	-0.553433	-0.031218
C25	C	1.067927	-0.446305	-0.031859
C26	C	1.089597	-0.302420	-0.128012
C27	C	1.089662	-0.697788	-0.127997
C28	C	1.258221	-0.000120	-0.121553
C29	C	1.360602	-0.000124	-0.123541
C30	C	1.096078	-0.000113	0.040591
C31	C	1.094089	-0.000114	0.142972
N32	N	1.089675	0.218600	-0.127989
C33	C	1.083168	-0.000093	-0.296606
C34	C	1.085156	-0.000087	-0.398987
C35	C	1.086770	-0.000089	0.517868
C36	C	1.088803	-0.000096	0.413560
C37	C	1.090430	-0.000102	0.330423
C38	C	1.092463	-0.000108	0.226109
H39	H	0.942380	-0.420371	-0.191017
F40	F	1.261460	-0.412863	-0.079337
H41	H	1.026403	-0.420996	-0.275473
F42	F	0.980350	-0.588778	-0.004668
H43	H	1.203446	-0.419314	-0.218967
H44	H	1.026056	-0.580628	-0.274793
F45	F	0.975371	-0.413122	-0.010857
H46	H	1.202613	-0.578249	-0.220307
F47	F	1.142467	-0.586548	0.042109
H48	H	0.941973	-0.579502	-0.190947
H49	H	1.119600	-0.419540	0.026878
F50	F	1.261420	-0.587152	-0.080624
