data_functionalizedCrystal
_audit_creation_method	'MofGen! by Chris Wilmer'
_symmetry_space_group_name_H-M	'P1'
_symmetry_Int_Tables_number	1
_symmetry_cell_setting	triclinic
loop_
_symmetry_equiv_pos_as_xyz
  x,y,z
_cell_length_a	14.971486
_cell_length_b	14.971486
_cell_length_c	14.048226
_cell_angle_alpha	90.006640
_cell_angle_beta	89.995336
_cell_angle_gamma	96.385871
loop_
_atom_site_label
_atom_site_type_symbol
_atom_site_fract_x
_atom_site_fract_y
_atom_site_fract_z
O1	O	1.186947	-0.116565	-0.079121
O2	O	0.926547	-0.130523	-0.079132
O3	O	1.063726	0.006656	-0.079120
O4	O	1.049768	-0.253744	-0.079134
O5	O	1.063710	0.006664	0.079202
O6	O	0.926530	-0.130515	0.079189
O7	O	1.186930	-0.116557	0.079200
Zn8	Zn	1.056728	-0.123535	0.104331
Zn9	Zn	1.056750	-0.123545	-0.104264
O10	O	1.049751	-0.253736	0.079188
C11	C	0.893214	-0.129895	0.000027
C12	C	0.793917	-0.128024	0.000023
C13	C	1.063094	0.039985	0.000041
C14	C	1.061223	0.139282	0.000040
N15	N	1.056719	-0.123527	0.246692
C16	C	1.220263	-0.117185	0.000038
C17	C	1.319561	-0.119056	0.000036
C18	C	1.376786	-0.038466	0.000037
C19	C	1.470085	-0.040229	0.000040
C20	C	1.506158	-0.122583	0.000036
C21	C	1.448925	-0.203178	0.000037
C22	C	1.355627	-0.201414	0.000041
C23	C	1.643387	-0.206849	0.000028
C24	C	1.736692	-0.208614	0.000022
C25	C	1.757845	-0.045664	0.000027
C26	C	1.664548	-0.043900	0.000031
C27	C	1.607322	-0.124496	0.000031
C28	C	1.050384	-0.287065	0.000025
C29	C	1.052254	-0.386362	0.000020
C30	C	1.141812	0.196507	0.000044
C31	C	1.140049	0.289807	0.000034
C32	C	1.057696	0.325879	0.000027
C33	C	0.977101	0.268646	0.000020
C34	C	0.978865	0.175349	0.000023
C35	C	0.973430	0.463109	0.000017
C36	C	0.971665	0.556413	0.000016
C37	C	1.134614	0.577567	0.000028
C38	C	1.136378	0.484269	0.000030
C39	C	1.055782	0.427043	0.000025
N40	N	1.056765	-0.123546	-0.246624
C41	C	1.117482	-0.062809	0.296516
C42	C	1.117488	-0.062808	0.396173
C43	C	1.056735	-0.123531	0.446006
C44	C	0.995966	-0.184252	0.396175
C45	C	0.995957	-0.184247	0.296519
C46	C	0.995992	-0.184258	0.603889
C47	C	0.996003	-0.184264	0.703552
C48	C	1.117523	-0.062819	0.703543
C49	C	1.117514	-0.062815	0.603888
C50	C	1.056746	-0.123537	0.554064
H51	H	1.347424	0.028595	0.000035
H52	H	0.946496	-0.233690	0.436754
H53	H	0.904606	0.585780	0.000025
C54	C	1.184312	0.003989	0.241705
C55	C	1.149289	0.072456	0.173213
C56	C	1.216119	0.139258	0.118406
C57	C	1.317972	0.137592	0.132092
C58	C	1.353000	0.069122	0.200587
C59	C	1.286170	0.002320	0.255394
H60	H	1.073887	0.073692	0.163080
H61	H	1.190188	0.189945	0.067702
H62	H	1.367444	0.187043	0.091520
H63	H	1.428403	0.067886	0.210720
H64	H	1.312101	-0.048367	0.306098
C65	C	1.624868	0.046689	0.000034
C66	C	1.563632	0.070310	0.082249
C67	C	1.523954	0.160901	0.082256
C68	C	1.545511	0.227870	0.000047
C69	C	1.606750	0.204250	-0.082173
C70	C	1.646429	0.113659	-0.082180
H71	H	1.547672	0.020735	0.143110
H72	H	1.478621	0.178386	0.143121
H73	H	1.516139	0.294930	0.000052
H74	H	1.622711	0.253826	-0.143034
H75	H	1.691762	0.096175	-0.143046
C76	C	1.184340	0.003977	0.549067
C77	C	1.182740	0.105838	0.562778
C78	C	1.249565	0.172632	0.507956
C79	C	1.317991	0.137566	0.439423
C80	C	1.319594	0.035700	0.425708
C81	C	1.252769	-0.031094	0.480530
H82	H	1.132085	0.131801	0.613513
H83	H	1.248378	0.248041	0.518108
H84	H	1.367459	0.187011	0.398840
H85	H	1.370250	0.009737	0.374973
H86	H	1.253956	-0.106503	0.470378
C87	C	1.228701	0.352751	0.000041
C88	C	1.296143	0.348660	0.082263
C89	C	1.384801	0.411603	0.082268
C90	C	1.406017	0.478637	0.000052
C91	C	1.338573	0.482730	-0.082176
C92	C	1.249915	0.419788	-0.082181
H93	H	1.280440	0.299036	0.143129
H94	H	1.434727	0.408573	0.143139
H95	H	1.471646	0.525231	0.000056
H96	H	1.354277	0.532355	-0.143042
H97	H	1.199989	0.422818	-0.143051
H98	H	0.946506	-0.233702	0.563326
C99	C	0.884775	0.400156	0.000012
C100	C	0.817324	0.404244	-0.082201
C101	C	0.728673	0.341291	-0.082202
C102	C	0.707474	0.274249	0.000011
C103	C	0.774927	0.270159	0.082230
C104	C	0.863578	0.333112	0.082230
H105	H	0.833015	0.453874	-0.143065
H106	H	0.678740	0.344319	-0.143066
H107	H	0.641849	0.227647	0.000010
H108	H	0.759236	0.220529	0.143094
H109	H	0.913511	0.330084	0.143095
C110	C	1.488605	-0.293767	0.000026
C111	C	1.549840	-0.317386	0.082226
C112	C	1.589519	-0.407976	0.082207
C113	C	1.567962	-0.474948	-0.000011
C114	C	1.506724	-0.451331	-0.082217
C115	C	1.467045	-0.360741	-0.082199
H116	H	1.565801	-0.267807	0.143094
H117	H	1.634852	-0.425458	0.143062
H118	H	1.597335	-0.542008	-0.000025
H119	H	1.490764	-0.500909	-0.143086
H120	H	1.421712	-0.343258	-0.143054
C121	C	1.184365	0.003979	0.758348
C122	C	1.184373	0.003980	0.867965
C123	C	1.251215	0.070772	0.922776
C124	C	1.318048	0.137562	0.867968
C125	C	1.318043	0.137563	0.758345
C126	C	1.251201	0.070771	0.703534
H127	H	1.134896	-0.045464	0.908542
H128	H	1.251218	0.070770	1.003927
H129	H	1.367529	0.187004	0.908542
H130	H	1.367519	0.187007	0.717768
H131	H	1.251197	0.070773	0.622383
C132	C	0.929168	-0.251054	0.758365
C133	C	0.862320	-0.317835	0.703558
C134	C	0.795483	-0.384626	0.758369
C135	C	0.795493	-0.384637	0.867986
C136	C	0.862343	-0.317854	0.922799
C137	C	0.929180	-0.251063	0.867989
H138	H	0.862311	-0.317829	0.622407
H139	H	0.745996	-0.434064	0.717792
H140	H	0.746016	-0.434080	0.908560
H141	H	0.862352	-0.317860	1.003950
H142	H	0.978667	-0.201626	0.908565
H143	H	1.516675	0.025395	0.000045
H144	H	1.766058	-0.275673	0.000037
H145	H	1.804444	0.019960	0.000025
H146	H	1.596796	-0.272479	0.000034
H147	H	1.208874	0.167145	0.000055
H148	H	1.309035	-0.267038	0.000043
H149	H	0.910047	0.298024	0.000009
H150	H	1.203437	0.454903	0.000043
H151	H	1.166964	-0.013367	0.436739
H152	H	1.200238	0.624165	0.000029
H153	H	0.913240	0.128756	0.000020
H154	H	0.946477	-0.233689	0.255954
