data_functionalizedCrystal
_audit_creation_method	'MofGen! by Chris Wilmer'
_symmetry_space_group_name_H-M	'P1'
_symmetry_Int_Tables_number	1
_symmetry_cell_setting	triclinic
loop_
_symmetry_equiv_pos_as_xyz
  x,y,z
_cell_length_a	19.188930
_cell_length_b	19.288864
_cell_length_c	17.766277
_cell_angle_alpha	90.023209
_cell_angle_beta	89.988508
_cell_angle_gamma	96.859488
loop_
_atom_site_label
_atom_site_type_symbol
_atom_site_fract_x
_atom_site_fract_y
_atom_site_fract_z
O1	O	0.087099	-0.921360	-0.062844
O2	O	0.098849	-0.719100	-0.062794
O3	O	-0.008682	-0.826066	-0.062806
O4	O	0.194630	-0.814393	-0.062832
O5	O	-0.008688	-0.826048	0.062383
O6	O	0.098843	-0.719081	0.062395
O7	O	0.087094	-0.921341	0.062345
Cu8	Cu	0.092968	-0.820209	0.073800
Cu9	Cu	0.092974	-0.820231	-0.074250
O10	O	0.194625	-0.814374	0.062356
C11	C	0.098468	-0.693214	-0.000193
C12	C	0.097333	-0.616110	-0.000173
C13	C	-0.034696	-0.825679	-0.000209
C14	C	-0.112200	-0.824544	-0.000202
C15	C	0.087475	-0.947227	-0.000258
C16	C	0.088609	-1.024330	-0.000283
C17	C	-0.157129	-0.887309	-0.000214
C18	C	-0.229953	-0.886243	-0.000226
C19	C	-0.257844	-0.822408	-0.000211
C20	C	-0.212906	-0.759636	-0.000203
C21	C	-0.140084	-0.760704	-0.000199
N22	N	-0.365848	-0.773608	0.042405
N23	N	-0.435026	-0.772598	0.042403
C24	C	-0.477253	-0.819187	-0.000225
N25	N	-0.447689	-0.866835	-0.042841
N26	N	-0.378504	-0.867847	-0.042836
C27	C	-0.336807	-0.821243	-0.000216
C28	C	-0.601146	-0.880800	-0.000251
C29	C	-0.673971	-0.879731	-0.000268
C30	C	-0.656922	-0.753122	-0.000237
C31	C	-0.584099	-0.754193	-0.000228
C32	C	-0.556216	-0.818034	-0.000231
C33	C	0.220638	-0.814762	-0.000242
C34	C	0.298143	-0.815896	-0.000253
N35	N	0.092963	-0.820199	0.177931
C36	C	0.160427	-0.571419	-0.000193
C37	C	0.159361	-0.498972	-0.000201
C38	C	0.095197	-0.471219	-0.000204
C39	C	0.032095	-0.515921	-0.000180
C40	C	0.033163	-0.588366	-0.000164
C41	C	0.044759	-0.362960	-0.044082
C42	C	0.043694	-0.290515	-0.044103
C43	C	0.091900	-0.247773	-0.000249
C44	C	0.141184	-0.277483	0.043614
C45	C	0.142252	-0.349929	0.043630
C46	C	0.094032	-0.392665	-0.000221
C47	C	0.153843	-0.124526	-0.000277
C48	C	0.152774	-0.052078	-0.000281
C49	C	0.025506	-0.069028	-0.000267
C50	C	0.026576	-0.141475	-0.000256
C51	C	0.090747	-0.169219	-0.000265
N52	N	0.092974	-0.820247	-0.178380
C53	C	0.045372	-0.867579	0.217312
C54	C	0.045368	-0.867583	0.296114
C55	C	0.092969	-0.820213	0.335531
C56	C	0.140564	-0.772824	0.296140
C57	C	0.140561	-0.772817	0.217340
C58	C	0.156585	-0.810919	0.460362
C59	C	0.156589	-0.810931	0.539161
C60	C	0.092977	-0.820232	0.578578
C61	C	0.029359	-0.829535	0.539185
C62	C	0.029356	-0.829528	0.460385
C63	C	0.092977	-0.820216	0.420977
C64	C	0.045378	-0.867619	0.703405
C65	C	0.045374	-0.867618	0.782208
C66	C	0.140575	-0.772863	0.782233
C67	C	0.140573	-0.772861	0.703431
C68	C	0.092976	-0.820242	0.664022
H69	H	-0.266541	-0.937355	-0.000239
H70	H	0.180439	-0.242684	0.079324
N71	N	-0.009463	-0.258477	-0.091407
H72	H	-0.002823	-0.206097	-0.084767
H73	H	-0.002752	-0.270303	-0.146112
H74	H	-0.022440	-0.837108	0.571277
N75	N	-0.686997	-0.684272	-0.000208
H76	H	-0.647481	-0.644672	-0.000194
H77	H	-0.716831	-0.681073	-0.046616
N78	N	-0.242984	-0.690785	-0.000190
H79	H	-0.295934	-0.699632	-0.000193
H80	H	-0.226542	-0.663320	0.046224
H81	H	0.206094	-0.147116	-0.000273
H82	H	0.005502	-0.397756	-0.079797
N83	N	-0.005955	-0.918733	0.824682
H84	H	-0.036812	-0.892302	0.857398
H85	H	-0.036052	-0.948732	0.787702
H86	H	-0.578442	-0.932783	-0.000257
H87	H	-0.020148	-0.493320	-0.000193
N88	N	0.227416	-0.450759	-0.000235
H89	H	0.217001	-0.400655	-0.000246
H90	H	0.255396	-0.459690	0.046169
H91	H	-0.103502	-0.709591	-0.000189
H92	H	0.204155	-0.015690	-0.000293
N93	N	0.229638	-0.601340	-0.000185
H94	H	0.220743	-0.654016	-0.000170
H95	H	0.257242	-0.585004	-0.046599
H96	H	-0.710552	-0.930844	-0.000281
H97	H	0.179319	-0.734254	0.328238
N98	N	-0.535635	-0.686496	-0.000211
H99	H	-0.564352	-0.645895	-0.000202
H100	H	-0.505059	-0.684175	0.046201
N101	N	0.195401	-0.381975	0.090939
H102	H	0.225780	-0.343911	0.118719
H103	H	0.170145	-0.415434	0.128408
N104	N	-0.043702	-0.039107	-0.000262
H105	H	-0.034806	0.013570	-0.000273
H106	H	-0.071302	-0.055494	-0.046665
N107	N	-0.005980	-0.918708	0.660908
H108	H	-0.036825	-0.892251	0.628242
H109	H	0.020653	-0.949376	0.628230
H110	H	0.006612	-0.906167	0.328185
H111	H	-0.024802	-0.177864	-0.000244
N112	N	0.191912	-0.721765	0.824735
H113	H	0.184691	-0.728957	0.880632
H114	H	0.241424	-0.729632	0.810946
N115	N	-0.034892	-0.636575	-0.000139
H116	H	-0.075703	-0.608004	-0.000139
H117	H	-0.037220	-0.667027	-0.046542
N118	N	-0.005966	-0.918679	0.174807
H119	H	-0.036116	-0.948694	0.211717
H120	H	-0.036768	-0.892182	0.142137
N121	N	0.191904	-0.721757	0.660949
H122	H	0.222058	-0.691747	0.697875
H123	H	0.222703	-0.748246	0.628230
N124	N	-0.039254	-0.839559	0.417896
H125	H	-0.079555	-0.845453	0.454818
H126	H	-0.043222	-0.797373	0.385227
H127	H	0.179316	-0.734234	0.185275
H128	H	0.208389	-0.803334	0.428276
N129	N	-0.127054	-0.956162	-0.000220
H130	H	-0.166571	-0.995762	-0.000229
H131	H	-0.097202	-0.959373	-0.046628
N132	N	0.225201	-0.800892	0.581645
H133	H	0.254221	-0.839403	0.567901
H134	H	0.251745	-0.754215	0.567931
