data_functionalizedCrystal
_audit_creation_method	'MofGen! by Chris Wilmer'
_symmetry_space_group_name_H-M	'P1'
_symmetry_Int_Tables_number	1
_symmetry_cell_setting	triclinic
loop_
_symmetry_equiv_pos_as_xyz
  x,y,z
_cell_length_a	19.188930
_cell_length_b	19.188925
_cell_length_c	16.776229
_cell_angle_alpha	89.993696
_cell_angle_beta	89.978976
_cell_angle_gamma	83.143665
loop_
_atom_site_label
_atom_site_type_symbol
_atom_site_fract_x
_atom_site_fract_y
_atom_site_fract_z
O1	O	0.926146	0.087169	-0.066544
O2	O	0.722834	0.098904	-0.066489
O3	O	0.830359	-0.008619	-0.066514
O4	O	0.818621	0.194693	-0.066519
O5	O	0.830345	-0.008626	0.066063
O6	O	0.722820	0.098897	0.066087
O7	O	0.926131	0.087163	0.066033
Zn8	Zn	0.824473	0.093029	0.087109
Zn9	Zn	0.824492	0.093038	-0.087566
O10	O	0.818607	0.194686	0.066057
C11	C	0.696816	0.098520	-0.000194
C12	C	0.619311	0.097380	-0.000173
C13	C	0.574386	0.160471	-0.000187
C14	C	0.501563	0.159399	-0.000196
C15	C	0.473667	0.095233	-0.000206
C16	C	0.518602	0.032134	-0.000188
C17	C	0.591424	0.033207	-0.000171
N18	N	0.365693	0.046188	-0.045359
N19	N	0.296514	0.045173	-0.045376
C20	C	0.254259	0.091995	-0.000255
N21	N	0.283794	0.139881	0.044874
N22	N	0.352978	0.140899	0.044888
C23	C	0.394705	0.094062	-0.000224
C24	C	0.130369	0.153928	-0.000278
C25	C	0.057544	0.152854	-0.000281
C26	C	0.074586	0.025586	-0.000281
C27	C	0.147409	0.026663	-0.000269
C28	C	0.175296	0.090835	-0.000271
C29	C	0.829972	-0.034634	-0.000226
C30	C	0.828833	-0.112138	-0.000227
C31	C	0.884297	-0.673909	-0.000262
C32	C	0.885374	-0.601085	-0.000255
C33	C	0.822282	-0.556151	-0.000238
C34	C	0.758108	-0.584045	-0.000208
C35	C	0.757033	-0.656867	-0.000207
N36	N	0.776610	-0.435468	-0.045352
N37	N	0.777635	-0.366291	-0.045354
C38	C	0.825516	-0.336742	-0.000240
N39	N	0.872343	-0.378985	0.044868
N40	N	0.871319	-0.448169	0.044867
C41	C	0.823440	-0.477187	-0.000239
C42	C	0.890852	-0.229893	-0.000257
C43	C	0.891926	-0.157068	-0.000245
C44	C	0.764659	-0.140029	-0.000206
C45	C	0.763587	-0.212852	-0.000210
C46	C	0.826685	-0.257780	-0.000239
C47	C	0.952150	0.087546	-0.000264
C48	C	1.029654	0.088687	-0.000291
C49	C	0.818993	0.220700	-0.000232
C50	C	0.820132	0.298205	-0.000236
N51	N	0.824466	0.093023	0.206321
N52	N	0.824505	0.093038	-0.206777
C53	C	0.872092	0.045431	0.248027
C54	C	0.872096	0.045430	0.331479
C55	C	0.824476	0.093025	0.373224
C56	C	0.776845	0.140619	0.331511
C57	C	0.776838	0.140616	0.248061
C58	C	0.776870	0.140633	0.668059
C59	C	0.776882	0.140634	0.751515
C60	C	0.872128	0.045447	0.751477
C61	C	0.872121	0.045444	0.668026
C62	C	0.824488	0.093035	0.626321
C63	C	0.824483	0.093034	0.535833
C64	C	0.824484	0.093030	0.463710
H65	H	0.464977	0.210777	-0.000205
H66	H	0.711337	-0.235557	-0.000195
Br67	Br	0.936774	-0.019144	0.808080
H68	H	0.713288	-0.103444	-0.000186
Br69	Br	0.936728	-0.019161	0.191382
H70	H	0.628003	-0.018171	-0.000160
H71	H	0.597087	0.212725	-0.000190
H72	H	0.910877	0.006677	0.365436
Br73	Br	0.936753	-0.019147	0.611376
Br74	Br	0.480747	-0.054950	-0.000193
Br75	Br	0.168220	0.241017	-0.000275
H76	H	0.944179	-0.134365	-0.000261
H77	H	0.020966	0.204232	-0.000289
Br78	Br	0.712251	0.205232	0.808169
H79	H	0.706738	-0.547455	-0.000192
Br80	Br	0.712228	0.205220	0.611464
Br81	Br	0.712211	0.205210	0.388161
Br82	Br	0.712195	0.205203	0.191459
H83	H	0.183988	-0.024713	-0.000262
Br84	Br	0.036736	-0.061498	-0.000282
Br85	Br	0.972461	-0.563229	-0.000277
Br86	Br	0.969931	-0.734879	-0.000295
H87	H	0.704781	-0.679571	-0.000184
H88	H	0.942231	-0.266475	-0.000280
