data_functionalizedCrystal
_audit_creation_method	'MofGen! by Chris Wilmer'
_symmetry_space_group_name_H-M	'P1'
_symmetry_Int_Tables_number	1
_symmetry_cell_setting	triclinic
loop_
_symmetry_equiv_pos_as_xyz
  x,y,z
_cell_length_a	11.026623
_cell_length_b	13.101039
_cell_length_c	11.026607
_cell_angle_alpha	85.898113
_cell_angle_beta	71.413640
_cell_angle_gamma	85.902597
loop_
_atom_site_label
_atom_site_type_symbol
_atom_site_fract_x
_atom_site_fract_y
_atom_site_fract_z
O1	O	-1.732208	0.085215	0.528133
O2	O	-1.398875	0.418548	0.861466
O3	O	-1.065542	0.751881	1.194799
O4	O	-1.365628	0.085216	0.467367
O5	O	-1.032295	0.418549	0.800700
O6	O	-0.698961	0.751882	1.134033
O7	O	-1.518536	0.085211	0.314460
O8	O	-1.185203	0.418545	0.647793
O9	O	-0.851869	0.751878	0.981126
O10	O	-1.579300	0.085219	0.681040
O11	O	-1.245967	0.418552	1.014373
O12	O	-0.912634	0.751885	1.347706
O13	O	-1.507570	-0.085218	0.325454
O14	O	-1.174237	0.248115	0.658787
O15	O	-0.840904	0.581449	0.992120
O16	O	-1.354662	-0.085214	0.478361
O17	O	-1.021329	0.248119	0.811694
O18	O	-0.687996	0.581453	1.145027
O19	O	-1.721242	-0.085215	0.539127
O20	O	-1.387909	0.248118	0.872460
O21	O	-1.054576	0.581452	1.205793
Zn22	Zn	-1.536211	-0.112274	0.510489
Zn23	Zn	-1.202878	0.221060	0.843823
Zn24	Zn	-0.869544	0.554393	1.177156
Zn25	Zn	-1.550659	0.112274	0.496004
Zn26	Zn	-1.217326	0.445608	0.829337
Zn27	Zn	-0.883993	0.778941	1.162671
O28	O	-1.568334	-0.085211	0.692034
O29	O	-1.235001	0.248122	1.025367
O30	O	-0.901668	0.581456	1.358700
C31	C	-1.312485	0.000001	0.461654
C32	C	-0.979152	0.333334	0.794987
C33	C	-0.645819	0.666668	1.128320
C34	C	-1.170472	0.000002	0.428236
C35	C	-0.837138	0.333335	0.761569
C36	C	-0.503805	0.666668	1.094902
C37	C	-1.116822	0.000004	0.520505
C38	C	-0.783489	0.333337	0.853838
C39	C	-0.450156	0.666671	1.187171
C40	C	-0.970044	0.000004	0.485968
C41	C	-0.636710	0.333338	0.819302
C42	C	-0.303377	0.666671	1.152635
N43	N	-1.526360	-0.265522	0.520376
N44	N	-1.193027	0.067811	0.853710
N45	N	-0.859693	0.401145	1.187043
C46	C	-1.512959	-0.474564	0.533840
C47	C	-1.179626	-0.141231	0.867173
C48	C	-0.846293	0.192102	1.200506
C49	C	-1.573916	-0.525442	0.472649
C50	C	-1.240582	-0.192108	0.805982
C51	C	-0.907249	0.141225	1.139316
C52	C	-1.566459	-0.641760	0.480140
C53	C	-1.233126	-0.308427	0.813474
C54	C	-0.899793	0.024907	1.146807
C55	C	-1.520414	-0.358236	0.526350
C56	C	-1.187081	-0.024902	0.859683
C57	C	-0.853748	0.308431	1.193016
C58	C	-0.774385	0.000001	0.544838
C59	C	-0.441052	0.333335	0.878171
C60	C	-0.107718	0.666668	1.211505
C61	C	-0.916399	0.000007	0.578251
C62	C	-0.583065	0.333340	0.911584
C63	C	-0.249732	0.666673	1.244917
C64	C	-1.501843	-0.000002	0.272297
C65	C	-1.168510	0.333331	0.605630
C66	C	-0.835177	0.666665	0.938964
C67	C	-1.468427	0.000002	0.130283
C68	C	-1.135093	0.333335	0.463616
C69	C	-0.801760	0.666668	0.796949
N70	N	-1.560518	0.265523	0.486109
N71	N	-1.227185	0.598856	0.819442
N72	N	-0.893852	0.932189	1.152776
C73	C	-1.560696	0.000003	0.076634
C74	C	-1.227363	0.333336	0.409967
C75	C	-0.894030	0.666670	0.743300
C76	C	-1.526161	0.000007	-0.070145
C77	C	-1.192828	0.333340	0.263188
C78	C	-0.859494	0.666673	0.596521
C79	C	-1.585027	0.000005	0.734196
C80	C	-1.251694	0.333338	1.067530
C81	C	-0.918360	0.666672	1.400863
C82	C	-1.618444	0.000008	0.876210
C83	C	-1.285111	0.333341	1.209544
C84	C	-0.951778	0.666675	1.542877
H85	H	-1.179555	0.000000	0.625068
H86	H	-0.846222	0.333334	0.958402
H87	H	-0.512889	0.666667	1.291735
H88	H	-1.665259	-0.000004	0.139368
H89	H	-1.331926	0.333330	0.472701
H90	H	-0.998592	0.666663	0.806035
H91	H	-0.979126	0.000002	0.682822
H92	H	-0.645793	0.333335	1.016155
H93	H	-0.312459	0.666669	1.349488
H94	H	-1.631703	-0.481641	0.414637
H95	H	-1.298369	-0.148308	0.747971
H96	H	-0.965036	0.185026	1.081304
H97	H	-1.421592	0.000014	-0.132876
H98	H	-1.088258	0.333347	0.200458
H99	H	-0.754925	0.666680	0.533791
H100	H	-0.907316	0.000028	0.381396
H101	H	-0.573983	0.333362	0.714730
H102	H	-0.240649	0.666695	1.048063
Br103	Br	-1.792738	0.000016	-0.019250
Br104	Br	-1.459405	0.333349	0.314083
Br105	Br	-1.126071	0.666683	0.647416
Br106	Br	-1.065924	-0.000014	0.253951
Br107	Br	-0.732590	0.333320	0.587284
Br108	Br	-0.399257	0.666653	0.920618
H109	H	-1.455178	-0.518360	0.591850
H110	H	-1.121845	-0.185026	0.925183
H111	H	-0.788511	0.148307	1.258516
H112	H	-1.363864	0.000009	0.067548
H113	H	-1.030531	0.333342	0.400882
H114	H	-0.697198	0.666675	0.734215
