data_functionalizedCrystal
_audit_creation_method	'MofGen! by Chris Wilmer'
_symmetry_space_group_name_H-M	'P1'
_symmetry_Int_Tables_number	1
_symmetry_cell_setting	triclinic
loop_
_symmetry_equiv_pos_as_xyz
  x,y,z
_cell_length_a	10.654547
_cell_length_b	10.654545
_cell_length_c	15.186229
_cell_angle_alpha	89.998599
_cell_angle_beta	89.995922
_cell_angle_gamma	84.485741
loop_
_atom_site_label
_atom_site_type_symbol
_atom_site_fract_x
_atom_site_fract_y
_atom_site_fract_z
O1	O	1.667839	0.176414	-0.073239
O2	O	1.302361	0.193216	-0.073237
O3	O	1.493502	0.002076	-0.073237
O4	O	1.476698	0.367554	-0.073238
O5	O	1.493489	0.002073	0.073220
O6	O	1.302348	0.193213	0.073221
O7	O	1.667826	0.176411	0.073218
Zn8	Zn	1.485085	0.184812	0.096473
Zn9	Zn	1.485102	0.184816	-0.096491
O10	O	1.476685	0.367551	0.073219
C11	C	1.255556	0.191980	-0.000008
C12	C	1.116113	0.188287	-0.000007
C13	C	0.854107	0.181328	-0.159691
C14	C	0.919633	0.183067	-0.239525
C15	C	1.050650	0.186547	-0.239523
C16	C	1.116146	0.188284	-0.159678
C17	C	1.050621	0.186546	-0.079844
C18	C	0.919600	0.183070	-0.079855
C19	C	1.050588	0.186549	0.079827
C20	C	0.919570	0.183078	0.079826
C21	C	1.116084	0.188286	0.159672
C22	C	1.050558	0.186557	0.239508
C23	C	0.919532	0.183078	0.239502
C24	C	0.854044	0.181339	0.159660
C25	C	1.492262	-0.044723	-0.000010
C26	C	1.488569	-0.184167	-0.000015
C27	C	1.488598	-0.184172	-0.159688
C28	C	1.486883	-0.249685	-0.239523
C29	C	1.483414	-0.380704	-0.239524
C30	C	1.481656	-0.446212	-0.159681
C31	C	1.483372	-0.380700	-0.079845
C32	C	1.486844	-0.249678	-0.079853
C33	C	1.483333	-0.380693	0.079825
C34	C	1.486811	-0.249675	0.079828
C35	C	1.481576	-0.446202	0.159668
C36	C	1.483300	-0.380690	0.239506
C37	C	1.486771	-0.249664	0.239504
C38	C	1.488527	-0.184163	0.159664
C39	C	1.714630	0.177647	-0.000012
C40	C	1.854074	0.181340	-0.000019
C41	C	1.477925	0.414351	-0.000010
C42	C	1.481618	0.553794	-0.000011
N43	N	1.485083	0.184809	0.228165
N44	N	1.485114	0.184809	-0.228184
C45	C	1.569749	0.100201	0.453888
C46	C	1.569753	0.100198	0.546078
C47	C	1.400438	0.269421	0.546087
C48	C	1.400429	0.269417	0.453899
C49	C	1.485092	0.184808	0.407802
C50	C	1.485105	0.184809	0.592180
C51	C	1.485108	0.184807	0.692136
C52	C	1.485087	0.184809	0.307840
H53	H	0.747362	0.178514	0.159648
C54	C	1.121852	0.188249	0.326122
C55	C	1.210276	0.082397	0.330781
C56	C	1.275992	0.083924	0.410553
H57	H	1.064219	0.186662	0.373744
H58	H	1.164103	0.262675	0.329445
H59	H	1.168027	0.007990	0.327467
H60	H	1.267935	0.083962	0.283177
H61	H	1.318243	0.158349	0.413875
H62	H	1.218350	0.082340	0.458168
H63	H	1.336003	0.012112	0.413721
H64	H	1.491437	-0.077491	-0.159695
H65	H	1.331485	0.338315	0.416373
C66	C	1.488628	-0.178367	-0.326137
C67	C	1.382793	-0.089924	-0.330813
C68	C	1.384376	-0.024192	-0.410580
H69	H	1.487056	-0.235988	-0.373763
H70	H	1.563064	-0.136130	-0.329441
H71	H	1.308376	-0.132159	-0.327517
H72	H	1.384343	-0.032277	-0.283205
H73	H	1.458813	0.018045	-0.413884
H74	H	1.382807	-0.081823	-0.458200
H75	H	1.312575	0.035832	-0.413759
H76	H	1.104001	0.187961	-0.304530
C77	C	0.848614	0.181259	0.326274
C78	C	0.934016	0.183554	0.396191
C79	C	0.868736	0.181896	0.476139
H80	H	0.806436	0.106815	0.329718
H81	H	0.788585	0.253042	0.329641
H82	H	0.994022	0.111777	0.392826
H83	H	0.976197	0.257993	0.392776
H84	H	0.808707	0.253679	0.479506
H85	H	0.826561	0.107450	0.479574
H86	H	0.926670	0.183465	0.523587
C87	C	1.481580	-0.451616	-0.326293
C88	C	1.483870	-0.366214	-0.396217
C89	C	1.482180	-0.431492	-0.476160
H90	H	1.407127	-0.493781	-0.329720
H91	H	1.553354	-0.511654	-0.329670
H92	H	1.412102	-0.306198	-0.392842
H93	H	1.558317	-0.324045	-0.392820
H94	H	1.553955	-0.491530	-0.479537
H95	H	1.407726	-0.473655	-0.479577
H96	H	1.483745	-0.373558	-0.523613
C97	C	1.661509	0.008101	0.403909
C98	C	1.640011	-0.115483	0.426353
C99	C	1.724503	-0.200377	0.380334
H100	H	1.745499	0.022336	0.418978
H101	H	1.649398	0.020099	0.342391
H102	H	1.652132	-0.127475	0.487857
H103	H	1.556038	-0.129758	0.411281
H104	H	1.712393	-0.188379	0.318816
H105	H	1.808488	-0.186130	0.395407
H106	H	1.709921	-0.284237	0.395549
H107	H	1.478816	-0.552893	-0.159689
C108	C	1.488675	-0.178772	0.326278
C109	C	1.486416	-0.264193	0.396192
C110	C	1.488178	-0.198940	0.476142
H111	H	1.416937	-0.118723	0.329710
H112	H	1.563163	-0.136628	0.329659
H113	H	1.411936	-0.306316	0.392813
H114	H	1.558149	-0.324244	0.392790
H115	H	1.562666	-0.156796	0.479524
H116	H	1.416438	-0.138893	0.479565
H117	H	1.486657	-0.256889	0.523589
H118	H	1.222766	0.191111	0.159668
C119	C	1.661531	0.008394	0.596273
C120	C	1.643399	0.026476	0.686875
C121	C	1.727913	-0.058087	0.733141
H122	H	1.745519	0.022731	0.581264
H123	H	1.647153	-0.075581	0.581217
H124	H	1.657787	0.110430	0.701924
H125	H	1.559428	0.012129	0.701910
H126	H	1.713535	-0.142062	0.718086
H127	H	1.811895	-0.043743	0.718125
H128	H	1.715614	-0.045839	0.794619
C129	C	1.308673	0.361233	0.596297
C130	C	1.326823	0.343155	0.686896
C131	C	1.242324	0.427726	0.733174
H132	H	1.224680	0.346901	0.581306
H133	H	1.323053	0.445205	0.581232
H134	H	1.312433	0.259203	0.701955
H135	H	1.410798	0.357498	0.701913
H136	H	1.256705	0.511698	0.718109
H137	H	1.158337	0.413387	0.718176
H138	H	1.254635	0.415480	0.794650
H139	H	0.747424	0.178511	-0.159701
H140	H	1.222829	0.191102	-0.159683
C141	C	0.848420	0.181443	-0.326183
C142	C	0.760034	0.287324	-0.330859
C143	C	0.694426	0.285877	-0.410678
H144	H	0.806139	0.107062	-0.329589
H145	H	0.906160	0.183043	-0.373754
H146	H	0.702302	0.285712	-0.283300
H147	H	0.802282	0.361722	-0.327468
H148	H	0.752165	0.287477	-0.458250
H149	H	0.652152	0.211491	-0.414077
H150	H	0.634456	0.357721	-0.413865
H151	H	1.478744	-0.552884	0.159662
H152	H	1.481861	-0.434037	0.304508
H153	H	1.491359	-0.077481	0.159654
