data_functionalizedCrystal
_audit_creation_method	'MofGen! by Chris Wilmer'
_symmetry_space_group_name_H-M	'P1'
_symmetry_Int_Tables_number	1
_symmetry_cell_setting	triclinic
loop_
_symmetry_equiv_pos_as_xyz
  x,y,z
_cell_length_a	14.519709
_cell_length_b	19.288864
_cell_length_c	18.366186
_cell_angle_alpha	90.022894
_cell_angle_beta	89.992822
_cell_angle_gamma	96.591805
loop_
_atom_site_label
_atom_site_type_symbol
_atom_site_fract_x
_atom_site_fract_y
_atom_site_fract_z
O1	O	0.115045	-0.921767	-0.060785
O2	O	0.615045	-0.421767	0.439215
O3	O	0.130564	-0.719562	-0.060735
O4	O	0.630564	-0.219562	0.439265
O5	O	-0.011468	-0.826026	-0.060755
O6	O	0.488532	-0.326026	0.439245
O7	O	0.257077	-0.815303	-0.060765
O8	O	0.757077	-0.315303	0.439235
O9	O	-0.011475	-0.826007	0.060345
O10	O	0.488525	-0.326007	0.560345
O11	O	0.130557	-0.719544	0.060364
O12	O	0.630557	-0.219544	0.560364
O13	O	0.115038	-0.921749	0.060315
O14	O	0.615038	-0.421749	0.560315
Zn15	Zn	0.122797	-0.820643	0.079567
Zn16	Zn	0.622797	-0.320643	0.579567
Zn17	Zn	0.122806	-0.820667	-0.079987
Zn18	Zn	0.622806	-0.320667	0.420013
O19	O	0.257070	-0.815285	0.060334
O20	O	0.757070	-0.315285	0.560334
C21	C	0.130061	-0.693675	-0.000179
C22	C	0.630061	-0.193675	0.499821
C23	C	0.128562	-0.616566	-0.000160
C24	C	0.628562	-0.116566	0.499840
C25	C	0.115541	-0.947636	-0.000243
C26	C	0.615541	-0.447636	0.499757
C27	C	0.117040	-1.024745	-0.000267
C28	C	0.617040	-0.524745	0.499733
C29	C	-0.045828	-0.825517	-0.000205
C30	C	0.454172	-0.325517	0.499795
C31	C	-0.148200	-0.824019	-0.000204
C32	C	0.351800	-0.324019	0.499796
C33	C	-0.523061	-0.818507	-0.000222
C34	C	-0.023061	-0.318507	0.499778
C35	C	-0.418762	-0.820037	-0.000216
C36	C	0.081238	-0.320037	0.499784
C37	C	-0.335633	-0.821263	-0.000212
C38	C	0.164367	-0.321263	0.499788
C39	C	-0.231329	-0.822794	-0.000208
C40	C	0.268671	-0.322794	0.499792
C41	C	0.291430	-0.815794	-0.000217
C42	C	0.791430	-0.315794	0.499783
C43	C	0.393802	-0.817291	-0.000223
C44	C	0.893802	-0.317291	0.499777
N45	N	0.122790	-0.820632	0.188458
N46	N	0.622790	-0.320632	0.688458
C47	C	0.211900	-0.572169	-0.000175
C48	C	0.711900	-0.072169	0.499825
C49	C	0.210492	-0.499717	-0.000183
C50	C	0.710492	0.000283	0.499817
C51	C	0.125741	-0.471665	-0.000191
C52	C	0.625741	0.028335	0.499809
C53	C	0.042392	-0.516071	-0.000172
C54	C	0.542392	-0.016071	0.499828
C55	C	0.043803	-0.588521	-0.000156
C56	C	0.543803	-0.088521	0.499844
C57	C	0.059120	-0.363169	-0.042639
C58	C	0.559120	0.136831	0.457361
C59	C	0.057713	-0.290720	-0.042659
C60	C	0.557713	0.209280	0.457341
C61	C	0.121387	-0.248203	-0.000234
C62	C	0.621387	0.251797	0.499766
C63	C	0.186484	-0.278144	0.042200
C64	C	0.686484	0.221856	0.542200
C65	C	0.187894	-0.350595	0.042215
C66	C	0.687894	0.149405	0.542215
C67	C	0.124202	-0.393105	-0.000207
C68	C	0.624202	0.106895	0.499793
C69	C	0.203203	-0.125246	-0.000257
C70	C	0.703203	0.374754	0.499743
C71	C	0.201792	-0.052792	-0.000260
C72	C	0.701792	0.447208	0.499740
C73	C	0.033689	-0.069148	-0.000257
C74	C	0.533689	0.430852	0.499743
C75	C	0.035103	-0.141599	-0.000246
C76	C	0.535103	0.358401	0.499754
C77	C	0.119863	-0.169644	-0.000249
C78	C	0.619863	0.330356	0.499751
N79	N	0.122805	-0.820684	-0.188878
N80	N	0.622805	-0.320684	0.311122
C81	C	0.059929	-0.867790	0.226549
C82	C	0.559929	-0.367790	0.726549
C83	C	0.059925	-0.867794	0.302777
C84	C	0.559925	-0.367794	0.802777
C85	C	0.122797	-0.820648	0.340910
C86	C	0.622797	-0.320648	0.840910
C87	C	0.185663	-0.773481	0.302809
C88	C	0.685663	-0.273481	0.802809
C89	C	0.185659	-0.773473	0.226583
C90	C	0.685659	-0.273473	0.726583
C91	C	0.206826	-0.811652	0.461669
C92	C	0.706826	-0.311652	0.961669
C93	C	0.206831	-0.811664	0.537894
C94	C	0.706831	-0.311664	1.037894
C95	C	0.122809	-0.820667	0.576018
C96	C	0.622809	-0.320667	1.076018
C97	C	0.038778	-0.829673	0.537908
C98	C	0.538778	-0.329673	1.037908
C99	C	0.038775	-0.829665	0.461681
C100	C	0.538775	-0.329665	0.961681
C101	C	0.122808	-0.820650	0.423565
C102	C	0.622808	-0.320650	0.923565
C103	C	0.059938	-0.867832	0.696765
C104	C	0.559938	-0.367832	1.196765
C105	C	0.059933	-0.867832	0.772994
C106	C	0.559933	-0.367832	1.272994
C107	C	0.185679	-0.773522	0.773025
C108	C	0.685679	-0.273522	1.273025
C109	C	0.185677	-0.773519	0.696797
C110	C	0.685677	-0.273519	1.196797
C111	C	0.122807	-0.820678	0.658671
C112	C	0.622807	-0.320678	1.158671
H113	H	0.280918	-0.594998	-0.000179
H114	H	0.780918	-0.094998	0.499821
H115	H	-0.032760	-0.177748	-0.000238
H116	H	0.467240	0.322252	0.499762
N117	N	-0.004308	-0.915985	0.811907
N118	N	0.495692	-0.415985	1.311907
N119	N	-0.061485	-0.893870	0.854444
N120	N	0.438515	-0.393870	1.354444
H121	H	-0.106866	-0.927874	0.881924
H122	H	0.393134	-0.427874	1.381924
H123	H	0.004711	-0.266348	-0.077214
H124	H	0.504711	0.233652	0.422786
H125	H	0.275251	-0.804308	0.430634
H126	H	0.775251	-0.304308	0.930634
N127	N	-0.005941	-0.406586	-0.085974
N128	N	0.494059	0.093414	0.414026
N129	N	-0.064052	-0.379847	-0.123860
N130	N	0.435948	0.120153	0.376140
H131	H	-0.110003	-0.410509	-0.154463
H132	H	0.389997	0.089491	0.345537
H133	H	0.272220	-0.148080	-0.000249
H134	H	0.772220	0.351920	0.499751
N135	N	-0.044188	-0.487431	-0.000174
N136	N	0.455812	0.012569	0.499826
N137	N	-0.100307	-0.500969	0.050878
N138	N	0.399693	-0.000969	0.550878
H139	H	-0.161458	-0.480745	0.050881
H140	H	0.338542	0.019255	0.550881
H141	H	0.236868	-0.735122	0.665780
H142	H	0.736868	-0.235122	1.165780
H143	H	-0.035317	-0.046308	-0.000308
H144	H	0.464683	0.453692	0.499692
H145	H	0.269658	-0.016645	-0.000268
H146	H	0.769658	0.483355	0.499732
N147	N	-0.004399	-0.915918	0.657826
N148	N	0.495601	-0.415918	1.157826
N149	N	-0.060605	-0.957959	0.691850
N150	N	0.439395	-0.457959	1.191850
H151	H	-0.106088	-0.991889	0.664353
H152	H	0.393912	-0.491889	1.164353
H153	H	-0.029646	-0.836995	0.430655
H154	H	0.470354	-0.336995	0.930655
H155	H	0.236854	-0.735092	0.333861
H156	H	0.736854	-0.235092	0.833861
H157	H	-0.024063	-0.624670	-0.000145
H158	H	0.475937	-0.124670	0.499855
N159	N	-0.047048	-0.838859	0.576851
N160	N	0.452952	-0.338859	1.076851
N161	N	-0.047037	-0.838852	0.644909
N162	N	0.452963	-0.338852	1.144909
H163	H	-0.107649	-0.845337	0.672417
H164	H	0.392351	-0.345337	1.172417
N165	N	-0.004218	-0.916023	0.187618
N166	N	0.495782	-0.416023	0.687618
N167	N	-0.060289	-0.958164	0.221644
N168	N	0.439711	-0.458164	0.721644
H169	H	-0.105565	-0.992251	0.194148
H170	H	0.394435	-0.492251	0.694148
N171	N	-0.004299	-0.915969	0.341687
N172	N	0.495701	-0.415969	0.841687
N173	N	-0.060428	-0.958067	0.307637
N174	N	0.439572	-0.458067	0.807637
H175	H	-0.105786	-0.992091	0.335115
H176	H	0.394214	-0.492091	0.835115
H177	H	0.240896	-0.374969	0.076770
H178	H	0.740896	0.125031	0.576770
H179	H	0.236868	-0.735132	0.804072
H180	H	0.736868	-0.235132	1.304072
H181	H	0.275253	-0.804336	0.568917
H182	H	0.775253	-0.304336	1.068917
H183	H	0.236849	-0.735071	0.195568
H184	H	0.736849	-0.235071	0.695568
H185	H	0.238333	-0.243528	0.076747
H186	H	0.738333	0.256472	0.576747
N187	N	0.295632	-0.454367	-0.000194
N188	N	0.795632	0.045633	0.499806
N189	N	0.371301	-0.479415	-0.000193
N190	N	0.871301	0.020585	0.499807
H191	H	0.431432	-0.447389	-0.000201
H192	H	0.931432	0.052611	0.499799
