data_functionalizedCrystal
_audit_creation_method	'MofGen! by Chris Wilmer'
_symmetry_space_group_name_H-M	'P1'
_symmetry_Int_Tables_number	1
_symmetry_cell_setting	triclinic
loop_
_symmetry_equiv_pos_as_xyz
  x,y,z
_cell_length_a	10.654550
_cell_length_b	19.288865
_cell_length_c	9.730223
_cell_angle_alpha	90.011455
_cell_angle_beta	90.001022
_cell_angle_gamma	83.810589
loop_
_atom_site_label
_atom_site_type_symbol
_atom_site_fract_x
_atom_site_fract_y
_atom_site_fract_z
O1	O	1.665752	0.097556	0.114205
O2	O	1.300075	0.106851	0.114232
O3	O	1.493480	0.001142	0.114191
O4	O	1.472347	0.203265	0.114247
O5	O	1.493465	0.001136	-0.114389
O6	O	1.300060	0.106844	-0.114348
O7	O	1.665737	0.097550	-0.114375
Zn8	Zn	1.482896	0.102196	-0.150653
Zn9	Zn	1.482916	0.102205	0.150511
O10	O	1.472332	0.203258	-0.114333
C11	C	1.253284	0.106165	-0.000055
C12	C	1.113884	0.104123	-0.000046
C13	C	1.033066	0.166363	-0.000033
C14	C	0.902087	0.164440	-0.000057
C15	C	0.932756	0.038033	-0.000102
C16	C	1.063733	0.039956	-0.000088
C17	C	1.492792	-0.024742	-0.000103
C18	C	1.490751	-0.101859	-0.000115
C19	C	1.604232	-0.145812	-0.000131
C20	C	1.602315	-0.218272	-0.000109
C21	C	1.486909	-0.246775	-0.000099
C22	C	1.373413	-0.202812	-0.000076
C23	C	1.375334	-0.130354	-0.000085
C24	C	1.396182	-0.355658	-0.080159
C25	C	1.394266	-0.428116	-0.080160
C26	C	1.480980	-0.470259	-0.000068
C27	C	1.569632	-0.439938	0.080006
C28	C	1.571553	-0.367480	0.079998
C29	C	1.484814	-0.325343	-0.000090
C30	C	1.592390	-0.592782	-0.000057
C31	C	1.590467	-0.665243	-0.000027
C32	C	1.361562	-0.649781	-0.000009
C33	C	1.363488	-0.577322	-0.000025
C34	C	1.478905	-0.548827	-0.000056
C35	C	1.712528	0.098236	-0.000085
C36	C	1.851928	0.100277	-0.000085
C37	C	1.473020	0.229142	-0.000036
C38	C	1.475061	0.306259	-0.000015
N39	N	1.482891	0.102190	-0.356190
C40	C	1.407004	0.059684	-0.572059
C41	C	1.406987	0.059674	-0.428176
C42	C	1.558827	0.144713	-0.428094
C43	C	1.558849	0.144718	-0.571974
N44	N	1.482930	0.102205	0.356047
H45	H	1.698214	-0.122616	-0.000151
H46	H	1.620684	0.179345	-0.630512
O47	O	0.878666	-0.031174	-0.000138
H48	H	0.774011	-0.022057	-0.000133
O49	O	1.150916	-0.027176	-0.000112
H50	H	1.133141	-0.057853	0.093043
O51	O	1.087166	0.235567	-0.000016
H52	H	1.008958	0.278522	-0.000029
H53	H	1.694728	-0.254065	-0.000115
O54	O	1.325134	0.013819	-0.649676
H55	H	1.257445	0.046765	-0.715216
O56	O	1.712878	-0.712649	-0.000048
H57	H	1.717504	-0.746013	0.093129
O58	O	1.248936	-0.233548	-0.000082
H59	H	1.266664	-0.291317	-0.000098
H60	H	1.345162	0.025048	-0.369647
O61	O	1.298661	-0.460818	-0.166528
H62	H	1.201988	-0.440360	-0.133540
O63	O	1.252926	-0.082945	-0.000077
H64	H	1.273651	-0.027773	-0.000081
O65	O	0.814914	0.231569	-0.000039
H66	H	0.871797	0.276508	0.000002
H67	H	1.643733	-0.342796	0.145200
O68	O	1.663164	-0.485380	0.166410
H69	H	1.646927	-0.540858	0.152983
H70	H	1.686369	-0.569580	-0.000076
O71	O	1.640688	0.190571	-0.350447
H72	H	1.741148	0.175974	-0.378033
H73	H	1.267597	-0.672988	0.000006
H74	H	1.325565	-0.321350	-0.145387
O75	O	1.241090	-0.529908	-0.000043
H76	H	1.160517	-0.561899	-0.000049
