data_functionalizedCrystal
_audit_creation_method	'MofGen! by Chris Wilmer'
_symmetry_space_group_name_H-M	'P1'
_symmetry_Int_Tables_number	1
_symmetry_cell_setting	triclinic
loop_
_symmetry_equiv_pos_as_xyz
  x,y,z
_cell_length_a	18.050590
_cell_length_b	18.050590
_cell_length_c	16.120297
_cell_angle_alpha	92.871020
_cell_angle_beta	92.894469
_cell_angle_gamma	90.007719
loop_
_atom_site_label
_atom_site_type_symbol
_atom_site_fract_x
_atom_site_fract_y
_atom_site_fract_z
Zn1	Zn	1.114103	-0.317165	-0.471034
Zn2	Zn	1.120321	-0.435061	-0.331619
Zn3	Zn	0.996206	-0.310868	-0.331674
Zn4	Zn	0.989892	-0.441294	-0.471024
O5	O	1.055131	-0.376097	-0.401338
O6	O	1.218853	-0.332831	-0.452521
O7	O	1.109102	-0.413342	-0.214962
O8	O	1.011886	-0.207780	-0.350188
O9	O	1.223422	-0.419448	-0.350093
O10	O	1.098504	-0.212407	-0.452576
O11	O	1.017915	-0.322099	-0.215003
O12	O	0.891443	-0.328143	-0.350179
O13	O	1.001124	-0.430072	-0.587690
O14	O	0.886804	-0.423966	-0.452558
O15	O	1.092381	-0.338875	-0.587697
O16	O	1.102979	-0.539811	-0.350083
O17	O	1.007153	-0.544390	-0.452504
C18	C	0.862177	-0.376048	-0.401374
C19	C	0.779629	-0.376046	-0.401409
C20	C	0.577683	-0.428290	-0.456951
C21	C	0.527354	-0.361501	-0.477467
C22	C	0.628501	-0.376085	-0.401368
C23	C	0.531749	-0.442914	-0.380851
C24	C	0.482517	-0.376130	-0.401330
C25	C	0.579257	-0.309261	-0.421924
C26	C	0.583658	-0.390719	-0.325273
C27	C	0.533352	-0.323881	-0.345760
C28	C	0.712598	-0.376061	-0.401392
C29	C	0.398422	-0.376147	-0.401306
C30	C	1.055075	-0.569048	-0.401305
C31	C	1.055118	-0.651594	-0.401318
C32	C	1.107328	-0.848531	-0.345700
C33	C	1.122032	-0.901304	-0.421783
C34	C	1.055158	-0.802726	-0.401352
C35	C	1.040528	-0.897036	-0.325302
C36	C	1.055199	-0.948712	-0.401377
C37	C	1.069896	-0.854414	-0.477475
C38	C	0.988362	-0.850139	-0.380943
C39	C	1.003039	-0.902892	-0.457079
C40	C	1.055137	-0.718627	-0.401336
C41	C	1.055221	-1.032810	-0.401401
C42	C	1.248838	-0.376147	-0.401302
C43	C	1.331384	-0.376168	-0.401287
C44	C	1.045355	-0.385871	-0.618789
C45	C	1.041189	-0.390036	-0.711454
C46	C	1.055206	-0.182394	-0.401389
C47	C	1.055238	-0.099849	-0.401411
C48	C	1.033555	-0.397624	-0.881113
C49	C	1.076852	-0.354347	-0.922414
C50	C	1.072605	-0.358569	-1.016818
C51	C	1.037802	-0.393403	-0.786701
C52	C	1.064911	-0.366307	-0.184733
C53	C	1.069221	-0.361933	-0.092068
H54	H	0.502736	-0.349138	-0.541803
H55	H	0.993302	-0.437844	-0.916653
C56	C	1.131244	-0.300013	-0.874409
C57	C	1.124704	-0.216106	-0.886288
C58	C	1.179096	-0.161777	-0.838280
C59	C	1.240030	-0.191356	-0.778392
C60	C	1.246573	-0.275267	-0.766510
C61	C	1.192181	-0.329596	-0.814518
H62	H	1.079595	-0.194206	-0.930623
H63	H	1.174252	-0.099660	-0.847076
H64	H	1.280295	-0.151138	-0.742853
H65	H	1.291682	-0.297167	-0.722175
H66	H	1.197025	-0.391714	-0.805722
H67	H	0.931875	-0.827675	-0.363642
C68	C	0.604097	-0.487837	-0.520515
C69	C	0.580378	-0.483741	-0.613280
C70	C	0.606793	-0.543282	-0.676845
C71	C	0.656926	-0.606920	-0.647646
C72	C	0.680647	-0.611018	-0.554877
C73	C	0.654233	-0.551477	-0.491312
H74	H	0.543264	-0.436630	-0.634899
H75	H	0.589232	-0.540248	-0.745519
H76	H	0.676480	-0.650996	-0.694701
H77	H	0.717762	-0.658129	-0.533258
H78	H	0.671793	-0.554511	-0.422638
C79	C	0.503512	-0.519235	-0.357421
C80	C	0.527932	-0.550012	-0.272972
C81	C	0.499697	-0.626333	-0.249550
C82	C	0.447041	-0.671878	-0.310577
C83	C	0.422617	-0.641101	-0.395031
C84	C	0.450853	-0.564780	-0.418453
H85	H	0.566914	-0.516296	-0.227792
H86	H	0.517777	-0.649116	-0.187032
H87	H	0.426139	-0.728376	-0.293239
H88	H	0.383636	-0.674817	-0.440211
H89	H	0.432773	-0.541997	-0.480971
H90	H	0.600063	-0.252751	-0.439335
C91	C	0.507112	-0.264204	-0.282246
C92	C	0.526338	-0.182052	-0.291815
C93	C	0.500092	-0.122372	-0.228309
C94	C	0.454619	-0.144845	-0.155234
C95	C	0.435390	-0.227001	-0.145662
C96	C	0.461636	-0.286680	-0.209168
H97	H	0.560003	-0.165412	-0.345912
H98	H	0.514327	-0.061555	-0.235395
H99	H	0.435189	-0.100667	-0.108222
H100	H	0.401726	-0.243640	-0.091564
H101	H	0.447401	-0.347498	-0.202082
H102	H	0.608291	-0.403103	-0.260955
C103	C	1.166938	-0.816391	-0.282186
C104	C	1.249135	-0.836294	-0.291680
C105	C	1.308746	-0.804153	-0.228171
C106	C	1.286162	-0.752110	-0.155169
C107	C	1.203961	-0.732204	-0.145673
C108	C	1.144350	-0.764345	-0.209181
H109	H	1.265857	-0.874822	-0.345723
H110	H	1.369596	-0.818889	-0.235202
H111	H	1.330290	-0.728317	-0.108157
H112	H	1.187239	-0.693676	-0.091630
H113	H	1.083500	-0.749610	-0.202151
C114	C	1.198365	-0.931631	-0.445127
C115	C	1.243879	-0.978792	-0.384053
C116	C	1.320214	-1.009113	-0.407391
C117	C	1.351035	-0.992273	-0.491802
C118	C	1.305521	-0.945109	-0.552882
C119	C	1.229186	-0.914788	-0.529544
H120	H	1.221063	-0.991260	-0.321562
H121	H	1.353906	-1.044027	-0.362175
H122	H	1.407543	-1.014718	-0.509078
H123	H	1.328337	-0.932641	-0.615373
H124	H	1.195494	-0.879875	-0.574760
C125	C	1.086732	-0.829102	-0.564399
C126	C	1.089853	-0.745800	-0.580438
C127	C	1.106691	-0.720486	-0.667359
C128	C	1.120408	-0.778475	-0.738240
C129	C	1.117287	-0.861782	-0.722204
C130	C	1.100449	-0.887096	-0.635283
H131	H	1.079698	-0.702868	-0.527965
H132	H	1.109001	-0.658816	-0.679230
H133	H	1.132873	-0.759736	-0.802584
H134	H	1.127442	-0.904713	-0.774676
H135	H	1.098139	-0.948766	-0.623412
H136	H	0.958936	-0.926545	-0.504207
H137	H	1.028136	-0.915871	-0.260978
