data_functionalizedCrystal
_audit_creation_method	'MofGen! by Chris Wilmer'
_symmetry_space_group_name_H-M	'P1'
_symmetry_Int_Tables_number	1
_symmetry_cell_setting	triclinic
loop_
_symmetry_equiv_pos_as_xyz
  x,y,z
_cell_length_a	16.109295
_cell_length_b	9.730223
_cell_length_c	16.109301
_cell_angle_alpha	89.997247
_cell_angle_beta	83.460334
_cell_angle_gamma	90.002726
loop_
_atom_site_label
_atom_site_type_symbol
_atom_site_fract_x
_atom_site_fract_y
_atom_site_fract_z
O1	O	-1.103130	0.114201	-0.106841
O2	O	-0.603130	0.614201	0.393159
O3	O	-0.861067	0.114225	-0.120146
O4	O	-0.361067	0.614225	0.379854
O5	O	-0.988748	0.114198	0.007538
O6	O	-0.488748	0.614198	0.507538
O7	O	-0.975449	0.114227	-0.234525
O8	O	-0.475449	0.614227	0.265475
O9	O	-0.988747	-0.114382	0.007534
O10	O	-0.488747	0.385618	0.507534
O11	O	-0.861066	-0.114355	-0.120149
O12	O	-0.361066	0.385645	0.379851
O13	O	-1.103129	-0.114379	-0.106845
O14	O	-0.603129	0.385621	0.393155
Zn15	Zn	-0.982097	-0.150659	-0.113497
Zn16	Zn	-0.482097	0.349341	0.386503
Zn17	Zn	-0.982099	0.150505	-0.113493
Zn18	Zn	-0.482099	0.650505	0.386507
O19	O	-0.975448	-0.114353	-0.234528
O20	O	-0.475448	0.385647	0.265472
C21	C	-0.830092	-0.000063	-0.119609
C22	C	-0.330092	0.499937	0.380391
C23	C	-0.737796	-0.000054	-0.117996
C24	C	-0.237796	0.499946	0.382004
C25	C	-0.515523	-0.000060	-0.190008
C26	C	-0.015523	0.499940	0.309992
C27	C	-0.428803	-0.000068	-0.188486
C28	C	0.071197	0.499932	0.311514
C29	C	-0.448677	-0.000081	-0.036996
C30	C	0.051323	0.499919	0.463004
C31	C	-0.535396	-0.000082	-0.038520
C32	C	-0.035396	0.499918	0.461480
C33	C	-0.568816	-0.000065	-0.115028
C34	C	-0.068816	0.499935	0.384972
C35	C	-0.395377	-0.000072	-0.111982
C36	C	0.104623	0.499928	0.388018
C37	C	-0.301351	-0.000081	-0.110331
C38	C	0.198649	0.499919	0.389669
C39	C	-0.662849	-0.000058	-0.116679
C40	C	-0.162849	0.499942	0.383321
N41	N	-0.982102	-0.356196	-0.113499
N42	N	-0.482102	0.143804	0.386501
C43	C	-1.038653	-0.428134	-0.056980
C44	C	-0.538653	0.071866	0.443020
C45	C	-1.038651	-0.572016	-0.056970
C46	C	-0.538651	-0.072016	0.443030
C47	C	-0.925543	-0.572011	-0.170006
C48	C	-0.425543	-0.072011	0.329994
C49	C	-0.925542	-0.428131	-0.170011
C50	C	-0.425542	0.071869	0.329989
C51	C	-1.095213	-0.356198	-0.000469
C52	C	-0.595213	0.143802	0.499531
C53	C	-1.151770	-0.428136	0.056054
C54	C	-0.651770	0.071864	0.556054
C55	C	-1.151768	-0.572019	0.056065
C56	C	-0.651768	-0.072019	0.556065
C57	C	-1.095209	-0.643964	-0.000448
C58	C	-0.595209	-0.143964	0.499552
C59	C	-0.134104	-0.000088	-0.107386
C60	C	0.365896	0.499912	0.392614
C61	C	-0.226397	-0.000083	-0.109014
C62	C	0.273603	0.499917	0.390986
C63	C	-0.988209	-0.000093	0.038511
C64	C	-0.488209	0.499907	0.538511
C65	C	-0.986594	-0.000094	0.130806
C66	C	-0.486594	0.499906	0.630806
N67	N	-0.982101	0.356041	-0.113484
N68	N	-0.482101	0.856041	0.386516
C69	C	-0.975987	-0.000059	-0.265501
C70	C	-0.475987	0.499941	0.234499
C71	C	-0.977602	-0.000048	-0.357796
C72	C	-0.477602	0.499952	0.142204
C73	C	-1.058602	-0.000080	0.353080
C74	C	-0.558602	0.499920	0.853080
C75	C	-1.057078	-0.000068	0.439800
C76	C	-0.557078	0.499932	0.939800
C77	C	-0.905588	-0.000059	0.419923
C78	C	-0.405588	0.499941	0.919923
C79	C	-0.907113	-0.000060	0.333204
C80	C	-0.407113	0.499940	0.833204
C81	C	-0.983622	-0.000078	0.299785
C82	C	-0.483622	0.499922	0.799785
C83	C	-0.980573	-0.000065	0.473225
C84	C	-0.480573	0.499935	0.973225
C85	C	-0.978920	-0.000052	0.567251
C86	C	-0.478920	0.499948	1.067251
C87	C	-0.985276	-0.000088	0.205754
C88	C	-0.485276	0.499912	0.705754
H89	H	-0.385414	-0.000067	-0.249542
H90	H	0.114586	0.499933	0.250458
H91	H	-0.879492	-0.369558	-0.216034
H92	H	-0.379492	0.130442	0.283966
H93	H	-0.846052	-0.000055	0.289809
H94	H	-0.346052	0.499945	0.789809
H95	H	-1.197812	-0.630590	0.102093
H96	H	-0.697812	-0.130590	0.602093
O97	O	-1.129857	-0.000255	0.491656
O98	O	-0.629857	0.499745	0.991656
C99	C	-1.216078	-0.118710	0.601073
C100	C	-0.716078	0.381290	1.101073
C101	C	-1.133613	-0.118659	0.542408
C102	C	-0.633613	0.381341	1.042408
H103	H	-1.219150	-0.214443	0.642108
H104	H	-0.719150	0.285557	1.142108
H105	H	-1.219162	-0.023110	0.642219
H106	H	-0.719162	0.476890	1.142219
H107	H	-1.271006	-0.118653	0.562271
H108	H	-0.771006	0.381347	1.062271
H109	H	-1.078639	-0.118764	0.581143
H110	H	-0.578639	0.381236	1.081143
H111	H	-1.130602	-0.214251	0.501258
H112	H	-0.630602	0.285749	1.001258
O113	O	-1.095336	-0.783733	-0.000347
O114	O	-0.595336	-0.283733	0.499653
C115	C	-1.157349	-0.990211	0.061732
C116	C	-0.657349	-0.490211	0.561732
C117	C	-1.157307	-0.831930	0.061694
C118	C	-0.657307	-0.331930	0.561694
H119	H	-1.207435	-1.029226	0.111899
H120	H	-0.707435	-0.529226	0.611899
H121	H	-1.171029	-1.029367	-0.002010
H122	H	-0.671029	-0.529367	0.497990
H123	H	-1.093564	-1.029220	0.075372
H124	H	-0.593564	-0.529220	0.575372
H125	H	-1.221075	-0.792804	0.048090
H126	H	-0.721075	-0.292804	0.548090
H127	H	-1.143580	-0.792868	0.125441
H128	H	-0.643580	-0.292868	0.625441
H129	H	-0.843297	-0.000047	0.447144
H130	H	-0.343297	0.499953	0.947144
O131	O	-1.206577	-0.358131	0.111013
O132	O	-0.706577	0.141869	0.611013
C133	C	-1.224266	-0.195827	0.224627
C134	C	-0.724266	0.304173	0.724627
C135	C	-1.162114	-0.274975	0.162400
C136	C	-0.662114	0.225025	0.662400
H137	H	-1.188342	-0.128599	0.266201
H138	H	-0.688342	0.371401	0.766201
H139	H	-1.265799	-0.128357	0.188800
H140	H	-0.765799	0.371643	0.688800
H141	H	-1.264678	-0.272020	0.264986
H142	H	-0.764678	0.227980	0.764986
H143	H	-1.121648	-0.198882	0.122024
H144	H	-0.621648	0.301118	0.622024
H145	H	-1.120639	-0.342467	0.198277
H146	H	-0.620639	0.157533	0.698277
O147	O	-0.416307	0.000101	0.037371
O148	O	0.083693	0.500101	0.537371
C149	C	-0.406716	0.118567	0.167287
C150	C	0.093284	0.618567	0.667287
C151	C	-0.443444	0.118509	0.083103
C152	C	0.056556	0.618509	0.583103
H153	H	-0.428628	0.214304	0.204278
H154	H	0.071372	0.714304	0.704278
H155	H	-0.428690	0.022971	0.204400
H156	H	0.071310	0.522971	0.704400
H157	H	-0.335583	0.118508	0.155475
H158	H	0.164417	0.618508	0.655475
H159	H	-0.514578	0.118617	0.094838
H160	H	-0.014578	0.618617	0.594838
H161	H	-0.421405	0.214097	0.046016
H162	H	0.078595	0.714097	0.546016
O163	O	-0.547851	-0.000115	-0.264397
O164	O	-0.047851	0.499885	0.235603
C165	C	-0.518981	-0.000031	-0.414492
C166	C	-0.018981	0.499969	0.085508
C167	C	-0.482263	0.000005	-0.330304
C168	C	0.017737	0.500005	0.169696
H169	H	-0.465971	0.000095	-0.467800
H170	H	0.034029	0.500095	0.032200
H171	H	-0.559056	-0.095714	-0.419048
H172	H	-0.059056	0.404286	0.080952
H173	H	-0.559109	0.095607	-0.418951
H174	H	-0.059109	0.595607	0.081049
H175	H	-0.442097	-0.095568	-0.325788
H176	H	0.057903	0.404432	0.174212
H177	H	-0.442235	0.095751	-0.325784
H178	H	0.057765	0.595751	0.174216
H179	H	-0.578790	-0.000090	0.022542
H180	H	-0.078790	0.499910	0.522542
H181	H	-1.095221	-0.239042	-0.000473
H182	H	-0.595221	0.260958	0.499527
H183	H	-0.879496	-0.630598	-0.216017
H184	H	-0.379496	-0.130598	0.283983
O185	O	-1.132992	-0.000019	0.320754
O186	O	-0.632992	0.499981	0.820754
C187	C	-1.283087	-0.000088	0.349627
C188	C	-0.783087	0.499912	0.849627
C189	C	-1.198897	-0.000133	0.386343
C190	C	-0.698897	0.499867	0.886343
H191	H	-1.336393	-0.000209	0.402637
H192	H	-0.836393	0.499791	0.902637
H193	H	-1.287640	0.095596	0.309552
H194	H	-0.787640	0.595596	0.809552
H195	H	-1.287550	-0.095725	0.309499
H196	H	-0.787550	0.404275	0.809499
H197	H	-1.194377	0.095439	0.426509
H198	H	-0.694377	0.595439	0.926509
H199	H	-1.194380	-0.095880	0.426370
H200	H	-0.694380	0.404120	0.926370
