data_functionalizedCrystal
_audit_creation_method	'MofGen! by Chris Wilmer'
_symmetry_space_group_name_H-M	'P1'
_symmetry_Int_Tables_number	1
_symmetry_cell_setting	triclinic
loop_
_symmetry_equiv_pos_as_xyz
  x,y,z
_cell_length_a	9.065215
_cell_length_b	10.654559
_cell_length_c	8.140239
_cell_angle_alpha	89.999324
_cell_angle_beta	89.997810
_cell_angle_gamma	84.751754
loop_
_atom_site_label
_atom_site_type_symbol
_atom_site_fract_x
_atom_site_fract_y
_atom_site_fract_z
O1	O	1.959401	0.184139	-0.136583
O2	O	1.530034	0.199249	-0.136589
O3	O	1.754582	0.008995	-0.136587
O4	O	1.734853	0.374394	-0.136585
O5	O	1.754570	0.008992	0.136640
O6	O	1.530021	0.199246	0.136638
O7	O	1.959389	0.184137	0.136644
Zn8	Zn	1.744703	0.191691	0.180022
Zn9	Zn	1.744719	0.191694	-0.179967
O10	O	1.734840	0.374391	0.136642
C11	C	1.475049	0.197796	0.000023
C12	C	1.311229	0.193457	0.000020
C13	C	1.753124	-0.037810	0.000023
C14	C	1.748781	-0.177270	0.000012
C15	C	1.608419	-0.360395	0.000024
C16	C	1.612488	-0.229357	0.000009
C17	C	1.881014	-0.256229	0.000012
C18	C	1.876943	-0.387265	0.000015
C19	C	1.456758	-0.034137	-0.095725
C20	C	1.324529	0.044817	-0.095702
C21	C	1.204663	0.014152	0.000039
C22	C	1.217021	-0.095464	0.095797
C23	C	1.349253	-0.174412	0.095789
C24	C	1.469113	-0.143748	0.000010
C25	C	2.032664	-0.582486	0.095763
C26	C	2.164897	-0.661437	0.095766
C27	C	2.284775	-0.630776	0.000035
C28	C	2.272431	-0.521156	-0.095699
C29	C	2.140198	-0.442206	-0.095702
C30	C	2.020319	-0.472876	0.000026
C31	C	2.014374	0.185589	0.000028
C32	C	2.178193	0.189929	0.000020
C33	C	1.736298	0.421196	0.000028
C34	C	1.740641	0.560656	0.000029
N35	N	1.744703	0.191689	0.425704
N36	N	1.744731	0.191687	-0.425649
H37	H	1.359314	-0.263661	0.173751
H38	H	1.119416	-0.120413	0.173772
N39	N	2.126861	-0.323972	-0.198958
H40	H	2.204046	-0.267020	-0.163226
H41	H	2.142662	-0.347171	-0.318371
N42	N	1.311190	0.163029	-0.199003
H43	H	1.209237	0.208392	-0.184457
H44	H	1.388462	0.219887	-0.163251
H45	H	1.097000	0.078447	0.000057
H46	H	2.370048	-0.496188	-0.173645
N47	N	2.178222	-0.779666	0.199030
H48	H	2.082212	-0.787120	0.259670
H49	H	2.200076	-0.855498	0.125604
H50	H	2.392449	-0.695065	0.000058
H51	H	1.554338	-0.009180	-0.173734
H52	H	1.497433	-0.402793	0.000041
N53	N	1.903348	-0.615541	0.199012
H54	H	1.872174	-0.699968	0.163292
H55	H	1.933615	-0.619839	0.318427
N56	N	2.028019	-0.200058	0.000031
H57	H	2.010537	-0.105067	0.000043
H58	H	2.085912	-0.228838	0.101331
