data_functionalizedCrystal
_audit_creation_method	'MofGen! by Chris Wilmer'
_symmetry_space_group_name_H-M	'P1'
_symmetry_Int_Tables_number	1
_symmetry_cell_setting	triclinic
loop_
_symmetry_equiv_pos_as_xyz
  x,y,z
_cell_length_a	29.839131
_cell_length_b	29.839134
_cell_length_c	16.120297
_cell_angle_alpha	92.867078
_cell_angle_beta	87.132273
_cell_angle_gamma	89.963233
loop_
_atom_site_label
_atom_site_type_symbol
_atom_site_fract_x
_atom_site_fract_y
_atom_site_fract_z
Zn1	Zn	-0.191806	-0.673862	0.471613
Zn2	Zn	0.308194	-0.173862	0.971613
Zn3	Zn	-0.263124	-0.677595	0.332195
Zn4	Zn	0.236876	-0.177595	0.832195
Zn5	Zn	-0.188003	-0.602546	0.332191
Zn6	Zn	0.311997	-0.102546	0.832191
Zn7	Zn	-0.266901	-0.598695	0.471531
Zn8	Zn	0.233099	-0.098695	0.971531
O9	O	-0.227458	-0.638175	0.401883
O10	O	0.272542	-0.138175	0.901883
O11	O	-0.201277	-0.737224	0.453155
O12	O	0.298723	-0.237224	0.953155
O13	O	-0.249986	-0.670814	0.215533
O14	O	0.250014	-0.170814	0.715533
O15	O	-0.125641	-0.612056	0.350717
O16	O	0.374359	-0.112056	0.850717
O17	O	-0.253674	-0.739966	0.350726
O18	O	0.246326	-0.239966	0.850726
O19	O	-0.128435	-0.664451	0.453150
O20	O	0.371565	-0.164451	0.953150
O21	O	-0.194795	-0.615675	0.215530
O22	O	0.305205	-0.115675	0.715530
O23	O	-0.198458	-0.539169	0.350638
O24	O	0.301542	-0.039169	0.850638
O25	O	-0.260112	-0.605492	0.588204
O26	O	0.239888	-0.105492	1.088204
O27	O	-0.256424	-0.536340	0.453011
O28	O	0.243576	-0.036340	0.953011
O29	O	-0.204940	-0.660717	0.588263
O30	O	0.295060	-0.160717	1.088263
O31	O	-0.326491	-0.667080	0.350647
O32	O	0.173509	-0.167080	0.850647
O33	O	-0.329266	-0.609112	0.453016
O34	O	0.170734	-0.109112	0.953016
C35	C	-0.227438	-0.521454	0.401816
C36	C	0.272562	-0.021454	0.901816
C37	C	-0.227441	-0.471520	0.401807
C38	C	0.272559	0.028480	0.901807
C39	C	-0.344180	-0.638095	0.401841
C40	C	0.155820	-0.138095	0.901841
C41	C	-0.394115	-0.638101	0.401851
C42	C	0.105885	-0.138101	0.901851
C43	C	-0.257686	-0.160413	0.455097
C44	C	0.242314	0.339587	0.955097
C45	C	-0.257701	0.027261	0.455123
C46	C	0.242299	0.527261	0.955123
O47	O	-0.283391	0.052769	0.500409
O48	O	0.216609	0.552769	1.000409
N49	N	-0.227481	0.049268	0.401907
N50	N	0.272519	0.549268	0.901907
C51	C	-0.197254	0.024354	0.348685
C52	C	0.302746	0.524354	0.848685
O53	O	-0.171548	0.047379	0.303428
O54	O	0.328452	0.547379	0.803428
C55	C	-0.197238	-0.163319	0.348663
C56	C	0.302762	0.336681	0.848663
C57	C	-0.227462	-0.185324	0.401876
C58	C	0.272538	0.314676	0.901876
C59	C	-0.287907	-0.182418	0.508306
C60	C	0.212093	0.317582	1.008306
C61	C	-0.287905	-0.229334	0.508296
C62	C	0.212095	0.270666	1.008296
C63	C	-0.257681	-0.254244	0.455076
C64	C	0.242319	0.245756	0.955076
C65	C	-0.227459	-0.232239	0.401866
C66	C	0.272541	0.267761	0.901866
C67	C	-0.167009	-0.188232	0.295445
C68	C	0.332991	0.311768	0.795445
C69	C	-0.167006	-0.235153	0.295446
C70	C	0.332994	0.264847	0.795446
C71	C	-0.197231	-0.257158	0.348659
C72	C	0.302769	0.242842	0.848659
C73	C	-0.197233	-0.304066	0.348635
C74	C	0.302767	0.195934	0.848635
N75	N	-0.227452	-0.326073	0.401851
N76	N	0.272548	0.173927	0.901851
C77	C	-0.257676	-0.301162	0.455071
C78	C	0.242324	0.198838	0.955071
C79	C	-0.197266	0.122885	0.348699
C80	C	0.302734	0.622885	0.848699
C81	C	-0.197270	0.169803	0.348703
C82	C	0.302730	0.669803	0.848703
C83	C	-0.257716	0.172707	0.455143
C84	C	0.242284	0.672707	0.955143
C85	C	-0.257713	0.125788	0.455134
C86	C	0.242287	0.625788	0.955134
C87	C	-0.227485	0.100878	0.401915
C88	C	0.272515	0.600878	0.901915
C89	C	-0.257669	-0.399689	0.455045
C90	C	0.242331	0.100311	0.955045
C91	C	-0.257665	-0.446609	0.455027
C92	C	0.242335	0.053391	0.955027
C93	C	-0.197218	-0.449508	0.348591
C94	C	0.302782	0.050492	0.848591
C95	C	-0.197223	-0.402592	0.348605
C96	C	0.302777	0.097408	0.848605
C97	C	-0.227450	-0.377684	0.401839
C98	C	0.272550	0.122316	0.901839
O99	O	-0.171552	-0.329602	0.303380
O100	O	0.328448	0.170398	0.803380
O101	O	-0.283372	-0.324195	0.500334
O102	O	0.216628	0.175805	1.000334
C103	C	-0.257688	-0.113497	0.455107
C104	C	0.242312	0.386503	0.955107
C105	C	-0.227467	-0.091492	0.401897
C106	C	0.272533	0.408508	0.901897
C107	C	-0.197243	-0.116403	0.348677
C108	C	0.302757	0.383597	0.848677
C109	C	-0.227471	-0.044574	0.401901
C110	C	0.272529	0.455426	0.901901
C111	C	-0.257695	-0.019664	0.455122
C112	C	0.242305	0.480336	0.955122
C113	C	-0.287914	-0.041671	0.508338
C114	C	0.212086	0.458329	1.008338
C115	C	-0.287912	-0.088587	0.508327
C116	C	0.212088	0.411413	1.008327
C117	C	-0.167024	-0.094395	0.295461
C118	C	0.332976	0.405605	0.795461
C119	C	-0.167029	-0.047480	0.295475
C120	C	0.332971	0.452520	0.795475
C121	C	-0.197253	-0.022569	0.348695
C122	C	0.302747	0.477431	0.848695
C123	C	-0.702303	-0.668409	0.348657
C124	C	-0.202303	-0.168409	0.848657
C125	C	-0.889977	-0.668463	0.348689
C126	C	-0.389977	-0.168463	0.848689
O127	O	-0.913004	-0.694168	0.303429
O128	O	-0.413004	-0.194168	0.803429
N129	N	-0.914902	-0.638266	0.401945
N130	N	-0.414902	-0.138266	0.901945
C131	C	-0.892906	-0.608055	0.455201
C132	C	-0.392906	-0.108055	0.955201
O133	O	-0.918413	-0.582375	0.500506
O134	O	-0.418413	-0.082375	1.000506
C135	C	-0.705233	-0.608003	0.455173
C136	C	-0.205233	-0.108003	0.955173
C137	C	-0.680310	-0.638199	0.401907
C138	C	-0.180310	-0.138199	0.901907
C139	C	-0.677381	-0.698602	0.295396
C140	C	-0.177381	-0.198602	0.795396
C141	C	-0.630465	-0.698587	0.295385
C142	C	-0.130465	-0.198587	0.795385
C143	C	-0.608472	-0.668377	0.348635
C144	C	-0.108472	-0.168377	0.848635
C145	C	-0.633394	-0.638184	0.401896
C146	C	-0.133394	-0.138184	0.901896
C147	C	-0.683238	-0.577795	0.508432
C148	C	-0.183238	-0.077795	1.008432
C149	C	-0.636316	-0.577785	0.508422
C150	C	-0.136316	-0.077785	1.008422
C151	C	-0.611394	-0.607981	0.455156
C152	C	-0.111394	-0.107981	0.955156
C153	C	-0.564486	-0.607959	0.455135
C154	C	-0.064486	-0.107959	0.955135
N155	N	-0.539561	-0.638156	0.401879
N156	N	-0.039561	-0.138156	0.901879
C157	C	-0.561554	-0.668365	0.348629
C158	C	-0.061554	-0.168365	0.848629
C159	C	-0.991437	-0.608084	0.455212
C160	C	-0.491437	-0.108084	0.955212
C161	C	-1.038355	-0.608097	0.455218
C162	C	-0.538355	-0.108097	0.955218
C163	C	-1.035423	-0.668505	0.348706
C164	C	-0.535423	-0.168505	0.848706
C165	C	-0.988504	-0.668490	0.348697
C166	C	-0.488504	-0.168490	0.848697
C167	C	-0.966512	-0.638281	0.401955
C168	C	-0.466512	-0.138281	0.901955
C169	C	-0.463027	-0.668330	0.348610
C170	C	0.036973	-0.168330	0.848610
C171	C	-0.416108	-0.668310	0.348601
C172	C	0.083892	-0.168310	0.848601
C173	C	-0.419044	-0.607903	0.455116
C174	C	0.080956	-0.107903	0.955116
C175	C	-0.465959	-0.607921	0.455121
C176	C	0.034041	-0.107921	0.955121
C177	C	-0.487950	-0.638138	0.401866
C178	C	0.012050	-0.138138	0.901866
O179	O	-0.541429	-0.582270	0.500378
O180	O	-0.041429	-0.082270	1.000378
O181	O	-0.536040	-0.694048	0.303344
O182	O	-0.036040	-0.194048	0.803344
C183	C	-0.749219	-0.668424	0.348667
C184	C	-0.249219	-0.168424	0.848667
C185	C	-0.774142	-0.638230	0.401928
C186	C	-0.274142	-0.138230	0.901928
C187	C	-0.752149	-0.608021	0.455178
C188	C	-0.252149	-0.108021	0.955178
C189	C	-0.821060	-0.638243	0.401935
C190	C	-0.321060	-0.138243	0.901935
C191	C	-0.843053	-0.668452	0.348685
C192	C	-0.343053	-0.168452	0.848685
C193	C	-0.818128	-0.698649	0.295428
C194	C	-0.318128	-0.198649	0.795428
C195	C	-0.771212	-0.698634	0.295417
C196	C	-0.271212	-0.198634	0.795417
C197	C	-0.777074	-0.577824	0.508435
C198	C	-0.277074	-0.077824	1.008435
C199	C	-0.823989	-0.577842	0.508441
C200	C	-0.323989	-0.077842	1.008441
C201	C	-0.845982	-0.608051	0.455190
C202	C	-0.345982	-0.108051	0.955190
C203	C	-0.110282	-0.638267	0.401942
C204	C	0.389718	-0.138267	0.901942
C205	C	-0.060348	-0.638306	0.401968
C206	C	0.439652	-0.138306	0.901968
C207	C	-0.233372	-0.632259	0.619328
C208	C	0.266628	-0.132259	1.119328
C209	C	-0.235891	-0.629738	0.711991
C210	C	0.264109	-0.129738	1.211991
C211	C	-0.227480	0.244649	0.401936
C212	C	0.272520	0.744649	0.901936
C213	C	-0.227494	0.194714	0.401923
C214	C	0.272506	0.694714	0.901923
C215	C	-0.221536	-0.644093	0.185283
C216	C	0.278464	-0.144093	0.685283
C217	C	-0.218889	-0.646702	0.092621
C218	C	0.281111	-0.146702	0.592621
C219	C	-0.240482	-0.625118	0.881646
C220	C	0.259518	-0.125118	1.381646
C221	C	-0.214300	-0.651319	0.922971
C222	C	0.285700	-0.151319	1.422971
C223	C	-0.216854	-0.648749	1.017373
C224	C	0.283146	-0.148749	1.517373
C225	C	-0.237928	-0.627688	0.787235
C226	C	0.262072	-0.127688	1.287235
H227	H	-0.282279	-0.464523	0.498361
H228	H	0.217721	0.035477	0.998361
O229	O	-0.961622	-0.701064	0.291261
O230	O	-0.461622	-0.201064	0.791261
H231	H	-0.968867	-0.695176	0.225814
H232	H	-0.468867	-0.195176	0.725814
H233	H	-0.264814	-0.600759	0.917162
H234	H	0.235186	-0.100759	1.417162
H235	H	-0.282282	-0.379414	0.498395
H236	H	0.217718	0.120586	0.998395
O237	O	-0.320497	-0.253065	0.565703
O238	O	0.179503	0.246935	1.065703
H239	H	-0.341507	-0.227855	0.602714
H240	H	0.158493	0.272145	1.102714
O241	O	-0.134403	-0.262015	0.238035
O242	O	0.365597	0.237985	0.738035
H243	H	-0.112588	-0.282393	0.275417
H244	H	0.387412	0.217607	0.775417
O245	O	-0.320506	-0.112318	0.565730
O246	O	0.179494	0.387682	1.065730
H247	H	-0.341517	-0.087108	0.602740
H248	H	0.158483	0.412892	1.102740
O249	O	-0.164632	-0.378866	0.291183
O250	O	0.335368	0.121134	0.791183
H251	H	-0.183555	-0.358631	0.248701
H252	H	0.316445	0.141369	0.748701
O253	O	-1.065230	-0.575522	0.512663
O254	O	-0.565230	-0.075522	1.012663
H255	H	-1.085614	-0.553699	0.475308
H256	H	-0.585614	-0.053699	0.975308
H257	H	-0.282324	0.107874	0.498466
H258	H	0.217676	0.607874	0.998466
O259	O	-0.320557	-0.155556	0.565616
O260	O	0.179443	0.344444	1.065616
H261	H	-0.341587	-0.178748	0.602571
H262	H	0.158413	0.321252	1.102571
H263	H	-0.610175	-0.723176	0.252014
H264	H	-0.110175	-0.223176	0.752014
O265	O	-0.290313	0.199578	0.512555
O266	O	0.209687	0.699578	1.012555
H267	H	-0.285232	0.235899	0.503618
H268	H	0.214768	0.735899	1.003618
O269	O	-0.164674	0.193536	0.291305
O270	O	0.335326	0.693536	0.791305
H271	H	-0.143655	0.168327	0.254307
H272	H	0.356345	0.668327	0.754307
O273	O	-0.164671	0.096019	0.291275
O274	O	0.335329	0.596019	0.791275
H275	H	-0.143667	0.119209	0.254265
H276	H	0.356333	0.619209	0.754265
H277	H	-0.142398	-0.170324	0.252111
H278	H	0.357602	0.329676	0.752111
H279	H	-0.189966	-0.675681	0.887453
H280	H	0.310034	-0.175681	1.387453
H281	H	-0.172612	-0.469799	0.305258
H282	H	0.327388	0.030201	0.805258
H283	H	-0.618413	-0.553186	0.551794
H284	H	-0.118413	-0.053186	1.051794
O285	O	-0.389229	-0.700886	0.291156
O286	O	0.110771	-0.200886	0.791156
H287	H	-0.352908	-0.695802	0.300087
H288	H	0.147092	-0.195802	0.800087
H289	H	-0.312525	-0.021380	0.551669
H290	H	0.187475	0.478620	1.051669
H291	H	-0.480926	-0.692936	0.305246
H292	H	0.019074	-0.192936	0.805246
H293	H	-0.759171	-0.553224	0.551799
H294	H	-0.259171	-0.053224	1.051799
O295	O	-0.134427	-0.023747	0.238079
O296	O	0.365573	0.476253	0.738079
H297	H	-0.113408	-0.048956	0.201081
H298	H	0.386592	0.451044	0.701081
H299	H	-0.142411	-0.114673	0.252122
H300	H	0.357589	0.385327	0.752122
H301	H	-0.695282	-0.723205	0.252033
H302	H	-0.195282	-0.223205	0.752033
O303	O	-1.059148	-0.701097	0.291285
O304	O	-0.559148	-0.201097	0.791285
H305	H	-1.095959	-0.696034	0.300252
H306	H	-0.595959	-0.196034	0.800252
H307	H	-0.703522	-0.553204	0.551803
H308	H	-0.203522	-0.053204	1.051803
O309	O	-0.967724	-0.575488	0.512644
O310	O	-0.467724	-0.075488	1.012644
H311	H	-0.978495	-0.581377	0.578092
H312	H	-0.478495	-0.081377	1.078092
O313	O	-0.492845	-0.575353	0.512568
O314	O	0.007155	-0.075353	1.012568
H315	H	-0.469667	-0.554346	0.549596
H316	H	0.030333	-0.054346	1.049596
H317	H	-0.750923	-0.723222	0.252043
H318	H	-0.250923	-0.223222	0.752043
O319	O	-0.395320	-0.575320	0.512549
O320	O	0.104680	-0.075320	1.012549
H321	H	-0.375075	-0.594252	0.555001
H322	H	0.124925	-0.094252	1.055001
O323	O	-0.841853	-0.731242	0.238009
O324	O	-0.341853	-0.231242	0.738009
H325	H	-0.878665	-0.726181	0.246981
H326	H	-0.378665	-0.226181	0.746981
H327	H	-0.844278	-0.553248	0.551815
H328	H	-0.344278	-0.053248	1.051815
