data_functionalizedCrystal
_audit_creation_method	'MofGen! by Chris Wilmer'
_symmetry_space_group_name_H-M	'P1'
_symmetry_Int_Tables_number	1
_symmetry_cell_setting	triclinic
loop_
_symmetry_equiv_pos_as_xyz
  x,y,z
_cell_length_a	14.519709
_cell_length_b	14.519709
_cell_length_c	15.186229
_cell_angle_alpha	90.001226
_cell_angle_beta	90.000004
_cell_angle_gamma	83.680145
loop_
_atom_site_label
_atom_site_type_symbol
_atom_site_fract_x
_atom_site_fract_y
_atom_site_fract_z
O1	O	1.223870	0.120885	0.073116
O2	O	1.557203	0.454218	0.406449
O3	O	1.890536	0.787552	0.739783
O4	O	0.955393	0.135122	0.073143
O5	O	1.288726	0.468455	0.406476
O6	O	1.622059	0.801788	0.739810
O7	O	1.096750	-0.006235	0.073121
O8	O	1.430083	0.327098	0.406454
O9	O	1.763416	0.660431	0.739787
O10	O	1.082513	0.262242	0.073138
O11	O	1.415846	0.595575	0.406471
O12	O	1.749180	0.928908	0.739805
O13	O	1.096733	-0.006227	-0.073337
O14	O	1.430066	0.327106	0.259997
O15	O	1.763400	0.660440	0.593330
O16	O	0.955376	0.135130	-0.073314
O17	O	1.288710	0.468463	0.260019
O18	O	1.622043	0.801796	0.593352
O19	O	1.223853	0.120893	-0.073341
O20	O	1.557186	0.454226	0.259992
O21	O	1.890520	0.787560	0.593325
Zn22	Zn	1.089612	0.128013	-0.096581
Zn23	Zn	1.422945	0.461346	0.236752
Zn24	Zn	1.756279	0.794679	0.570086
Zn25	Zn	1.089634	0.128002	0.096383
Zn26	Zn	1.422967	0.461335	0.429716
Zn27	Zn	1.756301	0.794669	0.763049
O28	O	1.082496	0.262250	-0.073319
O29	O	1.415830	0.595583	0.260014
O30	O	1.749163	0.928916	0.593347
C31	C	0.921025	0.134462	-0.000082
C32	C	1.254358	0.467795	0.333251
C33	C	1.587691	0.801129	0.666584
C34	C	0.818643	0.132474	-0.000072
C35	C	1.151977	0.465807	0.333261
C36	C	1.485310	0.799141	0.666595
C37	C	0.443748	0.125154	-0.000113
C38	C	0.777081	0.458488	0.333221
C39	C	1.110414	0.791821	0.666554
C40	C	0.548056	0.127187	-0.000101
C41	C	0.881389	0.460520	0.333232
C42	C	1.214722	0.793854	0.666566
C43	C	0.631192	0.128814	-0.000092
C44	C	0.964526	0.462147	0.333242
C45	C	1.297859	0.795481	0.666575
C46	C	0.735507	0.130847	-0.000082
C47	C	1.068840	0.464180	0.333252
C48	C	1.402173	0.797514	0.666585
C49	C	1.096078	-0.040591	-0.000108
C50	C	1.429411	0.292742	0.333225
C51	C	1.762744	0.626076	0.666559
C52	C	1.094090	-0.142972	-0.000108
C53	C	1.427423	0.190361	0.333225
C54	C	1.760756	0.523694	0.666558
C55	C	1.086770	-0.517868	-0.000085
C56	C	1.420103	-0.184535	0.333249
C57	C	1.753437	0.148799	0.666582
C58	C	1.088803	-0.413560	-0.000091
C59	C	1.422136	-0.080227	0.333242
C60	C	1.755469	0.253107	0.666575
C61	C	1.090430	-0.330423	-0.000097
C62	C	1.423763	0.002910	0.333236
C63	C	1.757096	0.336243	0.666569
C64	C	1.092463	-0.226109	-0.000102
C65	C	1.425796	0.107224	0.333231
C66	C	1.759129	0.440558	0.666564
C67	C	1.258221	0.121553	-0.000114
C68	C	1.591554	0.454886	0.333219
C69	C	1.924888	0.788219	0.666552
C70	C	1.360602	0.123541	-0.000119
C71	C	1.693936	0.456874	0.333215
C72	C	2.027269	0.790207	0.666548
C73	C	1.083168	0.296606	-0.000089
C74	C	1.416501	0.629939	0.333245
C75	C	1.749835	0.963272	0.666578
C76	C	1.085156	0.398987	-0.000082
C77	C	1.418490	0.732320	0.333251
C78	C	1.751823	1.065653	0.666584
N79	N	1.089604	0.128019	-0.228274
N80	N	1.422937	0.461353	0.105060
N81	N	1.756270	0.794686	0.438393
C82	C	1.145643	0.184064	-0.453999
C83	C	1.478977	0.517397	-0.120665
C84	C	1.812310	0.850730	0.212668
C85	C	1.145653	0.184057	-0.546188
C86	C	1.478987	0.517390	-0.212855
C87	C	1.812320	0.850724	0.120478
C88	C	1.033608	0.071937	-0.546193
C89	C	1.366941	0.405271	-0.212860
C90	C	1.700274	0.738604	0.120473
C91	C	1.033603	0.071940	-0.454005
C92	C	1.366936	0.405273	-0.120672
C93	C	1.700270	0.738606	0.212661
C94	C	1.089619	0.128008	-0.407910
C95	C	1.422953	0.461341	-0.074577
C96	C	1.756286	0.794675	0.258756
C97	C	1.089634	0.127999	-0.592288
C98	C	1.422967	0.461333	-0.258955
C99	C	1.756300	0.794666	0.074379
C100	C	1.089644	0.127992	-0.692244
C101	C	1.422978	0.461325	-0.358911
C102	C	1.756311	0.794658	-0.025577
C103	C	1.089610	0.128015	-0.307948
C104	C	1.422944	0.461348	0.025385
C105	C	1.756277	0.794681	0.358719
N106	N	1.089649	0.127988	0.228075
N107	N	1.422983	0.461321	0.561409
N108	N	1.756316	0.794655	0.894742
H109	H	1.191256	0.229718	-0.416471
H110	H	1.524589	0.563051	-0.083138
H111	H	1.857922	0.896385	0.250196
Br112	Br	0.957565	-0.004142	-0.391451
Br113	Br	1.290898	0.329191	-0.058117
Br114	Br	1.624232	0.662525	0.275216
Br115	Br	0.957583	-0.004146	-0.608756
Br116	Br	1.290917	0.329187	-0.275423
Br117	Br	1.624250	0.662520	0.057911
H118	H	1.191275	0.229702	-0.583709
H119	H	1.524608	0.563035	-0.250376
H120	H	1.857942	0.896369	0.082957
