data_functionalizedCrystal
_audit_creation_method	'MofGen! by Chris Wilmer'
_symmetry_space_group_name_H-M	'P1'
_symmetry_Int_Tables_number	1
_symmetry_cell_setting	triclinic
loop_
_symmetry_equiv_pos_as_xyz
  x,y,z
_cell_length_a	10.654548
_cell_length_b	9.130313
_cell_length_c	17.038272
_cell_angle_alpha	90.004805
_cell_angle_beta	87.797847
_cell_angle_gamma	90.000212
loop_
_atom_site_label
_atom_site_type_symbol
_atom_site_fract_x
_atom_site_fract_y
_atom_site_fract_z
O1	O	1.678043	0.121689	0.109871
O2	O	1.313536	0.121716	0.120341
O3	O	1.493623	0.121691	0.001278
O4	O	1.497956	0.121714	0.228933
O5	O	1.493610	-0.121908	0.001275
O6	O	1.313523	-0.121882	0.120337
O7	O	1.678029	-0.121910	0.109867
Cu8	Cu	1.495775	-0.144139	0.115102
Cu9	Cu	1.495791	0.143945	0.115106
O10	O	1.497942	-0.121885	0.228930
C11	C	1.266660	-0.000080	0.119571
C12	C	1.127003	-0.000069	0.117271
N13	N	1.495773	-0.346761	0.115099
C14	C	1.724905	-0.000111	0.110637
C15	C	1.864562	-0.000111	0.112937
C16	C	1.489676	-0.000108	-0.027874
C17	C	1.477919	-0.000106	-0.114732
C18	C	2.061413	-0.132867	0.116187
C19	C	1.930191	-0.132888	0.114016
C20	C	1.930162	0.132696	0.114019
C21	C	2.061382	0.132717	0.116184
C22	C	1.575546	-0.423424	0.062400
C23	C	1.575558	-0.576761	0.062400
C24	C	1.416020	-0.576758	0.167804
C25	C	1.416002	-0.423424	0.167800
N26	N	1.495802	0.346568	0.115103
C27	C	1.585863	-0.000116	-0.164244
C28	C	1.574808	-0.000101	-0.245856
C29	C	1.455808	-0.000087	-0.277955
C30	C	1.347856	-0.000073	-0.228437
C31	C	1.358912	-0.000078	-0.146826
C32	C	1.416750	-0.000064	-0.523931
C33	C	1.405703	-0.000065	-0.605548
C34	C	1.632656	-0.000090	-0.622962
C35	C	1.643702	-0.000103	-0.541349
C36	C	1.535749	-0.000081	-0.491838
C37	C	1.444506	-0.000077	-0.361376
C38	C	1.547053	-0.000081	-0.408419
C39	C	1.501890	-0.000082	0.258082
C40	C	1.513647	-0.000074	0.344940
H41	H	1.876793	-0.241025	0.113133
O42	O	1.329956	-0.340712	0.224637
H43	H	1.352478	-0.370098	0.285720
H44	H	2.114838	-0.240990	0.117072
H45	H	1.682765	-0.000136	-0.138116
O46	O	1.859386	0.275913	0.112857
H47	H	1.757120	0.253592	0.111179
H48	H	2.114788	0.240863	0.117065
O49	O	1.330008	-0.659449	0.224657
H50	H	1.230983	-0.630056	0.214122
H51	H	1.640498	-0.361009	0.019487
O52	O	1.691232	-0.000136	-0.299261
H53	H	1.775837	-0.000173	-0.263230
H54	H	1.347616	-0.000069	-0.387520
H55	H	1.640515	-0.639176	0.019488
O56	O	1.772051	-0.000082	-0.506727
H57	H	1.845257	-0.000064	-0.554867
O58	O	1.749088	-0.000104	-0.676360
H59	H	1.721414	-0.000089	-0.738502
O60	O	1.277348	-0.000033	-0.640174
H61	H	1.204137	-0.000002	-0.592036
H62	H	1.328847	-0.000047	-0.483629
H63	H	1.250964	-0.000053	-0.254578
H64	H	1.271012	-0.000069	-0.106514
O65	O	1.675403	-0.000090	-0.373806
H66	H	1.685858	-0.099384	-0.337049
