data_functionalizedCrystal
_audit_creation_method	'MofGen! by Chris Wilmer'
_symmetry_space_group_name_H-M	'P1'
_symmetry_Int_Tables_number	1
_symmetry_cell_setting	triclinic
loop_
_symmetry_equiv_pos_as_xyz
  x,y,z
_cell_length_a	9.065218
_cell_length_b	11.026607
_cell_length_c	7.540329
_cell_angle_alpha	89.998876
_cell_angle_beta	89.996101
_cell_angle_gamma	96.800951
loop_
_atom_site_label
_atom_site_type_symbol
_atom_site_fract_x
_atom_site_fract_y
_atom_site_fract_z
O1	O	2.004902	0.178452	-0.147482
O2	O	2.504902	0.678452	0.352518
O3	O	1.579267	0.193090	-0.147484
O4	O	2.079267	0.693090	0.352516
O5	O	1.756808	0.008730	-0.147476
O6	O	2.256808	0.508730	0.352524
O7	O	1.827361	0.362812	-0.147489
O8	O	2.327361	0.862812	0.352511
O9	O	1.756791	0.008730	0.147489
O10	O	2.256791	0.508730	0.647489
O11	O	1.579250	0.193089	0.147481
O12	O	2.079250	0.693089	0.647481
O13	O	2.004884	0.178452	0.147483
O14	O	2.504884	0.678452	0.647483
Cu15	Cu	1.792065	0.185770	0.174415
Cu16	Cu	2.292065	0.685770	0.674415
Cu17	Cu	1.792086	0.185771	-0.174415
Cu18	Cu	2.292086	0.685771	0.325585
O19	O	1.827343	0.362811	0.147476
O20	O	2.327343	0.862811	0.647476
C21	C	1.523921	0.191683	-0.000002
C22	C	2.023921	0.691683	0.499998
C23	C	1.359029	0.187476	-0.000002
C24	C	1.859029	0.687476	0.499998
C25	C	1.743784	-0.036624	0.000004
C26	C	2.243784	0.463376	0.500004
C27	C	1.704984	-0.171765	-0.000003
C28	C	2.204984	0.328235	0.499997
C29	C	1.812117	-0.244393	-0.000005
C30	C	2.312117	0.255607	0.499995
C31	C	1.772018	-0.384068	-0.000011
C32	C	2.272018	0.115932	0.499989
C33	C	2.060230	0.179859	-0.000003
C34	C	2.560230	0.679859	0.499997
C35	C	2.225122	0.184065	-0.000014
C36	C	2.725122	0.684065	0.499986
C37	C	1.840368	0.408165	-0.000008
C38	C	2.340368	0.908165	0.499992
C39	C	1.879168	0.543306	-0.000013
C40	C	2.379168	1.043306	0.499987
N41	N	1.792061	0.185769	0.419763
N42	N	2.292061	0.685769	0.919763
N43	N	1.792088	0.185769	0.580236
N44	N	2.292088	0.685769	1.080236
H45	H	1.650603	-0.425288	-0.000024
H46	H	2.150603	0.074712	0.499976
H47	H	1.933525	-0.203167	0.000007
H48	H	2.433525	0.296833	0.500007
C49	C	2.043190	-0.401022	0.000004
C50	C	2.543190	0.098978	0.500004
H51	H	2.048628	-0.314449	0.000023
H52	H	2.548628	0.185551	0.500023
H53	H	2.091082	-0.427124	-0.102851
H54	H	2.591082	0.072876	0.397149
H55	H	2.091045	-0.427135	0.102884
H56	H	2.591045	0.072865	0.602884
H57	H	1.583576	-0.212990	-0.000015
H58	H	2.083576	0.287010	0.499985
