data_functionalizedCrystal
_audit_creation_method	'MofGen! by Chris Wilmer'
_symmetry_space_group_name_H-M	'P1'
_symmetry_Int_Tables_number	1
_symmetry_cell_setting	triclinic
loop_
_symmetry_equiv_pos_as_xyz
  x,y,z
_cell_length_a	10.489746
_cell_length_b	10.489741
_cell_length_c	9.565339
_cell_angle_alpha	89.999484
_cell_angle_beta	90.000667
_cell_angle_gamma	84.540238
loop_
_atom_site_label
_atom_site_type_symbol
_atom_site_fract_x
_atom_site_fract_y
_atom_site_fract_z
O1	O	1.694049	0.179990	0.116165
O2	O	1.322854	0.196876	0.116188
O3	O	1.516898	0.002836	0.116168
O4	O	1.500005	0.374031	0.116186
O5	O	1.516883	0.002848	-0.116352
O6	O	1.322839	0.196888	-0.116332
O7	O	1.694034	0.180002	-0.116355
Zn8	Zn	1.508434	0.188447	-0.153261
Zn9	Zn	1.508454	0.188431	0.153094
O10	O	1.499990	0.374043	-0.116334
C11	C	1.275315	0.195606	-0.000069
C12	C	1.133686	0.191786	-0.000060
C13	C	1.515614	-0.044690	-0.000091
C14	C	1.511797	-0.186320	-0.000088
C15	C	0.980828	0.066062	-0.000086
C16	C	1.058214	0.128925	-0.114723
C17	C	1.058185	0.128942	0.114523
C18	C	0.958723	0.247906	-0.114827
C19	C	0.958688	0.247906	0.114523
C20	C	1.036025	0.310856	-0.000143
C21	C	1.388333	-0.254462	-0.000070
C22	C	1.446649	-0.346577	-0.114719
C23	C	1.446693	-0.346564	0.114528
C24	C	1.570164	-0.276570	-0.114831
C25	C	1.570191	-0.276547	0.114518
C26	C	1.628597	-0.368635	-0.000158
C27	C	1.741573	0.181273	-0.000095
C28	C	1.883202	0.185093	-0.000094
C29	C	1.501273	0.421569	-0.000072
C30	C	1.505091	0.563198	-0.000066
N31	N	1.508429	0.188457	-0.362340
C32	C	1.418663	0.278165	-0.453534
C33	C	1.534160	0.303977	-0.546719
C34	C	1.392983	0.162655	-0.546711
C35	C	1.623985	0.214328	-0.453473
C36	C	1.482731	0.072955	-0.453457
C37	C	1.598311	0.098719	-0.546600
N38	N	1.508469	0.188411	0.362174
H39	H	0.956107	-0.037439	-0.000206
H40	H	1.622353	-0.245731	-0.211866
C41	C	1.261077	0.133185	-0.602039
H42	H	1.270519	0.057238	-0.656672
H43	H	1.205631	0.121650	-0.525496
H44	H	1.225712	0.202494	-0.658109
H45	H	0.915437	0.298126	-0.211856
C46	C	1.069106	0.450775	-0.000218
H47	H	1.034727	0.492862	-0.081731
H48	H	1.033518	0.493339	0.080448
H49	H	1.159494	0.452439	0.000549
H50	H	1.101684	0.078681	-0.211649
C51	C	1.700990	-0.003790	-0.601473
H52	H	1.782928	0.014736	-0.569374
H53	H	1.683419	-0.085607	-0.568128
H54	H	1.699985	-0.003718	-0.700784
H55	H	1.730200	-0.418057	-0.000228
C56	C	0.899918	0.315716	0.245461
H57	H	0.934128	0.273275	0.326844
H58	H	0.919756	0.402204	0.246291
H59	H	0.809603	0.313474	0.244045
H60	H	1.460933	-0.024672	-0.412460
H61	H	1.101634	0.078666	0.211443
C62	C	1.640665	-0.234519	0.245446
H63	H	1.713627	-0.193538	0.217907
H64	H	1.584753	-0.176585	0.298431
H65	H	1.667094	-0.307495	0.300771
C66	C	1.251208	-0.187380	-0.000214
H67	H	1.207544	-0.211194	-0.081772
H68	H	1.206908	-0.212346	0.080405
H69	H	1.254583	-0.097201	0.000606
C70	C	1.376073	-0.388475	-0.245645
H71	H	1.290713	-0.349014	-0.245503
H72	H	1.419110	-0.363351	-0.327059
H73	H	1.374832	-0.478912	-0.245124
H74	H	1.394443	-0.377534	0.211463
C75	C	1.563552	0.435895	-0.602080
H76	H	1.499679	0.499557	-0.570227
H77	H	1.644961	0.454833	-0.568791
H78	H	1.564118	0.434684	-0.701387
H79	H	1.342820	0.354098	-0.412671
C80	C	1.755924	0.243955	-0.398391
H81	H	1.755090	0.243838	-0.299074
H82	H	1.819737	0.180600	-0.430997
H83	H	1.774328	0.325731	-0.431100
