data_functionalizedCrystal
_audit_creation_method	'MofGen! by Chris Wilmer'
_symmetry_space_group_name_H-M	'P1'
_symmetry_Int_Tables_number	1
_symmetry_cell_setting	triclinic
loop_
_symmetry_equiv_pos_as_xyz
  x,y,z
_cell_length_a	16.109302
_cell_length_b	15.944493
_cell_length_c	14.586319
_cell_angle_alpha	90.002083
_cell_angle_beta	89.994552
_cell_angle_gamma	83.468412
loop_
_atom_site_label
_atom_site_type_symbol
_atom_site_fract_x
_atom_site_fract_y
_atom_site_fract_z
O1	O	1.103143	0.107972	-0.076269
O2	O	0.861083	0.121408	-0.076261
O3	O	0.988748	-0.007590	-0.076273
O4	O	0.975478	0.236970	-0.076257
O5	O	0.988739	-0.007592	0.076208
O6	O	0.861074	0.121406	0.076220
O7	O	1.103134	0.107970	0.076211
Cu8	Cu	0.982103	0.114688	0.090138
Cu9	Cu	0.982114	0.114690	-0.090188
O10	O	0.975469	0.236969	0.076224
C11	C	0.830103	0.120863	-0.000019
C12	C	0.737808	0.119231	-0.000017
C13	C	0.525462	0.115456	0.083091
C14	C	0.438742	0.113914	0.083088
C15	C	0.438762	0.113920	-0.083155
C16	C	0.525481	0.115456	-0.083151
C17	C	0.568828	0.116229	-0.000025
C18	C	0.395389	0.113150	-0.000032
C19	C	0.301363	0.111477	-0.000037
C20	C	0.662861	0.117900	-0.000020
C21	C	0.988201	-0.038886	-0.000036
C22	C	0.986575	-0.132134	-0.000048
C23	C	1.061722	-0.367918	-0.000033
C24	C	1.021203	-0.418472	-0.075212
C25	C	0.983562	-0.302854	-0.000037
C26	C	1.021176	-0.418450	0.075122
C27	C	0.980658	-0.467763	-0.000022
C28	C	0.943064	-0.352179	-0.075278
C29	C	0.943048	-0.352154	0.075124
C30	C	0.902472	-0.402675	-0.000074
C31	C	0.985238	-0.207855	-0.000046
C32	C	0.978976	-0.562759	-0.000019
C33	C	1.134114	0.108516	-0.000032
C34	C	1.226409	0.110148	-0.000041
C35	C	0.976016	0.268264	-0.000015
C36	C	0.977642	0.361512	-0.000009
N37	N	0.982102	0.114686	0.216970
N38	N	0.982122	0.114686	-0.217019
C39	C	1.038651	0.057585	0.451971
C40	C	1.038653	0.057583	0.547952
C41	C	0.925567	0.171790	0.547973
C42	C	0.925561	0.171787	0.451993
C43	C	0.982108	0.114686	0.403995
C44	C	0.982116	0.114686	0.595956
C45	C	0.982118	0.114684	0.700023
C46	C	0.982105	0.114686	0.299921
H47	H	1.129047	-0.352312	-0.000111
C48	C	1.088803	0.006812	0.304832
C49	C	1.100760	-0.005225	0.399209
H50	H	1.127139	-0.031976	0.272263
H51	H	1.033308	-0.002286	0.289142
H52	H	1.097866	0.062861	0.289086
H53	H	1.091691	-0.061272	0.414957
H54	H	1.156268	0.003866	0.414906
C55	C	0.781636	0.221067	0.577560
C56	C	0.863416	0.234554	0.600740
H57	H	0.743269	0.259814	0.610141
H58	H	0.773544	0.229243	0.513541
H59	H	0.772632	0.165000	0.593295
H60	H	0.872422	0.290620	0.584999
H61	H	0.871512	0.226386	0.664774
C62	C	1.151802	0.039390	0.655874
C63	C	1.100808	-0.005182	0.600691
H64	H	1.190170	0.000637	0.688436
H65	H	1.181697	0.074356	0.618428
H66	H	1.118119	0.073393	0.698194
H67	H	1.134490	-0.039181	0.558366
H68	H	1.070911	-0.040164	0.638140
C69	C	0.876716	0.317196	0.422441
C70	C	0.863407	0.234560	0.399250
H71	H	0.838347	0.355944	0.389875
H72	H	0.868623	0.325366	0.486464
H73	H	0.932201	0.326322	0.406697
H74	H	0.807923	0.225432	0.415000
H75	H	0.871492	0.226386	0.335213
C76	C	0.900544	-0.225703	-0.160438
C77	C	0.898555	-0.313269	-0.161186
H78	H	0.873075	-0.201684	-0.213479
H79	H	0.872967	-0.202426	-0.107128
H80	H	0.956941	-0.213616	-0.160215
H81	H	0.842157	-0.325356	-0.161403
H82	H	0.926129	-0.336554	-0.214510
H83	H	0.560753	0.116085	0.150778
C84	C	0.350583	0.040006	0.179524
C85	C	0.391077	0.113061	0.174454
H86	H	0.321163	0.039477	0.235936
H87	H	0.312354	0.039336	0.130030
H88	H	0.390774	-0.008339	0.176060
H89	H	0.350885	0.161407	0.177912
H90	H	0.429310	0.113739	0.223962
H91	H	1.054214	-0.447428	-0.138774
H92	H	0.403458	0.113292	-0.150833
H93	H	0.560791	0.116083	-0.150838
C94	C	1.025630	-0.422739	0.239611
C95	C	1.065742	-0.457517	0.160924
H96	H	1.053146	-0.446861	0.292577
H97	H	1.027448	-0.363406	0.239926
H98	H	0.969092	-0.434377	0.239700
H99	H	1.122278	-0.445873	0.160832
H100	H	1.063933	-0.516863	0.160610
C101	C	0.815594	-0.331482	0.161716
C102	C	0.898523	-0.313040	0.160933
H103	H	0.788114	-0.307338	0.214700
H104	H	0.787752	-0.308675	0.108356
H105	H	0.814677	-0.390941	0.162638
H106	H	0.899440	-0.253580	0.160004
H107	H	0.926372	-0.335843	0.214306
C108	C	0.770799	-0.389754	-0.078903
C109	C	0.811519	-0.423534	-0.000122
H110	H	0.714651	-0.402638	-0.078936
H111	H	0.771363	-0.330253	-0.079403
H112	H	0.798761	-0.413475	-0.131798
H113	H	0.783560	-0.399808	0.052773
H114	H	0.810950	-0.483047	0.000386
