data_functionalizedCrystal
_audit_creation_method	'MofGen! by Chris Wilmer'
_symmetry_space_group_name_H-M	'P1'
_symmetry_Int_Tables_number	1
_symmetry_cell_setting	triclinic
loop_
_symmetry_equiv_pos_as_xyz
  x,y,z
_cell_length_a	10.967926
_cell_length_b	14.044220
_cell_length_c	10.065875
_cell_angle_alpha	99.592716
_cell_angle_beta	93.120479
_cell_angle_gamma	88.855190
loop_
_atom_site_label
_atom_site_type_symbol
_atom_site_fract_x
_atom_site_fract_y
_atom_site_fract_z
O1	O	1.630686	0.165922	0.270028
O2	O	2.130686	0.665922	0.770028
O3	O	1.280933	0.168639	0.187766
O4	O	1.780933	0.668639	0.687766
O5	O	1.450558	0.029112	0.227675
O6	O	1.950558	0.529112	0.727675
O7	O	1.461061	0.305449	0.230119
O8	O	1.961061	0.805449	0.730119
O9	O	1.418224	0.055829	0.447057
O10	O	1.918224	0.555829	0.947057
O11	O	1.248600	0.195356	0.407147
O12	O	1.748600	0.695356	0.907147
O13	O	1.598353	0.192639	0.489410
O14	O	2.098353	0.692639	0.989410
Zn15	Zn	1.418343	0.198240	0.483110
Zn16	Zn	1.918343	0.698240	0.983110
Zn17	Zn	1.460943	0.163038	0.194066
Zn18	Zn	1.960943	0.663038	0.694066
O19	O	1.428728	0.332167	0.449500
O20	O	1.928728	0.832167	0.949500
C21	C	1.219735	0.179781	0.286865
C22	C	1.719735	0.679781	0.786865
C23	C	1.085555	0.173165	0.255306
C24	C	1.585555	0.673165	0.755306
C25	C	1.008984	0.184056	0.354882
C26	C	1.508984	0.684056	0.854882
C27	C	0.870302	0.177219	0.322267
C28	C	1.370302	0.677219	0.822267
C29	C	1.429795	0.006993	0.336286
C30	C	1.929795	0.506993	0.836286
C31	C	1.416086	-0.098717	0.333063
C32	C	1.916086	0.401283	0.833063
C33	C	1.391025	-0.292267	0.327149
C34	C	1.891025	0.207733	0.827149
C35	C	1.488257	-0.346462	0.350014
C36	C	1.988257	0.153538	0.850014
C37	C	1.474313	-0.454160	0.346723
C38	C	1.974313	0.045840	0.846723
C39	C	1.404967	-0.184559	0.330439
C40	C	1.904967	0.315441	0.830439
C41	C	1.659551	0.181497	0.390307
C42	C	2.159551	0.681497	0.890307
C43	C	1.793732	0.188112	0.421858
C44	C	2.293732	0.688112	0.921858
C45	C	1.449491	0.354284	0.340887
C46	C	1.949491	0.854284	0.840887
C47	C	1.463202	0.459994	0.344101
C48	C	1.963202	0.959994	0.844101
N49	N	1.389278	0.222264	0.680377
N50	N	1.889278	0.722264	1.180377
N51	N	1.490017	0.139007	-0.003199
N52	N	1.990017	0.639007	0.496801
C53	C	1.450822	0.171391	0.762636
C54	C	1.950822	0.671391	1.262636
C55	C	1.428463	0.189888	0.914543
C56	C	1.928463	0.689888	1.414543
H57	H	0.833193	0.162829	0.212864
H58	H	1.333193	0.662829	0.712864
H59	H	1.320030	0.279509	0.722410
H60	H	1.820030	0.779509	1.222410
H61	H	1.559260	0.081751	0.954771
H62	H	2.059260	0.581751	1.454771
Br63	Br	1.234836	-0.349744	0.290401
Br64	Br	1.734836	0.150256	0.790401
Br65	Br	1.070831	0.208029	0.537225
Br66	Br	1.570831	0.708029	1.037225
Br67	Br	1.313034	0.285305	0.984581
Br68	Br	1.813034	0.785305	1.484581
Br69	Br	1.644456	-0.288987	0.386764
Br70	Br	2.144456	0.211013	0.886764
H71	H	1.520061	0.114138	0.720603
H72	H	2.020061	0.614138	1.220603
Br73	Br	0.855569	0.212074	0.604209
Br74	Br	1.355569	0.712074	1.104209
H75	H	1.048441	0.158777	0.145910
H76	H	1.548441	0.658777	0.645910
