data_functionalizedCrystal
_audit_creation_method	'MofGen! by Chris Wilmer'
_symmetry_space_group_name_H-M	'P1'
_symmetry_Int_Tables_number	1
_symmetry_cell_setting	triclinic
loop_
_symmetry_equiv_pos_as_xyz
  x,y,z
_cell_length_a	6.817900
_cell_length_b	10.943624
_cell_length_c	13.167930
_cell_angle_alpha	97.842061
_cell_angle_beta	105.754568
_cell_angle_gamma	108.838799
loop_
_atom_site_label
_atom_site_type_symbol
_atom_site_fract_x
_atom_site_fract_y
_atom_site_fract_z
V1	V	-4.110252	-0.420386	-0.148865
O2	O	-4.073457	-0.394028	0.007183
O3	O	-4.083047	-0.435164	-0.295202
O4	O	-4.088295	-0.595676	-0.146562
O5	O	-4.068173	-0.232404	-0.142486
V6	V	-4.587707	-0.395757	-0.130201
O7	O	-4.384821	-0.474410	-0.189805
O8	O	-4.763335	-0.341732	-0.089261
O9	O	-4.391704	-0.380979	0.016136
O10	O	-4.741898	-0.422115	-0.286248
O11	O	-4.747182	-0.583738	-0.136580
O12	O	-4.386456	-0.220466	-0.132504
C13	C	-3.932349	-0.433087	-0.330876
C14	C	-3.991569	-0.446339	-0.450508
C15	C	-3.981751	-0.231066	-0.644591
C16	C	-4.037391	-0.243510	-0.756995
C17	C	-4.158504	-0.483672	-0.787723
C18	C	-4.102864	-0.471228	-0.675319
C19	C	-4.014484	-0.344920	-0.603756
C20	C	-3.958829	-0.332476	-0.491349
C21	C	-4.079957	-0.572637	-0.522080
C22	C	-4.135597	-0.585082	-0.634484
C23	C	-3.939042	-0.637835	-0.141270
C24	C	-4.002514	-0.781252	-0.140356
C25	C	-3.847561	-0.857662	-0.134199
C26	C	-4.033700	-0.974601	-0.225590
C27	C	-3.929497	-0.919860	-0.047346
C28	C	-4.187861	-0.896324	-0.231833
C29	C	-4.083580	-0.841550	-0.053508
C30	C	-4.269855	-0.958463	-0.144925
C31	C	-4.205745	-0.383052	0.051804
C32	C	-4.125764	-0.369809	0.171435
C33	C	-4.199051	-0.178301	-0.137799
C34	C	-4.114817	-0.034882	-0.138708
H35	H	-4.106601	-0.665346	-0.488821
H36	H	-3.886855	-0.229629	-0.433083
Br37	Br	-4.255554	-0.756491	-0.731614
H38	H	-4.013275	-1.032265	-0.298340
Br39	Br	-3.861767	-0.059653	-0.547464
Br40	Br	-3.992978	-0.088988	-0.812411
Br41	Br	-4.117482	-0.745373	0.067754
Br42	Br	-4.278488	-0.655077	-0.884862
H43	H	-3.668515	-0.813684	-0.129786
Br44	Br	-4.368937	-0.877679	-0.361930
H45	H	-4.449009	-1.002253	-0.149482
H46	H	-3.820894	-0.931283	0.030605
