data_functionalizedCrystal
_audit_creation_method	'MofGen! by Chris Wilmer'
_symmetry_space_group_name_H-M	'P1'
_symmetry_Int_Tables_number	1
_symmetry_cell_setting	triclinic
loop_
_symmetry_equiv_pos_as_xyz
  x,y,z
_cell_length_a	10.654548
_cell_length_b	10.654550
_cell_length_c	9.130313
_cell_angle_alpha	90.003780
_cell_angle_beta	89.999434
_cell_angle_gamma	84.484601
loop_
_atom_site_label
_atom_site_type_symbol
_atom_site_fract_x
_atom_site_fract_y
_atom_site_fract_z
O1	O	-0.176393	-1.667833	-0.121913
O2	O	-0.193199	-1.302355	-0.121889
O3	O	-0.002057	-1.493498	-0.121899
O4	O	-0.367536	-1.476690	-0.121904
O5	O	-0.002062	-1.493496	0.121700
O6	O	-0.193204	-1.302352	0.121710
O7	O	-0.176398	-1.667831	0.121685
Cu8	Cu	-0.184802	-1.485091	0.143940
Cu9	Cu	-0.184796	-1.485094	-0.144144
O10	O	-0.367541	-1.476687	0.121695
C11	C	0.044739	-1.492263	-0.000102
C12	C	0.184182	-1.488572	-0.000109
C13	C	-0.191968	-1.255555	-0.000087
C14	C	-0.188276	-1.116112	-0.000078
C15	C	-0.177630	-1.714630	-0.000120
C16	C	-0.181322	-1.854073	-0.000139
C17	C	-0.414336	-1.477922	-0.000105
C18	C	-0.553779	-1.481613	-0.000108
C19	C	0.380716	-1.483350	-0.132895
C20	C	0.249696	-1.486834	-0.132896
C21	C	0.249696	-1.486838	0.132689
C22	C	0.380714	-1.483364	0.132688
C23	C	0.446222	-1.481600	-0.265691
C24	C	0.380718	-1.483336	-0.398489
C25	C	0.249698	-1.486819	-0.398490
C26	C	0.184182	-1.488568	-0.265694
N27	N	-0.184805	-1.485098	0.346563
C28	C	-0.300818	-1.036626	-0.000101
C29	C	-0.297341	-0.905605	-0.000126
C30	C	-0.068771	-0.933570	-0.000112
C31	C	-0.072249	-1.064588	-0.000076
C32	C	-0.416844	-1.088150	-0.000103
C33	C	-0.529395	-1.008662	-0.000127
C34	C	-0.525919	-0.877642	-0.000152
C35	C	-0.409891	-0.826108	-0.000153
N36	N	-0.184782	-1.485097	-0.346767
C37	C	-0.100197	-1.569759	0.423210
C38	C	-0.100181	-1.569755	0.576547
C39	C	-0.269395	-1.400427	0.576575
C40	C	-0.269403	-1.400426	0.423241
C41	C	-0.015599	-1.654431	0.346532
C42	C	0.069016	-1.739099	0.423180
C43	C	0.069031	-1.739096	0.576517
C44	C	-0.015569	-1.654424	0.653206
H45	H	0.552905	-1.478759	-0.265705
H46	H	-0.419688	-1.194832	-0.000089
C47	C	0.162086	-1.832216	0.338819
N48	N	0.232193	-1.902350	0.275280
C49	C	-0.362450	-1.307297	0.660939
N50	N	-0.432542	-1.237151	0.724482
C51	C	0.452788	-1.481418	-0.544557
N52	N	0.507069	-1.479973	-0.654579
C53	C	-0.657018	-1.065352	-0.000117
N54	N	-0.753147	-1.108049	-0.000109
H55	H	-0.015541	-1.654420	0.778063
C56	C	0.162125	-1.832214	0.660825
N57	N	0.232247	-1.902354	0.724323
H58	H	-0.338298	-1.331487	0.360834
H59	H	-0.617563	-0.812926	-0.000157
C60	C	-0.015605	-1.654440	0.177859
N61	N	-0.015611	-1.654446	0.050814
H62	H	0.196369	-1.488245	-0.506620
H63	H	-0.407070	-0.719421	-0.000151
H64	H	0.077498	-1.491416	-0.265705
H65	H	0.196343	-1.488260	0.240805
C66	C	0.051553	-1.152028	-0.000058
N67	N	0.144803	-1.217888	-0.000043
C68	C	0.058850	-0.876877	-0.000127
N69	N	0.154976	-0.834176	-0.000145
H70	H	0.434049	-1.481946	0.240815
