data_functionalizedCrystal
_audit_creation_method	'MofGen! by Chris Wilmer'
_symmetry_space_group_name_H-M	'P1'
_symmetry_Int_Tables_number	1
_symmetry_cell_setting	triclinic
loop_
_symmetry_equiv_pos_as_xyz
  x,y,z
_cell_length_a	19.077105
_cell_length_b	16.959454
_cell_length_c	19.076919
_cell_angle_alpha	87.724511
_cell_angle_beta	89.923776
_cell_angle_gamma	87.716588
loop_
_atom_site_label
_atom_site_type_symbol
_atom_site_fract_x
_atom_site_fract_y
_atom_site_fract_z
Zn1	Zn	1.058295	-0.382399	0.440440
Zn2	Zn	1.558295	0.117601	0.940440
Zn3	Zn	1.062944	-0.509490	0.322940
Zn4	Zn	1.562944	-0.009490	0.822940
Zn5	Zn	0.945513	-0.371810	0.318233
Zn6	Zn	1.445513	0.128190	0.818233
Zn7	Zn	0.940765	-0.509013	0.435693
Zn8	Zn	1.440765	-0.009013	0.935693
O9	O	1.001879	-0.443178	0.379326
O10	O	1.501879	0.056822	0.879326
O11	O	1.157244	-0.403889	0.428810
O12	O	1.657244	0.096111	0.928810
O13	O	1.051298	-0.486995	0.223984
O14	O	1.551298	0.013005	0.723984
O15	O	0.960515	-0.262606	0.334460
O16	O	1.460515	0.237394	0.834460
O17	O	1.160659	-0.497262	0.342484
O18	O	1.660659	0.002738	0.842484
O19	O	1.043376	-0.270386	0.424245
O20	O	1.543376	0.229614	0.924245
O21	O	0.965022	-0.385842	0.220526
O22	O	1.465022	0.114158	0.720526
O23	O	0.846551	-0.385379	0.329857
O24	O	1.346551	0.114621	0.829857
O25	O	0.952424	-0.496450	0.534654
O26	O	1.452424	0.003550	1.034654
O27	O	0.843063	-0.486182	0.416155
O28	O	1.343063	0.013818	0.916155
O29	O	1.038773	-0.403426	0.538142
O30	O	1.538773	0.096574	1.038142
O31	O	1.046695	-0.620035	0.337881
O32	O	1.546695	-0.120035	0.837881
O33	O	0.956931	-0.619685	0.420720
O34	O	1.456931	-0.119685	0.920720
C35	C	0.819311	-0.434581	0.371980
C36	C	1.319311	0.065419	0.871980
C37	C	0.741206	-0.430922	0.368854
C38	C	1.241206	0.069078	0.868854
C39	C	0.702718	-0.481759	0.412246
C40	C	1.202718	0.018241	0.912246
C41	C	0.629330	-0.478312	0.409312
C42	C	1.129330	0.021688	0.909312
C43	C	0.594433	-0.424030	0.362983
C44	C	1.094433	0.075970	0.862983
C45	C	0.632926	-0.373188	0.319590
C46	C	1.132926	0.126812	0.819590
C47	C	0.706312	-0.376632	0.322528
C48	C	1.206312	0.123368	0.822528
C49	C	0.375144	-0.408090	0.349389
C50	C	0.875144	0.091910	0.849389
C51	C	0.301753	-0.404651	0.346453
C52	C	0.801753	0.095349	0.846453
C53	C	0.298162	-0.509774	0.436177
C54	C	0.798162	-0.009774	0.936177
C55	C	0.371550	-0.513217	0.439107
C56	C	0.871550	-0.013217	0.939107
C57	C	0.410037	-0.462372	0.395717
C58	C	0.910037	0.037628	0.895717
N59	N	0.519419	-0.420507	0.359981
N60	N	1.019419	0.079493	0.859981
N61	N	0.485049	-0.465892	0.398723
N62	N	0.985049	0.034108	0.898723
C63	C	1.001821	-0.648541	0.379312
C64	C	1.501821	-0.148541	0.879312
C65	C	1.001859	-0.736400	0.379332
C66	C	1.501859	-0.236400	0.879332
C67	C	0.955205	-1.107727	0.422458
C68	C	1.455205	-0.607727	0.922458
C69	C	1.048747	-1.108038	0.336274
C70	C	1.548747	-0.608038	0.836274
C71	C	1.048723	-1.025491	0.336266
C72	C	1.548723	-0.525491	0.836266
C73	C	1.001938	-0.984058	0.379355
C74	C	1.501938	-0.484058	0.879355
C75	C	0.955178	-1.025172	0.422451
C76	C	1.455178	-0.525172	0.922451
C77	C	1.095477	-0.984370	0.293166
C78	C	1.595477	-0.484370	0.793166
C79	C	1.095454	-0.901818	0.293156
C80	C	1.595454	-0.401818	0.793156
C81	C	1.048672	-0.860383	0.336249
C82	C	1.548672	-0.360383	0.836249
C83	C	1.001911	-0.901503	0.379347
C84	C	1.501911	-0.401503	0.879347
C85	C	0.955126	-0.860069	0.422436
C86	C	1.455126	-0.360069	0.922436
C87	C	0.908367	-0.901187	0.465538
C88	C	1.408367	-0.401187	0.965538
C89	C	0.908396	-0.983737	0.465543
C90	C	1.408396	-0.483737	0.965543
C91	C	1.048644	-0.777834	0.336244
C92	C	1.548644	-0.277834	0.836244
C93	C	0.955099	-0.777514	0.422428
C94	C	1.455099	-0.277514	0.922428
C95	C	1.185161	-0.451810	0.386702
C96	C	1.685161	0.048190	0.886702
C97	C	1.263265	-0.455488	0.389844
C98	C	1.763265	0.044512	0.889844
C99	C	0.994550	-0.451066	0.562607
C100	C	1.494550	0.048934	1.062607
C101	C	0.991427	-0.454427	0.640710
C102	C	1.491427	0.045573	1.140710
C103	C	1.001956	-0.237015	0.379357
C104	C	1.501956	0.262985	0.879357
C105	C	1.001989	-0.149160	0.379370
C106	C	1.501989	0.350840	0.879370
C107	C	1.009220	-0.435266	0.196760
C108	C	1.509220	0.064734	0.696760
C109	C	1.012479	-0.431688	0.118663
C110	C	1.512479	0.068312	0.618663
C111	C	1.034915	-0.407577	0.679220
C112	C	1.534915	0.092423	1.179220
C113	C	1.031972	-0.410731	0.752606
C114	C	1.531972	0.089269	1.252606
C115	C	0.985544	-0.460742	0.787481
C116	C	1.485544	0.039258	1.287481
C117	C	0.942052	-0.507595	0.748966
C118	C	1.442052	-0.007595	1.248966
C119	C	0.944992	-0.504435	0.675581
C120	C	1.444992	-0.004435	1.175581
C121	C	0.971927	-0.475381	1.006763
C122	C	1.471927	0.024619	1.506763
C123	C	0.968992	-0.478539	1.080153
C124	C	1.468992	0.021461	1.580153
C125	C	1.058911	-0.381674	1.083788
C126	C	1.558911	0.118326	1.583788
C127	C	1.061850	-0.378523	1.010402
C128	C	1.561850	0.121477	1.510402
C129	C	1.018355	-0.425372	0.971893
C130	C	1.518355	0.074628	1.471893
N131	N	0.982536	-0.463970	0.862493
N132	N	1.482536	0.036030	1.362493
N133	N	1.021360	-0.422140	0.896882
N134	N	1.521360	0.077860	1.396882
H135	H	0.597996	-0.519710	0.444645
H136	H	1.097996	-0.019710	0.944645
H137	H	0.904247	-0.548311	0.777367
H138	H	1.404247	-0.048311	1.277367
H139	H	1.067386	-0.372582	0.783958
H140	H	1.567386	0.127418	1.283958
H141	H	0.870272	-0.867443	0.500618
H142	H	1.370272	-0.367443	1.000618
H143	H	0.931183	-0.519265	1.108546
H144	H	1.431183	-0.019265	1.608546
O145	O	0.743728	-0.327173	0.280476
O146	O	1.243728	0.172827	0.780476
C147	C	0.827009	-0.223959	0.274500
C148	C	1.327009	0.276041	0.774500
C149	C	0.784666	-0.279919	0.322204
C150	C	1.284666	0.220081	0.822204
H151	H	0.860129	-0.185752	0.308218
H152	H	1.360129	0.314248	0.808218
H153	H	0.789492	-0.184517	0.240896
H154	H	1.289492	0.315483	0.740896
H155	H	0.862791	-0.260226	0.239062
H156	H	1.362791	0.239774	0.739062
H157	H	0.748882	-0.243715	0.357685
H158	H	1.248882	0.256285	0.857685
H159	H	0.822223	-0.319364	0.355761
H160	H	1.322223	0.180636	0.855761
H161	H	0.917003	-0.743785	0.457519
H162	H	1.417003	-0.243785	0.957519
O163	O	0.909810	-1.147784	0.464260
O164	O	1.409810	-0.647784	0.964260
C165	C	0.868422	-1.274817	0.502509
C166	C	1.368422	-0.774817	1.002509
C167	C	0.919858	-1.229551	0.455123
C168	C	1.419858	-0.729551	0.955123
H169	H	0.876539	-1.340935	0.495150
H170	H	1.376539	-0.840935	0.995150
H171	H	0.812246	-1.255499	0.487840
H172	H	1.312246	-0.755499	0.987840
H173	H	0.878437	-1.261525	0.559664
H174	H	1.378437	-0.761525	1.059664
H175	H	0.909907	-1.242821	0.397955
H176	H	1.409907	-0.742821	0.897955
H177	H	0.976017	-1.248875	0.469852
H178	H	1.476017	-0.748875	0.969852
O179	O	0.902676	-0.549834	0.638140
O180	O	1.402676	-0.049834	1.138140
C181	C	0.811145	-0.552444	0.551436
C182	C	1.311145	-0.052444	1.051436
C183	C	0.859018	-0.500935	0.593800
C184	C	1.359018	-0.000935	1.093800
H185	H	0.775845	-0.512931	0.515566
H186	H	1.275845	-0.012931	1.015566
H187	H	0.777410	-0.588713	0.588937
H188	H	1.277410	-0.088713	1.088937
H189	H	0.844779	-0.593833	0.518405
H190	H	1.344779	-0.093833	1.018405
H191	H	0.825437	-0.459500	0.626834
H192	H	1.325437	0.040500	1.126834
H193	H	0.892756	-0.464720	0.556261
H194	H	1.392756	0.035280	1.056261
H195	H	0.870326	-1.017223	0.500634
H196	H	1.370326	-0.517223	1.000634
O197	O	0.405336	-0.565969	0.484174
O198	O	0.905336	-0.065969	0.984174
C199	C	0.394029	-0.669908	0.572825
C200	C	0.894029	-0.169908	1.072825
C201	C	0.355677	-0.610188	0.521834
C202	C	0.855677	-0.110188	1.021834
H203	H	0.353897	-0.705687	0.603276
H204	H	0.853897	-0.205687	1.103276
H205	H	0.426913	-0.636922	0.611045
H206	H	0.926913	-0.136922	1.111045
H207	H	0.429680	-0.711367	0.541862
H208	H	0.929680	-0.211367	1.041862
H209	H	0.319990	-0.568714	0.552739
H210	H	0.819990	-0.068714	1.052739
H211	H	0.322838	-0.643226	0.483614
H212	H	0.822838	-0.143226	0.983614
O213	O	0.260668	-0.559077	0.478301
O214	O	0.760668	-0.059077	0.978301
C215	C	0.146023	-0.600393	0.513516
C216	C	0.646023	-0.100393	1.013516
C217	C	0.188397	-0.544500	0.465778
C218	C	0.688397	-0.044500	0.965778
H219	H	0.087585	-0.588639	0.503398
H220	H	0.587585	-0.088639	1.003398
H221	H	0.158149	-0.589723	0.570788
H222	H	0.658149	-0.089723	1.070788
H223	H	0.160972	-0.664243	0.501668
H224	H	0.660972	-0.164243	1.001668
H225	H	0.173472	-0.480630	0.477564
H226	H	0.673472	0.019370	0.977564
H227	H	0.176267	-0.555238	0.408521
H228	H	0.676267	-0.055238	0.908521
O229	O	1.094140	-1.148405	0.294458
O230	O	1.594140	-0.648405	0.794458
C231	C	1.135547	-1.275711	0.256177
C232	C	1.635547	-0.775711	0.756177
C233	C	1.084127	-1.230094	0.303599
C234	C	1.584127	-0.730094	0.803599
H235	H	1.127459	-1.341764	0.263541
H236	H	1.627459	-0.841764	0.763541
H237	H	1.191727	-1.262712	0.270810
H238	H	1.691727	-0.762712	0.770810
H239	H	1.125488	-1.256417	0.199030
H240	H	1.625488	-0.756417	0.699030
H241	H	1.094122	-1.249361	0.360761
H242	H	1.594122	-0.749361	0.860761
H243	H	1.027963	-1.243095	0.288907
H244	H	1.527963	-0.743095	0.788907
H245	H	0.731126	-0.525964	0.449970
H246	H	1.231126	-0.025964	0.949970
O247	O	1.140907	-0.861798	0.251392
O248	O	1.640907	-0.361798	0.751392
C249	C	1.236162	-0.772621	0.245835
C250	C	1.736162	-0.272621	0.745835
C251	C	1.184716	-0.817887	0.293210
C252	C	1.684716	-0.317887	0.793210
H253	H	1.271605	-0.737120	0.279627
H254	H	1.771605	-0.237120	0.779627
H255	H	1.205429	-0.730857	0.207780
H256	H	1.705429	-0.230857	0.707780
H257	H	1.269572	-0.816427	0.215023
H258	H	1.769572	-0.316427	0.715023
H259	H	1.151294	-0.774139	0.324068
H260	H	1.651294	-0.274139	0.824068
H261	H	1.215491	-0.859663	0.331221
H262	H	1.715491	-0.359663	0.831221
H263	H	1.133562	-1.018111	0.258080
H264	H	1.633562	-0.518111	0.758080
O265	O	0.267962	-0.351846	0.301430
O266	O	0.767962	0.148154	0.801430
C267	C	0.279264	-0.247970	0.212720
C268	C	0.779264	0.252030	0.712720
C269	C	0.317621	-0.307714	0.263685
C270	C	0.817621	0.192286	0.763685
H271	H	0.319397	-0.212284	0.182179
H272	H	0.819397	0.287716	0.682179
H273	H	0.243648	-0.206428	0.243638
H274	H	0.743648	0.293572	0.743638
H275	H	0.246343	-0.281014	0.174575
H276	H	0.746343	0.218986	0.674575
H277	H	0.350579	-0.274736	0.301842
H278	H	0.850579	0.225264	0.801842
H279	H	0.353194	-0.349254	0.232721
H280	H	0.853194	0.150746	0.732721
O281	O	0.929610	-0.520770	0.969320
O282	O	1.429610	-0.020770	1.469320
C283	C	0.838086	-0.523355	0.882606
C284	C	1.338086	-0.023355	1.382606
C285	C	0.885958	-0.471859	0.924984
C286	C	1.385958	0.028141	1.424984
H287	H	0.802792	-0.483832	0.846739
H288	H	1.302792	0.016168	1.346739
H289	H	0.804346	-0.559629	0.920098
H290	H	1.304346	-0.059629	1.420098
H291	H	0.871722	-0.564739	0.849571
H292	H	1.371722	-0.064739	1.349571
H293	H	0.852376	-0.430430	0.958022
H294	H	1.352376	0.069570	1.458022
H295	H	0.919701	-0.435639	0.887455
H296	H	1.419701	0.064361	1.387455
O297	O	0.412600	-0.358816	0.307204
O298	O	0.912600	0.141184	0.807204
C299	C	0.499189	-0.347811	0.215627
C300	C	0.999189	0.152189	0.715627
C301	C	0.456827	-0.403706	0.263375
C302	C	0.956827	0.096294	0.763375
H303	H	0.534946	-0.384082	0.180169
H304	H	1.034946	0.115918	0.680169
H305	H	0.532319	-0.309548	0.249285
H306	H	1.032319	0.190452	0.749285
H307	H	0.461620	-0.308414	0.182043
H308	H	0.961620	0.191586	0.682043
H309	H	0.494345	-0.443153	0.296968
H310	H	0.994345	0.056847	0.796968
H311	H	0.423688	-0.441915	0.229676
H312	H	0.923688	0.058085	0.729676
H313	H	1.072724	-0.366855	0.650831
H314	H	1.572724	0.133145	1.150831
O315	O	0.598998	-0.320565	0.274512
O316	O	1.098998	0.179435	0.774512
C317	C	0.519883	-0.301786	0.176371
C318	C	1.019883	0.198214	0.676371
C319	C	0.558275	-0.361468	0.227365
C320	C	1.058275	0.138532	0.727365
H321	H	0.486937	-0.334832	0.138249
H322	H	0.986937	0.165168	0.638249
H323	H	0.559968	-0.266049	0.145810
H324	H	1.059968	0.233951	0.645810
H325	H	0.484280	-0.260281	0.207340
H326	H	0.984280	0.239719	0.707340
H327	H	0.593876	-0.403022	0.196451
H328	H	1.093876	0.096978	0.696451
H329	H	0.518152	-0.397148	0.257927
H330	H	1.018152	0.102852	0.757927
H331	H	1.086711	-0.744359	0.301147
H332	H	1.586711	-0.244359	0.801147
H333	H	1.099658	-0.337801	0.982012
H334	H	1.599658	0.162199	1.482012
H335	H	1.094322	-0.343531	1.115150
H336	H	1.594322	0.156469	1.615150
