data_functionalizedCrystal
_audit_creation_method	'MofGen! by Chris Wilmer'
_symmetry_space_group_name_H-M	'P1'
_symmetry_Int_Tables_number	1
_symmetry_cell_setting	triclinic
loop_
_symmetry_equiv_pos_as_xyz
  x,y,z
_cell_length_a	19.288859
_cell_length_b	12.811415
_cell_length_c	17.766277
_cell_angle_alpha	84.562803
_cell_angle_beta	89.989768
_cell_angle_gamma	83.590528
loop_
_atom_site_label
_atom_site_type_symbol
_atom_site_fract_x
_atom_site_fract_y
_atom_site_fract_z
O1	O	0.922006	0.130903	-0.071543
O2	O	1.422006	0.630903	0.428457
O3	O	0.719833	0.148573	-0.072747
O4	O	1.219833	0.648573	0.427253
O5	O	0.826005	-0.013079	-0.061711
O6	O	1.326005	0.486921	0.438289
O7	O	0.815834	0.292555	-0.082580
O8	O	1.315834	0.792555	0.417420
O9	O	0.825986	-0.013087	0.063478
O10	O	1.325986	0.486913	0.563478
O11	O	0.719814	0.148564	0.052442
O12	O	1.219814	0.648564	0.552442
O13	O	0.921987	0.130895	0.053646
O14	O	1.421987	0.630895	0.553646
Cu15	Cu	0.820899	0.139729	0.064475
Cu16	Cu	1.320899	0.639729	0.564475
Cu17	Cu	0.820921	0.139739	-0.083576
Cu18	Cu	1.320921	0.639739	0.416424
O19	O	0.815815	0.292547	0.042609
O20	O	1.315815	0.792547	0.542609
C21	C	0.693944	0.148001	-0.010114
C22	C	1.193944	0.648001	0.489886
C23	C	0.616832	0.146298	-0.009997
C24	C	1.116832	0.646298	0.490003
C25	C	0.053205	0.229624	-0.015687
C26	C	0.553205	0.729624	0.484313
C27	C	0.125659	0.231234	-0.015801
C28	C	0.625659	0.731234	0.484199
C29	C	0.169895	0.136384	-0.009323
C30	C	0.669895	0.636384	0.490677
C31	C	0.141671	0.039917	-0.002750
C32	C	0.641671	0.539917	0.497250
C33	C	0.069217	0.038310	-0.002644
C34	C	0.569217	0.538310	0.497356
C35	C	0.290807	0.065642	0.039369
C36	C	0.790807	0.565642	0.539369
C37	C	0.363259	0.067253	0.039267
C38	C	0.863259	0.567253	0.539267
C39	C	0.393365	0.141337	-0.009654
C40	C	0.893365	0.641337	0.490346
C41	C	0.351010	0.213826	-0.058465
C42	C	0.851010	0.713826	0.441535
C43	C	0.278557	0.212219	-0.058358
C44	C	0.778557	0.712219	0.441642
C45	C	0.248459	0.138116	-0.009438
C46	C	0.748459	0.638116	0.490562
C47	C	0.500145	0.239543	-0.016355
C48	C	1.000145	0.739543	0.483645
C49	C	0.572601	0.241149	-0.016473
C50	C	1.072601	0.741149	0.483527
C51	C	0.588611	0.049829	-0.003415
C52	C	1.088611	0.549829	0.496585
C53	C	0.516156	0.048226	-0.003304
C54	C	1.016156	0.548226	0.496696
C55	C	0.471927	0.143086	-0.009771
C56	C	0.971927	0.643086	0.490229
C57	C	0.825425	-0.052185	0.003552
C58	C	1.325425	0.447815	0.503552
C59	C	0.823717	-0.168695	0.011503
C60	C	1.323717	0.331305	0.511503
C61	C	0.820516	-0.387610	-0.110053
C62	C	1.320516	0.112390	0.389947
C63	C	0.818911	-0.497082	-0.102587
C64	C	1.318911	0.002918	0.397413
C65	C	0.818898	-0.497112	0.033903
C66	C	1.318898	0.002888	0.533903
C67	C	0.820503	-0.387640	0.026436
C68	C	1.320503	0.112360	0.526436
C69	C	0.821312	-0.332893	-0.045545
C70	C	1.321312	0.167107	0.454455
C71	C	0.822922	-0.223420	-0.053011
C72	C	1.322922	0.276580	0.446989
C73	C	0.822904	-0.223451	0.083478
C74	C	1.322904	0.276549	0.583478
C75	C	0.821299	-0.332923	0.090945
C76	C	1.321299	0.167077	0.590945
C77	C	0.947876	0.131467	-0.008989
C78	C	1.447876	0.631467	0.491011
C79	C	1.024988	0.133170	-0.009111
C80	C	1.524988	0.633170	0.490889
C81	C	0.816395	0.331653	-0.022655
C82	C	1.316395	0.831653	0.477345
C83	C	0.818103	0.448163	-0.030611
C84	C	1.318103	0.948163	0.469389
N85	N	0.820888	0.139722	0.168605
N86	N	1.320888	0.639722	0.668605
N87	N	0.820937	0.139738	-0.187706
N88	N	1.320937	0.639738	0.312294
C89	C	0.867917	0.068177	0.212877
C90	C	1.367917	0.568177	0.712877
C91	C	0.867921	0.068172	0.291679
C92	C	1.367921	0.568172	0.791679
C93	C	0.820903	0.139730	0.326206
C94	C	1.320903	0.639730	0.826206
C95	C	0.773866	0.211280	0.281924
C96	C	1.273866	0.711280	0.781924
C97	C	0.773858	0.211276	0.203124
C98	C	1.273858	0.711276	0.703124
C99	C	0.812079	0.235364	0.444514
C100	C	1.312079	0.735364	0.944514
C101	C	0.812091	0.235369	0.523312
C102	C	1.312091	0.735369	1.023312
C103	C	0.820922	0.139742	0.569251
C104	C	1.320922	0.639742	1.069251
C105	C	0.829754	0.044106	0.536382
C106	C	1.329754	0.544106	1.036382
C107	C	0.829747	0.044102	0.457582
C108	C	1.329747	0.544102	0.957582
C109	C	0.820905	0.139742	0.411650
C110	C	1.320905	0.639742	0.911650
C111	C	0.867957	0.068187	0.698969
C112	C	1.367957	0.568187	1.198969
C113	C	0.867956	0.068180	0.777773
C114	C	1.367956	0.568180	1.277773
C115	C	0.773905	0.211297	0.768016
C116	C	1.273905	0.711297	1.268016
C117	C	0.773902	0.211294	0.689214
C118	C	1.273902	0.711294	1.189214
C119	C	0.820932	0.139740	0.654696
C120	C	1.320932	0.639740	1.154696
H121	H	0.464132	0.316784	-0.021622
H122	H	0.964132	0.816784	0.478378
H123	H	0.818259	-0.541628	-0.155117
H124	H	1.318259	-0.041628	0.344883
Br125	Br	0.931780	-0.028925	0.652121
Br126	Br	1.431780	0.471075	1.152121
Br127	Br	0.817774	-0.571424	0.131582
Br128	Br	1.317774	-0.071424	0.631582
H129	H	0.375520	0.274154	-0.098299
H130	H	0.875520	0.774154	0.401701
H131	H	0.735610	0.269557	0.653165
H132	H	1.235610	0.769557	1.153165
Br133	Br	0.824026	-0.149122	-0.150697
Br134	Br	1.324026	0.350878	0.349303
H135	H	0.397739	0.008233	0.079015
H136	H	0.897739	0.508233	0.579015
H137	H	0.017197	0.306867	-0.020957
H138	H	0.517197	0.806867	0.479043
H139	H	0.821181	-0.343036	-0.168663
H140	H	1.321181	0.156964	0.331337
Br141	Br	0.710050	0.308388	0.328778
Br142	Br	1.210050	0.808388	0.828778
H143	H	0.836937	-0.033768	0.430824
H144	H	1.336937	0.466232	0.930824
Br145	Br	0.648637	-0.078899	0.005361
Br146	Br	1.148637	0.421101	0.505361
Br147	Br	0.931779	-0.028932	0.837861
Br148	Br	1.431779	0.471068	1.337861
Br149	Br	0.610896	0.372063	-0.025411
Br150	Br	1.110896	0.872063	0.474589
Br151	Br	0.820191	-0.407230	0.188628
Br152	Br	1.320191	0.092770	0.688628
Br153	Br	0.800112	0.365159	0.567912
Br154	Br	1.300112	0.865159	1.067912
Br155	Br	0.710087	0.308401	0.814867
Br156	Br	1.210087	0.808401	1.314867
H157	H	0.493183	-0.030318	0.002055
H158	H	0.993183	0.469682	0.502055
Br159	Br	0.201703	-0.088809	0.006035
Br160	Br	0.701703	0.411191	0.506035
Br161	Br	0.249962	-0.034968	0.105720
Br162	Br	0.749962	0.465032	0.605720
H163	H	0.823555	-0.178890	0.136006
H164	H	1.323555	0.321110	0.636006
H165	H	0.804877	0.313239	0.407115
H166	H	1.304877	0.813239	0.907115
H167	H	0.906209	0.009911	0.184775
H168	H	1.406209	0.509911	0.684775
Br169	Br	0.931749	-0.028934	0.351772
Br170	Br	1.431749	0.471066	0.851772
Br171	Br	0.841747	-0.085682	0.598718
Br172	Br	1.341747	0.414318	1.098718
H173	H	0.735562	0.269537	0.167077
H174	H	1.235562	0.769537	0.667077
H175	H	0.244074	0.271241	-0.098103
H176	H	0.744074	0.771241	0.401897
Br177	Br	0.163964	0.362145	-0.024727
Br178	Br	0.663964	0.862145	0.475273
Br179	Br	0.030921	-0.092603	0.006277
Br180	Br	0.530921	0.407397	0.506277
