data_functionalizedCrystal
_audit_creation_method	'MofGen! by Chris Wilmer'
_symmetry_space_group_name_H-M	'P1'
_symmetry_Int_Tables_number	1
_symmetry_cell_setting	triclinic
loop_
_symmetry_equiv_pos_as_xyz
  x,y,z
_cell_length_a	27.440280
_cell_length_b	23.096457
_cell_length_c	23.096457
_cell_angle_alpha	90.011236
_cell_angle_beta	60.005476
_cell_angle_gamma	60.004322
loop_
_atom_site_label
_atom_site_type_symbol
_atom_site_fract_x
_atom_site_fract_y
_atom_site_fract_z
Zr1	Zr	0.533380	0.557840	-0.075986
O2	O	0.635044	0.465383	-0.168433
O3	O	0.431717	0.586172	-0.047647
O4	O	0.533380	0.586159	-0.168437
O5	O	0.533380	0.465419	0.047639
O6	O	0.533378	0.681441	-0.168439
O7	O	0.533381	0.465396	-0.047643
O8	O	0.351521	0.681464	0.047631
O9	O	0.715237	0.465395	-0.168432
O10	O	0.473530	0.669376	-0.035562
O11	O	0.473531	0.598285	0.035548
O12	O	0.593226	0.598270	-0.106666
O13	O	0.593226	0.527178	-0.035557
Zr14	Zr	0.533374	0.709840	0.075974
Zr15	Zr	0.533377	0.709804	-0.075989
Zr16	Zr	0.533377	0.557876	0.075978
Zr17	Zr	0.661277	0.557859	-0.075984
Zr18	Zr	0.405477	0.709820	0.075973
O19	O	0.635037	0.681508	0.047635
O20	O	0.635040	0.681457	-0.168438
O21	O	0.635041	0.465434	0.047640
O22	O	0.431710	0.802297	0.168421
O23	O	0.431713	0.802245	-0.047652
O24	O	0.431714	0.586223	0.168426
O25	O	0.533374	0.802261	-0.047651
O26	O	0.533374	0.681521	0.168425
O27	O	0.533376	0.586239	0.168427
O28	O	0.533373	0.802284	0.047631
O29	O	0.715234	0.586187	-0.168434
O30	O	0.351520	0.681493	0.168422
O31	O	0.351517	0.802285	0.168420
O32	O	0.351519	0.802256	0.047629
O33	O	0.715235	0.465424	-0.047641
O34	O	0.715233	0.586215	-0.047643
O35	O	0.473528	0.669410	0.106654
O36	O	0.473528	0.740501	0.035545
O37	O	0.593224	0.669395	-0.035560
O38	O	0.593224	0.598303	0.035550
C39	C	0.373397	0.633815	-0.000008
C40	C	0.319101	0.633807	-0.000009
C41	C	-0.017642	0.670968	-0.037118
C42	C	-0.068665	0.670975	-0.037116
O43	O	-0.095072	0.702556	-0.068662
N44	N	-0.094181	0.633865	0.000001
C45	C	-0.068676	0.596753	0.037124
O46	O	-0.095065	0.565190	0.068696
C47	C	-0.017656	0.596751	0.037126
C48	C	0.007862	0.633857	0.000001
C49	C	0.007876	0.708072	-0.074240
C50	C	0.058897	0.708064	-0.074243
C51	C	0.084401	0.670953	-0.037124
C52	C	0.058883	0.633849	-0.000002
C53	C	0.007845	0.559643	0.074253
C54	C	0.058868	0.559645	0.074252
C55	C	0.084386	0.596751	0.037127
C56	C	0.135408	0.596730	0.037114
N57	N	0.160924	0.633840	-0.000003
C58	C	0.135420	0.670951	-0.037122
C59	C	-0.175821	0.596761	0.037118
C60	C	-0.226836	0.596758	0.037113
C61	C	-0.226823	0.670981	-0.037126
C62	C	-0.175804	0.670979	-0.037125
C63	C	-0.150305	0.633870	0.000002
C64	C	0.242569	0.670932	-0.037126
C65	C	0.293597	0.670918	-0.037128
C66	C	0.293577	0.596698	0.037114
C67	C	0.242556	0.596709	0.037114
C68	C	0.217052	0.633830	-0.000008
O69	O	0.161845	0.565167	0.068646
O70	O	0.161809	0.702517	-0.068681
C71	C	0.533381	0.443756	-0.000002
C72	C	0.533382	0.379243	-0.000001
C73	C	0.533388	0.348928	-0.052496
C74	C	0.533382	0.288315	-0.052496
C75	C	0.533383	0.258012	-0.000006
C76	C	0.533374	0.288337	0.052499
C77	C	0.533373	0.348953	0.052501
N78	N	0.572399	0.139670	0.015886
N79	N	0.572401	0.082087	0.015879
C80	C	0.533384	0.075383	-0.000009
N81	N	0.494373	0.128432	-0.015904
N82	N	0.494374	0.186018	-0.015901
C83	C	0.533384	0.192286	-0.000002
C84	C	0.533382	-0.020654	-0.052507
C85	C	0.533371	-0.081265	-0.052502
C86	C	0.533370	-0.081246	0.052489
C87	C	0.533374	-0.020632	0.052487
C88	C	0.533383	0.009658	-0.000015
C89	C	0.693358	0.633864	-0.000004
C90	C	0.747653	0.633873	-0.000003
C91	C	0.533380	0.633795	-0.190089
C92	C	0.533381	0.633779	-0.254602
C93	C	0.533373	0.823924	-0.000010
C94	C	0.533372	0.888437	-0.000011
C95	C	0.595859	0.596666	-0.322022
C96	C	0.595860	0.596684	-0.382638
C97	C	0.533379	0.633806	-0.375831
C98	C	0.470893	0.670927	-0.308399
C99	C	0.470893	0.670914	-0.247785
N100	N	0.486872	0.628676	-0.443387
N101	N	0.486875	0.628685	-0.500970
C102	C	0.533373	0.633849	-0.558456
N103	N	0.579877	0.638991	-0.556189
N104	N	0.579876	0.638978	-0.498601
C105	C	0.533371	0.633825	-0.441553
C106	C	0.595856	0.596754	-0.691606
C107	C	0.595855	0.596777	-0.752222
C108	C	0.470886	0.671016	-0.677980
C109	C	0.470889	0.670997	-0.617367
C110	C	0.533376	0.633863	-0.624184
C111	C	0.533374	0.633885	0.190078
C112	C	0.533373	0.633900	0.254590
C113	C	0.373393	0.823899	-0.000012
C114	C	0.319096	0.888404	-0.000014
C115	C	0.373394	0.633860	0.190075
C116	C	0.319097	0.633868	0.254587
C117	C	0.373390	0.823945	0.190071
C118	C	0.319092	0.888464	0.254582
C119	C	0.693364	0.443735	-0.190083
C120	C	0.747662	0.379215	-0.254594
C121	C	0.693361	0.443780	0.000000
C122	C	0.747659	0.379276	0.000002
C123	C	0.693360	0.633819	-0.190087
C124	C	0.747657	0.633812	-0.254599
C125	C	0.293598	0.881569	-0.037139
C126	C	0.242587	0.942172	-0.037155
C127	C	0.217071	1.009609	-0.000042
C128	C	0.242573	1.016443	0.037083
C129	C	0.293587	0.955840	0.037095
C130	C	0.293597	0.670997	0.322006
C131	C	0.242587	0.671001	0.382627
C132	C	0.217073	0.633879	0.375829
C133	C	0.242578	0.596745	0.308403
C134	C	0.293591	0.596737	0.247783
C135	C	0.293593	0.955879	0.247758
C136	C	0.242581	1.016508	0.308367
C137	C	0.217066	1.009721	0.375798
C138	C	0.242570	0.942299	0.382621
C139	C	0.293584	0.881672	0.322013
C140	C	0.773168	0.311801	-0.247770
C141	C	0.824195	0.251172	-0.308379
C142	C	0.849713	0.257959	-0.375810
C143	C	0.824205	0.325380	-0.382632
C144	C	0.773182	0.386008	-0.322025
C145	C	0.773161	0.386110	0.037120
C146	C	0.824186	0.325507	0.037120
C147	C	0.849704	0.258070	0.000005
C148	C	0.824199	0.251237	-0.037117
C149	C	0.773179	0.311839	-0.037121
C150	C	0.773154	0.670942	-0.247778
C151	C	0.824165	0.670949	-0.308388
C152	C	0.849681	0.633822	-0.375818
C153	C	0.824179	0.596692	-0.382638
C154	C	0.773166	0.596689	-0.322029
H155	H	0.221809	0.701161	-0.067352
H156	H	0.752388	0.441015	0.067348
H157	H	0.314340	0.961415	0.067330
H158	H	0.314339	0.826782	0.327578
H159	H	0.844924	0.701184	-0.302821
H160	H	0.314346	0.566504	0.192890
H161	H	0.314360	0.961419	0.192857
H162	H	0.175532	1.058950	-0.000057
H163	H	0.844962	0.566464	-0.437548
H164	H	0.844944	0.331085	0.067352
H165	H	0.752394	0.306261	-0.192869
H166	H	0.221830	0.936595	-0.067386
H167	H	0.646741	0.566431	-0.327579
H168	H	0.533368	0.373636	0.095250
H169	H	0.752387	0.701175	-0.192878
H170	H	0.314365	0.701227	0.327555
H171	H	0.221827	0.701243	0.437522
H172	H	0.646739	0.566460	-0.437541
H173	H	0.420020	0.701153	-0.302860
H174	H	0.175535	0.633891	0.425195
H175	H	0.844955	0.196280	-0.302810
H176	H	0.420015	0.701137	-0.192887
H177	H	0.891259	0.208586	-0.425155
H178	H	0.221797	0.566521	0.302878
H179	H	0.844989	0.330898	-0.437542
H180	H	0.314373	0.826664	-0.067369
H181	H	0.752416	0.440898	-0.327589
H182	H	0.891248	0.208730	0.000013
H183	H	0.533368	-0.105916	0.095230
H184	H	0.221791	1.071358	0.067299
H185	H	0.844984	0.196322	-0.067335
H186	H	0.752416	0.306265	-0.067344
H187	H	0.221821	1.071400	0.302799
H188	H	0.646737	0.566517	-0.697157
H189	H	0.175527	1.059094	0.425143
H190	H	0.533386	0.004011	-0.095256
H191	H	0.221788	0.936784	0.437531
H192	H	0.891220	0.633830	-0.425164
H193	H	0.314374	0.701134	-0.067362
H194	H	0.079669	0.738282	-0.104471
H195	H	0.752411	0.566451	-0.327593
H196	H	-0.012886	0.738296	-0.104465
H197	H	-0.247598	0.701201	-0.067349
H198	H	0.533386	0.263628	-0.095245
H199	H	-0.155030	0.701195	-0.067355
H200	H	-0.247601	0.566533	0.067335
H201	H	-0.155058	0.566534	0.067347
H202	H	0.533373	0.004050	0.095231
H203	H	0.646734	0.566557	-0.807119
H204	H	-0.012924	0.529428	0.104485
H205	H	0.079627	0.529424	0.104484
H206	H	0.221786	0.566484	0.067334
H207	H	0.420013	0.701242	-0.672437
H208	H	0.533393	0.373590	-0.095244
H209	H	0.314353	0.566481	0.067333
H210	H	0.533374	0.263663	0.095238
H211	H	0.533372	-0.105946	-0.095249
H212	H	0.420013	0.701216	-0.562469
