data_functionalizedCrystal
_audit_creation_method	'MofGen! by Chris Wilmer'
_symmetry_space_group_name_H-M	'P1'
_symmetry_Int_Tables_number	1
_symmetry_cell_setting	triclinic
loop_
_symmetry_equiv_pos_as_xyz
  x,y,z
_cell_length_a	17.699097
_cell_length_b	16.176319
_cell_length_c	17.699083
_cell_angle_alpha	89.992304
_cell_angle_beta	83.285722
_cell_angle_gamma	89.988988
loop_
_atom_site_label
_atom_site_type_symbol
_atom_site_fract_x
_atom_site_fract_y
_atom_site_fract_z
O1	O	1.004072	-0.068817	0.095761
O2	O	1.504072	0.431183	0.595761
O3	O	0.783695	-0.068804	0.108203
O4	O	1.283695	0.431196	0.608203
O5	O	0.900110	-0.068803	-0.008207
O6	O	1.400110	0.431197	0.491793
O7	O	0.887658	-0.068817	0.212171
O8	O	1.387658	0.431183	0.712171
O9	O	0.900094	0.068690	-0.008214
O10	O	1.400094	0.568690	0.491786
O11	O	0.783679	0.068690	0.108195
O12	O	1.283679	0.568690	0.608195
O13	O	1.004056	0.068676	0.095754
O14	O	1.504056	0.568676	0.595754
Cu15	Cu	0.893867	0.081237	0.101974
Cu16	Cu	1.393867	0.581237	0.601974
Cu17	Cu	0.893885	-0.081364	0.101983
Cu18	Cu	1.393885	0.418636	0.601983
O19	O	0.887642	0.068676	0.212163
O20	O	1.387642	0.568676	0.712163
C21	C	0.755491	-0.000055	0.107752
C22	C	1.255491	0.499945	0.607752
C23	C	0.671473	-0.000050	0.106409
C24	C	1.171473	0.499950	0.606409
N25	N	0.893859	0.195602	0.101967
N26	N	1.393859	0.695602	0.601967
N27	N	0.893899	-0.195730	0.101983
N28	N	1.393899	0.304270	0.601983
C29	C	0.155764	-0.075030	0.098184
C30	C	0.655764	0.424970	0.598184
C31	C	0.234708	-0.075026	0.099440
C32	C	0.734708	0.424974	0.599440
C33	C	0.274165	-0.000076	0.100065
C34	C	0.774165	0.499924	0.600065
C35	C	0.234675	0.074876	0.099427
C36	C	0.734675	0.574876	0.599427
C37	C	0.155733	0.074871	0.098165
C38	C	0.655733	0.574871	0.598165
C39	C	0.553039	0.074898	0.104514
C40	C	1.053039	0.574898	0.604514
C41	C	0.631986	0.074897	0.105778
C42	C	1.131986	0.574897	0.605778
C43	C	0.632014	-0.075000	0.105789
C44	C	1.132014	0.425000	0.605789
C45	C	0.553072	-0.075005	0.104527
C46	C	1.053072	0.424995	0.604527
C47	C	0.513589	-0.000054	0.103885
C48	C	1.013589	0.499946	0.603885
C49	C	0.427989	-0.000059	0.102521
C50	C	0.927989	0.499941	0.602521
C51	C	0.359763	-0.000069	0.101434
C52	C	0.859763	0.499931	0.601434
C53	C	1.032261	-0.000074	0.096205
C54	C	1.532261	0.499926	0.596205
C55	C	1.116279	-0.000084	0.097547
C56	C	1.616279	0.499916	0.597547
C57	C	0.945423	0.238867	0.050442
C58	C	1.445423	0.738867	0.550442
C59	C	0.945426	0.325414	0.050441
C60	C	1.445426	0.825414	0.550441
C61	C	0.893869	0.368695	0.101970
C62	C	1.393869	0.868695	0.601970
C63	C	0.842300	0.325425	0.153498
C64	C	1.342300	0.825425	0.653498
C65	C	0.842293	0.238879	0.153494
C66	C	1.342293	0.738879	0.653494
C67	C	0.842326	0.674453	0.153512
C68	C	1.342326	1.174453	0.653512
C69	C	0.842338	0.761004	0.153513
C70	C	1.342338	1.261004	0.653513
C71	C	0.945459	0.760988	0.050459
C72	C	1.445459	1.260988	0.550459
C73	C	0.945452	0.674442	0.050455
C74	C	1.445452	1.174442	0.550455
C75	C	0.893881	0.631179	0.101980
C76	C	1.393881	1.131179	0.601980
C77	C	0.893876	0.537335	0.101979
C78	C	1.393876	1.037335	0.601979
C79	C	0.893877	0.462538	0.101975
C80	C	1.393877	0.962538	0.601975
C81	C	0.899656	-0.000057	-0.036408
C82	C	1.399656	0.499943	0.463592
C83	C	0.898317	-0.000056	-0.120426
C84	C	1.398317	0.499944	0.379574
C85	C	0.966650	-0.000059	-0.169044
C86	C	1.466650	0.499941	0.330956
C87	C	0.965388	-0.000066	-0.247987
C88	C	1.465388	0.499934	0.252013
C89	C	0.895792	-0.000065	-0.278311
C90	C	1.395792	0.499935	0.221689
C91	C	0.827454	-0.000064	-0.229687
C92	C	1.327454	0.499936	0.270313
C93	C	0.828717	-0.000063	-0.150745
C94	C	1.328717	0.499937	0.349255
C95	C	0.822359	-0.000071	-0.548050
C96	C	1.322359	0.499929	-0.048050
C97	C	0.821101	-0.000070	-0.626998
C98	C	1.321101	0.499930	-0.126998
C99	C	0.959030	-0.000074	-0.645292
C100	C	1.459030	0.499926	-0.145292
C101	C	0.960293	-0.000073	-0.566350
C102	C	1.460293	0.499927	-0.066350
C103	C	0.891955	-0.000077	-0.517733
C104	C	1.391955	0.499923	-0.017733
C105	C	0.893325	-0.000070	-0.432134
C106	C	1.393325	0.499930	0.067866
C107	C	0.894422	-0.000065	-0.363909
C108	C	1.394422	0.499935	0.136091
C109	C	0.888096	-0.000073	0.240364
C110	C	1.388096	0.499927	0.740364
C111	C	0.889435	-0.000078	0.324382
C112	C	1.389435	0.499922	0.824382
H113	H	0.266853	-0.136055	0.099954
H114	H	0.766853	0.363945	0.599954
H115	H	0.773073	-0.000061	-0.111161
H116	H	1.273073	0.499939	0.388839
H117	H	0.664170	-0.136029	0.106309
H118	H	1.164170	0.363971	0.606309
C119	C	1.036846	-0.000071	-0.532994
C120	C	1.536846	0.499929	-0.032994
H121	H	1.027811	-0.000062	-0.479016
H122	H	1.527811	0.499938	0.020984
H123	H	1.064984	-0.048018	-0.549683
H124	H	1.564984	0.451982	-0.049683
H125	H	1.064967	0.047881	-0.549696
H126	H	1.564967	0.547881	-0.049696
H127	H	1.014674	-0.000075	-0.684886
H128	H	1.514674	0.499925	-0.184886
H129	H	0.764424	-0.000067	-0.651685
H130	H	1.264424	0.499933	-0.151685
C131	C	0.509550	0.157336	0.104299
C132	C	1.009550	0.657336	0.604299
H133	H	0.456866	0.146604	0.103598
H134	H	0.956866	0.646604	0.603598
H135	H	0.516789	0.187789	0.148772
H136	H	1.016789	0.687789	0.648772
H137	H	0.528139	0.188472	0.060526
H138	H	1.028139	0.688472	0.560526
H139	H	0.123642	-0.136064	0.097680
H140	H	0.623642	0.363936	0.597680
H141	H	0.520949	-0.136038	0.104022
H142	H	1.020949	0.363962	0.604022
C143	C	1.002135	0.191265	-0.006242
C144	C	1.502135	0.691265	0.493758
H145	H	1.032840	0.229430	-0.036933
H146	H	1.532840	0.729430	0.463067
H147	H	1.033586	0.157487	0.020943
H148	H	1.533586	0.657487	0.520943
H149	H	0.974961	0.157521	-0.037719
H150	H	1.474961	0.657521	0.462281
H151	H	0.987413	0.360639	0.008485
H152	H	1.487413	0.860639	0.508485
C153	C	0.675390	0.157347	0.106450
C154	C	1.175390	0.657347	0.606450
H155	H	0.640572	0.201985	0.105877
H156	H	1.140572	0.701985	0.605877
H157	H	0.700336	0.160472	0.151059
H158	H	1.200336	0.660472	0.651059
H159	H	0.712035	0.160451	0.062815
H160	H	1.212035	0.660451	0.562815
H161	H	0.266808	0.135903	0.099931
H162	H	0.766808	0.635903	0.599931
H163	H	0.800336	0.639235	0.195466
H164	H	1.300336	1.139235	0.695466
H165	H	0.123585	0.135900	0.097655
H166	H	0.623585	0.635900	0.597655
H167	H	0.987437	0.639205	0.008498
H168	H	1.487437	1.139205	0.508498
C169	C	0.785590	0.373032	0.210179
C170	C	1.285590	0.873032	0.710179
H171	H	0.792983	0.430772	0.202808
H172	H	1.292983	0.930772	0.702808
H173	H	0.735094	0.358868	0.202022
H174	H	1.235094	0.858868	0.702022
H175	H	0.793718	0.358832	0.260684
H176	H	1.293718	0.858832	0.760684
H177	H	0.987450	0.796221	0.008502
H178	H	1.487450	1.296221	0.508502
C179	C	0.785609	0.808613	0.210183
C180	C	1.285609	1.308613	0.710183
H181	H	0.754886	0.770452	0.240861
H182	H	1.254886	1.270452	0.740861
H183	H	0.812765	0.842364	0.241664
H184	H	1.312765	1.342364	0.741664
H185	H	0.754167	0.842384	0.182975
H186	H	1.254167	1.342384	0.682975
C187	C	1.040552	-0.000078	-0.301467
C188	C	1.540552	0.499922	0.198533
H189	H	1.029835	-0.000092	-0.352825
H190	H	1.529835	0.499908	0.147175
H191	H	1.069095	0.047866	-0.292300
H192	H	1.569095	0.547866	0.207700
H193	H	1.069096	-0.048034	-0.292275
H194	H	1.569096	0.451966	0.207725
H195	H	0.766714	-0.000074	-0.508475
H196	H	1.266714	0.499926	-0.008475
C197	C	0.785576	0.191288	0.210175
C198	C	1.285576	0.691288	0.710175
H199	H	0.754876	0.229459	0.240869
H200	H	1.254876	0.729459	0.740869
H201	H	0.754121	0.157542	0.182985
H202	H	1.254121	0.657542	0.682985
H203	H	0.812743	0.157513	0.241650
H204	H	1.312743	0.657513	0.741650
C205	C	1.043207	-0.000061	-0.135694
C206	C	1.543207	0.499939	0.364306
H207	H	1.083722	-0.000071	-0.175958
H208	H	1.583722	0.499929	0.324042
H209	H	1.046564	0.047886	-0.105285
H210	H	1.546564	0.547886	0.394715
H211	H	1.046571	-0.048014	-0.105275
H212	H	1.546571	0.451986	0.394725
C213	C	0.750900	-0.000060	-0.263042
C214	C	1.250900	0.499940	0.236958
H215	H	0.759933	-0.000052	-0.317020
H216	H	1.259933	0.499948	0.182980
H217	H	0.722773	-0.048004	-0.246341
H218	H	1.222773	0.451996	0.253659
H219	H	0.722768	0.047895	-0.246349
H220	H	1.222768	0.547895	0.253651
