data_functionalizedCrystal
_audit_creation_method	'MofGen! by Chris Wilmer'
_symmetry_space_group_name_H-M	'P1'
_symmetry_Int_Tables_number	1
_symmetry_cell_setting	triclinic
loop_
_symmetry_equiv_pos_as_xyz
  x,y,z
_cell_length_a	10.654550
_cell_length_b	12.503572
_cell_length_c	10.654550
_cell_angle_alpha	86.441476
_cell_angle_beta	84.484903
_cell_angle_gamma	93.555982
loop_
_atom_site_label
_atom_site_type_symbol
_atom_site_fract_x
_atom_site_fract_y
_atom_site_fract_z
O1	O	1.675027	0.089407	0.169189
O2	O	1.309547	0.089389	0.185997
O3	O	1.500690	0.089394	-0.005146
O4	O	1.483884	0.089401	0.360332
O5	O	1.486315	-0.089248	0.009253
O6	O	1.295172	-0.089253	0.200396
O7	O	1.660652	-0.089236	0.183588
Cu8	Cu	1.476600	-0.105556	0.193307
Cu9	Cu	1.493600	0.105709	0.176278
O10	O	1.469510	-0.089241	0.374731
C11	C	1.255562	0.000066	0.191962
C12	C	1.116118	0.000059	0.188271
N13	N	1.464652	-0.254149	0.205283
C14	C	1.036634	0.000077	0.300811
C15	C	0.905614	0.000095	0.297333
C16	C	0.933577	0.000083	0.068765
C17	C	1.064593	0.000056	0.072245
C18	C	1.020489	0.000089	0.432773
C19	C	0.889470	0.000107	0.429295
C20	C	1.447077	-0.473264	0.222911
C21	C	1.523129	-0.526589	0.146668
C22	C	1.513350	-0.648513	0.156477
C23	C	1.456854	-0.351330	0.213104
C24	C	1.714638	0.000090	0.177622
C25	C	1.854082	0.000104	0.181313
C26	C	1.492269	0.000074	-0.044745
C27	C	1.488577	0.000078	-0.184188
N28	N	1.505557	0.254302	0.164292
C29	C	1.601119	0.000080	-0.263674
C30	C	1.597643	0.000087	-0.394695
C31	C	1.369073	0.000086	-0.366732
C32	C	1.372551	0.000086	-0.235714
C33	C	1.733081	0.000076	-0.279819
C34	C	1.729605	0.000084	-0.410841
C35	C	1.477931	0.000081	0.414329
C36	C	1.481623	0.000085	0.553772
H37	H	0.891610	0.000097	-0.025702
H38	H	1.775693	0.077218	-0.462701
H39	H	1.768896	-0.077056	-0.237975
C40	C	1.051995	-0.100899	0.510645
H41	H	0.976046	-0.142422	0.540298
H42	H	1.094451	-0.080130	0.580630
H43	H	1.104914	-0.142458	0.459035
C44	C	1.621048	-0.464570	0.048575
H45	H	1.614884	-0.389572	0.054786
H46	H	1.605130	-0.482922	-0.033896
H47	H	1.703558	-0.482941	0.064352
C48	C	1.349214	-0.535283	0.321046
H49	H	1.355409	-0.610280	0.314855
H50	H	1.266685	-0.516937	0.305337
H51	H	1.365196	-0.516914	0.403502
C52	C	1.241452	0.000095	-0.423409
H53	H	1.174925	0.000102	-0.357302
H54	H	1.230323	-0.062197	-0.468925
H55	H	1.240367	0.062404	-0.478950
H56	H	1.773312	-0.074674	-0.446575
C57	C	1.077049	0.104272	0.481150
H58	H	1.011573	0.150683	0.500292
H59	H	1.137453	0.138879	0.417828
H60	H	1.116997	0.087526	0.555196
C61	C	1.248761	0.000105	-0.148279
H62	H	1.267447	0.000117	-0.062870
H63	H	1.196203	-0.062184	-0.158980
H64	H	1.206270	0.062417	-0.169036
H65	H	1.790712	0.074835	-0.256487
H66	H	1.129304	0.000026	-0.019395
H67	H	0.837592	-0.077017	0.475392
H68	H	0.853753	0.074876	0.472990
