data_functionalizedCrystal
_audit_creation_method	'MofGen! by Chris Wilmer'
_symmetry_space_group_name_H-M	'P1'
_symmetry_Int_Tables_number	1
_symmetry_cell_setting	triclinic
loop_
_symmetry_equiv_pos_as_xyz
  x,y,z
_cell_length_a	21.295418
_cell_length_b	17.640280
_cell_length_c	17.640968
_cell_angle_alpha	114.317439
_cell_angle_beta	78.759571
_cell_angle_gamma	101.187999
loop_
_atom_site_label
_atom_site_type_symbol
_atom_site_fract_x
_atom_site_fract_y
_atom_site_fract_z
Zn1	Zn	1.064429	0.233368	-0.400276
Zn2	Zn	1.064378	0.399037	-0.234637
Zn3	Zn	0.941462	0.261311	-0.262411
Zn4	Zn	0.976850	0.371174	-0.372369
O5	O	1.011780	0.316223	-0.317423
O6	O	1.152516	0.255311	-0.378360
O7	O	1.033242	0.404122	-0.122983
O8	O	0.942986	0.142294	-0.304001
O9	O	1.152478	0.377027	-0.256666
O10	O	1.033329	0.121764	-0.405290
O11	O	0.942936	0.302936	-0.143388
O12	O	0.858063	0.275918	-0.276941
O13	O	1.003299	0.329538	-0.491410
O14	O	0.884063	0.356634	-0.357727
O15	O	1.067643	0.228293	-0.511913
O16	O	1.067555	0.510652	-0.229606
O17	O	1.003249	0.490181	-0.330796
C18	C	0.848222	0.316285	-0.317320
C19	C	0.778256	0.316328	-0.317291
C20	C	1.039256	0.530311	-0.274177
C21	C	1.051071	0.621894	-0.255704
C22	C	1.039424	0.272691	-0.532403
C23	C	1.051204	0.254140	-0.624015
C24	C	0.758942	0.358442	-0.359263
C25	C	0.693202	0.358414	-0.359305
C26	C	0.646777	0.316284	-0.317357
C27	C	0.666096	0.274160	-0.275383
C28	C	0.731836	0.274182	-0.275350
N29	N	0.533417	0.324426	-0.246570
N30	N	0.470968	0.324410	-0.246603
C31	C	0.448707	0.316214	-0.317455
N32	N	0.491255	0.308050	-0.388271
N33	N	0.553710	0.308071	-0.388236
C34	C	0.575492	0.316255	-0.317388
C35	C	0.358111	0.358300	-0.359476
C36	C	0.292369	0.358266	-0.359519
C37	C	0.265264	0.274017	-0.275589
C38	C	0.331005	0.274045	-0.275554
C39	C	0.377425	0.316191	-0.317495
C40	C	1.175977	0.316160	-0.317528
C41	C	1.245948	0.316134	-0.317572
C42	C	0.984216	0.101294	-0.360857
C43	C	0.972470	0.009705	-0.379365
C44	C	0.922316	0.870005	-0.458064
C45	C	0.933416	0.956066	-0.440679
C46	C	1.000442	0.977296	-0.335415
C47	C	0.989350	0.891234	-0.352794
C48	C	0.950285	0.837596	-0.414119
C49	C	1.017320	0.858825	-0.308849
C50	C	1.006226	0.772771	-0.326224
C51	C	0.967161	0.719128	-0.387543
C52	C	0.939191	0.751542	-0.431493
C53	C	1.056380	0.912466	-0.247521
C54	C	1.084350	0.880056	-0.203576
C55	C	1.073260	0.794000	-0.220954
C56	C	1.034196	0.740357	-0.282274
C57	C	1.101230	0.761586	-0.177004
C58	C	1.090136	0.675532	-0.194379
C59	C	1.023102	0.654303	-0.299649
C60	C	0.922470	0.456701	-0.871938
C61	C	0.933551	0.439260	-0.958024
C62	C	1.000547	0.333842	-0.979361
C63	C	0.989469	0.351272	-0.893277
C64	C	0.950430	0.412703	-0.839571
C65	C	1.017430	0.307274	-0.860910
C66	C	1.006355	0.324706	-0.774832
C67	C	0.967320	0.386136	-0.721121
C68	C	0.939356	0.430135	-0.753494
C69	C	1.056472	0.245847	-0.914616
C70	C	1.084432	0.201849	-0.882249
C71	C	1.073354	0.219277	-0.796170
C72	C	1.034319	0.280706	-0.742460
C73	C	1.101318	0.175277	-0.763798
C74	C	1.090243	0.192709	-0.677720
C75	C	1.023244	0.298138	-0.656382
C76	C	0.984272	0.359525	-0.103292
C77	C	0.972584	0.377844	-0.011727
H78	H	0.796734	0.392759	-0.393417
H79	H	0.890663	0.506705	-0.828212
H80	H	0.747559	0.239885	-0.241171
Cl81	Cl	0.890088	0.684103	-0.508596
Cl82	Cl	1.070354	1.020642	-0.225708
Cl83	Cl	0.355287	0.221101	-0.222782
H84	H	0.991297	0.610627	-0.349591
H85	H	1.113010	0.156880	-0.651367
H86	H	1.116154	0.923740	-0.153643
H87	H	0.910645	0.982447	-0.476479
H88	H	1.065489	0.231658	-0.984705
Cl89	Cl	0.668914	0.411362	-0.412074
H90	H	0.628293	0.239855	-0.241230
Cl91	Cl	0.953383	0.610906	-0.409578
Cl92	Cl	1.049625	0.256619	-1.046883
H93	H	0.276647	0.392558	-0.393704
H94	H	0.227465	0.239709	-0.241439
H95	H	1.133108	0.125266	-0.807536
H96	H	1.133031	0.805272	-0.127069
H97	H	1.116220	0.151834	-0.925986
Cl98	Cl	0.416470	0.411275	-0.412207
Cl99	Cl	1.049551	1.044734	-0.258327
Cl100	Cl	0.873212	0.802566	-0.535167
Cl101	Cl	1.125291	0.634786	-0.139126
Cl102	Cl	0.974159	0.375360	-0.588862
Cl103	Cl	0.953400	0.408056	-0.612907
Cl104	Cl	0.890271	0.507357	-0.685973
H105	H	0.910780	0.475093	-0.984372
