data_functionalizedCrystal
_audit_creation_method	'MofGen! by Chris Wilmer'
_symmetry_space_group_name_H-M	'P1'
_symmetry_Int_Tables_number	1
_symmetry_cell_setting	triclinic
loop_
_symmetry_equiv_pos_as_xyz
  x,y,z
_cell_length_a	29.839131
_cell_length_b	21.295420
_cell_length_c	21.295411
_cell_angle_alpha	90.025759
_cell_angle_beta	89.979636
_cell_angle_gamma	89.964538
loop_
_atom_site_label
_atom_site_type_symbol
_atom_site_fract_x
_atom_site_fract_y
_atom_site_fract_z
Zn1	Zn	-0.178976	-0.962308	-0.355937
Zn2	Zn	-0.254091	-0.962190	-0.250665
Zn3	Zn	-0.178968	-0.857031	-0.250680
Zn4	Zn	-0.254072	-0.856980	-0.355894
O5	O	-0.216527	-0.909627	-0.303294
O6	O	-0.188952	-1.050381	-0.341984
O7	O	-0.244131	-0.948212	-0.162577
O8	O	-0.116102	-0.871066	-0.264667
O9	O	-0.244139	-1.050295	-0.264641
O10	O	-0.116108	-0.948413	-0.341999
O11	O	-0.188939	-0.870952	-0.162588
O12	O	-0.188920	-0.768935	-0.264625
O13	O	-0.244105	-0.870980	-0.443989
O14	O	-0.244098	-0.768897	-0.341926
O15	O	-0.188932	-0.948364	-0.444021
O16	O	-0.316956	-0.948163	-0.264600
O17	O	-0.316942	-0.870866	-0.341911
C18	C	-0.216506	-0.746075	-0.303273
C19	C	-0.216508	-0.676107	-0.303279
C20	C	-0.187843	-0.176694	-0.343627
C21	C	-0.187841	-0.242436	-0.343628
C22	C	-0.216527	-0.275268	-0.303296
C23	C	-0.245225	-0.242352	-0.262971
C24	C	-0.245229	-0.176610	-0.262975
N25	N	-0.219909	-0.378457	-0.248178
N26	N	-0.219902	-0.440908	-0.248176
C27	C	-0.216516	-0.473343	-0.303281
N28	N	-0.213129	-0.440966	-0.358390
N29	N	-0.213133	-0.378509	-0.358392
C30	C	-0.216526	-0.346553	-0.303287
C31	C	-0.187820	-0.577537	-0.343608
C32	C	-0.187821	-0.643280	-0.343611
C33	C	-0.245203	-0.643194	-0.262948
C34	C	-0.245204	-0.577452	-0.262951
C35	C	-0.216510	-0.544627	-0.303280
C36	C	-0.333250	-0.909513	-0.303263
C37	C	-0.383184	-0.909522	-0.303271
C38	C	-0.692822	-0.949949	-0.263097
C39	C	-0.880495	-0.950027	-0.263121
O40	O	-0.904756	-0.984309	-0.228940
N41	N	-0.903969	-0.909758	-0.303342
C42	C	-0.880522	-0.869469	-0.343562
O43	O	-0.904794	-0.835224	-0.377777
C44	C	-0.692849	-0.869395	-0.343540
C45	C	-0.669378	-0.909662	-0.303312
C46	C	-0.669351	-0.990213	-0.222873
C47	C	-0.622435	-0.990191	-0.222865
C48	C	-0.598991	-0.949904	-0.263080
C49	C	-0.622463	-0.909640	-0.303304
C50	C	-0.669403	-0.829110	-0.383763
C51	C	-0.622482	-0.829097	-0.383755
C52	C	-0.599011	-0.869364	-0.343527
C53	C	-0.552103	-0.869331	-0.343512
N54	N	-0.528629	-0.909600	-0.303291
C55	C	-0.552073	-0.949887	-0.263076
C56	C	-0.979052	-0.869510	-0.343569
C57	C	-1.025970	-0.869528	-0.343574
C58	C	-1.025940	-0.950086	-0.263134
C59	C	-0.979022	-0.950065	-0.263127
C60	C	-0.955578	-0.909779	-0.303349
C61	C	-0.453548	-0.949837	-0.263061
C62	C	-0.406628	-0.949809	-0.263055
C63	C	-0.406662	-0.869253	-0.343497
C64	C	-0.453577	-0.869278	-0.343501
C65	C	-0.477019	-0.909575	-0.303281
O66	O	-0.527814	-0.835072	-0.377680
O67	O	-0.527793	-0.984136	-0.228876
C68	C	-0.739738	-0.949971	-0.263105
C69	C	-0.763209	-0.909707	-0.303329
C70	C	-0.739765	-0.869420	-0.343544
C71	C	-0.810127	-0.909724	-0.303333
C72	C	-0.833571	-0.950011	-0.263118
C73	C	-0.810097	-0.990280	-0.222897
C74	C	-0.763182	-0.990258	-0.222889
C75	C	-0.763239	-0.829151	-0.383765
C76	C	-0.810154	-0.829176	-0.383769
C77	C	-0.833598	-0.869463	-0.343553
C78	C	-0.099349	-0.909758	-0.303339
C79	C	-0.049414	-0.909814	-0.303358
C80	C	-0.216517	-0.909679	-0.467484
C81	C	-0.216513	-0.909702	-0.537452
C82	C	-0.216543	-0.073817	-0.303310
C83	C	-0.216535	-0.143785	-0.303304
C84	C	-0.187784	-0.949993	-0.570337
C85	C	-0.187764	-0.949993	-0.636079
C86	C	-0.216482	-0.909706	-0.668935
C87	C	-0.245214	-0.869407	-0.636043
C88	C	-0.245230	-0.869404	-0.570302
N89	N	-0.255783	-0.904839	-0.772152
N90	N	-0.255767	-0.904845	-0.834603
C91	C	-0.216437	-0.909710	-0.867010
N92	N	-0.177123	-0.914582	-0.834606
N93	N	-0.177139	-0.914579	-0.772149
C94	C	-0.216469	-0.909704	-0.740220
C95	C	-0.187684	-0.950004	-0.971179
C96	C	-0.187663	-0.949998	-1.036923
C97	C	-0.245117	-0.869416	-1.036886
C98	C	-0.245134	-0.869418	-0.971144
C99	C	-0.216417	-0.909715	-0.938294
C100	C	-0.216504	-0.909611	-0.139742
C101	C	-0.216381	-0.909711	-0.069775
H102	H	-0.268582	-0.269087	-0.230134
H103	H	-0.268595	-0.149817	-0.230139
H104	H	-0.472689	-0.836491	-0.376260
H105	H	-0.164456	-0.550809	-0.376447
H106	H	-0.164400	-0.982806	-0.543595
C107	C	-0.156056	-0.994324	-1.073096
N108	N	-0.132249	-1.027711	-1.100341
C109	C	-0.156092	-0.994325	-0.935043
N110	N	-0.132295	-1.027708	-0.907827
H111	H	-0.164458	-0.670073	-0.376450
C112	C	-0.276708	-0.825101	-1.073024
N113	N	-0.300503	-0.791721	-1.100246
H114	H	-0.268563	-0.669925	-0.230114
H115	H	-0.268531	-0.836611	-0.944369
H116	H	-0.164474	-0.269235	-0.376462
C117	C	-0.156283	-0.140590	-0.387995
N118	N	-0.132512	-0.113396	-0.421416
C119	C	-0.276837	-0.825080	-0.534128
N120	N	-0.300645	-0.791694	-0.506881
H121	H	-1.045076	-0.836732	-0.376325
H122	H	-0.268567	-0.550658	-0.230114
H123	H	-0.387519	-0.982599	-0.230295
H124	H	-0.472628	-0.982652	-0.230312
C125	C	-0.596623	-1.034483	-0.178606
N126	N	-0.577184	-1.067845	-0.145266
H127	H	-0.688434	-1.023023	-0.190124
H128	H	-0.959914	-0.982854	-0.230370
H129	H	-0.164367	-0.982802	-0.662858
H130	H	-1.045037	-0.982889	-0.230389
C131	C	-0.276802	-0.825089	-0.672186
N132	N	-0.300594	-0.791705	-0.699409
H133	H	-0.387566	-0.836450	-0.376238
C134	C	-0.953270	-0.825206	-0.387836
N135	N	-0.933854	-0.791841	-0.421184
C136	C	-0.737369	-1.034553	-0.178633
N137	N	-0.717930	-1.067918	-0.145296
H138	H	-0.688505	-0.796318	-0.416517
H139	H	-0.603397	-0.796292	-0.416511
H140	H	-0.829194	-1.023081	-0.190150
H141	H	-0.744154	-0.796346	-0.416514
C142	C	-0.835967	-0.784875	-0.428025
N143	N	-0.855408	-0.751512	-0.461361
