data_functionalizedCrystal
_audit_creation_method	'MofGen! by Chris Wilmer'
_symmetry_space_group_name_H-M	'P1'
_symmetry_Int_Tables_number	1
_symmetry_cell_setting	triclinic
loop_
_symmetry_equiv_pos_as_xyz
  x,y,z
_cell_length_a	13.033293
_cell_length_b	25.639240
_cell_length_c	13.033352
_cell_angle_alpha	82.842620
_cell_angle_beta	90.908427
_cell_angle_gamma	97.200942
loop_
_atom_site_label
_atom_site_type_symbol
_atom_site_fract_x
_atom_site_fract_y
_atom_site_fract_z
Zn1	Zn	1.498176	-0.162832	0.781381
Zn2	Zn	1.519930	-0.237931	0.609380
Zn3	Zn	1.348090	-0.160029	0.587565
Zn4	Zn	1.326130	-0.259759	0.759405
O5	O	1.423081	-0.205138	0.684433
O6	O	1.644979	-0.164832	0.776892
O7	O	1.515429	-0.217289	0.462588
O8	O	1.368085	-0.087235	0.613342
O9	O	1.660962	-0.220007	0.650523
O10	O	1.478353	-0.089294	0.755738
O11	O	1.389179	-0.160055	0.446560
O12	O	1.201259	-0.181221	0.592033
O13	O	1.330658	-0.257209	0.906219
O14	O	1.185125	-0.254492	0.718283
O15	O	1.457060	-0.185997	0.922365
O16	O	1.494135	-0.313993	0.629214
O17	O	1.351752	-0.330030	0.739437
C18	C	1.155876	-0.219921	0.650407
C19	C	1.041561	-0.226260	0.635875
C20	C	0.982676	-0.201843	0.692017
C21	C	0.864525	-0.208394	0.676999
C22	C	1.422946	-0.340983	0.684334
C23	C	1.422978	-0.399095	0.684338
C24	C	1.480515	-0.760498	0.758701
C25	C	1.480543	-0.815102	0.758726
O26	O	1.529301	-0.844227	0.821848
N27	N	1.423211	-0.841376	0.684550
C28	C	1.365840	-0.813044	0.610352
O29	O	1.317077	-0.840406	0.547262
C30	C	1.365807	-0.758442	0.610332
C31	C	1.423151	-0.732170	0.684506
C32	C	1.537853	-0.734226	0.832870
C33	C	1.537827	-0.679625	0.832844
C34	C	1.480463	-0.651297	0.758649
C35	C	1.423124	-0.677569	0.684480
C36	C	1.308431	-0.730111	0.536139
C37	C	1.308402	-0.675505	0.536126
C38	C	1.365746	-0.649233	0.610300
C39	C	1.365734	-0.594640	0.610259
N40	N	1.423065	-0.568366	0.684435
C41	C	1.480430	-0.596694	0.758630
C42	C	1.365912	-0.927713	0.610399
C43	C	1.365950	-0.982314	0.610413
C44	C	1.480652	-0.984368	0.758789
C45	C	1.480619	-0.929766	0.758770
C46	C	1.423244	-0.901439	0.684575
C47	C	1.480371	-0.482029	0.758568
C48	C	1.480343	-0.427423	0.758533
C49	C	1.365637	-0.425374	0.610161
C50	C	1.365669	-0.479975	0.610192
C51	C	1.423038	-0.508301	0.684405
O52	O	1.316997	-0.565482	0.547172
O53	O	1.529174	-0.569327	0.821717
C54	C	1.691330	-0.190297	0.718592
C55	C	1.805642	-0.183973	0.733149
C56	C	1.388983	-0.224351	0.952647
C57	C	1.374452	-0.232538	1.066943
C58	C	1.423242	-0.068763	0.684558
C59	C	1.423311	-0.010648	0.684612
C60	C	1.430515	-0.200954	1.125889
C61	C	1.415498	-0.209416	1.244021
C62	C	1.457039	-0.186013	1.417261
C63	C	1.471568	-0.177827	1.302965
H64	H	1.004505	-0.252013	0.576689
N65	N	1.542196	-0.399087	0.838536
H66	H	1.578535	-0.425322	0.885543
H67	H	1.494237	-0.382162	0.880745
N68	N	0.854709	-0.149860	0.811559
H69	H	0.799178	-0.134466	0.846963
H70	H	0.904605	-0.120183	0.775423
N71	N	1.337193	-0.253537	1.293005
H72	H	1.301844	-0.273453	1.237438
H73	H	1.283999	-0.238057	1.331532
N74	N	1.304107	-1.010642	0.530400
H75	H	1.251113	-1.038936	0.566081
H76	H	1.352074	-1.027531	0.488136
N77	N	1.599700	-0.764778	0.912924
H78	H	1.636003	-0.739842	0.959907
H79	H	1.652669	-0.781797	0.877208
N80	N	1.303766	-0.394810	0.530149
H81	H	1.228253	-0.409547	0.536710
H82	H	1.329216	-0.398180	0.458767
H83	H	1.530682	-0.144518	1.265979
H84	H	1.527078	-0.505087	0.819005
N85	N	1.599665	-0.651298	0.912860
H86	H	1.551762	-0.634378	0.955144
H87	H	1.652658	-0.623027	0.877114
N88	N	1.542466	-0.901431	0.838771
H89	H	1.578809	-0.927668	0.885771
H90	H	1.494506	-0.884511	0.880986
N91	N	1.304040	-0.897165	0.530352
H92	H	1.351916	-0.868778	0.488050
H93	H	1.251021	-0.880185	0.566081
H94	H	1.019732	-0.176086	0.751197
N95	N	1.303836	-0.508312	0.530180
H96	H	1.250843	-0.536606	0.565864
H97	H	1.351811	-0.525203	0.487928
H98	H	1.527359	-1.007443	0.819204
N99	N	1.246583	-0.758439	0.456134
H100	H	1.210239	-0.732200	0.409140
H101	H	1.193647	-0.786735	0.491896
H102	H	1.315330	-0.265840	1.103933
H103	H	1.489626	-0.167648	1.088898
N104	N	0.815463	-0.242514	0.598597
H105	H	0.843434	-0.228049	0.527508
H106	H	0.738023	-0.242347	0.599069
H107	H	1.261677	-0.652445	0.475709
