data_functionalizedCrystal
_audit_creation_method	'MofGen! by Chris Wilmer'
_symmetry_space_group_name_H-M	'P1'
_symmetry_Int_Tables_number	1
_symmetry_cell_setting	triclinic
loop_
_symmetry_equiv_pos_as_xyz
  x,y,z
_cell_length_a	18.215407
_cell_length_b	14.908520
_cell_length_c	18.215399
_cell_angle_alpha	86.730636
_cell_angle_beta	90.016899
_cell_angle_gamma	93.318021
loop_
_atom_site_label
_atom_site_type_symbol
_atom_site_fract_x
_atom_site_fract_y
_atom_site_fract_z
Zn1	Zn	1.108174	-0.359229	0.432964
Zn2	Zn	1.608174	0.140771	0.932964
Zn3	Zn	1.100986	-0.510098	0.316998
Zn4	Zn	1.600986	-0.010098	0.816998
Zn5	Zn	0.985106	-0.359251	0.309919
Zn6	Zn	1.485106	0.140749	0.809919
Zn7	Zn	0.977979	-0.510040	0.440026
Zn8	Zn	1.477979	-0.010040	0.940026
O9	O	1.043061	-0.434654	0.374977
O10	O	1.543061	0.065346	0.874977
O11	O	1.210204	-0.379258	0.417588
O12	O	1.710204	0.120742	0.917588
O13	O	1.085589	-0.490121	0.213076
O14	O	1.585589	0.009879	0.713076
O15	O	1.007422	-0.233003	0.320323
O16	O	1.507422	0.266997	0.820323
O17	O	1.204923	-0.490100	0.332388
O18	O	1.704923	0.009900	0.832388
O19	O	1.097840	-0.232987	0.410723
O20	O	1.597840	0.267013	0.910723
O21	O	1.000452	-0.379294	0.207875
O22	O	1.500452	0.120706	0.707875
O23	O	0.881177	-0.379238	0.327171
O24	O	1.381177	0.120762	0.827171
O25	O	0.995275	-0.490001	0.542072
O26	O	1.495275	0.009999	1.042072
O27	O	0.875941	-0.490022	0.422760
O28	O	1.375941	0.009978	0.922760
O29	O	1.090929	-0.379201	0.536883
O30	O	1.590929	0.120799	1.036883
O31	O	1.078678	-0.636335	0.339236
O32	O	1.578678	-0.136335	0.839236
O33	O	0.988305	-0.636292	0.429624
O34	O	1.488305	-0.136292	0.929624
C35	C	0.851856	-0.434627	0.374964
C36	C	1.351856	0.065373	0.874964
C37	C	0.770057	-0.434637	0.374977
C38	C	1.270057	0.065363	0.874977
C39	C	0.502287	-0.492434	0.424690
C40	C	1.002287	0.007566	0.924690
C41	C	0.579146	-0.492427	0.424686
C42	C	1.079146	0.007573	0.924686
C43	C	0.584576	-0.376895	0.325277
C44	C	1.084576	0.123105	0.825277
C45	C	0.507718	-0.376908	0.325278
C46	C	1.007718	0.123092	0.825278
C47	C	0.466575	-0.434676	0.374989
C48	C	0.966575	0.065324	0.874989
C49	C	0.620293	-0.434656	0.374984
C50	C	1.120293	0.065344	0.874984
C51	C	0.703627	-0.434647	0.374979
C52	C	1.203627	0.065353	0.874979
C53	C	0.383236	-0.434686	0.374992
C54	C	0.883236	0.065314	0.874992
C55	C	1.031958	-0.669047	0.385981
C56	C	1.531958	-0.169047	0.885981
C57	C	1.027275	-0.769322	0.390713
C58	C	1.527275	-0.269322	0.890713
C59	C	1.112678	-0.957731	0.305559
C60	C	1.612678	-0.457731	0.805559
C61	C	1.108281	-1.051948	0.310003
C62	C	1.608281	-0.551948	0.810003
C63	C	1.014088	-1.051973	0.404048
C64	C	1.514088	-0.551973	0.904048
C65	C	1.018485	-0.957757	0.399604
C66	C	1.518485	-0.457757	0.899604
C67	C	1.067781	-0.910639	0.350357
C68	C	1.567781	-0.410639	0.850357
C69	C	1.072174	-0.816420	0.345910
C70	C	1.572174	-0.316420	0.845910
C71	C	0.977985	-0.816448	0.439958
C72	C	1.477985	-0.316448	0.939958
C73	C	0.973588	-0.910664	0.444402
C74	C	1.473588	-0.410664	0.944402
C75	C	1.235013	-0.434683	0.374990
C76	C	1.735013	0.065317	0.874990
C77	C	1.316811	-0.434695	0.374995
C78	C	1.816811	0.065305	0.874995
C79	C	1.043109	-0.434592	0.566927
C80	C	1.543109	0.065408	1.066927
C81	C	1.043129	-0.434566	0.648724
C82	C	1.543129	0.065434	1.148724
C83	C	1.054228	-0.199346	0.363946
C84	C	1.554228	0.300654	0.863946
C85	C	1.058986	-0.099072	0.359245
C86	C	1.558986	0.400928	0.859245
C87	C	1.043059	-0.434651	0.183770
C88	C	1.543059	0.065349	0.683770
C89	C	1.043193	-0.434424	0.101961
C90	C	1.543193	0.065576	0.601961
C91	C	1.092956	-0.376818	0.834215
C92	C	1.592956	0.123182	1.334215
C93	C	1.092966	-0.376792	0.911073
C94	C	1.592966	0.123208	1.411073
C95	C	0.993361	-0.492174	0.916465
C96	C	1.493361	0.007826	1.416465
C97	C	0.993348	-0.492195	0.839608
C98	C	1.493348	0.007805	1.339608
C99	C	1.043150	-0.434518	0.798486
C100	C	1.543150	0.065482	1.298486
C101	C	1.043173	-0.434471	0.952200
C102	C	1.543173	0.065529	1.452200
C103	C	1.043183	-0.434443	1.035532
C104	C	1.543183	0.065557	1.535532
C105	C	1.043139	-0.434545	0.715148
C106	C	1.543139	0.065455	1.215148
H107	H	0.478641	-0.329873	0.284802
H108	H	0.978641	0.170127	0.784802
H109	H	0.952785	-0.539180	0.810517
H110	H	1.452785	-0.039180	1.310517
Cl111	Cl	0.636303	-0.304271	0.262792
Cl112	Cl	1.136303	0.195729	0.762792
H113	H	1.133522	-0.329805	0.940160
H114	H	1.633522	0.170195	1.440160
Cl115	Cl	0.930761	-0.564682	0.968167
Cl116	Cl	1.430761	-0.064682	1.468167
Cl117	Cl	1.134143	-0.757188	0.283998
Cl118	Cl	1.634143	-0.257188	0.783998
H119	H	0.608218	-0.539460	0.465157
H120	H	1.108218	-0.039460	0.965157
Cl121	Cl	1.164727	-1.111147	0.253685
Cl122	Cl	1.664727	-0.611147	0.753685
Cl123	Cl	0.450567	-0.565061	0.487180
Cl124	Cl	0.950567	-0.065061	0.987180
H125	H	1.152812	-0.919367	0.265456
H126	H	1.652812	-0.419367	0.765456
H127	H	0.973958	-1.090353	0.444147
H128	H	1.473958	-0.590353	0.944147
H129	H	0.933454	-0.949040	0.484499
H130	H	1.433454	-0.449040	0.984499
H131	H	0.941425	-0.778095	0.476433
H132	H	1.441425	-0.278095	0.976433
Cl133	Cl	1.155560	-0.304308	0.782521
Cl134	Cl	1.655560	0.195692	1.282521
