data_functionalizedCrystal
_audit_creation_method	'MofGen! by Chris Wilmer'
_symmetry_space_group_name_H-M	'P1'
_symmetry_Int_Tables_number	1
_symmetry_cell_setting	triclinic
loop_
_symmetry_equiv_pos_as_xyz
  x,y,z
_cell_length_a	11.026607
_cell_length_b	27.732048
_cell_length_c	9.482900
_cell_angle_alpha	99.251554
_cell_angle_beta	78.636152
_cell_angle_gamma	95.614336
loop_
_atom_site_label
_atom_site_type_symbol
_atom_site_fract_x
_atom_site_fract_y
_atom_site_fract_z
O1	O	1.625408	0.196163	-0.120955
O2	O	1.272533	0.173153	-0.120950
O3	O	1.459925	0.115249	-0.120925
O4	O	1.438015	0.254067	-0.120980
O5	O	1.421861	0.127071	0.120862
O6	O	1.234468	0.184975	0.120837
O7	O	1.587343	0.207985	0.120832
Cu8	Cu	1.407430	0.197559	0.142912
Cu9	Cu	1.452446	0.183578	-0.143030
O10	O	1.399950	0.265889	0.120807
C11	C	1.208369	0.174819	-0.000055
C12	C	1.073891	0.162164	-0.000052
C13	C	0.999433	0.197105	-0.000067
C14	C	0.860443	0.184027	-0.000064
C15	C	1.440432	0.103112	-0.000028
C16	C	1.439045	0.049333	-0.000016
C17	C	1.541074	-0.280305	-0.000092
C18	C	1.535937	-0.482429	-0.000112
O19	O	1.629234	-0.505292	-0.000177
N20	N	1.424818	-0.511552	-0.000109
C21	C	1.314976	-0.490142	-0.000110
O22	O	1.220347	-0.519552	-0.000123
C23	C	1.320117	-0.288020	-0.000101
C24	C	1.431241	-0.258899	-0.000089
C25	C	1.652189	-0.251184	-0.000082
C26	C	1.653471	-0.200656	-0.000069
C27	C	1.543638	-0.179249	-0.000066
C28	C	1.432523	-0.208371	-0.000076
C29	C	1.210279	-0.266612	-0.000113
C30	C	1.211574	-0.216078	-0.000114
C31	C	1.322698	-0.186957	-0.000102
C32	C	1.323971	-0.136436	-0.000060
N33	N	1.435090	-0.107312	-0.000063
C34	C	1.544923	-0.128719	-0.000066
C35	C	1.312285	-0.596259	-0.000113
C36	C	1.310999	-0.646789	-0.000113
C37	C	1.531960	-0.639072	-0.000117
C38	C	1.533243	-0.588540	-0.000106
C39	C	1.423404	-0.567135	-0.000116
C40	C	1.547607	-0.022606	-0.000037
C41	C	1.548878	0.027926	-0.000018
C42	C	1.327919	0.020204	-0.000022
C43	C	1.326646	-0.030324	-0.000033
C44	C	1.436501	-0.051728	-0.000046
O45	O	1.230726	-0.113540	-0.000011
O46	O	1.639544	-0.099302	-0.000085
C47	C	1.539792	-0.330833	-0.000105
C48	C	1.428677	-0.359955	-0.000115
C49	C	1.318844	-0.338548	-0.000112
C50	C	1.427391	-0.410485	-0.000115
C51	C	1.537224	-0.431892	-0.000117
C52	C	1.648343	-0.402768	-0.000120
C53	C	1.649625	-0.352240	-0.000107
C54	C	1.207725	-0.367672	-0.000109
C55	C	1.206451	-0.418199	-0.000120
C56	C	1.316285	-0.439606	-0.000123
C57	C	1.651507	0.206319	-0.000066
C58	C	1.785986	0.218973	-0.000079
C59	C	1.419444	0.278026	-0.000094
C60	C	1.420833	0.331805	-0.000115
N61	N	1.375777	0.207393	0.344028
N62	N	1.484109	0.173742	-0.344146
C63	C	1.443101	0.186476	0.416236
C64	C	1.416774	0.194662	0.583650
H65	H	1.038583	0.236702	-0.000074
H66	H	0.821304	0.144426	-0.000085
N67	N	0.837819	0.271428	-0.000085
H68	H	0.929760	0.273337	-0.000083
H69	H	0.823238	0.283634	-0.089725
N70	N	1.022045	0.109713	-0.000014
H71	H	0.930104	0.107806	-0.000011
H72	H	1.064846	0.088741	-0.089639
H73	H	1.122128	-0.198654	-0.000123
N74	N	1.666094	-0.045682	-0.000033
H75	H	1.656376	-0.062097	0.089597
H76	H	1.684558	-0.070829	-0.089724
N77	N	1.668736	0.059337	0.000003
H78	H	1.738118	0.038105	-0.000005
H79	H	1.688197	0.076095	-0.089624
N80	N	1.314593	0.226410	0.665919
H81	H	1.350768	0.254844	0.729054
H82	H	1.273315	0.239209	0.594639
N83	N	1.773327	-0.169250	-0.000061
H84	H	1.842702	-0.190485	-0.000068
H85	H	1.792790	-0.152495	-0.089694
H86	H	1.741635	-0.268607	-0.000089
H87	H	1.740114	-0.328533	-0.000098
N88	N	1.653096	-0.557132	-0.000093
H89	H	1.722473	-0.578365	-0.000090
H90	H	1.672562	-0.540378	-0.089728
N91	N	1.586277	0.141986	0.573596
H92	H	1.590604	0.140637	0.465661
H93	H	1.668036	0.156256	0.600098
H94	H	1.621391	-0.656509	-0.000118
N95	N	1.273605	0.239142	0.426305
H96	H	1.291286	0.273319	0.399879
H97	H	1.191836	0.224849	0.399881
N98	N	1.191139	-0.678194	-0.000086
H99	H	1.121762	-0.656961	-0.000083
H100	H	1.199892	-0.703707	-0.089716
N101	N	1.193808	-0.573175	-0.000119
H102	H	1.123229	-0.599296	-0.000113
H103	H	1.175412	-0.548000	0.089515
H104	H	1.119791	-0.290315	-0.000131
H105	H	1.236153	-0.054034	-0.000002
H106	H	1.238495	0.037643	-0.000014
N107	N	1.766806	-0.425861	-0.000110
H108	H	1.749119	-0.462290	-0.000118
H109	H	1.829389	-0.419724	-0.089743
H110	H	1.115952	-0.441906	-0.000117
N111	N	1.089256	-0.344587	-0.000107
H112	H	1.018677	-0.370708	-0.000107
H113	H	1.070861	-0.319415	0.089534
H114	H	1.520227	0.162505	0.354118
