data_functionalizedCrystal
_audit_creation_method	'MofGen! by Chris Wilmer'
_symmetry_space_group_name_H-M	'P1'
_symmetry_Int_Tables_number	1
_symmetry_cell_setting	triclinic
loop_
_symmetry_equiv_pos_as_xyz
  x,y,z
_cell_length_a	14.586319
_cell_length_b	19.288864
_cell_length_c	16.109296
_cell_angle_alpha	83.297911
_cell_angle_beta	90.002940
_cell_angle_gamma	89.982652
loop_
_atom_site_label
_atom_site_type_symbol
_atom_site_fract_x
_atom_site_fract_y
_atom_site_fract_z
O1	O	0.076521	-0.921594	-0.103714
O2	O	0.076456	-0.719366	-0.117705
O3	O	0.076500	-0.826037	0.010341
O4	O	0.076477	-0.814923	-0.231760
O5	O	-0.075981	-0.826029	0.010343
O6	O	-0.076024	-0.719359	-0.117703
O7	O	-0.075960	-0.921586	-0.103712
Cu8	Cu	-0.089915	-0.820472	-0.110707
Cu9	Cu	0.090411	-0.820481	-0.110710
O10	O	-0.076003	-0.814915	-0.231758
C11	C	0.000208	-0.693485	-0.117254
C12	C	0.000184	-0.616378	-0.115902
N13	N	-0.216747	-0.820471	-0.110705
C14	C	0.000264	-0.825584	0.041315
C15	C	0.000277	-0.824236	0.133606
C16	C	-0.451734	-0.867720	-0.054026
C17	C	-0.547715	-0.867722	-0.054024
C18	C	-0.547763	-0.773233	-0.167388
C19	C	-0.451783	-0.773228	-0.167385
C20	C	-0.403771	-0.820475	-0.110705
C21	C	-0.595732	-0.820482	-0.110705
C22	C	-0.699799	-0.820484	-0.110704
C23	C	-0.299698	-0.820473	-0.110705
N24	N	0.217243	-0.820487	-0.110705
C25	C	0.000291	-0.947467	-0.104163
C26	C	0.000320	-1.024574	-0.105515
C27	C	0.000192	-0.571860	-0.191034
C28	C	0.000202	-0.499410	-0.189764
C29	C	0.000223	-0.471481	-0.113359
C30	C	0.000211	-0.516009	-0.038218
C31	C	0.000191	-0.588457	-0.039489
C32	C	0.053680	-0.363079	-0.053297
C33	C	0.053705	-0.290632	-0.052028
C34	C	0.000279	-0.248026	-0.109433
C35	C	-0.053161	-0.277876	-0.168122
C36	C	-0.053180	-0.350324	-0.169393
C37	C	0.000244	-0.392924	-0.111972
C38	C	0.000296	-0.124949	-0.183193
C39	C	0.000301	-0.052498	-0.181921
C40	C	0.000319	-0.069099	-0.030372
C41	C	0.000305	-0.141548	-0.031647
C42	C	0.000298	-0.169469	-0.108060
C43	C	0.083381	-0.819840	0.432659
C44	C	0.083386	-0.821116	0.345943
C45	C	-0.082857	-0.821118	0.345931
C46	C	-0.082861	-0.819847	0.432646
C47	C	0.000261	-0.819205	0.476007
C48	C	0.000269	-0.821752	0.302577
C49	C	0.000274	-0.823136	0.208556
C50	C	0.000257	-0.817822	0.570034
C51	C	0.000241	-0.815370	0.737268
C52	C	0.000254	-0.816721	0.644978
H53	H	-0.412644	-0.906191	-0.007872
F54	F	-0.171316	-0.821799	0.299775
F55	F	-0.171333	-0.819174	0.478783
H56	H	-0.586864	-0.734766	-0.213536
H57	H	-0.586763	-0.906192	-0.007869
F58	F	0.000229	-0.486284	0.043098
F59	F	0.171854	-0.821795	0.299813
F60	F	-0.400734	-0.722939	-0.227711
F61	F	0.000181	-0.601571	-0.272360
F62	F	0.000207	-0.452022	-0.269733
H63	H	-0.096696	-0.374625	-0.217177
F64	F	0.110547	-0.408417	0.007807
F65	F	-0.110025	-0.232537	-0.229222
F66	F	0.000282	-0.154667	-0.264518
F67	F	0.000302	-0.188929	0.048320
F68	F	0.110588	-0.258870	0.010426
H69	H	0.000301	-0.016251	-0.243104
H70	H	0.000393	-0.046360	0.031839
H71	H	0.151064	-0.819316	0.467961
F72	F	0.000183	-0.635839	0.040479
