data_functionalizedCrystal
_audit_creation_method	'MofGen! by Chris Wilmer'
_symmetry_space_group_name_H-M	'P1'
_symmetry_Int_Tables_number	1
_symmetry_cell_setting	triclinic
loop_
_symmetry_equiv_pos_as_xyz
  x,y,z
_cell_length_a	19.288857
_cell_length_b	14.853569
_cell_length_c	17.766277
_cell_angle_alpha	89.992614
_cell_angle_beta	89.991474
_cell_angle_gamma	83.384337
loop_
_atom_site_label
_atom_site_type_symbol
_atom_site_fract_x
_atom_site_fract_y
_atom_site_fract_z
O1	O	0.090691	1.195851	-0.062563
O2	O	0.424024	1.529184	0.270770
O3	O	0.757357	1.862518	0.604103
O4	O	0.101492	0.933330	-0.062573
O5	O	0.434825	1.266663	0.270760
O6	O	0.768159	1.599997	0.604094
O7	O	-0.005014	1.072180	-0.062559
O8	O	0.328320	1.405513	0.270774
O9	O	0.661653	1.738846	0.604108
O10	O	0.197196	1.057001	-0.062578
O11	O	0.530530	1.390335	0.270756
O12	O	0.863863	1.723668	0.604089
O13	O	-0.005019	1.072155	0.062630
O14	O	0.328314	1.405489	0.395963
O15	O	0.661648	1.738822	0.729296
O16	O	0.101487	0.933306	0.062616
O17	O	0.434820	1.266639	0.395949
O18	O	0.768153	1.599972	0.729282
O19	O	0.090685	1.195827	0.062625
O20	O	0.424018	1.529160	0.395958
O21	O	0.757352	1.862493	0.729292
Cu22	Cu	0.096085	1.064564	0.074051
Cu23	Cu	0.429419	1.397897	0.407384
Cu24	Cu	0.762752	1.731231	0.740718
Cu25	Cu	0.096092	1.064593	-0.073999
Cu26	Cu	0.429425	1.397926	0.259334
Cu27	Cu	0.762759	1.731259	0.592668
O28	O	0.197191	1.056977	0.062611
O29	O	0.530524	1.390310	0.395944
O30	O	0.863858	1.723644	0.729278
C31	C	0.101000	0.899732	0.000020
C32	C	0.434333	1.233065	0.333354
C33	C	0.767666	1.566399	0.666687
C34	C	0.099533	0.799657	0.000017
C35	C	0.432866	1.132990	0.333350
C36	C	0.766199	1.466323	0.666684
C37	C	0.035577	0.763646	0.000020
C38	C	0.368911	1.096979	0.333353
C39	C	0.702244	1.430313	0.666687
C40	C	0.162109	0.741633	0.000017
C41	C	0.495443	1.074966	0.333350
C42	C	0.828776	1.408299	0.666684
C43	C	0.160733	0.647606	0.000018
C44	C	0.494066	0.980940	0.333351
C45	C	0.827400	1.314273	0.666685
C46	C	0.096778	0.611596	0.000021
C47	C	0.430111	0.944929	0.333354
C48	C	0.763445	1.278262	0.666688
C49	C	0.034199	0.669611	0.000023
C50	C	0.367532	1.002945	0.333357
C51	C	0.700866	1.336278	0.666690
C52	C	0.223311	0.589584	0.000023
C53	C	0.556644	0.922917	0.333357
C54	C	0.889977	1.256251	0.666690
C55	C	0.221937	0.495551	0.000025
C56	C	0.555270	0.828885	0.333358
C57	C	0.888603	1.162218	0.666692
C58	C	0.157981	0.459539	0.000023
C59	C	0.491314	0.792872	0.333356
C60	C	0.824647	1.126206	0.666690
C61	C	0.095399	0.517561	0.000024
C62	C	0.428733	0.850894	0.333358
C63	C	0.762066	1.184228	0.666691
C64	C	0.031444	0.481550	0.000028
C65	C	0.364778	0.814884	0.333361
C66	C	0.698111	1.148217	0.666694
C67	C	-0.031138	0.539571	0.000024
C68	C	0.302196	0.872904	0.333357
C69	C	0.635529	1.206238	0.666690
C70	C	-0.029757	0.633599	0.000021
C71	C	0.303576	0.966933	0.333355
C72	C	0.636910	1.300266	0.666688
C73	C	0.156600	0.365511	0.000025
C74	C	0.489933	0.698844	0.333359
C75	C	0.823267	1.032177	0.666692
C76	C	0.030066	0.387516	0.000031
C77	C	0.363399	0.720849	0.333364
C78	C	0.696733	1.054182	0.666698
C79	C	-0.030895	1.071680	0.000036
C80	C	0.302439	1.405014	0.333369
C81	C	0.635772	1.738347	0.666703
C82	C	-0.108003	1.070218	0.000038
C83	C	0.225330	1.403551	0.333371
C84	C	0.558663	1.736884	0.666705
C85	C	-0.144213	1.069548	-0.068202
C86	C	0.189120	1.402882	0.265131
C87	C	0.522453	1.736215	0.598464
C88	C	-0.216664	1.068161	-0.068208
C89	C	0.116669	1.401495	0.265125
C90	C	0.450003	1.734828	0.598459
C91	C	-0.252904	1.067462	0.000031
C92	C	0.080429	1.400795	0.333364
C93	C	0.413763	1.734128	0.666697
C94	C	-0.216685	1.068126	0.068280
C95	C	0.116649	1.401459	0.401613
C96	C	0.449982	1.734793	0.734947
C97	C	-0.144234	1.069504	0.068284
C98	C	0.189099	1.402837	0.401617
C99	C	0.522432	1.736171	0.734951
C100	C	-0.372966	1.118073	0.052308
C101	C	-0.039633	1.451406	0.385641
C102	C	0.293700	1.784740	0.718974
C103	C	-0.445416	1.116701	0.052301
C104	C	-0.112083	1.450034	0.385634
C105	C	0.221251	1.783367	0.718968
C106	C	-0.476364	1.063207	0.000022
C107	C	-0.143031	1.396541	0.333355
C108	C	0.190303	1.729874	0.666689
C109	C	-0.434855	1.011098	-0.052263
C110	C	-0.101522	1.344432	0.281070
C111	C	0.231812	1.677765	0.614404
C112	C	-0.362405	1.012477	-0.052259
C113	C	-0.029071	1.345810	0.281074
C114	C	0.304262	1.679143	0.614407
C115	C	-0.331464	1.065967	0.000034
C116	C	0.001869	1.399300	0.333368
C117	C	0.335203	1.732634	0.666701
C118	C	-0.591133	1.061033	-0.068229
C119	C	-0.257800	1.394366	0.265104
C120	C	0.075533	1.727699	0.598438
C121	C	-0.663585	1.059640	-0.068232
C122	C	-0.330251	1.392973	0.265101
C123	C	0.003082	1.726307	0.598435
C124	C	-0.663605	1.059614	0.068258
C125	C	-0.330271	1.392947	0.401591
C126	C	0.003062	1.726281	0.734925
C127	C	-0.591154	1.060998	0.068259
C128	C	-0.257820	1.394331	0.401592
C129	C	0.075513	1.727664	0.734926
C130	C	-0.554923	1.061711	0.000013
C131	C	-0.221589	1.395045	0.333347
C132	C	0.111744	1.728378	0.666680
C133	C	0.223072	1.057476	0.000014
C134	C	0.556405	1.390810	0.333348
C135	C	0.889739	1.724143	0.666681
C136	C	0.300181	1.058939	0.000007
C137	C	0.633514	1.392272	0.333341
C138	C	0.966847	1.725606	0.666674
C139	C	0.091177	1.229425	0.000030
C140	C	0.424511	1.562758	0.333364
C141	C	0.757844	1.896092	0.666697
C142	C	0.092645	1.329500	0.000029
C143	C	0.425978	1.662833	0.333362
C144	C	0.759311	1.996167	0.666695
N145	N	0.096080	1.064550	0.178181
N146	N	0.429414	1.397884	0.511515
N147	N	0.762747	1.731217	0.844848
N148	N	0.096091	1.064614	-0.178129
N149	N	0.429425	1.397947	0.155204
N150	N	0.762758	1.731280	0.488537
C151	C	0.048943	1.126053	0.217574
C152	C	0.382276	1.459386	0.550908
C153	C	0.715610	1.792720	0.884241
C154	C	0.048940	1.126058	0.296376
C155	C	0.382273	1.459391	0.629710
C156	C	0.715606	1.792725	0.963043
C157	C	0.096086	1.064569	0.335782
C158	C	0.429419	1.397903	0.669115
C159	C	0.762753	1.731236	1.002449
C160	C	0.143227	1.003055	0.296379
C161	C	0.476560	1.336389	0.629713
C162	C	0.809894	1.669722	0.963046
C163	C	0.143224	1.003046	0.217579
C164	C	0.476558	1.336379	0.550912
C165	C	0.809891	1.669713	0.884246
C166	C	0.159333	1.052498	0.460614
C167	C	0.492666	1.385831	0.793947
C168	C	0.826000	1.719165	1.127280
C169	C	0.159337	1.052514	0.539413
C170	C	0.492670	1.385847	0.872746
C171	C	0.826003	1.719180	1.206079
C172	C	0.096094	1.064593	0.578828
C173	C	0.429428	1.397927	0.912162
C174	C	0.762761	1.731260	1.245495
C175	C	0.032846	1.076677	0.539435
C176	C	0.366179	1.410010	0.872769
C177	C	0.699512	1.743343	1.206102
C178	C	0.032843	1.076667	0.460635
C179	C	0.366176	1.410000	0.793968
C180	C	0.699509	1.743334	1.127302
C181	C	0.096094	1.064572	0.421228
C182	C	0.429427	1.397906	0.754561
C183	C	0.762761	1.731239	1.087894
C184	C	0.048949	1.126105	0.703667
C185	C	0.382283	1.459438	1.037001
C186	C	0.715616	1.792772	1.370334
C187	C	0.048945	1.126104	0.782471
C188	C	0.382279	1.459437	1.115804
C189	C	0.715612	1.792771	1.449137
C190	C	0.143239	1.003106	0.782472
C191	C	0.476572	1.336439	1.115805
C192	C	0.809906	1.669772	1.449139
C193	C	0.143237	1.003102	0.703670
C194	C	0.476570	1.336436	1.037004
C195	C	0.809904	1.669769	1.370337
C196	C	0.096093	1.064607	0.664273
C197	C	0.429426	1.397940	0.997606
C198	C	0.762760	1.731273	1.330939
H199	H	-0.022015	0.358204	0.000029
H200	H	0.311319	0.691537	0.333363
H201	H	0.644652	1.024871	0.666696
H202	H	-0.114718	1.070127	-0.123773
H203	H	0.218615	1.403460	0.209560
H204	H	0.551948	1.736794	0.542893
H205	H	0.181624	0.953037	0.814555
H206	H	0.514957	1.286370	1.147889
H207	H	0.848290	1.619704	1.481222
H208	H	0.010560	1.176183	0.671588
H209	H	0.343893	1.509516	1.004922
H210	H	0.677226	1.842850	1.338255
H211	H	-0.693110	1.059037	0.123819
H212	H	-0.359776	1.392371	0.457153
H213	H	-0.026443	1.725704	0.790486
H214	H	-0.246195	1.067554	0.123840
H215	H	0.087138	1.400887	0.457174
H216	H	0.420471	1.734221	0.790507
H217	H	0.272895	0.448318	0.000027
H218	H	0.606228	0.781652	0.333360
H219	H	0.939562	1.114985	0.666694
H220	H	-0.083210	0.510239	0.000021
H221	H	0.250123	0.843572	0.333355
H222	H	0.583456	1.176905	0.666688
H223	H	-0.015375	0.810890	0.000014
H224	H	0.317958	1.144224	0.333347
H225	H	0.651291	1.477557	0.666681
H226	H	-0.246151	1.067611	-0.123779
H227	H	0.087182	1.400944	0.209554
H228	H	0.420515	1.734277	0.542888
H229	H	-0.561672	1.061550	0.123828
H230	H	-0.228339	1.394883	0.457161
H231	H	0.104995	1.728217	0.790494
H232	H	0.207553	0.318275	0.000035
H233	H	0.540887	0.651608	0.333369
H234	H	0.874220	0.984942	0.666702
H235	H	0.010557	1.176184	0.814545
H236	H	0.343890	1.509517	1.147878
H237	H	0.677223	1.842851	1.481212
H238	H	-0.080708	0.680847	0.000020
H239	H	0.252626	1.014181	0.333353
H240	H	0.585959	1.347514	0.666686
H241	H	-0.479208	1.159134	0.094872
H242	H	-0.145874	1.492468	0.428205
H243	H	0.187459	1.825801	0.761539
H244	H	0.275379	0.618911	0.000026
H245	H	0.608713	0.952245	0.333359
H246	H	0.942046	1.285578	0.666692
H247	H	-0.347775	1.161633	0.094885
H248	H	-0.014442	1.494966	0.428218
H249	H	0.318892	1.828299	0.761552
H250	H	0.214179	0.770959	0.000019
H251	H	0.547512	1.104292	0.333353
H252	H	0.880845	1.437625	0.666686
H253	H	-0.328611	0.970046	-0.094830
H254	H	0.004723	1.303379	0.238503
H255	H	0.338056	1.636712	0.571837
H256	H	0.181610	0.952962	0.185504
H257	H	0.514943	1.286295	0.518838
H258	H	0.848277	1.619629	0.852171
H259	H	-0.460051	0.967539	-0.094833
H260	H	-0.126717	1.300873	0.238500
H261	H	0.206616	1.634206	0.571833
H262	H	0.181613	0.952989	0.328467
H263	H	0.514947	1.286322	0.661801
H264	H	0.848280	1.619656	0.995134
H265	H	-0.114752	1.070045	0.123855
H266	H	0.218581	1.403379	0.457188
H267	H	0.551914	1.736712	0.790522
H268	H	-0.561632	1.061609	-0.123799
H269	H	-0.228298	1.394942	0.209534
H270	H	0.105035	1.728275	0.542868
H271	H	0.010554	1.176131	0.185499
H272	H	0.343887	1.509465	0.518833
H273	H	0.677221	1.842798	0.852166
H274	H	0.010553	1.176142	0.328456
H275	H	0.343886	1.509476	0.661789
H276	H	0.677220	1.842809	0.995123
H277	H	-0.693065	1.059091	-0.123804
H278	H	-0.359732	1.392424	0.209530
H279	H	-0.026398	1.725757	0.542863
H280	H	-0.018656	1.086503	0.428565
H281	H	0.314677	1.419837	0.761898
H282	H	0.648010	1.753170	1.095231
H283	H	-0.018652	1.086513	0.571526
H284	H	0.314681	1.419846	0.904859
H285	H	0.648014	1.753179	1.238192
H286	H	0.181624	0.953025	0.671594
H287	H	0.514957	1.286358	1.004928
H288	H	0.848290	1.619691	1.338261
H289	H	0.210838	1.042681	0.571480
H290	H	0.544171	1.376014	0.904814
H291	H	0.877504	1.709347	1.238147
H292	H	0.210836	1.042645	0.428528
H293	H	0.544169	1.375979	0.761861
H294	H	0.877503	1.709312	1.095195
