data_functionalizedCrystal
_audit_creation_method	'MofGen! by Chris Wilmer'
_symmetry_space_group_name_H-M	'P1'
_symmetry_Int_Tables_number	1
_symmetry_cell_setting	triclinic
loop_
_symmetry_equiv_pos_as_xyz
  x,y,z
_cell_length_a	10.654553
_cell_length_b	16.974813
_cell_length_c	9.730223
_cell_angle_alpha	86.344112
_cell_angle_beta	89.999314
_cell_angle_gamma	83.939561
loop_
_atom_site_label
_atom_site_type_symbol
_atom_site_fract_x
_atom_site_fract_y
_atom_site_fract_z
O1	O	1.666103	0.111064	-0.126656
O2	O	2.166103	0.611064	0.373344
O3	O	1.300460	0.121642	-0.127831
O4	O	1.800460	0.621642	0.372169
O5	O	1.493475	0.001306	-0.114441
O6	O	1.993475	0.501306	0.385559
O7	O	1.473088	0.231400	-0.140045
O8	O	1.973088	0.731400	0.359955
O9	O	1.493473	0.001309	0.114138
O10	O	1.993473	0.501309	0.614138
O11	O	1.300458	0.121645	0.100748
O12	O	1.800458	0.621645	0.600748
O13	O	1.666101	0.111067	0.101924
O14	O	2.166101	0.611067	0.601924
Zn15	Zn	1.483279	0.116356	0.137628
Zn16	Zn	1.983279	0.616356	0.637628
Zn17	Zn	1.483282	0.116352	-0.163535
Zn18	Zn	1.983282	0.616352	0.336465
O19	O	1.473085	0.231403	0.088534
O20	O	1.973085	0.731403	0.588534
C21	C	1.253673	0.120866	-0.013455
C22	C	1.753673	0.620866	0.486545
C23	C	1.114266	0.118541	-0.013196
C24	C	1.614266	0.618541	0.486804
C25	C	1.492699	-0.028156	0.003124
C26	C	1.992699	0.471844	0.503124
C27	C	1.490374	-0.115945	0.012884
C28	C	1.990374	0.384055	0.512884
C29	C	0.917776	0.115260	0.111759
C30	C	1.417776	0.615260	0.611759
C31	C	1.048763	0.117449	0.111523
C32	C	1.548763	0.617449	0.611523
C33	C	1.048775	0.117451	-0.137688
C34	C	1.548775	0.617451	0.362312
C35	C	0.917790	0.115267	-0.137451
C36	C	1.417790	0.615267	0.362549
C37	C	0.917771	0.115256	0.255639
C38	C	1.417771	0.615256	0.755639
C39	C	1.048757	0.117445	0.255403
C40	C	1.548757	0.617445	0.755403
C41	C	1.489285	-0.157186	-0.107128
C42	C	1.989285	0.342814	0.392872
C43	C	1.487092	-0.239672	-0.097953
C44	C	1.987092	0.260328	0.402047
C45	C	1.485997	-0.280918	0.031236
C46	C	1.985997	0.219082	0.531236
C47	C	1.487081	-0.239671	0.151257
C48	C	1.987081	0.260329	0.651257
C49	C	1.489265	-0.157185	0.142081
C50	C	1.989265	0.342815	0.642081
C51	C	1.479456	-0.527614	0.072041
C52	C	1.979456	-0.027614	0.572041
C53	C	1.477276	-0.610106	0.081209
C54	C	1.977276	-0.110106	0.581209
C55	C	1.477284	-0.610102	-0.168003
C56	C	1.977284	-0.110102	0.331997
C57	C	1.479476	-0.527615	-0.177167
C58	C	1.979476	-0.027615	0.322833
C59	C	1.480554	-0.486375	-0.057146
C60	C	1.980554	0.013625	0.442854
N61	N	1.483759	-0.365233	0.040617
N62	N	1.983759	0.134767	0.540617
N63	N	1.482782	-0.402060	-0.066529
N64	N	1.982782	0.097940	0.433471
C65	C	1.712888	0.111842	-0.012455
C66	C	2.212888	0.611842	0.487545
C67	C	1.852294	0.114168	-0.012723
C68	C	2.352294	0.614168	0.487277
C69	C	1.473862	0.260864	-0.029034
C70	C	1.973862	0.760864	0.470966
C71	C	1.476187	0.348653	-0.038804
C72	C	1.976187	0.848653	0.461196
N73	N	1.483286	0.116358	0.343164
N74	N	1.983286	0.616358	0.843164
N75	N	1.483285	0.116344	-0.369071
N76	N	1.983285	0.616344	0.130929
C77	C	1.568775	0.063092	0.421017
C78	C	2.068775	0.563092	0.921017
C79	C	1.568772	0.063082	0.564901
C80	C	2.068772	0.563082	1.064901
C81	C	1.397787	0.169613	0.553066
C82	C	1.897787	0.669613	1.053066
C83	C	1.397785	0.169618	0.409185
C84	C	1.897785	0.669618	0.909185
C85	C	1.667495	0.001589	0.427852
C86	C	2.167495	0.501589	0.927852
C87	C	1.667492	0.001580	0.571736
C88	C	2.167492	0.501580	1.071736
H89	H	0.864477	0.114387	-0.238817
H90	H	1.364477	0.614387	0.261183
H91	H	0.870636	0.169897	0.304804
H92	H	1.370636	0.669897	0.804804
Br93	Br	1.137669	0.118944	-0.306953
Br94	Br	1.637669	0.618944	0.193047
Br95	Br	1.480893	-0.471653	0.234928
Br96	Br	1.980893	0.028347	0.734928
H97	H	1.646999	-0.059185	0.395560
H98	H	2.146999	0.440815	0.895560
Br99	Br	1.096552	0.213562	0.319119
Br100	Br	1.596552	0.713562	0.819119
H101	H	1.328173	0.212975	0.606835
H102	H	1.828173	0.712975	1.106835
Br103	Br	1.485613	-0.295639	-0.260835
Br104	Br	1.985613	0.204361	0.239165
H105	H	1.758379	0.020848	0.381082
H106	H	2.258379	0.520848	0.881082
Br107	Br	1.485573	-0.295644	0.326587
Br108	Br	1.985573	0.204356	0.826587
H109	H	1.095892	0.062801	0.316720
H110	H	1.595892	0.562801	0.816720
Br111	Br	1.490785	-0.101219	-0.282464
Br112	Br	1.990785	0.398781	0.217536
Br113	Br	1.490735	-0.101213	0.304961
Br114	Br	1.990735	0.398787	0.804961
Br115	Br	1.618110	-0.094134	0.656764
Br116	Br	2.118110	0.405866	1.156764
H117	H	1.763793	0.015128	0.609278
H118	H	2.263793	0.515128	1.109278
Br119	Br	1.480971	-0.471645	-0.352502
Br120	Br	1.980971	0.028355	0.147498
H121	H	0.889095	0.057589	0.306695
H122	H	1.389095	0.557589	0.806695
H123	H	1.476404	-0.643688	-0.265717
H124	H	1.976404	-0.143688	0.234283
H125	H	1.476377	-0.643685	0.186415
H126	H	1.976377	-0.143685	0.686415
H127	H	1.328163	0.212985	0.345798
H128	H	1.828163	0.712985	0.845798
