data_functionalizedCrystal
_audit_creation_method	'MofGen! by Chris Wilmer'
_symmetry_space_group_name_H-M	'P1'
_symmetry_Int_Tables_number	1
_symmetry_cell_setting	triclinic
loop_
_symmetry_equiv_pos_as_xyz
  x,y,z
_cell_length_a	12.827892
_cell_length_b	11.169417
_cell_length_c	11.169417
_cell_angle_alpha	89.997279
_cell_angle_beta	90.008358
_cell_angle_gamma	89.985670
loop_
_atom_site_label
_atom_site_type_symbol
_atom_site_fract_x
_atom_site_fract_y
_atom_site_fract_z
Zn1	Zn	-0.416233	-1.834696	0.678595
Zn2	Zn	-0.082900	-1.501362	1.011929
Zn3	Zn	0.250434	-1.168029	1.345262
Zn4	Zn	-0.590945	-1.834634	0.477910
Zn5	Zn	-0.257612	-1.501300	0.811243
Zn6	Zn	0.075722	-1.167967	1.144576
Zn7	Zn	-0.416215	-1.634048	0.477923
Zn8	Zn	-0.082882	-1.300715	0.811257
Zn9	Zn	0.250451	-0.967381	1.144590
Zn10	Zn	-0.590929	-1.633971	0.678548
Zn11	Zn	-0.257596	-1.300638	1.011881
Zn12	Zn	0.075737	-0.967305	1.345215
O13	O	-0.503581	-1.734337	0.578244
O14	O	-0.170247	-1.401004	0.911577
O15	O	0.163086	-1.067670	1.244911
O16	O	-0.439423	-2.002637	0.651988
O17	O	-0.106090	-1.669304	0.985321
O18	O	0.227244	-1.335970	1.318655
O19	O	-0.567766	-1.808032	0.309962
O20	O	-0.234433	-1.474698	0.643295
O21	O	0.098901	-1.141365	0.976629
O22	O	-0.269982	-1.660722	0.504568
O23	O	0.063352	-1.327389	0.837902
O24	O	0.396685	-0.994055	1.171235
O25	O	-0.567783	-2.002592	0.504545
O26	O	-0.234450	-1.669258	0.837879
O27	O	0.098884	-1.335925	1.171212
O28	O	-0.269995	-1.808137	0.652001
O29	O	0.063339	-1.474804	0.985335
O30	O	0.396672	-1.141470	1.318668
O31	O	-0.439393	-1.660662	0.309972
O32	O	-0.106059	-1.327329	0.643305
O33	O	0.227274	-0.993995	0.976639
O34	O	-0.439378	-1.466088	0.504523
O35	O	-0.106044	-1.132755	0.837856
O36	O	0.227289	-0.799421	1.171189
O37	O	-0.567757	-1.660592	0.846504
O38	O	-0.234423	-1.327258	1.179837
O39	O	0.098910	-0.993925	1.513171
O40	O	-0.567739	-1.466032	0.651921
O41	O	-0.234406	-1.132698	0.985254
O42	O	0.098927	-0.799365	1.318587
O43	O	-0.439408	-1.808063	0.846539
O44	O	-0.106074	-1.474730	1.179872
O45	O	0.227259	-1.141396	1.513205
O46	O	-0.737179	-1.807957	0.504499
O47	O	-0.403846	-1.474624	0.837833
O48	O	-0.070512	-1.141291	1.171166
O49	O	-0.737168	-1.660532	0.651907
O50	O	-0.403834	-1.327198	0.985241
O51	O	-0.070501	-0.993865	1.318574
C52	C	-0.503556	-1.422512	0.578219
C53	C	-0.170222	-1.089179	0.911552
C54	C	0.163111	-0.755846	1.244885
C55	C	-0.503570	-1.289112	0.578236
C56	C	-0.170237	-0.955779	0.911569
C57	C	0.163096	-0.622446	1.244903
C58	C	-0.775091	-1.734262	0.578223
C59	C	-0.441757	-1.400929	0.911556
C60	C	-0.108424	-1.067595	1.244890
C61	C	-0.891244	-1.734340	0.578254
C62	C	-0.557910	-1.401006	0.911587
C63	C	-0.224577	-1.067673	1.244921
C64	C	-0.943000	-1.807377	0.505393
C65	C	-0.609666	-1.474044	0.838726
C66	C	-0.276333	-1.140711	1.172060
C67	C	-1.063050	-1.807459	0.505423
C68	C	-0.729717	-1.474126	0.838757
C69	C	-0.396383	-1.140792	1.172090
C70	C	-0.231011	-1.734445	0.578292
C71	C	0.102323	-1.401112	0.911625
C72	C	0.435656	-1.067778	1.244958
C73	C	-0.114857	-1.734491	0.578312
C74	C	0.218476	-1.401158	0.911645
C75	C	0.551809	-1.067824	1.244979
C76	C	-0.503582	-1.734326	0.891286
C77	C	-0.170249	-1.400992	1.224620
C78	C	0.163084	-1.067659	1.557953
C79	C	-0.503583	-1.734321	1.024686
C80	C	-0.170250	-1.400987	1.358020
C81	C	0.163084	-1.067654	1.691353
C82	C	-0.503598	-1.047379	0.578261
C83	C	-0.170264	-0.714046	0.911594
C84	C	0.163069	-0.380713	1.244928
C85	C	-0.503583	-1.180779	0.578244
C86	C	-0.170249	-0.847446	0.911577
C87	C	0.163084	-0.514113	1.244911
C88	C	-0.503598	-1.734334	1.266419
C89	C	-0.170265	-1.401001	1.599753
C90	C	0.163068	-1.067668	1.933086
C91	C	-0.503585	-1.734324	1.133019
C92	C	-0.170251	-1.400991	1.466353
C93	C	0.163082	-1.067657	1.799686
H94	H	-0.898435	-1.869852	0.442995
H95	H	-0.565102	-1.536519	0.776328
H96	H	-0.231769	-1.203186	1.109661
H97	H	-1.107559	-1.869986	0.443041
H98	H	-0.774225	-1.536653	0.776374
H99	H	-0.440892	-1.203319	1.109708
O100	O	-1.061727	-1.660058	0.652866
O101	O	-0.728393	-1.326725	0.986199
O102	O	-0.395060	-0.993392	1.319532
C103	C	-0.938278	-1.643820	0.814679
C104	C	-0.604944	-1.310487	1.148012
C105	C	-0.271611	-0.977153	1.481345
C106	C	-0.998412	-1.728250	0.730342
C107	C	-0.665078	-1.394916	1.063675
C108	C	-0.331745	-1.061583	1.397008
H109	H	-0.887057	-1.698917	0.877322
H110	H	-0.553723	-1.365584	1.210656
H111	H	-0.220390	-1.032251	1.543989
H112	H	-0.995914	-1.588915	0.869652
H113	H	-0.662581	-1.255582	1.202986
H114	H	-0.329247	-0.922249	1.536319
H115	H	-0.887288	-1.581105	0.759429
H116	H	-0.553954	-1.247772	1.092763
H117	H	-0.220621	-0.914439	1.426096
H118	H	-1.049403	-1.791037	0.785498
H119	H	-0.716070	-1.457704	1.118832
H120	H	-0.382737	-1.124370	1.452165
H121	H	-0.940719	-1.783070	0.675364
H122	H	-0.607386	-1.449737	1.008697
H123	H	-0.274052	-1.116403	1.342031
O124	O	-0.944287	-1.659644	0.652645
O125	O	-0.610953	-1.326311	0.985979
O126	O	-0.277620	-0.992978	1.319312
C127	C	-0.978070	-1.455498	0.710649
C128	C	-0.644736	-1.122165	1.043982
C129	C	-0.311403	-0.788832	1.377316
C130	C	-0.917920	-1.539957	0.626342
C131	C	-0.584586	-1.206624	0.959675
C132	C	-0.251253	-0.873291	1.293008
H133	H	-0.956791	-1.358713	0.689396
H134	H	-0.623458	-1.025380	1.022729
H135	H	-0.290124	-0.692046	1.356063
H136	H	-0.956603	-1.476356	0.807479
H137	H	-0.623269	-1.143023	1.140813
H138	H	-0.289936	-0.809690	1.474146
H139	H	-1.065414	-1.468907	0.697431
H140	H	-0.732080	-1.135573	1.030764
H141	H	-0.398747	-0.802240	1.364097
H142	H	-0.830562	-1.526596	0.639453
H143	H	-0.497229	-1.193263	0.972786
H144	H	-0.163895	-0.859930	1.306120
H145	H	-0.939474	-1.519079	0.529542
H146	H	-0.606140	-1.185746	0.862876
H147	H	-0.272807	-0.852412	1.196209
