data_functionalizedCrystal
_audit_creation_method	'MofGen! by Chris Wilmer'
_symmetry_space_group_name_H-M	'P1'
_symmetry_Int_Tables_number	1
_symmetry_cell_setting	triclinic
loop_
_symmetry_equiv_pos_as_xyz
  x,y,z
_cell_length_a	12.594517
_cell_length_b	19.077068
_cell_length_c	12.594510
_cell_angle_alpha	87.741997
_cell_angle_beta	89.978880
_cell_angle_gamma	87.673140
loop_
_atom_site_label
_atom_site_type_symbol
_atom_site_fract_x
_atom_site_fract_y
_atom_site_fract_z
Zn1	Zn	1.610160	0.280139	-0.618826
Zn2	Zn	1.602864	0.397861	-0.447977
Zn3	Zn	1.432162	0.280182	-0.440858
Zn4	Zn	1.424962	0.397800	-0.625903
O5	O	1.517537	0.338996	-0.533391
O6	O	1.758138	0.295763	-0.596180
O7	O	1.580180	0.382294	-0.298090
O8	O	1.461841	0.181686	-0.458524
O9	O	1.752777	0.382253	-0.470658
O10	O	1.592615	0.181655	-0.589277
O11	O	1.454766	0.295836	-0.292859
O12	O	1.282262	0.295776	-0.465387
O13	O	1.449570	0.382148	-0.773908
O14	O	1.276972	0.382190	-0.601339
O15	O	1.585634	0.295704	-0.768708
O16	O	1.573198	0.496344	-0.477521
O17	O	1.442495	0.496298	-0.608243
C18	C	1.506303	0.521858	-0.544446
C19	C	1.501594	0.600088	-0.549210
C20	C	1.240997	0.338982	-0.533359
C21	C	1.122691	0.338992	-0.533371
C22	C	1.517613	0.338914	-0.811007
C23	C	1.517645	0.338880	-0.929311
C24	C	1.056288	0.291928	-0.459559
C25	C	0.981557	0.356130	-0.437267
C26	C	0.986621	0.274822	-0.555683
C27	C	1.049516	0.403228	-0.511031
C28	C	1.054589	0.321877	-0.629490
C29	C	0.979888	0.386123	-0.607238
C30	C	1.795157	0.339010	-0.533424
C31	C	1.913462	0.339017	-0.533438
C32	C	1.528845	0.155419	-0.522317
C33	C	1.533664	0.077189	-0.517598
C34	C	1.567485	0.636840	-0.483446
C35	C	1.563062	0.710345	-0.487933
C36	C	1.492742	0.747096	-0.558181
C37	C	1.426849	0.710339	-0.623953
C38	C	1.431277	0.636835	-0.619470
C39	C	1.472199	0.966928	-0.578886
C40	C	1.467773	1.040437	-0.583362
C41	C	1.603988	1.040438	-0.447343
C42	C	1.608406	0.966934	-0.442862
C43	C	1.542516	0.930182	-0.508638
N44	N	1.488217	0.822230	-0.562768
N45	N	1.547047	0.855050	-0.504056
C46	C	1.591671	0.291859	-0.995736
C47	C	1.495647	0.274632	-1.065483
C48	C	1.613729	0.356058	-1.070359
C49	C	1.421571	0.321619	-0.997498
C50	C	1.539716	0.403076	-1.002370
C51	C	1.443623	0.385872	-1.072087
C52	C	1.517527	0.339026	-0.256852
C53	C	1.517713	0.338862	-0.138537
H54	H	1.089737	0.252166	-0.397066
H55	H	1.654169	0.252072	-0.962297
H56	H	1.665666	0.937012	-0.385660
C57	C	0.938566	0.375417	-0.329006
C58	C	0.827391	0.375772	-0.330838
C59	C	0.787735	0.393513	-0.231127
H60	H	0.964678	0.341936	-0.276560
H61	H	0.960954	0.420704	-0.312579
H62	H	0.805013	0.330492	-0.347253
H63	H	0.801251	0.409254	-0.383263
H64	H	0.810123	0.438800	-0.214700
H65	H	0.813855	0.360029	-0.178689
H66	H	0.712300	0.393762	-0.232360
H67	H	1.558391	0.457357	-0.974497
C68	C	1.359618	0.597056	-0.690925
C69	C	1.297068	0.644972	-0.753388
C70	C	1.231038	0.608354	-0.819222
H71	H	1.401927	0.568334	-0.735679
H72	H	1.314929	0.568443	-0.648451
H73	H	1.341752	0.673573	-0.795857
H74	H	1.254737	0.673695	-0.708662
H75	H	1.186349	0.579741	-0.776749
H76	H	1.273356	0.579633	-0.863969
H77	H	1.188583	0.640859	-0.861604
C78	C	1.675490	1.080467	-0.376073
C79	C	1.656589	1.152705	-0.395054
C80	C	1.722456	1.189600	-0.329433
H81	H	1.660749	1.068559	-0.303771
H82	H	1.747741	1.068410	-0.391004
H83	H	1.584354	1.164757	-0.380115
H84	H	1.671336	1.164634	-0.467343
H85	H	1.794708	1.177543	-0.344364
H86	H	1.707710	1.177686	-0.257135
H87	H	1.709648	1.238617	-0.342309
H88	H	1.077143	0.457522	-0.492097
C89	C	1.470589	0.202291	-1.102717
C90	C	1.377729	0.207178	-1.164102
C91	C	1.354621	0.140552	-1.198415
H92	H	1.527869	0.184607	-1.144291
H93	H	1.460605	0.171466	-1.042769
H94	H	1.387720	0.237993	-1.224041
H95	H	1.320429	0.224850	-1.122550
H96	H	1.344637	0.109726	-1.138468
H97	H	1.411907	0.122873	-1.239985
H98	H	1.291609	0.143857	-1.240061
H99	H	0.946628	0.425980	-0.669690
C100	C	0.949456	0.202514	-0.580968
C101	C	0.888084	0.207471	-0.673833
C102	C	0.853820	0.140877	-0.697140
H103	H	1.009399	0.171655	-0.591033
H104	H	0.907882	0.184839	-0.523721
H105	H	0.929657	0.225136	-0.731068
H106	H	0.828126	0.238317	-0.663793
H107	H	0.812245	0.123202	-0.639892
H108	H	0.913769	0.110023	-0.707199
H109	H	0.812167	0.144232	-0.760144
C110	C	1.313148	0.302283	-0.955119
C111	C	1.235860	0.351304	-0.994703
C112	C	1.135975	0.333517	-0.955673
H113	H	1.297223	0.256841	-0.977207
H114	H	1.313741	0.302419	-0.879696
H115	H	1.235264	0.351161	-1.070110
H116	H	1.251749	0.396750	-0.972618
H117	H	1.136568	0.333654	-0.880250
H118	H	1.120061	0.288075	-0.977764
H119	H	1.083524	0.366779	-0.982517
H120	H	1.694957	0.370594	-1.102332
C121	C	1.360192	0.438868	-1.116630
C122	C	1.361720	0.438702	-1.227779
C123	C	1.284884	0.487512	-1.268854
H124	H	1.291976	0.426603	-1.091635
H125	H	1.375264	0.484362	-1.094102
H126	H	1.346641	0.393217	-1.250298
H127	H	1.429918	0.450974	-1.252803
H128	H	1.299956	0.533007	-1.246326
H129	H	1.216674	0.475243	-1.243852
H130	H	1.285917	0.487411	-1.344272
H131	H	1.624742	0.606922	-0.426238
H132	H	1.418547	0.937011	-0.632442
C133	C	1.097516	0.302433	-0.737699
C134	C	1.163931	0.241944	-0.726377
C135	C	1.203508	0.224007	-0.826033
H136	H	1.040056	0.293754	-0.783559
H137	H	1.136790	0.339976	-0.767113
H138	H	1.124657	0.204409	-0.696978
H139	H	1.221407	0.250606	-0.680536
H140	H	1.242782	0.261551	-0.855447
H141	H	1.146042	0.215331	-0.871885
H142	H	1.248582	0.182968	-0.818363
H143	H	1.616716	0.740266	-0.434380
H144	H	1.410523	1.070358	-0.640585
H145	H	1.369597	0.740267	-0.681155
