data_functionalizedCrystal
_audit_creation_method	'MofGen! by Chris Wilmer'
_symmetry_space_group_name_H-M	'P1'
_symmetry_Int_Tables_number	1
_symmetry_cell_setting	triclinic
loop_
_symmetry_equiv_pos_as_xyz
  x,y,z
_cell_length_a	12.759401
_cell_length_b	12.645330
_cell_length_c	12.759401
_cell_angle_alpha	90.008027
_cell_angle_beta	90.003120
_cell_angle_gamma	90.017853
loop_
_atom_site_label
_atom_site_type_symbol
_atom_site_fract_x
_atom_site_fract_y
_atom_site_fract_z
Zn1	Zn	1.606074	-0.422203	0.593992
Zn2	Zn	1.606006	-0.599439	0.418317
Zn3	Zn	1.430423	-0.422190	0.418331
Zn4	Zn	1.430356	-0.599425	0.593958
O5	O	1.518215	-0.510814	0.506150
O6	O	1.753086	-0.445724	0.570696
O7	O	1.582715	-0.575926	0.271298
O8	O	1.453780	-0.273844	0.441653
O9	O	1.753036	-0.575939	0.441629
O10	O	1.582830	-0.273854	0.570710
O11	O	1.453715	-0.445703	0.271309
O12	O	1.283393	-0.445690	0.441621
O13	O	1.453665	-0.575916	0.740984
O14	O	1.283343	-0.575904	0.570653
O15	O	1.582765	-0.445711	0.741008
O16	O	1.582649	-0.747784	0.441596
O17	O	1.453599	-0.747774	0.570639
C18	C	1.245247	-0.510795	0.506135
C19	C	1.128471	-0.510812	0.506154
C20	C	1.073610	-0.578723	0.573230
C21	C	0.963886	-0.578736	0.573242
C22	C	0.963893	-0.442925	0.439092
C23	C	1.073615	-0.442907	0.439087
C24	C	1.128466	-0.646627	0.640298
C25	C	1.073606	-0.714545	0.707378
C26	C	0.963882	-0.714558	0.707390
C27	C	0.909018	-0.646654	0.640320
C28	C	1.518138	-0.786244	0.506135
C29	C	1.518201	-0.904074	0.506164
C30	C	1.437351	-1.071676	0.587595
C31	C	1.436937	-0.949116	0.587333
C32	C	1.488258	-0.948635	0.395442
C33	C	1.487764	-1.071234	0.395937
C34	C	1.629490	-1.071171	0.534556
C35	C	1.628808	-0.948565	0.536977
C36	C	1.792248	-0.510834	0.506165
C37	C	1.909025	-0.510843	0.506171
C38	C	1.518215	-0.510813	0.780183
C39	C	1.518215	-0.510813	0.896959
C40	C	1.518320	-0.234309	0.506187
C41	C	1.518365	-0.116479	0.506203
C42	C	1.585432	-0.443030	0.951836
C43	C	1.585427	-0.443035	1.061560
C44	C	1.450986	-0.578613	1.061521
C45	C	1.450986	-0.578603	0.951799
C46	C	1.652660	-0.375241	0.896996
C47	C	1.719883	-0.307453	0.951873
C48	C	1.719879	-0.307457	1.061597
C49	C	1.652651	-0.375249	1.116444
C50	C	1.518208	-0.510836	1.233182
C51	C	1.518210	-0.510828	1.116406
H52	H	1.455668	-0.918987	0.669432
H53	H	1.455910	-1.101112	0.669964
H54	H	1.118283	-0.769822	0.761990
C55	C	0.904507	-0.788405	0.780259
C56	C	0.976036	-0.847882	0.838971
C57	C	0.921381	-0.915936	0.906098
H58	H	0.861713	-0.748053	0.826204
H59	H	0.861713	-0.834592	0.740016
H60	H	1.018812	-0.801701	0.879211
H61	H	1.018832	-0.888256	0.793054
H62	H	0.878587	-0.962124	0.865854
H63	H	0.878590	-0.875576	0.952035
H64	H	0.969905	-0.956307	0.945934
H65	H	1.774611	-0.252253	0.907209
H66	H	0.819673	-0.646662	0.640344
H67	H	1.651390	-0.919439	0.618462
H68	H	0.919214	-0.387642	0.384487
C69	C	1.133375	-0.369219	0.366374
C70	C	1.241205	-0.383717	0.380749
C71	C	1.296289	-0.315839	0.313797
H72	H	1.115514	-0.384554	0.295714
H73	H	1.115467	-0.297995	0.381883
H74	H	1.259106	-0.454924	0.365232
H75	H	1.259097	-0.368374	0.451395
H76	H	1.278382	-0.244615	0.329306
H77	H	1.278420	-0.331180	0.243141
H78	H	1.369457	-0.325660	0.323548
C79	C	1.328268	-1.113072	0.562845
C80	C	1.328435	-1.223672	0.567998
C81	C	1.227972	-1.261846	0.545186
H82	H	1.279705	-1.085746	0.612341
H83	H	1.308576	-1.091282	0.494365
H84	H	1.348114	-1.245452	0.636468
H85	H	1.376976	-1.251027	0.518503
H86	H	1.208280	-1.240056	0.476706
H87	H	1.179418	-1.234512	0.594684
H88	H	1.228075	-1.336891	0.548670
H89	H	1.354554	-0.919876	0.568550
H90	H	1.774607	-0.252254	1.106275
H91	H	1.406532	-1.099918	0.371918
C92	C	1.563025	-1.110554	0.312222
C93	C	1.608743	-1.023921	0.261425
C94	C	1.678059	-1.060097	0.184288
H95	H	1.616244	-1.152208	0.343912
H96	H	1.525804	-1.152196	0.262650
H97	H	1.645963	-0.982297	0.310988
H98	H	1.555549	-0.982259	0.229713
H99	H	1.640838	-1.101739	0.134716
H100	H	1.731272	-1.101751	0.215987
H101	H	1.709080	-1.001323	0.149806
C102	C	1.710120	-1.109854	0.455691
C103	C	1.787692	-1.167837	0.507830
C104	C	1.861983	-1.203481	0.435215
H105	H	1.676809	-1.153647	0.405187
H106	H	1.741221	-1.050899	0.421580
H107	H	1.756594	-1.226783	0.541924
H108	H	1.821030	-1.124066	0.558329
H109	H	1.893085	-1.144526	0.401104
H110	H	1.828663	-1.247270	0.384715
H111	H	1.914629	-1.242818	0.470582
H112	H	1.545395	-0.919458	0.333143
H113	H	1.407872	-0.918017	0.370989
C114	C	1.665778	-1.112182	0.640486
C115	C	1.594297	-1.081103	0.717828
C116	C	1.627686	-1.118851	0.815428
H117	H	1.669742	-1.187167	0.638555
H118	H	1.732950	-1.083865	0.656167
H119	H	1.527143	-1.109425	0.702151
H120	H	1.590324	-1.006124	0.719792
H121	H	1.694858	-1.090534	0.831109
H122	H	1.631649	-1.193835	0.813487
H123	H	1.579197	-1.097762	0.867918
H124	H	1.692344	-0.917898	0.482012
H125	H	1.396236	-0.633781	0.907118
C126	C	1.652841	-0.375367	1.235575
C127	C	1.752848	-0.402449	1.271879
C128	C	1.753063	-0.402587	1.381612
H129	H	1.634765	-0.306994	1.260545
H130	H	1.603231	-0.425484	1.260417
H131	H	1.802442	-0.352334	1.247048
H132	H	1.770943	-0.470823	1.246938
H133	H	1.703453	-0.452704	1.406454
H134	H	1.734984	-0.334212	1.406572
H135	H	1.820913	-0.420971	1.406259
C136	C	1.378185	-0.652352	1.121121
C137	C	1.437652	-0.720327	1.184076
C138	C	1.370627	-0.788284	1.238981
H139	H	1.332403	-0.611927	1.164020
H140	H	1.338171	-0.692784	1.072755
H141	H	1.477649	-0.679900	1.232436
H142	H	1.483432	-0.760776	1.141203
H143	H	1.330613	-0.828715	1.190615
H144	H	1.324849	-0.747850	1.281873
H145	H	1.410966	-0.834419	1.281695
C146	C	1.247595	-0.646732	0.640479
C147	C	1.283897	-0.720714	0.713585
C148	C	1.393630	-0.720830	0.713787
H149	H	1.272532	-0.664986	0.572707
H150	H	1.272471	-0.578367	0.658817
H151	H	1.259032	-0.789064	0.695241
H152	H	1.258988	-0.702477	0.781367
H153	H	1.418506	-0.652466	0.732126
H154	H	1.418557	-0.739082	0.646012
H155	H	1.418275	-0.771019	0.763395
H156	H	1.652674	-0.375232	0.807654
