data_functionalizedCrystal
_audit_creation_method	'MofGen! by Chris Wilmer'
_symmetry_space_group_name_H-M	'P1'
_symmetry_Int_Tables_number	1
_symmetry_cell_setting	triclinic
loop_
_symmetry_equiv_pos_as_xyz
  x,y,z
_cell_length_a	17.077402
_cell_length_b	18.050590
_cell_length_c	17.077396
_cell_angle_alpha	89.998337
_cell_angle_beta	89.972992
_cell_angle_gamma	90.013561
loop_
_atom_site_label
_atom_site_type_symbol
_atom_site_fract_x
_atom_site_fract_y
_atom_site_fract_z
Zn1	Zn	-0.312729	1.135330	-0.443529
Zn2	Zn	-0.444005	1.135244	-0.312268
Zn3	Zn	-0.312733	1.011144	-0.312313
Zn4	Zn	-0.443932	1.011105	-0.443527
O5	O	-0.378350	1.073206	-0.377909
O6	O	-0.330172	1.239243	-0.426099
O7	O	-0.426625	1.118762	-0.202427
O8	O	-0.202885	1.027670	-0.329738
O9	O	-0.426621	1.239180	-0.329662
O10	O	-0.202882	1.118909	-0.426142
O11	O	-0.330179	1.027586	-0.202460
O12	O	-0.330107	0.907214	-0.329736
O13	O	-0.426495	1.027604	-0.553375
O14	O	-0.426499	0.907186	-0.426139
O15	O	-0.330100	1.118871	-0.553376
O16	O	-0.553843	1.118724	-0.329661
O17	O	-0.553788	1.027520	-0.426096
C18	C	-0.378296	0.880254	-0.377943
C19	C	-0.378292	0.797708	-0.377976
C20	C	-0.582298	1.073129	-0.377891
C21	C	-0.669547	1.073164	-0.377909
C22	C	-0.430860	0.598263	-0.430276
C23	C	-0.359283	0.548867	-0.449589
C24	C	-0.378336	0.646578	-0.377938
C25	C	-0.449953	0.548893	-0.358624
C26	C	-0.378385	0.500592	-0.377902
C27	C	-0.306722	0.598268	-0.397288
C28	C	-0.397440	0.598298	-0.306290
C29	C	-0.325814	0.548924	-0.325576
C30	C	-0.378309	0.730676	-0.377960
C31	C	-0.378403	0.416496	-0.377880
C32	C	-1.045364	1.120849	-0.327786
C33	C	-0.963383	1.120811	-0.327772
C34	C	-0.922396	1.073272	-0.377937
C35	C	-0.963394	1.025762	-0.428113
C36	C	-1.045373	1.025797	-0.428122
C37	C	-0.792524	1.025694	-0.428091
C38	C	-0.710539	1.025660	-0.428083
C39	C	-0.710534	1.120708	-0.327741
C40	C	-0.792513	1.120743	-0.327751
C41	C	-0.833505	1.073234	-0.377928
C42	C	-0.173605	1.073303	-0.377945
C43	C	-0.086356	1.073345	-0.377960
C44	C	-0.378289	1.073243	-0.582654
C45	C	-0.378263	1.073259	-0.669903
C46	C	-0.378404	1.266911	-0.377876
C47	C	-0.378427	1.349457	-0.377861
C48	C	-0.328038	1.025798	-0.710910
C49	C	-0.328020	1.025810	-0.792890
C50	C	-0.378224	1.073288	-0.833863
C51	C	-0.428455	1.120750	-0.792851
C52	C	-0.428476	1.120734	-0.710872
C53	C	-0.428406	1.120782	-0.963721
C54	C	-0.428384	1.120800	-1.045705
C55	C	-0.327950	1.025859	-1.045740
C56	C	-0.327971	1.025843	-0.963761
C57	C	-0.378201	1.073307	-0.922754
C58	C	-0.378354	1.073211	-0.173961
C59	C	-0.378158	1.073339	-0.086712
H60	H	-0.475199	0.619930	-0.474586
H61	H	-0.287087	0.987186	-0.930403
H62	H	-0.343141	0.527154	-0.510164
H63	H	-0.930008	1.159492	-0.286917
H64	H	-0.469301	1.159439	-0.930336
F65	F	-0.529090	0.520543	-0.337290
F66	F	-0.227561	0.626495	-0.418711
F67	F	-0.836134	1.171344	-0.274366
H68	H	-0.281366	0.527396	-0.281301
F69	F	-0.666919	0.975061	-0.481471
F70	F	-0.666907	1.171270	-0.274338
F71	F	-1.088978	1.171451	-0.274397
H72	H	-1.078747	0.987118	-0.468983
H73	H	-0.287125	0.987160	-0.826274
H74	H	-0.413603	0.620028	-0.245732
F75	F	-0.836148	0.975124	-0.481490
F76	F	-0.919770	0.975166	-0.481501
H77	H	-0.287050	0.987213	-1.079131
F78	F	-0.274599	0.975270	-0.667311
F79	F	-0.481812	1.171334	-1.089310
F80	F	-0.481890	1.171275	-0.836459
F81	F	-0.481935	1.171245	-0.667230
