data_functionalizedCrystal
_audit_creation_method	'MofGen! by Chris Wilmer'
_symmetry_space_group_name_H-M	'P1'
_symmetry_Int_Tables_number	1
_symmetry_cell_setting	triclinic
loop_
_symmetry_equiv_pos_as_xyz
  x,y,z
_cell_length_a	8.559649
_cell_length_b	10.654550
_cell_length_c	9.130313
_cell_angle_alpha	89.999058
_cell_angle_beta	90.004164
_cell_angle_gamma	102.868216
loop_
_atom_site_label
_atom_site_type_symbol
_atom_site_fract_x
_atom_site_fract_y
_atom_site_fract_z
O1	O	0.224191	-1.644669	0.121910
O2	O	0.245550	-1.276985	0.121886
O3	O	0.002628	-1.493220	0.121899
O4	O	0.467114	-1.428434	0.121898
O5	O	0.002607	-1.493232	-0.121700
O6	O	0.245530	-1.276997	-0.121713
O7	O	0.224171	-1.644681	-0.121688
Cu8	Cu	0.234848	-1.460840	-0.143943
Cu9	Cu	0.234872	-1.460826	0.144141
O10	O	0.467093	-1.428446	-0.121701
C11	C	0.243972	-1.230355	0.000084
C12	C	0.239279	-1.091396	0.000075
C13	C	-0.056858	-1.498136	0.000103
C14	C	-0.234076	-1.512750	0.000112
N15	N	0.234830	-1.460860	-0.346566
C16	C	0.526579	-1.423530	0.000098
C17	C	0.703797	-1.408916	0.000099
C18	C	0.225749	-1.691311	0.000117
C19	C	0.230441	-1.830270	0.000136
C20	C	0.382308	-0.997136	0.000096
C21	C	0.377890	-0.866571	0.000121
C22	C	0.087401	-0.924542	0.000111
C23	C	0.091821	-1.055103	0.000075
C24	C	0.550020	-0.963666	0.000108
C25	C	0.545601	-0.833101	0.000133
N26	N	0.234878	-1.460818	0.346763
C27	C	0.136929	-1.394299	0.576764
C28	C	0.136956	-1.394274	0.423427
C29	C	0.332790	-1.527380	0.423445
C30	C	0.332770	-1.527397	0.576779
C31	C	0.023861	-1.317456	0.576752
C32	C	0.023888	-1.317430	0.423415
H33	H	-0.316473	-1.612835	0.000107
H34	H	0.412504	-1.581585	0.639198
C35	C	0.638612	-0.994160	-0.137617
C36	C	0.791398	-1.046794	-0.122152
C37	C	0.879985	-1.077289	-0.259874
C38	C	0.815786	-1.055152	-0.413059
C39	C	0.662992	-1.002515	-0.428530
C40	C	0.574405	-0.972019	-0.290809
H41	H	0.838929	-1.063184	-0.008750
H42	H	0.993094	-1.116254	-0.248420
H43	H	0.881364	-1.077726	-0.515009
H44	H	0.615461	-0.986125	-0.541933
H45	H	0.461296	-0.933054	-0.302262
C46	C	0.614057	-0.764328	-0.141937
C47	C	0.788829	-0.759779	-0.186191
C48	C	0.857277	-0.691007	-0.328261
C49	C	0.750951	-0.626784	-0.426077
C50	C	0.576168	-0.631331	-0.381826
C51	C	0.507721	-0.700103	-0.239756
H52	H	0.867547	-0.807323	-0.113779
H53	H	0.986663	-0.687642	-0.361018
H54	H	0.801620	-0.575875	-0.531246
H55	H	0.497450	-0.583787	-0.454237
H56	H	0.378334	-0.703468	-0.206999
H57	H	-0.024647	-1.131848	0.000037
H58	H	0.603430	-0.993800	0.105280
H59	H	0.412532	-1.581550	0.361013
H60	H	0.062856	-1.214338	0.618380
H61	H	-0.096251	-1.369571	0.624288
H62	H	-0.101926	-1.361527	0.381775
H63	H	-0.213815	-1.308838	0.000088
C64	C	0.091349	-1.182596	0.359184
C65	C	-0.014073	-1.119122	0.259518
C66	C	0.053390	-0.984292	0.195286
C67	C	0.226275	-0.912936	0.230721
C68	C	0.331707	-0.976410	0.330392
C69	C	0.264244	-1.111240	0.394624
H70	H	-0.142062	-1.171945	0.233283
H71	H	-0.024658	-0.937305	0.121503
H72	H	0.276215	-0.813127	0.183173
H73	H	0.459695	-0.923587	0.356628
H74	H	0.342292	-1.158227	0.468407
H75	H	-0.032654	-0.894975	0.000133
H76	H	0.608801	-0.784836	0.102087
