data_functionalizedCrystal
_audit_creation_method	'MofGen! by Chris Wilmer'
_symmetry_space_group_name_H-M	'P1'
_symmetry_Int_Tables_number	1
_symmetry_cell_setting	triclinic
loop_
_symmetry_equiv_pos_as_xyz
  x,y,z
_cell_length_a	16.959434
_cell_length_b	16.959455
_cell_length_c	16.959454
_cell_angle_alpha	90.017022
_cell_angle_beta	89.913905
_cell_angle_gamma	89.940481
loop_
_atom_site_label
_atom_site_type_symbol
_atom_site_fract_x
_atom_site_fract_y
_atom_site_fract_z
Zn1	Zn	0.446929	-1.208736	0.314267
Zn2	Zn	0.314759	-1.208555	0.446597
Zn3	Zn	0.314767	-1.076461	0.314429
Zn4	Zn	0.446898	-1.076530	0.446401
O5	O	0.380838	-1.142570	0.380423
O6	O	0.429407	-1.319323	0.331835
O7	O	0.204149	-1.190927	0.429214
O8	O	0.332315	-1.094055	0.203797
O9	O	0.332302	-1.319190	0.429057
O10	O	0.429414	-1.191237	0.203678
O11	O	0.204154	-1.093878	0.332111
O12	O	0.332284	-0.965859	0.331921
O13	O	0.557513	-1.094172	0.428723
O14	O	0.429360	-0.965910	0.428880
O15	O	0.557536	-1.191304	0.331645
O16	O	0.332271	-1.190994	0.557181
O17	O	0.429353	-1.093996	0.557037
C18	C	0.380820	-0.937204	0.380397
C19	C	0.380831	-0.849347	0.380405
C20	C	0.380825	-1.142504	0.585790
C21	C	0.380845	-1.142548	0.673646
C22	C	0.175471	-1.142421	0.380644
C23	C	0.087615	-1.142491	0.380541
C24	C	-0.284098	-1.092609	0.430987
C25	C	-0.283622	-1.193017	0.329167
C26	C	-0.201076	-1.192947	0.329270
C27	C	-0.160037	-1.142707	0.380231
C28	C	-0.201544	-1.092536	0.431090
C29	C	-0.159563	-1.243111	0.278407
C30	C	-0.077012	-1.243042	0.278508
C31	C	-0.035972	-1.192805	0.329474
C32	C	-0.077484	-1.142634	0.380334
C33	C	-0.036445	-1.092393	0.431296
C34	C	-0.077956	-1.042225	0.482161
C35	C	-0.160504	-1.042299	0.482056
C36	C	0.046576	-1.192731	0.329579
C37	C	0.046108	-1.092320	0.431399
C38	C	0.587007	-1.142766	0.380144
C39	C	0.674864	-1.142849	0.380025
C40	C	0.380857	-1.348739	0.380450
C41	C	0.380865	-1.436595	0.380461
C42	C	0.330396	-0.477821	0.329895
C43	C	0.431325	-0.477923	0.431016
C44	C	0.431321	-0.560468	0.431005
C45	C	0.380852	-0.601695	0.380439
C46	C	0.330388	-0.560375	0.329884
C47	C	0.481778	-0.601794	0.481565
C48	C	0.481774	-0.684345	0.481556
C49	C	0.431309	-0.725573	0.430985
C50	C	0.380844	-0.684248	0.380428
C51	C	0.330375	-0.725474	0.329862
C52	C	0.279913	-0.684151	0.279299
C53	C	0.279923	-0.601602	0.279313
C54	C	0.431300	-0.808121	0.430971
C55	C	0.330367	-0.808028	0.329850
C56	C	0.380869	-1.142658	0.174255
C57	C	0.380882	-1.142696	0.086398
C58	C	0.431383	-1.092137	1.045077
C59	C	0.330374	-1.193224	1.045167
C60	C	0.330366	-1.193197	0.962621
C61	C	0.380867	-1.142637	0.921299
C62	C	0.431376	-1.092106	0.962523
C63	C	0.279853	-1.243722	0.921391
C64	C	0.279843	-1.243695	0.838840
C65	C	0.330349	-1.193140	0.797516
C66	C	0.380860	-1.142607	0.838746
C67	C	0.431361	-1.092047	0.797424
C68	C	0.481877	-1.041518	0.838652
C69	C	0.481882	-1.041550	0.921200
C70	C	0.330344	-1.193107	0.714968
C71	C	0.431354	-1.092016	0.714870
H72	H	0.079516	-1.051411	0.472901
C73	C	0.486945	-1.036553	1.090427
N74	N	0.528792	-0.994686	1.124586
C75	C	0.274818	-1.248828	1.090623
N76	N	0.232970	-1.290711	1.124865
C77	C	0.274782	-1.248687	0.669621
N78	N	0.232931	-1.290556	0.635467
H79	H	0.522992	-1.000348	0.804998
C80	C	0.224417	-0.556140	0.223703
N81	N	0.182608	-0.521895	0.181820
C82	C	-0.031358	-1.298233	0.222560
N83	N	0.003030	-1.339806	0.180423
C84	C	-0.032803	-0.986956	0.538211
N85	N	0.001210	-0.945327	0.580425
H86	H	-0.194310	-1.001454	0.523467
C87	C	-0.329759	-1.037424	0.486934
N88	N	-0.364153	-0.995856	0.529072
C89	C	0.274891	-0.432365	0.274279
N90	N	0.233084	-0.398127	0.232389
C91	C	-0.328767	-1.248274	0.273109
N92	N	-0.362774	-1.289896	0.230884
C93	C	0.092234	-1.247913	0.273631
N94	N	0.126623	-1.289480	0.231489
C95	C	0.537435	-0.985963	0.966556
N96	N	0.579273	-0.944092	1.000722
C97	C	0.486836	-0.432571	0.486638
N98	N	0.528650	-0.398409	0.528533
H99	H	0.472382	-0.841763	0.472141
H100	H	0.522861	-0.568222	0.522738
H101	H	-0.192982	-1.284011	0.236915
C102	C	0.274846	-0.853370	0.274222
N103	N	0.233027	-0.887521	0.232324
H104	H	0.522864	-0.717984	0.522726
H105	H	0.238732	-1.284878	0.955041
C106	C	0.224271	-1.299274	0.793497
N107	N	0.182412	-1.341135	0.759344
H108	H	0.238818	-0.717728	0.238132
H109	H	0.472481	-1.050848	0.681231
