data_functionalizedCrystal
_audit_creation_method	'MofGen! by Chris Wilmer'
_symmetry_space_group_name_H-M	'P1'
_symmetry_Int_Tables_number	1
_symmetry_cell_setting	triclinic
loop_
_symmetry_equiv_pos_as_xyz
  x,y,z
_cell_length_a	19.077105
_cell_length_b	29.839131
_cell_length_c	19.077271
_cell_angle_alpha	87.717501
_cell_angle_beta	89.912562
_cell_angle_gamma	87.737628
loop_
_atom_site_label
_atom_site_type_symbol
_atom_site_fract_x
_atom_site_fract_y
_atom_site_fract_z
Zn1	Zn	1.058089	-0.217409	0.440389
Zn2	Zn	1.062717	-0.289622	0.322874
Zn3	Zn	0.945332	-0.211371	0.318184
Zn4	Zn	0.940518	-0.289370	0.435626
O5	O	1.001664	-0.251943	0.379268
O6	O	1.157033	-0.229621	0.428756
O7	O	1.051098	-0.276821	0.223922
O8	O	0.960367	-0.149307	0.334425
O9	O	1.160433	-0.282676	0.342419
O10	O	1.043209	-0.153743	0.424208
O11	O	0.964855	-0.219330	0.220476
O12	O	0.846364	-0.219085	0.329806
O13	O	0.952163	-0.282245	0.534588
O14	O	0.842827	-0.276390	0.416091
O15	O	1.038541	-0.229376	0.538087
O16	O	1.046430	-0.352453	0.337801
O17	O	0.956651	-0.352267	0.420639
C18	C	0.819099	-0.247055	0.371923
C19	C	0.740997	-0.244976	0.368798
C20	C	1.001539	-0.368661	0.379228
C21	C	1.001548	-0.418596	0.379237
C22	C	0.702484	-0.273876	0.412182
C23	C	0.629098	-0.271916	0.409249
C24	C	0.594227	-0.241058	0.362927
C25	C	0.632745	-0.212154	0.319541
C26	C	0.706129	-0.214112	0.322478
C27	C	0.374946	-0.231995	0.349335
C28	C	0.301556	-0.230040	0.346400
C29	C	0.297915	-0.289802	0.436110
C30	C	0.371301	-0.291759	0.439040
C31	C	0.409812	-0.262854	0.395656
N32	N	0.519215	-0.239054	0.359926
N33	N	0.484823	-0.264855	0.398661
C34	C	1.048491	-0.728331	0.336203
C35	C	1.048577	-0.916007	0.336234
O36	O	1.088390	-0.940346	0.299614
N37	N	1.001808	-0.939390	0.379327
C38	C	0.955017	-0.915851	0.422419
O39	O	0.915244	-0.940047	0.459078
C40	C	0.954935	-0.728176	0.422391
C41	C	1.001703	-0.704796	0.379290
C42	C	1.095255	-0.704950	0.293106
C43	C	1.095231	-0.658034	0.293096
C44	C	1.048442	-0.634498	0.336183
C45	C	1.001678	-0.657879	0.379280
C46	C	0.908148	-0.704639	0.465486
C47	C	0.908133	-0.657717	0.465477
C48	C	0.954901	-0.634336	0.422376
C49	C	0.954865	-0.587427	0.422357
N50	N	1.001634	-0.564044	0.379264
C51	C	1.048423	-0.587580	0.336177
C52	C	0.955062	-1.014383	0.422429
C53	C	0.955082	-1.061302	0.422435
C54	C	1.048643	-1.061454	0.336251
C55	C	1.048619	-1.014535	0.336242
C56	C	1.001831	-0.991000	0.379336
C57	C	1.048367	-0.489052	0.336159
C58	C	1.048337	-0.442131	0.336150
C59	C	0.954779	-0.441983	0.422337
C60	C	0.954806	-0.488900	0.422343
C61	C	1.001607	-0.512433	0.379251
O62	O	0.915078	-0.563060	0.458963
O63	O	1.088201	-0.563377	0.299535
C64	C	1.048516	-0.775247	0.336213
C65	C	1.001752	-0.798628	0.379310
C66	C	0.954963	-0.775093	0.422397
C67	C	1.001771	-0.845547	0.379316
C68	C	1.048560	-0.869082	0.336229
C69	C	1.095329	-0.845699	0.293136
C70	C	1.095304	-0.798783	0.293126
C71	C	0.908194	-0.798476	0.465490
C72	C	0.908222	-0.845392	0.465496
C73	C	0.955010	-0.868928	0.422409
C74	C	1.184942	-0.256850	0.386642
C75	C	1.263044	-0.258941	0.389784
C76	C	0.994299	-0.256456	0.562546
C77	C	0.991160	-0.258379	0.640649
C78	C	1.001809	-0.134770	0.379324
C79	C	1.001870	-0.084837	0.379348
C80	C	1.034656	-0.231758	0.679164
C81	C	1.031698	-0.233563	0.752549
C82	C	0.985247	-0.261992	0.787417
C83	C	0.941747	-0.288614	0.748897
C84	C	0.944702	-0.286807	0.675513
C85	C	0.971585	-0.270348	1.006696
C86	C	0.968635	-0.272155	1.080085
C87	C	1.058585	-0.217102	1.083732
C88	C	1.061539	-0.215299	1.010347
C89	C	1.018036	-0.241920	0.971832
N90	N	0.982225	-0.263839	0.862429
N91	N	1.021056	-0.240070	0.896822
C92	C	1.008995	-0.247457	1.196703
C93	C	1.012131	-0.245533	1.118600
H94	H	0.730871	-0.299006	0.449900
H95	H	1.086740	-1.080625	0.301168
O96	O	0.260575	-0.317856	0.478357
C97	C	0.275706	-0.310299	0.549135
H98	H	0.328947	-0.294491	0.552770
H99	H	0.233482	-0.286705	0.571213
C100	C	0.211960	-0.374684	0.587252
C101	C	0.277355	-0.355273	0.591716
H102	H	0.212974	-0.402426	0.613519
H103	H	0.201763	-0.379775	0.539568
H104	H	0.176780	-0.355018	0.605649
H105	H	0.312531	-0.374936	0.573311
H106	H	0.287557	-0.350186	0.639399
O107	O	0.591795	-0.300041	0.451411
C108	C	0.638309	-0.327694	0.492931
H109	H	0.691770	-0.329901	0.466240
H110	H	0.643992	-0.312827	0.546664
C111	C	0.543563	-0.372289	0.534538
C112	C	0.609223	-0.375003	0.501752
H113	H	0.525621	-0.401472	0.539983
H114	H	0.512225	-0.353658	0.506568
H115	H	0.548308	-0.359899	0.579312
H116	H	0.604476	-0.387388	0.456976
H117	H	0.640560	-0.393638	0.529715
H118	H	0.273166	-0.204907	0.308683
O119	O	0.902532	-0.312737	0.638127
C120	C	0.917106	-0.358363	0.656668
H121	H	0.972423	-0.362627	0.679109
H122	H	0.877701	-0.370150	0.697734
C123	C	0.843589	-0.381281	0.563569
C124	C	0.911533	-0.386519	0.591126
H125	H	0.840148	-0.398650	0.523141
H126	H	0.833768	-0.350543	0.551079
H127	H	0.810759	-0.391103	0.597797
H128	H	0.944360	-0.376692	0.556901
H129	H	0.921359	-0.417257	0.603609
O130	O	0.412244	-0.203899	0.307124
C131	C	0.365726	-0.176237	0.265624
H132	H	0.313499	-0.193182	0.261040
H133	H	0.356917	-0.142573	0.291147
C134	C	0.461508	-0.147790	0.197634
C135	C	0.397364	-0.168605	0.191999
H136	H	0.481024	-0.143081	0.152220
H137	H	0.492849	-0.166426	0.225595
H138	H	0.454158	-0.119740	0.218907
H139	H	0.404716	-0.196657	0.170735
H140	H	0.366025	-0.149974	0.164033
H141	H	0.399688	-0.316889	0.476759
O142	O	0.896525	-0.316180	0.782729
C143	C	0.827227	-0.304052	0.761967
H144	H	0.824535	-0.267571	0.741672
H145	H	0.810545	-0.326594	0.718617
C146	C	0.781008	-0.354438	0.850190
C147	C	0.777700	-0.309631	0.825269
H148	H	0.750456	-0.357881	0.889236
H149	H	0.827695	-0.362610	0.864176
H150	H	0.767108	-0.373219	0.814059
H151	H	0.791609	-0.290852	0.861397
H152	H	0.731014	-0.301455	0.811290
H153	H	1.099366	-0.192150	0.981962
H154	H	1.133315	-0.639000	0.258002
O155	O	0.598982	-0.182138	0.274525
C156	C	0.648715	-0.157057	0.236850
H157	H	0.699875	-0.157634	0.267731
H158	H	0.658640	-0.172348	0.183748
C159	C	0.557686	-0.107516	0.187783
C160	C	0.620520	-0.108221	0.225715
H161	H	0.540294	-0.077393	0.180912
H162	H	0.524179	-0.124415	0.213163
H163	H	0.565965	-0.120261	0.143536
H164	H	0.612238	-0.095482	0.269965
H165	H	0.654025	-0.091320	0.200342
H166	H	0.870034	-0.638558	0.500571
H167	H	1.133360	-0.724108	0.258020
H168	H	1.086420	-0.423096	0.301050
O169	O	0.743623	-0.186104	0.280301
C170	C	0.787851	-0.211648	0.236531
H171	H	0.797820	-0.246619	0.261654
H172	H	0.761649	-0.214494	0.183310
C173	C	0.845847	-0.145516	0.195816
C174	C	0.858096	-0.188467	0.226676
H175	H	0.889176	-0.131216	0.189734
H176	H	0.816048	-0.128305	0.225302
H177	H	0.824010	-0.147893	0.151468
H178	H	0.879924	-0.186088	0.271026
H179	H	0.887900	-0.205676	0.197196
O180	O	1.093851	-0.511837	0.294233
C181	C	1.135127	-0.481133	0.256209
H182	H	1.106423	-0.446879	0.252598
H183	H	1.187435	-0.478160	0.284127
C184	C	1.183581	-0.539949	0.186276
C185	C	1.148324	-0.497880	0.181835
H186	H	1.191725	-0.550280	0.140400
H187	H	1.155775	-0.560636	0.211895
H188	H	1.227167	-0.537466	0.209544
H189	H	1.104735	-0.500364	0.158576
H190	H	1.176123	-0.477193	0.156211
H191	H	1.086701	-0.995501	0.301146
H192	H	0.916993	-1.080334	0.457526
O193	O	0.909537	-0.991593	0.464308
C194	C	0.868277	-1.022299	0.502349
H195	H	0.867050	-1.054977	0.473468
H196	H	0.891817	-1.029262	0.556773
C197	C	0.794573	-0.962154	0.544870
C198	C	0.793061	-1.002289	0.509395
H199	H	0.748177	-0.949810	0.549220
H200	H	0.822372	-0.941466	0.519243
H201	H	0.814193	-0.967962	0.590219
H202	H	0.773450	-0.996479	0.464044
H203	H	0.765257	-1.022975	0.535014
H204	H	0.870062	-0.723667	0.500580
O205	O	0.909351	-0.511546	0.464273
C206	C	0.868035	-0.480709	0.502284
H207	H	0.896696	-0.448071	0.505883
H208	H	0.815720	-0.473705	0.474364
C209	C	0.819657	-0.540658	0.572239
C210	C	0.854861	-0.500573	0.576665
H211	H	0.811527	-0.552912	0.618120
H212	H	0.847489	-0.561434	0.546629
H213	H	0.776065	-0.534816	0.548970
H214	H	0.898455	-0.506416	0.599926
H215	H	0.827035	-0.479798	0.602281
O216	O	0.862670	-0.775685	0.507363
C217	C	0.821413	-0.806391	0.545407
H218	H	0.820189	-0.839071	0.516531
H219	H	0.844953	-0.813350	0.599832
C220	C	0.747703	-0.746245	0.587920
C221	C	0.746195	-0.786383	0.552450
H222	H	0.701306	-0.733903	0.592268
H223	H	0.775500	-0.725558	0.562291
H224	H	0.767323	-0.752051	0.633270
H225	H	0.726584	-0.780576	0.507098
H226	H	0.718393	-0.807068	0.578072
O227	O	1.140805	-0.776145	0.251241
C228	C	1.182089	-0.806986	0.213206
H229	H	1.183349	-0.841194	0.242098
H230	H	1.158548	-0.810006	0.158786
C231	C	1.255734	-0.748372	0.170659
C232	C	1.257287	-0.790386	0.206147
H233	H	1.302120	-0.738131	0.166301
H234	H	1.227919	-0.727593	0.196281
H235	H	1.236114	-0.750894	0.125312
H236	H	1.276899	-0.787862	0.251495
H237	H	1.285108	-0.811164	0.180532
H238	H	1.094002	-0.195428	1.115098
O239	O	1.140867	-0.868585	0.251395
C240	C	1.184602	-0.897883	0.293289
H241	H	1.186640	-0.885199	0.348803
H242	H	1.162805	-0.932937	0.294822
C243	C	1.256565	-0.915245	0.193806
C244	C	1.259073	-0.899665	0.261989
H245	H	1.302501	-0.916346	0.174498
H246	H	1.227099	-0.895508	0.165581
H247	H	1.238398	-0.944455	0.195093
H248	H	1.277231	-0.870453	0.260700
H249	H	1.288544	-0.919397	0.290214
H250	H	0.916682	-0.422813	0.457415
H251	H	0.870132	-0.864425	0.500593
H252	H	1.072483	-0.208609	0.650780
H253	H	0.930807	-0.295306	1.108472
H254	H	1.067118	-0.211886	0.783905
H255	H	0.936172	-0.292031	0.975346
