data_functionalizedCrystal
_audit_creation_method	'MofGen! by Chris Wilmer'
_symmetry_space_group_name_H-M	'P1'
_symmetry_Int_Tables_number	1
_symmetry_cell_setting	triclinic
loop_
_symmetry_equiv_pos_as_xyz
  x,y,z
_cell_length_a	15.624803
_cell_length_b	15.625429
_cell_length_c	9.130313
_cell_angle_alpha	71.921598
_cell_angle_beta	71.913787
_cell_angle_gamma	78.660423
loop_
_atom_site_label
_atom_site_type_symbol
_atom_site_fract_x
_atom_site_fract_y
_atom_site_fract_z
O1	O	1.196430	0.117597	-0.819869
O2	O	0.933954	0.131640	-0.687885
O3	O	1.072207	-0.006608	-0.687908
O4	O	1.058176	0.255845	-0.819846
O5	O	1.072205	-0.006605	-0.444311
O6	O	0.933952	0.131643	-0.444287
O7	O	1.196428	0.117600	-0.576272
Cu8	Cu	1.065190	0.124622	-0.488037
Cu9	Cu	1.065192	0.124618	-0.776120
O10	O	1.058175	0.255848	-0.576248
C11	C	0.900362	0.131009	-0.547905
C12	C	0.800272	0.129114	-0.493725
C13	C	0.471188	0.122820	-0.979580
C14	C	0.377140	0.121022	-0.928659
C15	C	0.377116	0.121025	-0.663086
C16	C	0.471165	0.122820	-0.713983
C17	C	0.518194	0.123718	-0.872232
C18	C	0.518172	0.123717	-0.606635
C19	C	0.612213	0.125516	-0.657531
C20	C	0.659247	0.126418	-0.815775
C21	C	0.612235	0.125517	-0.923128
C22	C	0.471141	0.122825	-0.448390
C23	C	0.518147	0.123723	-0.341042
C24	C	0.612190	0.125516	-0.391934
C25	C	0.659225	0.126417	-0.550178
C26	C	0.659203	0.126416	-0.284580
C27	C	0.753244	0.128215	-0.335476
C28	C	0.753266	0.128216	-0.601073
C29	C	1.071572	-0.040194	-0.547937
C30	C	1.069671	-0.140275	-0.493783
C31	C	1.063399	-0.469439	-0.979534
C32	C	1.061609	-0.563479	-0.928600
C33	C	1.061607	-0.563462	-0.663047
C34	C	1.063402	-0.469420	-0.713961
C35	C	1.064296	-0.422416	-0.872205
C36	C	1.064299	-0.422397	-0.606632
C37	C	1.066089	-0.328362	-0.657540
C38	C	1.066981	-0.281351	-0.815777
C39	C	1.066086	-0.328382	-0.923113
C40	C	1.063398	-0.469402	-0.448385
C41	C	1.064296	-0.422378	-0.341057
C42	C	1.066092	-0.328343	-0.391967
C43	C	1.066984	-0.281332	-0.550203
C44	C	1.066987	-0.281313	-0.284630
C45	C	1.068776	-0.187279	-0.335538
C46	C	1.068773	-0.187298	-0.601111
C47	C	1.230020	0.118231	-0.716255
C48	C	1.330109	0.120126	-0.770445
C49	C	1.058810	0.289434	-0.716223
C50	C	1.060711	0.389515	-0.770387
N51	N	1.065195	0.124625	-0.285419
N52	N	1.065194	0.124608	-0.978738
C53	C	1.126429	0.063429	-0.208796
C54	C	1.126427	0.063418	-0.055452
C55	C	1.003953	0.185807	-0.055369
C56	C	1.003952	0.185812	-0.208706
C57	C	1.187672	0.002242	-0.285509
C58	C	1.248912	-0.058958	-0.208887
C59	C	1.248910	-0.058969	-0.055543
C60	C	1.187667	0.002220	0.021179
H61	H	0.338871	0.120293	-1.016089
Cl62	Cl	1.187682	0.002255	-0.478287
H63	H	0.954093	0.235625	0.007107
Cl64	Cl	1.063163	-0.481477	-0.142124
H65	H	0.620897	0.125693	-0.155738
H66	H	0.954089	0.235643	-0.271092
Cl67	Cl	0.317985	0.119899	-0.464153
H68	H	0.650529	0.126246	-1.051989
Cl69	Cl	0.459016	0.122597	-0.142109
H70	H	1.066249	-0.319597	-0.155783
H71	H	1.298769	-0.108782	-0.271357
H72	H	1.298767	-0.108806	0.006847
H73	H	1.066823	-0.290109	-1.051975
Cl74	Cl	0.812396	0.129334	-0.800014
H75	H	1.187665	0.002200	0.146048
Cl76	Cl	1.061146	-0.587618	-0.384386
Cl77	Cl	1.069912	-0.128202	-0.800058
Cl78	Cl	0.777471	0.128683	-0.879764
Cl79	Cl	1.060475	-0.622591	-1.063544
H80	H	1.069488	-0.148989	-0.248131
H81	H	0.394566	0.121366	-0.406958
Cl82	Cl	1.060475	-0.622560	-0.464115
Cl83	Cl	0.530318	0.123938	-1.178521
H84	H	1.068428	-0.204781	-0.857219
Cl85	Cl	1.064537	-0.410343	-1.178481
Cl86	Cl	0.812341	0.129346	-0.200524
