data_functionalizedCrystal
_audit_creation_method	'MofGen! by Chris Wilmer'
_symmetry_space_group_name_H-M	'P1'
_symmetry_Int_Tables_number	1
_symmetry_cell_setting	triclinic
loop_
_symmetry_equiv_pos_as_xyz
  x,y,z
_cell_length_a	27.731993
_cell_length_b	26.809956
_cell_length_c	11.792241
_cell_angle_alpha	89.995376
_cell_angle_beta	96.593096
_cell_angle_gamma	90.004510
loop_
_atom_site_label
_atom_site_type_symbol
_atom_site_fract_x
_atom_site_fract_y
_atom_site_fract_z
O1	O	0.641734	0.041346	-0.134742
O2	O	1.141734	0.541346	0.365258
O3	O	0.501057	0.041376	-0.155340
O4	O	1.001057	0.541376	0.344660
O5	O	0.574809	0.041357	0.020240
O6	O	1.074809	0.541357	0.520240
O7	O	0.567982	0.041365	-0.310323
O8	O	1.067982	0.541365	0.189677
O9	O	0.574787	-0.041603	0.020240
O10	O	1.074787	0.458397	0.520240
O11	O	0.501034	-0.041583	-0.155340
O12	O	1.001034	0.458417	0.344660
O13	O	0.641712	-0.041614	-0.134742
O14	O	1.141712	0.458386	0.365258
Zn15	Zn	0.571369	-0.054770	-0.145041
Zn16	Zn	1.071369	0.445230	0.354959
Zn17	Zn	0.571399	0.054532	-0.145041
Zn18	Zn	1.071399	0.554532	0.354959
O19	O	0.567959	-0.041594	-0.310323
O20	O	1.067959	0.458406	0.189677
C21	C	0.483035	-0.000100	-0.154917
C22	C	0.983035	0.499900	0.345083
C23	C	0.429372	-0.000088	-0.153644
C24	C	0.929372	0.499912	0.346356
C25	C	0.046171	0.045108	-0.144416
C26	C	0.546171	0.545108	0.355584
C27	C	0.247856	0.045122	-0.149269
C28	C	0.747856	0.545122	0.350731
O29	O	0.273943	0.083582	-0.149851
O30	O	0.773943	0.583582	0.350149
N31	N	0.273067	-0.000098	-0.149876
N32	N	0.773067	0.499902	0.350124
C33	C	0.247855	-0.045325	-0.149262
C34	C	0.747855	0.454675	0.350738
O35	O	0.273927	-0.083787	-0.149878
O36	O	0.773927	0.416213	0.350122
C37	C	0.046170	-0.045338	-0.144401
C38	C	0.546170	0.454662	0.355599
C39	C	0.020961	-0.000115	-0.143806
C40	C	0.520961	0.499885	0.356194
C41	C	0.020961	0.090328	-0.143819
C42	C	0.520961	0.590328	0.356181
C43	C	-0.029458	0.090324	-0.142612
C44	C	0.470542	0.590324	0.357388
C45	C	-0.054667	0.045101	-0.142002
C46	C	0.445333	0.545101	0.357998
C47	C	-0.029458	-0.000119	-0.142599
C48	C	0.470542	0.499881	0.357401
C49	C	0.020959	-0.090564	-0.143779
C50	C	0.520959	0.409436	0.356221
C51	C	-0.029465	-0.090563	-0.142561
C52	C	0.470535	0.409437	0.357439
C53	C	-0.054674	-0.045340	-0.141966
C54	C	0.445326	0.454660	0.358034
C55	C	-0.105086	-0.045346	-0.140782
C56	C	0.394914	0.454654	0.359218
N57	N	-0.130297	-0.000126	-0.140174
N58	N	0.369703	0.499874	0.359826
C59	C	-0.105088	0.045098	-0.140784
C60	C	0.394912	0.545098	0.359216
C61	C	0.353742	-0.045314	-0.151817
C62	C	0.853742	0.454686	0.348183
C63	C	0.404162	-0.045311	-0.153034
C64	C	0.904162	0.454689	0.346966
C65	C	0.404160	0.045136	-0.153038
C66	C	0.904160	0.545136	0.346962
C67	C	0.353738	0.045132	-0.151829
C68	C	0.853738	0.545132	0.348171
C69	C	0.328530	-0.000094	-0.151210
C70	C	0.828530	0.499906	0.348790
C71	C	-0.210971	0.045086	-0.138251
C72	C	0.289029	0.545086	0.361749
C73	C	-0.261394	0.045078	-0.137048
C74	C	0.238606	0.545078	0.362952
C75	C	-0.261387	-0.045368	-0.137038
C76	C	0.238613	0.454632	0.362962
C77	C	-0.210969	-0.045361	-0.138247
C78	C	0.289031	0.454639	0.361753
C79	C	-0.185761	-0.000130	-0.138849
C80	C	0.314239	0.499870	0.361151
O81	O	-0.131203	-0.083785	-0.140186
O82	O	0.368797	0.416215	0.359814
O83	O	-0.131167	0.083554	-0.140143
O84	O	0.368833	0.583554	0.359857
C85	C	0.096589	0.045112	-0.145623
C86	C	0.596589	0.545112	0.354377
C87	C	0.121799	-0.000107	-0.146220
C88	C	0.621799	0.499893	0.353780
C89	C	0.096589	-0.045330	-0.145609
C90	C	0.596589	0.454670	0.354391
C91	C	0.172219	-0.000104	-0.147437
C92	C	0.672219	0.499896	0.352563
C93	C	0.197429	0.045119	-0.148047
C94	C	0.697429	0.545119	0.351953
C95	C	0.172217	0.090339	-0.147440
C96	C	0.672217	0.590339	0.352560
C97	C	0.121799	0.090336	-0.146233
C98	C	0.621799	0.590336	0.353767
C99	C	0.121800	-0.090550	-0.146217
C100	C	0.621800	0.409450	0.353783
C101	C	0.172219	-0.090543	-0.147425
C102	C	0.672219	0.409457	0.352575
C103	C	0.197429	-0.045319	-0.148035
C104	C	0.697429	0.454681	0.351965
N105	N	0.571352	-0.129366	-0.145041
N106	N	1.071352	0.370634	0.354959
C107	C	0.600887	-0.473997	-0.213375
C108	C	1.100887	0.026003	0.286625
C109	C	0.600903	-0.682875	-0.213374
C110	C	1.100903	-0.182875	0.286626
O111	O	0.626002	-0.709883	-0.271462
O112	O	1.126002	-0.209883	0.228538
N113	N	0.571411	-0.708993	-0.145030
N114	N	1.071411	-0.208993	0.354970
C115	C	0.541915	-0.682889	-0.076675
C116	C	1.041915	-0.182889	0.423325
O117	O	0.516835	-0.709897	-0.018535
O118	O	1.016835	-0.209897	0.481465
C119	C	0.541902	-0.474012	-0.076671
C120	C	1.041902	0.025988	0.423329
C121	C	0.571393	-0.447896	-0.145028
C122	C	1.071393	0.052104	0.354972
C123	C	0.630375	-0.447881	-0.281726
C124	C	1.130375	0.052119	0.218274
C125	C	0.630369	-0.395665	-0.281730
C126	C	1.130369	0.104335	0.218270
C127	C	0.600875	-0.369564	-0.213383
C128	C	1.100875	0.130436	0.286617
C129	C	0.571387	-0.395680	-0.145032
C130	C	1.071387	0.104320	0.354968
C131	C	0.512410	-0.447909	-0.008311
C132	C	1.012410	0.052091	0.491689
C133	C	0.512410	-0.395686	-0.008314
C134	C	1.012410	0.104314	0.491686
C135	C	0.541900	-0.369571	-0.076671
C136	C	1.041900	0.130429	0.423329
C137	C	0.541886	-0.317363	-0.076690
C138	C	1.041886	0.182637	0.423310
N139	N	0.571378	-0.291245	-0.145034
N140	N	1.071378	0.208755	0.354966
C141	C	0.600872	-0.317345	-0.213381
C142	C	1.100872	0.182655	0.286619
C143	C	0.541923	-0.792552	-0.076684
C144	C	1.041923	-0.292552	0.423316
C145	C	0.541926	-0.844771	-0.076686
C146	C	1.041926	-0.344771	0.423314
C147	C	0.600914	-0.844753	-0.213384
C148	C	1.100914	-0.344753	0.286616
C149	C	0.600909	-0.792533	-0.213387
C150	C	1.100909	-0.292533	0.286613
C151	C	0.571415	-0.766434	-0.145028
C152	C	1.071415	-0.266434	0.354972
C153	C	0.600857	-0.207687	-0.213386
C154	C	1.100857	0.292313	0.286614
C155	C	0.600847	-0.155466	-0.213387
C156	C	1.100847	0.344534	0.286613
C157	C	0.541860	-0.155489	-0.076686
C158	C	1.041860	0.344511	0.423314
C159	C	0.541868	-0.207705	-0.076688
C160	C	1.041868	0.292295	0.423312
C161	C	0.571371	-0.233803	-0.145041
C162	C	1.071371	0.266197	0.354959
O163	O	0.516804	-0.290323	-0.018623
O164	O	1.016804	0.209677	0.481377
O165	O	0.625957	-0.290328	-0.271493
O166	O	1.125957	0.209672	0.228507
C167	C	0.600893	-0.526213	-0.213371
C168	C	1.100893	-0.026213	0.286629
C169	C	0.571405	-0.552329	-0.145020
C170	C	1.071405	-0.052329	0.354980
C171	C	0.541911	-0.526228	-0.076673
C172	C	1.041911	-0.026228	0.423327
C173	C	0.571407	-0.604548	-0.145022
C174	C	1.071407	-0.104548	0.354978
C175	C	0.600902	-0.630648	-0.213369
C176	C	1.100902	-0.130648	0.286631
C177	C	0.630394	-0.604530	-0.281713
C178	C	1.130394	-0.104530	0.218287
C179	C	0.630388	-0.552314	-0.281717
C180	C	1.130388	-0.052314	0.218283
C181	C	0.512419	-0.552347	-0.008329
C182	C	1.012419	-0.052347	0.491671
C183	C	0.512427	-0.604563	-0.008331
C184	C	1.012427	-0.104563	0.491669
C185	C	0.541921	-0.630664	-0.076678
C186	C	1.041921	-0.130664	0.423322
C187	C	0.659733	-0.000137	-0.135165
C188	C	1.159733	0.499863	0.364835
C189	C	0.713397	-0.000145	-0.136438
C190	C	1.213397	0.499855	0.363562
C191	C	0.574369	-0.000123	0.062517
C192	C	1.074369	0.499877	0.562517
C193	C	0.573085	-0.000122	0.188489
C194	C	1.073085	0.499878	0.688489
N195	N	0.571420	0.129128	-0.145033
N196	N	1.071420	0.629128	0.354967
C197	C	0.568399	-0.000114	-0.352600
C198	C	1.068399	0.499886	0.147400
C199	C	0.569683	-0.000111	-0.478572
C200	C	1.069683	0.499889	0.021428
C201	C	0.570725	-0.000113	0.419125
C202	C	1.070725	0.499887	0.919125
C203	C	0.572037	-0.000118	0.290782
C204	C	1.072037	0.499882	0.790782
H205	H	-0.190443	-0.082185	-0.138754
H206	H	0.309557	0.417815	0.361246
C207	C	0.633306	-0.236388	-0.288589
C208	C	1.133306	0.263612	0.211411
N209	N	0.657743	-0.258004	-0.345240
N210	N	1.157743	0.241996	0.154760
C211	C	0.479981	-0.633285	0.066869
C212	C	0.979981	-0.133285	0.566869
N213	N	0.455547	-0.654916	0.123515
N214	N	0.955547	-0.154916	0.623515
C215	C	0.509472	-0.763849	-0.001488
C216	C	1.009472	-0.263849	0.498512
N217	N	0.485027	-0.742232	0.055145
N218	N	0.985027	-0.242232	0.555145
C219	C	0.431886	-0.095060	-0.153702
C220	C	0.931886	0.404940	0.346298
N221	N	0.452767	-0.132533	-0.154197
N222	N	0.952767	0.367467	0.345803
C223	C	0.509427	-0.236433	-0.001495
C224	C	1.009427	0.263567	0.498505
N225	N	0.484996	-0.258068	0.055153
N226	N	0.984996	0.241932	0.555153
C227	C	0.199958	0.140085	-0.148107
C228	C	0.699958	0.640085	0.351893
N229	N	0.220854	0.177551	-0.148601
N230	N	0.720854	0.677551	0.351399
C231	C	0.662815	-0.476583	-0.356942
C232	C	1.162815	0.023417	0.143058
N233	N	0.687245	-0.498199	-0.413614
N234	N	1.187245	0.001801	0.086386
H235	H	0.624922	-0.771273	-0.269050
H236	H	1.124922	-0.271273	0.230950
C237	C	0.662817	-0.366944	-0.356915
C238	C	1.162817	0.133056	0.143085
N239	N	0.687261	-0.345315	-0.413542
N240	N	1.187261	0.154685	0.086458
C241	C	-0.057191	-0.140317	-0.141886
C242	C	0.442809	0.359683	0.358114
N243	N	-0.078073	-0.177792	-0.141383
N244	N	0.421927	0.322208	0.358617
H245	H	0.517906	-0.866030	-0.021036
H246	H	1.017906	-0.366030	0.478964
H247	H	0.624928	-0.866013	-0.269039
H248	H	1.124928	-0.366013	0.230961
H249	H	0.488396	-0.469163	0.047355
H250	H	0.988396	0.030837	0.547355
C251	C	0.094076	0.140085	-0.145564
C252	C	0.594076	0.640085	0.354436
N253	N	0.073198	0.177559	-0.145054
N254	N	0.573198	0.677559	0.354946
H255	H	0.517845	-0.134228	-0.021043
H256	H	1.017845	0.365772	0.478957
C257	C	-0.289127	-0.095112	-0.136363
C258	C	0.210873	0.404888	0.363637
N259	N	-0.310022	-0.132578	-0.135846
N260	N	0.189978	0.367422	0.364154
C261	C	0.199944	-0.140295	-0.148079
C262	C	0.699944	0.359705	0.351921
N263	N	0.220825	-0.177768	-0.148561
N264	N	0.720825	0.322232	0.351439
H265	H	0.101280	-0.127377	-0.145714
H266	H	0.601280	0.372623	0.354286
H267	H	0.654402	-0.531055	-0.337381
H268	H	1.154402	-0.031055	0.162619
C269	C	0.662839	-0.633251	-0.356892
C270	C	1.162839	-0.133251	0.143108
N271	N	0.687277	-0.654886	-0.413508
N272	N	1.187277	-0.154886	0.086492
C273	C	0.633291	-0.126742	-0.288584
C274	C	1.133291	0.373258	0.211416
N275	N	0.657730	-0.105109	-0.345217
N276	N	1.157730	0.394891	0.154783
H277	H	0.488393	-0.374439	0.047354
H278	H	0.988393	0.125561	0.547354
C279	C	0.479968	-0.523644	0.066856
C280	C	0.979968	-0.023644	0.566856
N281	N	0.455521	-0.502026	0.123483
N282	N	0.955521	-0.002026	0.623483
H283	H	-0.281917	0.081906	-0.136567
H284	H	0.218083	0.581906	0.363433
H285	H	-0.190453	0.081918	-0.138743
H286	H	0.309547	0.581918	0.361257
H287	H	0.424694	0.081958	-0.153539
H288	H	0.924694	0.581958	0.346461
H289	H	-0.049978	0.127149	-0.142122
H290	H	0.450022	0.627149	0.357878
H291	H	0.333216	0.081956	-0.151344
H292	H	0.833216	0.581956	0.348656
C293	C	0.048679	-0.140314	-0.144424
C294	C	0.548679	0.359686	0.355576
N295	N	0.069557	-0.177788	-0.144904
N296	N	0.569557	0.322212	0.355096
H297	H	0.041482	0.127156	-0.144312
H298	H	0.541482	0.627156	0.355688
C299	C	0.326018	-0.095070	-0.151160
C300	C	0.826018	0.404930	0.348840
N301	N	0.305138	-0.132547	-0.150676
N302	N	0.805138	0.367453	0.349324
