data_functionalizedCrystal
_audit_creation_method	'MofGen! by Chris Wilmer'
_symmetry_space_group_name_H-M	'P1'
_symmetry_Int_Tables_number	1
_symmetry_cell_setting	triclinic
loop_
_symmetry_equiv_pos_as_xyz
  x,y,z
_cell_length_a	19.077105
_cell_length_b	21.295411
_cell_length_c	21.295417
_cell_angle_alpha	89.979403
_cell_angle_beta	87.725910
_cell_angle_gamma	87.678773
loop_
_atom_site_label
_atom_site_type_symbol
_atom_site_fract_x
_atom_site_fract_y
_atom_site_fract_z
Zn1	Zn	1.075994	-0.394530	-0.289414
Zn2	Zn	1.409327	-0.061196	0.043920
Zn3	Zn	1.742660	0.272137	0.377253
Zn4	Zn	1.075886	-0.289253	-0.394662
Zn5	Zn	1.409219	0.044080	-0.061328
Zn6	Zn	1.742553	0.377413	0.272005
Zn7	Zn	0.958286	-0.285051	-0.285177
Zn8	Zn	1.291619	0.048283	0.048156
Zn9	Zn	1.624952	0.381616	0.381490
Zn10	Zn	0.958253	-0.390263	-0.390411
Zn11	Zn	1.291587	-0.056930	-0.057077
Zn12	Zn	1.624920	0.276403	0.276256
O13	O	1.017105	-0.339774	-0.339916
O14	O	1.350438	-0.006441	-0.006582
O15	O	1.683771	0.326892	0.326751
O16	O	1.174470	-0.384109	-0.306927
O17	O	1.507804	-0.050776	0.026406
O18	O	1.841137	0.282558	0.359739
O19	O	1.060255	-0.200605	-0.380144
O20	O	1.393588	0.132728	-0.046811
O21	O	1.726921	0.466061	0.286522
O22	O	0.973959	-0.299600	-0.197652
O23	O	1.307292	0.033733	0.135682
O24	O	1.640625	0.367067	0.469015
O25	O	1.174391	-0.306763	-0.384253
O26	O	1.507725	0.026571	-0.050919
O27	O	1.841058	0.359904	0.282414
O28	O	1.060438	-0.380034	-0.200764
O29	O	1.393771	-0.046700	0.132569
O30	O	1.727105	0.286633	0.465902
O31	O	0.973854	-0.197518	-0.299706
O32	O	1.307188	0.135816	0.033627
O33	O	1.640521	0.469149	0.366960
O34	O	0.859791	-0.295463	-0.295584
O35	O	1.193124	0.037870	0.037749
O36	O	1.526457	0.371204	0.371082
O37	O	0.973903	-0.478920	-0.377007
O38	O	1.307236	-0.145587	-0.043674
O39	O	1.640570	0.187747	0.289659
O40	O	0.859767	-0.372763	-0.372899
O41	O	1.193100	-0.039429	-0.039566
O42	O	1.526433	0.293904	0.293768
O43	O	1.060406	-0.482054	-0.302805
O44	O	1.393740	-0.148721	0.030528
O45	O	1.727073	0.184612	0.363861
O46	O	1.060223	-0.302626	-0.482185
O47	O	1.393557	0.030708	-0.148852
O48	O	1.726890	0.364041	0.184482
O49	O	0.973799	-0.376838	-0.479062
O50	O	1.307132	-0.043504	-0.145729
O51	O	1.640465	0.289829	0.187605
C52	C	0.834241	-0.333194	-0.333321
C53	C	1.167574	0.000139	0.000012
C54	C	1.500908	0.333472	0.333345
C55	C	0.756011	-0.330394	-0.330515
C56	C	1.089344	0.002939	0.002818
C57	C	1.422678	0.336273	0.336152
C58	C	0.719264	-0.369261	-0.369511
C59	C	1.052598	-0.035928	-0.036178
C60	C	1.385931	0.297406	0.297156
C61	C	0.645759	-0.366633	-0.366866
C62	C	0.979092	-0.033300	-0.033533
C63	C	1.312426	0.300034	0.299800
C64	C	0.609002	-0.325135	-0.325228
C65	C	0.942335	0.008199	0.008105
C66	C	1.275669	0.341532	0.341439
C67	C	0.645754	-0.286266	-0.286228
C68	C	0.979087	0.047067	0.047106
C69	C	1.312420	0.380400	0.380439
C70	C	0.719258	-0.288898	-0.288870
C71	C	1.052591	0.044436	0.044463
C72	C	1.385924	0.377769	0.377797
C73	C	0.389168	-0.312959	-0.313000
C74	C	0.722501	0.020375	0.020333
C75	C	1.055835	0.353708	0.353667
C76	C	0.315659	-0.310329	-0.310362
C77	C	0.648992	0.023005	0.022971
C78	C	0.982326	0.356338	0.356305
C79	C	0.315669	-0.390697	-0.391000
C80	C	0.649003	-0.057363	-0.057667
C81	C	0.982336	0.275970	0.275667
C82	C	0.389175	-0.393322	-0.393641
C83	C	0.722508	-0.059989	-0.060308
C84	C	1.055841	0.273345	0.273026
C85	C	0.425920	-0.354456	-0.354639
C86	C	0.759254	-0.021122	-0.021305
C87	C	1.092587	0.312211	0.312028
N88	N	0.533868	-0.322446	-0.322525
N89	N	0.867201	0.010887	0.010808
N90	N	1.200534	0.344220	0.344142
N91	N	0.501053	-0.357148	-0.357339
N92	N	0.834386	-0.023815	-0.024006
N93	N	1.167720	0.309519	0.309328
C94	C	1.017163	-0.503967	-0.339905
C95	C	1.350496	-0.170633	-0.006571
C96	C	1.683830	0.162700	0.326762
C97	C	1.017188	-0.573936	-0.339900
C98	C	1.350521	-0.240602	-0.006567
C99	C	1.683855	0.092731	0.326767
C100	C	1.062228	-0.608435	-0.301261
C101	C	1.395562	-0.275102	0.032072
C102	C	1.728895	0.058231	0.365406
C103	C	1.062227	-0.674178	-0.301234
C104	C	1.395561	-0.340845	0.032100
C105	C	1.728894	-0.007511	0.365433
C106	C	1.017193	-0.705419	-0.339857
C107	C	1.350527	-0.372085	-0.006523
C108	C	1.683860	-0.038752	0.326810
C109	C	0.972144	-0.670911	-0.378498
C110	C	1.305478	-0.337577	-0.045165
C111	C	1.638811	-0.004244	0.288169
C112	C	0.972142	-0.605169	-0.378520
C113	C	1.305475	-0.271836	-0.045186
C114	C	1.638808	0.061497	0.288147
N115	N	1.011764	-0.808440	-0.394729
N116	N	1.345097	-0.475107	-0.061396
N117	N	1.678431	-0.141773	0.271938
N118	N	1.011771	-0.870892	-0.394707
N119	N	1.345104	-0.537558	-0.061374
N120	N	1.678437	-0.204225	0.271960
C121	C	1.017198	-0.903493	-0.339793
C122	C	1.350531	-0.570160	-0.006460
C123	C	1.683865	-0.236827	0.326874
N124	N	1.022632	-0.871285	-0.284901
N125	N	1.355965	-0.537951	0.048432
N126	N	1.689298	-0.204618	0.381765
N127	N	1.022629	-0.808827	-0.284924
N128	N	1.355962	-0.475494	0.048409
N129	N	1.689295	-0.142161	0.381742
C130	C	1.017191	-0.776704	-0.339837
C131	C	1.350524	-0.443370	-0.006504
C132	C	1.683858	-0.110037	0.326829
C133	C	1.062240	-1.009279	-0.301121
C134	C	1.395573	-0.675945	0.032212
C135	C	1.728906	-0.342612	0.365545
C136	C	1.062234	-1.075022	-0.301093
C137	C	1.395567	-0.741689	0.032241
C138	C	1.728900	-0.408356	0.365574
C139	C	0.972154	-1.071754	-0.378363
C140	C	1.305488	-0.738421	-0.045030
C141	C	1.638821	-0.405087	0.288304
C142	C	0.972157	-1.006011	-0.378386
C143	C	1.305490	-0.672678	-0.045052
C144	C	1.638823	-0.339345	0.288281
C145	C	1.017203	-0.974778	-0.339766
C146	C	1.350536	-0.641445	-0.006433
C147	C	1.683870	-0.308111	0.326901
C148	C	1.200682	-0.346380	-0.346537
C149	C	1.534016	-0.013047	-0.013203
C150	C	1.867349	0.320286	0.320130
C151	C	1.278912	-0.349196	-0.349358
C152	C	1.612246	-0.015862	-0.016025
C153	C	1.945579	0.317471	0.317309
C154	C	1.017015	-0.339739	-0.503464
C155	C	1.350348	-0.006406	-0.170131
C156	C	1.683682	0.326927	0.163202
C157	C	1.017041	-0.339748	-0.573433
C158	C	1.350374	-0.006414	-0.240100
C159	C	1.683708	0.326919	0.093233
C160	C	1.017087	-0.176222	-0.339883
C161	C	1.350420	0.157111	-0.006550
C162	C	1.683754	0.490445	0.326784
C163	C	1.017198	-0.106258	-0.339715
C164	C	1.350532	0.227075	-0.006382
C165	C	1.683865	0.560408	0.326951
C166	C	1.062045	-0.381657	-0.607863
C167	C	1.395378	-0.048324	-0.274529
C168	C	1.728712	0.285009	0.058804
C169	C	1.062070	-0.381674	-0.673606
C170	C	1.395403	-0.048340	-0.340273
C171	C	1.728737	0.284993	-0.006939
C172	C	1.017098	-0.339769	-0.704918
C173	C	1.350431	-0.006436	-0.371584
C174	C	1.683765	0.326897	-0.038251
C175	C	0.972085	-0.297857	-0.670480
C176	C	1.305419	0.035477	-0.337147
C177	C	1.638752	0.368810	-0.003814
C178	C	0.972057	-0.297846	-0.604738
C179	C	1.305390	0.035488	-0.271405
C180	C	1.638723	0.368821	0.061929
N181	N	1.011777	-0.284487	-0.807979
N182	N	1.345110	0.048846	-0.474645
N183	N	1.678443	0.382179	-0.141312
N184	N	1.011808	-0.284500	-0.870431
N185	N	1.345141	0.048834	-0.537098
N186	N	1.678474	0.382167	-0.203764
C187	C	1.017180	-0.339801	-0.902995
C188	C	1.350514	-0.006467	-0.569662
C189	C	1.683847	0.326866	-0.236329
N190	N	1.022534	-0.395091	-0.870748
N191	N	1.355867	-0.061757	-0.537415
N192	N	1.689201	0.271576	-0.204082
N193	N	1.022506	-0.395078	-0.808290
N194	N	1.355840	-0.061745	-0.474957
N195	N	1.689173	0.271589	-0.141624
C196	C	1.017124	-0.339777	-0.776204
C197	C	1.350457	-0.006444	-0.442871
C198	C	1.683790	0.326890	-0.109537
C199	C	1.062214	-0.381732	-1.008711
C200	C	1.395547	-0.048398	-0.675378
C201	C	1.728880	0.284935	-0.342045
C202	C	1.062234	-0.381749	-1.074456
C203	C	1.395567	-0.048416	-0.741122
C204	C	1.728900	0.284918	-0.407789
C205	C	0.972253	-0.297926	-1.071329
C206	C	1.305586	0.035407	-0.737996
C207	C	1.638919	0.368740	-0.404662
C208	C	0.972229	-0.297915	-1.005586
C209	C	1.305562	0.035419	-0.672252
C210	C	1.638896	0.368752	-0.338919
C211	C	1.017213	-0.339817	-0.974281
C212	C	1.350547	-0.006483	-0.640948
C213	C	1.683880	0.326850	-0.307614
C214	C	1.017214	-0.339824	-0.175729
C215	C	1.350547	-0.006491	0.157604
C216	C	1.683881	0.326843	0.490937
C217	C	1.017260	-0.339845	-0.105763
C218	C	1.350594	-0.006512	0.227570
C219	C	1.683927	0.326822	0.560904
H220	H	0.285733	-0.276539	-0.276448
H221	H	0.619066	0.056794	0.056885
H222	H	0.952400	0.390127	0.390219
H223	H	0.749176	-0.257251	-0.257112
H224	H	1.082509	0.076082	0.076221
H225	H	1.415842	0.409415	0.409555
H226	H	0.419098	-0.427113	-0.427549
H227	H	0.752431	-0.093780	-0.094215
H228	H	1.085764	0.239554	0.239118
H229	H	0.419077	-0.281306	-0.281246
H230	H	0.752411	0.052027	0.052087
H231	H	1.085744	0.385360	0.385421
H232	H	0.285743	-0.422340	-0.422753
H233	H	0.619077	-0.089007	-0.089419
H234	H	0.952410	0.244327	0.243914
H235	H	1.098881	-0.415880	-1.102487
H236	H	1.432214	-0.082547	-0.769154
H237	H	1.765548	0.250787	-0.435821
H238	H	1.098908	-0.583009	-0.269813
H239	H	1.432241	-0.249676	0.063520
H240	H	1.765574	0.083657	0.396854
H241	H	0.935475	-0.696351	-0.409943
H242	H	1.268809	-0.363017	-0.076610
H243	H	1.602142	-0.029684	0.256723
H244	H	1.098903	-0.702273	-0.269766
H245	H	1.432236	-0.368940	0.063568
H246	H	1.765570	-0.035606	0.396901
H247	H	0.615820	-0.252480	-0.252322
H248	H	0.949153	0.080853	0.081011
H249	H	1.282487	0.414187	0.414344
H250	H	0.615843	-0.398282	-0.398622
H251	H	0.949177	-0.064949	-0.065288
H252	H	1.282510	0.268385	0.268045
H253	H	1.098712	-0.415809	-0.701644
H254	H	1.432045	-0.082475	-0.368310
H255	H	1.765378	0.250858	-0.034977
H256	H	0.935461	-0.577080	-0.409983
H257	H	1.268794	-0.243746	-0.076650
H258	H	1.602128	0.089587	0.256684
H259	H	1.098915	-0.983847	-0.269671
H260	H	1.432248	-0.650514	0.063662
H261	H	1.765582	-0.317180	0.396996
H262	H	1.098910	-1.103111	-0.269625
H263	H	1.432243	-0.769778	0.063709
H264	H	1.765576	-0.436444	0.397042
H265	H	0.935467	-0.263739	-0.695978
H266	H	1.268801	0.069594	-0.362645
H267	H	1.602134	0.402928	-0.029312
H268	H	0.935408	-0.263717	-0.576705
H269	H	1.268741	0.069616	-0.243371
H270	H	1.602075	0.402950	0.089962
H271	H	0.935585	-0.263785	-0.977551
H272	H	1.268919	0.069548	-0.644218
H273	H	1.602252	0.402881	-0.310885
H274	H	0.935631	-0.263811	-1.096822
H275	H	1.268965	0.069522	-0.763489
H276	H	1.602298	0.402856	-0.430155
H277	H	1.098840	-0.415853	-0.983222
H278	H	1.432174	-0.082520	-0.649889
H279	H	1.765507	0.250814	-0.316555
H280	H	0.935480	-1.097189	-0.409804
H281	H	1.268813	-0.763856	-0.076471
H282	H	1.602146	-0.430522	0.256863
H283	H	0.935484	-0.977921	-0.409854
H284	H	1.268817	-0.644588	-0.076520
H285	H	1.602151	-0.311255	0.256813
H286	H	1.098672	-0.415778	-0.582376
H287	H	1.432005	-0.082444	-0.249043
H288	H	1.765339	0.250889	0.084290
H289	H	0.749187	-0.403052	-0.403420
H290	H	1.082520	-0.069718	-0.070086
H291	H	1.415854	0.263615	0.263247
