data_functionalizedCrystal
_audit_creation_method	'MofGen! by Chris Wilmer'
_symmetry_space_group_name_H-M	'P1'
_symmetry_Int_Tables_number	1
_symmetry_cell_setting	triclinic
loop_
_symmetry_equiv_pos_as_xyz
  x,y,z
_cell_length_a	6.817900
_cell_length_b	11.168129
_cell_length_c	11.168136
_cell_angle_alpha	92.020277
_cell_angle_beta	108.508683
_cell_angle_gamma	108.508637
loop_
_atom_site_label
_atom_site_type_symbol
_atom_site_fract_x
_atom_site_fract_y
_atom_site_fract_z
V1	V	-4.109883	-0.174724	-0.393710
O2	O	-4.069466	0.008377	-0.386204
O3	O	-4.086171	-0.346429	-0.391028
O4	O	-4.086173	-0.172045	-0.565416
O5	O	-4.069464	-0.167215	-0.210610
V6	V	-4.587112	-0.152822	-0.371809
O7	O	-4.384946	-0.222767	-0.441753
O8	O	-4.762246	-0.104778	-0.323766
O9	O	-4.387617	0.018883	-0.374490
O10	O	-4.744926	-0.335922	-0.379315
O11	O	-4.744928	-0.160331	-0.554909
O12	O	-4.387615	-0.155501	-0.200103
C13	C	-3.936379	-0.388287	-0.384820
C14	C	-3.998444	-0.528658	-0.383772
C15	C	-3.969301	-0.574099	-0.273412
C16	C	-4.033447	-0.719179	-0.272326
C17	C	-3.936380	-0.165841	-0.607267
C18	C	-3.998442	-0.164786	-0.747637
C19	C	-4.200950	-0.170305	-0.816330
C20	C	-4.265098	-0.169216	-0.961410
C21	C	-4.200752	0.060735	-0.380695
C22	C	-4.117927	0.201105	-0.381751
C23	C	-4.200750	-0.161709	-0.158245
C24	C	-4.117926	-0.162757	-0.017873
H25	H	-4.142767	-0.759760	-0.476241
O26	O	-3.832161	-0.157867	-0.812266
H27	H	-3.777878	-0.241655	-0.797410
O28	O	-4.094414	-0.619384	-0.507873
H29	H	-3.986243	-0.675522	-0.508177
O30	O	-4.367725	-0.177633	-0.751977
H31	H	-4.291173	-0.177346	-0.648125
O32	O	-3.888114	-0.156501	-0.939684
H33	H	-3.766311	-0.066827	-0.948368
H34	H	-4.008589	-0.758322	-0.177840
H35	H	-3.896873	-0.505595	-0.179732
H36	H	-4.438583	-0.173947	-1.020461
