data_functionalizedCrystal
_audit_creation_method	'MofGen! by Chris Wilmer'
_symmetry_space_group_name_H-M	'P1'
_symmetry_Int_Tables_number	1
_symmetry_cell_setting	triclinic
loop_
_symmetry_equiv_pos_as_xyz
  x,y,z
_cell_length_a	13.032831
_cell_length_b	18.050589
_cell_length_c	13.033109
_cell_angle_alpha	97.157170
_cell_angle_beta	76.665514
_cell_angle_gamma	82.833186
loop_
_atom_site_label
_atom_site_type_symbol
_atom_site_fract_x
_atom_site_fract_y
_atom_site_fract_z
Zn1	Zn	1.699980	-0.522075	-0.806419
Zn2	Zn	2.033314	-0.188741	-0.473086
Zn3	Zn	2.366647	0.144592	-0.139752
Zn4	Zn	1.677285	-0.628196	-0.628804
Zn5	Zn	2.010619	-0.294863	-0.295471
Zn6	Zn	2.343952	0.038471	0.037863
Zn7	Zn	1.499814	-0.485953	-0.606311
Zn8	Zn	1.833147	-0.152620	-0.272978
Zn9	Zn	2.166480	0.180713	0.060355
Zn10	Zn	1.522300	-0.628131	-0.783848
Zn11	Zn	1.855633	-0.294797	-0.450515
Zn12	Zn	2.188967	0.038536	-0.117181
O13	O	1.599845	-0.566089	-0.706346
O14	O	1.933178	-0.232755	-0.373012
O15	O	2.266512	0.100578	-0.039679
O16	O	1.845602	-0.551296	-0.801717
O17	O	2.178935	-0.217963	-0.468384
O18	O	2.512269	0.115371	-0.135051
O19	O	1.634835	-0.594238	-0.477188
O20	O	1.968168	-0.260904	-0.143855
O21	O	2.301501	0.072429	0.189478
O22	O	1.526454	-0.386831	-0.632889
O23	O	1.859787	-0.053498	-0.299556
O24	O	2.193120	0.279835	0.033778
O25	O	1.828928	-0.629263	-0.671224
O26	O	2.162261	-0.295930	-0.337891
O27	O	2.495595	0.037404	-0.004558
O28	O	1.673515	-0.413369	-0.779907
O29	O	2.006849	-0.080036	-0.446574
O30	O	2.340182	0.253297	-0.113240
O31	O	1.504447	-0.489733	-0.460663
O32	O	1.837780	-0.156399	-0.127330
O33	O	2.171114	0.176934	0.206004
O34	O	1.354164	-0.489669	-0.611003
O35	O	1.687498	-0.156336	-0.277670
O36	O	2.020831	0.176997	0.055664
O37	O	1.564778	-0.629151	-0.935474
O38	O	1.898112	-0.295818	-0.602141
O39	O	2.231445	0.037515	-0.268808
O40	O	1.370685	-0.594126	-0.741438
O41	O	1.704018	-0.260793	-0.408105
O42	O	2.037352	0.072540	-0.074772
O43	O	1.695319	-0.551232	-0.952057
O44	O	2.028653	-0.217899	-0.618724
O45	O	2.361986	0.115434	-0.285390
O46	O	1.656639	-0.732101	-0.649338
O47	O	1.989972	-0.398768	-0.316005
O48	O	2.323305	-0.065434	0.017328
O49	O	1.542772	-0.732053	-0.763249
O50	O	1.876105	-0.398720	-0.429915
O51	O	2.209439	-0.065386	-0.096582
C52	C	1.323886	-0.537972	-0.671331
C53	C	1.657219	-0.204638	-0.337998
C54	C	1.990553	0.128695	-0.004665
C55	C	1.205833	-0.525964	-0.656377
C56	C	1.539166	-0.192630	-0.323044
C57	C	1.872500	0.140703	0.010290
C58	C	1.161390	-0.572356	-0.714150
C59	C	1.494724	-0.239022	-0.380817
C60	C	1.828057	0.094311	-0.047484
C61	C	1.039376	-0.559946	-0.698696
C62	C	1.372710	-0.226613	-0.365363
C63	C	1.706043	0.106721	-0.032029
C64	C	1.599714	-0.759026	-0.706312
C65	C	1.933048	-0.425693	-0.372978
C66	C	2.266381	-0.092359	-0.039645
C67	C	1.599760	-0.841579	-0.706345
C68	C	1.933094	-0.508245	-0.373012
C69	C	2.266427	-0.174912	-0.039678
C70	C	1.537906	-1.041035	-0.768274
C71	C	1.871239	-0.707702	-0.434940
C72	C	2.204573	-0.374368	-0.101607
C73	C	1.499708	-1.077984	-0.668074
C74	C	1.833041	-0.744650	-0.334740
C75	C	2.166374	-0.411317	-0.001407
C76	C	1.599866	-0.992721	-0.706372
C77	C	1.933200	-0.659388	-0.373039
C78	C	2.266533	-0.326055	-0.039706
C79	C	1.638118	-1.102861	-0.806590
C80	C	1.971452	-0.769527	-0.473256
C81	C	2.304785	-0.436194	-0.139923
C82	C	1.599968	-1.138719	-0.706407
C83	C	1.933301	-0.805385	-0.373073
C84	C	2.266635	-0.472052	-0.039740
C85	C	1.561610	-1.028572	-0.606115
C86	C	1.894944	-0.695239	-0.272781
C87	C	2.228277	-0.361906	0.060552
C88	C	1.700075	-1.053456	-0.744702
C89	C	2.033408	-0.720123	-0.411368
C90	C	2.366741	-0.386789	-0.078035
C91	C	1.661905	-1.090380	-0.644440
C92	C	1.995238	-0.757046	-0.311106
C93	C	2.328571	-0.423713	0.022227
C94	C	1.599805	-0.908616	-0.706353
C95	C	1.933139	-0.575282	-0.373020
C96	C	2.266472	-0.241949	-0.039687
C97	C	1.600028	-1.222821	-0.706415
C98	C	1.933361	-0.889488	-0.373081
C99	C	2.266694	-0.556155	-0.039748
C100	C	1.876881	-0.594316	-0.741498
C101	C	2.210215	-0.260983	-0.408164
C102	C	2.543548	0.072351	-0.074831
C103	C	1.994938	-0.606345	-0.756477
C104	C	2.328271	-0.273011	-0.423144
C105	C	2.661604	0.060322	-0.089810
C106	C	1.635089	-0.594214	-0.983382
C107	C	1.968422	-0.260881	-0.650049
C108	C	2.301755	0.072453	-0.316715
C109	C	1.650108	-0.606199	-1.101438
C110	C	1.983441	-0.272866	-0.768105
C111	C	2.316774	0.060468	-0.434772
C112	C	1.600008	-0.372403	-0.706407
C113	C	1.933341	-0.039070	-0.373073
C114	C	2.266674	0.294263	-0.039740
C115	C	1.600077	-0.289866	-0.706433
C116	C	1.933410	0.043467	-0.373099
C117	C	2.266744	0.376801	-0.039766
C118	C	1.592290	-0.559836	-1.145895
C119	C	1.925624	-0.226502	-0.812562
C120	C	2.258957	0.106831	-0.479228
C121	C	1.607812	-0.572222	-1.267912
C122	C	1.941145	-0.238889	-0.934579
C123	C	2.274478	0.094445	-0.601246
C124	C	1.564799	-0.538025	-0.430395
C125	C	1.898133	-0.204692	-0.097062
C126	C	2.231466	0.128641	0.236272
C127	C	1.549986	-0.525852	-0.312365
C128	C	1.883320	-0.192519	0.020968
C129	C	2.216653	0.140815	0.354301
H130	H	1.047215	-0.655250	-0.817391
H131	H	1.380549	-0.321917	-0.484058
H132	H	1.713882	0.011417	-0.150724
H133	H	1.153552	-0.477056	-0.595478
H134	H	1.486885	-0.143722	-0.262145
H135	H	1.820218	0.189611	0.071188
H136	H	1.213673	-0.621259	-0.775057
H137	H	1.547006	-0.287926	-0.441724
H138	H	1.880339	0.045408	-0.108390
H139	H	1.415013	-1.089188	-0.635682
H140	H	1.748346	-0.755854	-0.302349
H141	H	2.081680	-0.422521	0.030985
H142	H	0.987099	-0.511035	-0.637793
H143	H	1.320432	-0.177701	-0.304460
H144	H	1.653765	0.155632	0.028874
H145	H	1.485409	-1.019352	-0.820525
H146	H	1.818742	-0.686019	-0.487192
H147	H	2.152076	-0.352686	-0.153859
H148	H	1.711097	-0.655063	-1.153710
H149	H	2.044430	-0.321730	-0.820376
H150	H	2.377763	0.011603	-0.487043
H151	H	1.529201	-0.996435	-0.521341
H152	H	1.862534	-0.663101	-0.188007
H153	H	2.195868	-0.329768	0.145326
H154	H	1.714337	-1.111905	-0.592037
H155	H	2.047670	-0.778572	-0.258704
H156	H	2.381004	-0.445239	0.074629
H157	H	1.488989	-0.476986	-1.260098
H158	H	1.822322	-0.143653	-0.926765
H159	H	2.155656	0.189681	-0.593432
H160	H	1.784757	-1.042257	-0.777138
H161	H	2.118090	-0.708924	-0.443804
H162	H	2.451423	-0.375590	-0.110471
H163	H	1.531296	-0.510975	-1.093623
H164	H	1.864629	-0.177641	-0.760289
H165	H	2.197962	0.155692	-0.426956
H166	H	1.670430	-1.135076	-0.891329
H167	H	2.003764	-0.801742	-0.557996
H168	H	2.337097	-0.468409	-0.224663
H169	H	1.668805	-0.621089	-1.320180
H170	H	2.002138	-0.287756	-0.986847
H171	H	2.335472	0.045577	-0.653514
