data_functionalizedCrystal
_audit_creation_method	'MofGen! by Chris Wilmer'
_symmetry_space_group_name_H-M	'P1'
_symmetry_Int_Tables_number	1
_symmetry_cell_setting	triclinic
loop_
_symmetry_equiv_pos_as_xyz
  x,y,z
_cell_length_a	13.897449
_cell_length_b	21.295417
_cell_length_c	13.897441
_cell_angle_alpha	89.964549
_cell_angle_beta	89.981404
_cell_angle_gamma	90.031786
loop_
_atom_site_label
_atom_site_type_symbol
_atom_site_fract_x
_atom_site_fract_y
_atom_site_fract_z
Zn1	Zn	1.474596	-0.250574	-0.545342
Zn2	Zn	1.974596	0.249426	-0.045342
Zn3	Zn	1.474460	-0.355851	-0.384027
Zn4	Zn	1.974460	0.144149	0.115973
Zn5	Zn	1.313292	-0.250602	-0.384060
Zn6	Zn	1.813292	0.249398	0.115940
Zn7	Zn	1.313231	-0.355811	-0.545280
Zn8	Zn	1.813231	0.144189	-0.045280
O9	O	1.393895	-0.303209	-0.464677
O10	O	1.893895	0.196791	0.035323
O11	O	1.609560	-0.264544	-0.523955
O12	O	2.109560	0.235456	-0.023955
O13	O	1.453049	-0.341918	-0.249050
O14	O	1.953049	0.158082	0.250950
O15	O	1.334771	-0.162509	-0.405495
O16	O	1.834771	0.337491	0.094505
O17	O	1.609460	-0.341890	-0.405438
O18	O	2.109460	0.158110	0.094562
O19	O	1.453281	-0.162488	-0.523988
O20	O	1.953281	0.337512	-0.023988
O21	O	1.334639	-0.264592	-0.249074
O22	O	1.834639	0.235408	0.250926
O23	O	1.178302	-0.264553	-0.405434
O24	O	1.678302	0.235447	0.094566
O25	O	1.334668	-0.341823	-0.680270
O26	O	1.834668	0.158177	-0.180270
O27	O	1.178258	-0.341850	-0.523881
O28	O	1.678258	0.158150	-0.023881
O29	O	1.453223	-0.264505	-0.680316
O30	O	1.953223	0.235495	-0.180316
O31	O	1.452991	-0.443935	-0.405378
O32	O	1.952991	0.056065	0.094622
O33	O	1.334536	-0.443906	-0.523849
O34	O	1.834536	0.056094	-0.023849
C35	C	1.143281	-0.303201	-0.464655
C36	C	1.643281	0.196799	0.035345
C37	C	1.036067	-0.303213	-0.464669
C38	C	1.536067	0.196787	0.035331
C39	C	0.839771	-0.303215	-0.464694
C40	C	1.339771	0.196785	0.035306
C41	C	0.949004	-0.303212	-0.464677
C42	C	1.449004	0.196788	0.035323
C43	C	1.393768	-0.466761	-0.464624
C44	C	1.893768	0.033239	0.035376
C45	C	1.393803	-0.536729	-0.464633
C46	C	1.893803	-0.036729	0.035367
C47	C	1.455537	-0.569590	-0.403008
C48	C	1.955537	-0.069590	0.096992
C49	C	1.455582	-0.635333	-0.403030
C50	C	1.955582	-0.135333	0.096970
C51	C	1.393876	-0.668212	-0.464667
C52	C	1.893876	-0.168212	0.035333
C53	C	1.332137	-0.635343	-0.526304
C54	C	1.832137	-0.135343	-0.026304
C55	C	1.332101	-0.569602	-0.526287
C56	C	1.832101	-0.069602	-0.026287
N57	N	1.309494	-0.771478	-0.472013
N58	N	1.809494	-0.271478	0.027987
N59	N	1.309532	-0.833930	-0.472023
N60	N	1.809532	-0.333930	0.027977
C61	C	1.393984	-0.866286	-0.464722
C62	C	1.893984	-0.366286	0.035278
N63	N	1.478398	-0.833832	-0.457392
N64	N	1.978398	-0.333832	0.042608
N65	N	1.478360	-0.771375	-0.457376
N66	N	1.978360	-0.271375	0.042624
C67	C	1.393909	-0.739497	-0.464692
C68	C	1.893909	-0.239497	0.035308
C69	C	1.455772	-0.970433	-0.403117
C70	C	1.955772	-0.470433	0.096883
C71	C	1.455819	-1.036176	-0.403146
C72	C	1.955819	-0.536176	0.096854
C73	C	1.332366	-1.036185	-0.526414
C74	C	1.832366	-0.536185	-0.026414
C75	C	1.332328	-0.970443	-0.526391
C76	C	1.832328	-0.470443	-0.026391
C77	C	1.394029	-0.937571	-0.464737
C78	C	1.894029	-0.437571	0.035263
C79	C	1.645488	-0.303218	-0.464700
C80	C	2.145488	0.196782	0.035300
C81	C	1.752702	-0.303222	-0.464710
C82	C	2.252702	0.196778	0.035290
C83	C	1.393954	-0.303157	-0.716270
C84	C	1.893954	0.196843	-0.216270
C85	C	1.393979	-0.303134	-0.823484
C86	C	1.893979	0.196866	-0.323484
C87	C	1.394048	-0.139019	-0.464752
C88	C	1.894048	0.360981	0.035248
C89	C	1.394113	-0.069051	-0.464784
C90	C	1.894113	0.430949	0.035216
C91	C	1.393999	-0.303116	-0.910554
C92	C	1.893999	0.196884	-0.410554
C93	C	1.394026	-0.303088	-1.019787
C94	C	1.894026	0.196912	-0.519787
C95	C	1.393892	-0.303217	-0.214063
C96	C	1.893892	0.196783	0.285937
C97	C	1.394053	-0.303062	-0.106850
C98	C	1.894053	0.196938	0.393150
H99	H	1.505856	-0.662093	-0.352848
H100	H	2.005856	-0.162093	0.147152
O101	O	1.515823	-1.068002	-0.343190
O102	O	2.015823	-0.568002	0.156810
C103	C	1.570286	-1.024887	-0.288790
C104	C	2.070286	-0.524887	0.211210
H105	H	1.530749	-0.978051	-0.285403
H106	H	2.030749	-0.478051	0.214597
H107	H	1.643523	-1.017831	-0.324170
H108	H	2.143523	-0.517831	0.175830
C109	C	1.632814	-1.108116	-0.190308
C110	C	2.132814	-0.608116	0.309692
C111	C	1.584250	-1.050593	-0.186142
C112	C	2.084250	-0.550593	0.313858
H113	H	1.641432	-1.123973	-0.126991
H114	H	2.141432	-0.623973	0.373009
H115	H	1.596124	-1.137164	-0.226960
H116	H	2.096124	-0.637164	0.273040
H117	H	1.693839	-1.102228	-0.219796
H118	H	2.193839	-0.602228	0.280204
H119	H	1.523222	-1.056483	-0.156665
H120	H	2.023222	-0.556483	0.343335
H121	H	1.620930	-1.021546	-0.149482
H122	H	2.120930	-0.521546	0.350518
O123	O	1.515574	-0.938466	-0.343136
O124	O	2.015574	-0.438466	0.156864
C125	C	1.460671	-0.900495	-0.280790
C126	C	1.960671	-0.400495	0.219210
H127	H	1.384717	-0.920359	-0.274765
H128	H	1.884717	-0.420359	0.225235
H129	H	1.457297	-0.850658	-0.310597
H130	H	1.957297	-0.350658	0.189403
C131	C	1.601144	-0.875109	-0.187958
C132	C	2.101144	-0.375109	0.312042
C133	C	1.507859	-0.899509	-0.180552
C134	C	2.007859	-0.399509	0.319448
H135	H	1.630253	-0.874498	-0.126128
H136	H	2.130253	-0.374498	0.373872
H137	H	1.638135	-0.900689	-0.229964
H138	H	2.138135	-0.400689	0.270036
H139	H	1.598320	-0.833580	-0.212801
H140	H	2.098320	-0.333580	0.287199
H141	H	1.510686	-0.941040	-0.155721
H142	H	2.010686	-0.441040	0.344279
H143	H	1.470870	-0.873936	-0.138540
H144	H	1.970870	-0.373936	0.361460
H145	H	1.282054	-0.943686	-0.576567
H146	H	1.782054	-0.443686	-0.076567
H147	H	1.282128	-1.062955	-0.576604
H148	H	1.782128	-0.562955	-0.076604
H149	H	1.505780	-0.542827	-0.352809
H150	H	2.005780	-0.042827	0.147191
O151	O	1.272329	-0.667348	-0.586224
O152	O	1.772329	-0.167348	-0.086224
C153	C	1.327233	-0.705301	-0.648596
C154	C	1.827233	-0.205301	-0.148596
H155	H	1.400357	-0.715123	-0.614642
H156	H	1.900357	-0.215123	-0.114642
H157	H	1.337778	-0.679923	-0.720083
H158	H	1.837778	-0.179923	-0.220083
C159	C	1.184373	-0.755707	-0.707730
C160	C	1.684373	-0.255707	-0.207730
C161	C	1.274182	-0.767775	-0.666024
C162	C	1.774182	-0.267775	-0.166024
H163	H	1.151648	-0.794243	-0.718485
H164	H	1.651648	-0.294243	-0.218485
H165	H	1.147382	-0.730136	-0.665711
H166	H	1.647382	-0.230136	-0.165711
H167	H	1.193173	-0.734557	-0.767298
H168	H	1.693173	-0.234557	-0.267298
H169	H	1.265380	-0.788917	-0.606452
H170	H	1.765380	-0.288917	-0.106452
H171	H	1.311170	-0.793351	-0.708033
H172	H	1.811170	-0.293351	-0.208033
H173	H	1.281829	-0.542846	-0.576471
H174	H	1.781829	-0.042846	-0.076471
