data_functionalizedCrystal
_audit_creation_method	'MofGen! by Chris Wilmer'
_symmetry_space_group_name_H-M	'P1'
_symmetry_Int_Tables_number	1
_symmetry_cell_setting	triclinic
loop_
_symmetry_equiv_pos_as_xyz
  x,y,z
_cell_length_a	20.919287
_cell_length_b	12.970454
_cell_length_c	12.970454
_cell_angle_alpha	60.000396
_cell_angle_beta	86.844201
_cell_angle_gamma	58.213030
loop_
_atom_site_label
_atom_site_type_symbol
_atom_site_fract_x
_atom_site_fract_y
_atom_site_fract_z
Zr1	Zr	0.616756	1.128514	-0.190048
O2	O	0.514532	1.343602	-0.345594
O3	O	0.648093	0.913426	-0.142366
O4	O	0.648095	1.128514	-0.357454
O5	O	0.514530	1.128515	0.039160
O6	O	0.753452	1.128514	-0.366809
O7	O	0.514530	1.128514	-0.130506
O8	O	0.753449	0.743761	0.017945
O9	O	0.514532	1.513268	-0.345593
O10	O	0.740085	1.001896	-0.129010
O11	O	0.661458	1.001896	0.004591
O12	O	0.661460	1.255134	-0.248647
O13	O	0.582832	1.255134	-0.115046
Zr14	Zr	0.784788	1.128517	0.065632
Zr15	Zr	0.784789	1.128515	-0.204967
Zr16	Zr	0.616755	1.128516	0.080550
Zr17	Zr	0.616757	1.399112	-0.190046
Zr18	Zr	0.784787	0.857919	0.065629
O19	O	0.753451	1.343605	0.017950
O20	O	0.753452	1.343603	-0.366807
O21	O	0.514530	1.343604	0.039162
O22	O	0.887012	0.913429	0.221177
O23	O	0.887014	0.913427	-0.163579
O24	O	0.648092	0.913428	0.242390
O25	O	0.887014	1.128516	-0.163577
O26	O	0.753449	1.128517	0.233038
O27	O	0.648092	1.128517	0.242392
O28	O	0.887014	1.128517	0.006089
O29	O	0.648096	1.513269	-0.357451
O30	O	0.753448	0.743762	0.233034
O31	O	0.887012	0.743763	0.221176
O32	O	0.887013	0.743762	0.006086
O33	O	0.514531	1.513269	-0.130503
O34	O	0.648095	1.513270	-0.142361
O35	O	0.740084	1.001897	0.124231
O36	O	0.818712	1.001897	-0.009371
O37	O	0.740086	1.255135	-0.129008
O38	O	0.661459	1.255135	0.004593
C39	C	0.700771	0.790039	-0.062211
C40	C	0.700771	0.675163	-0.062212
C41	C	0.490589	1.128514	-0.043547
C42	C	0.419255	1.128514	-0.037214
C43	C	0.385742	1.128517	-0.127712
C44	C	0.318718	1.128509	-0.121755
C45	C	0.285205	1.128509	-0.025304
C46	C	0.318724	1.128501	0.065203
C47	C	0.385750	1.128498	0.059250
C48	C	0.082834	1.128507	-0.002649
C49	C	0.015802	1.128514	0.003295
C50	C	0.015801	1.128520	-0.183662
C51	C	0.082826	1.128526	-0.189610
C52	C	0.116341	1.128510	-0.099100
C53	C	0.216695	1.128505	-0.019215
C54	C	0.184854	1.128503	-0.105185
C55	C	0.910955	1.128517	-0.080869
C56	C	0.982289	1.128517	-0.087203
C57	C	0.700773	1.128514	-0.400686
C58	C	0.700774	1.128513	-0.515562
C59	C	0.700773	1.466992	-0.062206
C60	C	0.700773	1.581868	-0.062205
C61	C	0.700770	1.128517	0.276269
C62	C	0.700770	1.128518	0.391145
C63	C	0.910954	0.790040	-0.080872
C64	C	0.982288	0.675165	-0.087207
C65	C	0.700770	0.790041	0.276266
C66	C	0.700769	0.675166	0.391142
C67	C	0.910953	0.790042	0.257605
C68	C	0.982286	0.675167	0.366147
C69	C	0.490591	1.466989	-0.382022
C70	C	0.419258	1.581864	-0.490564
C71	C	0.490590	1.466991	-0.043544
C72	C	0.419256	1.581866	-0.037210
C73	C	0.700774	1.466990	-0.400683
C74	C	0.700775	1.581865	-0.515558
C75	C	0.974745	0.621218	-0.152643
C76	C	1.041765	0.513295	-0.158620
C77	C	1.116326	0.459314	-0.099151
C78	C	1.123868	0.513272	-0.033713
C79	C	1.056849	0.621200	-0.027744
C80	C	1.056835	0.621221	0.347381
C81	C	1.123867	0.513299	0.449356
C82	C	1.116348	0.459318	0.570098
C83	C	1.041791	0.513275	0.588862
C84	C	0.974761	0.621203	0.486888
C85	C	0.344709	1.635823	-0.471797
C86	C	0.277677	1.743779	-0.573773
C87	C	0.285196	1.797765	-0.694514
C88	C	0.359752	1.743801	-0.713279
C89	C	0.426783	1.635855	-0.611305
C90	C	0.426799	1.635825	0.028215
C91	C	0.359779	1.743777	0.034162
C92	C	0.285218	1.797762	-0.025310
C93	C	0.277676	1.743799	-0.090744
C94	C	0.344695	1.635855	-0.096697
H95	H	0.413021	1.128527	-0.206256
H96	H	1.062972	0.665156	0.249075
H97	H	0.365935	1.787696	0.087449
H98	H	1.184568	0.469378	0.434055
O99	O	0.220059	1.902483	-0.019478
C100	C	0.175154	1.849744	0.037094
H101	H	0.189799	1.757940	0.026807
H102	H	0.110138	1.941941	-0.009597
H103	H	0.189212	1.806707	0.139816
O104	O	0.217535	1.128310	-0.198724
C105	C	0.295293	1.002695	-0.148428
H106	H	0.318332	0.960813	-0.048375
H107	H	0.333657	1.030943	-0.205511
H108	H	0.296766	0.914756	-0.150727
H109	H	1.184584	0.469305	0.014703
O110	O	1.181524	0.354609	0.669049
C111	C	1.226415	0.407388	0.664861
H112	H	1.211736	0.499217	0.565366
H113	H	1.291434	0.315221	0.698771
H114	H	1.212376	0.450403	0.727058
H115	H	0.291437	1.128491	0.143740
O116	O	0.367139	1.796209	-0.830518
C117	C	0.408537	1.858576	-0.848142
H118	H	0.402927	1.891181	-0.779446
H119	H	0.383123	1.959234	-0.946915
H120	H	0.473036	1.775746	-0.832320
O121	O	1.064139	0.673811	0.035645
C122	C	1.027813	0.825062	-0.045939
H123	H	1.024709	0.854649	-0.145258
H124	H	1.063365	0.856066	-0.020423
H125	H	0.965995	0.886777	-0.038109
H126	H	1.035681	0.469308	0.687183
O127	O	0.902405	0.673383	0.505347
C128	C	0.910153	0.602606	0.633785
H129	H	0.969972	0.493219	0.686016
H130	H	0.862096	0.583971	0.653121
H131	H	0.904656	0.673395	0.666078
H132	H	1.035609	0.469376	-0.211906
H133	H	0.338572	1.591873	-0.373492
O134	O	0.205286	1.795986	-0.148411
C135	C	0.196681	1.680815	-0.099013
H136	H	0.257012	1.572837	-0.055991
H137	H	0.161405	1.697109	-0.176308
H138	H	0.164667	1.679369	-0.024797
H139	H	0.216977	1.787698	-0.558470
H140	H	0.230609	1.885661	-0.777538
H141	H	0.487482	1.591922	-0.626600
H142	H	0.338542	1.591925	-0.149970
O143	O	0.499164	1.583600	0.086019
C144	C	0.491434	1.654368	0.145057
H145	H	0.431625	1.763773	0.098518
H146	H	0.539506	1.672964	0.137233
H147	H	0.496921	1.583592	0.247159
H148	H	0.291433	1.128511	-0.195444
H149	H	-0.011492	1.128530	-0.257350
O150	O	0.115300	1.128458	-0.283355
C151	C	0.071336	1.128498	-0.361974
H152	H	0.037813	1.082585	-0.308639
H153	H	0.112560	1.058096	-0.395811
H154	H	0.028086	1.244840	-0.445043
H155	H	-0.011482	1.128514	0.081841
H156	H	0.413036	1.128493	0.132944
O157	O	0.115273	1.128532	0.085351
C158	C	0.071334	1.128483	0.171776
H159	H	0.009296	1.174432	0.126913
H160	H	0.068858	1.198847	0.202207
H161	H	0.100317	1.012133	0.256091
H162	H	0.189402	1.128508	0.059315
H163	H	0.914039	0.665168	-0.201086
H164	H	1.170891	0.371431	-0.104020
