data_functionalizedCrystal
_audit_creation_method	'MofGen! by Chris Wilmer'
_symmetry_space_group_name_H-M	'P1'
_symmetry_Int_Tables_number	1
_symmetry_cell_setting	triclinic
loop_
_symmetry_equiv_pos_as_xyz
  x,y,z
_cell_length_a	19.077115
_cell_length_b	16.120444
_cell_length_c	19.076919
_cell_angle_alpha	84.952692
_cell_angle_beta	89.923103
_cell_angle_gamma	90.739546
loop_
_atom_site_label
_atom_site_type_symbol
_atom_site_fract_x
_atom_site_fract_y
_atom_site_fract_z
Zn1	Zn	1.040330	-0.403263	0.456934
Zn2	Zn	1.039008	-0.537289	0.344920
Zn3	Zn	0.928045	-0.392096	0.334271
Zn4	Zn	0.916852	-0.536786	0.457654
O5	O	0.981058	-0.467358	0.398445
O6	O	1.138269	-0.425925	0.446231
O7	O	1.028419	-0.513566	0.244993
O8	O	0.948177	-0.276934	0.345784
O9	O	1.137297	-0.524393	0.363935
O10	O	1.030673	-0.285138	0.435904
O11	O	0.946895	-0.406894	0.237169
O12	O	0.828445	-0.406406	0.346482
O13	O	0.929100	-0.523537	0.556073
O14	O	0.820222	-0.512709	0.437131
O15	O	1.019819	-0.425438	0.555544
O16	O	1.017566	-0.653865	0.364633
O17	O	0.927818	-0.653496	0.447458
C18	C	0.798894	-0.458292	0.390730
C19	C	0.720961	-0.454434	0.387447
C20	C	0.971352	-0.683926	0.407295
C21	C	0.967263	-0.776579	0.411108
C22	C	0.282743	-0.426729	0.363906
C23	C	0.355969	-0.430359	0.366995
C24	C	0.388315	-0.487604	0.415665
C25	C	0.347432	-0.541217	0.461255
C26	C	0.274208	-0.537583	0.458170
C27	C	0.606854	-0.504413	0.429951
C28	C	0.680084	-0.508045	0.433032
C29	C	0.688615	-0.397185	0.338772
C30	C	0.615389	-0.393559	0.335687
C31	C	0.574513	-0.447169	0.381280
N32	N	0.463163	-0.491317	0.418822
N33	N	0.499666	-0.443451	0.378126
C34	C	1.002437	-0.987659	0.378826
C35	C	0.959810	-0.946213	0.418076
C36	C	0.963958	-0.851820	0.414198
C37	C	0.998290	-1.082061	0.382704
C38	C	1.163935	-0.476461	0.406190
C39	C	1.241865	-0.480340	0.409491
C40	C	0.973359	-0.475677	0.582066
C41	C	0.970078	-0.479221	0.660314
C42	C	0.990821	-0.249946	0.389576
C43	C	0.994981	-0.157298	0.385797
C44	C	0.988771	-0.459014	0.215537
C45	C	0.992198	-0.455241	0.137285
C46	C	1.015767	-0.429814	0.696801
C47	C	1.012675	-0.433141	0.770324
C48	C	0.963898	-0.485881	0.807358
C49	C	0.918205	-0.535290	0.770865
C50	C	0.921293	-0.531958	0.697344
C51	C	0.949593	-0.501318	1.027272
C52	C	0.946510	-0.504649	1.100798
C53	C	1.040980	-0.402499	1.100251
C54	C	1.044067	-0.399175	1.026729
C55	C	0.998371	-0.448581	0.990243
N56	N	0.960739	-0.489285	0.882509
N57	N	1.001528	-0.445172	0.915092
H58	H	0.256412	-0.380114	0.324272
N59	N	0.907335	-0.993115	0.466436
H60	H	0.858359	-0.975090	0.452727
H61	H	0.916778	-0.980788	0.516580
N62	N	0.580518	-0.331805	0.283190
H63	H	0.595476	-0.273405	0.292319
H64	H	0.527935	-0.337699	0.288168
N65	N	0.900301	-0.554615	0.987944
H66	H	0.928328	-0.593287	0.960221
H67	H	0.870613	-0.517689	0.954724
N68	N	1.054893	-0.940763	0.330450
H69	H	1.082764	-0.981572	0.304791
H70	H	1.087673	-0.907493	0.359045
N71	N	0.714972	-0.569794	0.485528
H72	H	0.745512	-0.538972	0.518094
H73	H	0.744777	-0.608559	0.459659
H74	H	1.055488	-0.386871	0.666654
H75	H	1.049881	-0.392911	0.800028
H76	H	1.078182	-0.362274	1.129966
H77	H	1.083788	-0.356232	0.996581
N78	N	0.732702	-0.339364	0.289601
H79	H	0.783998	-0.350349	0.298939
H80	H	0.722107	-0.279720	0.297673
H81	H	0.906787	-0.547597	1.130949
H82	H	0.878487	-0.578228	0.801024
N83	N	0.872008	-0.585244	0.657993
H84	H	0.879681	-0.645924	0.673677
H85	H	0.881384	-0.575062	0.605809
N86	N	0.400047	-0.372519	0.317831
H87	H	0.388830	-0.382453	0.267499
H88	H	0.451329	-0.383519	0.327228
N89	N	0.562771	-0.562248	0.479110
H90	H	0.594376	-0.599070	0.510403
H91	H	0.531868	-0.597954	0.450682
H92	H	0.373774	-0.587824	0.500887
H93	H	0.240926	-0.581237	0.495292
