data_functionalizedCrystal
_audit_creation_method	'MofGen! by Chris Wilmer'
_symmetry_space_group_name_H-M	'P1'
_symmetry_Int_Tables_number	1
_symmetry_cell_setting	triclinic
loop_
_symmetry_equiv_pos_as_xyz
  x,y,z
_cell_length_a	17.640280
_cell_length_b	21.395364
_cell_length_c	21.395355
_cell_angle_alpha	90.025600
_cell_angle_beta	78.784922
_cell_angle_gamma	101.202359
loop_
_atom_site_label
_atom_site_type_symbol
_atom_site_fract_x
_atom_site_fract_y
_atom_site_fract_z
Zn1	Zn	-0.314798	-1.008383	-0.303902
Zn2	Zn	0.185202	-0.508383	0.196098
Zn3	Zn	-0.446947	-1.029495	-0.177977
Zn4	Zn	0.053053	-0.529495	0.322023
Zn5	Zn	-0.314792	-0.903597	-0.199138
Zn6	Zn	0.185208	-0.403597	0.300862
Zn7	Zn	-0.446921	-0.924772	-0.282719
Zn8	Zn	0.053079	-0.424772	0.217281
O9	O	-0.380864	-0.966562	-0.240934
O10	O	0.119136	-0.466562	0.259066
O11	O	-0.332341	-1.098864	-0.287207
O12	O	0.167659	-0.598864	0.212793
O13	O	-0.429425	-1.012768	-0.093105
O14	O	0.070575	-0.512768	0.406895
O15	O	-0.204192	-0.899800	-0.230756
O16	O	0.295808	-0.399800	0.269244
O17	O	-0.429430	-1.114374	-0.194690
O18	O	0.070570	-0.614374	0.305310
O19	O	-0.204196	-0.976786	-0.307726
O20	O	0.295804	-0.476786	0.192274
O21	O	-0.332331	-0.920271	-0.108651
O22	O	0.167669	-0.420271	0.391349
O23	O	-0.332306	-0.818726	-0.210216
O24	O	0.167694	-0.318726	0.289784
O25	O	-0.429386	-0.935890	-0.373208
O26	O	0.070614	-0.435890	0.126792
O27	O	-0.429380	-0.834283	-0.271623
O28	O	0.070620	-0.334283	0.228377
O29	O	-0.332316	-0.997318	-0.388771
O30	O	0.167684	-0.497318	0.111229
O31	O	-0.557544	-1.033301	-0.174150
O32	O	-0.057544	-0.533301	0.325850
O33	O	-0.557525	-0.956361	-0.251104
O34	O	-0.057525	-0.456361	0.248896
C35	C	-0.380840	-0.803770	-0.240917
C36	C	0.119160	-0.303770	0.259083
C37	C	-0.380849	-0.734131	-0.240922
C38	C	0.119151	-0.234131	0.259078
C39	C	-0.431490	-0.240467	-0.272846
C40	C	0.068510	0.259533	0.227154
C41	C	-0.431491	-0.305902	-0.272840
C42	C	0.068509	0.194098	0.227160
C43	C	-0.380870	-0.330496	-0.240943
C44	C	0.119130	0.169504	0.259057
C45	C	-0.330258	-0.289650	-0.209036
C46	C	0.169742	0.210350	0.290964
C47	C	-0.330263	-0.224216	-0.209037
C48	C	0.169737	0.275784	0.290963
C49	C	-0.309644	-0.422753	-0.247492
C50	C	0.190356	0.077247	0.252508
C51	C	-0.309637	-0.488185	-0.247495
C52	C	0.190363	0.011815	0.252505
C53	C	-0.380853	-0.532314	-0.240935
C54	C	0.119147	-0.032314	0.259065
C55	C	-0.452078	-0.511003	-0.234385
C56	C	0.047922	-0.011003	0.265615
C57	C	-0.452084	-0.445570	-0.234386
C58	C	0.047916	0.054430	0.265614
C59	C	-0.380859	-0.401446	-0.240938
C60	C	0.119141	0.098554	0.259062
C61	C	-0.431467	-0.644105	-0.272830
C62	C	0.068533	-0.144105	0.227170
C63	C	-0.431470	-0.709542	-0.272820
C64	C	0.068530	-0.209542	0.227180
C65	C	-0.330229	-0.693287	-0.209020
C66	C	0.169771	-0.193287	0.290980
C67	C	-0.330234	-0.627852	-0.209026
C68	C	0.169766	-0.127852	0.290974
C69	C	-0.380852	-0.603265	-0.240935
C70	C	0.119148	-0.103265	0.259065
C71	C	-0.586212	-0.999437	-0.208046
C72	C	-0.086212	-0.499437	0.291954
C73	C	-0.674061	-1.013558	-0.193997
C74	C	-0.174061	-0.513558	0.306003
C75	C	-0.963072	-0.859540	-0.347888
C76	C	-0.463072	-0.359540	0.152112
C77	C	-1.045619	-0.872811	-0.334667
C78	C	-0.545619	-0.372811	0.165333
C79	C	-1.045574	-0.952977	-0.254616
C80	C	-0.545574	-0.452977	0.245384
C81	C	-0.963025	-0.939716	-0.267833
C82	C	-0.463025	-0.439716	0.232167
C83	C	-0.921781	-0.892996	-0.314469
C84	C	-0.421781	-0.392996	0.185531
C85	C	-0.921734	-0.973172	-0.234413
C86	C	-0.421734	-0.473172	0.265587
C87	C	-0.839192	-0.959909	-0.247626
C88	C	-0.339192	-0.459909	0.252374
C89	C	-0.797942	-0.913190	-0.294259
C90	C	-0.297942	-0.413190	0.205741
C91	C	-0.839239	-0.879733	-0.327682
C92	C	-0.339239	-0.379733	0.172318
C93	C	-0.962980	-1.019888	-0.187774
C94	C	-0.462980	-0.519888	0.312226
C95	C	-0.921688	-1.053344	-0.154355
C96	C	-0.421688	-0.553344	0.345645
C97	C	-0.839145	-1.040084	-0.167571
C98	C	-0.339145	-0.540084	0.332429
C99	C	-0.797894	-0.993365	-0.214203
C100	C	-0.297894	-0.493365	0.285797
C101	C	-0.797847	-1.073541	-0.134148
C102	C	-0.297847	-0.573541	0.365852
C103	C	-0.715306	-1.060278	-0.147361
C104	C	-0.215306	-0.560278	0.352639
C105	C	-0.715353	-0.980102	-0.227417
C106	C	-0.215353	-0.480102	0.272583
C107	C	-0.174714	-0.933576	-0.273964
C108	C	0.325286	-0.433576	0.226036
C109	C	-0.086866	-0.919519	-0.288040
C110	C	0.413134	-0.419519	0.211960
C111	C	-0.380848	-0.966611	-0.404360
C112	C	0.119152	-0.466611	0.095640
C113	C	-0.380842	-0.966632	-0.474002
C114	C	0.119158	-0.466632	0.025998
C115	C	-0.380885	-0.129988	-0.240948
C116	C	0.119115	0.370012	0.259052
C117	C	-0.380881	-0.199629	-0.240946
C118	C	0.119119	0.300371	0.259054
C119	C	-0.330295	-0.998616	-0.514820
C120	C	0.169705	-0.498616	-0.014820
C121	C	-0.330261	-0.998610	-0.580261
C122	C	0.169739	-0.498610	-0.080261
C123	C	-0.380788	-0.966629	-0.604879
C124	C	0.119212	-0.466629	-0.104879
C125	C	-0.431338	-0.934638	-0.564053
C126	C	0.068662	-0.434638	-0.064053
C127	C	-0.431365	-0.934640	-0.498614
C128	C	0.068635	-0.434640	0.001386
C129	C	-0.451952	-0.973074	-0.697156
C130	C	0.048048	-0.473074	-0.197156
C131	C	-0.451927	-0.973077	-0.762593
C132	C	0.048073	-0.473077	-0.262593
C133	C	-0.380704	-0.966619	-0.806713
C134	C	0.119296	-0.466619	-0.306713
C135	C	-0.309505	-0.960171	-0.785389
C136	C	0.190495	-0.460171	-0.285389
C137	C	-0.309532	-0.960173	-0.719950
C138	C	0.190468	-0.460173	-0.219950
C139	C	-0.380764	-0.966623	-0.675835
C140	C	0.119236	-0.466623	-0.175835
C141	C	-0.330117	-0.998597	-0.918491
C142	C	0.169883	-0.498597	-0.418491
C143	C	-0.330081	-0.998586	-0.983933
C144	C	0.169919	-0.498586	-0.483933
C145	C	-0.431165	-0.934619	-0.967722
C146	C	0.068835	-0.434619	-0.467722
C147	C	-0.431193	-0.934625	-0.902282
C148	C	0.068807	-0.434625	-0.402282
C149	C	-0.380670	-0.966618	-0.877670
C150	C	0.119330	-0.466618	-0.377670
C151	C	-0.380823	-0.966539	-0.078153
C152	C	0.119177	-0.466539	0.421847
C153	C	-0.380607	-0.966604	-0.008547
C154	C	0.119393	-0.466604	0.491453
H155	H	-0.289050	-0.190965	-0.183061
H156	H	0.210950	0.309035	0.316939
Br157	Br	-0.659262	-1.105674	-0.101998
Br158	Br	-0.159262	-0.605674	0.398002
H159	H	-0.831441	-1.111575	-0.096173
H160	H	-0.331441	-0.611575	0.403827
Br161	Br	-0.261562	-0.323025	-0.165742
Br162	Br	0.238438	0.176975	0.334258
H163	H	-0.289015	-0.713310	-0.183047
H164	H	0.210985	-0.213310	0.316953
Br165	Br	-0.499798	-0.891218	-0.846882
Br166	Br	0.000202	-0.391218	-0.346882
H167	H	-0.289154	-1.024666	-0.494786
H168	H	0.210846	-0.524666	0.005214
Br169	Br	-0.659370	-0.916704	-0.290717
Br170	Br	-0.159370	-0.416704	0.209283
H171	H	-0.289096	-1.024653	-0.613502
H172	H	0.210904	-0.524653	-0.113502
H173	H	-0.288973	-1.024644	-0.898451
H174	H	0.211027	-0.524644	-0.398451
H175	H	-0.509902	-0.978331	-0.779950
H176	H	-0.009902	-0.478331	-0.279950
H177	H	-0.288916	-1.024630	-1.017168
H178	H	0.211084	-0.524630	-0.517168
H179	H	-0.472710	-0.220453	-0.298826
H180	H	0.027290	0.279547	0.201174
H181	H	-1.079167	-0.991015	-0.216644
H182	H	-0.579167	-0.491015	0.283356
H183	H	-0.289020	-0.594600	-0.183052
H184	H	0.210980	-0.094600	0.316948
Br185	Br	-0.500167	-0.764968	-0.316110
Br186	Br	-0.000167	-0.264968	0.183890
H187	H	-0.509936	-0.978163	-0.661240
H188	H	-0.009936	-0.478163	-0.161240
H189	H	-0.730731	-0.902388	-0.305012
H190	H	-0.230731	-0.402388	0.194988
Br191	Br	-0.212975	-0.517100	-0.256397
Br192	Br	0.287025	-0.017100	0.243603
Br193	Br	-0.548736	-0.570884	-0.225482
Br194	Br	-0.048736	-0.070884	0.274518
H195	H	-0.805656	-0.841694	-0.365662
H196	H	-0.305656	-0.341694	0.134338
H197	H	-1.030190	-1.030687	-0.177019
H198	H	-0.530190	-0.530687	0.322981
H199	H	-0.251648	-0.386827	-0.252823
H200	H	0.248352	0.113173	0.247177
H201	H	-0.929489	-0.821501	-0.385869
H202	H	-0.429489	-0.321501	0.114131
H203	H	-0.472474	-0.908596	-0.584101
H204	H	0.027526	-0.408596	-0.084101
H205	H	-1.079236	-0.845571	-0.361893
H206	H	-0.579236	-0.345571	0.138107
H207	H	-0.955280	-1.091381	-0.116382
H208	H	-0.455280	-0.591381	0.383618
H209	H	-0.251559	-0.954921	-0.702591
H210	H	0.248441	-0.454921	-0.202591
H211	H	-0.251509	-0.954913	-0.821311
H212	H	0.248491	-0.454913	-0.321311
H213	H	-0.472297	-0.908572	-0.987767
H214	H	0.027703	-0.408572	-0.487767
Br215	Br	-0.499968	-0.891229	-0.443214
Br216	Br	0.000032	-0.391229	0.056786
H217	H	-0.472703	-0.339158	-0.298819
H218	H	0.027297	0.160842	0.201181
H219	H	-0.510078	-0.428222	-0.229052
H220	H	-0.010078	0.071778	0.270948
H221	H	-0.472684	-0.624085	-0.298811
H222	H	0.027316	-0.124085	0.201189
