data_functionalizedCrystal
_audit_creation_method	'MofGen! by Chris Wilmer'
_symmetry_space_group_name_H-M	'P1'
_symmetry_Int_Tables_number	1
_symmetry_cell_setting	triclinic
loop_
_symmetry_equiv_pos_as_xyz
  x,y,z
_cell_length_a	13.033286
_cell_length_b	16.120484
_cell_length_c	13.032268
_cell_angle_alpha	99.642751
_cell_angle_beta	105.163409
_cell_angle_gamma	85.378105
loop_
_atom_site_label
_atom_site_type_symbol
_atom_site_fract_x
_atom_site_fract_y
_atom_site_fract_z
Zn1	Zn	1.508909	-0.528411	-0.432341
Zn2	Zn	1.842243	-0.195078	-0.099007
Zn3	Zn	2.175576	0.138255	0.234326
Zn4	Zn	1.522336	-0.652121	-0.263744
Zn5	Zn	1.855670	-0.318788	0.069590
Zn6	Zn	2.189003	0.014546	0.402923
Zn7	Zn	1.356148	-0.497052	-0.275069
Zn8	Zn	1.689481	-0.163719	0.058264
Zn9	Zn	2.022814	0.169614	0.391597
Zn10	Zn	1.322253	-0.652088	-0.463895
Zn11	Zn	1.655587	-0.318755	-0.130562
Zn12	Zn	1.988920	0.014578	0.202772
O13	O	1.427412	-0.582418	-0.358762
O14	O	1.760745	-0.249085	-0.025429
O15	O	2.094078	0.084248	0.307904
O16	O	1.658357	-0.557959	-0.392031
O17	O	1.991691	-0.224626	-0.058697
O18	O	2.325024	0.108707	0.274636
O19	O	1.520095	-0.618441	-0.115663
O20	O	1.853429	-0.285107	0.217670
O21	O	2.186762	0.048226	0.551004
O22	O	1.384978	-0.384556	-0.287466
O23	O	1.718311	-0.051223	0.045867
O24	O	2.051644	0.282111	0.379201
O25	O	1.668222	-0.648848	-0.268163
O26	O	2.001555	-0.315515	0.065170
O27	O	2.334889	0.017818	0.398504
O28	O	1.497211	-0.407595	-0.403013
O29	O	1.830544	-0.074262	-0.069679
O30	O	2.163878	0.259071	0.263654
O31	O	1.397997	-0.504512	-0.123984
O32	O	1.731331	-0.171179	0.209349
O33	O	2.064664	0.162154	0.542683
O34	O	1.203985	-0.504481	-0.318063
O35	O	1.537318	-0.171147	0.015270
O36	O	1.870652	0.162186	0.348604
O37	O	1.327209	-0.648793	-0.609292
O38	O	1.660543	-0.315459	-0.275959
O39	O	1.993876	0.017874	0.057375
O40	O	1.179083	-0.618385	-0.456792
O41	O	1.512416	-0.285052	-0.123459
O42	O	1.845750	0.048282	0.209874
O43	O	1.464345	-0.557928	-0.586109
O44	O	1.797678	-0.224594	-0.252776
O45	O	2.131012	0.108739	0.080557
O46	O	1.487229	-0.768773	-0.298760
O47	O	1.820563	-0.435440	0.034574
O48	O	2.153896	-0.102106	0.367907
O49	O	1.340229	-0.768749	-0.445810
O50	O	1.673562	-0.435416	-0.112477
O51	O	2.006896	-0.102082	0.220856
C52	C	1.153245	-0.558027	-0.392081
C53	C	1.486579	-0.224694	-0.058748
C54	C	1.819912	0.108640	0.274585
C55	C	1.035951	-0.547615	-0.406362
C56	C	1.369284	-0.214281	-0.073029
C57	C	1.702618	0.119052	0.260304
C58	C	0.988558	-0.587855	-0.351336
C59	C	1.321891	-0.254522	-0.018002
C60	C	1.655224	0.078812	0.315331
C61	C	0.867328	-0.577094	-0.366094
C62	C	1.200661	-0.243761	-0.032761
C63	C	1.533995	0.089572	0.300573
C64	C	1.411534	-0.799013	-0.374500
C65	C	1.744867	-0.465680	-0.041167
C66	C	2.078200	-0.132346	0.292167
C67	C	1.404833	-0.891685	-0.381257
C68	C	1.738166	-0.558352	-0.047923
C69	C	2.071500	-0.225018	0.285410
C70	C	1.392602	-1.061360	-0.393614
C71	C	1.725935	-0.728027	-0.060280
C72	C	2.059269	-0.394693	0.273053
C73	C	1.462408	-1.102654	-0.323905
C74	C	1.795742	-0.769321	0.009428
C75	C	2.129075	-0.435988	0.342761
C76	C	1.455603	-1.197067	-0.330781
C77	C	1.788936	-0.863734	0.002552
C78	C	2.122270	-0.530401	0.335886
C79	C	1.399406	-0.966939	-0.386740
C80	C	1.732739	-0.633605	-0.053406
C81	C	2.066072	-0.300272	0.279927
C82	C	1.702648	-0.606905	-0.325314
C83	C	2.035982	-0.273572	0.008020
C84	C	2.369315	0.059761	0.341353
C85	C	1.819938	-0.617340	-0.311060
C86	C	2.153271	-0.284007	0.022274
C87	C	2.486605	0.049326	0.355607
C88	C	1.390499	-0.606855	-0.637570
C89	C	1.723832	-0.273521	-0.304237
C90	C	2.057165	0.059812	0.029096
C91	C	1.374768	-0.617268	-0.756382
C92	C	1.708102	-0.283934	-0.423048
C93	C	2.041435	0.049399	-0.089715
C94	C	1.443377	-0.364982	-0.342983
C95	C	1.776711	-0.031649	-0.009650
C96	C	2.110044	0.301684	0.323684
C97	C	1.450181	-0.272324	-0.336259
C98	C	1.783514	0.061009	-0.002925
C99	C	2.116848	0.394343	0.330408
C100	C	1.435607	-0.576952	-0.797881
C101	C	1.768941	-0.243619	-0.464548
C102	C	2.102274	0.089715	-0.131215
C103	C	1.419351	-0.587714	-0.920679
C104	C	1.752684	-0.254380	-0.587345
C105	C	2.086017	0.078953	-0.254012
C106	C	1.464246	-0.558022	-0.081027
C107	C	1.797580	-0.224689	0.252306
C108	C	2.130913	0.108644	0.585640
C109	C	1.480198	-0.547393	0.037826
C110	C	1.813531	-0.214059	0.371159
C111	C	2.146865	0.119274	0.704492
H112	H	0.986776	-0.505200	-0.464403
H113	H	1.320109	-0.171867	-0.131069
H114	H	1.653442	0.161467	0.202264
C115	C	1.550044	-1.054624	-0.236298
C116	C	1.883377	-0.721290	0.097036
C117	C	2.216711	-0.387957	0.430369
N118	N	1.616045	-1.018443	-0.170311
N119	N	1.949378	-0.685109	0.163023
N120	N	2.282711	-0.351776	0.496356
C121	C	1.304957	-1.109387	-0.481198
C122	C	1.638290	-0.776054	-0.147865
C123	C	1.971623	-0.442720	0.185468
N124	N	1.238938	-1.145570	-0.547162
N125	N	1.572272	-0.812236	-0.213828
N126	N	1.905605	-0.478903	0.119505
C127	C	1.332715	-0.645107	-0.995489
C128	C	1.666048	-0.311774	-0.662156
C129	C	1.999382	0.021559	-0.328822
N130	N	1.267462	-0.688335	-1.051837
N131	N	1.600795	-0.355002	-0.718504
N132	N	1.934129	-0.021669	-0.385171
C133	C	1.054987	-0.645158	-0.272924
C134	C	1.388320	-0.311824	0.060410
C135	C	1.721653	0.021509	0.393743
N136	N	1.105020	-0.688317	-0.213859
N137	N	1.438353	-0.354983	0.119474
N138	N	1.771687	-0.021650	0.452808
C139	C	0.800905	-0.519780	-0.444500
C140	C	1.134238	-0.186447	-0.111166
C141	C	1.467571	0.146886	0.222167
N142	N	0.750874	-0.476609	-0.503550
N143	N	1.084207	-0.143276	-0.170217
N144	N	1.417540	0.190057	0.163117
H145	H	0.869106	-0.659769	-0.253027
H146	H	1.202439	-0.326435	0.080306
H147	H	1.535773	0.006898	0.413639
H148	H	1.499725	-0.534466	-0.742500
H149	H	1.833058	-0.201133	-0.409167
H150	H	2.166392	0.132201	-0.075834
H151	H	1.544319	-0.504901	-0.906798
H152	H	1.877652	-0.171568	-0.573464
H153	H	2.210986	0.161765	-0.240131
C154	C	1.288137	-0.674658	-0.831195
C155	C	1.621470	-0.341325	-0.497862
C156	C	1.954804	-0.007992	-0.164528
N157	N	1.222884	-0.717886	-0.887544
N158	N	1.556217	-0.384553	-0.554210
N159	N	1.889551	-0.051220	-0.220877
