data_functionalizedCrystal
_audit_creation_method	'MofGen! by Chris Wilmer'
_symmetry_space_group_name_H-M	'P1'
_symmetry_Int_Tables_number	1
_symmetry_cell_setting	triclinic
loop_
_symmetry_equiv_pos_as_xyz
  x,y,z
_cell_length_a	16.109301
_cell_length_b	13.339070
_cell_length_c	15.186229
_cell_angle_alpha	89.998719
_cell_angle_beta	89.999362
_cell_angle_gamma	99.545388
loop_
_atom_site_label
_atom_site_type_symbol
_atom_site_fract_x
_atom_site_fract_y
_atom_site_fract_z
O1	O	1.133153	0.130020	-0.073168
O2	O	0.894827	0.146201	-0.073182
O3	O	0.986638	-0.009144	-0.073174
O4	O	1.041342	0.285365	-0.073176
O5	O	0.986629	-0.009146	0.073283
O6	O	0.894818	0.146199	0.073275
O7	O	1.133144	0.130018	0.073289
Zn8	Zn	1.013980	0.138108	0.096535
Zn9	Zn	1.013992	0.138111	-0.096428
O10	O	1.041333	0.285363	0.073281
C11	C	0.863697	0.145545	0.000045
C12	C	0.770947	0.143580	0.000040
C13	C	0.568905	0.231189	0.000049
C14	C	0.481756	0.229335	0.000055
C15	C	0.459072	0.045023	0.000053
C16	C	0.546219	0.046879	0.000053
C17	C	0.601133	0.139965	0.000047
C18	C	0.426838	0.136255	0.000052
C19	C	0.332347	0.134244	0.000058
C20	C	0.695630	0.141976	0.000043
C21	C	0.977393	-0.046831	0.000053
C22	C	0.949849	-0.159124	0.000048
C23	C	1.164017	-0.523987	0.000060
C24	C	1.189898	-0.418483	0.000070
C25	C	1.129888	-0.353638	0.000064
C26	C	1.043992	-0.394307	0.000049
C27	C	1.018108	-0.499822	0.000046
C28	C	0.983979	-0.329473	0.000050
C29	C	0.898083	-0.370142	0.000035
C30	C	0.872203	-0.475647	0.000032
C31	C	0.932213	-0.540492	0.000038
C32	C	1.009863	-0.223958	0.000053
C33	C	0.863954	-0.199793	0.000039
C34	C	0.838073	-0.305297	0.000029
C35	C	1.164275	0.130675	0.000060
C36	C	1.257024	0.132640	0.000060
C37	C	1.050578	0.323050	0.000052
C38	C	1.078122	0.435343	0.000052
N39	N	1.013977	0.138106	0.228228
N40	N	1.013998	0.138106	-0.228121
C41	C	1.054656	0.069342	0.453954
C42	C	1.054658	0.069340	0.546144
C43	C	0.973315	0.206873	0.546146
C44	C	0.973308	0.206869	0.453958
C45	C	1.013984	0.138105	0.407865
C46	C	1.013992	0.138106	0.592242
C47	C	1.013994	0.138104	0.692198
C48	C	1.013980	0.138106	0.307902
H49	H	0.414350	-0.030764	0.000063
H50	H	1.087775	0.013349	0.416427
O51	O	0.754660	-0.344930	-0.000097
C52	C	0.735331	-0.405212	-0.075963
H53	H	0.794800	-0.431501	-0.101246
H54	H	0.709306	-0.358586	-0.129079
C55	C	0.596001	-0.466246	-0.021877
C56	C	0.669040	-0.498541	-0.052926
H57	H	0.555107	-0.523813	-0.007670
H58	H	0.609021	-0.425630	0.029234
H59	H	0.574324	-0.427390	-0.066146
H60	H	0.690721	-0.537385	-0.008655
H61	H	0.656022	-0.539166	-0.104030
H62	H	1.212868	-0.576792	0.000072
O63	O	0.933874	0.273809	0.590824
C64	C	0.970497	0.373950	0.568305
H65	H	1.002514	0.373832	0.501369
H66	H	1.019100	0.405251	0.620185
C67	C	0.862273	0.441356	0.646256
C68	C	0.901591	0.441213	0.564040
H69	H	0.819771	0.482850	0.643629
H70	H	0.837601	0.373891	0.661431
H71	H	0.902784	0.467439	0.689481
H72	H	0.861083	0.415119	0.520820
H73	H	0.926255	0.508677	0.548858
O74	O	1.094032	0.002445	0.590955
C75	C	1.035119	-0.059963	0.644300
H76	H	0.969154	-0.061696	0.616523
H77	H	1.038067	-0.028308	0.714168
C78	C	1.136911	-0.166427	0.679830
C79	C	1.055892	-0.168562	0.645710
H80	H	1.149726	-0.233415	0.680704
H81	H	1.176604	-0.124379	0.643893
H82	H	1.139357	-0.140043	0.738050
H83	H	1.053450	-0.194934	0.587488
H84	H	1.016200	-0.210617	0.681638
H85	H	1.079800	-0.190856	0.000066
O86	O	0.805764	-0.136670	-0.000009
C87	C	0.847027	-0.034825	0.000014
H88	H	0.913261	-0.030803	-0.027707
H89	H	0.850908	-0.004312	0.070277
C90	C	0.716037	0.024833	-0.023380
C91	C	0.797385	0.029774	-0.057434
H92	H	0.685415	0.064683	-0.058813
H93	H	0.688236	-0.043781	-0.023392
H94	H	0.719283	0.050259	0.035172
H95	H	0.794139	0.004337	-0.115980
H96	H	0.825184	0.098386	-0.057432
H97	H	0.940184	0.262865	0.416429
H98	H	0.613614	0.306986	0.000051
O99	O	0.577391	-0.041836	0.000011
C100	C	0.510237	-0.124394	0.000031
H101	H	0.451439	-0.098704	-0.027699
H102	H	0.497480	-0.152930	0.070293
C103	C	0.605756	-0.242283	-0.023346
C104	C	0.533542	-0.210733	-0.057411
H105	H	0.620132	-0.295543	-0.058775
H106	H	0.651000	-0.186663	-0.023356
H107	H	0.595116	-0.266056	0.035205
H108	H	0.544186	-0.186949	-0.115957
H109	H	0.488300	-0.266351	-0.057412
H110	H	0.802261	-0.508756	0.000026
H111	H	0.455520	0.303619	0.000059
O112	O	1.155171	-0.251176	0.000029
C113	C	1.243851	-0.229184	0.000064
H114	H	1.270251	-0.296830	-0.027656
H115	H	1.267407	-0.213605	0.070330
C116	C	1.240815	-0.051742	-0.023327
C117	C	1.273240	-0.134824	-0.057379
H118	H	1.258945	0.006466	-0.058757
H119	H	1.181069	-0.066557	-0.023348
H120	H	1.260448	-0.038773	0.035227
H121	H	1.253599	-0.147799	-0.115928
H122	H	1.332983	-0.120009	-0.057370
H123	H	0.911145	-0.626403	0.000026
H124	H	1.259835	-0.385378	0.000084
