data_functionalizedCrystal
_audit_creation_method	'MofGen! by Chris Wilmer'
_symmetry_space_group_name_H-M	'P1'
_symmetry_Int_Tables_number	1
_symmetry_cell_setting	triclinic
loop_
_symmetry_equiv_pos_as_xyz
  x,y,z
_cell_length_a	16.625547
_cell_length_b	25.639239
_cell_length_c	16.625539
_cell_angle_alpha	90.031810
_cell_angle_beta	90.024822
_cell_angle_gamma	90.039221
loop_
_atom_site_label
_atom_site_type_symbol
_atom_site_fract_x
_atom_site_fract_y
_atom_site_fract_z
Zn1	Zn	1.232586	-0.208151	0.455981
Zn2	Zn	1.232450	-0.295589	0.321140
Zn3	Zn	1.097748	-0.208169	0.321152
Zn4	Zn	1.097679	-0.295557	0.455920
O5	O	1.165116	-0.251866	0.388548
O6	O	1.345401	-0.219755	0.438115
O7	O	1.214553	-0.284013	0.208309
O8	O	1.115721	-0.135001	0.339068
O9	O	1.345300	-0.283995	0.339048
O10	O	1.214786	-0.134988	0.438126
O11	O	1.115588	-0.219786	0.208318
O12	O	0.984907	-0.219755	0.339008
O13	O	1.115603	-0.283941	0.568761
O14	O	0.984856	-0.283959	0.438022
O15	O	1.214719	-0.219724	0.568806
O16	O	1.214486	-0.368750	0.338989
O17	O	1.115471	-0.368726	0.438011
C18	C	0.955625	-0.251856	0.388510
C19	C	0.866004	-0.251864	0.388513
C20	C	1.164978	-0.387709	0.388509
C21	C	1.164993	-0.445823	0.388520
C22	C	0.793221	-0.251865	0.388523
C23	C	0.701913	-0.251868	0.388543
C24	C	0.629137	-0.251873	0.388564
C25	C	0.537822	-0.251877	0.388583
C26	C	1.113549	-0.697017	0.440093
C27	C	1.113519	-0.642412	0.440083
O28	O	1.069647	-0.614176	0.483906
N29	N	1.165094	-0.615097	0.388562
C30	C	1.216709	-0.642388	0.337052
O31	O	1.260576	-0.614140	0.293229
C32	C	1.216742	-0.696992	0.337066
C33	C	1.165157	-0.724304	0.388585
C34	C	1.061969	-0.724329	0.491608
C35	C	1.061998	-0.778930	0.491616
C36	C	1.113607	-0.806218	0.440109
C37	C	1.165186	-0.778905	0.388593
C38	C	1.268360	-0.724282	0.285561
C39	C	1.268390	-0.778889	0.285580
C40	C	1.216805	-0.806202	0.337099
C41	C	1.216824	-0.860793	0.337094
N42	N	1.165249	-0.888109	0.388615
C43	C	1.113640	-0.860821	0.440123
C44	C	1.216636	-0.527718	0.337027
C45	C	1.216599	-0.473115	0.337009
C46	C	1.113410	-0.473143	0.440041
C47	C	1.113443	-0.527746	0.440055
C48	C	1.165060	-0.555033	0.388549
C49	C	1.113704	-0.975486	0.440136
C50	C	1.113736	-1.030091	0.440137
C51	C	1.216927	-1.030059	0.337107
C52	C	1.216894	-0.975458	0.337103
C53	C	1.165279	-0.948173	0.388624
O54	O	1.260676	-0.889064	0.293296
O55	O	1.069788	-0.889076	0.483946
C56	C	1.375425	-0.251877	0.388587
C57	C	1.465046	-0.251881	0.388603
C58	C	1.165168	-0.251827	0.598857
C59	C	1.165191	-0.251811	0.688478
C60	C	1.165276	-0.115493	0.388605
C61	C	1.165344	-0.057379	0.388629
C62	C	1.165110	-0.251867	0.179057
C63	C	1.165244	-0.251737	0.089437
C64	C	1.165228	-0.251752	1.016654
C65	C	1.165215	-0.251770	0.925346
C66	C	1.165210	-0.251782	0.852569
C67	C	1.165196	-0.251799	0.761255
H68	H	1.071727	-1.052327	0.482092
H69	H	1.258890	-0.953220	0.295143
H70	H	1.310365	-0.702052	0.243610
H71	H	1.019991	-0.801163	0.533567
H72	H	1.310426	-0.801103	0.243639
C73	C	1.273699	-1.060082	0.280460
H74	H	1.266332	-1.096513	0.287856
H75	H	1.261937	-1.051171	0.226267
H76	H	1.327864	-1.051092	0.292327
H77	H	1.019943	-0.702117	0.533556
H78	H	1.071676	-0.953277	0.482089
C79	C	1.056648	-0.443120	0.496707
H80	H	1.064027	-0.406689	0.489323
H81	H	1.002481	-0.452106	0.484864
H82	H	1.068434	-0.452035	0.550898
H83	H	1.258595	-0.450881	0.295048
C84	C	1.056708	-0.557786	0.496733
H85	H	1.025973	-0.533709	0.527408
H86	H	1.021605	-0.579128	0.465867
H87	H	1.087551	-0.579045	0.531907
H88	H	1.258667	-0.549931	0.295078
