data_functionalizedCrystal
_audit_creation_method	'MofGen! by Chris Wilmer'
_symmetry_space_group_name_H-M	'P1'
_symmetry_Int_Tables_number	1
_symmetry_cell_setting	triclinic
loop_
_symmetry_equiv_pos_as_xyz
  x,y,z
_cell_length_a	11.792241
_cell_length_b	10.723024
_cell_length_c	9.798715
_cell_angle_alpha	89.998022
_cell_angle_beta	89.999488
_cell_angle_gamma	95.669357
loop_
_atom_site_label
_atom_site_type_symbol
_atom_site_fract_x
_atom_site_fract_y
_atom_site_fract_z
O1	O	1.507282	-0.171036	0.113355
O2	O	1.176980	-0.188663	0.113386
O3	O	1.349750	0.001747	0.113365
O4	O	1.334512	-0.361446	0.113376
O5	O	1.349737	0.001747	-0.113618
O6	O	1.176967	-0.188663	-0.113596
O7	O	1.507269	-0.171035	-0.113627
Zn8	Zn	1.342116	-0.179849	-0.149650
Zn9	Zn	1.342133	-0.179850	0.149409
O10	O	1.334499	-0.361445	-0.113606
C11	C	1.134680	-0.187556	-0.000101
C12	C	1.008659	-0.184242	-0.000089
N13	N	1.342112	-0.179848	-0.353750
C14	C	1.348634	0.048244	-0.000125
C15	C	1.345317	0.186789	-0.000120
C16	C	0.777933	-0.178147	-0.000128
C17	C	0.906326	-0.181533	-0.000107
C18	C	1.549569	-0.172143	-0.000137
C19	C	1.675590	-0.175457	-0.000140
C20	C	1.335614	-0.407942	-0.000114
C21	C	1.338932	-0.546488	-0.000110
C22	C	1.242259	0.378274	-0.000102
C23	C	1.245686	0.235079	-0.000108
C24	C	1.414654	-0.099549	-0.421536
C25	C	1.414672	-0.099544	-0.578698
N26	N	1.342145	-0.179841	0.353508
H27	H	1.156957	0.419870	-0.000085
O28	O	1.440731	0.403960	0.000122
C29	C	1.502861	0.444330	0.117655
H30	H	1.441616	0.471912	0.199826
H31	H	1.551662	0.365069	0.157110
H32	H	1.565544	0.528651	0.091072
O33	O	1.147055	0.157782	-0.000039
C34	C	1.172433	0.032019	-0.000083
H35	H	1.261645	0.026544	0.042878
H36	H	1.107720	-0.026595	0.065822
H37	H	1.168457	-0.005588	-0.108979
O38	O	1.444166	0.263722	-0.000185
C39	C	1.537467	0.191009	-0.000159
H40	H	1.509517	0.094034	-0.043132
H41	H	1.608755	0.238631	-0.066061
H42	H	1.569574	0.181564	0.108734
H43	H	1.476743	-0.030799	-0.363221
O44	O	1.488923	-0.017644	-0.648168
C45	C	1.601542	-0.038353	-0.613307
H46	H	1.603157	-0.138203	-0.573939
H47	H	1.658309	-0.024323	-0.707329
H48	H	1.634228	0.030720	-0.530467
O49	O	1.268203	-0.261919	-0.576818
C50	C	1.329854	-0.339099	-0.494184
H51	H	1.418195	-0.289778	-0.472904
H52	H	1.282739	-0.358548	-0.393654
H53	H	1.338479	-0.431378	-0.549169
H54	H	1.280016	-0.248588	-0.412066
