data_functionalizedCrystal
_audit_creation_method	'MofGen! by Chris Wilmer'
_symmetry_space_group_name_H-M	'P1'
_symmetry_Int_Tables_number	1
_symmetry_cell_setting	triclinic
loop_
_symmetry_equiv_pos_as_xyz
  x,y,z
_cell_length_a	13.897448
_cell_length_b	12.759401
_cell_length_c	12.759401
_cell_angle_alpha	89.994768
_cell_angle_beta	90.011486
_cell_angle_gamma	89.980783
loop_
_atom_site_label
_atom_site_type_symbol
_atom_site_fract_x
_atom_site_fract_y
_atom_site_fract_z
Zn1	Zn	-0.384127	-1.606082	0.594007
Zn2	Zn	-0.545395	-1.606012	0.418321
Zn3	Zn	-0.384120	-1.430429	0.418342
Zn4	Zn	-0.545386	-1.430363	0.593959
O5	O	-0.464757	-1.518221	0.506157
O6	O	-0.405526	-1.753093	0.570713
O7	O	-0.524002	-1.582718	0.271303
O8	O	-0.249139	-1.453786	0.441673
O9	O	-0.524009	-1.753042	0.441638
O10	O	-0.249144	-1.582838	0.570733
O11	O	-0.405514	-1.453718	0.271318
O12	O	-0.405505	-1.283399	0.441626
O13	O	-0.523994	-1.453674	0.740986
O14	O	-0.523987	-1.283351	0.570651
O15	O	-0.405518	-1.582774	0.741021
O16	O	-0.680375	-1.582655	0.441591
O17	O	-0.680369	-1.453607	0.570631
C18	C	-0.715371	-1.518145	0.506127
C19	C	-0.822585	-1.518208	0.506149
C20	C	-0.464745	-1.245254	0.506136
C21	C	-0.464763	-1.128477	0.506152
C22	C	-0.464755	-1.518225	0.780190
C23	C	-0.464755	-1.518226	0.896967
C24	C	-1.018880	-1.518318	0.506215
C25	C	-0.909648	-1.518254	0.506181
C26	C	-0.213164	-1.518327	0.506211
C27	C	-0.105950	-1.518372	0.506233
C28	C	-0.464769	-1.792254	0.506179
C29	C	-0.464775	-1.909031	0.506188
C30	C	-0.526550	-1.073618	0.573230
C31	C	-0.526554	-0.963894	0.573251
C32	C	-0.402981	-0.963898	0.439108
C33	C	-0.402973	-1.073620	0.439093
C34	C	-0.561207	-0.813962	0.697110
C35	C	-0.623009	-0.759099	0.764178
C36	C	-0.717149	-0.794687	0.780123
C37	C	-0.749506	-0.885136	0.728984
C38	C	-0.687709	-0.939994	0.661908
C39	C	-0.593555	-0.904407	0.645983
C40	C	-0.368330	-1.223554	0.315232
C41	C	-0.306537	-1.278414	0.248150
C42	C	-0.212396	-1.242828	0.232195
C43	C	-0.180042	-1.152375	0.283315
C44	C	-0.241835	-1.097515	0.350397
C45	C	-0.335976	-1.133109	0.366354
C46	C	-0.403074	-1.585431	1.061580
C47	C	-0.403074	-1.585440	0.951856
C48	C	-0.526447	-1.451006	0.951808
C49	C	-0.526451	-1.451003	1.061530
C50	C	-0.368612	-1.709365	0.801930
C51	C	-0.306911	-1.776573	0.747093
C52	C	-0.212794	-1.792743	0.782731
C53	C	-0.180358	-1.741690	0.873203
C54	C	-0.242053	-1.674475	0.928034
C55	C	-0.336184	-1.658324	0.892398
C56	C	-0.560904	-1.327077	1.211458
C57	C	-0.622595	-1.259855	1.266291
C58	C	-0.716713	-1.243674	1.230656
C59	C	-0.749146	-1.294709	1.140180
C60	C	-0.687455	-1.361930	1.085346
C61	C	-0.593338	-1.378113	1.120990
C62	C	-0.464774	-1.518211	1.233190
C63	C	-0.464759	-1.518214	1.116413
H64	H	-0.714053	-1.013635	0.620271
C65	C	-0.853065	-0.924275	0.746519
H66	H	-0.885232	-0.878655	0.793798
H67	H	-0.886406	-0.925302	0.681528
H68	H	-0.851442	-0.993017	0.775074
H69	H	-0.444986	-1.252544	0.328227
C70	C	-0.457371	-1.344880	1.250658
H71	H	-0.425279	-1.392233	1.205051
H72	H	-0.423927	-1.279972	1.251710
H73	H	-0.459037	-1.373438	1.319396
H74	H	-0.576862	-1.118279	0.627837
H75	H	-0.352675	-0.919220	0.384508
C76	C	-0.076486	-1.113228	0.265771
H77	H	-0.044315	-1.158860	0.218508
H78	H	-0.078105	-1.044490	0.237219
H79	H	-0.043142	-1.112203	0.330767
H80	H	-0.352840	-1.640158	1.106263
H81	H	-0.576673	-1.396284	0.907108
C82	C	-0.784573	-1.169726	1.290964
H83	H	-0.845271	-1.167399	1.256776
H84	H	-0.792712	-1.194805	1.360499
H85	H	-0.757606	-1.101344	1.292803
C86	C	-0.206387	-1.618328	1.027550
H87	H	-0.141496	-1.637586	1.040926
H88	H	-0.210283	-1.544648	1.017731
H89	H	-0.245374	-1.638135	1.085401
C90	C	-0.586921	-1.203721	1.365817
H91	H	-0.522035	-1.222997	1.379199
H92	H	-0.590799	-1.130041	1.355997
H93	H	-0.625917	-1.223518	1.423663
C94	C	-0.076827	-1.759476	0.912404
H95	H	-0.066346	-1.719442	0.974134
H96	H	-0.067681	-1.831705	0.927477
H97	H	-0.032579	-1.738235	0.859791
H98	H	-0.162558	-1.847466	0.738075
H99	H	-0.767468	-0.750010	0.834732
H100	H	-0.825786	-1.281535	1.111165
H101	H	-0.596655	-0.685455	0.805816
H102	H	-0.713870	-1.403486	1.011676
H103	H	-0.484547	-0.784984	0.684145
C104	C	-0.472149	-1.691597	0.762743
H105	H	-0.504255	-1.644270	0.808364
H106	H	-0.470503	-1.663044	0.694008
H107	H	-0.505574	-1.756523	0.761699
H108	H	-0.333330	-1.818140	0.673430
H109	H	-0.215482	-1.023869	0.392029
H110	H	-0.162088	-1.287500	0.177562
H111	H	-0.332888	-1.352065	0.206524
