data_functionalizedCrystal
_audit_creation_method	'MofGen! by Chris Wilmer'
_symmetry_space_group_name_H-M	'P1'
_symmetry_Int_Tables_number	1
_symmetry_cell_setting	triclinic
loop_
_symmetry_equiv_pos_as_xyz
  x,y,z
_cell_length_a	9.065218
_cell_length_b	10.654550
_cell_length_c	9.730223
_cell_angle_alpha	90.001139
_cell_angle_beta	90.004044
_cell_angle_gamma	95.249606
loop_
_atom_site_label
_atom_site_type_symbol
_atom_site_fract_x
_atom_site_fract_y
_atom_site_fract_z
O1	O	1.959392	-0.184151	0.114325
O2	O	1.530025	-0.199257	0.114319
O3	O	1.754581	-0.009004	0.114317
O4	O	1.734837	-0.374404	0.114327
O5	O	1.754566	-0.009014	-0.114263
O6	O	1.530010	-0.199267	-0.114261
O7	O	1.959378	-0.184162	-0.114255
Zn8	Zn	1.744692	-0.191716	-0.150550
Zn9	Zn	1.744711	-0.191702	0.150614
O10	O	1.734822	-0.374415	-0.114253
C11	C	1.753124	0.037795	0.000028
C12	C	1.748786	0.177255	0.000033
C13	C	2.014364	-0.185608	0.000038
C14	C	2.178183	-0.189949	0.000050
C15	C	1.475039	-0.197810	0.000028
C16	C	1.311220	-0.193469	0.000026
C17	C	1.736279	-0.421213	0.000038
C18	C	1.740616	-0.560673	0.000042
N19	N	1.744689	-0.191725	-0.356087
C20	C	1.881001	0.256217	0.000031
C21	C	1.876917	0.387254	0.000040
C22	C	1.608391	0.360354	0.000049
C23	C	1.612477	0.229320	0.000049
C24	C	2.036032	0.271749	0.000020
C25	C	2.031948	0.402786	0.000029
C26	C	1.834950	-0.268957	-0.428022
C27	C	1.834972	-0.268933	-0.571905
C28	C	1.654461	-0.114443	-0.571904
C29	C	1.654448	-0.114460	-0.428024
C30	C	1.939161	-0.358155	-0.428024
C31	C	1.939184	-0.358132	-0.571907
N32	N	1.744725	-0.191683	0.356150
H33	H	1.504815	0.165033	0.000070
H34	H	2.096677	0.242155	0.095674
F35	F	1.878361	-0.481492	-0.369714
H36	H	2.085394	0.235922	-0.098676
F37	F	2.108286	0.457067	-0.125000
F38	F	2.093194	0.462215	0.129028
F39	F	1.558376	-0.032264	-0.351469
F40	F	1.558424	-0.032217	-0.648477
H41	H	2.055528	-0.327759	-0.388958
H42	H	1.902844	-0.457022	-0.610979
H43	H	1.497413	0.402762	0.000063
F44	F	2.084438	-0.307130	-0.630213
