data_functionalizedCrystal
_audit_creation_method	'MofGen! by Chris Wilmer'
_symmetry_space_group_name_H-M	'P1'
_symmetry_Int_Tables_number	1
_symmetry_cell_setting	triclinic
loop_
_symmetry_equiv_pos_as_xyz
  x,y,z
_cell_length_a	8.597340
_cell_length_b	10.489763
_cell_length_c	7.681481
_cell_angle_alpha	95.806034
_cell_angle_beta	103.474906
_cell_angle_gamma	95.057472
loop_
_atom_site_label
_atom_site_type_symbol
_atom_site_fract_x
_atom_site_fract_y
_atom_site_fract_z
O1	O	2.101887	-0.176391	0.172445
O2	O	1.638061	-0.196714	0.102068
O3	O	1.880513	-0.000876	0.138888
O4	O	1.859435	-0.372229	0.135624
O5	O	1.910354	0.023283	0.436278
O6	O	1.667902	-0.172555	0.399457
O7	O	2.131728	-0.152232	0.469834
Zn8	Zn	1.904553	-0.158558	0.481863
Zn9	Zn	1.865236	-0.190388	0.090039
O10	O	1.889276	-0.348070	0.433014
C11	C	1.593588	-0.183798	0.241751
C12	C	1.416615	-0.181289	0.214900
C13	C	1.893835	0.058723	0.287345
C14	C	1.889052	0.200317	0.286634
C15	C	1.734769	0.267315	0.263220
C16	C	1.822353	0.371888	0.420916
C17	C	1.792968	0.348044	0.127719
C18	C	1.976711	0.303035	0.444460
C19	C	1.947292	0.279171	0.151128
C20	C	2.034991	0.383720	0.308876
C21	C	2.176200	-0.165149	0.330147
C22	C	2.353172	-0.167658	0.356986
N23	N	1.931397	-0.136834	0.749274
C24	C	1.875931	0.592330	0.284580
C25	C	1.880647	0.450735	0.285361
N26	N	1.838404	-0.212102	-0.177370
H27	H	1.335531	-0.191042	0.072697
H28	H	2.054387	0.282767	0.578454
H29	H	1.607945	0.216738	0.244117
H30	H	1.434248	-0.157897	0.499180
H31	H	2.026343	-0.060011	0.838899
H32	H	2.161953	0.434090	0.328226
H33	H	1.769512	0.412488	0.534979
O34	O	1.725115	-0.303855	0.716000
C35	C	1.642644	-0.370565	0.824194
H36	H	1.721319	-0.361206	0.967585
H37	H	1.525657	-0.327636	0.826015
C38	C	1.507679	-0.525560	0.570105
C39	C	1.604315	-0.514075	0.746217
H40	H	1.484028	-0.614083	0.522003
H41	H	1.563236	-0.480615	0.497210
H42	H	1.410201	-0.489779	0.571647
H43	H	1.701798	-0.549842	0.744671
H44	H	1.548773	-0.559031	0.819111
O45	O	2.010015	0.230704	0.014822
C46	C	1.912802	0.252867	-0.151875
H47	H	1.786260	0.265983	-0.136478
H48	H	1.966627	0.343645	-0.196383
C49	C	2.060263	0.120625	-0.313551
C50	C	1.904838	0.136723	-0.294644
H51	H	2.055355	0.048986	-0.401622
H52	H	2.125762	0.105697	-0.201246
H53	H	2.105100	0.196281	-0.350634
H54	H	1.860011	0.061074	-0.257541
H55	H	1.839331	0.151636	-0.406948
H56	H	1.715229	0.368454	-0.006160
