data_functionalizedCrystal
_audit_creation_method	'MofGen! by Chris Wilmer'
_symmetry_space_group_name_H-M	'P1'
_symmetry_Int_Tables_number	1
_symmetry_cell_setting	triclinic
loop_
_symmetry_equiv_pos_as_xyz
  x,y,z
_cell_length_a	6.817900
_cell_length_b	17.982783
_cell_length_c	10.943624
_cell_angle_alpha	94.170555
_cell_angle_beta	108.838799
_cell_angle_gamma	102.448572
loop_
_atom_site_label
_atom_site_type_symbol
_atom_site_fract_x
_atom_site_fract_y
_atom_site_fract_z
V1	V	-4.083143	-0.105392	-0.403087
O2	O	-4.074765	0.005085	-0.394862
O3	O	-4.029290	-0.208994	-0.400861
O4	O	-4.061606	-0.103762	-0.578645
O5	O	-4.042226	-0.100876	-0.215847
V6	V	-4.563997	-0.092179	-0.380627
O7	O	-4.350257	-0.134376	-0.452354
O8	O	-4.747080	-0.063194	-0.331360
O9	O	-4.394642	0.011424	-0.382854
O10	O	-4.689771	-0.202656	-0.388852
O11	O	-4.722311	-0.096695	-0.567867
O12	O	-4.362327	-0.093809	-0.205069
C13	C	-3.872096	-0.234251	-0.394639
C14	C	-3.909531	-0.318947	-0.393988
C15	C	-3.869351	-0.347863	-0.275394
C16	C	-3.904546	-0.427444	-0.274788
C17	C	-3.979906	-0.478109	-0.392776
C18	C	-4.020094	-0.449188	-0.511380
C19	C	-3.984913	-0.369608	-0.511986
C20	C	-4.161976	-0.770126	-0.508941
C21	C	-4.197148	-0.849711	-0.508326
C22	C	-4.081609	-0.827963	-0.271743
C23	C	-4.046428	-0.748383	-0.272348
C24	C	-4.086629	-0.719469	-0.390951
C25	C	-4.048470	-0.633178	-0.391608
C26	C	-4.018050	-0.564399	-0.392121
C27	C	-3.913316	-0.100015	-0.621419
C28	C	-3.976955	-0.099368	-0.764942
C29	C	-3.823123	-0.095009	-0.842067
C30	C	-3.992619	-0.159711	-0.948386
C31	C	-3.920875	-0.033519	-0.914358
C32	C	-4.145643	-0.164131	-0.869385
C33	C	-4.073836	-0.037882	-0.835333
C34	C	-4.243464	-0.102603	-0.941622
C35	C	-4.215179	0.036676	-0.389072
C36	C	-4.156983	0.121371	-0.389731
C37	C	-4.173958	-0.097558	-0.162289
C38	C	-4.089558	-0.098201	-0.018764
H39	H	-4.048886	-0.851513	-0.175170
H40	H	-4.421788	-0.105829	-0.984883
H41	H	-4.107425	0.013626	-0.786087
H42	H	-3.871830	-0.450983	-0.178217
C43	C	-3.786482	-0.292139	-0.145605
H44	H	-3.767621	-0.320762	-0.074890
H45	H	-3.653342	-0.258157	-0.136775
H46	H	-3.887403	-0.263130	-0.145071
H47	H	-4.081469	-0.490446	-0.607449
C48	C	-3.793342	0.041058	-0.941952
H49	H	-3.644602	0.043662	-0.907698
H50	H	-3.835923	0.041175	-1.033582
H51	H	-3.820787	0.084348	-0.901570
H52	H	-3.985055	-0.707134	-0.176269
H53	H	-4.258517	-0.890962	-0.604412
H54	H	-4.194686	-0.746595	-0.605514
H55	H	-4.240063	-0.219392	-0.849121
C56	C	-3.582340	-0.090784	-0.783332
H57	H	-3.512321	-0.045691	-0.720089
H58	H	-3.563487	-0.134989	-0.742934
H59	H	-3.522659	-0.089053	-0.850743
C60	C	-4.029100	-0.337800	-0.642439
H61	H	-4.079001	-0.379370	-0.712622
H62	H	-4.134791	-0.309689	-0.651728
H63	H	-3.900747	-0.304728	-0.643456
C64	C	-3.947139	-0.229283	-1.014883
H65	H	-3.798307	-0.226520	-0.980613
H66	H	-4.025587	-0.275622	-0.998692
H67	H	-3.989425	-0.228617	-1.106371
