data_functionalizedCrystal
_audit_creation_method	'MofGen! by Chris Wilmer'
_symmetry_space_group_name_H-M	'P1'
_symmetry_Int_Tables_number	1
_symmetry_cell_setting	triclinic
loop_
_symmetry_equiv_pos_as_xyz
  x,y,z
_cell_length_a	17.640112
_cell_length_b	17.640280
_cell_length_c	17.077396
_cell_angle_alpha	78.774396
_cell_angle_beta	101.176196
_cell_angle_gamma	92.184069
loop_
_atom_site_label
_atom_site_type_symbol
_atom_site_fract_x
_atom_site_fract_y
_atom_site_fract_z
Zn1	Zn	1.221964	-0.067374	-0.185388
Zn2	Zn	1.247568	-0.194373	-0.023522
Zn3	Zn	1.094996	-0.093096	-0.074429
Zn4	Zn	1.120644	-0.220012	-0.175047
O5	O	1.171293	-0.143714	-0.114596
O6	O	1.331616	-0.062727	-0.146939
O7	O	1.227311	-0.180974	0.079575
O8	O	1.090389	0.016580	-0.114780
O9	O	1.350427	-0.156032	-0.028017
O10	O	1.183672	0.035478	-0.196301
O11	O	1.115216	-0.106566	0.042174
O12	O	0.992143	-0.131426	-0.104753
O13	O	1.134103	-0.199729	-0.286269
O14	O	1.010986	-0.224670	-0.178677
O15	O	1.208543	-0.087587	-0.293866
O16	O	1.252181	-0.304038	-0.017991
O17	O	1.158930	-0.322875	-0.129315
C18	C	0.974014	-0.183622	-0.146117
C19	C	0.889621	-0.200713	-0.159616
C20	C	0.562831	-0.013860	-0.012057
C21	C	0.483534	-0.029935	-0.024748
C22	C	0.503237	-0.127164	-0.101520
C23	C	0.582537	-0.111094	-0.088838
C24	C	0.612328	-0.054442	-0.044105
C25	C	0.632034	-0.151677	-0.120887
C26	C	0.711327	-0.135611	-0.108203
C27	C	0.741124	-0.078963	-0.063470
C28	C	0.691621	-0.038377	-0.031421
C29	C	0.602243	-0.208332	-0.165614
C30	C	0.651739	-0.248914	-0.197663
C31	C	0.731034	-0.232845	-0.184984
C32	C	0.760831	-0.176197	-0.140251
C33	C	0.780537	-0.273431	-0.217033
C34	C	0.859830	-0.257366	-0.204349
C35	C	0.840124	-0.160131	-0.127567
C36	C	1.211138	-0.341005	-0.067020
C37	C	1.228253	-0.425393	-0.046682
C38	C	1.041582	-0.752150	-0.269338
C39	C	1.057666	-0.831445	-0.250202
C40	C	1.154829	-0.811753	-0.134372
C41	C	1.138756	-0.732454	-0.153500
C42	C	1.082131	-0.702659	-0.220984
C43	C	1.179304	-0.682963	-0.105146
C44	C	1.163229	-0.603672	-0.124271
C45	C	1.106606	-0.573871	-0.191750
C46	C	1.066056	-0.623368	-0.240108
C47	C	1.235925	-0.712760	-0.037659
C48	C	1.276473	-0.663270	0.010695
C49	C	1.260403	-0.583976	-0.008433
C50	C	1.203779	-0.554175	-0.075912
C51	C	1.300952	-0.534479	0.039926
C52	C	1.284877	-0.455188	0.020801
C53	C	1.187704	-0.474884	-0.095037
C54	C	1.369343	-0.103650	-0.082953
C55	C	1.453740	-0.086577	-0.069469
C56	C	1.171328	-0.143649	-0.319347
C57	C	1.171342	-0.143621	-0.406599
C58	C	1.131314	0.054352	-0.162372
C59	C	1.114277	0.138756	-0.182731
C60	C	1.210104	-0.085224	-0.451547
C61	C	1.210108	-0.085197	-0.533532
C62	C	1.171355	-0.143570	-0.570567
C63	C	1.132588	-0.201970	-0.525613
C64	C	1.132580	-0.201994	-0.443631
C65	C	1.132609	-0.201918	-0.696489
C66	C	1.132619	-0.201896	-0.778477
C67	C	1.210138	-0.085122	-0.786391
C68	C	1.210129	-0.085145	-0.704409
C69	C	1.171364	-0.143546	-0.659461
C70	C	1.171291	-0.143715	0.089351
C71	C	1.171380	-0.143499	0.176575
H72	H	0.587085	0.032283	0.024355
H73	H	1.347050	-0.558752	0.094875
C74	C	1.329480	-0.400739	0.073985
C75	C	1.325559	-0.412924	0.164886
C76	C	1.370160	-0.358474	0.218073
C77	C	1.418681	-0.291840	0.180357
C78	C	1.422604	-0.279652	0.089451
C79	C	1.378004	-0.334102	0.036265
H80	H	1.289639	-0.462254	0.192810
H81	H	1.367256	-0.367497	0.285368
H82	H	1.451697	-0.251533	0.219729
H83	H	1.458525	-0.230323	0.061527
H84	H	1.380908	-0.325079	-0.031030
H85	H	0.443234	0.003121	0.001347
H86	H	0.627473	-0.295043	-0.234082
H87	H	1.024651	-0.871737	-0.289591
C88	C	1.217115	-0.844533	-0.060144
C89	C	1.195313	-0.905748	0.009424
C90	C	1.257602	-0.938526	0.083651
C91	C	1.341692	-0.910090	0.088310
C92	C	1.363497	-0.848871	0.018740
C93	C	1.301209	-0.816093	-0.055487
H94	H	1.133061	-0.926801	0.005977
H95	H	1.241460	-0.983844	0.135152
H96	H	1.387802	-0.934354	0.143257
H97	H	1.425750	-0.827818	0.022186
H98	H	1.317351	-0.770775	-0.106988
H99	H	0.995479	-0.727889	-0.324295
H100	H	0.715875	0.007767	0.004990
C101	C	1.338759	-0.696050	0.084923
C102	C	1.316958	-0.757265	0.154491
C103	C	1.379247	-0.790043	0.228718
C104	C	1.463337	-0.761607	0.233377
C105	C	1.485142	-0.700388	0.163806
C106	C	1.422853	-0.667610	0.089579
H107	H	1.254706	-0.778318	0.151044
H108	H	1.363104	-0.835361	0.280218
H109	H	1.509447	-0.785871	0.288324
H110	H	1.547394	-0.679335	0.167253
H111	H	1.438996	-0.622292	0.038079
H112	H	1.141600	-0.450623	-0.149994
C113	C	1.252734	-0.021011	-0.410813
C114	C	1.229111	0.064064	-0.443899
C115	C	1.271740	0.128280	-0.403168
C116	C	1.337992	0.107421	-0.329352
C117	C	1.361618	0.022342	-0.296262
C118	C	1.318989	-0.041874	-0.336993
H119	H	1.180065	0.079508	-0.498546
H120	H	1.254250	0.191261	-0.427664
H121	H	1.369548	0.154958	-0.299201
H122	H	1.410664	0.006897	-0.241615
H123	H	1.336479	-0.104856	-0.312497
C124	C	1.252760	-0.020935	-0.663671
C125	C	1.229140	0.064142	-0.696752
C126	C	1.271769	0.128354	-0.656016
C127	C	1.338018	0.107490	-0.582197
C128	C	1.361641	0.022410	-0.549111
C129	C	1.319012	-0.041803	-0.589848
H130	H	1.180096	0.079590	-0.751401
H131	H	1.254281	0.191336	-0.680508
H132	H	1.369574	0.155024	-0.552041
H133	H	1.410685	0.006961	-0.494463
H134	H	1.336499	-0.104785	-0.565355
H135	H	0.478971	-0.173292	-0.137938
H136	H	0.537676	-0.221411	-0.175940
C137	C	0.872895	-0.097806	-0.078367
C138	C	0.934016	-0.119586	-0.000049
C139	C	0.966784	-0.057263	0.049148
C140	C	0.938432	0.026840	0.020028
C141	C	0.877308	0.048624	-0.058294
C142	C	0.844539	-0.013699	-0.107491
H143	H	0.955007	-0.181848	0.021511
H144	H	1.012033	-0.073389	0.107127
H145	H	0.962690	0.072975	0.056446
H146	H	0.856317	0.110885	-0.079855
H147	H	0.799291	0.002427	-0.165470
H148	H	0.756270	-0.319563	-0.253447
H149	H	1.249013	-0.777325	-0.022092
C150	C	1.090022	-0.266127	-0.819206
C151	C	1.047400	-0.330378	-0.769763
C152	C	1.004821	-0.394622	-0.810486
C153	C	1.004863	-0.394614	-0.900653
C154	C	1.047486	-0.330360	-0.950102
C155	C	1.090066	-0.266117	-0.909378
H156	H	1.047367	-0.330387	-0.703011
H157	H	0.973268	-0.442187	-0.773881
H158	H	0.973343	-0.442170	-0.930799
H159	H	1.047519	-0.330352	-1.016853
H160	H	1.121618	-0.218552	-0.945984
H161	H	1.241700	-0.037569	-0.822992
C162	C	1.089974	-0.266160	-0.647037
C163	C	1.002406	-0.277433	-0.673577
C164	C	0.959779	-0.341674	-0.624119
C165	C	1.004721	-0.394643	-0.548122
C166	C	1.092294	-0.383371	-0.521578
C167	C	1.134921	-0.319130	-0.571036
H168	H	0.969133	-0.238221	-0.729838
H169	H	0.894951	-0.350018	-0.643769
H170	H	0.973165	-0.442198	-0.511510
H171	H	1.125567	-0.422583	-0.465317
H172	H	1.199749	-0.310786	-0.551386
C173	C	1.089946	-0.266232	-0.394181
C174	C	1.002377	-0.277495	-0.420730
C175	C	0.959739	-0.341733	-0.371280
C176	C	1.004671	-0.394707	-0.295281
C177	C	1.092244	-0.383445	-0.268728
C178	C	1.134882	-0.319207	-0.318178
H179	H	0.969112	-0.238279	-0.476993
H180	H	0.894911	-0.350069	-0.390937
H181	H	0.973108	-0.442260	-0.258675
H182	H	1.125509	-0.422661	-0.212465
H183	H	1.199710	-0.310871	-0.298521
C184	C	1.003772	-0.590581	-0.314343
C185	C	0.933144	-0.548187	-0.302929
C186	C	0.870863	-0.515398	-0.377159
C187	C	0.879210	-0.525003	-0.462803
C188	C	0.949840	-0.567398	-0.474221
C189	C	1.012122	-0.600187	-0.399991
H190	H	0.926963	-0.541076	-0.239527
H191	H	0.818578	-0.484014	-0.368706
H192	H	0.833106	-0.500730	-0.517753
H193	H	0.956022	-0.574510	-0.537623
H194	H	1.064407	-0.631571	-0.408444
H195	H	0.805691	-0.065885	-0.053141
H196	H	1.101031	-0.249497	-0.555774
H197	H	1.241674	-0.037646	-0.570125
H198	H	1.093514	-0.509307	-0.207315
H199	H	0.900132	-0.290411	-0.230447
