data_functionalizedCrystal
_audit_creation_method	'MofGen! by Chris Wilmer'
_symmetry_space_group_name_H-M	'P1'
_symmetry_Int_Tables_number	1
_symmetry_cell_setting	triclinic
loop_
_symmetry_equiv_pos_as_xyz
  x,y,z
_cell_length_a	17.019383
_cell_length_b	23.532407
_cell_length_c	16.098538
_cell_angle_alpha	92.700973
_cell_angle_beta	83.394151
_cell_angle_gamma	83.124684
loop_
_atom_site_label
_atom_site_type_symbol
_atom_site_fract_x
_atom_site_fract_y
_atom_site_fract_z
O1	O	1.053521	0.067272	-0.144746
O2	O	1.553521	0.567272	0.355254
O3	O	0.822939	0.077123	-0.128228
O4	O	1.322939	0.577123	0.371772
O5	O	0.945183	-0.010729	-0.136970
O6	O	1.445183	0.489271	0.363030
O7	O	0.931278	0.155124	-0.136004
O8	O	1.431278	0.655124	0.363996
O9	O	0.938042	-0.005617	0.002054
O10	O	1.438042	0.494383	0.502054
O11	O	0.815799	0.082235	0.010795
O12	O	1.315799	0.582235	0.510795
O13	O	1.046380	0.072384	-0.005722
O14	O	1.546380	0.572384	0.494278
Zn15	Zn	0.929956	0.078121	0.024610
Zn16	Zn	1.429956	0.578121	0.524610
Zn17	Zn	0.939364	0.071386	-0.158560
Zn18	Zn	1.439364	0.571386	0.341440
O19	O	0.924137	0.160236	0.003019
O20	O	1.424137	0.660236	0.503019
C21	C	0.789875	0.079404	-0.056603
C22	C	1.289875	0.579404	0.443397
C23	C	0.701991	0.078580	-0.050307
C24	C	1.201991	0.578580	0.449693
C25	C	0.941258	-0.029389	-0.067430
C26	C	1.441258	0.470611	0.432570
C27	C	0.940193	-0.092607	-0.067348
C28	C	1.440193	0.407393	0.432652
C29	C	0.664588	0.075408	-0.123125
C30	C	1.164588	0.575408	0.376875
C31	C	0.582009	0.074644	-0.117196
C32	C	1.082009	0.574644	0.382804
C33	C	0.536836	0.077047	-0.038450
C34	C	1.036836	0.577047	0.461550
C35	C	0.574244	0.080221	0.034373
C36	C	1.074244	0.580221	0.534373
C37	C	0.656821	0.080990	0.028444
C38	C	1.156821	0.580990	0.528444
C39	C	0.287314	0.074869	-0.016757
C40	C	0.787314	0.574869	0.483243
C41	C	0.204733	0.074098	-0.010833
C42	C	0.704733	0.574098	0.489167
C43	C	0.212503	0.068522	-0.162403
C44	C	0.712503	0.568522	0.337597
C45	C	0.295081	0.069288	-0.168325
C46	C	0.795081	0.569288	0.331675
C47	C	0.332482	0.072465	-0.095502
C48	C	0.832482	0.572465	0.404498
C49	C	0.452428	0.076263	-0.032388
C50	C	0.952428	0.576263	0.467612
C51	C	0.416888	0.073252	-0.101565
C52	C	0.916888	0.573252	0.398435
C53	C	1.005859	-0.491668	-0.072097
C54	C	1.505859	0.008332	0.427903
C55	C	1.004870	-0.551069	-0.072033
C56	C	1.504870	-0.051069	0.427967
O57	O	1.065743	-0.587775	-0.076424
O58	O	1.565743	-0.087775	0.423576
N59	N	0.932196	-0.573744	-0.066826
N60	N	1.432196	-0.073744	0.433174
C61	C	0.860507	-0.537013	-0.061692
C62	C	1.360507	-0.037013	0.438308
O63	O	0.798601	-0.561754	-0.057259
O64	O	1.298601	-0.061754	0.442741
C65	C	0.861496	-0.477614	-0.061763
C66	C	1.361496	0.022386	0.438237
C67	C	0.934175	-0.454943	-0.066961
C68	C	1.434175	0.045057	0.433039
C69	C	1.078531	-0.468997	-0.077296
C70	C	1.578531	0.031003	0.422704
C71	C	1.079520	-0.409599	-0.077359
C72	C	1.579520	0.090401	0.422641
C73	C	1.007836	-0.372874	-0.072223
C74	C	1.507836	0.127126	0.427777
C75	C	0.935163	-0.395546	-0.067024
C76	C	1.435163	0.104454	0.432976
C77	C	0.789808	-0.440885	-0.056635
C78	C	1.289808	0.059115	0.443365
C79	C	0.790804	-0.381482	-0.056707
C80	C	1.290804	0.118518	0.443293
C81	C	0.863482	-0.358811	-0.061905
C82	C	1.363482	0.141189	0.438095
C83	C	0.864467	-0.299423	-0.061951
C84	C	1.364467	0.200577	0.438049
N85	N	0.937141	-0.276749	-0.067158
N86	N	1.437141	0.223251	0.432842
C87	C	1.008825	-0.313474	-0.072294
C88	C	1.508825	0.186526	0.427706
C89	C	0.858433	-0.661757	-0.061546
C90	C	1.358433	-0.161757	0.438454
C91	C	0.857442	-0.721156	-0.061469
C92	C	1.357442	-0.221156	0.438531
C93	C	1.001806	-0.735208	-0.071812
C94	C	1.501806	-0.235208	0.428188
C95	C	1.002796	-0.675808	-0.071882
C96	C	1.502796	-0.175808	0.428118
C97	C	0.931107	-0.639083	-0.066753
C98	C	1.431107	-0.139083	0.433247
C99	C	1.010896	-0.188735	-0.072425
C100	C	1.510896	0.311265	0.427575
C101	C	1.011877	-0.129332	-0.072484
C102	C	1.511877	0.370668	0.427516
C103	C	0.867514	-0.115286	-0.062146
C104	C	1.367514	0.384714	0.437854
C105	C	0.866531	-0.174684	-0.062083
C106	C	1.366531	0.325316	0.437917
C107	C	0.938229	-0.211408	-0.067225
C108	C	1.438229	0.288592	0.432775
O109	O	0.803627	-0.262683	-0.057566
O110	O	1.303627	0.237317	0.442434
O111	O	1.070722	-0.288726	-0.076738
O112	O	1.570722	0.211274	0.423262
C113	C	1.079445	0.070102	-0.077349
C114	C	1.579445	0.570102	0.422651
C115	C	1.167329	0.070926	-0.083651
C116	C	1.667329	0.570926	0.416349
C117	C	0.928062	0.178896	-0.066522
C118	C	1.428062	0.678896	0.433478
C119	C	0.929127	0.242113	-0.066610
C120	C	1.429127	0.742113	0.433390
N121	N	0.923541	0.082717	0.149618
N122	N	1.423541	0.582717	0.649618
N123	N	0.945785	0.066785	-0.283568
N124	N	1.445785	0.566785	0.216432
C125	C	0.975444	0.045442	0.189491
C126	C	1.475444	0.545442	0.689491
C127	C	0.970964	0.048663	0.277000
C128	C	1.470964	0.548663	0.777000
C129	C	0.914583	0.089161	0.324634
C130	C	1.414583	0.589161	0.824634
C131	C	0.862674	0.126438	0.284755
C132	C	1.362674	0.626438	0.784755
C133	C	0.867151	0.123214	0.197248
C134	C	1.367151	0.623214	0.697248
C135	C	0.898353	0.100838	0.589045
C136	C	1.398353	0.600838	1.089045
C137	C	0.893882	0.104060	0.676558
C138	C	1.393882	0.604060	1.176558
C139	C	1.002171	0.026284	0.668797
C140	C	1.502171	0.526284	1.168797
C141	C	1.006647	0.023066	0.581288
C142	C	1.506647	0.523066	1.081288
C143	C	0.954735	0.060340	0.541417
C144	C	1.454735	0.560340	1.041417
C145	C	0.910004	0.092455	0.414083
C146	C	1.410004	0.592455	0.914083
C147	C	0.959311	0.057043	0.451970
C148	C	1.459311	0.557043	0.951970
H149	H	0.701362	0.073450	-0.187249
H150	H	1.201362	0.573450	0.312751
Br151	Br	0.391115	0.079526	0.074480
Br152	Br	0.891115	0.579526	0.574480
Br153	Br	1.051971	-0.009519	0.124853
Br154	Br	1.551971	0.490481	0.624853
H155	H	1.071063	-0.110877	-0.076715
H156	H	1.571063	0.389123	0.423285
Br157	Br	0.531250	0.070341	-0.216025
Br158	Br	1.031250	0.570341	0.283975
Br159	Br	0.767895	-0.205452	-0.055008
Br160	Br	1.267895	0.294548	0.444992
Br161	Br	1.108200	-0.238566	-0.079405
Br162	Br	1.608200	0.261434	0.420595
H163	H	0.809150	-0.085373	-0.057962
H164	H	1.309150	0.414627	0.442038
Br165	Br	0.356383	0.066020	-0.275200
Br166	Br	0.856383	0.566020	0.224800
H167	H	0.687273	0.083575	0.087740
H168	H	1.187273	0.583575	0.587740
H169	H	0.816764	0.159411	0.323544
H170	H	1.316764	0.659411	0.823544
H171	H	0.864099	0.125431	0.452874
H172	H	1.364099	0.625431	0.952874
H173	H	1.044435	-0.004064	0.701269
H174	H	1.544435	0.495936	1.201269
H175	H	0.167951	0.076071	0.053295
H176	H	0.667951	0.576071	0.553295
H177	H	1.013228	0.018311	0.309465
H178	H	1.513228	0.518311	0.809465
H179	H	1.138702	-0.391147	-0.081596
H180	H	1.638702	0.108853	0.418404
H181	H	1.136909	-0.498893	-0.081482
H182	H	1.636909	0.001107	0.418518
Br183	Br	1.035821	0.002079	0.387324
Br184	Br	1.535821	0.502079	0.887324
H185	H	0.317756	0.077452	0.042541
H186	H	0.817756	0.577452	0.542541
Br187	Br	0.512938	0.083489	0.141245
Br188	Br	1.012938	0.583489	0.641245
Br189	Br	0.161742	0.064202	-0.261229
Br190	Br	0.661742	0.564202	0.238771
H191	H	0.824885	0.153566	0.164784
H192	H	1.324885	0.653566	0.664784
Br193	Br	0.758803	-0.751915	-0.054394
Br194	Br	1.258803	-0.251915	0.445606
Br195	Br	1.101434	-0.645047	-0.078936
Br196	Br	1.601434	-0.145047	0.421064
Br197	Br	1.099093	-0.785061	-0.078785
Br198	Br	1.599093	-0.285061	0.421215
Br199	Br	0.761131	-0.611922	-0.054577
Br200	Br	1.261131	-0.111922	0.445423
Br201	Br	0.817361	0.159029	0.741200
Br202	Br	1.317361	0.659029	1.241200
Br203	Br	0.691167	-0.471637	-0.049583
Br204	Br	1.191167	0.028363	0.450417
Br205	Br	1.083167	-0.031894	0.516640
Br206	Br	1.583167	0.468106	1.016640
H207	H	0.732425	-0.351583	-0.052531
H208	H	1.232425	0.148417	0.447469
H209	H	0.856086	0.131189	0.556589
H210	H	1.356086	0.631189	1.056589
H211	H	0.453670	0.071299	-0.165680
H212	H	0.953670	0.571299	0.334320
