data_functionalizedCrystal
_audit_creation_method	'MofGen! by Chris Wilmer'
_symmetry_space_group_name_H-M	'P1'
_symmetry_Int_Tables_number	1
_symmetry_cell_setting	triclinic
loop_
_symmetry_equiv_pos_as_xyz
  x,y,z
_cell_length_a	10.489746
_cell_length_b	10.489741
_cell_length_c	15.186229
_cell_angle_alpha	89.996534
_cell_angle_beta	89.999565
_cell_angle_gamma	84.540238
loop_
_atom_site_label
_atom_site_type_symbol
_atom_site_fract_x
_atom_site_fract_y
_atom_site_fract_z
O1	O	1.694048	0.179998	-0.073169
O2	O	1.322853	0.196884	-0.073184
O3	O	1.516897	0.002843	-0.073171
O4	O	1.500004	0.374039	-0.073182
O5	O	1.516884	0.002840	0.073287
O6	O	1.322840	0.196881	0.073274
O7	O	1.694035	0.179995	0.073288
Zn8	Zn	1.508435	0.188437	0.096534
Zn9	Zn	1.508453	0.188441	-0.096429
O10	O	1.499991	0.374036	0.073275
C11	C	1.275315	0.195606	0.000043
C12	C	1.133686	0.191786	0.000038
C13	C	0.980828	0.066062	0.000054
C14	C	1.058215	0.128917	0.072261
C15	C	1.058184	0.128950	-0.072135
C16	C	0.958724	0.247899	0.072326
C17	C	0.958687	0.247914	-0.072134
C18	C	1.036025	0.310856	0.000090
C19	C	1.515614	-0.044690	0.000057
C20	C	1.511797	-0.186320	0.000056
C21	C	1.388333	-0.254462	0.000044
C22	C	1.446650	-0.346585	0.072258
C23	C	1.446692	-0.346557	-0.072138
C24	C	1.570165	-0.276577	0.072329
C25	C	1.570190	-0.276539	-0.072132
C26	C	1.628597	-0.368635	0.000099
C27	C	1.741573	0.181273	0.000060
C28	C	1.883202	0.185093	0.000059
C29	C	1.501273	0.421569	0.000045
C30	C	1.505091	0.563198	0.000041
N31	N	1.508433	0.188434	0.228227
N32	N	1.508465	0.188435	-0.228122
C33	C	1.594385	0.102542	0.453956
C34	C	1.594389	0.102539	0.546145
C35	C	1.422503	0.274330	0.546143
C36	C	1.422494	0.274326	0.453955
C37	C	1.508442	0.188434	0.407864
C38	C	1.508456	0.188435	0.592241
C39	C	1.508459	0.188432	0.692197
C40	C	1.508437	0.188434	0.307901
H41	H	1.286821	-0.204813	0.000113
C42	C	1.639657	-0.235217	0.153796
C43	C	1.642349	-0.102031	0.152882
C44	C	1.706333	-0.063880	0.227921
H45	H	1.724797	-0.275202	0.154086
H46	H	1.596072	-0.259681	0.205033
H47	H	1.685936	-0.077580	0.101659
H48	H	1.557227	-0.062014	0.152606
H49	H	1.662749	-0.088344	0.279158
H50	H	1.791469	-0.103873	0.228204
H51	H	1.708158	0.026490	0.227315
H52	H	0.915192	0.298119	-0.133187
C53	C	1.115964	0.061721	-0.153507
C54	C	1.088451	-0.066296	-0.153161
C55	C	1.141639	-0.128271	-0.228108
H56	H	1.206126	0.065162	-0.153286
H57	H	1.080522	0.103071	-0.204809
H58	H	1.123898	-0.107635	-0.101872
H59	H	0.998300	-0.069774	-0.153395
H60	H	1.106197	-0.086920	-0.279410
H61	H	1.231798	-0.124820	-0.227880
H62	H	1.122969	-0.215133	-0.227887
H63	H	1.352503	0.344270	0.416424
C64	C	1.329138	0.367384	0.596302
C65	C	1.250463	0.298674	0.649256
C66	C	1.164453	0.384355	0.695483
H67	H	1.277825	0.418573	0.555750
H68	H	1.375483	0.420914	0.632309
H69	H	1.204122	0.245166	0.613253
H70	H	1.301741	0.247489	0.689825
H71	H	1.210798	0.437885	0.731489
H72	H	1.113148	0.435540	0.654924
H73	H	1.111070	0.337749	0.731423
H74	H	0.956107	-0.037439	0.000130
H75	H	1.664370	0.032598	0.583671
H76	H	1.730200	-0.418057	0.000143
C77	C	1.376753	-0.387849	0.153581
C78	C	1.251009	-0.329549	0.153237
C79	C	1.186571	-0.367538	0.228128
H80	H	1.419638	-0.362741	0.204926
H81	H	1.375435	-0.478283	0.153263
H82	H	1.252334	-0.239134	0.153563
H83	H	1.208090	-0.354649	0.101909
H84	H	1.185252	-0.457972	0.227810
H85	H	1.229466	-0.342427	0.279467
H86	H	1.101244	-0.327996	0.227900
C87	C	1.639578	-0.235171	-0.153639
C88	C	1.574512	-0.270220	-0.229050
C89	C	1.638374	-0.232113	-0.304157
H90	H	1.724453	-0.275814	-0.154278
H91	H	1.642139	-0.144888	-0.152799
H92	H	1.571965	-0.360485	-0.229889
H93	H	1.489641	-0.229580	-0.228440
H94	H	1.640935	-0.141830	-0.303318
H95	H	1.723246	-0.272759	-0.304788
H96	H	1.594230	-0.255877	-0.355332
H97	H	1.101686	0.078668	0.133311
H98	H	1.664368	0.032602	0.416430
C99	C	0.900786	0.314726	0.153795
C100	C	0.767812	0.310294	0.152888
C101	C	0.714399	0.371815	0.227931
H102	H	0.919872	0.401448	0.154086
H103	H	0.935658	0.272723	0.205030
H104	H	0.732952	0.352300	0.101667
H105	H	0.748690	0.223589	0.152610
H106	H	0.749271	0.329811	0.279165
H107	H	0.733493	0.458533	0.228215
H108	H	0.624172	0.368805	0.227329
C109	C	1.068754	0.448937	-0.000046
C110	C	1.139438	0.471389	-0.075757
C111	C	1.169601	0.598575	-0.075912
H112	H	1.118014	0.464063	0.050726
H113	H	0.991996	0.504862	0.000417
H114	H	1.216184	0.415481	-0.076212
H115	H	1.090202	0.456292	-0.126541
H116	H	1.092843	0.654500	-0.075449
H117	H	1.218857	0.613689	-0.025137
H118	H	1.217553	0.613828	-0.127284
H119	H	1.394441	-0.377520	-0.133194
