data_functionalizedCrystal
_audit_creation_method	'MofGen! by Chris Wilmer'
_symmetry_space_group_name_H-M	'P1'
_symmetry_Int_Tables_number	1
_symmetry_cell_setting	triclinic
loop_
_symmetry_equiv_pos_as_xyz
  x,y,z
_cell_length_a	9.565339
_cell_length_b	14.044220
_cell_length_c	14.044220
_cell_angle_alpha	86.811123
_cell_angle_beta	89.991408
_cell_angle_gamma	90.002275
loop_
_atom_site_label
_atom_site_type_symbol
_atom_site_fract_x
_atom_site_fract_y
_atom_site_fract_z
O1	O	0.116264	1.277166	-0.230171
O2	O	0.449598	1.610499	0.103162
O3	O	0.782931	1.943832	0.436495
O4	O	0.116268	1.000494	-0.221866
O5	O	0.449601	1.333828	0.111468
O6	O	0.782934	1.667161	0.444801
O7	O	0.116252	1.134677	-0.087683
O8	O	0.449585	1.468011	0.245650
O9	O	0.782919	1.801344	0.578984
O10	O	0.116280	1.142983	-0.364354
O11	O	0.449613	1.476316	-0.031021
O12	O	0.782946	1.809650	0.302312
O13	O	-0.116268	1.134669	-0.087669
O14	O	0.217065	1.468002	0.245664
O15	O	0.550399	1.801335	0.578997
O16	O	-0.116253	1.000486	-0.221852
O17	O	0.217081	1.333819	0.111481
O18	O	0.550414	1.667152	0.444814
O19	O	-0.116256	1.277157	-0.230158
O20	O	0.217078	1.610490	0.103175
O21	O	0.550411	1.943824	0.436509
Zn22	Zn	-0.153172	1.138820	-0.226003
Zn23	Zn	0.180162	1.472153	0.107330
Zn24	Zn	0.513495	1.805487	0.440664
Zn25	Zn	0.153183	1.138831	-0.226021
Zn26	Zn	0.486517	1.472165	0.107313
Zn27	Zn	0.819850	1.805498	0.440646
O28	O	-0.116240	1.142974	-0.364341
O29	O	0.217093	1.476308	-0.031008
O30	O	0.550426	1.809641	0.302326
C31	C	0.000008	0.964868	-0.218223
C32	C	0.333341	1.298201	0.115110
C33	C	0.666674	1.631535	0.448443
C34	C	0.000009	0.858725	-0.207379
C35	C	0.333342	1.192059	0.125955
C36	C	0.666675	1.525392	0.459288
C37	C	-0.000008	1.131037	-0.052054
C38	C	0.333325	1.464371	0.281279
C39	C	0.666658	1.797704	0.614612
C40	C	-0.000010	1.120193	0.054088
C41	C	0.333323	1.453526	0.387422
C42	C	0.666657	1.786859	0.720755
N43	N	-0.362251	1.138819	-0.225991
N44	N	-0.028918	1.472153	0.107342
N45	N	0.304416	1.805486	0.440676
C46	C	-0.546594	1.200309	-0.163368
C47	C	-0.213261	1.533642	0.169966
C48	C	0.120073	1.866976	0.503299
C49	C	-0.453347	1.226874	-0.251002
C50	C	-0.120014	1.560207	0.082331
C51	C	0.213319	1.893541	0.415664
C52	C	-0.453429	1.112297	-0.138367
C53	C	-0.120095	1.445631	0.194967
C54	C	0.213238	1.778964	0.528300
C55	C	-0.546542	1.165451	-0.313707
C56	C	-0.213209	1.498784	0.019626
C57	C	0.120125	1.832118	0.352959
C58	C	-0.546632	1.050832	-0.201013
C59	C	-0.213298	1.384165	0.132321
C60	C	0.120035	1.717498	0.465654
C61	C	-0.453427	1.077365	-0.288707
C62	C	-0.120094	1.410699	0.044627
C63	C	0.213240	1.744032	0.377960
N64	N	0.362263	1.138839	-0.226026
N65	N	0.695596	1.472172	0.107307
N66	N	1.028929	1.805506	0.440641
C67	C	0.000007	1.312783	-0.233800
C68	C	0.333340	1.646117	0.099533
C69	C	0.666674	1.979450	0.432866
C70	C	0.000015	1.418926	-0.244645
C71	C	0.333349	1.752259	0.088688
C72	C	0.666682	2.085593	0.422022
C73	C	0.000016	1.613264	-0.264471
C74	C	0.333349	1.946597	0.068862
C75	C	0.666683	2.279930	0.402195
C76	C	0.000008	1.664394	-0.187557
C77	C	0.333341	1.997727	0.145777
C78	C	0.666675	2.331060	0.479110
C79	C	0.000008	1.772530	-0.198588
C80	C	0.333342	2.105863	0.134745
C81	C	0.666675	2.439196	0.468078
C82	C	0.000016	1.505118	-0.253441
C83	C	0.333349	1.838451	0.079892
C84	C	0.666682	2.171784	0.413226
C85	C	0.000023	1.146614	-0.399969
C86	C	0.333357	1.479948	-0.066636
C87	C	0.666690	1.813281	0.266697
C88	C	0.000034	1.157459	-0.506112
C89	C	0.333367	1.490792	-0.172779
C90	C	0.666701	1.824125	0.160554
C91	C	0.000010	1.100366	0.248426
C92	C	0.333344	1.433700	0.581759
C93	C	0.666677	1.767033	0.915093
C94	C	0.000014	1.177281	0.299556
C95	C	0.333347	1.510614	0.632889
C96	C	0.666680	1.843947	0.966223
C97	C	0.000025	1.166249	0.407692
C98	C	0.333358	1.499582	0.741026
C99	C	0.666692	1.832916	1.074359
C100	C	-0.000001	1.111397	0.140280
C101	C	0.333332	1.444730	0.473613
C102	C	0.666666	1.778063	0.806947
H103	H	-0.587500	1.252344	-0.110462
H104	H	-0.254166	1.585678	0.222871
H105	H	0.079167	1.919011	0.556204
H106	H	-0.587637	0.976434	-0.179839
H107	H	-0.254304	1.309767	0.153494
H108	H	0.079030	1.643101	0.486827
O109	O	0.000078	1.619586	-0.099184
O110	O	0.333412	1.952919	0.234150
O111	O	0.666745	2.286252	0.567483
C112	C	0.000051	1.520027	-0.107696
C113	C	0.333384	1.853360	0.225638
C114	C	0.666718	2.186693	0.558971
H115	H	0.044062	1.503064	-0.180264
H116	H	0.377395	1.836398	0.153069
H117	H	0.710728	2.169731	0.486403
H118	H	0.067570	1.484611	-0.048955
H119	H	0.400904	1.817945	0.284378
H120	H	0.734237	2.151278	0.617712
H121	H	-0.111497	1.491899	-0.100750
H122	H	0.221836	1.825232	0.232583
H123	H	0.555170	2.158565	0.565916
H124	H	-0.412525	1.089857	-0.064249
H125	H	-0.079192	1.423190	0.269084
H126	H	0.254142	1.756524	0.602417
H127	H	0.000107	1.251414	0.262117
H128	H	0.333440	1.584748	0.595450
H129	H	0.666773	1.918081	0.928783
H130	H	0.000025	1.650701	-0.338599
H131	H	0.333358	1.984034	-0.005265
H132	H	0.666691	2.317367	0.328068
H133	H	0.000015	1.026239	0.285863
H134	H	0.333348	1.359572	0.619196
H135	H	0.666681	1.692906	0.952530
H136	H	-0.587273	1.187972	-0.387849
H137	H	-0.253940	1.521305	-0.054516
H138	H	0.079394	1.854638	0.278817
O139	O	-0.404519	1.315703	-0.276077
O140	O	-0.071185	1.649036	0.057257
O141	O	0.262148	1.982370	0.390590
C142	C	-0.452007	1.380306	-0.209868
C143	C	-0.118674	1.713639	0.123466
C144	C	0.214659	2.046973	0.456799
H145	H	-0.478204	1.339760	-0.139554
H146	H	-0.144871	1.673093	0.193779
H147	H	0.188463	2.006427	0.527113
H148	H	-0.366719	1.434956	-0.197501
H149	H	-0.033385	1.768289	0.135832
H150	H	0.299948	2.101622	0.469165
H151	H	-0.549496	1.418442	-0.239009
H152	H	-0.216162	1.751775	0.094325
H153	H	0.117171	2.085109	0.427658
H154	H	-0.412778	1.025376	-0.341742
H155	H	-0.079444	1.358710	-0.008409
H156	H	0.253889	1.692043	0.324925
