data_functionalizedCrystal
_audit_creation_method	'MofGen! by Chris Wilmer'
_symmetry_space_group_name_H-M	'P1'
_symmetry_Int_Tables_number	1
_symmetry_cell_setting	triclinic
loop_
_symmetry_equiv_pos_as_xyz
  x,y,z
_cell_length_a	19.188930
_cell_length_b	19.188940
_cell_length_c	11.295483
_cell_angle_alpha	94.080861
_cell_angle_beta	85.894762
_cell_angle_gamma	83.146747
loop_
_atom_site_label
_atom_site_type_symbol
_atom_site_fract_x
_atom_site_fract_y
_atom_site_fract_z
O1	O	0.930883	0.082432	-0.099411
O2	O	1.430883	0.582432	0.400589
O3	O	0.727569	0.094171	-0.099329
O4	O	1.227569	0.594171	0.400671
O5	O	0.835089	-0.013353	-0.099363
O6	O	1.335089	0.486647	0.400637
O7	O	0.823363	0.189956	-0.099377
O8	O	1.323363	0.689956	0.400623
O9	O	0.825646	-0.003924	0.098691
O10	O	1.325646	0.496076	0.598691
O11	O	0.718125	0.103600	0.098725
O12	O	1.218125	0.603600	0.598725
O13	O	0.921440	0.091862	0.098643
O14	O	1.421440	0.591862	0.598643
Cu15	Cu	0.818920	0.098592	0.116768
Cu16	Cu	1.318920	0.598592	0.616768
Cu17	Cu	0.830088	0.087441	-0.117454
Cu18	Cu	1.330088	0.587441	0.382546
O19	O	0.813919	0.199386	0.098677
O20	O	1.313919	0.699386	0.598677
C21	C	0.696835	0.098506	-0.000292
C22	C	1.196835	0.598506	0.499708
C23	C	0.619329	0.097367	-0.000261
C24	C	1.119329	0.597367	0.499739
C25	C	0.829987	-0.034649	-0.000336
C26	C	1.329987	0.465351	0.499664
C27	C	0.828843	-0.112154	-0.000336
C28	C	1.328843	0.387846	0.499664
C29	C	0.815562	-0.660274	0.107598
C30	C	1.315562	-0.160274	0.607598
C31	C	0.816628	-0.587449	0.107604
C32	C	1.316628	-0.087449	0.607604
C33	C	0.822313	-0.556170	-0.000354
C34	C	1.322313	-0.056170	0.499646
C35	C	0.826913	-0.597719	-0.108326
C36	C	1.326913	-0.097719	0.391674
C37	C	0.825839	-0.670541	-0.108329
C38	C	1.325839	-0.170541	0.391671
N39	N	0.867561	-0.450972	-0.080726
N40	N	1.367561	0.049028	0.419274
N41	N	0.868582	-0.381794	-0.080716
N42	N	1.368582	0.118206	0.419284
C43	C	0.825546	-0.336760	-0.000351
C44	C	1.325546	0.163240	0.499649
N45	N	0.781459	-0.363519	0.080021
N46	N	1.281459	0.136481	0.580021
N47	N	0.780440	-0.432704	0.080014
N48	N	1.280440	0.067296	0.580014
C49	C	0.823477	-0.477207	-0.000363
C50	C	1.323477	0.022793	0.499637
C51	C	0.822098	-0.216255	0.107621
C52	C	1.322098	0.283745	0.607621
C53	C	0.823160	-0.143428	0.107623
C54	C	1.323160	0.356572	0.607623
C55	C	0.833452	-0.153700	-0.108311
C56	C	1.333452	0.346300	0.391689
C57	C	0.832382	-0.226524	-0.108309
C58	C	1.332382	0.273476	0.391691
C59	C	0.826708	-0.257797	-0.000340
C60	C	1.326708	0.242203	0.499660
C61	C	0.574409	0.160456	-0.000283
C62	C	1.074409	0.660456	0.499717
C63	C	0.501585	0.159384	-0.000296
C64	C	1.001585	0.659384	0.499704
C65	C	0.473687	0.095217	-0.000310
C66	C	0.973687	0.595217	0.499690
C67	C	0.518617	0.032120	-0.000281
C68	C	1.018617	0.532120	0.499719
C69	C	0.591438	0.033195	-0.000256
C70	C	1.091438	0.533195	0.499744
N71	N	0.368922	0.042959	-0.067761
N72	N	0.868922	0.542959	0.432239
N73	N	0.299744	0.041943	-0.067788
N74	N	0.799744	0.541943	0.432212
C75	C	0.254282	0.091976	-0.000383
C76	C	0.754282	0.591976	0.499617
N77	N	0.280610	0.143074	0.067034
N78	N	0.780610	0.643074	0.567034
N79	N	0.349793	0.144093	0.067055
N80	N	0.849793	0.644093	0.567055
C81	C	0.394726	0.094045	-0.000337
C82	C	0.894726	0.594045	0.499663
C83	C	0.130397	0.153907	-0.000418
C84	C	0.630397	0.653907	0.499582
C85	C	0.057573	0.152832	-0.000424
C86	C	0.557573	0.652832	0.499576
C87	C	0.074607	0.025566	-0.000420
C88	C	0.574607	0.525566	0.499580
C89	C	0.147429	0.026643	-0.000403
C90	C	0.647429	0.526643	0.499597
C91	C	0.175320	0.090815	-0.000407
C92	C	0.675320	0.590815	0.499593
C93	C	0.952173	0.087527	-0.000397
C94	C	1.452173	0.587527	0.499603
C95	C	1.029680	0.088665	-0.000436
C96	C	1.529680	0.588665	0.499564
C97	C	0.819022	0.220682	-0.000352
C98	C	1.319022	0.720682	0.499648
C99	C	0.820166	0.298186	-0.000360
C100	C	1.320166	0.798186	0.499640
N101	N	0.811070	0.106435	0.281506
N102	N	1.311070	0.606435	0.781506
N103	N	0.837944	0.079592	-0.282193
N104	N	1.337944	0.579592	0.217807
C105	C	0.894453	0.023095	0.530770
C106	C	1.394453	0.523095	1.030770
C107	C	0.888526	0.029027	0.655435
C108	C	1.388526	0.529027	1.155435
C109	C	0.793285	0.124227	0.655505
C110	C	1.293285	0.624227	1.155505
C111	C	0.799212	0.118295	0.530840
C112	C	1.299212	0.618295	1.030840
C113	C	0.849799	0.067728	0.468476
C114	C	1.349799	0.567728	0.968476
C115	C	0.855729	0.061800	0.343808
C116	C	1.355729	0.561800	0.843808
C117	C	0.760485	0.156996	0.343881
C118	C	1.260485	0.656996	0.843881
C119	C	0.754558	0.162928	0.468546
C120	C	1.254558	0.662928	0.968546
H121	H	0.810941	-0.685732	0.195515
H122	H	1.310941	-0.185732	0.695515
H123	H	0.836136	-0.260348	-0.196220
H124	H	1.336136	0.239652	0.303780
H125	H	0.838072	-0.128232	-0.196212
H126	H	1.338072	0.371768	0.303788
F127	F	0.936052	-0.018479	0.721728
F128	F	1.436052	0.481521	1.221728
H129	H	0.752094	0.165393	0.706298
H130	H	1.252094	0.665393	1.206298
H131	H	0.829587	-0.704363	-0.196244
H132	H	1.329587	-0.204363	0.303756
F133	F	0.044920	-0.042725	-0.000424
F134	F	0.544920	0.457275	0.499576
F135	F	0.832965	-0.564428	-0.223223
F136	F	1.332965	-0.064428	0.276777
H137	H	0.597112	0.212710	-0.000289
H138	H	1.097112	0.712710	0.499711
F139	F	0.818249	-0.099216	0.222533
F140	F	1.318249	0.400784	0.722533
F141	F	0.453768	0.226535	-0.000318
F142	F	0.953768	0.726535	0.499682
F143	F	0.488925	-0.036170	-0.000290
F144	F	0.988925	0.463830	0.499710
H145	H	0.184005	-0.024732	-0.000391
H146	H	0.684005	0.475268	0.499609
H147	H	0.628014	-0.018182	-0.000238
H148	H	1.128014	0.481818	0.499762
F149	F	0.160083	0.222204	-0.000414
F150	F	0.660083	0.722204	0.499586
F151	F	0.700720	0.216741	0.534929
F152	F	1.200720	0.716741	1.034929
H153	H	0.724126	0.193341	0.293148
H154	H	1.224126	0.693341	0.793148
H155	H	0.812866	-0.553619	0.195519
H156	H	1.312866	-0.053619	0.695519
F157	F	0.816056	-0.249540	0.222529
F158	F	1.316056	0.250460	0.722529
H159	H	0.020998	0.204210	-0.000436
H160	H	0.520998	0.704210	0.499564
F161	F	0.909569	0.007985	0.277439
F162	F	1.409569	0.507985	0.777439
F163	F	0.948297	-0.030715	0.464397
F164	F	1.448297	0.469285	0.964397
