data_functionalizedCrystal
_audit_creation_method	'MofGen! by Chris Wilmer'
_symmetry_space_group_name_H-M	'P1'
_symmetry_Int_Tables_number	1
_symmetry_cell_setting	triclinic
loop_
_symmetry_equiv_pos_as_xyz
  x,y,z
_cell_length_a	12.759401
_cell_length_b	29.839133
_cell_length_c	29.839125
_cell_angle_alpha	90.007411
_cell_angle_beta	90.011756
_cell_angle_gamma	90.029550
loop_
_atom_site_label
_atom_site_type_symbol
_atom_site_fract_x
_atom_site_fract_y
_atom_site_fract_z
Zn1	Zn	1.606049	-0.178917	0.254035
Zn2	Zn	1.605926	-0.254029	0.178918
Zn3	Zn	1.430380	-0.178914	0.178918
Zn4	Zn	1.430294	-0.254021	0.254020
O5	O	1.518162	-0.216470	0.216473
O6	O	1.753054	-0.188886	0.244077
O7	O	1.582624	-0.244067	0.116051
O8	O	1.453770	-0.116047	0.188888
O9	O	1.752964	-0.244070	0.188889
O10	O	1.582833	-0.116049	0.244076
O11	O	1.453651	-0.188880	0.116051
O12	O	1.283347	-0.188872	0.188874
O13	O	1.453623	-0.244056	0.316889
O14	O	1.283284	-0.244053	0.244051
O15	O	1.582750	-0.188877	0.316900
O16	O	1.582541	-0.316895	0.188875
O17	O	1.453505	-0.316889	0.244052
C18	C	1.245195	-0.216461	0.216461
C19	C	1.128418	-0.216468	0.216467
C20	C	0.963775	-0.245167	0.187707
C21	C	1.073499	-0.245159	0.187695
C22	C	1.073607	-0.187781	0.245250
C23	C	0.963885	-0.187788	0.245260
C24	C	0.963714	-0.278295	0.154479
C25	C	1.073438	-0.278287	0.154467
C26	C	1.518029	-0.333193	0.216471
C27	C	1.518068	-0.383127	0.216486
C28	C	1.585404	-0.739680	0.245242
C29	C	1.585304	-0.552007	0.245241
O30	O	1.642420	-0.527714	0.269684
N31	N	1.518151	-0.528572	0.216485
C32	C	1.451022	-0.552058	0.187724
O33	O	1.393909	-0.527819	0.163261
C34	C	1.451127	-0.739730	0.187723
C35	C	1.518278	-0.763163	0.216484
C36	C	1.652550	-0.763113	0.274001
C37	C	1.652570	-0.810029	0.274003
C38	C	1.585444	-0.833511	0.245245
C39	C	1.518298	-0.810078	0.216486
C40	C	1.384005	-0.763215	0.158960
C41	C	1.384039	-0.810136	0.158961
C42	C	1.451190	-0.833569	0.187723
C43	C	1.451192	-0.880477	0.187730
N44	N	1.518346	-0.903912	0.216487
C45	C	1.585472	-0.880429	0.245244
C46	C	1.450970	-0.453527	0.187727
C47	C	1.450942	-0.406610	0.187728
C48	C	1.585226	-0.406562	0.245245
C49	C	1.585248	-0.453481	0.245246
C50	C	1.518124	-0.476963	0.216484
C51	C	1.585509	-0.978955	0.245246
C52	C	1.585520	-1.025875	0.245246
C53	C	1.451240	-1.025918	0.187728
C54	C	1.451224	-0.979002	0.187729
C55	C	1.518367	-0.955522	0.216489
O56	O	1.394115	-0.904799	0.163296
O57	O	1.642593	-0.904677	0.269696
C58	C	1.585384	-0.692765	0.245240
C59	C	1.518238	-0.669332	0.216481
C60	C	1.451112	-0.692815	0.187724
C61	C	1.518210	-0.622414	0.216482
C62	C	1.585336	-0.598932	0.245240
C63	C	1.652489	-0.622367	0.273997
C64	C	1.652510	-0.669282	0.273998
C65	C	1.383958	-0.669380	0.158967
C66	C	1.383943	-0.622464	0.158968
C67	C	1.451069	-0.598981	0.187726
C68	C	1.792195	-0.216479	0.216484
C69	C	1.908972	-0.216483	0.216490
C70	C	1.518191	-0.216466	0.333651
C71	C	1.518203	-0.216464	0.383585
C72	C	1.518325	-0.099292	0.216484
C73	C	1.518394	-0.049357	0.216488
C74	C	1.518194	-0.216442	0.099750
C75	C	1.518386	-0.216317	0.049816
C76	C	1.585509	-0.187658	0.693238
C77	C	1.585562	-0.187619	0.880911
O78	O	1.642710	-0.163170	0.905183
N79	N	1.518342	-0.216344	0.904371
C80	C	1.451100	-0.245078	0.880910
O81	O	1.393919	-0.269506	0.905170
C82	C	1.451043	-0.245114	0.693237
C83	C	1.518275	-0.216391	0.669780
C84	C	1.652735	-0.158936	0.669780
C85	C	1.652725	-0.158948	0.622864
C86	C	1.585490	-0.187681	0.599407
C87	C	1.518265	-0.216402	0.622864
C88	C	1.383796	-0.273845	0.669777
C89	C	1.383786	-0.273851	0.622856
C90	C	1.451018	-0.245128	0.599398
C91	C	1.451020	-0.245147	0.552491
N92	N	1.518240	-0.216422	0.529031
C93	C	1.585475	-0.187689	0.552489
C94	C	1.451136	-0.245058	0.979440
C95	C	1.451151	-0.245050	1.026358
C96	C	1.585612	-0.187590	1.026356
C97	C	1.585601	-0.187601	0.979437
C98	C	1.518355	-0.216333	0.955980
C99	C	1.585450	-0.187716	0.453963
C100	C	1.585438	-0.187731	0.407043
C101	C	1.450973	-0.245189	0.407049
C102	C	1.450989	-0.245175	0.453965
C103	C	1.518231	-0.216435	0.477421
O104	O	1.393893	-0.269580	0.528190
O105	O	1.642631	-0.163258	0.528220
C106	C	1.585519	-0.187646	0.740153
C107	C	1.518294	-0.216367	0.763611
C108	C	1.451059	-0.245100	0.740153
C109	C	1.518309	-0.216359	0.810528
C110	C	1.585544	-0.187626	0.833986
C111	C	1.652764	-0.158902	0.810526
C112	C	1.652754	-0.158913	0.763611
C113	C	1.383839	-0.273825	0.763613
C114	C	1.383855	-0.273811	0.810528
C115	C	1.451090	-0.245078	0.833986
H116	H	1.107446	-0.265773	0.121430
Br117	Br	1.359784	-0.374814	0.148702
Br118	Br	1.744008	-0.119942	0.701607
Br119	Br	1.123047	-0.336297	0.169899
Br120	Br	1.676652	-1.057674	0.284286
H121	H	1.640184	-0.959843	0.268665
H122	H	1.707259	-0.829104	0.297420
Br123	Br	1.292612	-0.312800	0.842358
Br124	Br	1.292515	-0.312845	0.591024
Br125	Br	1.743663	-0.731253	0.313034
H126	H	1.396416	-0.268444	1.045453
H127	H	1.396306	-0.472642	0.164304
Br128	Br	0.914032	-0.262681	0.096518
H129	H	1.329089	-0.297224	0.744518
H130	H	1.639923	-0.472557	0.268669
H131	H	1.329297	-0.688494	0.135548
H132	H	1.640189	-0.164341	0.387946
H133	H	1.329251	-0.603388	0.135548
H134	H	1.396377	-0.268458	0.960346
Br135	Br	1.676700	-0.148708	0.485788
H136	H	1.639881	-0.387435	0.268662
Br137	Br	0.906951	-0.333414	0.175170
H138	H	1.707470	-0.135558	0.603769
H139	H	1.707190	-0.688357	0.297419
Br140	Br	1.359754	-0.284160	0.485801
Br141	Br	1.676859	-0.148596	1.058200
H142	H	1.329378	-0.829253	0.135538
Br143	Br	0.889511	-0.148851	0.284317
H144	H	1.329049	-0.297235	0.688868
Br145	Br	1.292855	-0.731426	0.119928
Br146	Br	1.148138	-0.148839	0.284294
H147	H	1.396534	-0.959923	0.164313
H148	H	1.396585	-1.045046	0.164315
H149	H	1.640345	-0.164211	0.960341
H150	H	1.396235	-0.268584	0.387942
H151	H	1.707143	-0.603240	0.297414
Br152	Br	1.744016	-0.119910	0.842371
H153	H	1.707501	-0.135524	0.744516
