data_functionalizedCrystal
_audit_creation_method	'MofGen! by Chris Wilmer'
_symmetry_space_group_name_H-M	'P1'
_symmetry_Int_Tables_number	1
_symmetry_cell_setting	triclinic
loop_
_symmetry_equiv_pos_as_xyz
  x,y,z
_cell_length_a	10.686154
_cell_length_b	19.805405
_cell_length_c	19.805399
_cell_angle_alpha	90.030709
_cell_angle_beta	85.646985
_cell_angle_gamma	94.405719
loop_
_atom_site_label
_atom_site_type_symbol
_atom_site_fract_x
_atom_site_fract_y
_atom_site_fract_z
Zn1	Zn	-1.928990	0.190036	-0.303451
Zn2	Zn	-1.428990	0.690036	0.196549
Zn3	Zn	-1.928842	0.303233	-0.190265
Zn4	Zn	-1.428842	0.803233	0.309735
Zn5	Zn	-1.717993	0.198746	-0.198945
Zn6	Zn	-1.217993	0.698746	0.301055
Zn7	Zn	-1.717915	0.311880	-0.312079
Zn8	Zn	-1.217915	0.811880	0.187921
O9	O	-1.823435	0.250974	-0.251185
O10	O	-1.323435	0.750974	0.248815
O11	O	-2.105548	0.197788	-0.281193
O12	O	-1.605548	0.697788	0.218807
O13	O	-1.900842	0.289399	-0.096701
O14	O	-1.400842	0.789399	0.403299
O15	O	-1.746077	0.102870	-0.212830
O16	O	-1.246077	0.602870	0.287170
O17	O	-2.105438	0.280954	-0.198036
O18	O	-1.605438	0.780954	0.301964
O19	O	-1.901096	0.096471	-0.289610
O20	O	-1.401096	0.596471	0.210390
O21	O	-1.745932	0.212633	-0.103078
O22	O	-1.245932	0.712633	0.396922
O23	O	-1.541405	0.221018	-0.221196
O24	O	-1.041405	0.721018	0.278804
O25	O	-1.745944	0.295691	-0.405650
O26	O	-1.245944	0.795691	0.094350
O27	O	-1.541348	0.304137	-0.304315
O28	O	-1.041348	0.804137	0.195685
O29	O	-1.901020	0.206173	-0.399311
O30	O	-1.401020	0.706173	0.100689
O31	O	-1.900767	0.399101	-0.206403
O32	O	-1.400767	0.899101	0.293597
O33	O	-1.745800	0.405454	-0.295898
O34	O	-1.245800	0.905454	0.204102
C35	C	-1.495592	0.264461	-0.264634
C36	C	-0.995592	0.764461	0.235366
C37	C	-1.355340	0.270247	-0.270404
C38	C	-0.855340	0.770247	0.229596
C39	C	-1.823293	0.426836	-0.251158
C40	C	-1.323293	0.926836	0.248842
C41	C	-1.823348	0.502066	-0.251165
C42	C	-1.323348	1.002066	0.248835
C43	C	-1.823490	0.250925	-0.427726
C44	C	-1.323490	0.750925	0.072274
C45	C	-1.823514	0.250904	-0.502957
C46	C	-1.323514	0.750904	-0.002957
C47	C	-1.152558	0.237428	-0.237680
C48	C	-0.652558	0.737428	0.262320
C49	C	-1.292810	0.231639	-0.231913
C50	C	-0.792810	0.731639	0.268087
C51	C	-1.823612	0.074424	-0.251226
C52	C	-1.323612	0.574424	0.248774
C53	C	-1.823687	-0.000811	-0.251243
C54	C	-1.323687	0.499189	0.248757
C55	C	-1.904117	0.534076	-0.204606
C56	C	-1.404117	1.034076	0.295394
C57	C	-1.904171	0.604762	-0.204619
C58	C	-1.404171	1.104762	0.295381
C59	C	-1.823447	0.643437	-0.251187
C60	C	-1.323447	1.143437	0.248813
C61	C	-1.742674	0.611422	-0.297751
C62	C	-1.242674	1.111422	0.202249
C63	C	-1.742628	0.540736	-0.297741
C64	C	-1.242628	1.040736	0.202259
C65	C	-1.742860	0.896487	-0.297793
C66	C	-1.242860	1.396487	0.202207
C67	C	-1.742910	0.967177	-0.297799
C68	C	-1.242910	1.467177	0.202201
C69	C	-1.904403	0.960513	-0.204672
C70	C	-1.404403	1.460513	0.295328
C71	C	-1.904357	0.889828	-0.204661
C72	C	-1.404357	1.389828	0.295339
C73	C	-1.823589	0.857819	-0.251227
C74	C	-1.323589	1.357819	0.248773
C75	C	-1.823533	0.781172	-0.251213
C76	C	-1.323533	1.281172	0.248787
C77	C	-1.823496	0.720082	-0.251198
C78	C	-1.323496	1.220082	0.248802
C79	C	-1.742875	0.210927	-0.541620
C80	C	-1.242875	0.710927	-0.041620
C81	C	-1.742893	0.210913	-0.612308
C82	C	-1.242893	0.710913	-0.112308
C83	C	-1.823556	0.250873	-0.644331
C84	C	-1.323556	0.750873	-0.144331
C85	C	-1.904198	0.290855	-0.605662
C86	C	-1.404198	0.790855	-0.105662
C87	C	-1.904173	0.290872	-0.534976
C88	C	-1.404173	0.790872	-0.034976
C89	C	-1.904298	0.290787	-0.890732
C90	C	-1.404298	0.790787	-0.390732
C91	C	-1.904319	0.290765	-0.961423
C92	C	-1.404319	0.790765	-0.461423
C93	C	-1.743017	0.210828	-0.968063
C94	C	-1.243017	0.710828	-0.468063
C95	C	-1.742993	0.210845	-0.897377
C96	C	-1.242993	0.710845	-0.397377
C97	C	-1.823629	0.250829	-0.858715
C98	C	-1.323629	0.750829	-0.358715
C99	C	-1.823608	0.250845	-0.782068
C100	C	-1.323608	0.750845	-0.282068
C101	C	-1.823585	0.250854	-0.720977
C102	C	-1.323585	0.750854	-0.220977
C103	C	-1.823452	0.250971	-0.075328
C104	C	-1.323452	0.750971	0.424672
C105	C	-1.823673	0.250791	-0.000088
C106	C	-1.323673	0.750791	0.499912
H107	H	-1.301570	0.307735	-0.307769
H108	H	-0.801570	0.807735	0.192231
N109	N	-1.655886	0.167819	-0.507083
N110	N	-1.155886	0.667819	-0.007083
H111	H	-1.604805	0.142492	-0.542305
H112	H	-1.104805	0.642492	-0.042305
H113	H	-1.597451	0.197778	-0.480141
H114	H	-1.097451	0.697778	0.019859
N115	N	-1.655932	0.167776	-0.653996
N116	N	-1.155932	0.667776	-0.153996
H117	H	-1.707267	0.134294	-0.681223
H118	H	-1.207267	0.634294	-0.181223
H119	H	-1.597434	0.197714	-0.685680
H120	H	-1.097434	0.697714	-0.185680
N121	N	-1.991518	0.995037	-0.154444
N122	N	-1.491518	1.495037	0.345556
H123	H	-1.979304	1.045684	-0.161514
H124	H	-1.479304	1.545684	0.338486
H125	H	-2.081618	0.978924	-0.161313
H126	H	-1.581618	1.478924	0.338687
N127	N	-1.364013	0.181990	-0.182412
N128	N	-0.864013	0.681990	0.317588
H129	H	-1.457472	0.184754	-0.185169
H130	H	-0.957472	0.684754	0.314831
H131	H	-1.341077	0.134599	-0.193967
H132	H	-0.841077	0.634599	0.306033
H133	H	-1.969869	0.323395	-0.631741
H134	H	-1.469869	0.823395	-0.131741
H135	H	-1.969846	0.502592	-0.166682
H136	H	-1.469846	1.002592	0.333318
N137	N	-1.991274	0.333908	-0.849039
N138	N	-1.491274	0.833908	-0.349039
H139	H	-2.081445	0.319681	-0.857644
H140	H	-1.581445	0.819681	-0.357644
H141	H	-1.978914	0.327843	-0.799417
H142	H	-1.478914	0.827843	-0.299417
N143	N	-1.656018	0.167715	-1.009765
N144	N	-1.156018	0.667715	-0.509765
H145	H	-1.707328	0.134232	-1.037005
H146	H	-1.207328	0.634232	-0.537005
H147	H	-1.597544	0.197676	-1.041439
H148	H	-1.097544	0.697676	-0.541439
N149	N	-1.655836	1.008888	-0.348030
N150	N	-1.155836	1.508888	0.151970
H151	H	-1.675374	0.995744	-0.395596
H152	H	-1.175374	1.495744	0.104404
H153	H	-1.668156	1.058511	-0.340909
H154	H	-1.168156	1.558511	0.159091
H155	H	-1.969941	0.630822	-0.166706
H156	H	-1.469941	1.130822	0.333294
H157	H	-1.970008	0.323308	-0.987494
H158	H	-1.470008	0.823308	-0.487494
N159	N	-1.991151	0.333993	-0.493278
N160	N	-1.491151	0.833993	0.006722
H161	H	-2.081323	0.319769	-0.501883
H162	H	-1.581323	0.819769	-0.001883
H163	H	-1.978791	0.327928	-0.443656
H164	H	-1.478791	0.827928	0.056344
N165	N	-1.991425	0.848114	-0.154436
N166	N	-1.491425	1.348114	0.345564
H167	H	-2.042606	0.879119	-0.124944
H168	H	-1.542606	1.379119	0.375056
H169	H	-2.049762	0.816341	-0.179621
H170	H	-1.549762	1.316341	0.320379
H171	H	-1.677313	0.178303	-0.871308
H172	H	-1.177313	0.678303	-0.371308
H173	H	-1.677094	0.870431	-0.335707
H174	H	-1.177094	1.370431	0.164293
H175	H	-1.676859	0.514674	-0.335654
H176	H	-1.176859	1.014674	0.164346
N177	N	-1.655610	0.653131	-0.347982
N178	N	-1.155610	1.153131	0.152018
H179	H	-1.667890	0.702768	-0.340922
H180	H	-1.167890	1.202768	0.159078
H181	H	-1.565498	0.644531	-0.341101
H182	H	-1.065498	1.144531	0.158899
