data_functionalizedCrystal
_audit_creation_method	'MofGen! by Chris Wilmer'
_symmetry_space_group_name_H-M	'P1'
_symmetry_Int_Tables_number	1
_symmetry_cell_setting	triclinic
loop_
_symmetry_equiv_pos_as_xyz
  x,y,z
_cell_length_a	8.497365
_cell_length_b	10.686220
_cell_length_c	10.686285
_cell_angle_alpha	89.654569
_cell_angle_beta	94.418376
_cell_angle_gamma	94.338480
loop_
_atom_site_label
_atom_site_type_symbol
_atom_site_fract_x
_atom_site_fract_y
_atom_site_fract_z
Zn1	Zn	-0.670953	1.956275	0.351837
Zn2	Zn	-0.170953	2.456275	0.851837
Zn3	Zn	-0.385539	1.972227	0.561733
Zn4	Zn	0.114461	2.472227	1.061733
Zn5	Zn	-0.425716	1.746466	0.368084
Zn6	Zn	0.074284	2.246466	0.868084
Zn7	Zn	-0.667821	1.762600	0.577660
Zn8	Zn	-0.167821	2.262600	1.077660
O9	O	-0.537507	1.859392	0.464829
O10	O	-0.037507	2.359392	0.964829
O11	O	-0.617589	2.133927	0.366216
O12	O	-0.117589	2.633927	0.866216
O13	O	-0.170101	1.942203	0.536179
O14	O	0.329899	2.442203	1.036179
O15	O	-0.476373	1.760870	0.190379
O16	O	0.023627	2.260870	0.690379
O17	O	-0.407897	2.145646	0.520425
O18	O	0.092103	2.645646	1.020425
O19	O	-0.656547	1.915016	0.178442
O20	O	-0.156547	2.415016	0.678442
O21	O	-0.199619	1.776337	0.393906
O22	O	0.300381	2.276337	0.893906
O23	O	-0.473335	1.573071	0.409350
O24	O	0.026665	2.073071	0.909350
O25	O	-0.889004	1.788368	0.547570
O26	O	-0.389004	2.288368	1.047570
O27	O	-0.651208	1.584924	0.563324
O28	O	-0.151208	2.084924	1.063324
O29	O	-0.891306	1.930660	0.381659
O30	O	-0.391306	2.430660	0.881659
O31	O	-0.404860	1.957847	0.739396
O32	O	0.095140	2.457847	1.239396
O33	O	-0.612250	1.803835	0.751097
O34	O	-0.112250	2.303835	1.251097
C35	C	-0.566292	1.533483	0.489829
C36	C	-0.066292	2.033483	0.989829
C37	C	-0.578641	1.394060	0.500554
C38	C	-0.078641	1.894060	1.000554
C39	C	-0.503887	1.884357	0.790762
C40	C	-0.003887	2.384357	1.290762
C41	C	-0.489546	1.895152	0.930189
C42	C	0.010454	2.395152	1.430189
C43	C	-0.127621	1.859312	0.464972
C44	C	0.372379	2.359312	0.964972
C45	C	0.051011	1.859471	0.464701
C46	C	0.551011	2.359471	0.964701
C47	C	-0.508611	2.186573	0.439732
C48	C	-0.008611	2.686573	0.939732
C49	C	-0.496297	2.325999	0.429037
C50	C	0.003703	2.825999	0.929037
C51	C	-0.571291	1.834364	0.137619
C52	C	-0.071291	2.334364	0.637619
C53	C	-0.585687	1.823698	-0.001818
C54	C	-0.085687	2.323698	0.498182
H55	H	-0.658582	1.345663	0.570000
H56	H	-0.158582	1.845663	1.070000
O57	O	-0.709271	1.731730	0.934013
O58	O	-0.209271	2.231730	1.434013
H59	H	-0.701537	1.737411	0.830898
H60	H	-0.201537	2.237411	1.330898
O61	O	-0.365989	1.987142	0.994378
O62	O	0.134011	2.487142	1.494378
H63	H	-0.284543	1.935607	1.058511
H64	H	0.215457	2.435607	1.558511
O65	O	-0.390403	1.390084	0.337049
O66	O	0.109597	1.890084	0.837049
H67	H	-0.397009	1.493207	0.342765
H68	H	0.102991	1.993207	0.842765
