data_functionalizedCrystal
_audit_creation_method	'MofGen! by Chris Wilmer'
_symmetry_space_group_name_H-M	'P1'
_symmetry_Int_Tables_number	1
_symmetry_cell_setting	triclinic
loop_
_symmetry_equiv_pos_as_xyz
  x,y,z
_cell_length_a	19.121102
_cell_length_b	21.295411
_cell_length_c	19.121063
_cell_angle_alpha	92.420548
_cell_angle_beta	90.126902
_cell_angle_gamma	87.537204
loop_
_atom_site_label
_atom_site_type_symbol
_atom_site_fract_x
_atom_site_fract_y
_atom_site_fract_z
Zn1	Zn	1.059887	-0.408812	-0.324993
Zn2	Zn	1.054784	-0.307825	-0.442209
Zn3	Zn	0.942639	-0.298888	-0.319983
Zn4	Zn	0.937611	-0.408390	-0.437183
O5	O	0.998730	-0.355979	-0.381092
O6	O	1.157315	-0.399332	-0.344742
O7	O	1.039876	-0.218549	-0.426002
O8	O	0.962432	-0.309906	-0.222543
O9	O	1.153566	-0.325138	-0.430860
O10	O	1.048573	-0.390666	-0.226224
O11	O	0.957484	-0.211983	-0.336203
O12	O	0.843867	-0.309497	-0.331329
O13	O	0.953863	-0.496537	-0.422294
O14	O	0.840173	-0.389948	-0.417436
O15	O	1.043698	-0.496846	-0.339868
O16	O	1.035001	-0.324729	-0.539647
O17	O	0.948915	-0.398614	-0.535954
C18	C	0.816582	-0.348708	-0.373294
C19	C	0.738658	-0.345613	-0.369975
C20	C	0.700141	-0.385984	-0.413314
C21	C	0.626923	-0.383079	-0.410186
C22	C	0.592223	-0.339798	-0.363722
C23	C	0.630745	-0.299425	-0.320378
C24	C	0.703962	-0.302334	-0.323503
C25	C	0.371252	-0.328925	-0.352038
C26	C	0.298030	-0.326018	-0.348918
C27	C	0.294213	-0.409673	-0.438725
C28	C	0.367431	-0.412576	-0.441849
C29	C	0.405947	-0.372205	-0.398502
C30	C	0.517383	-0.336826	-0.360525
C31	C	0.480786	-0.375180	-0.401696
C32	C	0.998789	-0.520171	-0.381080
C33	C	0.998814	-0.590140	-0.381074
C34	C	1.045589	-0.623169	-0.338153
C35	C	1.045590	-0.688910	-0.338123
C36	C	0.998822	-0.721621	-0.381026
C37	C	0.952037	-0.688584	-0.423950
C38	C	0.952034	-0.622843	-0.423974
N39	N	0.990800	-0.826867	-0.442125
N40	N	0.990807	-0.889317	-0.442100
C41	C	0.998829	-0.919693	-0.380955
N42	N	1.006856	-0.885260	-0.319835
N43	N	1.006852	-0.822803	-0.319861
C44	C	0.998820	-0.792905	-0.381005
C45	C	1.045607	-1.024006	-0.337998
C46	C	1.045603	-1.089749	-0.337966
C47	C	0.952054	-1.089422	-0.423800
C48	C	0.952055	-1.023680	-0.423825
C49	C	0.998835	-0.990977	-0.380925
C50	C	1.181589	-0.363279	-0.388921
C51	C	1.259513	-0.366390	-0.392257
C52	C	0.990878	-0.362610	-0.563238
C53	C	0.987582	-0.365471	-0.641164
C54	C	0.998714	-0.192425	-0.381055
C55	C	0.998833	-0.122455	-0.380869
C56	C	1.030889	-0.328381	-0.679675
C57	C	1.027794	-0.331075	-0.752894
C58	C	0.981388	-0.370856	-0.787602
C59	C	0.938079	-0.407950	-0.749086
C60	C	0.941179	-0.405258	-0.675868
C61	C	0.969790	-0.380908	-1.008578
C62	C	0.966693	-0.383595	-1.081802
C63	C	1.056409	-0.306721	-1.085605
C64	C	1.059501	-0.304031	-1.012385
C65	C	1.016195	-0.341127	-0.973876
C66	C	0.978222	-0.373609	-0.862444
C67	C	1.019365	-0.338376	-0.899035
C68	C	1.006633	-0.349336	-0.198235
C69	C	1.010000	-0.346505	-0.120312
H70	H	0.489122	-0.301585	-0.322695
Cl71	Cl	1.117853	-0.254028	-0.968758
H72	H	1.057152	-0.305989	-0.870774
H73	H	0.913970	-0.996788	-0.458780
H74	H	1.068675	-0.295985	-0.651421
H75	H	1.063059	-0.300873	-0.784246
H76	H	0.509042	-0.410422	-0.439524
H77	H	0.913968	-1.116054	-0.458725
Cl78	Cl	1.104384	-0.730439	-0.284146
Cl79	Cl	1.110852	-0.260094	-1.134020
H80	H	0.602487	-0.264187	-0.282543
Cl81	Cl	0.893241	-0.729705	-0.477883
Cl82	Cl	0.908341	-0.433600	-1.125433
H83	H	0.728388	-0.421226	-0.451153
Cl84	Cl	0.919884	-0.423617	-0.906083
H85	H	0.735322	-0.269462	-0.288207
H86	H	0.402602	-0.296048	-0.316747
H87	H	0.595566	-0.415953	-0.445479
H88	H	0.913941	-0.595952	-0.458925
H89	H	0.900298	-0.440343	-0.777351
Cl90	Cl	0.411048	-0.466986	-0.500266
Cl91	Cl	0.245789	-0.460421	-0.493216
Cl92	Cl	0.254408	-0.271599	-0.290506
H93	H	1.083681	-0.596545	-0.303220
Cl94	Cl	1.104412	-0.982890	-0.284064
Cl95	Cl	1.104422	-1.131272	-0.284014
H96	H	0.905914	-0.435461	-0.644513
H97	H	0.934527	-0.411111	-0.977230
