data_functionalizedCrystal
_audit_creation_method	'MofGen! by Chris Wilmer'
_symmetry_space_group_name_H-M	'P1'
_symmetry_Int_Tables_number	1
_symmetry_cell_setting	triclinic
loop_
_symmetry_equiv_pos_as_xyz
  x,y,z
_cell_length_a	10.685980
_cell_length_b	12.759400
_cell_length_c	10.686551
_cell_angle_alpha	85.594162
_cell_angle_beta	81.591741
_cell_angle_gamma	94.381445
loop_
_atom_site_label
_atom_site_type_symbol
_atom_site_fract_x
_atom_site_fract_y
_atom_site_fract_z
Zn1	Zn	1.995789	-0.235485	-0.866704
Zn2	Zn	1.979368	-0.425815	-0.654441
Zn3	Zn	1.767217	-0.264726	-0.638169
Zn4	Zn	1.783492	-0.425713	-0.850351
O5	O	1.881466	-0.337935	-0.752416
O6	O	2.171244	-0.248538	-0.852201
O7	O	1.937542	-0.416726	-0.474650
O8	O	1.797599	-0.113820	-0.668518
O9	O	2.159180	-0.388372	-0.696252
O10	O	1.965530	-0.092337	-0.836422
O11	O	1.781675	-0.298375	-0.462695
O12	O	1.591742	-0.298276	-0.652661
O13	O	1.825337	-0.388198	-1.030153
O14	O	1.603699	-0.416552	-0.808551
O15	O	1.981311	-0.248439	-1.042167
O16	O	1.953323	-0.572828	-0.680395
O17	O	1.809414	-0.572753	-0.824330
C18	C	1.551662	-0.360577	-0.727067
C19	C	1.410573	-0.370287	-0.716252
C20	C	1.881389	-0.610909	-0.752384
C21	C	1.881475	-0.727678	-0.752422
C22	C	1.956506	-0.782532	-0.677572
C23	C	1.956587	-0.892248	-0.677617
C24	C	1.806596	-0.892247	-0.827365
C25	C	1.806523	-0.782532	-0.827325
C26	C	2.031458	-0.727678	-0.602668
C27	C	2.106494	-0.782532	-0.527811
C28	C	2.106575	-0.892248	-0.527856
C29	C	2.031620	-0.947110	-0.602758
C30	C	2.212558	-0.315205	-0.777866
C31	C	2.353650	-0.305519	-0.788711
C32	C	1.906971	-0.315045	-1.083506
C33	C	1.917840	-0.305291	-1.224596
C34	C	1.881581	-0.063890	-0.752479
C35	C	1.881629	0.052891	-0.752506
C36	C	1.856134	-0.360654	-0.422621
C37	C	1.845511	-0.370095	-0.281550
H38	H	1.412853	-0.242633	-0.859017
H39	H	2.031397	-0.638342	-0.602619
F40	F	2.186444	-0.950623	-0.448199
H41	H	1.351363	-0.433170	-0.645933
F42	F	2.186272	-0.724141	-0.448110
F43	F	2.031269	-1.063936	-0.602360
H44	H	1.745570	-0.936924	-0.888345
H45	H	1.988089	-0.242347	-1.283781
F46	F	1.753706	-0.452374	-1.204203
F47	F	1.726669	-0.724149	-0.906992
