data_functionalizedCrystal
_audit_creation_method	'MofGen! by Chris Wilmer'
_symmetry_space_group_name_H-M	'P1'
_symmetry_Int_Tables_number	1
_symmetry_cell_setting	triclinic
loop_
_symmetry_equiv_pos_as_xyz
  x,y,z
_cell_length_a	18.215407
_cell_length_b	18.215405
_cell_length_c	18.215399
_cell_angle_alpha	90.030551
_cell_angle_beta	90.019833
_cell_angle_gamma	90.025333
loop_
_atom_site_label
_atom_site_type_symbol
_atom_site_fract_x
_atom_site_fract_y
_atom_site_fract_z
Zn1	Zn	1.125072	-0.292983	0.416103
Zn2	Zn	1.375072	-0.042983	0.666103
Zn3	Zn	1.625072	0.207017	0.916103
Zn4	Zn	1.875072	0.457017	1.166103
Zn5	Zn	1.124980	-0.416054	0.293031
Zn6	Zn	1.374980	-0.166054	0.543031
Zn7	Zn	1.624980	0.083946	0.793031
Zn8	Zn	1.874980	0.333946	1.043031
Zn9	Zn	1.002005	-0.293007	0.293050
Zn10	Zn	1.252005	-0.043007	0.543050
Zn11	Zn	1.502005	0.206993	0.793050
Zn12	Zn	1.752005	0.456993	1.043050
Zn13	Zn	1.001970	-0.416013	0.416056
Zn14	Zn	1.251970	-0.166013	0.666056
Zn15	Zn	1.501970	0.083987	0.916056
Zn16	Zn	1.751970	0.333987	1.166056
O17	O	1.063507	-0.354514	0.354560
O18	O	1.313507	-0.104514	0.604560
O19	O	1.563507	0.145486	0.854560
O20	O	1.813507	0.395486	1.104560
O21	O	1.228044	-0.309316	0.399788
O22	O	1.478044	-0.059316	0.649788
O23	O	1.728044	0.190684	0.899788
O24	O	1.978044	0.440684	1.149788
O25	O	1.108643	-0.399759	0.190049
O26	O	1.358643	-0.149759	0.440049
O27	O	1.608643	0.100241	0.690049
O28	O	1.858643	0.350241	0.940049
O29	O	1.018382	-0.190020	0.309401
O30	O	1.268382	0.059980	0.559401
O31	O	1.518382	0.309980	0.809401
O32	O	1.768382	0.559980	1.059401
O33	O	1.227977	-0.399736	0.309368
O34	O	1.477977	-0.149736	0.559368
O35	O	1.727977	0.100264	0.809368
O36	O	1.977977	0.350264	1.059368
O37	O	1.108799	-0.190002	0.399807
O38	O	1.358799	0.059998	0.649807
O39	O	1.608799	0.309998	0.899807
O40	O	1.858799	0.559998	1.149807
O41	O	1.018293	-0.309357	0.190063
O42	O	1.268293	-0.059357	0.440063
O43	O	1.518293	0.190643	0.690063
O44	O	1.768293	0.440643	0.940063
O45	O	0.899016	-0.309317	0.309355
O46	O	1.149016	-0.059317	0.559355
O47	O	1.399016	0.190683	0.809355
O48	O	1.649016	0.440683	1.059355
O49	O	1.018324	-0.399666	0.519046
O50	O	1.268324	-0.149666	0.769046
O51	O	1.518324	0.100334	1.019046
O52	O	1.768324	0.350334	1.269046
O53	O	0.898991	-0.399689	0.399727
O54	O	1.148991	-0.149689	0.649727
O55	O	1.398991	0.100311	0.899727
O56	O	1.648991	0.350311	1.149727
O57	O	1.108766	-0.309276	0.519081
O58	O	1.358766	-0.059276	0.769081
O59	O	1.608766	0.190724	1.019081
O60	O	1.858766	0.440724	1.269081
O61	O	1.108610	-0.519033	0.309322
O62	O	1.358610	-0.269033	0.559322
O63	O	1.608610	-0.019033	0.809322
O64	O	1.858610	0.230967	1.059322
O65	O	1.018235	-0.519003	0.399708
O66	O	1.268235	-0.269003	0.649708
O67	O	1.518235	-0.019003	0.899708
O68	O	1.768235	0.230997	1.149708
C69	C	0.872301	-0.354502	0.354539
C70	C	1.122301	-0.104502	0.604539
C71	C	1.372301	0.145498	0.854539
C72	C	1.622301	0.395498	1.104539
C73	C	0.790502	-0.354514	0.354547
C74	C	1.040502	-0.104514	0.604547
C75	C	1.290502	0.145486	0.854547
C76	C	1.540502	0.395486	1.104547
C77	C	0.602314	-0.401645	0.401544
C78	C	0.852314	-0.151645	0.651544
C79	C	1.102314	0.098355	0.901544
C80	C	1.352314	0.348355	1.151544
C81	C	0.525455	-0.401647	0.401554
C82	C	0.775455	-0.151647	0.651554
C83	C	1.025455	0.098353	0.901554
C84	C	1.275455	0.348353	1.151554
C85	C	0.525452	-0.307397	0.307591
C86	C	0.775452	-0.057397	0.557591
C87	C	1.025452	0.192603	0.807591
C88	C	1.275452	0.442603	1.057591
C89	C	0.602309	-0.307392	0.307586
C90	C	0.852309	-0.057392	0.557586
C91	C	1.102309	0.192608	0.807586
C92	C	1.352309	0.442608	1.057586
C93	C	0.640738	-0.354520	0.354562
C94	C	0.890738	-0.104520	0.604562
C95	C	1.140738	0.145480	0.854562
C96	C	1.390738	0.395480	1.104562
C97	C	0.487022	-0.354528	0.354576
C98	C	0.737022	-0.104528	0.604576
C99	C	0.987022	0.145472	0.854576
C100	C	1.237022	0.395472	1.104576
C101	C	0.403688	-0.354530	0.354585
C102	C	0.653688	-0.104530	0.604585
C103	C	0.903688	0.145470	0.854585
C104	C	1.153688	0.395470	1.104585
C105	C	0.724077	-0.354517	0.354553
C106	C	0.974077	-0.104517	0.604553
C107	C	1.224077	0.145483	0.854553
C108	C	1.474077	0.395483	1.104553
C109	C	1.063429	-0.545721	0.354524
C110	C	1.313429	-0.295721	0.604524
C111	C	1.563429	-0.045721	0.854524
C112	C	1.813429	0.204279	1.104524
C113	C	1.063463	-0.627520	0.354534
C114	C	1.313463	-0.377520	0.604534
C115	C	1.563463	-0.127520	0.854534
C116	C	1.813463	0.122480	1.104534
C117	C	1.110632	-0.815705	0.307556
C118	C	1.360632	-0.565705	0.557556
C119	C	1.610632	-0.315705	0.807556
C120	C	1.860632	-0.065705	1.057556
C121	C	1.110665	-0.892563	0.307574
C122	C	1.360665	-0.642563	0.557574
C123	C	1.610665	-0.392563	0.807574
C124	C	1.860665	-0.142563	1.057574
C125	C	1.016476	-0.892572	0.401616
C126	C	1.266476	-0.642572	0.651616
C127	C	1.516476	-0.392572	0.901616
C128	C	1.766476	-0.142572	1.151616
C129	C	1.016447	-0.815715	0.401601
C130	C	1.266447	-0.565715	0.651601
C131	C	1.516447	-0.315715	0.901601
C132	C	1.766447	-0.065715	1.151601
C133	C	1.063524	-0.777283	0.354567
C134	C	1.313524	-0.527283	0.604567
C135	C	1.563524	-0.277283	0.854567
C136	C	1.813524	-0.027283	1.104567
C137	C	1.063586	-0.930999	0.354600
C138	C	1.313586	-0.680999	0.604600
C139	C	1.563586	-0.430999	0.854600
C140	C	1.813586	-0.180999	1.104600
C141	C	1.063621	-1.014333	0.354619
C142	C	1.313621	-0.764333	0.604619
C143	C	1.563621	-0.514333	0.854619
C144	C	1.813621	-0.264333	1.104619
C145	C	1.063490	-0.693944	0.354548
C146	C	1.313490	-0.443944	0.604548
C147	C	1.563490	-0.193944	0.854548
C148	C	1.813490	0.056056	1.104548
C149	C	1.255460	-0.354528	0.354581
C150	C	1.505460	-0.104528	0.604581
C151	C	1.755460	0.145472	0.854581
C152	C	2.005460	0.395472	1.104581
C153	C	1.337259	-0.354533	0.354591
C154	C	1.587259	-0.104533	0.604591
C155	C	1.837259	0.145467	0.854591
C156	C	2.087259	0.395467	1.104591
C157	C	1.063552	-0.354464	0.546513
C158	C	1.313552	-0.104464	0.796513
C159	C	1.563552	0.145536	1.046513
C160	C	1.813552	0.395536	1.296513
C161	C	1.063571	-0.354442	0.628312
C162	C	1.313571	-0.104442	0.878312
C163	C	1.563571	0.145558	1.128312
C164	C	1.813571	0.395558	1.378312
C165	C	1.063605	-0.162561	0.354611
C166	C	1.313605	0.087439	0.604611
C167	C	1.563605	0.337439	0.854611
C168	C	1.813605	0.587439	1.104611
C169	C	1.063647	-0.080763	0.354633
C170	C	1.313647	0.169237	0.604633
C171	C	1.563647	0.419237	0.854633
C172	C	1.813647	0.669237	1.104633
C173	C	1.063504	-0.354512	0.163353
C174	C	1.313504	-0.104512	0.413353
C175	C	1.563504	0.145488	0.663353
C176	C	1.813504	0.395488	0.913353
C177	C	1.063628	-0.354326	0.081555
C178	C	1.313628	-0.104326	0.331555
C179	C	1.563628	0.145674	0.581555
C180	C	1.813628	0.395674	0.831555
C181	C	1.110681	-0.307332	0.816525
C182	C	1.360681	-0.057332	1.066525
C183	C	1.610681	0.192668	1.316525
C184	C	1.860681	0.442668	1.566525
C185	C	1.110690	-0.307311	0.893384
C186	C	1.360690	-0.057311	1.143384
C187	C	1.610690	0.192689	1.393384
C188	C	1.860690	0.442689	1.643384
C189	C	1.016513	-0.401438	0.893336
C190	C	1.266513	-0.151438	1.143336
C191	C	1.516513	0.098562	1.393336
C192	C	1.766513	0.348562	1.643336
C193	C	1.016501	-0.401455	0.816479
C194	C	1.266501	-0.151455	1.066479
C195	C	1.516501	0.098545	1.316479
C196	C	1.766501	0.348545	1.566479
C197	C	1.063589	-0.354403	0.778075
C198	C	1.313589	-0.104403	1.028075
C199	C	1.563589	0.145597	1.278075
C200	C	1.813589	0.395597	1.528075
C201	C	1.063610	-0.354365	0.931791
C202	C	1.313610	-0.104365	1.181791
C203	C	1.563610	0.145635	1.431791
C204	C	1.813610	0.395635	1.681791
C205	C	1.063619	-0.354342	1.015125
C206	C	1.313619	-0.104342	1.265125
C207	C	1.563619	0.145658	1.515125
C208	C	1.813619	0.395658	1.765125
C209	C	1.063579	-0.354425	0.694736
C210	C	1.313579	-0.104425	0.944736
C211	C	1.563579	0.145575	1.194736
C212	C	1.813579	0.395575	1.444736
H213	H	0.494153	-0.269028	0.269344
H214	H	0.744153	-0.019028	0.519344
H215	H	0.994153	0.230972	0.769344
H216	H	1.244153	0.480972	1.019344
H217	H	0.978146	-0.923873	0.439908
H218	H	1.228146	-0.673873	0.689908
H219	H	1.478146	-0.423873	0.939908
H220	H	1.728146	-0.173873	1.189908
O221	O	0.965628	-0.774277	0.452309
O222	O	1.215628	-0.524277	0.702309
O223	O	1.465628	-0.274277	0.952309
O224	O	1.715628	-0.024277	1.202309
H225	H	0.998528	-0.739211	0.489782
H226	H	1.248528	-0.489211	0.739782
H227	H	1.498528	-0.239211	0.989782
H228	H	1.748528	0.010789	1.239782
H229	H	0.633601	-0.440018	0.439797
H230	H	0.883601	-0.190018	0.689797
H231	H	1.133601	0.059982	0.939797
H232	H	1.383601	0.309982	1.189797
H233	H	0.633595	-0.269012	0.269327
H234	H	0.883595	-0.019012	0.519327
H235	H	1.133595	0.230988	0.769327
H236	H	1.383595	0.480988	1.019327
O237	O	1.161485	-0.256546	0.934857
O238	O	1.411485	-0.006546	1.184857
O239	O	1.661485	0.243454	1.434857
O240	O	1.911485	0.493454	1.684857
H241	H	1.194228	-0.223837	0.895238
H242	H	1.444228	0.026163	1.145238
H243	H	1.694228	0.276163	1.395238
H244	H	1.944228	0.526163	1.645238
O245	O	0.965704	-0.452220	0.774994
O246	O	1.215704	-0.202220	1.024994
O247	O	1.465704	0.047780	1.274994
O248	O	1.715704	0.297780	1.524994
H249	H	0.928278	-0.419272	0.739990
H250	H	1.178278	-0.169272	0.989990
H251	H	1.428278	0.080728	1.239990
H252	H	1.678278	0.330728	1.489990
O253	O	1.161460	-0.256581	0.775100
O254	O	1.411460	-0.006581	1.025100
O255	O	1.661460	0.243419	1.275100
O256	O	1.911460	0.493419	1.525100
H257	H	1.194202	-0.223841	0.814752
H258	H	1.444202	0.026159	1.064752
H259	H	1.694202	0.276159	1.314752
H260	H	1.944202	0.526159	1.564752
O261	O	0.483970	-0.452477	0.452193
O262	O	0.733970	-0.202477	0.702193
O263	O	0.983970	0.047523	0.952193
O264	O	1.233970	0.297523	1.202193
H265	H	0.448928	-0.489845	0.419148
H266	H	0.698928	-0.239845	0.669148
H267	H	0.948928	0.010155	0.919148
H268	H	1.198928	0.260155	1.169148
O269	O	1.161413	-0.774250	0.256839
O270	O	1.411413	-0.524250	0.506839
O271	O	1.661413	-0.274250	0.756839
O272	O	1.911413	-0.024250	1.006839
H273	H	1.194182	-0.813882	0.224159
H274	H	1.444182	-0.563882	0.474159
H275	H	1.694182	-0.313882	0.724159
H276	H	1.944182	-0.063882	0.974159
H277	H	0.978177	-0.439748	0.924614
H278	H	1.228177	-0.189748	1.174614
H279	H	1.478177	0.060252	1.424614
H280	H	1.728177	0.310252	1.674614
O281	O	1.161479	-0.934008	0.256877
O282	O	1.411479	-0.684008	0.506877
O283	O	1.661479	-0.434008	0.756877
O284	O	1.911479	-0.184008	1.006877
H285	H	1.128582	-0.969090	0.219416
H286	H	1.378582	-0.719090	0.469416
H287	H	1.628582	-0.469090	0.719416
H288	H	1.878582	-0.219090	0.969416
