data_functionalizedCrystal
_audit_creation_method	'MofGen! by Chris Wilmer'
_symmetry_space_group_name_H-M	'P1'
_symmetry_Int_Tables_number	1
_symmetry_cell_setting	triclinic
loop_
_symmetry_equiv_pos_as_xyz
  x,y,z
_cell_length_a	14.971506
_cell_length_b	14.519731
_cell_length_c	12.996460
_cell_angle_alpha	89.998729
_cell_angle_beta	89.993480
_cell_angle_gamma	83.655621
loop_
_atom_site_label
_atom_site_type_symbol
_atom_site_fract_x
_atom_site_fract_y
_atom_site_fract_z
O1	O	1.187013	0.120263	-0.085576
O2	O	1.437013	0.370263	0.164424
O3	O	1.687013	0.620263	0.414424
O4	O	1.937013	0.870263	0.664424
O5	O	0.926624	0.134636	-0.085577
O6	O	1.176624	0.384636	0.164423
O7	O	1.426624	0.634636	0.414423
O8	O	1.676624	0.884636	0.664423
O9	O	1.063713	-0.006791	-0.085567
O10	O	1.313713	0.243209	0.164433
O11	O	1.563713	0.493209	0.414433
O12	O	1.813713	0.743209	0.664433
O13	O	1.049925	0.261690	-0.085586
O14	O	1.299925	0.511690	0.164414
O15	O	1.549925	0.761690	0.414414
O16	O	1.799925	1.011690	0.664414
O17	O	1.063695	-0.006783	0.085566
O18	O	1.313695	0.243217	0.335566
O19	O	1.563695	0.493217	0.585566
O20	O	1.813695	0.743217	0.835566
O21	O	0.926607	0.134644	0.085557
O22	O	1.176607	0.384644	0.335557
O23	O	1.426607	0.634644	0.585557
O24	O	1.676607	0.884644	0.835557
O25	O	1.186995	0.120271	0.085557
O26	O	1.436995	0.370271	0.335557
O27	O	1.686995	0.620271	0.585557
O28	O	1.936995	0.870271	0.835557
Cu29	Cu	1.056799	0.127458	0.101183
Cu30	Cu	1.306799	0.377458	0.351183
Cu31	Cu	1.556799	0.627458	0.601183
Cu32	Cu	1.806799	0.877458	0.851183
Cu33	Cu	1.056820	0.127449	-0.101203
Cu34	Cu	1.306820	0.377449	0.148797
Cu35	Cu	1.556820	0.627449	0.398797
Cu36	Cu	1.806820	0.877449	0.648797
O37	O	1.049907	0.261698	0.085548
O38	O	1.299907	0.511698	0.335548
O39	O	1.549907	0.761698	0.585548
O40	O	1.799907	1.011698	0.835548
C41	C	0.893291	0.133994	-0.000010
C42	C	1.143291	0.383994	0.249990
C43	C	1.393291	0.633994	0.499990
C44	C	1.643291	0.883994	0.749990
C45	C	0.793993	0.132057	-0.000010
C46	C	1.043993	0.382057	0.249990
C47	C	1.293993	0.632057	0.499990
C48	C	1.543993	0.882057	0.749990
C49	C	0.355759	0.207754	-0.000026
C50	C	0.605759	0.457754	0.249974
C51	C	0.855759	0.707754	0.499974
C52	C	1.105759	0.957754	0.749974
C53	C	0.449060	0.209566	-0.000031
C54	C	0.699060	0.459566	0.249969
C55	C	0.949060	0.709566	0.499969
C56	C	1.199060	0.959566	0.749969
C57	C	0.506227	0.126473	-0.000020
C58	C	0.756227	0.376473	0.249980
C59	C	1.006227	0.626473	0.499980
C60	C	1.256227	0.876473	0.749980
C61	C	0.470089	0.041561	-0.000016
C62	C	0.720089	0.291561	0.249984
C63	C	0.970089	0.541561	0.499984
C64	C	1.220089	0.791561	0.749984
C65	C	0.376789	0.039750	-0.000019
C66	C	0.626789	0.289750	0.249981
C67	C	0.876789	0.539750	0.499981
C68	C	1.126789	0.789750	0.749981
C69	C	0.664554	0.045342	-0.000007
C70	C	0.914554	0.295342	0.249993
C71	C	1.164554	0.545342	0.499993
C72	C	1.414554	0.795342	0.749993
C73	C	0.757861	0.047153	-0.000003
C74	C	1.007861	0.297153	0.249997
C75	C	1.257861	0.547153	0.499997
C76	C	1.507861	0.797153	0.749997
C77	C	0.736826	0.215158	-0.000020
C78	C	0.986826	0.465158	0.249980
C79	C	1.236826	0.715158	0.499980
C80	C	1.486826	0.965158	0.749980
C81	C	0.643526	0.213347	-0.000022
C82	C	0.893526	0.463347	0.249978
C83	C	1.143526	0.713347	0.499978
C84	C	1.393526	0.963347	0.749978
C85	C	0.607394	0.128435	-0.000016
C86	C	0.857394	0.378435	0.249984
C87	C	1.107394	0.628435	0.499984
C88	C	1.357394	0.878435	0.749984
C89	C	1.063058	-0.041146	-0.000000
C90	C	1.313058	0.208854	0.250000
C91	C	1.563058	0.458854	0.500000
C92	C	1.813058	0.708854	0.750000
C93	C	1.061122	-0.143526	0.000000
C94	C	1.311122	0.106474	0.250000
C95	C	1.561122	0.356474	0.500000
C96	C	1.811122	0.606474	0.750000
C97	C	1.059549	-0.226669	-0.000002
C98	C	1.309549	0.023331	0.249998
C99	C	1.559549	0.273331	0.499998
C100	C	1.809549	0.523331	0.749998
C101	C	1.057583	-0.330977	-0.000010
C102	C	1.307583	-0.080977	0.249990
C103	C	1.557583	0.169023	0.499990
C104	C	1.807583	0.419023	0.749990
C105	C	1.056023	-0.414115	-0.000017
C106	C	1.306023	-0.164115	0.249983
C107	C	1.556023	0.085885	0.499983
C108	C	1.806023	0.335885	0.749983
C109	C	1.054058	-0.518429	-0.000022
C110	C	1.304058	-0.268429	0.249978
C111	C	1.554058	-0.018429	0.499978
C112	C	1.804058	0.231571	0.749978
C113	C	1.220329	0.120913	-0.000012
C114	C	1.470329	0.370913	0.249988
C115	C	1.720329	0.620913	0.499988
C116	C	1.970329	0.870913	0.749988
C117	C	1.319626	0.122849	-0.000019
C118	C	1.569626	0.372849	0.249981
C119	C	1.819626	0.622849	0.499981
C120	C	2.069626	0.872849	0.749981
C121	C	1.050562	0.296053	-0.000022
C122	C	1.300562	0.546053	0.249978
C123	C	1.550562	0.796053	0.499978
C124	C	1.800562	1.046053	0.749978
C125	C	1.052498	0.398432	-0.000029
C126	C	1.302498	0.648432	0.249971
C127	C	1.552498	0.898432	0.499971
C128	C	1.802498	1.148432	0.749971
N129	N	1.056791	0.127465	0.243530
N130	N	1.306791	0.377465	0.493530
N131	N	1.556791	0.627465	0.743530
N132	N	1.806791	0.877465	0.993530
N133	N	1.056836	0.127435	-0.243550
N134	N	1.306836	0.377435	0.006450
N135	N	1.556836	0.627435	0.256450
N136	N	1.806836	0.877435	0.506450
C137	C	1.056795	0.127467	0.336636
C138	C	1.306795	0.377467	0.586636
C139	C	1.556795	0.627467	0.836636
C140	C	1.806795	0.877467	1.086636
C141	C	1.056803	0.127461	0.453441
C142	C	1.306803	0.377461	0.703441
C143	C	1.556803	0.627461	0.953441
C144	C	1.806803	0.877461	1.203441
C145	C	1.056815	0.127450	0.546539
C146	C	1.306815	0.377450	0.796539
C147	C	1.556815	0.627450	1.046539
C148	C	1.806815	0.877450	1.296539
C149	C	1.056824	0.127445	0.663352
C150	C	1.306824	0.377445	0.913352
C151	C	1.556824	0.627445	1.163352
C152	C	1.806824	0.877445	1.413352
H153	H	0.478475	0.278704	-0.000046
H154	H	0.728475	0.528704	0.249954
H155	H	0.978475	0.778704	0.499954
H156	H	1.228475	1.028704	0.749954
H157	H	0.347372	-0.029388	-0.000014
H158	H	0.597372	0.220612	0.249986
H159	H	0.847372	0.470612	0.499986
H160	H	1.097372	0.720612	0.749986
Cl161	Cl	0.541956	-0.062900	-0.000005
Cl162	Cl	0.791956	0.187100	0.249995
Cl163	Cl	1.041956	0.437100	0.499995
Cl164	Cl	1.291956	0.687100	0.749995
H165	H	0.309219	0.275419	-0.000027
H166	H	0.559219	0.525419	0.249973
H167	H	0.809219	0.775419	0.499973
H168	H	1.059219	1.025419	0.749973
H169	H	0.596982	0.281009	-0.000024
H170	H	0.846982	0.531009	0.249976
H171	H	1.096982	0.781009	0.499976
H172	H	1.346982	1.031009	0.749976
H173	H	0.635140	-0.023802	-0.000007
H174	H	0.885140	0.226198	0.249993
H175	H	1.135140	0.476198	0.499993
H176	H	1.385140	0.726198	0.749993
H177	H	0.766248	0.284296	-0.000024
H178	H	1.016248	0.534296	0.249976
H179	H	1.266248	0.784296	0.499976
H180	H	1.516248	1.034296	0.749976
H181	H	0.804404	-0.020510	-0.000003
H182	H	1.054404	0.229490	0.249997
H183	H	1.304404	0.479490	0.499997
H184	H	1.554404	0.729490	0.749997
