data_functionalizedCrystal
_audit_creation_method	'MofGen! by Chris Wilmer'
_symmetry_space_group_name_H-M	'P1'
_symmetry_Int_Tables_number	1
_symmetry_cell_setting	triclinic
loop_
_symmetry_equiv_pos_as_xyz
  x,y,z
_cell_length_a	15.944493
_cell_length_b	15.021413
_cell_length_c	12.837942
_cell_angle_alpha	89.994069
_cell_angle_beta	90.848008
_cell_angle_gamma	89.992483
loop_
_atom_site_label
_atom_site_type_symbol
_atom_site_fract_x
_atom_site_fract_y
_atom_site_fract_z
O1	O	1.125231	-0.074020	-0.133392
O2	O	0.881999	-0.074024	-0.149937
O3	O	0.998221	-0.074016	0.009237
O4	O	1.009008	-0.074027	-0.292566
O5	O	0.998201	0.074048	0.009212
O6	O	0.881978	0.074040	-0.149963
O7	O	1.125211	0.074044	-0.133417
Zn8	Zn	1.003591	0.097551	-0.141694
Zn9	Zn	1.003618	-0.097530	-0.141661
O10	O	1.008988	0.074037	-0.292592
C11	C	0.850639	0.000008	-0.149274
C12	C	0.757229	0.000006	-0.147247
C13	C	0.528964	0.000002	-0.240940
C14	C	0.474353	0.073011	-0.190428
C15	C	0.586207	0.000008	-0.143490
C16	C	0.474376	-0.072969	-0.190379
C17	C	0.421008	0.000006	-0.139868
C18	C	0.532827	0.073077	-0.093003
C19	C	0.532854	-0.072968	-0.092969
C20	C	0.478271	0.000059	-0.042385
C21	C	0.681374	0.000010	-0.145579
C22	C	0.325843	0.000010	-0.137772
N23	N	1.003579	0.230688	-0.141717
C24	C	0.949822	0.470368	-0.215289
C25	C	1.027332	0.529703	-0.235396
C26	C	1.003596	0.412295	-0.141694
C27	C	0.926106	0.529702	-0.121615
C28	C	1.003605	0.587719	-0.141675
C29	C	1.081148	0.470324	-0.161847
C30	C	0.979868	0.470317	-0.048026
C31	C	1.057430	0.529626	-0.068092
C32	C	1.003589	0.311238	-0.141708
C33	C	1.003621	0.688775	-0.141661
C34	C	1.156570	0.000011	-0.134081
C35	C	1.249981	0.000007	-0.136108
C36	C	0.994567	0.000015	0.047844
C37	C	0.983699	0.000013	0.162919
N38	N	1.003624	0.769332	-0.141650
C39	C	1.012642	0.000003	-0.331199
C40	C	1.023510	-0.000001	-0.446274
C41	C	1.114353	-0.000003	0.403902
C42	C	1.104145	-0.000005	0.512026
C43	C	0.953077	0.000002	0.487293
C44	C	0.963285	0.000004	0.379169
C45	C	1.043925	0.000003	0.337478
C46	C	1.054132	0.000011	0.229352
C47	C	0.903065	0.000011	0.204621
C48	C	0.892857	0.000009	0.312745
H49	H	0.551303	0.000067	-0.324884
H50	H	0.904403	0.444350	-0.277575
H51	H	0.456085	0.000104	0.041622
H52	H	1.102963	0.555481	-0.005844
H53	H	0.558519	-0.134691	-0.051835
H54	H	0.845718	0.000022	0.150526
H55	H	0.448700	0.134731	-0.231593
H56	H	0.558356	0.134862	-0.051884
H57	H	0.448740	-0.134683	-0.231543
H58	H	1.047411	0.555788	-0.314600
H59	H	1.119793	0.000013	0.195409
H60	H	0.887424	-0.000007	0.521258
H61	H	1.180013	0.000005	0.369957
H62	H	1.161495	-0.000012	0.566106
H63	H	0.959768	0.444212	0.031154
H64	H	1.146705	0.444351	-0.178917
H65	H	0.860570	0.555787	-0.104640
H66	H	0.827202	0.000007	0.346705
