data_functionalizedCrystal
_audit_creation_method	'MofGen! by Chris Wilmer'
_symmetry_space_group_name_H-M	'P1'
_symmetry_Int_Tables_number	1
_symmetry_cell_setting	triclinic
loop_
_symmetry_equiv_pos_as_xyz
  x,y,z
_cell_length_a	14.044220
_cell_length_b	8.559649
_cell_length_c	7.681481
_cell_angle_alpha	94.930900
_cell_angle_beta	83.746703
_cell_angle_gamma	81.483771
loop_
_atom_site_label
_atom_site_type_symbol
_atom_site_fract_x
_atom_site_fract_y
_atom_site_fract_z
O1	O	-1.220005	-0.394955	-0.146232
O2	O	-0.945035	-0.381202	-0.146277
O3	O	-1.106745	-0.158929	-0.146249
O4	O	-1.058295	-0.617228	-0.146260
O5	O	-1.126654	-0.131503	0.146613
O6	O	-0.964943	-0.353776	0.146584
O7	O	-1.239914	-0.367530	0.146629
Zn8	Zn	-1.105590	-0.356298	0.193105
Zn9	Zn	-1.079359	-0.392433	-0.192752
O10	O	-1.078204	-0.589802	0.146601
C11	C	-0.920113	-0.361467	0.000148
C12	C	-0.816193	-0.343505	0.000131
C13	C	-1.264836	-0.387265	0.000201
C14	C	-1.368754	-0.405228	0.000206
C15	C	-0.625925	-0.310660	0.000166
C16	C	-0.559018	-0.438066	0.000171
C17	C	-0.453146	-0.419790	0.000190
C18	C	-0.731807	-0.328933	0.000146
C19	C	-1.120371	-0.086210	0.000179
C20	C	-1.131300	0.089612	0.000171
C21	C	-1.064577	-0.662522	0.000169
C22	C	-1.053648	-0.838345	0.000166
N23	N	-1.123498	-0.331637	0.456442
N24	N	-1.061459	-0.417082	-0.456090
H25	H	-0.603695	-0.187869	0.000179
H26	H	-1.206148	0.162452	0.000198
H27	H	-0.978806	0.088825	0.000159
O28	O	-1.199171	-0.227768	0.546080
C29	C	-1.287175	-0.270727	0.501104
H30	H	-1.275095	-0.402122	0.450310
H31	H	-1.313825	-0.196890	0.394220
C32	C	-1.378463	-0.078524	0.727356
C33	C	-1.363627	-0.239908	0.664984
H34	H	-1.425624	-0.059507	0.828441
H35	H	-1.319174	-0.049577	0.757653
H36	H	-1.400667	-0.017012	0.638271
H37	H	-1.341412	-0.301416	0.754060
H38	H	-1.422915	-0.268865	0.634705
O39	O	-0.985984	-0.521347	0.454279
C40	C	-0.992987	-0.675868	0.499230
H41	H	-1.071485	-0.682529	0.550013
H42	H	-0.944848	-0.705049	0.606113
C43	C	-0.863213	-0.788061	0.272976
C44	C	-0.959627	-0.796246	0.335335
H45	H	-0.842631	-0.862318	0.171882
H46	H	-0.858492	-0.683958	0.242695
H47	H	-0.823109	-0.812375	0.362060
H48	H	-0.999731	-0.771913	0.246260
H49	H	-0.964354	-0.900349	0.365597
O50	O	-0.585688	-0.584466	0.000034
C51	C	-0.686993	-0.570366	0.000040
H52	H	-0.715070	-0.455340	-0.055358
H53	H	-0.723262	-0.568730	0.140523
C54	C	-0.676249	-0.853830	-0.046847
C55	C	-0.710732	-0.712559	-0.114903
H56	H	-0.690894	-0.941544	-0.117742
H57	H	-0.607998	-0.863331	-0.046845
H58	H	-0.706476	-0.852445	0.070221
H59	H	-0.680495	-0.713938	-0.231960
H60	H	-0.778979	-0.703061	-0.114927
