data_functionalizedCrystal
_audit_creation_method	'MofGen! by Chris Wilmer'
_symmetry_space_group_name_H-M	'P1'
_symmetry_Int_Tables_number	1
_symmetry_cell_setting	triclinic
loop_
_symmetry_equiv_pos_as_xyz
  x,y,z
_cell_length_a	12.759401
_cell_length_b	12.759400
_cell_length_c	12.759393
_cell_angle_alpha	89.969121
_cell_angle_beta	89.981504
_cell_angle_gamma	90.014805
loop_
_atom_site_label
_atom_site_type_symbol
_atom_site_fract_x
_atom_site_fract_y
_atom_site_fract_z
Zn1	Zn	1.606256	-0.418200	-0.593986
Zn2	Zn	1.606150	-0.593919	-0.418309
Zn3	Zn	1.430558	-0.418255	-0.418326
Zn4	Zn	1.430547	-0.593838	-0.593950
O5	O	1.518378	-0.506053	-0.506143
O6	O	1.753263	-0.441520	-0.570690
O7	O	1.582818	-0.570673	-0.271290
O8	O	1.453913	-0.271226	-0.441650
O9	O	1.753185	-0.570620	-0.441621
O10	O	1.582998	-0.271186	-0.570707
O11	O	1.453811	-0.441614	-0.271302
O12	O	1.283535	-0.441535	-0.441615
O13	O	1.453894	-0.570482	-0.740976
O14	O	1.283527	-0.570536	-0.570645
O15	O	1.582987	-0.441442	-0.741003
O16	O	1.582807	-0.740929	-0.441585
O17	O	1.453792	-0.740870	-0.570628
C18	C	1.245410	-0.506033	-0.506128
C19	C	1.128634	-0.506050	-0.506147
C20	C	1.073795	-0.573328	-0.573222
C21	C	0.964071	-0.573342	-0.573234
C22	C	0.964034	-0.438796	-0.439086
C23	C	1.073756	-0.438778	-0.439081
C24	C	1.073815	-0.651010	-0.650668
C25	C	0.964091	-0.651024	-0.650680
C26	C	1.518315	-0.779020	-0.506124
C27	C	1.518385	-0.895797	-0.506151
C28	C	1.585570	-0.950548	-0.573408
C29	C	1.585629	-1.060272	-0.573437
C30	C	1.451315	-1.060484	-0.438942
C31	C	1.451251	-0.950762	-0.438920
C32	C	1.623188	-1.210099	-0.697405
C33	C	1.690390	-1.264853	-0.764653
C34	C	1.792875	-1.229145	-0.780863
C35	C	1.828179	-1.138683	-0.729811
C36	C	1.760984	-1.083934	-0.662555
C37	C	1.658484	-1.119641	-0.646364
C38	C	1.413703	-0.800934	-0.314950
C39	C	1.346512	-0.746182	-0.247688
C40	C	1.244025	-0.781889	-0.231467
C41	C	1.208724	-0.872354	-0.282501
C42	C	1.275915	-0.927105	-0.349763
C43	C	1.378401	-0.891391	-0.365986
C44	C	1.792411	-0.506073	-0.506158
C45	C	1.909187	-0.506082	-0.506164
C46	C	1.518451	-0.505947	-0.780176
C47	C	1.518483	-0.505902	-0.896953
C48	C	1.518469	-0.232019	-0.506184
C49	C	1.518507	-0.115243	-0.506202
C50	C	1.585710	-0.438704	-0.951831
C51	C	1.585735	-0.438666	-1.061555
C52	C	1.451302	-0.573033	-1.061514
C53	C	1.451272	-0.573064	-0.951792
C54	C	1.663328	-0.361131	-0.951855
C55	C	1.663353	-0.361093	-1.061579
C56	C	1.518365	-0.506083	-0.233175
C57	C	1.518537	-0.505832	-0.116399
H58	H	0.934296	-0.732373	-0.628748
H59	H	1.740600	-0.390300	-0.917819
H60	H	1.634239	-0.283784	-1.095626
H61	H	1.107829	-0.728262	-0.621385
H62	H	1.497151	-0.771842	-0.328167
O63	O	1.109234	-0.907190	-0.266642
C64	C	0.999367	-1.048599	-0.206472
C65	C	1.112092	-1.009270	-0.224363
H66	H	1.001639	-1.131142	-0.172308
H67	H	0.957375	-0.993999	-0.149588
H68	H	0.955626	-1.049791	-0.284357
H69	H	1.155920	-1.008080	-0.146532
H70	H	1.154004	-1.063881	-0.281294
O71	O	1.109515	-0.625002	-0.747701
C72	C	1.211173	-0.503943	-0.851157
C73	C	1.170832	-0.533287	-0.741212
H74	H	1.260737	-0.429777	-0.845951
H75	H	1.260879	-0.570753	-0.883499
H76	H	1.141694	-0.489539	-0.905435
H77	H	1.240247	-0.547674	-0.686855
H78	H	1.121094	-0.466461	-0.708956
H79	H	0.930093	-0.621980	-0.728031
H80	H	1.744724	-0.382886	-1.091358
H81	H	1.189319	-0.737301	-0.176693
H82	H	1.396659	-1.105250	-0.384203
H83	H	1.118402	-0.383987	-0.384469
O84	O	0.910561	-0.373560	-0.373966
C85	C	0.741513	-0.313918	-0.314559
C86	C	0.801936	-0.387866	-0.388349
H87	H	0.653679	-0.325443	-0.326178
H88	H	0.762975	-0.332272	-0.229788
H89	H	0.763165	-0.229230	-0.333136
H90	H	0.780317	-0.472578	-0.369867
H91	H	0.780469	-0.369422	-0.473098
O92	O	1.650658	-0.897199	-0.638873
C93	C	1.701572	-0.863502	-0.817624
C94	C	1.627781	-0.923962	-0.743599
H95	H	1.683117	-0.885134	-0.902309
H96	H	1.689984	-0.775663	-0.806147
H97	H	1.786305	-0.885004	-0.799202
H98	H	1.543020	-0.902548	-0.761975
H99	H	1.639460	-1.011787	-0.755090
H100	H	1.789729	-1.010283	-0.620986
H101	H	1.911638	-1.109623	-0.743005
H102	H	1.847591	-1.273734	-0.835619
O103	O	1.656203	-1.352825	-0.814140
C104	C	1.680588	-1.538148	-0.840960
C105	C	1.719387	-1.438609	-0.784830
H106	H	1.731668	-1.607526	-0.817301
H107	H	1.595807	-1.554352	-0.817826
H108	H	1.685607	-1.526236	-0.929375
H109	H	1.714437	-1.450446	-0.696404
H110	H	1.804150	-1.422435	-0.808050
O111	O	1.523608	-1.244811	-0.681856
C112	C	1.356813	-1.285551	-0.760452
C113	C	1.469564	-1.246238	-0.778216
H114	H	1.313079	-1.286697	-0.838341
H115	H	1.358986	-1.368088	-0.726259
H116	H	1.314880	-1.230897	-0.703579
H117	H	1.511563	-1.300815	-0.835108
H118	H	1.467317	-1.163683	-0.812356
O119	O	1.241519	-1.014872	-0.399465
C120	C	1.115814	-1.089179	-0.519166
C121	C	1.154671	-0.989702	-0.462966
H122	H	1.045578	-1.068869	-0.570502
H123	H	1.181384	-1.122184	-0.570095
H124	H	1.091671	-1.150154	-0.458438
H125	H	1.178801	-0.928655	-0.523621
H126	H	1.089073	-0.956784	-0.412018
O127	O	1.380650	-0.658185	-0.198216
C128	C	1.356336	-0.472810	-0.171686
C129	C	1.317546	-0.572408	-0.227719
H130	H	1.305348	-0.403429	-0.195535
H131	H	1.351303	-0.484499	-0.083240
H132	H	1.441134	-0.456757	-0.194859
H133	H	1.232739	-0.588517	-0.204632
H134	H	1.322657	-0.560669	-0.316153
H135	H	1.396525	-0.627780	-0.907114
O136	O	1.637291	-0.264023	-0.916522
C137	C	1.590015	-0.087017	-0.962381
C138	C	1.619467	-0.196944	-1.002538
H139	H	1.575618	-0.032747	-1.031904
H140	H	1.515866	-0.092266	-0.912779
H141	H	1.656840	-0.054639	-0.912719
H142	H	1.552711	-0.229386	-1.052244
H143	H	1.693648	-0.191628	-1.052083
H144	H	1.396579	-0.627712	-1.106177
