data_functionalizedCrystal
_audit_creation_method	'MofGen! by Chris Wilmer'
_symmetry_space_group_name_H-M	'P1'
_symmetry_Int_Tables_number	1
_symmetry_cell_setting	triclinic
loop_
_symmetry_equiv_pos_as_xyz
  x,y,z
_cell_length_a	27.732048
_cell_length_b	10.489741
_cell_length_c	26.210047
_cell_angle_alpha	89.995802
_cell_angle_beta	89.989075
_cell_angle_gamma	83.590914
loop_
_atom_site_label
_atom_site_type_symbol
_atom_site_fract_x
_atom_site_fract_y
_atom_site_fract_z
O1	O	-0.641893	-0.151753	0.042363
O2	O	-0.501246	-0.174827	0.042378
O3	O	-0.574770	0.022448	0.042367
O4	O	-0.568369	-0.349029	0.042374
O5	O	-0.574747	0.022448	-0.042491
O6	O	-0.501222	-0.174828	-0.042480
O7	O	-0.641870	-0.151753	-0.042495
Cu8	Cu	-0.571544	-0.163290	-0.050235
Cu9	Cu	-0.571572	-0.163290	0.050119
O10	O	-0.568346	-0.349029	-0.042484
C11	C	-0.483224	-0.174343	-0.000049
C12	C	-0.429560	-0.172885	-0.000043
C13	C	-0.574275	0.069959	-0.000061
C14	C	-0.572828	0.211525	-0.000060
C15	C	-0.659892	-0.152237	-0.000067
C16	C	-0.713556	-0.153696	-0.000069
C17	C	-0.091423	-0.280280	-0.000063
C18	C	0.110271	-0.274868	-0.000068
O19	O	0.140907	-0.373073	-0.000088
N20	N	0.130133	-0.157892	-0.000069
C21	C	0.099568	-0.042260	-0.000072
O22	O	0.121090	0.057360	-0.000079
C23	C	-0.102124	-0.047673	-0.000071
C24	C	-0.121984	-0.164657	-0.000065
C25	C	-0.111282	-0.397254	-0.000057
C26	C	-0.161703	-0.398606	-0.000053
C27	C	-0.192264	-0.282983	-0.000055
C28	C	-0.172404	-0.166008	-0.000061
C29	C	-0.132688	0.067958	-0.000078
C30	C	-0.183114	0.066594	-0.000079
C31	C	-0.202973	-0.050390	-0.000073
C32	C	-0.253385	-0.051737	-0.000059
N33	N	-0.273247	-0.168714	-0.000058
C34	C	-0.242687	-0.284336	-0.000056
C35	C	0.205460	-0.039426	-0.000072
C36	C	0.255883	-0.038073	-0.000071
C37	C	0.266583	-0.270682	-0.000067
C38	C	0.216159	-0.272034	-0.000064
C39	C	0.185598	-0.156403	-0.000071
C40	C	-0.348574	-0.287166	-0.000047
C41	C	-0.398999	-0.288507	-0.000041
C42	C	-0.409694	-0.055900	-0.000047
C43	C	-0.359273	-0.054557	-0.000051
C44	C	-0.328714	-0.170201	-0.000052
O45	O	-0.284050	0.046415	-0.000044
O46	O	-0.264218	-0.383942	-0.000061
C47	C	-0.041002	-0.278928	-0.000067
C48	C	-0.021143	-0.161954	-0.000073
C49	C	-0.051703	-0.046331	-0.000075
C50	C	0.029280	-0.160600	-0.000072
C51	C	0.059841	-0.276223	-0.000070
C52	C	0.039979	-0.393199	-0.000069
C53	C	-0.010441	-0.394551	-0.000065
C54	C	-0.031841	0.070646	-0.000076
C55	C	0.018580	0.071988	-0.000079
C56	C	0.049140	-0.043635	-0.000077
N57	N	-0.571528	-0.163289	-0.120819
C58	C	-0.568841	-0.396539	-0.000054
C59	C	-0.570287	-0.538105	-0.000052
C60	C	-0.526047	0.277609	-0.000051
C61	C	-0.548135	0.370702	-0.041893
C62	C	-0.548169	0.370678	0.041770
C63	C	-0.594935	0.302754	-0.041937
C64	C	-0.594963	0.302719	0.041764
C65	C	-0.617084	0.395787	-0.000088
C66	C	-0.601148	-0.240098	-0.473335
C67	C	-0.601163	-0.240096	-0.686994
O68	O	-0.626336	-0.305387	-0.714618
N69	N	-0.571583	-0.163277	-0.713713
C70	C	-0.542000	-0.086446	-0.687015
O71	O	-0.516845	-0.021097	-0.714644
C72	C	-0.541989	-0.086441	-0.473357
C73	C	-0.571567	-0.163276	-0.446641
C74	C	-0.630724	-0.316924	-0.446619
C75	C	-0.630719	-0.316929	-0.393207
C76	C	-0.601137	-0.240107	-0.366513
C77	C	-0.571561	-0.163280	-0.393229
C78	C	-0.512409	-0.009605	-0.446659
C79	C	-0.512409	-0.009608	-0.393242
C80	C	-0.541987	-0.086442	-0.366525
C81	C	-0.541973	-0.086463	-0.313123
N82	N	-0.571553	-0.163282	-0.286403
C83	C	-0.601135	-0.240104	-0.313098
C84	C	-0.542008	-0.086456	-0.799188
C85	C	-0.542010	-0.086459	-0.852602
C86	C	-0.601173	-0.240108	-0.852578
C87	C	-0.601168	-0.240111	-0.799163
C88	C	-0.571587	-0.163275	-0.772469
C89	C	-0.601120	-0.240110	-0.200930
C90	C	-0.601110	-0.240111	-0.147514
C91	C	-0.541949	-0.086458	-0.147543
C92	C	-0.541956	-0.086461	-0.200955
C93	C	-0.571546	-0.163290	-0.227647
O94	O	-0.516817	-0.021195	-0.285466
O95	O	-0.626294	-0.305423	-0.285460
C96	C	-0.601154	-0.240093	-0.526747
C97	C	-0.571578	-0.163266	-0.553463
C98	C	-0.541997	-0.086444	-0.526769
C99	C	-0.571580	-0.163269	-0.606878
C100	C	-0.601162	-0.240091	-0.633572
C101	C	-0.630742	-0.316910	-0.606853
C102	C	-0.630736	-0.316915	-0.553442
C103	C	-0.512417	-0.009625	-0.553488
C104	C	-0.512425	-0.009627	-0.606899
C105	C	-0.542007	-0.086449	-0.633594
N106	N	-0.571591	-0.163281	0.120703
H107	H	-0.415165	-0.383774	-0.000035
H108	H	-0.528331	0.400844	-0.077263
H109	H	-0.487584	0.226267	-0.000089
F110	F	-0.510522	-0.004700	-0.881030
H111	H	-0.177867	-0.493866	-0.000048
F112	F	-0.078764	-0.520327	-0.000055
H113	H	-0.625258	-0.302664	-0.874322
F114	F	-0.620827	0.263275	0.087998
H115	H	-0.655582	0.446903	-0.000115
F116	F	-0.510514	-0.004691	-0.770785
F117	F	-0.522298	0.410040	0.088004
F118	F	-0.111564	0.192470	-0.000078
F119	F	-0.632612	-0.321879	-0.229331
F120	F	-0.662194	-0.398724	-0.364780
H121	H	-0.654826	-0.379468	-0.628597
H122	H	-0.654816	-0.379482	-0.468348
F123	F	-0.632589	-0.321900	-0.119084
F124	F	-0.215636	0.189668	-0.000087
H125	H	0.199993	-0.367292	-0.000062
F126	F	-0.632650	-0.321883	-0.770734
F127	F	-0.480927	0.072174	-0.475082
H128	H	-0.488321	0.052963	-0.371510
F129	F	0.299116	-0.393737	-0.000066
F130	F	-0.620774	0.263596	-0.088225
H131	H	-0.517866	-0.023913	-0.222709
H132	H	0.272048	0.057187	-0.000068
F133	F	-0.510466	-0.004706	-0.119123
H134	H	-0.654821	-0.379481	-0.531694
F135	F	-0.480939	0.072149	-0.635327
H136	H	-0.323698	-0.381334	-0.000050
F137	F	0.172941	0.083653	-0.000078
F138	F	-0.338137	0.069949	-0.000058
F139	F	-0.480924	0.072129	-0.525084
H140	H	-0.026606	-0.489811	-0.000061
F141	F	-0.442228	0.067148	-0.000050
H142	H	0.064871	-0.487343	-0.000065
H143	H	0.034744	0.167257	-0.000080
H144	H	-0.056720	0.164802	-0.000079
