data_functionalizedCrystal
_audit_creation_method	'MofGen! by Chris Wilmer'
_symmetry_space_group_name_H-M	'P1'
_symmetry_Int_Tables_number	1
_symmetry_cell_setting	triclinic
loop_
_symmetry_equiv_pos_as_xyz
  x,y,z
_cell_length_a	12.594516
_cell_length_b	12.594517
_cell_length_c	12.759393
_cell_angle_alpha	89.985022
_cell_angle_beta	89.970876
_cell_angle_gamma	90.016010
loop_
_atom_site_label
_atom_site_type_symbol
_atom_site_fract_x
_atom_site_fract_y
_atom_site_fract_z
Zn1	Zn	-0.423681	1.627274	-0.593901
Zn2	Zn	-0.601700	1.627163	-0.418228
Zn3	Zn	-0.423736	1.449276	-0.418251
Zn4	Zn	-0.601617	1.449260	-0.593880
O5	O	-0.512683	1.538243	-0.506065
O6	O	-0.447307	1.776205	-0.570596
O7	O	-0.578150	1.603526	-0.271210
O8	O	-0.274783	1.472941	-0.441569
O9	O	-0.578097	1.776123	-0.441530
O10	O	-0.274742	1.603715	-0.570618
O11	O	-0.447401	1.472833	-0.271227
O12	O	-0.447321	1.300328	-0.441549
O13	O	-0.577956	1.472914	-0.740904
O14	O	-0.578009	1.300316	-0.570584
O15	O	-0.447227	1.603700	-0.740919
O16	O	-0.750635	1.603510	-0.441511
O17	O	-0.750574	1.472806	-0.570562
C18	C	-0.512663	1.261702	-0.506067
C19	C	-0.512680	1.143397	-0.506093
C20	C	-0.583890	1.003405	-0.576145
C21	C	-0.609803	1.074174	-0.480260
C22	C	-0.486814	1.074199	-0.601968
C23	C	-0.538677	1.003381	-0.410126
C24	C	-0.415644	1.003399	-0.531899
C25	C	-0.441519	1.074137	-0.435948
C26	C	-0.789224	1.538173	-0.506055
C27	C	-0.907530	1.538241	-0.506085
C28	C	-0.976789	1.467144	-0.576227
C29	C	-1.047659	1.441209	-0.480362
C30	C	-1.047458	1.564272	-0.601967
C31	C	-0.976842	1.512255	-0.410170
C32	C	-0.976635	1.635363	-0.531839
C33	C	-1.047474	1.609466	-0.435908
C34	C	-0.235063	1.538342	-0.506098
C35	C	-0.116757	1.538384	-0.506112
C36	C	-0.512576	1.538318	-0.780098
C37	C	-0.512530	1.538349	-0.896875
C38	C	-0.512705	1.815864	-0.506063
C39	C	-0.512714	1.934169	-0.506062
C40	C	-0.444453	1.606459	-0.951747
C41	C	-0.444415	1.606484	-1.061471
C42	C	-0.580540	1.470287	-1.061442
C43	C	-0.580572	1.470257	-0.951720
C44	C	-0.376411	1.674551	-0.896902
C45	C	-0.308329	1.742667	-0.951773
C46	C	-0.308291	1.742692	-1.061497
C47	C	-0.376334	1.674602	-1.116350
C48	C	-0.512714	1.538230	-0.233098
C49	C	-0.512459	1.538405	-0.116321
H50	H	-0.381313	1.104998	-0.376626
O51	O	-0.242329	1.808766	-0.898332
C52	C	-0.256938	1.794121	-0.789721
H53	H	-0.339083	1.759232	-0.774718
H54	H	-0.193812	1.737452	-0.758596
C55	C	-0.146314	1.944655	-0.751819
C56	C	-0.247209	1.901812	-0.733392
H57	H	-0.140309	2.011082	-0.717070
H58	H	-0.136468	1.954520	-0.824992
H59	H	-0.093720	1.897421	-0.725881
H60	H	-0.299800	1.949040	-0.759341
H61	H	-0.257064	1.891958	-0.660221
O62	O	-0.317810	0.966093	-0.557930
C63	C	-0.318986	0.854158	-0.556627
H64	H	-0.386226	0.825289	-0.503989
H65	H	-0.331692	0.823133	-0.639609
C66	C	-0.129694	0.848250	-0.578865
C67	C	-0.212273	0.812793	-0.514207
H68	H	-0.063867	0.822732	-0.552704
H69	H	-0.128900	0.923663	-0.579747
H70	H	-0.140296	0.822393	-0.648012
H71	H	-0.201677	0.838661	-0.445066
H72	H	-0.213062	0.737383	-0.513313
H73	H	-0.464922	1.105306	-0.683062
O74	O	-0.939802	1.395149	-0.646770
C75	C	-0.976019	1.292935	-0.619245
H76	H	-0.995933	1.290989	-0.532100
H77	H	-1.050081	1.273002	-0.666665
C78	C	-0.864178	1.213228	-0.749873
C79	C	-0.888628	1.210836	-0.642838
H80	H	-0.810274	1.162584	-0.764430
H81	H	-0.839780	1.282092	-0.768420
H82	H	-0.925903	1.196620	-0.789377
H83	H	-0.826907	1.227457	-0.603336
H84	H	-0.913014	1.141973	-0.624284
O85	O	-0.940177	1.485968	-0.313346
C86	C	-1.026775	1.467639	-0.245640
H87	H	-1.099836	1.510771	-0.276718
H88	H	-1.043678	1.378808	-0.241443
C89	C	-0.910111	1.456377	-0.097199
C90	C	-0.999843	1.509360	-0.135365
H91	H	-0.893497	1.482107	-0.029175
H92	H	-0.851767	1.468721	-0.142814
H93	H	-0.924208	1.382354	-0.093710
H94	H	-0.985740	1.583379	-0.138866
H95	H	-1.058184	1.497029	-0.089748
H96	H	-0.376437	1.674540	-0.807559
H97	H	-0.252848	1.798148	-1.106171
H98	H	-0.560668	0.972404	-0.329010
H99	H	-1.078879	1.359142	-0.458601
O100	O	-1.084406	1.681133	-0.365016
C101	C	-1.147487	1.628570	-0.289848
H102	H	-1.178762	1.551162	-0.324346
H103	H	-1.097567	1.610554	-0.217490
C104	C	-1.203168	1.795131	-0.216508
C105	C	-1.241588	1.700061	-0.258883
H106	H	-1.261211	1.839230	-0.197402
H107	H	-1.160666	1.830544	-0.267147
H108	H	-1.161568	1.780103	-0.156215
H109	H	-1.283176	1.715088	-0.319181
H110	H	-1.284100	1.664651	-0.208253
O111	O	-0.939433	1.733214	-0.558034
C112	C	-0.975368	1.760289	-0.659204
H113	H	-0.995294	1.684853	-0.704473
H114	H	-1.049364	1.811981	-0.652624
C115	C	-0.863277	1.914591	-0.661854
C116	C	-0.887741	1.821938	-0.717457
H117	H	-0.809227	1.952623	-0.697787
H118	H	-0.839069	1.896352	-0.593692
H119	H	-0.924947	1.957655	-0.656374
H120	H	-0.826075	1.778870	-0.722925
H121	H	-0.911937	1.840171	-0.785622
O122	O	-1.084340	1.590353	-0.698765
C123	C	-1.048346	1.515092	-0.772439
H124	H	-0.973878	1.474513	-0.741267
H125	H	-1.112875	1.453140	-0.786140
C126	C	-1.113919	1.621221	-0.914804
C127	C	-1.022451	1.571389	-0.876522
H128	H	-1.097950	1.655946	-0.979009
H129	H	-1.138173	1.671925	-0.865168
H130	H	-1.167684	1.569586	-0.926213
H131	H	-0.968693	1.623025	-0.865101
H132	H	-0.998187	1.520695	-0.926158
O133	O	-0.707706	1.111395	-0.454339
C134	C	-0.747229	1.174519	-0.536828
H135	H	-0.678181	1.205575	-0.585848
H136	H	-0.801905	1.124705	-0.588307
C137	C	-0.894622	1.230671	-0.430970
C138	C	-0.809815	1.268821	-0.491172
H139	H	-0.933233	1.288838	-0.402809
H140	H	-0.867998	1.188140	-0.375397
H141	H	-0.940174	1.189158	-0.473879
H142	H	-0.764258	1.310320	-0.448260
H143	H	-0.836434	1.311361	-0.546737
O144	O	-0.376394	1.674795	-1.222936
C145	C	-0.403700	1.776811	-1.259590
H146	H	-0.450123	1.820781	-1.196349
H147	H	-0.328343	1.822954	-1.279077
C148	C	-0.415595	1.712515	-1.436404
C149	C	-0.472620	1.766517	-1.358734
H150	H	-0.458105	1.706168	-1.497564
H151	H	-0.397195	1.643785	-1.411712
H152	H	-0.352801	1.750975	-1.452631
H153	H	-0.535406	1.728051	-1.342499
H154	H	-0.491033	1.835241	-1.383426
H155	H	-0.635937	1.414851	-1.106112
H156	H	-0.644142	0.972348	-0.635324
H157	H	-0.635990	1.414780	-0.907043
