data_functionalizedCrystal
_audit_creation_method	'MofGen! by Chris Wilmer'
_symmetry_space_group_name_H-M	'P1'
_symmetry_Int_Tables_number	1
_symmetry_cell_setting	triclinic
loop_
_symmetry_equiv_pos_as_xyz
  x,y,z
_cell_length_a	13.635800
_cell_length_b	27.923496
_cell_length_c	29.041112
_cell_angle_alpha	95.812105
_cell_angle_beta	108.238543
_cell_angle_gamma	98.963946
loop_
_atom_site_label
_atom_site_type_symbol
_atom_site_fract_x
_atom_site_fract_y
_atom_site_fract_z
V1	V	-2.029815	-0.067793	-0.151576
O2	O	-2.034579	0.002572	-0.148375
O3	O	-1.994574	-0.133763	-0.150843
O4	O	-2.017749	-0.067052	-0.217545
O5	O	-2.011243	-0.064602	-0.081211
V6	V	-2.271487	-0.059341	-0.143123
O7	O	-2.160640	-0.086334	-0.170119
O8	O	-2.365761	-0.040801	-0.124580
O9	O	-2.195125	0.006628	-0.143856
O10	O	-2.325422	-0.129707	-0.146324
O11	O	-2.348757	-0.062533	-0.213488
O12	O	-2.171950	-0.060083	-0.077154
V13	V	-1.529815	-0.067793	-0.151576
O14	O	-1.534579	0.002572	-0.148375
O15	O	-1.494574	-0.133763	-0.150843
O16	O	-1.517749	-0.067052	-0.217545
O17	O	-1.511243	-0.064602	-0.081211
V18	V	-1.771487	-0.059341	-0.143123
O19	O	-1.660640	-0.086334	-0.170119
O20	O	-1.865761	-0.040801	-0.124580
O21	O	-1.695125	0.006628	-0.143856
O22	O	-1.825422	-0.129707	-0.146324
O23	O	-1.848757	-0.062533	-0.213488
O24	O	-1.671950	-0.060083	-0.077154
C25	C	-1.913996	-0.149836	-0.148530
C26	C	-1.925906	-0.203769	-0.148370
C27	C	-2.090996	-0.540703	-0.149865
C28	C	-2.135829	-0.743410	-0.149288
O29	O	-2.219106	-0.771735	-0.151303
N30	N	-2.050341	-0.766274	-0.146781
C31	C	-1.953640	-0.738458	-0.144422
O32	O	-1.881960	-0.762557	-0.142282
C33	C	-1.908811	-0.535753	-0.145003
C34	C	-1.994302	-0.512891	-0.147505
C35	C	-2.176480	-0.517841	-0.152367
C36	C	-2.165270	-0.467167	-0.152509
C37	C	-2.068576	-0.439355	-0.150148
C38	C	-1.983092	-0.462217	-0.147646
C39	C	-1.812114	-0.507939	-0.142647
C40	C	-1.800915	-0.457260	-0.142794
C41	C	-1.886406	-0.434398	-0.145296
C42	C	-1.875188	-0.383731	-0.145428
N43	N	-1.960676	-0.360867	-0.147934
C44	C	-2.057369	-0.388679	-0.150294
C45	C	-1.977182	-0.844881	-0.144116
C46	C	-1.988389	-0.895557	-0.143970
C47	C	-2.170577	-0.900505	-0.148837
C48	C	-2.159367	-0.849828	-0.148979
C49	C	-2.062670	-0.822017	-0.146623
C50	C	-2.033820	-0.282260	-0.150591
C51	C	-2.022600	-0.231581	-0.150731
C52	C	-1.840415	-0.226637	-0.145867
C53	C	-1.851632	-0.277312	-0.145725
C54	C	-1.948344	-0.305122	-0.148089
O55	O	-1.791948	-0.355377	-0.143419
O56	O	-2.129043	-0.364573	-0.152445
C57	C	-2.102206	-0.591377	-0.149723
C58	C	-2.016722	-0.614239	-0.147221
C59	C	-1.920028	-0.586427	-0.144861
C60	C	-2.027929	-0.664915	-0.147075
C61	C	-2.124622	-0.692727	-0.149436
C62	C	-2.210110	-0.669864	-0.151942
C63	C	-2.198900	-0.619190	-0.152084
C64	C	-1.834541	-0.609291	-0.142354
C65	C	-1.845758	-0.659965	-0.142212
C66	C	-1.942452	-0.687777	-0.144573
C67	C	-1.943557	-0.064738	-0.233615
C68	C	-1.974261	-0.064568	-0.287547
C69	C	-2.107373	0.022698	-0.146168
C70	C	-2.085082	0.076631	-0.146330
C71	C	-2.077812	-0.062398	-0.061082
C72	C	-2.036728	-0.062566	-0.007149
C73	C	-1.413996	-0.149836	-0.148530
C74	C	-1.425906	-0.203769	-0.148370
C75	C	-1.829369	-0.061216	0.380483
C76	C	-1.983897	-0.060645	0.177776
O77	O	-2.077215	-0.058485	0.153680
N78	N	-1.916970	-0.063005	0.149948
C79	C	-1.811402	-0.065504	0.172799
O80	O	-1.758020	-0.067492	0.144478
C81	C	-1.656874	-0.066070	0.375505
C82	C	-1.723811	-0.063716	0.403331
C83	C	-1.896299	-0.058861	0.408309
C84	C	-1.857670	-0.059006	0.458982
C85	C	-1.752111	-0.061506	0.481830
C86	C	-1.685182	-0.063861	0.454004
C87	C	-1.551305	-0.068566	0.398356
C88	C	-1.512678	-0.068706	0.449037
C89	C	-1.579615	-0.066352	0.476862
C90	C	-1.540995	-0.066507	0.527525
N91	N	-1.607921	-0.064147	0.555354
C92	C	-1.713479	-0.061647	0.532506
C93	C	-1.892537	-0.065207	0.066375
C94	C	-1.931169	-0.065066	0.015698
C95	C	-2.103662	-0.060207	0.020680
C96	C	-2.065030	-0.060351	0.071357
C97	C	-1.959464	-0.062848	0.094204
C98	C	-1.632350	-0.061953	0.638923
C99	C	-1.593711	-0.062100	0.689601
C100	C	-1.421221	-0.066957	0.684615
C101	C	-1.459857	-0.066812	0.633942
C102	C	-1.565427	-0.064308	0.611098
O103	O	-1.447687	-0.068660	0.551654
O104	O	-1.766838	-0.059648	0.560837
C105	C	-1.867998	-0.061071	0.329810
C106	C	-1.801069	-0.063425	0.301985
C107	C	-1.695510	-0.065926	0.324832
C108	C	-1.839701	-0.063285	0.251308
C109	C	-1.945259	-0.060784	0.228460
C110	C	-2.012186	-0.058425	0.256289
C111	C	-1.973557	-0.058570	0.306962
C112	C	-1.628584	-0.068285	0.297003
C113	C	-1.667220	-0.068140	0.246330
C114	C	-1.772779	-0.065640	0.223482
C115	C	-1.447048	-0.064746	0.766384
C116	C	-1.488152	-0.064601	0.712448
C117	C	-1.607373	0.022698	-0.146168
C118	C	-1.585082	0.076631	-0.146330
C119	C	-1.577812	-0.062398	-0.061082
C120	C	-1.536728	-0.062566	-0.007149
C121	C	-2.079796	-0.066918	-0.315358
C122	C	-2.108657	-0.066752	-0.366032
C123	C	-2.031983	-0.064239	-0.388895
C124	C	-1.926439	-0.061888	-0.361080
C125	C	-1.897578	-0.062050	-0.310406
C126	C	-1.522600	-0.231581	-0.150731
C127	C	-1.533810	-0.282258	-0.150588
C128	C	-1.448323	-0.305122	-0.148082
C129	C	-1.351622	-0.277307	-0.145723
C130	C	-1.340415	-0.226631	-0.145869
C131	C	-1.660883	0.104443	-0.143971
C132	C	-1.639945	0.155120	-0.144116
C133	C	-1.543210	0.177983	-0.146624
C134	C	-1.467403	0.150168	-0.148982
C135	C	-1.488338	0.099493	-0.148833
C136	C	-1.431174	-0.065073	0.015701
C137	C	-1.392555	-0.065225	0.066377
C138	C	-1.459492	-0.062873	0.094201
C139	C	-1.565054	-0.060364	0.071348
C140	C	-1.603670	-0.060209	0.020673
H141	H	-2.092220	-0.212969	-0.152766
Br142	Br	-1.235611	-0.308343	-0.142319
Br143	Br	-2.165071	-0.319995	-0.153800
Br144	Br	-1.655887	-0.057177	0.109116
Br145	Br	-1.209174	-0.188891	-0.142662
Br146	Br	-1.277963	-0.070352	0.715632
Br147	Br	-1.665052	-0.319997	-0.153788
H148	H	-1.376655	-0.066988	-0.006947
Br149	Br	-1.742838	0.192858	-0.140916
H150	H	-2.228982	-0.831217	-0.151015
H151	H	-1.742493	-0.526544	-0.140607
H152	H	-1.526176	0.219247	-0.146744
H153	H	-1.426611	0.076851	-0.150758
H154	H	-1.739656	0.085834	-0.141930
Br155	Br	-2.251899	-0.069947	-0.403771
H156	H	-1.457462	-0.346386	-0.147963
Br157	Br	-1.249294	-0.068633	0.097381
H158	H	-1.761686	-0.203983	-0.143943
Br159	Br	-1.872350	-0.926575	-0.140561
H160	H	-1.388640	0.168792	-0.151023
H161	H	-1.428038	-0.063005	0.135462
H162	H	-1.806576	-0.067242	0.084972
H163	H	-1.811641	-0.060138	-0.287766
H164	H	-2.055498	-0.064108	-0.430157
H165	H	-2.255223	-0.540481	-0.154291
Br166	Br	-1.746932	-0.056813	-0.010332
H167	H	-2.234889	-0.448559	-0.154549
H168	H	-1.722173	-0.434619	-0.140878
H169	H	-2.189618	-0.058173	0.002068
H170	H	-1.864018	-0.059842	-0.379702
H171	H	-1.755802	-0.586651	-0.140433
Br172	Br	-1.845938	-0.807145	-0.140916
Br173	Br	-2.301807	-0.938260	-0.152042
Br174	Br	-1.735607	-0.308339	-0.142328
Br175	Br	-2.314929	-0.588170	-0.155475
H176	H	-2.288841	-0.692516	-0.153859
H177	H	-2.098143	-0.056392	0.237677
H178	H	-1.776132	-0.678574	-0.140172
H179	H	-1.648226	-0.060184	0.712254
Br180	Br	-1.775617	-0.058552	0.607929
H181	H	-1.592218	-0.212972	-0.152769
H182	H	-2.028069	-0.056653	0.329614
Br183	Br	-1.948524	-0.055808	0.496738
Br184	Br	-2.039567	-0.055471	0.377311
H185	H	-2.119540	-0.058434	0.094009
H186	H	-1.542630	-0.070321	0.315600
Br187	Br	-1.840324	-0.068274	-0.022061
H188	H	-1.426713	-0.070732	0.467637
Br189	Br	-1.460445	-0.071762	0.360605
Br190	Br	-1.576363	-0.071340	0.208572
H191	H	-2.142242	-0.068965	-0.296750
Br192	Br	-1.369019	-0.070016	0.596176
