data_functionalizedCrystal
_audit_creation_method	'MofGen! by Chris Wilmer'
_symmetry_space_group_name_H-M	'P1'
_symmetry_Int_Tables_number	1
_symmetry_cell_setting	triclinic
loop_
_symmetry_equiv_pos_as_xyz
  x,y,z
_cell_length_a	21.395362
_cell_length_b	14.908520
_cell_length_c	21.395355
_cell_angle_alpha	93.280325
_cell_angle_beta	89.956060
_cell_angle_gamma	93.337688
loop_
_atom_site_label
_atom_site_type_symbol
_atom_site_fract_x
_atom_site_fract_y
_atom_site_fract_z
Zn1	Zn	0.943513	-0.358891	-0.368965
Zn2	Zn	0.937386	-0.509736	-0.270231
Zn3	Zn	0.838727	-0.358933	-0.264168
Zn4	Zn	0.832667	-0.509755	-0.374937
O5	O	0.888073	-0.434329	-0.319575
O6	O	1.030380	-0.378876	-0.355906
O7	O	0.924270	-0.489742	-0.181749
O8	O	0.857727	-0.232679	-0.273033
O9	O	1.025878	-0.489701	-0.283367
O10	O	0.934713	-0.232649	-0.350027
O11	O	0.851786	-0.378948	-0.177295
O12	O	0.750244	-0.378966	-0.278823
O13	O	0.847399	-0.489733	-0.461822
O14	O	0.745792	-0.489773	-0.360205
O15	O	0.928838	-0.378894	-0.457435
O16	O	0.918395	-0.635987	-0.289157
O17	O	0.841458	-0.636001	-0.366084
C18	C	0.725284	-0.434377	-0.319504
C19	C	0.655641	-0.434419	-0.319490
C20	C	0.620623	-0.492193	-0.361808
C21	C	0.555188	-0.492171	-0.361835
C22	C	0.524774	-0.434384	-0.319533
C23	C	0.559800	-0.376599	-0.277212
C24	C	0.625234	-0.376616	-0.277190
C25	C	0.421340	-0.427116	-0.262837
C26	C	0.355907	-0.427105	-0.262858
C27	C	0.322956	-0.434325	-0.319600
C28	C	0.355444	-0.441575	-0.376324
C29	C	0.420877	-0.441593	-0.376302
C30	C	0.453823	-0.434358	-0.319552
C31	C	0.216986	-0.492079	-0.361951
C32	C	0.151550	-0.492050	-0.361979
C33	C	0.156163	-0.376483	-0.277350
C34	C	0.221598	-0.376506	-0.277327
C35	C	0.252005	-0.434309	-0.319627
C36	C	0.878621	-0.668729	-0.328940
C37	C	0.874634	-0.769006	-0.332968
C38	C	0.947340	-0.957362	-0.260497
C39	C	0.943596	-1.051582	-0.264279
C40	C	0.863407	-1.051666	-0.344317
C41	C	0.867151	-0.957446	-0.340535
C42	C	0.909118	-0.910298	-0.298623
C43	C	0.912858	-0.816077	-0.294838
C44	C	0.832672	-0.816163	-0.374879
C45	C	0.828929	-0.910382	-0.378661
C46	C	1.051498	-0.434282	-0.319647
C47	C	1.121141	-0.434262	-0.319677
C48	C	0.888126	-0.434311	-0.482998
C49	C	0.888148	-0.434303	-0.552639
C50	C	0.897580	-0.199014	-0.310187
C51	C	0.901631	-0.098737	-0.306187
C52	C	0.930552	-0.376587	-0.583068
C53	C	0.930553	-0.376548	-0.648502
C54	C	0.888156	-0.434242	-0.683505
C55	C	0.845745	-0.491962	-0.653068
C56	C	0.845741	-0.491992	-0.587635
C57	C	0.879933	-0.515477	-0.790423
C58	C	0.879941	-0.515447	-0.855855
C59	C	0.888164	-0.434146	-0.885322
C60	C	0.896392	-0.352872	-0.849348
C61	C	0.896388	-0.352902	-0.783915
C62	C	0.888155	-0.434214	-0.754456
C63	C	0.930570	-0.376383	-0.986702
C64	C	0.930566	-0.376343	-1.052137
C65	C	0.845761	-0.491764	-1.056701
C66	C	0.845762	-0.491797	-0.991267
C67	C	0.888170	-0.434107	-0.956272
C68	C	0.888059	-0.434282	-0.156786
C69	C	0.888169	-0.434036	-0.087135
H70	H	0.447326	-0.447493	-0.422489
C71	C	0.977191	-0.313123	-0.544573
H72	H	0.971119	-0.321409	-0.501245
H73	H	0.970471	-0.252505	-0.552864
H74	H	1.018758	-0.326316	-0.555855
H75	H	0.328616	-0.447453	-0.422529
H76	H	0.974722	-1.089898	-0.233234
H77	H	0.965095	-0.329338	-1.076911
H78	H	0.811235	-0.538731	-1.085199
C79	C	0.817248	-1.103539	-0.390413
H80	H	0.820492	-1.166393	-0.387201
H81	H	0.827004	-1.088058	-0.431903
H82	H	0.775763	-1.088179	-0.380564
C83	C	0.654070	-0.555789	-0.408323
H84	H	0.698055	-0.547539	-0.402243
H85	H	0.643932	-0.542699	-0.449922
H86	H	0.640863	-0.616378	-0.401487
C87	C	0.250437	-0.555648	-0.408484
H88	H	0.220207	-0.590044	-0.433699
H89	H	0.274338	-0.594915	-0.386034
H90	H	0.277395	-0.521194	-0.434438
H91	H	0.903089	-0.286669	-0.873338
C92	C	0.959015	-0.764210	-0.248735
H93	H	0.955767	-0.701355	-0.251937
H94	H	1.000498	-0.779573	-0.258575
H95	H	0.949247	-0.779697	-0.207246
C96	C	0.663755	-0.313067	-0.230635
H97	H	0.636272	-0.278649	-0.205442
H98	H	0.690906	-0.273819	-0.253069
H99	H	0.687845	-0.347535	-0.204661
C100	C	0.977205	-0.312914	-0.948204
H101	H	1.002453	-0.278521	-0.975700
H102	H	1.003113	-0.347422	-0.924079
H103	H	0.954815	-0.273625	-0.921088
H104	H	0.981507	-0.918973	-0.226366
C105	C	0.122716	-0.312907	-0.230826
H106	H	0.078730	-0.321170	-0.236899
H107	H	0.135919	-0.252317	-0.237645
H108	H	0.132855	-0.326021	-0.189228
H109	H	0.123040	-0.539095	-0.396443
H110	H	0.526671	-0.539217	-0.396298
C111	C	0.977202	-0.313065	-0.681983
H112	H	1.002461	-0.278717	-0.651769
H113	H	0.954830	-0.273749	-0.705919
H114	H	1.003107	-0.347573	-0.708907
C115	C	0.799122	-0.555292	-0.957793
H116	H	0.773874	-0.589652	-0.988009
H117	H	0.773216	-0.520801	-0.930865
H118	H	0.821504	-0.594610	-0.933862
H119	H	0.250110	-0.329465	-0.242864
C120	C	0.870887	-0.604911	-0.758014
H121	H	0.872057	-0.593290	-0.713893
H122	H	0.903438	-0.642845	-0.770282
H123	H	0.831575	-0.633764	-0.769865
H124	H	0.535033	-0.329547	-0.242770
C125	C	0.320176	-0.419129	-0.200465
H126	H	0.349172	-0.414814	-0.166669
H127	H	0.292542	-0.470813	-0.196967
H128	H	0.296779	-0.366822	-0.199263
H129	H	0.448164	-0.421233	-0.216627
H130	H	0.794762	-0.948783	-0.412786
C131	C	0.790628	-0.764391	-0.416821
H132	H	0.798869	-0.701524	-0.408569
H133	H	0.747919	-0.779910	-0.408220
H134	H	0.799168	-0.779789	-0.459551
H135	H	0.903086	-0.286726	-0.754629
H136	H	0.811223	-0.538933	-0.681571
C137	C	0.870898	-0.604842	-0.895423
H138	H	0.872088	-0.593183	-0.938612
H139	H	0.831588	-0.633708	-0.885832
H140	H	0.903453	-0.642784	-0.886240
H141	H	0.811208	-0.538991	-0.562859
