data_functionalizedCrystal
_audit_creation_method	'MofGen! by Chris Wilmer'
_symmetry_space_group_name_H-M	'P1'
_symmetry_Int_Tables_number	1
_symmetry_cell_setting	triclinic
loop_
_symmetry_equiv_pos_as_xyz
  x,y,z
_cell_length_a	17.699083
_cell_length_b	22.010155
_cell_length_c	17.699103
_cell_angle_alpha	90.009470
_cell_angle_beta	83.287038
_cell_angle_gamma	90.009674
loop_
_atom_site_label
_atom_site_type_symbol
_atom_site_fract_x
_atom_site_fract_y
_atom_site_fract_z
O1	O	1.004095	0.050447	0.095709
O2	O	1.504095	0.550447	0.595709
O3	O	0.783718	0.050467	0.108161
O4	O	1.283718	0.550467	0.608161
O5	O	0.900125	0.050445	-0.008253
O6	O	1.400125	0.550445	0.491747
O7	O	0.887688	0.050469	0.212123
O8	O	1.387688	0.550469	0.712123
O9	O	0.900090	-0.050606	-0.008254
O10	O	1.400090	0.449394	0.491746
O11	O	0.783683	-0.050583	0.108161
O12	O	1.283683	0.449417	0.608161
O13	O	1.004060	-0.050604	0.095708
O14	O	1.504060	0.449396	0.595708
Cu15	Cu	0.893868	-0.059820	0.101935
Cu16	Cu	1.393868	0.440180	0.601935
Cu17	Cu	0.893909	0.059684	0.101935
Cu18	Cu	1.393909	0.559684	0.601935
O19	O	0.887653	-0.050581	0.212123
O20	O	1.387653	0.449419	0.712123
C21	C	0.755503	-0.000055	0.107715
C22	C	1.255503	0.499945	0.607715
C23	C	0.671485	-0.000048	0.106376
C24	C	1.171485	0.499952	0.606376
C25	C	0.622869	-0.000040	0.174709
C26	C	1.122869	0.499960	0.674709
C27	C	0.543925	-0.000048	0.173447
C28	C	1.043925	0.499952	0.673447
C29	C	0.513600	-0.000060	0.103851
C30	C	1.013600	0.499940	0.603851
C31	C	0.562222	-0.000069	0.035513
C32	C	1.062222	0.499931	0.535513
C33	C	0.641164	-0.000065	0.036776
C34	C	1.141164	0.499935	0.536776
C35	C	0.243859	-0.000084	0.030418
C36	C	0.743859	0.499916	0.530418
C37	C	0.164910	-0.000086	0.029160
C38	C	0.664910	0.499914	0.529160
C39	C	0.146620	-0.000068	0.167088
C40	C	0.646620	0.499932	0.667088
C41	C	0.225562	-0.000064	0.168351
C42	C	0.725562	0.499936	0.668351
C43	C	0.274177	-0.000076	0.100014
C44	C	0.774177	0.499924	0.600014
C45	C	0.359777	-0.000069	0.101383
C46	C	0.859777	0.499931	0.601383
C47	C	0.428002	-0.000063	0.102480
C48	C	0.928002	0.499937	0.602480
N49	N	0.893844	-0.143873	0.101934
N50	N	1.393844	0.356127	0.601934
C51	C	0.939732	-0.563651	0.147773
C52	C	1.439732	-0.063651	0.647773
C53	C	0.939741	-0.627259	0.147771
C54	C	1.439741	-0.127259	0.647771
O55	O	0.978728	-0.660150	0.186740
O56	O	1.478728	-0.160150	0.686740
N57	N	0.893924	-0.659080	0.101926
N58	N	1.393924	-0.159080	0.601926
C59	C	0.848102	-0.627290	0.056074
C60	C	1.348102	-0.127290	0.556074
O61	O	0.809133	-0.660196	0.017079
O62	O	1.309133	-0.160196	0.517079
C63	C	0.848098	-0.563683	0.056073
C64	C	1.348098	-0.063683	0.556073
C65	C	0.893911	-0.531866	0.101926
C66	C	1.393911	-0.031866	0.601926
C67	C	0.985542	-0.531834	0.193622
C68	C	1.485542	-0.031834	0.693622
C69	C	0.985532	-0.468230	0.193625
C70	C	1.485532	0.031770	0.693625
C71	C	0.939711	-0.436445	0.147778
C72	C	1.439711	0.063555	0.647778
C73	C	0.893901	-0.468262	0.101929
C74	C	1.393901	0.031738	0.601929
C75	C	0.802280	-0.531894	0.010217
C76	C	1.302280	-0.031894	0.510217
C77	C	0.802280	-0.468283	0.010219
C78	C	1.302280	0.031717	0.510219
C79	C	0.848093	-0.436466	0.056073
C80	C	1.348093	0.063534	0.556073
C81	C	0.848070	-0.372874	0.056085
C82	C	1.348070	0.127126	0.556085
N83	N	0.893886	-0.341053	0.101930
N84	N	1.393886	0.158947	0.601930
C85	C	0.939707	-0.372838	0.147777
C86	C	1.439707	0.127162	0.647777
C87	C	0.848115	-0.760867	0.056080
C88	C	1.348115	-0.260867	0.556080
C89	C	0.848115	-0.824473	0.056085
C90	C	1.348115	-0.324473	0.556085
C91	C	0.939755	-0.824437	0.147781
C92	C	1.439755	-0.324437	0.647781
C93	C	0.939751	-0.760831	0.147780
C94	C	1.439751	-0.260831	0.647780
C95	C	0.893932	-0.729047	0.101925
C96	C	1.393932	-0.229047	0.601925
C97	C	0.939682	-0.239267	0.147780
C98	C	1.439682	0.260733	0.647780
C99	C	0.939665	-0.175658	0.147781
C100	C	1.439665	0.324342	0.647781
C101	C	0.848029	-0.175699	0.056082
C102	C	1.348029	0.324301	0.556082
C103	C	0.848042	-0.239302	0.056084
C104	C	1.348042	0.260698	0.556084
C105	C	0.893874	-0.271085	0.101935
C106	C	1.393874	0.228915	0.601935
O107	O	0.809105	-0.339942	0.017134
O108	O	1.309105	0.160058	0.517134
O109	O	0.978677	-0.339924	0.186758
O110	O	1.478677	0.160076	0.686758
C111	C	1.032275	-0.000080	0.096155
C112	C	1.532275	0.499920	0.596155
C113	C	1.116293	-0.000083	0.097493
C114	C	1.616293	0.499917	0.597493
C115	C	0.899659	-0.000082	-0.036450
C116	C	1.399659	0.499918	0.463550
C117	C	0.898314	-0.000087	-0.120467
C118	C	1.398314	0.499913	0.379533
N119	N	0.893939	0.143736	0.101929
N120	N	1.393939	0.643736	0.601929
C121	C	0.890109	0.055036	-0.636179
C122	C	1.390109	0.555036	-0.136179
C123	C	0.891372	0.055031	-0.557236
C124	C	1.391372	0.555031	-0.057236
C125	C	0.891982	-0.000056	-0.517777
C126	C	1.391982	0.499944	-0.017777
C127	C	0.891338	-0.055140	-0.557267
C128	C	1.391338	0.444860	-0.057267
C129	C	0.890081	-0.055134	-0.636210
C130	C	1.390081	0.444866	-0.136210
C131	C	0.896408	-0.055166	-0.238901
C132	C	1.396408	0.444834	0.261099
C133	C	0.897663	-0.055168	-0.159952
C134	C	1.397663	0.444832	0.340048
C135	C	0.897698	0.054999	-0.159927
C136	C	1.397698	0.554999	0.340073
C137	C	0.896442	0.055005	-0.238869
C138	C	1.396442	0.555005	0.261131
C139	C	0.895802	-0.000079	-0.278353
C140	C	1.395802	0.499921	0.221647
C141	C	0.894434	-0.000073	-0.363952
C142	C	1.394434	0.499927	0.136048
C143	C	0.893344	-0.000063	-0.432178
C144	C	1.393344	0.499937	0.067822
C145	C	0.888119	-0.000053	0.240320
C146	C	1.388119	0.499947	0.740320
C147	C	0.889463	-0.000044	0.324337
C148	C	1.389463	0.499956	0.824337
H149	H	0.504345	-0.000042	0.229090
H150	H	1.004345	0.499958	0.729090
H151	H	0.250248	-0.000052	0.225023
H152	H	0.750248	0.499948	0.725023
N153	N	0.889385	-0.114542	-0.678800
N154	N	1.389385	0.385458	-0.178800
H155	H	0.935766	-0.116996	-0.717767
H156	H	1.435766	0.383004	-0.217767
H157	H	0.889935	-0.149404	-0.641773
H158	H	1.389935	0.350596	-0.141773
N159	N	0.094185	-0.000056	0.240799
N160	N	0.594185	0.499944	0.740799
H161	H	0.039573	-0.000062	0.229442
H162	H	0.539573	0.499938	0.729442
H163	H	0.103986	-0.037510	0.271139
H164	H	0.603986	0.462490	0.771139
N165	N	0.798689	-0.726587	0.006624
N166	N	1.298689	-0.226587	0.506624
H167	H	0.769668	-0.756402	-0.022414
H168	H	1.269668	-0.256402	0.477586
H169	H	0.761627	-0.700199	0.039668
H170	H	1.261627	-0.200199	0.539668
N171	N	0.895699	-0.114581	-0.281467
N172	N	1.395699	0.385419	0.218533
H173	H	0.848275	-0.117028	-0.308000
H174	H	1.348275	0.382972	0.192000
H175	H	0.942106	-0.117015	-0.320400
H176	H	1.442106	0.382985	0.179600
H177	H	0.891899	0.099882	-0.525091
H178	H	1.391899	0.599882	-0.025091
H179	H	0.810800	-0.850373	0.018756
H180	H	1.310800	-0.350373	0.518756
N181	N	0.752862	-0.434004	-0.039244
N182	N	1.252862	0.065996	0.460756
H183	H	0.697771	-0.445084	-0.024249
H184	H	1.197771	0.054916	0.475751
H185	H	0.759869	-0.388892	-0.032269
H186	H	1.259869	0.111108	0.467731
N187	N	0.655574	-0.000021	0.249774
N188	N	1.155574	0.499979	0.749774
H189	H	0.612794	-0.000018	0.292870
H190	H	1.112794	0.499982	0.792870
H191	H	0.687926	-0.037479	0.253305
H192	H	1.187926	0.462521	0.753305
N193	N	0.895801	0.114412	-0.281444
N194	N	1.395801	0.614412	0.218556
H195	H	0.942185	0.116845	-0.320409
H196	H	1.442185	0.616845	0.179591
H197	H	0.848355	0.116839	-0.307939
H198	H	1.348355	0.616839	0.192061
H199	H	0.537525	-0.000086	-0.021153
H200	H	1.037525	0.499914	0.478847
N201	N	0.752885	-0.566201	-0.039259
N202	N	1.252885	-0.066201	0.460741
H203	H	0.723872	-0.536405	-0.068308
H204	H	1.223872	-0.036405	0.431692
H205	H	0.785973	-0.592580	-0.076297
H206	H	1.285973	-0.092580	0.423703
N207	N	0.798615	-0.273624	0.006645
N208	N	1.298615	0.226376	0.506645
H209	H	0.769582	-0.243834	-0.022394
H210	H	1.269582	0.256166	0.477606
H211	H	0.831680	-0.300011	-0.030403
H212	H	1.331680	0.199989	0.469597
H213	H	0.898222	0.099851	-0.127770
H214	H	1.398222	0.599851	0.372230
N215	N	0.798617	-0.141410	0.006627
N216	N	1.298617	0.358590	0.506627
H217	H	0.805572	-0.096288	0.013585
H218	H	1.305572	0.403712	0.513585
H219	H	0.813685	-0.152534	-0.048435
H220	H	1.313685	0.347466	0.451565
N221	N	0.132196	-0.000109	-0.045906
N222	N	0.632196	0.499891	0.454094
H223	H	0.099857	0.037349	-0.049508
H224	H	0.599857	0.537349	0.450492
H225	H	0.175011	-0.000142	-0.088964
H226	H	0.675011	0.499858	0.411036
H227	H	0.283432	-0.000095	-0.025227
H228	H	0.783432	0.499905	0.474773
N229	N	0.889467	0.114451	-0.678737
N230	N	1.389467	0.614451	-0.178737
H231	H	0.890077	0.149343	-0.641743
H232	H	1.390077	0.649343	-0.141743
H233	H	0.935855	0.116836	-0.717700
H234	H	1.435855	0.616836	-0.217700
H235	H	0.891840	-0.099992	-0.525135
H236	H	1.391840	0.400008	-0.025135
N237	N	0.898323	-0.114585	-0.117391
N238	N	1.398323	0.385415	0.382609
H239	H	0.897730	-0.149480	-0.154382
H240	H	1.397730	0.350520	0.345618
H241	H	0.945744	-0.116985	-0.090854
H242	H	1.445744	0.383015	0.409146
H243	H	0.680747	-0.000071	-0.018868
H244	H	1.180747	0.499929	0.481132
N245	N	1.034972	-0.566098	0.243082
N246	N	1.534972	-0.066098	0.743082
H247	H	1.001964	-0.592487	0.280178
H248	H	1.501964	-0.092487	0.780178
H249	H	1.072082	-0.592450	0.210042
H250	H	1.572082	-0.092450	0.710042
N251	N	0.989080	-0.141341	0.197238
N252	N	1.489080	0.358659	0.697238
H253	H	1.018111	-0.171132	0.226278
H254	H	1.518111	0.328868	0.726278
H255	H	1.026135	-0.114946	0.164192
H256	H	1.526135	0.385054	0.664192
H257	H	0.977003	-0.265137	0.185115
H258	H	1.477003	0.234863	0.685115
H259	H	1.022841	-0.442330	0.230961
H260	H	1.522841	0.057670	0.730961
N261	N	0.989165	-0.726516	0.197233
N262	N	1.489165	-0.226516	0.697233
H263	H	1.018189	-0.756309	0.226276
H264	H	1.518189	-0.256309	0.726276
H265	H	1.026224	-0.700125	0.164187
H266	H	1.526224	-0.200125	0.664187
H267	H	0.977064	-0.850329	0.185113
H268	H	1.477064	-0.350329	0.685113
