data_functionalizedCrystal
_audit_creation_method	'MofGen! by Chris Wilmer'
_symmetry_space_group_name_H-M	'P1'
_symmetry_Int_Tables_number	1
_symmetry_cell_setting	triclinic
loop_
_symmetry_equiv_pos_as_xyz
  x,y,z
_cell_length_a	14.519709
_cell_length_b	17.019294
_cell_length_c	12.996460
_cell_angle_alpha	86.114884
_cell_angle_beta	90.000034
_cell_angle_gamma	83.537243
loop_
_atom_site_label
_atom_site_type_symbol
_atom_site_fract_x
_atom_site_fract_y
_atom_site_fract_z
O1	O	1.223534	0.103407	-0.094594
O2	O	0.955017	0.115585	-0.095704
O3	O	1.096766	-0.005327	-0.084969
O4	O	1.081785	0.224318	-0.105328
O5	O	1.096751	-0.005333	0.086165
O6	O	0.955002	0.115578	0.075431
O7	O	1.223519	0.103400	0.076541
Cu8	Cu	1.089259	0.109489	0.091612
Cu9	Cu	1.089277	0.109496	-0.110775
O10	O	1.081770	0.224312	0.065806
C11	C	0.920652	0.115014	-0.010090
C12	C	0.818276	0.113313	-0.009952
C13	C	0.443401	0.107052	-0.009350
C14	C	0.547703	0.108791	-0.009517
C15	C	0.630835	0.110182	-0.009652
C16	C	0.735144	0.111921	-0.009817
C17	C	1.096190	-0.034720	0.003201
C18	C	1.094486	-0.122293	0.010958
C19	C	1.093695	-0.163427	-0.078683
C20	C	1.092088	-0.245710	-0.071392
C21	C	1.091278	-0.286859	0.025541
C22	C	1.092066	-0.245719	0.115188
C23	C	1.093666	-0.163437	0.107896
C24	C	1.086439	-0.535299	0.052226
C25	C	1.084841	-0.617588	0.059511
C26	C	1.084861	-0.617573	-0.127070
C27	C	1.086467	-0.535290	-0.134354
C28	C	1.087250	-0.494156	-0.044706
C29	C	1.089638	-0.370966	0.032996
C30	C	1.088884	-0.410050	-0.052163
C31	C	1.257884	0.103971	-0.009075
C32	C	1.360260	0.105672	-0.009221
C33	C	1.082346	0.253705	-0.022366
C34	C	1.084050	0.341278	-0.030130
N35	N	1.089254	0.109482	0.233959
N36	N	1.089290	0.109496	-0.253122
C37	C	1.089275	0.109497	0.653772
C38	C	1.089267	0.109496	0.536967
C39	C	1.089265	0.109490	0.443869
C40	C	1.089255	0.109488	0.327057
H41	H	1.091448	-0.279198	-0.144387
C42	C	1.087311	-0.490056	0.150831
C43	C	1.168452	-0.442331	0.172263
C44	C	1.169327	-0.397082	0.270872
C45	C	1.089063	-0.399557	0.348050
C46	C	1.007916	-0.447284	0.326620
C47	C	1.007041	-0.492534	0.228011
H48	H	1.227874	-0.440497	0.115129
H49	H	1.229397	-0.361751	0.286735
H50	H	1.089711	-0.366061	0.421046
H51	H	0.948494	-0.449119	0.383754
H52	H	0.946971	-0.527864	0.212149
C53	C	1.083987	-0.662821	-0.225676
C54	C	1.162927	-0.728233	-0.245534
C55	C	1.162048	-0.773480	-0.344145
C56	C	1.082229	-0.753314	-0.422899
C57	C	1.003284	-0.687899	-0.403043
C58	C	1.004163	-0.642652	-0.304432
H59	H	1.222019	-0.743163	-0.187234
H60	H	1.220489	-0.821904	-0.358843
H61	H	1.081578	-0.786808	-0.495896
H62	H	0.944192	-0.672968	-0.461343
H63	H	0.945721	-0.594227	-0.289735
H64	H	1.091401	-0.279229	0.194113
C65	C	1.094537	-0.118185	0.206502
C66	C	1.014266	-0.120661	0.283671
C67	C	1.015131	-0.075410	0.382279
C68	C	1.096267	-0.027682	0.403718
C69	C	1.176544	-0.025204	0.326547
C70	C	1.175679	-0.070456	0.227939
H71	H	0.954199	-0.155994	0.267802
H72	H	0.955704	-0.077244	0.439406
H73	H	1.096907	0.005816	0.476714
H74	H	1.236611	0.010128	0.342415
H75	H	1.235106	-0.068621	0.170812
H76	H	1.089537	-0.376542	-0.131085
H77	H	1.094360	-0.129930	-0.157616
H78	H	1.087128	-0.501792	-0.213287
H79	H	1.084176	-0.651089	0.138449
H80	H	1.088981	-0.404479	0.111919
