data_functionalizedCrystal
_audit_creation_method	'MofGen! by Chris Wilmer'
_symmetry_space_group_name_H-M	'P1'
_symmetry_Int_Tables_number	1
_symmetry_cell_setting	triclinic
loop_
_symmetry_equiv_pos_as_xyz
  x,y,z
_cell_length_a	19.288864
_cell_length_b	17.766277
_cell_length_c	19.288857
_cell_angle_alpha	89.991474
_cell_angle_beta	96.865323
_cell_angle_gamma	90.023209
loop_
_atom_site_label
_atom_site_type_symbol
_atom_site_fract_x
_atom_site_fract_y
_atom_site_fract_z
O1	O	-0.921351	-0.062839	0.086649
O2	O	-0.671351	0.187161	0.336649
O3	O	-0.421351	0.437161	0.586649
O4	O	-0.171351	0.687161	0.836649
O5	O	-0.719090	-0.062788	0.098338
O6	O	-0.469090	0.187212	0.348338
O7	O	-0.219090	0.437212	0.598338
O8	O	0.030910	0.687212	0.848338
O9	O	-0.826067	-0.062806	-0.008637
O10	O	-0.576067	0.187194	0.241363
O11	O	-0.326067	0.437194	0.491363
O12	O	-0.076067	0.687194	0.741363
O13	O	-0.814373	-0.062821	0.193624
O14	O	-0.564373	0.187179	0.443624
O15	O	-0.314373	0.437179	0.693624
O16	O	-0.064373	0.687179	0.943624
O17	O	-0.826049	0.062382	-0.008643
O18	O	-0.576049	0.312382	0.241357
O19	O	-0.326049	0.562382	0.491357
O20	O	-0.076049	0.812382	0.741357
O21	O	-0.719071	0.062400	0.098332
O22	O	-0.469071	0.312400	0.348332
O23	O	-0.219071	0.562400	0.598332
O24	O	0.030929	0.812400	0.848332
O25	O	-0.921332	0.062349	0.086644
O26	O	-0.671332	0.312349	0.336644
O27	O	-0.421332	0.562349	0.586644
O28	O	-0.171332	0.812349	0.836644
Cu29	Cu	-0.820200	0.073806	0.092488
Cu30	Cu	-0.570200	0.323806	0.342488
Cu31	Cu	-0.320200	0.573806	0.592488
Cu32	Cu	-0.070200	0.823806	0.842488
Cu33	Cu	-0.820222	-0.074244	0.092494
Cu34	Cu	-0.570222	0.175756	0.342494
Cu35	Cu	-0.320222	0.425756	0.592494
Cu36	Cu	-0.070222	0.675756	0.842494
O37	O	-0.814354	0.062367	0.193619
O38	O	-0.564354	0.312367	0.443619
O39	O	-0.314354	0.562367	0.693619
O40	O	-0.064354	0.812367	0.943619
C41	C	-0.693204	-0.000187	0.097959
C42	C	-0.443204	0.249813	0.347959
C43	C	-0.193204	0.499813	0.597959
C44	C	0.056796	0.749813	0.847959
C45	C	-0.616100	-0.000167	0.096830
C46	C	-0.366100	0.249833	0.346830
C47	C	-0.116100	0.499833	0.596830
C48	C	0.133900	0.749833	0.846830
C49	C	-0.825683	-0.000211	-0.034516
C50	C	-0.575683	0.249789	0.215484
C51	C	-0.325683	0.499789	0.465484
C52	C	-0.075683	0.749789	0.715484
C53	C	-0.824556	-0.000209	-0.111620
C54	C	-0.574556	0.249791	0.138380
C55	C	-0.324556	0.499791	0.388380
C56	C	-0.074556	0.749791	0.638380
C57	C	-0.947218	-0.000253	0.087022
C58	C	-0.697218	0.249747	0.337022
C59	C	-0.447218	0.499747	0.587022
C60	C	-0.197218	0.749747	0.837022
C61	C	-1.024321	-0.000278	0.088151
C62	C	-0.774321	0.249722	0.338151
C63	C	-0.524321	0.499722	0.588151
C64	C	-0.274321	0.749722	0.838151
N65	N	-0.820189	0.177936	0.092483
N66	N	-0.570189	0.427936	0.342483
N67	N	-0.320189	0.677936	0.592483
N68	N	-0.070189	0.927936	0.842483
C69	C	-0.571402	-0.000184	0.159598
C70	C	-0.321402	0.249816	0.409598
C71	C	-0.071402	0.499816	0.659598
C72	C	0.178598	0.749816	0.909598
C73	C	-0.498955	-0.000192	0.158537
C74	C	-0.248955	0.249808	0.408537
C75	C	0.001045	0.499808	0.658537
C76	C	0.251045	0.749808	0.908537
C77	C	-0.471210	-0.000199	0.094705
C78	C	-0.221210	0.249801	0.344705
C79	C	0.028790	0.499801	0.594705
C80	C	0.278790	0.749801	0.844705
C81	C	-0.515917	-0.000178	0.031929
C82	C	-0.265917	0.249822	0.281929
C83	C	-0.015917	0.499822	0.531929
C84	C	0.234083	0.749822	0.781929
C85	C	-0.588363	-0.000162	0.032991
C86	C	-0.338363	0.249838	0.282991
C87	C	-0.088363	0.499838	0.532991
C88	C	0.161637	0.749838	0.782991
C89	C	-0.362955	-0.044080	0.044528
C90	C	-0.112955	0.205920	0.294528
C91	C	0.137045	0.455920	0.544528
C92	C	0.387045	0.705920	0.794528
C93	C	-0.290511	-0.044100	0.043468
C94	C	-0.040511	0.205900	0.293468
C95	C	0.209489	0.455900	0.543468
C96	C	0.459489	0.705900	0.793468
C97	C	-0.247764	-0.000244	0.091425
C98	C	0.002236	0.249756	0.341425
C99	C	0.252236	0.499756	0.591425
C100	C	0.502236	0.749756	0.841425
C101	C	-0.277469	0.043622	0.140455
C102	C	-0.027469	0.293622	0.390455
C103	C	0.222531	0.543622	0.640455
C104	C	0.472531	0.793622	0.890455
C105	C	-0.349914	0.043638	0.141517
C106	C	-0.099914	0.293638	0.391517
C107	C	0.150086	0.543638	0.641517
C108	C	0.400086	0.793638	0.891517
C109	C	-0.392656	-0.000216	0.093546
C110	C	-0.142656	0.249784	0.343546
C111	C	0.107344	0.499784	0.593546
C112	C	0.357344	0.749784	0.843546
C113	C	-0.124510	-0.000269	0.153048
C114	C	0.125490	0.249731	0.403048
C115	C	0.375490	0.499731	0.653048
C116	C	0.625490	0.749731	0.903048
C117	C	-0.052062	-0.000272	0.151984
C118	C	0.197938	0.249728	0.401984
C119	C	0.447938	0.499728	0.651984
C120	C	0.697938	0.749728	0.901984
C121	C	-0.069026	-0.000266	0.025374
C122	C	0.180974	0.249734	0.275374
C123	C	0.430974	0.499734	0.525374
C124	C	0.680974	0.749734	0.775374
C125	C	-0.141472	-0.000255	0.026439
C126	C	0.108528	0.249745	0.276439
C127	C	0.358528	0.499745	0.526439
C128	C	0.608528	0.749745	0.776439
C129	C	-0.169210	-0.000260	0.090278
C130	C	0.080790	0.249740	0.340278
C131	C	0.330790	0.499740	0.590278
C132	C	0.580790	0.749740	0.840278
N133	N	-0.820238	-0.178375	0.092493
N134	N	-0.570238	0.071625	0.342493
N135	N	-0.320238	0.321625	0.592493
N136	N	-0.070238	0.571625	0.842493
C137	C	-0.867574	0.217315	0.045137
C138	C	-0.617574	0.467315	0.295137
C139	C	-0.367574	0.717315	0.545137
C140	C	-0.117574	0.967315	0.795137
C141	C	-0.867578	0.296117	0.045134
C142	C	-0.617578	0.546117	0.295134
C143	C	-0.367578	0.796117	0.545134
C144	C	-0.117578	1.046117	0.795134
C145	C	-0.820204	0.335537	0.092488
C146	C	-0.570204	0.585537	0.342488
C147	C	-0.320204	0.835537	0.592488
C148	C	-0.070204	1.085537	0.842488
C149	C	-0.772810	0.296148	0.139837
C150	C	-0.522810	0.546148	0.389837
C151	C	-0.272810	0.796148	0.639837
C152	C	-0.022810	1.046148	0.889837
C153	C	-0.772803	0.217348	0.139834
C154	C	-0.522803	0.467348	0.389834
C155	C	-0.272803	0.717348	0.639834
C156	C	-0.022803	0.967348	0.889834
C157	C	-0.810903	0.460371	0.155776
C158	C	-0.560903	0.710371	0.405776
C159	C	-0.310903	0.960371	0.655776
C160	C	-0.060903	1.210371	0.905776
C161	C	-0.810915	0.539170	0.155780
C162	C	-0.560915	0.789170	0.405780
C163	C	-0.310915	1.039170	0.655780
C164	C	-0.060915	1.289170	0.905780
C165	C	-0.820222	0.578583	0.092496
C166	C	-0.570222	0.828583	0.342496
C167	C	-0.320222	1.078583	0.592496
C168	C	-0.070222	1.328583	0.842496
C169	C	-0.829532	0.539187	0.029207
C170	C	-0.579532	0.789187	0.279207
C171	C	-0.329532	1.039187	0.529207
C172	C	-0.079532	1.289187	0.779207
C173	C	-0.829525	0.460387	0.029204
C174	C	-0.579525	0.710387	0.279204
C175	C	-0.329525	0.960387	0.529204
C176	C	-0.079525	1.210387	0.779204
C177	C	-0.820206	0.420982	0.092496
C178	C	-0.570206	0.670982	0.342496
C179	C	-0.320206	0.920982	0.592496
C180	C	-0.070206	1.170982	0.842496
C181	C	-0.867614	0.703408	0.045144
C182	C	-0.617614	0.953408	0.295144
C183	C	-0.367614	1.203408	0.545144
C184	C	-0.117614	1.453408	0.795144
C185	C	-0.867614	0.782211	0.045139
C186	C	-0.617614	1.032211	0.295139
C187	C	-0.367614	1.282211	0.545139
C188	C	-0.117614	1.532211	0.795139
C189	C	-0.772849	0.782241	0.139849
C190	C	-0.522849	1.032241	0.389849
C191	C	-0.272849	1.282241	0.639849
C192	C	-0.022849	1.532241	0.889849
C193	C	-0.772846	0.703439	0.139847
C194	C	-0.522846	0.953439	0.389847
C195	C	-0.272846	1.203439	0.639847
C196	C	-0.022846	1.453439	0.889847
C197	C	-0.820233	0.664027	0.092495
C198	C	-0.570233	0.914027	0.342495
C199	C	-0.320233	1.164027	0.592495
C200	C	-0.070233	1.414027	0.842495
C201	C	-0.824040	-0.068449	-0.147828
C202	C	-0.574040	0.181551	0.102172
C203	C	-0.324040	0.431551	0.352172
C204	C	-0.074040	0.681551	0.602172
C205	C	-0.822971	-0.068454	-0.220274
C206	C	-0.572971	0.181546	0.029726
C207	C	-0.322971	0.431546	0.279726
C208	C	-0.072971	0.681546	0.529726
C209	C	-0.822432	-0.000215	-0.256511
C210	C	-0.572432	0.249785	-0.006511
C211	C	-0.322432	0.499785	0.243489
C212	C	-0.072432	0.749785	0.493489
C213	C	-0.822944	0.068034	-0.220295
C214	C	-0.572944	0.318034	0.029705
C215	C	-0.322944	0.568034	0.279705
C216	C	-0.072944	0.818034	0.529705
C217	C	-0.824006	0.068037	-0.147849
C218	C	-0.574006	0.318037	0.102151
C219	C	-0.324006	0.568037	0.352151
C220	C	-0.074006	0.818037	0.602151
C221	C	-0.861426	0.052050	-0.376745
C222	C	-0.611426	0.302050	-0.126745
C223	C	-0.361426	0.552050	0.123255
C224	C	-0.111426	0.802050	0.373255
C225	C	-0.860369	0.052044	-0.449190
C226	C	-0.610369	0.302044	-0.199190
C227	C	-0.360369	0.552044	0.050810
C228	C	-0.110369	0.802044	0.300810
C229	C	-0.819155	-0.000223	-0.479957
C230	C	-0.569155	0.249777	-0.229957
C231	C	-0.319155	0.499777	0.020043
C232	C	-0.069155	0.749777	0.270043
C233	C	-0.779007	-0.052496	-0.438272
C234	C	-0.529007	0.197504	-0.188272
C235	C	-0.279007	0.447504	0.061728
C236	C	-0.029007	0.697504	0.311728
C237	C	-0.780069	-0.052493	-0.365827
C238	C	-0.530069	0.197507	-0.115827
C239	C	-0.280069	0.447507	0.134173
C240	C	-0.030069	0.697507	0.384173
C241	C	-0.821281	-0.000211	-0.335066
C242	C	-0.571281	0.249789	-0.085066
C243	C	-0.321281	0.499789	0.164934
C244	C	-0.071281	0.749789	0.414934
C245	C	-0.817479	-0.068474	-0.594719
C246	C	-0.567479	0.181526	-0.344719
C247	C	-0.317479	0.431526	-0.094719
C248	C	-0.067479	0.681526	0.155281
C249	C	-0.816406	-0.068476	-0.667166
C250	C	-0.566406	0.181524	-0.417166
C251	C	-0.316406	0.431524	-0.167166
C252	C	-0.066406	0.681524	0.082834
C253	C	-0.816386	0.068014	-0.667186
C254	C	-0.566386	0.318014	-0.417186
C255	C	-0.316386	0.568014	-0.167186
C256	C	-0.066386	0.818014	0.082814
C257	C	-0.817452	0.068014	-0.594740
C258	C	-0.567452	0.318014	-0.344740
C259	C	-0.317452	0.568014	-0.094740
C260	C	-0.067452	0.818014	0.155260
C261	C	-0.818002	-0.000232	-0.558511
C262	C	-0.568002	0.249768	-0.308511
C263	C	-0.318002	0.499768	-0.058511
C264	C	-0.068002	0.749768	0.191489
C265	C	-0.814739	-0.000229	0.219498
C266	C	-0.564739	0.249771	0.469498
C267	C	-0.314739	0.499771	0.719498
C268	C	-0.064739	0.749771	0.969498
C269	C	-0.815866	-0.000237	0.296602
C270	C	-0.565866	0.249763	0.546602
C271	C	-0.315866	0.499763	0.796602
C272	C	-0.065866	0.749763	1.046602
H273	H	-0.593981	-0.000189	0.211581
H274	H	-0.343981	0.249811	0.461581
H275	H	-0.093981	0.499811	0.711581
H276	H	0.156019	0.749811	0.961581
H277	H	-0.803340	0.571240	0.207314
H278	H	-0.553340	0.821240	0.457314
H279	H	-0.303340	1.071240	0.707314
H280	H	-0.053340	1.321240	0.957314
H281	H	-0.462555	-0.000204	0.209652
H282	H	-0.212555	0.249796	0.459652
H283	H	0.037445	0.499796	0.709652
H284	H	0.287445	0.749796	0.959652
F285	F	-0.189045	-0.000241	-0.040368
F286	F	0.060955	0.249759	0.209632
F287	F	0.310955	0.499759	0.459632
F288	F	0.560955	0.749759	0.709632
F289	F	-0.824553	0.140671	-0.109313
F290	F	-0.574553	0.390671	0.140687
F291	F	-0.324553	0.640671	0.390687
F292	F	-0.074553	0.890671	0.640687
F293	F	-0.815852	-0.141111	-0.705700
F294	F	-0.565852	0.108889	-0.455700
F295	F	-0.315852	0.358889	-0.205700
F296	F	-0.065852	0.608889	0.044300
H297	H	-0.906197	0.671317	0.006585
H298	H	-0.656197	0.921317	0.256585
H299	H	-0.406197	1.171317	0.506585
H300	H	-0.156197	1.421317	0.756585
H301	H	-0.374097	0.079358	0.181436
H302	H	-0.124097	0.329358	0.431436
H303	H	0.125903	0.579358	0.681436
H304	H	0.375903	0.829358	0.931436
F305	F	-0.839442	0.581126	-0.038149
F306	F	-0.589442	0.831126	0.211851
F307	F	-0.339442	1.081126	0.461851
F308	F	-0.089442	1.331126	0.711851
F309	F	-0.903100	0.107674	-0.493548
F310	F	-0.653100	0.357674	-0.243548
F311	F	-0.403100	0.607674	0.006452
F312	F	-0.153100	0.857674	0.256452
H313	H	-0.242665	0.079334	0.179506
H314	H	0.007335	0.329334	0.429506
H315	H	0.257335	0.579334	0.679506
H316	H	0.507335	0.829334	0.929506
H317	H	-0.624757	-0.000149	-0.018124
H318	H	-0.374757	0.249851	0.231876
H319	H	-0.124757	0.499851	0.481876
H320	H	0.125243	0.749851	0.731876
F321	F	-0.258903	-0.090793	-0.008707
F322	F	-0.008903	0.159207	0.241293
F323	F	0.241097	0.409207	0.491293
F324	F	0.491097	0.659207	0.741293
H325	H	-0.824486	-0.124020	-0.118335
H326	H	-0.574486	0.125980	0.131665
H327	H	-0.324486	0.375980	0.381665
H328	H	-0.074486	0.625980	0.631665
H329	H	-0.745447	-0.095057	-0.463321
H330	H	-0.495447	0.154943	-0.213321
H331	H	-0.245447	0.404943	0.036679
H332	H	0.004553	0.654943	0.286679
H333	H	-0.147095	-0.000262	0.205029
H334	H	0.102905	0.249738	0.455029
H335	H	0.352905	0.499738	0.705029
H336	H	0.602905	0.749738	0.955029
H337	H	-0.747378	-0.095054	-0.331889
H338	H	-0.497378	0.154946	-0.081889
H339	H	-0.247378	0.404946	0.168111
H340	H	0.002622	0.654946	0.418111
F341	F	-0.801048	0.418433	0.223137
F342	F	-0.551048	0.668433	0.473137
F343	F	-0.301048	0.918433	0.723137
F344	F	-0.051048	1.168433	0.973137
H345	H	-0.015669	-0.000281	0.203100
H346	H	0.234331	0.249719	0.453100
H347	H	0.484331	0.499719	0.703100
H348	H	0.734331	0.749719	0.953100
F349	F	-0.822366	0.140658	-0.258861
F350	F	-0.572366	0.390658	-0.008861
F351	F	-0.322366	0.640658	0.241139
F352	F	-0.072366	0.890658	0.491139
F353	F	-0.722416	0.661526	0.190241
F354	F	-0.472416	0.911526	0.440241
F355	F	-0.222416	1.161526	0.690241
F356	F	0.027584	1.411526	0.940241
H357	H	-0.906157	0.185228	0.006579
H358	H	-0.656157	0.435228	0.256579
H359	H	-0.406157	0.685228	0.506579
H360	H	-0.156157	0.935228	0.756579
F361	F	-0.039502	-0.000266	-0.042562
F362	F	0.210498	0.249734	0.207438
F363	F	0.460498	0.499734	0.457438
F364	F	0.710498	0.749734	0.707438
F365	F	-0.722388	0.338102	0.190233
F366	F	-0.472388	0.588102	0.440233
F367	F	-0.222388	0.838102	0.690233
F368	F	0.027612	1.088102	0.940233
H369	H	-0.734215	0.185285	0.178389
H370	H	-0.484215	0.435285	0.428389
H371	H	-0.234215	0.685285	0.678389
H372	H	0.015785	0.935285	0.928389
H373	H	-0.906198	0.814274	0.006581
H374	H	-0.656198	1.064274	0.256581
H375	H	-0.406198	1.314274	0.506581
H376	H	-0.156198	1.564274	0.756581
F377	F	-0.408444	-0.090760	-0.006520
F378	F	-0.158444	0.159240	0.243480
F379	F	0.091556	0.409240	0.493480
F380	F	0.341556	0.659240	0.743480
H381	H	-0.493322	-0.000194	-0.020044
H382	H	-0.243322	0.249806	0.229956
H383	H	0.006678	0.499806	0.479956
H384	H	0.256678	0.749806	0.729956
H385	H	-0.817878	0.123583	-0.565260
H386	H	-0.567878	0.373583	-0.315260
H387	H	-0.317878	0.623583	-0.065260
H388	H	-0.067878	0.873583	0.184740
H389	H	-0.906166	0.328185	0.006578
H390	H	-0.656166	0.578185	0.256578
H391	H	-0.406166	0.828185	0.506578
H392	H	-0.156166	1.078185	0.756578
H393	H	-0.837103	0.428314	-0.022328
H394	H	-0.587103	0.678314	0.227672
H395	H	-0.337103	0.928314	0.477672
H396	H	-0.087103	1.178314	0.727672
F397	F	-0.722425	0.824190	0.190242
F398	F	-0.472425	1.074190	0.440242
F399	F	-0.222425	1.324190	0.690242
F400	F	0.027575	1.574190	0.940242
F401	F	-0.822422	-0.141088	-0.258817
F402	F	-0.572422	0.108912	-0.008817
F403	F	-0.322422	0.358912	0.241183
F404	F	-0.072422	0.608912	0.491183
H405	H	-0.817923	-0.124044	-0.565220
H406	H	-0.567923	0.125956	-0.315220
H407	H	-0.317923	0.375956	-0.065220
H408	H	-0.067923	0.625956	0.184780
F409	F	-0.815809	0.140639	-0.705747
F410	F	-0.565809	0.390639	-0.455747
F411	F	-0.315809	0.640639	-0.205747
F412	F	-0.065809	0.890639	0.044253
H413	H	-0.894987	0.094617	-0.351701
H414	H	-0.644987	0.344617	-0.101701
H415	H	-0.394987	0.594617	0.148299
H416	H	-0.144987	0.844617	0.398299
