data_functionalizedCrystal
_audit_creation_method	'MofGen! by Chris Wilmer'
_symmetry_space_group_name_H-M	'P1'
_symmetry_Int_Tables_number	1
_symmetry_cell_setting	triclinic
loop_
_symmetry_equiv_pos_as_xyz
  x,y,z
_cell_length_a	17.640112
_cell_length_b	19.077068
_cell_length_c	19.076919
_cell_angle_alpha	94.470751
_cell_angle_beta	77.038285
_cell_angle_gamma	76.960565
loop_
_atom_site_label
_atom_site_type_symbol
_atom_site_fract_x
_atom_site_fract_y
_atom_site_fract_z
Zn1	Zn	1.196685	0.072021	0.185764
Zn2	Zn	1.196585	0.185193	0.072627
Zn3	Zn	1.067866	0.091489	0.092016
Zn4	Zn	1.056565	0.216177	0.216690
O5	O	1.129425	0.141220	0.141774
O6	O	1.309182	0.065919	0.149699
O7	O	1.184198	0.167944	-0.024326
O8	O	1.089725	-0.010638	0.099623
O9	O	1.309109	0.149066	0.066578
O10	O	1.184368	-0.024941	0.168500
O11	O	1.089628	0.099100	-0.010081
O12	O	0.953857	0.129144	0.129611
O13	O	1.070465	0.201873	0.312113
O14	O	0.945554	0.220751	0.221209
O15	O	1.173410	0.095963	0.289391
O16	O	1.173241	0.288848	0.096566
O17	O	1.070369	0.311612	0.202409
C18	C	1.120589	0.326037	0.150751
C19	C	1.116881	0.405090	0.154601
C20	C	0.920533	0.180423	0.180871
C21	C	0.831166	0.197212	0.197614
C22	C	1.120688	0.150203	0.327279
C23	C	1.116965	0.154030	0.406330
C24	C	0.558750	0.013664	0.014584
C25	C	0.474775	0.029455	0.030327
C26	C	0.466186	0.124963	0.125557
C27	C	0.550162	0.109178	0.109824
C28	C	0.596437	0.053528	0.054336
C29	C	0.587849	0.149042	0.149576
C30	C	0.671817	0.133261	0.133842
C31	C	0.718099	0.077615	0.078355
C32	C	0.680406	0.037747	0.038602
C33	C	0.541572	0.204695	0.205060
C34	C	0.579259	0.244559	0.244813
C35	C	0.663229	0.228775	0.229082
C36	C	0.709510	0.173129	0.173596
C37	C	0.700922	0.268643	0.268836
C38	C	0.784890	0.252861	0.253102
C39	C	0.793479	0.157347	0.157861
C40	C	1.339134	0.101865	0.102526
C41	C	1.428499	0.085094	0.085801
C42	C	1.138318	-0.044322	0.132775
C43	C	1.142107	-0.123389	0.128939
C44	C	1.168737	0.430349	0.101333
C45	C	1.165254	0.504628	0.104958
C46	C	1.109910	0.553647	0.161848
C47	C	1.058052	0.528384	0.215120
C48	C	1.061539	0.454106	0.211498
C49	C	1.093736	0.777070	0.178590
C50	C	1.090251	0.851352	0.182207
C51	C	1.197455	0.827590	0.072045
C52	C	1.200934	0.753312	0.068425
C53	C	1.149078	0.728055	0.121700
N54	N	1.106347	0.629573	0.165553
N55	N	1.152646	0.652130	0.117997
C56	C	1.138177	0.132213	-0.043020
C57	C	1.142066	0.128155	-0.122109
C58	C	1.168811	0.100689	0.431641
C59	C	1.165303	0.104285	0.505919
C60	C	1.109952	0.161225	0.554886
C61	C	1.058100	0.214569	0.529571
C62	C	1.061605	0.210970	0.455295
C63	C	1.093719	0.177900	0.778299
C64	C	1.090220	0.181496	0.852580
C65	C	1.197422	0.071211	0.828923
C66	C	1.200925	0.067619	0.754645
C67	C	1.149070	0.120961	0.729338
N68	N	1.106367	0.164903	0.630810
N69	N	1.152653	0.117279	0.653415
H70	H	0.831159	0.112022	0.112688
H71	H	1.012993	0.568302	0.261444
O72	O	1.254663	0.705780	0.013077
C73	C	1.239634	0.723816	-0.053657
H74	H	1.206262	0.783498	-0.046738
H75	H	1.299073	0.713892	-0.096246
H76	H	1.201415	0.688643	-0.071949
O77	O	1.036511	0.236773	0.900244
C78	C	1.044526	0.228497	0.971231
H79	H	1.107217	0.194059	0.968633
H80	H	1.035173	0.284171	1.003071
H81	H	0.997669	0.200572	0.999390
H82	H	1.246000	0.021254	0.714780
H83	H	0.786471	0.064768	0.065544
H84	H	1.019314	0.433542	0.254875
H85	H	0.663232	0.313957	0.314009
O86	O	0.459996	0.220152	0.220410
C87	C	0.427233	0.277813	0.277911
H88	H	0.473190	0.310761	0.280756
H89	H	0.370794	0.314296	0.268227
H90	H	0.411223	0.255010	0.331243
O91	O	0.725485	-0.016312	-0.015252
C92	C	0.807678	-0.021676	-0.020625
H93	H	0.815461	0.002208	0.033206
H94	H	0.842352	-0.081189	-0.033923
H95	H	0.831685	0.009615	-0.065502
H96	H	1.051507	0.221343	0.757702
H97	H	1.207523	0.060851	0.526522
H98	H	1.013030	0.260929	0.569447
H99	H	1.213886	0.054324	0.391776
O100	O	0.821377	0.291630	0.291810
C101	C	0.762527	0.344141	0.344148
H102	H	0.703939	0.326384	0.356461
H103	H	0.783803	0.349960	0.395994
H104	H	0.752254	0.398540	0.322314
H105	H	0.541570	0.289871	0.289989
O106	O	1.222536	0.382654	0.046156
C107	C	1.274553	0.331864	0.074873
H108	H	1.244132	0.328672	0.133523
H109	H	1.289172	0.276207	0.041340
H110	H	1.332415	0.349641	0.072975
O111	O	1.247703	0.019437	0.853634
C112	C	1.232757	0.034829	0.929690
H113	H	1.169116	0.070264	0.952574
H114	H	1.239430	-0.018111	0.954313
H115	H	1.277639	0.064779	0.943683
O116	O	1.247799	0.852243	0.020381
C117	C	1.232847	0.928315	0.035766
H118	H	1.203395	0.946066	0.096064
H119	H	1.291980	0.944960	0.021096
H120	H	1.191076	0.955431	0.002579
O121	O	1.036469	0.898869	0.237543
C122	C	0.991435	0.860652	0.283781
H123	H	1.026732	0.801617	0.277521
H124	H	0.979171	0.886430	0.342468
H125	H	0.931989	0.863005	0.268743
O126	O	1.043331	0.752462	0.230237
C127	C	0.995352	0.717345	0.197327
H128	H	1.026821	0.698279	0.137592
H129	H	0.985638	0.668538	0.225763
H130	H	0.934800	0.756821	0.202016
H131	H	1.207480	0.525189	0.061581
H132	H	1.019379	0.254400	0.434690
H133	H	0.428497	0.170275	0.170733
H134	H	0.444094	-0.003016	-0.002044
O135	O	0.603589	-0.040395	-0.039365
C136	C	0.552323	-0.072213	-0.071069
H137	H	0.491194	-0.031960	-0.060945
H138	H	0.579572	-0.087150	-0.132008
H139	H	0.544746	-0.123258	-0.045890
