data_functionalizedCrystal
_audit_creation_method	'MofGen! by Chris Wilmer'
_symmetry_space_group_name_H-M	'P1'
_symmetry_Int_Tables_number	1
_symmetry_cell_setting	triclinic
loop_
_symmetry_equiv_pos_as_xyz
  x,y,z
_cell_length_a	25.639242
_cell_length_b	25.639240
_cell_length_c	12.759393
_cell_angle_alpha	90.039325
_cell_angle_beta	89.978478
_cell_angle_gamma	89.964534
loop_
_atom_site_label
_atom_site_type_symbol
_atom_site_fract_x
_atom_site_fract_y
_atom_site_fract_z
Zn1	Zn	0.799246	0.208226	-0.594042
Zn2	Zn	1.299246	0.708226	-0.094042
Zn3	Zn	0.799151	0.295673	-0.418339
Zn4	Zn	1.299151	0.795673	0.081661
Zn5	Zn	0.711811	0.208242	-0.418369
Zn6	Zn	1.211811	0.708242	0.081631
Zn7	Zn	0.711760	0.295621	-0.593968
Zn8	Zn	1.211760	0.795621	-0.093968
O9	O	0.755492	0.251941	-0.506179
O10	O	1.255492	0.751941	-0.006179
O11	O	0.872398	0.219842	-0.570753
O12	O	1.372398	0.719842	-0.070753
O13	O	0.787547	0.284104	-0.271322
O14	O	1.287547	0.784104	0.228678
O15	O	0.723470	0.135075	-0.441716
O16	O	1.223470	0.635075	0.058284
O17	O	0.872329	0.284089	-0.441665
O18	O	1.372329	0.784089	0.058335
O19	O	0.787708	0.135063	-0.570782
O20	O	1.287708	0.635063	-0.070782
O21	O	0.723379	0.219868	-0.271344
O22	O	1.223379	0.719868	0.228656
O23	O	0.638639	0.219818	-0.441644
O24	O	1.138639	0.719818	0.058356
O25	O	0.723384	0.283999	-0.740999
O26	O	1.223384	0.783999	-0.240999
O27	O	0.638602	0.284014	-0.570656
O28	O	1.138602	0.784014	-0.070656
O29	O	0.787659	0.219791	-0.741053
O30	O	1.287659	0.719791	-0.241053
O31	O	0.787498	0.368832	-0.441593
O32	O	1.287498	0.868832	0.058407
O33	O	0.723292	0.368793	-0.570627
O34	O	1.223292	0.868793	-0.070627
C35	C	0.619650	0.251912	-0.506145
C36	C	1.119650	0.751912	-0.006145
C37	C	0.561536	0.251913	-0.506156
C38	C	1.061536	0.751913	-0.006156
C39	C	0.310386	0.218547	-0.573518
C40	C	0.810386	0.718547	-0.073518
C41	C	0.364991	0.218541	-0.573512
C42	C	0.864991	0.718541	-0.073512
O43	O	0.393265	0.190149	-0.630779
O44	O	0.893265	0.690149	-0.130779
N45	N	0.392262	0.251935	-0.506191
N46	N	0.892262	0.751935	-0.006191
C47	C	0.364926	0.285339	-0.438880
C48	C	0.864926	0.785339	0.061120
O49	O	0.393136	0.313742	-0.381618
O50	O	0.893136	0.813742	0.118382
C51	C	0.310322	0.285346	-0.438892
C52	C	0.810322	0.785346	0.061108
C53	C	0.283054	0.251947	-0.506210
C54	C	0.783054	0.751947	-0.006210
C55	C	0.283118	0.185151	-0.640831
C56	C	0.783118	0.685151	-0.140831
C57	C	0.228517	0.185155	-0.640836
C58	C	0.728517	0.685155	-0.140836
C59	C	0.201185	0.218556	-0.573527
C60	C	0.701185	0.718556	-0.073527
C61	C	0.228454	0.251952	-0.506214
C62	C	0.728454	0.751952	-0.006214
C63	C	0.282987	0.318753	-0.371586
C64	C	0.782987	0.818753	0.128414
C65	C	0.228380	0.318757	-0.371605
C66	C	0.728380	0.818757	0.128395
C67	C	0.201112	0.285358	-0.438922
C68	C	0.701112	0.785358	0.061078
C69	C	0.146521	0.285357	-0.438909
C70	C	0.646521	0.785357	0.061091
N71	N	0.119250	0.251964	-0.506230
N72	N	0.619250	0.751964	-0.006230
C73	C	0.146582	0.218563	-0.573539
C74	C	0.646582	0.718563	-0.073539
C75	C	0.479596	0.285321	-0.438861
C76	C	0.979596	0.785321	0.061139
C77	C	0.534199	0.285312	-0.438843
C78	C	1.034199	0.785312	0.061157
C79	C	0.534260	0.218515	-0.573477
C80	C	1.034260	0.718515	-0.073477
C81	C	0.479656	0.218522	-0.573489
C82	C	0.979656	0.718522	-0.073489
C83	C	0.452325	0.251928	-0.506182
C84	C	0.952325	0.751928	-0.006182
C85	C	0.031917	0.218575	-0.573542
C86	C	0.531917	0.718575	-0.073542
C87	C	-0.022689	0.218581	-0.573538
C88	C	0.477311	0.718581	-0.073538
C89	C	-0.022745	0.285379	-0.438908
C90	C	0.477255	0.785379	0.061092
C91	C	0.031856	0.285372	-0.438908
C92	C	0.531856	0.785372	0.061092
C93	C	0.059185	0.251968	-0.506234
C94	C	0.559185	0.751968	-0.006234
O95	O	0.118212	0.313736	-0.381675
O96	O	0.618212	0.813736	0.118325
O97	O	0.118365	0.190169	-0.630801
O98	O	0.618365	0.690169	-0.130801
C99	C	0.755394	0.387783	-0.506121
C100	C	1.255394	0.887783	-0.006121
C101	C	0.755399	0.445897	-0.506132
C102	C	1.255399	0.945897	-0.006132
C103	C	0.788968	0.806268	-0.439066
C104	C	1.288968	1.306268	0.060934
C105	C	0.788984	0.860872	-0.439076
C106	C	1.288984	1.360872	0.060924
O107	O	0.817456	0.889115	-0.382021
O108	O	1.317456	1.389115	0.117979
N109	N	0.755534	0.888180	-0.506203
N110	N	1.255534	1.388180	-0.006203
C111	C	0.722070	0.860880	-0.573332
C112	C	1.222070	1.360880	-0.073332
O113	O	0.693620	0.889121	-0.630430
O114	O	1.193620	1.389121	-0.130430
C115	C	0.722057	0.806277	-0.573326
C116	C	1.222057	1.306277	-0.073326
C117	C	0.755505	0.778972	-0.506187
C118	C	1.255505	1.278972	-0.006187
C119	C	0.822414	0.778963	-0.371933
C120	C	1.322414	1.278963	0.128067
C121	C	0.822397	0.724362	-0.371922
C122	C	1.322397	1.224362	0.128078
C123	C	0.788934	0.697067	-0.439043
C124	C	1.288934	1.197067	0.060957
C125	C	0.755489	0.724371	-0.506176
C126	C	1.255489	1.224371	-0.006176
C127	C	0.688596	0.778978	-0.640459
C128	C	1.188596	1.278978	-0.140459
C129	C	0.688586	0.724371	-0.640449
C130	C	1.188586	1.224371	-0.140449
C131	C	0.722034	0.697066	-0.573310
C132	C	1.222034	1.197066	-0.073310
C133	C	0.722009	0.642475	-0.573286
C134	C	1.222009	1.142475	-0.073286
N135	N	0.755459	0.615168	-0.506159
N136	N	1.255459	1.115168	-0.006159
C137	C	0.788921	0.642463	-0.439038
C138	C	1.288921	1.142463	0.060962
C139	C	0.722101	0.975551	-0.573340
C140	C	1.222101	1.475551	-0.073340
C141	C	0.722111	1.030153	-0.573341
C142	C	1.222111	1.530153	-0.073341
C143	C	0.789025	1.030141	-0.439086
C144	C	1.289025	1.530141	0.060914
C145	C	0.789012	0.975538	-0.439080
C146	C	1.289012	1.475538	0.060920
C147	C	0.755550	0.948243	-0.506213
C148	C	1.255550	1.448243	-0.006213
C149	C	0.788883	0.527798	-0.439019
C150	C	1.288883	1.027798	0.060981
C151	C	0.788862	0.473193	-0.439010
C152	C	1.288862	0.973193	0.060990
C153	C	0.721949	0.473209	-0.573268
C154	C	1.221949	0.973209	-0.073268
C155	C	0.721969	0.527810	-0.573273
C156	C	1.221969	1.027810	-0.073273
C157	C	0.755440	0.555103	-0.506145
C158	C	1.255440	1.055103	-0.006145
O159	O	0.693553	0.614197	-0.630315
O160	O	1.193553	1.114197	-0.130315
O161	O	0.817371	0.614216	-0.381959
O162	O	1.317371	1.114216	0.118041
C163	C	0.891865	0.251969	-0.506214
C164	C	1.391865	0.751969	-0.006214
C165	C	0.949979	0.251982	-0.506229
C166	C	1.449979	0.751982	-0.006229
C167	C	0.755526	0.251887	-0.780213
C168	C	1.255526	0.751887	-0.280213
C169	C	0.755541	0.251865	-0.896990
C170	C	1.255541	0.751865	-0.396990
C171	C	0.755586	1.115568	-0.506242
C172	C	1.255586	1.615568	-0.006242
C173	C	0.755575	1.057453	-0.506223
C174	C	1.255575	1.557453	-0.006223
C175	C	0.722142	0.218411	-0.951869
C176	C	1.222142	0.718411	-0.451869
C177	C	0.722158	0.218396	-1.061593
C178	C	1.222158	0.718396	-0.561593
C179	C	0.788975	0.285289	-1.061549
C180	C	1.288975	0.785289	-0.561549
C181	C	0.788956	0.285306	-0.951827
C182	C	1.288956	0.785306	-0.451827
C183	C	0.688727	0.184969	-0.897032
C184	C	1.188727	0.684969	-0.397032
C185	C	0.655326	0.151513	-0.951912
C186	C	1.155326	0.651513	-0.451912
C187	C	0.655342	0.151497	-1.061636
C188	C	1.155342	0.651497	-0.561636
C189	C	0.688758	0.184938	-1.116480
C190	C	1.188758	0.684938	-0.616480
C191	C	0.755488	0.251956	-0.233212
C192	C	1.255488	0.751956	0.266788
C193	C	0.755575	0.251831	-0.116436
C194	C	1.255575	0.751831	0.383564
H195	H	0.457347	0.312523	-0.384042
H196	H	0.957347	0.812523	0.115958
H197	H	0.816183	0.312513	-1.106212
H198	H	1.316183	0.812513	-0.606212
H199	H	0.305180	0.345950	-0.316769
H200	H	0.805180	0.845950	0.183231
C201	C	-0.052821	0.322119	-0.364873
C202	C	0.447179	0.822119	0.135127
N203	N	-0.075476	0.349794	-0.309116
N204	N	0.424524	0.849794	0.190884
H205	H	0.206130	0.345963	-0.316796
H206	H	0.706130	0.845963	0.183204
C207	C	0.825693	0.322111	-0.891456
C208	C	1.325693	0.822111	-0.391456
N209	N	0.853361	0.349835	-0.845984
N210	N	1.353361	0.849835	-0.345984
C211	C	0.061852	0.322110	-0.364851
C212	C	0.561852	0.822110	0.135149
N213	N	0.084441	0.349786	-0.309078
N214	N	0.584441	0.849786	0.190922
C215	C	-0.052681	0.181840	-0.647599
C216	C	0.447319	0.681840	-0.147599
N217	N	-0.075269	0.154168	-0.703383
N218	N	0.424731	0.654168	-0.203383
H219	H	0.206320	0.157961	-0.695657
H220	H	0.706320	0.657961	-0.195657
C221	C	0.825657	0.443161	-0.365144
C222	C	1.325657	0.943161	0.134856
N223	N	0.853369	0.420543	-0.309509
N224	N	1.353369	0.920543	0.190491
C225	C	0.685290	0.945531	-0.647200
C226	C	1.185290	1.445531	-0.147200
N227	N	0.657566	0.922923	-0.702836
N228	N	1.157566	1.422923	-0.202836
H229	H	0.054162	0.191374	-0.628365
H230	H	0.554162	0.691374	-0.128365
H231	H	0.661356	0.801200	-0.695126
H232	H	1.161356	1.301200	-0.195126
C233	C	0.859226	0.808980	-0.298082
C234	C	1.359226	1.308980	0.201918
N235	N	0.886952	0.831585	-0.242445
N236	N	1.386952	1.331585	0.257555
H237	H	0.816140	0.550014	-0.384359
H238	H	1.316140	1.050014	0.115641
H239	H	0.849635	0.702134	-0.317255
H240	H	1.349635	1.202134	0.182745
H241	H	0.816249	0.953310	-0.384411
H242	H	1.316249	1.453310	0.115589
H243	H	0.628117	0.124289	-0.907250
H244	H	1.128117	0.624289	-0.407250
H245	H	0.694734	0.550043	-0.627947
H246	H	1.194734	1.050043	-0.127947
H247	H	0.816274	1.052375	-0.384436
H248	H	1.316274	1.552375	0.115564
H249	H	0.694869	1.052380	-0.628002
H250	H	1.194869	1.552380	-0.128002
C251	C	0.313175	0.148401	-0.714877
C252	C	0.813175	0.648401	-0.214877
N253	N	0.335810	0.120715	-0.770645
N254	N	0.835810	0.620715	-0.270645
H255	H	0.457458	0.191325	-0.628304
H256	H	0.957458	0.691325	-0.128304
C257	C	0.651775	0.694350	-0.714302
C258	C	1.151775	1.194350	-0.214302
N259	N	0.624047	0.671740	-0.769926
N260	N	1.124047	1.171740	-0.269926
C261	C	0.685144	0.443174	-0.647103
C262	C	1.185144	0.943174	-0.147103
N263	N	0.657426	0.420549	-0.702721
N264	N	1.157426	0.920549	-0.202721
C265	C	0.564188	0.322048	-0.364778
C266	C	1.064188	0.822048	0.135222
N267	N	0.586773	0.349722	-0.308995
N268	N	1.086773	0.849722	0.191005
C269	C	0.688705	0.184984	-0.776334
C270	C	1.188705	0.684984	-0.276334
N271	N	0.688690	0.184996	-0.685423
N272	N	1.188690	0.684996	-0.185423
C273	C	0.618601	0.114695	-1.122000
C274	C	1.118601	0.614695	-0.622000
N275	N	0.590929	0.086971	-1.167465
N276	N	1.090929	0.586971	-0.667465
C277	C	0.688773	0.184920	-1.237181
C278	C	1.188773	0.684920	-0.737181
N279	N	0.688785	0.184904	-1.328091
N280	N	1.188785	0.684904	-0.828091
H281	H	0.556524	0.191318	-0.628284
H282	H	1.056524	0.691318	-0.128284
