data_functionalizedCrystal
_audit_creation_method	'MofGen! by Chris Wilmer'
_symmetry_space_group_name_H-M	'P1'
_symmetry_Int_Tables_number	1
_symmetry_cell_setting	triclinic
loop_
_symmetry_equiv_pos_as_xyz
  x,y,z
_cell_length_a	10.723024
_cell_length_b	12.503572
_cell_length_c	10.723023
_cell_angle_alpha	86.442227
_cell_angle_beta	84.467709
_cell_angle_gamma	93.551581
loop_
_atom_site_label
_atom_site_type_symbol
_atom_site_fract_x
_atom_site_fract_y
_atom_site_fract_z
O1	O	1.664322	0.089311	0.167870
O2	O	1.997655	0.422645	0.501204
O3	O	2.330988	0.755978	0.834537
O4	O	1.301170	0.089315	0.184623
O5	O	1.634503	0.422648	0.517957
O6	O	1.967836	0.755981	0.851290
O7	O	1.491122	0.089308	-0.005329
O8	O	1.824456	0.422642	0.328004
O9	O	2.157789	0.755975	0.661338
O10	O	1.474369	0.089317	0.357823
O11	O	1.807702	0.422651	0.691156
O12	O	2.141035	0.755984	1.024489
O13	O	1.476837	-0.089333	0.008980
O14	O	1.810170	0.244000	0.342314
O15	O	2.143504	0.577334	0.675647
O16	O	1.286884	-0.089327	0.198933
O17	O	1.620217	0.244006	0.532266
O18	O	1.953551	0.577340	0.865599
O19	O	1.650036	-0.089330	0.182180
O20	O	1.983370	0.244003	0.515513
O21	O	2.316703	0.577336	0.848846
Cu22	Cu	1.467156	-0.105640	0.191863
Cu23	Cu	1.800489	0.227693	0.525196
Cu24	Cu	2.133822	0.561027	0.858529
Cu25	Cu	1.484050	0.105624	0.174940
Cu26	Cu	1.817383	0.438958	0.508274
Cu27	Cu	2.150717	0.772291	0.841607
O28	O	1.460083	-0.089324	0.372132
O29	O	1.793417	0.244009	0.705465
O30	O	2.126750	0.577343	1.038799
C31	C	1.247527	-0.000006	0.190559
C32	C	1.580861	0.333328	0.523892
C33	C	1.914194	0.666661	0.857226
C34	C	1.108973	-0.000004	0.186911
C35	C	1.442306	0.333329	0.520244
C36	C	1.775640	0.666662	0.853578
N37	N	1.455282	-0.254232	0.203765
N38	N	1.788616	0.079101	0.537098
N39	N	2.121949	0.412435	0.870431
C40	C	1.033990	-0.000001	0.293198
C41	C	1.367324	0.333332	0.626532
C42	C	1.700657	0.666666	0.959865
C43	C	0.890787	0.000000	0.289431
C44	C	1.224121	0.333334	0.622764
C45	C	1.557454	0.666667	0.956097
C46	C	1.437816	-0.473347	0.221283
C47	C	1.771150	-0.140013	0.554616
C48	C	2.104483	0.193320	0.887950
C49	C	1.513395	-0.526676	0.145514
C50	C	1.846728	-0.193343	0.478848
C51	C	2.180062	0.139991	0.812181
C52	C	1.503677	-0.648599	0.155262
C53	C	1.837010	-0.315266	0.488595
C54	C	2.170343	0.018068	0.821929
C55	C	1.447533	-0.351413	0.211537
C56	C	1.780867	-0.018079	0.544870
C57	C	2.114200	0.315254	0.878204
C58	C	1.703679	-0.000008	0.176244
C59	C	2.037012	0.333326	0.509577
C60	C	2.370345	0.666659	0.842911
C61	C	1.842233	-0.000002	0.179891
C62	C	2.175567	0.333331	0.513225
C63	C	2.508900	0.666665	0.846558
C64	C	1.482761	-0.000011	-0.044674
C65	C	1.816094	0.333322	0.288659
C66	C	2.149427	0.666656	0.621993
C67	C	1.479114	-0.000008	-0.183229
C68	C	1.812447	0.333326	0.150105
C69	C	2.145780	0.666659	0.483438
N70	N	1.495933	0.254216	0.163029
N71	N	1.829266	0.587549	0.496362
N72	N	2.162600	0.920883	0.829695
C73	C	1.484888	0.092535	-0.252407
C74	C	1.818222	0.425869	0.080926
C75	C	2.151555	0.759202	0.414259
C76	C	1.481119	0.092541	-0.395611
C77	C	1.814452	0.425874	-0.062277
C78	C	2.147786	0.759208	0.271056
C79	C	1.468445	-0.000002	0.411477
C80	C	1.801779	0.333331	0.744810
C81	C	2.135112	0.666665	1.078144
C82	C	1.472093	0.000001	0.550031
C83	C	1.805426	0.333335	0.883364
C84	C	2.138759	0.666668	1.216698
H85	H	1.075812	-0.000005	0.386985
H86	H	1.409145	0.333328	0.720318
H87	H	1.742479	0.666662	1.053651
H88	H	1.365818	-0.519252	0.293467
H89	H	1.699152	-0.185918	0.626800
H90	H	2.032485	0.147415	0.960134
H91	H	1.585400	-0.480766	0.073327
H92	H	1.918733	-0.147432	0.406661
H93	H	2.252066	0.185901	0.739994
H94	H	1.486062	0.171771	-0.455075
H95	H	1.819396	0.505104	-0.121742
H96	H	2.152729	0.838437	0.211592
H97	H	1.467161	-0.079232	-0.390514
H98	H	1.800495	0.254101	-0.057181
H99	H	2.133828	0.587434	0.276153
H100	H	1.492617	0.171761	-0.205615
H101	H	1.825950	0.505094	0.127718
H102	H	2.159283	0.838427	0.461052
H103	H	1.471372	-0.079233	-0.230019
H104	H	1.804705	0.254100	0.103314
H105	H	2.138038	0.587434	0.436648
H106	H	0.906659	0.000002	0.088895
H107	H	1.239992	0.333335	0.422229
H108	H	1.573326	0.666669	0.755562
H109	H	0.826355	0.000007	0.380421
H110	H	1.159688	0.333341	0.713754
H111	H	1.493022	0.666674	1.047087
H112	H	1.067153	0.000021	0.093123
H113	H	1.400487	0.333354	0.426457
H114	H	1.733820	0.666687	0.759790
