data_functionalizedCrystal
_audit_creation_method	'MofGen! by Chris Wilmer'
_symmetry_space_group_name_H-M	'P1'
_symmetry_Int_Tables_number	1
_symmetry_cell_setting	triclinic
loop_
_symmetry_equiv_pos_as_xyz
  x,y,z
_cell_length_a	17.038278
_cell_length_b	14.853567
_cell_length_c	13.330367
_cell_angle_alpha	90.000844
_cell_angle_beta	89.992373
_cell_angle_gamma	92.627284
loop_
_atom_site_label
_atom_site_type_symbol
_atom_site_fract_x
_atom_site_fract_y
_atom_site_fract_z
O1	O	1.037628	-0.195777	-0.083417
O2	O	0.809993	-0.192671	-0.083417
O3	O	0.929891	-0.063452	-0.083420
O4	O	0.917730	-0.324996	-0.083414
O5	O	0.929873	-0.063448	0.083427
O6	O	0.809975	-0.192667	0.083430
O7	O	1.037610	-0.195773	0.083430
Cu8	Cu	0.923791	-0.194219	0.098664
Cu9	Cu	0.923812	-0.194225	-0.098652
O10	O	0.917712	-0.324992	0.083433
C11	C	0.780852	-0.189841	0.000006
C12	C	0.694048	-0.181406	0.000005
C13	C	0.203568	-0.129585	0.000000
C14	C	0.285129	-0.137518	0.000007
C15	C	0.316675	-0.222904	0.000004
C16	C	0.266655	-0.300362	0.000005
C17	C	0.185096	-0.292429	0.000006
C18	C	0.562469	-0.250931	0.000008
C19	C	0.644034	-0.258859	0.000004
C20	C	0.662503	-0.096013	0.000007
C21	C	0.580942	-0.088087	0.000002
C22	C	0.530929	-0.165546	0.000008
C23	C	0.400043	-0.231014	0.000007
C24	C	0.447562	-0.157435	0.000012
C25	C	0.929331	-0.029820	0.000000
C26	C	0.927680	0.070388	-0.000008
C27	C	1.066751	-0.198602	0.000005
C28	C	1.153555	-0.207038	-0.000001
N29	N	0.923782	-0.194216	0.237446
C30	C	0.918272	-0.358624	0.000010
C31	C	0.919923	-0.458832	0.000012
C32	C	0.849478	0.488806	0.000011
C33	C	0.991919	0.499370	0.000011
C34	C	0.993472	0.405219	0.000005
C35	C	0.923026	0.352858	0.000003
C36	C	0.851028	0.394647	0.000008
C37	C	1.065468	0.363423	0.000011
C38	C	1.067024	0.269267	0.000006
C39	C	0.996578	0.216904	-0.000003
C40	C	0.924577	0.258698	0.000001
C41	C	0.854131	0.206337	-0.000001
C42	C	0.782129	0.248130	-0.000005
C43	C	0.780582	0.342284	-0.000001
C44	C	0.998125	0.122750	-0.000007
C45	C	0.855682	0.112178	-0.000004
N46	N	0.923827	-0.194222	-0.237433
C47	C	0.870719	-0.251418	0.710070
C48	C	0.976926	-0.137025	0.710036
C49	C	0.976917	-0.137022	0.605017
C50	C	0.923809	-0.194219	0.552520
C51	C	0.870710	-0.251419	0.605042
C52	C	1.030021	-0.079829	0.552488
C53	C	1.030014	-0.079824	0.447463
C54	C	0.976902	-0.137017	0.394964
C55	C	0.923800	-0.194219	0.447492
C56	C	0.870692	-0.251416	0.394996
C57	C	0.817586	-0.308613	0.447522
C58	C	0.817597	-0.308612	0.552543
C59	C	0.976890	-0.137019	0.289943
C60	C	0.870683	-0.251416	0.289967
H61	H	0.521758	-0.314004	0.000008
H62	H	0.325847	-0.074447	0.000012
H63	H	0.669715	-0.328394	0.000016
C64	C	0.771285	0.534128	-0.000201
C65	C	0.728714	0.508050	-0.086054
C66	C	0.656684	0.549792	-0.086291
H67	H	0.742173	0.516560	0.057913
H68	H	0.780414	0.597708	-0.000257
H69	H	0.719582	0.444484	-0.085989
H70	H	0.757802	0.525619	-0.144182
H71	H	0.665814	0.613372	-0.086347
H72	H	0.627580	0.532221	-0.028173
H73	H	0.627795	0.532111	-0.144545
H74	H	1.073255	-0.033250	0.404703
H75	H	0.292346	-0.369886	0.000009
H76	H	0.421874	-0.087913	0.000003
H77	H	0.774348	-0.355188	0.404767
H78	H	1.056748	0.088726	0.000003
H79	H	0.774361	-0.355181	0.595316
C80	C	1.034537	-0.074777	0.766907
C81	C	1.021765	0.014801	0.741351
C82	C	1.074826	0.072174	0.793718
H83	H	1.026988	-0.082850	0.836991
H84	H	1.086748	-0.088541	0.749664
H85	H	0.969566	0.028560	0.758600
H86	H	1.029320	0.022903	0.671276
H87	H	1.127037	0.058410	0.776475
H88	H	1.067273	0.064093	0.863799
H89	H	1.066172	0.132958	0.776378
C90	C	1.087626	-0.017579	0.609365
C91	C	1.074857	0.071998	0.583801
C92	C	1.127910	0.129374	0.636176
H93	H	1.080069	-0.025649	0.679448
H94	H	1.139840	-0.031343	0.592135
H95	H	1.022656	0.085757	0.601038
H96	H	1.082421	0.080097	0.513727
H97	H	1.180123	0.115610	0.618945
H98	H	1.120348	0.121296	0.706256
H99	H	1.119258	0.190157	0.618831
C100	C	1.034577	-0.074828	0.233096
C101	C	1.081079	-0.024727	0.301549
C102	C	1.134224	0.032585	0.249220
H103	H	1.067226	-0.109682	0.192109
H104	H	1.006430	-0.035068	0.192160
H105	H	1.109225	-0.064483	0.342467
H106	H	1.048453	0.010145	0.342538
H107	H	1.106077	0.072345	0.208284
H108	H	1.166867	-0.002277	0.208235
H109	H	1.165777	0.066591	0.295656
H110	H	0.144375	-0.355500	0.000008
H111	H	0.798315	0.069551	-0.000010
C112	C	0.169474	-0.036797	0.000052
C113	C	0.230735	0.029334	0.000082
C114	C	0.199361	0.114822	0.000145
H115	H	0.138060	-0.030186	-0.058116
H116	H	0.138058	-0.030271	0.058259
H117	H	0.262138	0.022811	-0.058119
H118	H	0.262154	0.022752	0.058245
H119	H	0.167945	0.121347	0.058352
H120	H	0.167947	0.121423	-0.058023
H121	H	0.240921	0.159701	0.000175
H122	H	0.555264	-0.018557	0.000004
C123	C	1.068484	0.556059	0.000061
C124	C	1.131868	0.499307	0.000078
C125	C	1.202414	0.551501	0.000134
H126	H	1.070954	0.593022	-0.058104
H127	H	1.070879	0.592990	0.058270
H128	H	1.129474	0.462392	-0.058125
H129	H	1.129424	0.462344	0.058239
H130	H	1.204809	0.588431	0.058343
H131	H	1.204876	0.588462	-0.058032
H132	H	1.245429	0.513003	0.000155
C133	C	1.145273	0.224064	-0.000049
C134	C	1.206632	0.290074	-0.000070
C135	C	1.278726	0.248466	-0.000138
H136	H	1.148946	0.187554	0.058114
H137	H	1.148886	0.187582	-0.058260
H138	H	1.203021	0.326541	0.058135
H139	H	1.202985	0.326587	-0.058229
H140	H	1.282339	0.211983	-0.058349
H141	H	1.282391	0.211957	0.058026
H142	H	1.320367	0.293246	-0.000162
H143	H	0.703232	-0.032951	0.000003
H144	H	0.425736	-0.300537	0.000002
H145	H	0.827478	-0.297986	0.752839
H146	H	1.122821	0.406062	0.000021
H147	H	0.724773	0.205485	0.000001
H148	H	0.721962	0.376320	-0.000003
H149	H	0.827433	-0.297989	0.247231
