data_functionalizedCrystal
_audit_creation_method	'MofGen! by Chris Wilmer'
_symmetry_space_group_name_H-M	'P1'
_symmetry_Int_Tables_number	1
_symmetry_cell_setting	triclinic
loop_
_symmetry_equiv_pos_as_xyz
  x,y,z
_cell_length_a	27.731993
_cell_length_b	13.930277
_cell_length_c	14.853567
_cell_angle_alpha	89.999243
_cell_angle_beta	83.127661
_cell_angle_gamma	90.004327
loop_
_atom_site_label
_atom_site_type_symbol
_atom_site_fract_x
_atom_site_fract_y
_atom_site_fract_z
O1	O	0.641447	-0.079565	0.107035
O2	O	0.500726	-0.079623	0.123397
O3	O	0.574845	-0.079595	-0.016076
O4	O	0.567328	-0.079593	0.246508
O5	O	0.574835	0.080067	-0.016079
O6	O	0.500716	0.080039	0.123394
O7	O	0.641437	0.080097	0.107032
Zn8	Zn	0.571075	0.105418	0.115213
Zn9	Zn	0.571088	-0.104944	0.115216
O10	O	0.567317	0.080069	0.246505
C11	C	0.482712	0.000201	0.123060
C12	C	0.429051	0.000179	0.122048
N13	N	0.571069	0.248984	0.115209
N14	N	0.571098	-0.248510	0.115212
C15	C	0.045862	-0.086807	0.114719
C16	C	0.247538	-0.086833	0.118574
O17	O	0.273618	-0.160851	0.119038
N18	N	0.272755	0.000197	0.119055
C19	C	0.247550	0.087239	0.118566
O20	O	0.273627	0.161263	0.119054
C21	C	0.045876	0.087264	0.114704
C22	C	0.020661	0.000229	0.114233
C23	C	0.020647	-0.173835	0.114246
C24	C	-0.029769	-0.173828	0.113288
C25	C	-0.054970	-0.086792	0.112802
C26	C	-0.029755	0.000236	0.113274
C27	C	0.020673	0.174306	0.114209
C28	C	-0.029749	0.174304	0.113241
C29	C	-0.054964	0.087269	0.112770
C30	C	-0.105373	0.087279	0.111829
N31	N	-0.130590	0.000250	0.111348
C32	C	-0.105388	-0.086786	0.111835
C33	C	0.353432	0.087220	0.120595
C34	C	0.403850	0.087214	0.121562
C35	C	0.403834	-0.086858	0.121568
C36	C	0.353415	-0.086851	0.120608
C37	C	0.328215	0.000191	0.120114
C38	C	-0.211266	-0.086764	0.109822
C39	C	-0.261687	-0.086749	0.108867
C40	C	-0.261666	0.087323	0.108856
C41	C	-0.211250	0.087309	0.109816
C42	C	-0.186051	0.000257	0.110296
O43	O	-0.131483	0.161260	0.111355
O44	O	-0.131472	-0.160798	0.111326
C45	C	0.096278	-0.086814	0.115678
C46	C	0.121493	0.000214	0.116150
C47	C	0.096292	0.087250	0.115664
C48	C	0.171911	0.000208	0.117117
C49	C	0.197113	-0.086827	0.117604
C50	C	0.171896	-0.173857	0.117123
C51	C	0.121480	-0.173850	0.116164
C52	C	0.121509	0.174280	0.116145
C53	C	0.171925	0.174265	0.117105
C54	C	0.197126	0.087230	0.117591
C55	C	0.659451	0.000271	0.107369
C56	C	0.713112	0.000287	0.108381
C57	C	0.574500	0.000233	-0.049661
C58	C	0.573479	0.000224	-0.149728
C59	C	0.538267	0.701241	0.176951
C60	C	0.603923	0.701234	0.053474
C61	C	0.603917	0.600739	0.053472
C62	C	0.571086	0.550489	0.115210
C63	C	0.538261	0.600736	0.176952
C64	C	0.636745	0.550485	-0.008263
C65	C	0.636741	0.449983	-0.008267
C66	C	0.603907	0.399732	0.053468
C67	C	0.571080	0.449984	0.115211
C68	C	0.538250	0.399735	0.176950
C69	C	0.505420	0.449986	0.238690
C70	C	0.505428	0.550485	0.238687
C71	C	0.603900	0.299233	0.053471
C72	C	0.538244	0.299230	0.176951
C73	C	0.525136	0.000222	-0.561457
C74	C	0.613191	0.000258	-0.584203
C75	C	0.614151	0.000253	-0.490185
C76	C	0.570602	0.000234	-0.431799
C77	C	0.526094	0.000220	-0.467431
C78	C	0.658658	0.000277	-0.454546
C79	C	0.659620	0.000272	-0.360523
C80	C	0.616071	0.000246	-0.302135
C81	C	0.571561	0.000232	-0.337772
C82	C	0.528012	0.000212	-0.279386
C83	C	0.483502	0.000191	-0.315021
C84	C	0.482545	0.000194	-0.409043
C85	C	0.617027	0.000243	-0.208114
C86	C	0.528971	0.000210	-0.185359
C87	C	0.567663	0.000239	0.280090
C88	C	0.568684	0.000242	0.380156
H89	H	-0.190755	-0.157649	0.110214
H90	H	0.653267	0.000267	-0.179104
H91	H	-0.050294	-0.244701	0.112900
H92	H	-0.282195	0.158185	0.108464
C93	C	0.687945	0.082365	-0.632536
C94	C	0.661058	0.000281	-0.648377
H95	H	0.717496	0.082378	-0.672162
H96	H	0.694884	0.082355	-0.571448
H97	H	0.669690	0.138031	-0.643272
H98	H	0.679311	-0.055386	-0.637635
H99	H	0.654120	0.000282	-0.709480
C100	C	-0.313010	-0.187739	0.030270
C101	C	-0.289404	-0.182423	0.108346
H102	H	-0.330122	-0.246800	0.029953
H103	H	-0.289689	-0.184128	-0.021938
H104	H	-0.335236	-0.135900	0.029855
H105	H	-0.267175	-0.234258	0.108758
H106	H	-0.312728	-0.186043	0.160568
H107	H	0.041161	-0.244714	0.114639
C108	C	0.408735	0.082234	-0.266669
C109	C	0.435634	0.000171	-0.250836
H110	H	0.379186	0.082223	-0.227037
H111	H	0.401792	0.082220	-0.327754
H112	H	0.426984	0.137915	-0.255936
H113	H	0.417387	-0.055510	-0.261575
H114	H	0.442576	0.000176	-0.189736
C115	C	0.291323	-0.187838	0.197056
C116	C	0.325701	-0.182522	0.120084
H117	H	0.274219	-0.246907	0.196732
H118	H	0.269097	-0.136013	0.196617
H119	H	0.307341	-0.184214	0.250019
H120	H	0.309683	-0.186139	0.067120
H121	H	0.347930	-0.234361	0.120514
C122	C	0.472504	0.814261	0.197380
C123	C	0.502183	0.756475	0.244813
H124	H	0.450229	0.848364	0.239276
H125	H	0.455093	0.775053	0.160092
H126	H	0.492062	0.858566	0.160613
H127	H	0.482625	0.712164	0.281574
H128	H	0.519595	0.795686	0.282116
C129	C	0.647149	0.663505	-0.131088
C130	C	0.672827	0.605727	-0.076123
H131	H	0.669425	0.697610	-0.172987
H132	H	0.627601	0.707801	-0.094315
H133	H	0.627012	0.624284	-0.163251
H134	H	0.692961	0.644949	-0.043955
H135	H	0.692383	0.561426	-0.112900
C136	C	0.424766	0.235576	0.044321
C137	C	0.431563	0.182885	0.122088
H138	H	0.441876	0.294638	0.044641
H139	H	0.391134	0.248026	0.043685
H140	H	0.436685	0.199801	-0.008103
H141	H	0.419640	0.218658	0.174512
H142	H	0.465201	0.170438	0.122733
H143	H	0.446307	0.000177	-0.438066
C144	C	0.302142	0.188240	0.041965
C145	C	0.325739	0.182909	0.120052
H146	H	0.285051	0.247318	0.041630
H147	H	0.279904	0.136427	0.041548
H148	H	0.325472	0.184605	-0.010241
H149	H	0.302409	0.186537	0.172258
H150	H	0.347979	0.234736	0.120477
C151	C	0.015604	0.346362	0.114077
C152	C	0.048381	0.269980	0.114719
H153	H	0.032711	0.405430	0.114385
H154	H	-0.007712	0.342747	0.166293
H155	H	-0.000409	0.342718	0.061109
H156	H	0.064391	0.273620	0.167691
H157	H	0.071706	0.273597	0.062498
C158	C	0.733422	-0.081764	-0.502887
C159	C	0.706524	0.000297	-0.518725
H160	H	0.762974	-0.081748	-0.542510
H161	H	0.715178	-0.137440	-0.513621
H162	H	0.740363	-0.081747	-0.441791
H163	H	0.699580	0.000277	-0.579819
H164	H	0.724771	0.055987	-0.507998
C165	C	-0.081049	0.275305	0.034618
C166	C	-0.057447	0.269987	0.112699
H167	H	-0.098145	0.334378	0.034284
H168	H	-0.103283	0.223485	0.034207
H169	H	-0.057722	0.271674	-0.017592
H170	H	-0.080775	0.273610	0.164910
H171	H	-0.035211	0.321821	0.113119
H172	H	0.695863	0.000289	-0.331518
C173	C	0.484562	0.000208	-0.695478
C174	C	0.476211	0.000203	-0.600622
H175	H	0.454357	0.000203	-0.719655
H176	H	0.502494	-0.055460	-0.715555
H177	H	0.502492	0.055896	-0.715553
H178	H	0.458284	-0.055489	-0.580547
H179	H	0.458271	0.055877	-0.580537
C180	C	0.421777	0.419032	0.292741
C181	C	0.469333	0.394748	0.306556
H182	H	0.399501	0.384931	0.334642
H183	H	0.416493	0.402556	0.232649
H184	H	0.417084	0.486077	0.301579
H185	H	0.474028	0.327703	0.297711
H186	H	0.474619	0.411217	0.366663
H187	H	0.424361	-0.157726	0.121967
C188	C	0.439673	0.663524	0.259120
C189	C	0.469348	0.605727	0.306550
H190	H	0.417403	0.697636	0.301017
H191	H	0.422257	0.624323	0.221835
H192	H	0.459234	0.707823	0.222351
H193	H	0.449787	0.561424	0.343314
H194	H	0.486765	0.644932	0.343851
C195	C	0.701638	0.460082	-0.130327
C196	C	0.672821	0.394752	-0.076137
H197	H	0.723909	0.425982	-0.172232
H198	H	0.719052	0.499271	-0.093029
H199	H	0.681494	0.499290	-0.162484
H200	H	0.692965	0.355549	-0.043976
H201	H	0.655406	0.355547	-0.113440
H202	H	0.100954	-0.244723	0.115780
H203	H	0.630655	0.742151	0.003213
C204	C	-0.216301	0.259372	0.109705
C205	C	-0.183531	0.182978	0.110334
H206	H	-0.199189	0.318434	0.110011
H207	H	-0.239615	0.255761	0.161925
H208	H	-0.232319	0.255738	0.056741
H209	H	-0.167516	0.186608	0.163301
H210	H	-0.160209	0.186591	0.058108
H211	H	0.192423	-0.244725	0.117524
C212	C	0.166865	0.346333	0.116985
C213	C	0.199638	0.269944	0.117620
H214	H	0.183974	0.405398	0.117291
H215	H	0.143550	0.342720	0.169203
H216	H	0.150850	0.342693	0.064019
H217	H	0.215651	0.273580	0.170590
H218	H	0.222962	0.273559	0.065397
C219	C	0.669672	0.186240	0.033077
C220	C	0.639996	0.244012	-0.014373
H221	H	0.691963	0.152159	-0.008808
H222	H	0.650118	0.141923	0.069821
H223	H	0.687069	0.225462	0.070390
H224	H	0.622596	0.204789	-0.051681
H225	H	0.659552	0.288334	-0.051132
C226	C	0.509958	0.268292	0.333401
C227	C	0.502156	0.243998	0.244820
H228	H	0.487681	0.234189	0.375298
H229	H	0.505261	0.335329	0.342226
H230	H	0.542223	0.251817	0.342756
H231	H	0.469891	0.260480	0.235462
H232	H	0.506849	0.176946	0.235991
C233	C	0.454215	-0.081900	-0.137026
C234	C	0.481099	0.000188	-0.121185
H235	H	0.424661	-0.081908	-0.097411
H236	H	0.472467	-0.137557	-0.126284
H237	H	0.447280	-0.081894	-0.198125
H238	H	0.488038	0.000179	-0.060088
H239	H	0.462844	0.055860	-0.131920
H240	H	0.100996	0.245156	0.115745
