data_functionalizedCrystal
_audit_creation_method	'MofGen! by Chris Wilmer'
_symmetry_space_group_name_H-M	'P1'
_symmetry_Int_Tables_number	1
_symmetry_cell_setting	triclinic
loop_
_symmetry_equiv_pos_as_xyz
  x,y,z
_cell_length_a	13.033293
_cell_length_b	18.101397
_cell_length_c	13.032268
_cell_angle_alpha	97.143420
_cell_angle_beta	89.079182
_cell_angle_gamma	97.189579
loop_
_atom_site_label
_atom_site_type_symbol
_atom_site_fract_x
_atom_site_fract_y
_atom_site_fract_z
Zn1	Zn	1.498450	-0.230400	-0.781454
Zn2	Zn	1.831783	0.102933	-0.448121
Zn3	Zn	2.165116	0.436266	-0.114788
Zn4	Zn	1.520187	-0.336824	-0.609468
Zn5	Zn	1.853520	-0.003491	-0.276135
Zn6	Zn	2.186853	0.329843	0.057199
Zn7	Zn	1.348310	-0.226490	-0.587630
Zn8	Zn	1.681643	0.106844	-0.254297
Zn9	Zn	2.014977	0.440177	0.079036
Zn10	Zn	1.326436	-0.367696	-0.759504
Zn11	Zn	1.659769	-0.034362	-0.426171
Zn12	Zn	1.993102	0.298971	-0.092838
O13	O	1.423346	-0.290352	-0.684514
O14	O	1.756679	0.042981	-0.351181
O15	O	2.090012	0.376314	-0.017848
O16	O	1.645252	-0.233234	-0.776965
O17	O	1.978586	0.100099	-0.443632
O18	O	2.311919	0.433432	-0.110298
O19	O	1.515638	-0.307631	-0.462665
O20	O	1.848972	0.025702	-0.129331
O21	O	2.182305	0.359035	0.204002
O22	O	1.368284	-0.123374	-0.613388
O23	O	1.701617	0.209959	-0.280055
O24	O	2.034951	0.543292	0.053278
O25	O	1.661223	-0.311423	-0.650608
O26	O	1.994556	0.021910	-0.317274
O27	O	2.327889	0.355243	0.016059
O28	O	1.478591	-0.126248	-0.755790
O29	O	1.811924	0.207086	-0.422457
O30	O	2.145257	0.540419	-0.089123
O31	O	1.389361	-0.226569	-0.446621
O32	O	1.722695	0.106764	-0.113287
O33	O	2.056028	0.440098	0.220046
O34	O	1.201489	-0.256504	-0.592105
O35	O	1.534822	0.076829	-0.258771
O36	O	1.868156	0.410163	0.074562
O37	O	1.331002	-0.364040	-0.906323
O38	O	1.664336	-0.030706	-0.572989
O39	O	1.997669	0.302627	-0.239656
O40	O	1.185418	-0.360248	-0.718380
O41	O	1.518751	-0.026914	-0.385046
O42	O	1.852085	0.306419	-0.051713
O43	O	1.457380	-0.263169	-0.922449
O44	O	1.790713	0.070164	-0.589116
O45	O	2.124047	0.403497	-0.255783
O46	O	1.494428	-0.444553	-0.629324
O47	O	1.827761	-0.111220	-0.295991
O48	O	2.161094	0.222114	0.037343
O49	O	1.352080	-0.467234	-0.739555
O50	O	1.685413	-0.133901	-0.406222
O51	O	2.018746	0.199432	-0.072888
C52	C	1.156137	-0.311302	-0.650491
C53	C	1.489470	0.022031	-0.317158
C54	C	1.822803	0.355365	0.016175
C55	C	1.041821	-0.320285	-0.635960
C56	C	1.375154	0.013049	-0.302627
C57	C	1.708487	0.346382	0.030706
C58	C	0.982941	-0.285683	-0.692098
C59	C	1.316274	0.047651	-0.358765
C60	C	1.649607	0.380984	-0.025431
C61	C	0.864789	-0.294966	-0.677081
C62	C	1.198122	0.038367	-0.343748
C63	C	1.531455	0.371701	-0.010414
C64	C	1.423264	-0.482765	-0.684453
C65	C	1.756597	-0.149431	-0.351120
C66	C	2.089931	0.183902	-0.017787
C67	C	1.423319	-0.565076	-0.684473
C68	C	1.756652	-0.231742	-0.351140
C69	C	2.089985	0.101591	-0.017807
C70	C	1.423438	-0.864166	-0.684584
C71	C	1.756771	-0.530833	-0.351251
C72	C	2.090105	-0.197499	-0.017917
C73	C	1.512805	-0.818535	-0.614989
C74	C	1.846138	-0.485202	-0.281655
C75	C	2.179472	-0.151869	0.051678
C76	C	1.513053	-0.732916	-0.615230
C77	C	1.846387	-0.399583	-0.281897
C78	C	2.179720	-0.066249	0.051437
C79	C	1.423379	-0.715784	-0.684528
C80	C	1.756712	-0.382450	-0.351195
C81	C	2.090046	-0.049117	-0.017862
C82	C	1.438988	-0.755473	-0.796660
C83	C	1.772321	-0.422139	-0.463326
C84	C	2.105654	-0.088806	-0.129993
C85	C	1.439656	-0.841025	-0.796304
C86	C	1.772989	-0.507692	-0.462970
C87	C	2.106323	-0.174359	-0.129637
C88	C	1.318132	-0.838399	-0.642959
C89	C	1.651465	-0.505066	-0.309626
C90	C	1.984798	-0.171732	0.023707
C91	C	1.318977	-0.752462	-0.640608
C92	C	1.652310	-0.419129	-0.307275
C93	C	1.985643	-0.085795	0.026058
C94	C	1.423343	-0.631925	-0.684503
C95	C	1.756676	-0.298592	-0.351170
C96	C	2.090010	0.034742	-0.017837
C97	C	1.423476	-0.948025	-0.684617
C98	C	1.756809	-0.614692	-0.351283
C99	C	2.090142	-0.281358	-0.017950
C100	C	1.691598	-0.269321	-0.718671
C101	C	2.024931	0.064012	-0.385338
C102	C	2.358264	0.397345	-0.052004
C103	C	1.805911	-0.260359	-0.733226
C104	C	2.139244	0.072974	-0.399893
C105	C	2.472577	0.406307	-0.066560
C106	C	1.389326	-0.317484	-0.952743
C107	C	1.722660	0.015849	-0.619409
C108	C	2.055993	0.349182	-0.286076
C109	C	1.374829	-0.329047	-1.067046
C110	C	1.708163	0.004287	-0.733712
C111	C	2.041496	0.337620	-0.400379
C112	C	1.423453	-0.097189	-0.684602
C113	C	1.756786	0.236145	-0.351268
C114	C	2.090119	0.569478	-0.017935
C115	C	1.423498	-0.014874	-0.684639
C116	C	1.756832	0.318460	-0.351306
C117	C	2.090165	0.651793	-0.017972
C118	C	1.430896	-0.284293	-1.125985
C119	C	1.764229	0.049041	-0.792651
C120	C	2.097562	0.382374	-0.459318
C121	C	1.415914	-0.296242	-1.244123
C122	C	1.749247	0.037092	-0.910789
C123	C	2.082580	0.370425	-0.577456
C124	C	1.457291	-0.263268	-0.417337
C125	C	1.790625	0.070066	-0.084004
C126	C	2.123958	0.403399	0.249330
C127	C	1.471988	-0.251481	-0.303060
C128	C	1.805321	0.081852	0.030273
C129	C	2.138654	0.415185	0.363607
H130	H	1.504884	-0.705250	-0.532519
H131	H	1.838217	-0.371917	-0.199186
H132	H	2.171550	-0.038583	0.134147
H133	H	1.531078	-0.204313	-1.266064
H134	H	1.864411	0.129021	-0.932730
H135	H	2.197745	0.462354	-0.599397
H136	H	1.020003	-0.249183	-0.751273
H137	H	1.353337	0.084150	-0.417940
H138	H	1.686670	0.417483	-0.084606
Cl139	Cl	0.807583	-0.351314	-0.585700
Cl140	Cl	1.140916	-0.017981	-0.252367
Cl141	Cl	1.474249	0.315353	0.080967
H142	H	0.842967	-0.223856	-0.792405
H143	H	1.176301	0.109478	-0.459071
H144	H	1.509634	0.442811	-0.125738
H145	H	1.504888	-0.832432	-0.532065
H146	H	1.838221	-0.499099	-0.198732
H147	H	2.171555	-0.165765	0.134601
Cl148	Cl	1.300411	-0.711381	-0.513102
Cl149	Cl	1.633744	-0.378048	-0.179769
Cl150	Cl	1.967077	-0.044714	0.153564
H151	H	1.004759	-0.356780	-0.576779
H152	H	1.338092	-0.023446	-0.243446
H153	H	1.671426	0.309887	0.089887
H154	H	1.376664	-0.872307	-0.850694
H155	H	1.709997	-0.538974	-0.517360
H156	H	2.043331	-0.205641	-0.184027
H157	H	1.590675	-0.835554	-0.643357
H158	H	1.924009	-0.502220	-0.310024
H159	H	2.257342	-0.168887	0.023310
H160	H	1.301271	-0.854284	-0.561889
H161	H	1.634605	-0.520950	-0.228556
H162	H	1.967938	-0.187617	0.104777
H163	H	1.591337	-0.707910	-0.643866
H164	H	1.924671	-0.374576	-0.310532
H165	H	2.258004	-0.041243	0.022801
H166	H	1.249925	-0.741410	-0.686476
H167	H	1.583258	-0.408077	-0.353142
H168	H	1.916592	-0.074743	-0.019809
Cl169	Cl	1.283587	-0.401859	-1.124163
Cl170	Cl	1.616921	-0.068526	-0.790830
Cl171	Cl	1.950254	0.264807	-0.457496
H172	H	1.375290	-0.745683	-0.850503
H173	H	1.708623	-0.412350	-0.517170
H174	H	2.041956	-0.079016	-0.183836
Cl175	Cl	1.557866	-0.865827	-0.848255
Cl176	Cl	1.891199	-0.532494	-0.514922
Cl177	Cl	2.224532	-0.199160	-0.181588
H178	H	1.514611	-0.730218	-0.830595
H179	H	1.847944	-0.396885	-0.497262
H180	H	2.181277	-0.063552	-0.163929
H181	H	1.251716	-0.869180	-0.693480
H182	H	1.585049	-0.535846	-0.360147
H183	H	1.918383	-0.202513	-0.026813
Cl184	Cl	1.522106	-0.211460	-1.068863
Cl185	Cl	1.855440	0.121874	-0.735530
Cl186	Cl	2.188773	0.455207	-0.402197
H187	H	1.356811	-0.343402	-1.281119
H188	H	1.690144	-0.010069	-0.947786
H189	H	2.023478	0.323265	-0.614452
