data_functionalizedCrystal
_audit_creation_method	'MofGen! by Chris Wilmer'
_symmetry_space_group_name_H-M	'P1'
_symmetry_Int_Tables_number	1
_symmetry_cell_setting	triclinic
loop_
_symmetry_equiv_pos_as_xyz
  x,y,z
_cell_length_a	18.101398
_cell_length_b	18.101397
_cell_length_c	16.959447
_cell_angle_alpha	89.966326
_cell_angle_beta	89.989209
_cell_angle_gamma	90.018618
loop_
_atom_site_label
_atom_site_type_symbol
_atom_site_fract_x
_atom_site_fract_y
_atom_site_fract_z
Zn1	Zn	1.132150	-0.294852	-0.446816
Zn2	Zn	1.632150	0.205148	0.053184
Zn3	Zn	1.132076	-0.418704	-0.314630
Zn4	Zn	1.632076	0.081296	0.185370
Zn5	Zn	1.008316	-0.294877	-0.314661
Zn6	Zn	1.508316	0.205123	0.185339
Zn7	Zn	1.008282	-0.418652	-0.446776
Zn8	Zn	1.508282	0.081348	0.053224
O9	O	1.070206	-0.356771	-0.380721
O10	O	1.570206	0.143229	0.119279
O11	O	1.235773	-0.311292	-0.429284
O12	O	1.735773	0.188708	0.070716
O13	O	1.115643	-0.402311	-0.204023
O14	O	1.615643	0.097689	0.295977
O15	O	1.024788	-0.191241	-0.332222
O16	O	1.524788	0.308759	0.167778
O17	O	1.235719	-0.402286	-0.332168
O18	O	1.735719	0.097714	0.167832
O19	O	1.115768	-0.191222	-0.429315
O20	O	1.615768	0.308778	0.070685
O21	O	1.024717	-0.311336	-0.204046
O22	O	1.524717	0.188664	0.295954
O23	O	0.904679	-0.311285	-0.332184
O24	O	1.404679	0.188715	0.167816
O25	O	1.024730	-0.402196	-0.557392
O26	O	1.524730	0.097804	-0.057392
O27	O	0.904654	-0.402222	-0.429248
O28	O	1.404654	0.097778	0.070752
O29	O	1.115735	-0.311241	-0.557422
O30	O	1.615735	0.188759	-0.057422
O31	O	1.115610	-0.522330	-0.332129
O32	O	1.615610	-0.022330	0.167871
O33	O	1.024659	-0.522292	-0.429217
O34	O	1.524659	-0.022292	0.070783
C35	C	0.877796	-0.356751	-0.380715
C36	C	1.377796	0.143249	0.119285
C37	C	0.795482	-0.356760	-0.380732
C38	C	1.295482	0.143240	0.119268
C39	C	0.644773	-0.356774	-0.380730
C40	C	1.144773	0.143226	0.119270
C41	C	0.613429	-0.414077	-0.441706
C42	C	1.113429	0.085923	0.058294
C43	C	0.527810	-0.414309	-0.441525
C44	C	1.027810	0.085691	0.058475
C45	C	0.496391	-0.356787	-0.380731
C46	C	0.996391	0.143213	0.119269
C47	C	0.527452	-0.377618	-0.297326
C48	C	1.027452	0.122382	0.202674
C49	C	0.613097	-0.378026	-0.297679
C50	C	1.113097	0.121974	0.202321
C51	C	0.613236	-0.278498	-0.402431
C52	C	1.113236	0.221502	0.097569
C53	C	0.527586	-0.278927	-0.404268
C54	C	1.027586	0.221073	0.095732
C55	C	0.412531	-0.356794	-0.380725
C56	C	0.912531	0.143206	0.119275
C57	C	0.728633	-0.356769	-0.380730
C58	C	1.228633	0.143231	0.119270
C59	C	1.070143	-0.549182	-0.380682
C60	C	1.570143	-0.049182	0.119318
C61	C	1.070183	-0.631496	-0.380692
C62	C	1.570183	-0.131496	0.119308
C63	C	1.070278	-0.930587	-0.380765
C64	C	1.570278	-0.430587	0.119235
C65	C	1.127342	-0.899255	-0.319516
C66	C	1.627342	-0.399255	0.180484
C67	C	1.127540	-0.813637	-0.319675
C68	C	1.627540	-0.313637	0.180325
C69	C	1.070231	-0.782204	-0.380728
C70	C	1.570231	-0.282204	0.119272
C71	C	1.091382	-0.813208	-0.464043
C72	C	1.591382	-0.313208	0.035957
C73	C	1.091824	-0.898853	-0.463710
C74	C	1.591824	-0.398853	0.036290
C75	C	0.991910	-0.899094	-0.359419
C76	C	1.491910	-0.399094	0.140581
C77	C	0.992298	-0.813445	-0.357559
C78	C	1.492298	-0.313445	0.142441
C79	C	1.070203	-0.698345	-0.380713
C80	C	1.570203	-0.198345	0.119287
C81	C	1.070308	-1.014446	-0.380786
C82	C	1.570308	-0.514446	0.119214
C83	C	1.263368	-0.356792	-0.380727
C84	C	1.763368	0.143208	0.119273
C85	C	1.345682	-0.356801	-0.380729
C86	C	1.845682	0.143199	0.119271
C87	C	1.070237	-0.356710	-0.586889
C88	C	1.570237	0.143290	-0.086889
C89	C	1.070250	-0.356684	-0.674746
C90	C	1.570250	0.143316	-0.174746
C91	C	1.070290	-0.163609	-0.380777
C92	C	1.570290	0.336391	0.119223
C93	C	1.070326	-0.081295	-0.380800
C94	C	1.570326	0.418705	0.119200
C95	C	1.022957	-0.403962	-1.046209
C96	C	1.522957	0.096038	-0.546209
C97	C	1.117721	-0.309249	-1.046234
C98	C	1.617721	0.190751	-0.546234
C99	C	1.117701	-0.309265	-0.963688
C100	C	1.617701	0.190735	-0.463688
C101	C	1.070309	-0.356631	-0.922399
C102	C	1.570309	0.143369	-0.422399
C103	C	1.022937	-0.403981	-0.963655
C104	C	1.522937	0.096019	-0.463655
C105	C	1.165078	-0.261921	-0.922426
C106	C	1.665078	0.238079	-0.422426
C107	C	1.165060	-0.261936	-0.839875
C108	C	1.665060	0.238064	-0.339875
C109	C	1.117664	-0.309298	-0.798584
C110	C	1.617664	0.190702	-0.298584
C111	C	1.070289	-0.356649	-0.839845
C112	C	1.570289	0.143351	-0.339845
C113	C	1.022898	-0.404015	-0.798556
C114	C	1.522898	0.095985	-0.298556
C115	C	0.975519	-0.451363	-0.839816
C116	C	1.475519	0.048637	-0.339816
C117	C	0.975541	-0.451343	-0.922364
C118	C	1.475541	0.048657	-0.422364
C119	C	1.117642	-0.309318	-0.716035
C120	C	1.617642	0.190682	-0.216035
C121	C	1.022878	-0.404034	-0.716002
C122	C	1.522878	0.095966	-0.216002
C123	C	1.070218	-0.356779	-0.175355
C124	C	1.570218	0.143221	0.324645
C125	C	1.070348	-0.356596	-0.087498
C126	C	1.570348	0.143404	0.412502
H127	H	0.633508	-0.235808	-0.358024
H128	H	1.133508	0.264192	0.141976
C129	C	0.642432	-0.252787	-0.483208
C130	C	1.142432	0.247213	0.016792
H131	H	0.622740	-0.205448	-0.495179
H132	H	1.122740	0.294552	0.004821
H133	H	0.627754	-0.287030	-0.522636
H134	H	1.127754	0.212970	-0.022636
H135	H	0.694821	-0.250013	-0.481639
H136	H	1.194821	0.249987	0.018361
H137	H	1.185590	-0.793094	-0.333797
H138	H	1.685590	-0.293094	0.166203
C139	C	1.036959	-0.785697	-0.527354
C140	C	1.536959	-0.285697	-0.027354
H141	H	1.000769	-0.754982	-0.503481
H142	H	1.500769	-0.254982	-0.003481
H143	H	1.013448	-0.826816	-0.551452
H144	H	1.513448	-0.326816	-0.051452
H145	H	1.063086	-0.758305	-0.566182
H146	H	1.563086	-0.258305	-0.066182
C147	C	0.640057	-0.455309	-0.272911
C148	C	1.140057	0.044691	0.227089
H149	H	0.598668	-0.486161	-0.262733
H150	H	1.098668	0.013839	0.237267
H151	H	0.669280	-0.451357	-0.226586
H152	H	1.169280	0.048643	0.273414
H153	H	0.668845	-0.476094	-0.314148
H154	H	1.168845	0.023906	0.185852
H155	H	1.114308	-0.792678	-0.257898
H156	H	1.614308	-0.292678	0.242102
H157	H	0.936970	-0.489894	-0.955966
H158	H	1.436970	0.010106	-0.455966
H159	H	0.976349	-0.793189	-0.296246
H160	H	1.476349	-0.293189	0.203754
C161	C	0.970843	-0.456043	-1.091586
C162	C	1.470843	0.043957	-0.591586
H163	H	0.942614	-0.484250	-1.055170
H164	H	1.442614	0.015750	-0.555170
H165	H	0.999162	-0.488306	-1.123778
H166	H	1.499162	0.011694	-0.623778
H167	H	0.938590	-0.427698	-1.123797
H168	H	1.438590	0.072302	-0.623797
H169	H	1.185075	-0.920724	-0.333476
H170	H	1.685075	-0.420724	0.166524
H171	H	0.634928	-0.471749	-0.427483
H172	H	1.134928	0.028251	0.072517
C173	C	1.167927	-0.784213	-0.488861
C174	C	1.667927	-0.284213	0.011139
H175	H	1.180243	-0.803295	-0.539351
H176	H	1.680243	-0.303295	-0.039351
H177	H	1.203832	-0.799685	-0.451501
H178	H	1.703832	-0.299685	0.048499
H179	H	1.166931	-0.731779	-0.491044
H180	H	1.666931	-0.231779	0.008956
H181	H	0.507101	-0.337161	-0.250647
H182	H	1.007101	0.162839	0.249353
H183	H	0.947494	-0.792056	-0.398903
H184	H	1.447494	-0.292056	0.101097
H185	H	0.505984	-0.434202	-0.278673
H186	H	1.005984	0.065798	0.221327
C187	C	0.641112	-0.324066	-0.234192
C188	C	1.141112	0.175934	0.265808
H189	H	0.600149	-0.301998	-0.208294
H190	H	1.100149	0.198002	0.291706
H191	H	0.670286	-0.286722	-0.258303
H192	H	1.170286	0.213278	0.241697
H193	H	0.670175	-0.350195	-0.196802
H194	H	1.170175	0.149805	0.303198
H195	H	1.156309	-0.270691	-1.079857
H196	H	1.656309	0.229309	-0.579857
C197	C	0.500156	-0.257689	-0.487182
C198	C	1.000156	0.242311	0.012818
H199	H	0.469815	-0.296105	-0.507375
H200	H	0.969815	0.203895	-0.007375
H201	H	0.541321	-0.250611	-0.521106
H202	H	1.041321	0.249389	-0.021106
H203	H	0.472389	-0.213251	-0.484209
H204	H	0.972389	0.286749	0.015791
C205	C	0.934469	-0.926467	-0.419674
C206	C	1.434469	-0.426467	0.080326
H207	H	0.887228	-0.907251	-0.406471
H208	H	1.387228	-0.407251	0.093529
H209	H	0.932762	-0.978912	-0.418804
H210	H	1.432762	-0.478912	0.081196
H211	H	0.947978	-0.910113	-0.470925
H212	H	1.447978	-0.410113	0.029075
C213	C	1.217194	-0.209815	-0.967843
C214	C	1.717194	0.290185	-0.467843
H215	H	1.210409	-0.216577	-1.022915
H216	H	1.710409	0.283423	-0.522915
H217	H	1.266948	-0.220652	-0.954318
H218	H	1.766948	0.279348	-0.454318
H219	H	1.206361	-0.160059	-0.954327
H220	H	1.706361	0.339941	-0.454327
H221	H	1.149107	-0.918773	-0.481791
H222	H	1.649107	-0.418773	0.018209
C223	C	0.965916	-0.928350	-0.278768
C224	C	1.465916	-0.428350	0.221232
H225	H	1.002620	-0.960047	-0.257357
H226	H	1.502620	-0.460047	0.242643
H227	H	0.921136	-0.955053	-0.285180
H228	H	1.421136	-0.455053	0.214820
H229	H	0.957976	-0.887993	-0.244002
H230	H	1.457976	-0.387993	0.255998
C231	C	0.970756	-0.456148	-0.670590
C232	C	1.470756	0.043852	-0.170590
H233	H	0.942552	-0.484347	-0.706987
H234	H	1.442552	0.015653	-0.206987
H235	H	0.938492	-0.427834	-0.638391
H236	H	1.438492	0.072166	-0.138391
H237	H	0.999078	-0.488428	-0.638384
H238	H	1.499078	0.011572	-0.138384
C239	C	1.217168	-0.209850	-0.794496
C240	C	1.717168	0.290150	-0.294496
H241	H	1.245391	-0.181635	-0.830910
H242	H	1.745391	0.318365	-0.330910
H243	H	1.249415	-0.238185	-0.762276
H244	H	1.749415	0.261815	-0.262276
H245	H	1.188837	-0.177583	-0.762313
H246	H	1.688837	0.322417	-0.262313
H247	H	0.506199	-0.233979	-0.363130
H248	H	1.006199	0.266021	0.136870
C249	C	1.038125	-0.926852	-0.527467
C250	C	1.538125	-0.426852	-0.027467
H251	H	1.016141	-0.885882	-0.553461
H252	H	1.516141	-0.385882	-0.053461
H253	H	1.000700	-0.956060	-0.503552
H254	H	1.500700	-0.456060	-0.003552
H255	H	1.064418	-0.955878	-0.564736
H256	H	1.564418	-0.455878	-0.064736
C257	C	0.641274	-0.396730	-0.525499
C258	C	1.141274	0.103270	-0.025499
H259	H	0.672269	-0.354389	-0.524050
H260	H	1.172269	0.145611	-0.024050
H261	H	0.600305	-0.387407	-0.559051
H262	H	1.100305	0.112593	-0.059051
H263	H	0.668444	-0.437693	-0.545086
H264	H	1.168444	0.062307	-0.045086
C265	C	0.923407	-0.503481	-0.794396
C266	C	1.423407	-0.003481	-0.294396
H267	H	0.895200	-0.531686	-0.830787
H268	H	1.395200	-0.031686	-0.330787
H269	H	0.891144	-0.475170	-0.762191
H270	H	1.391144	0.024830	-0.262191
H271	H	0.951738	-0.535756	-0.762194
H272	H	1.451738	-0.035756	-0.262194
H273	H	0.507300	-0.472315	-0.427128
H274	H	1.007300	0.027685	0.072872
C275	C	1.109700	-0.927154	-0.235809
C276	C	1.609700	-0.427154	0.264191
H277	H	1.144766	-0.907618	-0.199733
H278	H	1.644766	-0.407618	0.300267
H279	H	1.111905	-0.979578	-0.234894
H280	H	1.611905	-0.479578	0.265106
H281	H	1.061541	-0.911465	-0.221153
H282	H	1.561541	-0.411465	0.278847
C283	C	0.499436	-0.396754	-0.525053
C284	C	0.999436	0.103246	-0.025053
H285	H	0.540252	-0.389420	-0.559404
H286	H	1.040252	0.110580	-0.059404
H287	H	0.470194	-0.353208	-0.523629
H288	H	0.970194	0.146792	-0.023629
H289	H	0.470367	-0.436816	-0.543667
H290	H	0.970367	0.063184	-0.043667
C291	C	1.169748	-0.257239	-0.670653
C292	C	1.669748	0.242761	-0.170653
H293	H	1.197973	-0.229025	-0.707066
H294	H	1.697973	0.270975	-0.207066
H295	H	1.201993	-0.285575	-0.638432
H296	H	1.701993	0.214425	-0.138432
H297	H	1.141417	-0.224971	-0.638470
H298	H	1.641417	0.275029	-0.138470
