data_functionalizedCrystal
_audit_creation_method	'MofGen! by Chris Wilmer'
_symmetry_space_group_name_H-M	'P1'
_symmetry_Int_Tables_number	1
_symmetry_cell_setting	triclinic
loop_
_symmetry_equiv_pos_as_xyz
  x,y,z
_cell_length_a	21.395364
_cell_length_b	19.805405
_cell_length_c	21.395355
_cell_angle_alpha	90.017223
_cell_angle_beta	90.024552
_cell_angle_gamma	90.041677
loop_
_atom_site_label
_atom_site_type_symbol
_atom_site_fract_x
_atom_site_fract_y
_atom_site_fract_z
Zn1	Zn	0.957877	-0.269272	0.354267
Zn2	Zn	1.457877	0.230728	0.854267
Zn3	Zn	0.957786	-0.382441	0.249492
Zn4	Zn	1.457786	0.117559	0.749492
Zn5	Zn	0.853092	-0.269301	0.249504
Zn6	Zn	1.353092	0.230699	0.749504
Zn7	Zn	0.853068	-0.382453	0.354232
Zn8	Zn	1.353068	0.117547	0.854232
O9	O	0.905456	-0.325867	0.301874
O10	O	1.405456	0.174133	0.801874
O11	O	1.045542	-0.284266	0.340378
O12	O	1.545542	0.215734	0.840378
O13	O	0.943870	-0.367440	0.161816
O14	O	1.443870	0.132560	0.661816
O15	O	0.867039	-0.174581	0.263420
O16	O	1.367039	0.325419	0.763420
O17	O	1.045476	-0.367412	0.263400
O18	O	1.545476	0.132588	0.763400
O19	O	0.944024	-0.174559	0.340390
O20	O	1.444024	0.325441	0.840390
O21	O	0.866952	-0.284317	0.161824
O22	O	1.366952	0.215683	0.661824
O23	O	0.765411	-0.284329	0.263387
O24	O	1.265411	0.215671	0.763387
O25	O	0.866999	-0.367432	0.441915
O26	O	1.366999	0.132568	0.941915
O27	O	0.765393	-0.367461	0.340330
O28	O	1.265393	0.132539	0.840330
O29	O	0.944001	-0.284278	0.441940
O30	O	1.444001	0.215722	0.941940
O31	O	0.943848	-0.477160	0.263366
O32	O	1.443848	0.022840	0.763366
O33	O	0.866911	-0.477168	0.340319
O34	O	1.366911	0.022832	0.840319
C35	C	0.742668	-0.325900	0.301856
C36	C	1.242668	0.174100	0.801856
C37	C	0.673027	-0.325930	0.301864
C38	C	1.173027	0.174070	0.801864
C39	C	0.640370	-0.282707	0.342008
C40	C	1.140370	0.217293	0.842008
C41	C	0.574935	-0.282689	0.342010
C42	C	1.074935	0.217311	0.842010
C43	C	0.542158	-0.325906	0.301875
C44	C	1.042158	0.174094	0.801875
C45	C	0.574823	-0.369132	0.261723
C46	C	1.074823	0.130868	0.761723
C47	C	0.640257	-0.369144	0.261717
C48	C	1.140257	0.130856	0.761717
C49	C	0.438438	-0.386861	0.296839
C50	C	0.938438	0.113139	0.796839
C51	C	0.373005	-0.386850	0.296849
C52	C	0.873005	0.113150	0.796849
C53	C	0.340338	-0.325869	0.301889
C54	C	0.840338	0.174131	0.801889
C55	C	0.373111	-0.264897	0.306932
C56	C	0.873111	0.235103	0.806932
C57	C	0.438545	-0.264909	0.306926
C58	C	0.938545	0.235091	0.806926
C59	C	0.471206	-0.325898	0.301876
C60	C	0.971206	0.174102	0.801876
C61	C	0.236729	-0.282623	0.342038
C62	C	0.736729	0.217377	0.842038
C63	C	0.171292	-0.282604	0.342036
C64	C	0.671292	0.217396	0.842036
C65	C	0.171181	-0.369053	0.261752
C66	C	0.671181	0.130947	0.761752
C67	C	0.236616	-0.369066	0.261751
C68	C	0.736616	0.130934	0.761751
C69	C	0.269386	-0.325852	0.301897
C70	C	0.769386	0.174148	0.801897
C71	C	0.905384	-0.501723	0.301851
C72	C	1.405384	-0.001723	0.801851
C73	C	0.905411	-0.576955	0.301862
C74	C	1.405411	-0.076955	0.801862
C75	C	0.945473	-0.612230	0.341972
C76	C	1.445473	-0.112230	0.841972
C77	C	0.945496	-0.682918	0.341983
C78	C	1.445496	-0.182918	0.841983
C79	C	0.905459	-0.718330	0.301882
C80	C	1.405459	-0.218330	0.801882
C81	C	0.865392	-0.683051	0.261771
C82	C	1.365392	-0.183051	0.761771
C83	C	0.865367	-0.612364	0.261763
C84	C	1.365367	-0.112364	0.761763
C85	C	0.865493	-0.968124	0.261803
C86	C	1.365493	-0.468124	0.761803
C87	C	0.865522	-1.038816	0.261813
C88	C	1.365522	-0.538816	0.761813
C89	C	0.945622	-1.038678	0.342023
C90	C	1.445622	-0.538678	0.842023
C91	C	0.945597	-0.967991	0.342015
C92	C	1.445597	-0.467991	0.842015
C93	C	0.905528	-0.932718	0.301907
C94	C	1.405528	-0.432718	0.801907
C95	C	0.905503	-0.856069	0.301896
C96	C	1.405503	-0.356069	0.801896
C97	C	0.905486	-0.794978	0.301890
C98	C	1.405486	-0.294978	0.801890
C99	C	1.068879	-0.325834	0.301892
C100	C	1.568879	0.174166	0.801892
C101	C	1.138520	-0.325820	0.301899
C102	C	1.638520	0.174180	0.801899
C103	C	0.905508	-0.325853	0.465297
C104	C	1.405508	0.174147	0.965297
C105	C	0.905530	-0.325847	0.534938
C106	C	1.405530	0.174153	1.034938
C107	C	0.905544	-0.149324	0.301910
C108	C	1.405544	0.350676	0.801910
C109	C	0.905582	-0.074092	0.301926
C110	C	1.405582	0.425908	0.801926
C111	C	0.905440	-0.325832	0.139086
C112	C	1.405440	0.174168	0.639086
C113	C	0.905539	-0.325647	0.069445
C114	C	1.405539	0.174353	0.569445
C115	C	0.945623	-0.282547	0.567666
C116	C	1.445623	0.217453	1.067666
C117	C	0.945622	-0.282518	0.633101
C118	C	1.445622	0.217482	1.133101
C119	C	0.905535	-0.325801	0.665807
C120	C	1.405535	0.174199	1.165807
C121	C	0.865433	-0.369105	0.633071
C122	C	1.365433	0.130895	1.133071
C123	C	0.865431	-0.369128	0.567637
C124	C	1.365431	0.130872	1.067637
C125	C	0.900563	-0.386747	0.769474
C126	C	1.400563	0.113253	1.269474
C127	C	0.900569	-0.386725	0.834907
C128	C	1.400569	0.113275	1.334907
C129	C	0.905539	-0.325730	0.867628
C130	C	1.405539	0.174270	1.367628
C131	C	0.910514	-0.264754	0.834908
C132	C	1.410514	0.235246	1.334908
C133	C	0.910511	-0.264778	0.769473
C134	C	1.410511	0.235222	1.269473
C135	C	0.905533	-0.325781	0.736759
C136	C	1.405533	0.174219	1.236759
C137	C	0.945633	-0.282394	0.971308
C138	C	1.445633	0.217606	1.471308
C139	C	0.945628	-0.282364	1.036744
C140	C	1.445628	0.217636	1.536744
C141	C	0.865442	-0.368957	1.036713
C142	C	1.365442	0.131043	1.536713
C143	C	0.865444	-0.368981	0.971278
C144	C	1.365444	0.131019	1.471278
C145	C	0.905543	-0.325701	0.938579
C146	C	1.405543	0.174299	1.438579
H147	H	0.465227	-0.215264	0.311031
H148	H	0.965227	0.284736	0.811031
Br149	Br	0.684841	-0.224060	0.396492
Br150	Br	1.184841	0.275940	0.896492
Br151	Br	0.917263	-0.181969	0.879306
Br152	Br	1.417263	0.318031	1.379306
H153	H	0.896349	-0.436404	0.742838
H154	H	1.396349	0.063596	1.242838
H155	H	0.832916	-1.067647	0.229157
H156	H	1.332916	-0.567647	0.729157
Br157	Br	0.684579	-0.427805	0.207228
Br158	Br	1.184579	0.072195	0.707228
H159	H	0.346515	-0.215241	0.311036
H160	H	0.846515	0.284759	0.811036
Br161	Br	1.000001	-1.086553	0.396459
Br162	Br	1.500001	-0.586553	0.896459
Br163	Br	0.281206	-0.223973	0.396517
Br164	Br	0.781206	0.276027	0.896517
H165	H	0.832792	-0.404344	0.659704
H166	H	1.332792	0.095656	1.159704
H167	H	0.978274	-0.247304	0.541047
H168	H	1.478274	0.252696	1.041047
Br169	Br	0.999938	-0.919935	0.396437
Br170	Br	1.499938	-0.419935	0.896437
Br171	Br	0.811013	-0.427896	0.523218
Br172	Br	1.311013	0.072104	1.023218
Br173	Br	0.811047	-0.731110	0.207355
Br174	Br	1.311047	-0.231110	0.707355
H175	H	0.978079	-0.583401	0.374624
H176	H	1.478079	-0.083401	0.874624
H177	H	0.978124	-0.711635	0.374639
H178	H	1.478124	-0.211635	0.874639
H179	H	0.978270	-0.247254	0.659753
H180	H	1.478270	0.252746	1.159753
Br181	Br	0.810992	-0.564490	0.207330
Br182	Br	1.310992	-0.064490	0.707330
H183	H	0.144705	-0.247402	0.374725
H184	H	0.644705	0.252598	0.874725
H185	H	0.914561	-0.215129	0.742836
H186	H	1.414561	0.284871	1.242836
H187	H	0.978280	-0.247149	0.944683
H188	H	1.478280	0.252851	1.444683
Br189	Br	0.811028	-0.427691	1.081092
Br190	Br	1.311028	0.072309	1.581092
Br191	Br	0.811106	-0.920262	0.207378
Br192	Br	1.311106	-0.420262	0.707378
Br193	Br	1.000055	-0.223604	1.081162
Br194	Br	1.500055	0.276396	1.581162
Br195	Br	0.811030	-0.427750	0.926859
Br196	Br	1.311030	0.072250	1.426859
Br197	Br	0.893826	-0.469476	0.879306
Br198	Br	1.393826	0.030524	1.379306
H199	H	0.144495	-0.404241	0.229073
H200	H	0.644495	0.095759	0.729073
Br201	Br	0.530606	-0.224023	0.396493
Br202	Br	1.030606	0.275977	0.896493
H203	H	0.263205	-0.404266	0.229063
H204	H	0.763205	0.095734	0.729063
H205	H	0.346326	-0.436497	0.292745
H206	H	0.846326	0.063503	0.792745
Br207	Br	0.530342	-0.427779	0.207248
Br208	Br	1.030342	0.072221	0.707248
Br209	Br	0.482765	-0.469627	0.289986
Br210	Br	0.982765	0.030373	0.789986
