data_functionalizedCrystal
_audit_creation_method	'MofGen! by Chris Wilmer'
_symmetry_space_group_name_H-M	'P1'
_symmetry_Int_Tables_number	1
_symmetry_cell_setting	triclinic
loop_
_symmetry_equiv_pos_as_xyz
  x,y,z
_cell_length_a	17.019282
_cell_length_b	17.019294
_cell_length_c	18.366186
_cell_angle_alpha	86.114787
_cell_angle_beta	93.872176
_cell_angle_gamma	83.655696
loop_
_atom_site_label
_atom_site_type_symbol
_atom_site_fract_x
_atom_site_fract_y
_atom_site_fract_z
O1	O	1.046568	0.100443	-0.001201
O2	O	0.816889	0.113271	-0.016413
O3	O	0.938135	-0.007983	-0.001201
O4	O	0.925322	0.221698	-0.016413
O5	O	0.938115	-0.007989	0.119897
O6	O	0.816869	0.113265	0.104686
O7	O	1.046547	0.100437	0.119898
Zn8	Zn	0.931705	0.106850	0.131519
Zn9	Zn	0.931732	0.106858	-0.028034
O10	O	0.925301	0.221692	0.104686
C11	C	0.787491	0.112784	0.042323
C12	C	0.699922	0.111331	0.036921
C13	C	0.658776	0.110643	0.100396
C14	C	0.576498	0.109266	0.095323
C15	C	0.535367	0.108582	0.026774
C16	C	0.576519	0.109267	-0.036705
C17	C	0.658797	0.110639	-0.031631
C18	C	0.286944	0.104435	0.008152
C19	C	0.204661	0.103065	0.003083
C20	C	0.204645	0.103062	0.135111
C21	C	0.286923	0.104439	0.140179
C22	C	0.328069	0.105120	0.076700
C23	C	0.451265	0.107176	0.021587
C24	C	0.412170	0.106520	0.081888
C25	C	0.937639	-0.037375	0.061160
C26	C	0.936181	-0.124944	0.066557
C27	C	0.935509	-0.166076	0.003082
C28	C	0.934133	-0.248356	0.008155
C29	C	0.933436	-0.289502	0.076704
C30	C	0.934106	-0.248364	0.140183
C31	C	0.935475	-0.166085	0.135109
C32	C	0.929295	-0.537931	0.095327
C33	C	0.927928	-0.620215	0.100396
C34	C	0.927954	-0.620201	-0.031632
C35	C	0.929329	-0.537922	-0.036700
C36	C	0.929994	-0.496790	0.026779
C37	C	0.932033	-0.373605	0.081891
C38	C	0.931392	-0.412687	0.021590
C39	C	1.075946	0.100925	0.061160
C40	C	1.163514	0.102377	0.066557
C41	C	0.925798	0.251083	0.042324
C42	C	0.927256	0.338652	0.036922
N43	N	0.931692	0.106844	0.240409
N44	N	0.931751	0.106858	-0.136924
C45	C	0.985397	0.053179	0.285245
C46	C	0.985402	0.053176	0.361473
C47	C	0.931710	0.106851	0.392863
C48	C	0.877994	0.160520	0.348017
C49	C	0.877985	0.160517	0.271790
C50	C	0.921294	0.178706	0.508462
C51	C	0.921308	0.178711	0.584688
C52	C	0.931732	0.106861	0.627971
C53	C	0.942158	0.035004	0.595021
C54	C	0.942149	0.035001	0.518794
C55	C	0.931713	0.106860	0.475517
C56	C	0.985446	0.053188	0.755463
C57	C	0.985445	0.053183	0.831692
C58	C	0.878041	0.160534	0.818234
C59	C	0.878038	0.160532	0.742006
C60	C	0.931744	0.106859	0.710625
H61	H	0.320407	0.104992	0.195999
C62	C	0.909832	0.257754	0.620925
N63	N	0.901183	0.317292	0.648217
H64	H	0.927356	-0.653714	0.156219
C65	C	0.159418	0.102312	-0.072329
N66	N	0.125341	0.101746	-0.129127
H67	H	0.927411	-0.653700	-0.083313
H68	H	0.834320	0.204234	0.843791
H69	H	0.445663	0.107073	0.137700
H70	H	0.171136	0.102507	0.186792
C71	C	1.044516	-0.005860	0.720941
N72	N	1.089007	-0.050336	0.694942
H73	H	0.543025	0.108704	-0.092519
C74	C	0.930031	-0.492697	0.165156
N75	N	0.930586	-0.458624	0.217756
C76	C	0.704057	0.111397	-0.101459
N77	N	0.738146	0.111966	-0.154055
H78	H	0.933533	-0.281871	0.195997
C79	C	0.332194	0.105177	-0.061677
N80	N	0.366280	0.105733	-0.114276
C81	C	0.936276	-0.120822	-0.072328
N82	N	0.936850	-0.086739	-0.129129
C83	C	0.933467	-0.293607	-0.061667
N84	N	0.932990	-0.327693	-0.114259
H85	H	0.950636	-0.023508	0.491969
H86	H	0.417767	0.106619	-0.034225
C87	C	0.936217	-0.120840	0.204937
N88	N	0.936773	-0.086763	0.257533
C89	C	1.044469	-0.005870	0.250731
N90	N	1.088959	-0.050348	0.224733
C91	C	1.044492	-0.005854	0.410802
N92	N	1.089002	-0.050313	0.447954
C93	C	0.531239	0.108528	0.165149
N94	N	0.497149	0.107978	0.217746
H95	H	0.950646	-0.023503	0.630261
H96	H	0.931954	-0.379182	-0.034222
H97	H	0.929898	-0.504426	-0.092520
H98	H	0.931468	-0.407116	0.137704
H99	H	1.029176	0.009478	0.868199
C100	C	0.704013	0.111396	0.175805
N101	N	0.738083	0.111958	0.232606
H102	H	0.834309	0.204234	0.705498
C103	C	0.909827	0.257752	0.460858
N104	N	0.901190	0.317287	0.425003
H105	H	0.834251	0.204218	0.235284
H106	H	0.834275	0.204222	0.373578
