data_functionalizedCrystal
_audit_creation_method	'MofGen! by Chris Wilmer'
_symmetry_space_group_name_H-M	'P1'
_symmetry_Int_Tables_number	1
_symmetry_cell_setting	triclinic
loop_
_symmetry_equiv_pos_as_xyz
  x,y,z
_cell_length_a	18.215407
_cell_length_b	18.101395
_cell_length_c	18.101390
_cell_angle_alpha	89.968753
_cell_angle_beta	89.982404
_cell_angle_gamma	90.031552
loop_
_atom_site_label
_atom_site_type_symbol
_atom_site_fract_x
_atom_site_fract_y
_atom_site_fract_z
Zn1	Zn	1.125024	-0.294793	-0.418745
Zn2	Zn	1.458357	0.038540	-0.085411
Zn3	Zn	1.791691	0.371874	0.247922
Zn4	Zn	1.124924	-0.418650	-0.294906
Zn5	Zn	1.458257	-0.085317	0.038427
Zn6	Zn	1.791590	0.248017	0.371760
Zn7	Zn	1.001961	-0.294828	-0.294917
Zn8	Zn	1.335295	0.038506	0.038416
Zn9	Zn	1.668628	0.371839	0.371750
Zn10	Zn	1.001909	-0.418598	-0.418706
Zn11	Zn	1.335242	-0.085265	-0.085373
Zn12	Zn	1.668576	0.248068	0.247960
O13	O	1.063455	-0.356717	-0.356818
O14	O	1.396788	-0.023384	-0.023485
O15	O	1.730121	0.309949	0.309848
O16	O	1.227995	-0.311230	-0.402329
O17	O	1.561328	0.022103	-0.068995
O18	O	1.894662	0.355437	0.264338
O19	O	1.108592	-0.402261	-0.191275
O20	O	1.441926	-0.068927	0.142058
O21	O	1.775259	0.264406	0.475392
O22	O	1.018350	-0.191190	-0.311363
O23	O	1.351683	0.142143	0.021970
O24	O	1.685016	0.475476	0.355303
O25	O	1.227921	-0.402227	-0.311345
O26	O	1.561255	-0.068894	0.021988
O27	O	1.894588	0.264439	0.355321
O28	O	1.108763	-0.191165	-0.402339
O29	O	1.442097	0.142169	-0.069006
O30	O	1.775430	0.475502	0.264328
O31	O	1.018252	-0.311289	-0.191283
O32	O	1.351586	0.022044	0.142051
O33	O	1.684919	0.355378	0.475384
O34	O	0.898970	-0.311239	-0.311326
O35	O	1.232303	0.022094	0.022007
O36	O	1.565637	0.355428	0.355341
O37	O	1.018261	-0.402139	-0.522344
O38	O	1.351594	-0.068806	-0.189011
O39	O	1.684927	0.264527	0.144322
O40	O	0.898932	-0.402173	-0.402274
O41	O	1.232265	-0.068839	-0.068940
O42	O	1.565598	0.264494	0.264393
O43	O	1.108713	-0.311180	-0.522372
O44	O	1.442046	0.022153	-0.189039
O45	O	1.775379	0.355487	0.144294
O46	O	1.108542	-0.522276	-0.311308
O47	O	1.441875	-0.188943	0.022025
O48	O	1.775208	0.144391	0.355358
O49	O	1.018163	-0.522238	-0.402263
O50	O	1.351497	-0.188905	-0.068930
O51	O	1.684830	0.144429	0.264403
C52	C	0.872248	-0.356705	-0.356797
C53	C	1.205582	-0.023371	-0.023464
C54	C	1.538915	0.309962	0.309869
C55	C	0.790449	-0.356717	-0.356806
C56	C	1.123783	-0.023384	-0.023472
C57	C	1.457116	0.309950	0.309861
C58	C	1.063356	-0.549128	-0.356797
C59	C	1.396689	-0.215795	-0.023463
C60	C	1.730023	0.117539	0.309870
C61	C	1.063381	-0.631442	-0.356812
C62	C	1.396715	-0.298109	-0.023479
C63	C	1.730048	0.035225	0.309855
C64	C	0.602255	-0.404141	-0.404103
C65	C	0.935588	-0.070807	-0.070769
C66	C	1.268921	0.262526	0.262564
C67	C	0.525396	-0.404143	-0.404112
C68	C	0.858729	-0.070810	-0.070779
C69	C	1.192063	0.262524	0.262555
C70	C	0.525406	-0.309307	-0.309551
C71	C	0.858740	0.024026	0.023783
C72	C	1.192073	0.357359	0.357116
C73	C	0.602264	-0.309302	-0.309546
C74	C	0.935597	0.024031	0.023788
C75	C	1.268930	0.357365	0.357121
C76	C	0.640686	-0.356723	-0.356821
C77	C	0.974019	-0.023389	-0.023487
C78	C	1.307353	0.309944	0.309846
C79	C	0.486970	-0.356731	-0.356835
C80	C	0.820303	-0.023397	-0.023501
C81	C	1.153636	0.309936	0.309832
C82	C	0.403636	-0.356733	-0.356844
C83	C	0.736969	-0.023399	-0.023511
C84	C	1.070303	0.309934	0.309822
C85	C	0.724025	-0.356720	-0.356812
C86	C	1.057358	-0.023386	-0.023479
C87	C	1.390691	0.309947	0.309855
C88	C	1.063543	-0.930533	-0.356852
C89	C	1.396876	-0.597200	-0.023519
C90	C	1.730209	-0.263866	0.309815
C91	C	1.006811	-0.899215	-0.414221
C92	C	1.340144	-0.565881	-0.080887
C93	C	1.673478	-0.232548	0.252446
C94	C	1.006541	-0.813597	-0.414041
C95	C	1.339875	-0.480263	-0.080708
C96	C	1.673208	-0.146930	0.252625
C97	C	1.063463	-0.782150	-0.356833
C98	C	1.396796	-0.448817	-0.023500
C99	C	1.730129	-0.115484	0.309834
C100	C	1.042468	-0.813307	-0.278783
C101	C	1.375801	-0.479974	0.054550
C102	C	1.709134	-0.146641	0.387883
C103	C	1.042102	-0.898952	-0.279127
C104	C	1.375435	-0.565619	0.054207
C105	C	1.708769	-0.232286	0.387540
C106	C	1.141394	-0.898875	-0.376846
C107	C	1.474727	-0.565541	-0.043513
C108	C	1.808060	-0.232208	0.289821
C109	C	1.140936	-0.813223	-0.378558
C110	C	1.474269	-0.479890	-0.045224
C111	C	1.807602	-0.146557	0.288109
C112	C	1.063419	-0.698291	-0.356817
C113	C	1.396752	-0.364958	-0.023484
C114	C	1.730085	-0.031624	0.309849
C115	C	1.063585	-1.014392	-0.356862
C116	C	1.396918	-0.681059	-0.023529
C117	C	1.730252	-0.347726	0.309804
C118	C	1.255407	-0.356731	-0.356840
C119	C	1.588741	-0.023397	-0.023507
C120	C	1.922074	0.309936	0.309826
C121	C	1.337206	-0.356736	-0.356850
C122	C	1.670540	-0.023403	-0.023516
C123	C	2.003873	0.309930	0.309817
C124	C	1.063492	-0.356650	-0.549980
C125	C	1.396825	-0.023317	-0.216647
C126	C	1.730159	0.310017	0.116686
C127	C	1.063508	-0.356621	-0.632295
C128	C	1.396841	-0.023288	-0.298961
C129	C	1.730174	0.310045	0.034372
C130	C	1.063573	-0.163555	-0.356857
C131	C	1.396907	0.169778	-0.023523
C132	C	1.730240	0.503111	0.309810
C133	C	1.063624	-0.081241	-0.356873
C134	C	1.396957	0.252092	-0.023539
C135	C	1.730291	0.585425	0.309794
C136	C	1.063534	-0.356598	-0.783003
C137	C	1.396867	-0.023265	-0.449670
C138	C	1.730201	0.310068	-0.116336
C139	C	1.120446	-0.299364	-0.814375
C140	C	1.453779	0.033969	-0.481041
C141	C	1.787113	0.367303	-0.147708
C142	C	1.120684	-0.299519	-0.899993
C143	C	1.454017	0.033814	-0.566660
C144	C	1.787351	0.367148	-0.233326
C145	C	1.063560	-0.356574	-0.931386
C146	C	1.396893	-0.023241	-0.598052
C147	C	1.730227	0.310093	-0.264719
C148	C	1.084305	-0.434685	-0.900277
C149	C	1.417638	-0.101352	-0.566944
C150	C	1.750972	0.231981	-0.233611
C151	C	1.084703	-0.434368	-0.814633
C152	C	1.418036	-0.101035	-0.481299
C153	C	1.751370	0.232299	-0.147966
C154	C	0.985739	-0.336399	-0.814560
C155	C	1.319072	-0.003065	-0.481226
C156	C	1.652406	0.330268	-0.147893
C157	C	0.986171	-0.334663	-0.900211
C158	C	1.319505	-0.001330	-0.566878
C159	C	1.652838	0.332004	-0.233544
C160	C	1.063573	-0.356565	-1.015245
C161	C	1.396907	-0.023232	-0.681912
C162	C	1.730240	0.310101	-0.348579
C163	C	1.063522	-0.356612	-0.699144
C164	C	1.396856	-0.023279	-0.365810
C165	C	1.730189	0.310054	-0.032477
C166	C	1.063460	-0.356731	-0.164408
C167	C	1.396793	-0.023398	0.168925
C168	C	1.730126	0.309936	0.502259
C169	C	1.063586	-0.356551	-0.082094
C170	C	1.396920	-0.023218	0.251239
C171	C	1.730253	0.310116	0.584572
H172	H	0.633536	-0.442752	-0.442599
H173	H	0.966869	-0.109419	-0.109266
H174	H	1.300202	0.223915	0.224068
H175	H	0.633555	-0.270684	-0.271043
H176	H	0.966889	0.062649	0.062291
H177	H	1.300222	0.395983	0.395624
H178	H	1.044130	-0.478488	-0.920608
H179	H	1.377463	-0.145154	-0.587275
H180	H	1.710797	0.188179	-0.253942
H181	H	1.019816	-0.919758	-0.472281
H182	H	1.353149	-0.586425	-0.138948
H183	H	1.686482	-0.253092	0.194386
H184	H	1.160535	-0.920419	-0.432790
H185	H	1.493869	-0.587085	-0.099456
H186	H	1.827202	-0.253752	0.233877
H187	H	1.082489	-0.792940	-0.234874
H188	H	1.415822	-0.459606	0.098459
H189	H	1.749155	-0.126273	0.431793
H190	H	0.986162	-0.791924	-0.261543
H191	H	1.319495	-0.458591	0.071790
H192	H	1.652829	-0.125257	0.405124
H193	H	1.019676	-0.792529	-0.471914
H194	H	1.353010	-0.459195	-0.138581
H195	H	1.686343	-0.125862	0.194753
H196	H	0.494109	-0.442754	-0.442615
H197	H	0.827442	-0.109421	-0.109281
H198	H	1.160775	0.223912	0.224052
H199	H	0.949457	-0.920802	-0.401143
H200	H	1.282790	-0.587469	-0.067810
H201	H	1.616123	-0.254136	0.265523
H202	H	0.494114	-0.270700	-0.271060
H203	H	0.827447	0.062633	0.062274
H204	H	1.160780	0.395967	0.395607
H205	H	0.985194	-0.918997	-0.262190
H206	H	1.318527	-0.585664	0.071143
H207	H	1.651860	-0.252330	0.404477
H208	H	0.948836	-0.793175	-0.400797
H209	H	1.282170	-0.459842	-0.067464
H210	H	1.615503	-0.126508	0.265869
H211	H	1.156768	-0.792856	-0.435998
H212	H	1.490101	-0.459523	-0.102665
H213	H	1.823435	-0.126190	0.230669
H214	H	1.081631	-0.919672	-0.234925
H215	H	1.414964	-0.586339	0.098408
H216	H	1.748297	-0.253006	0.431742
H217	H	1.185440	-0.791813	-0.339819
H218	H	1.518773	-0.458480	-0.006486
H219	H	1.852106	-0.125147	0.326848
H220	H	1.183661	-0.919127	-0.335062
H221	H	1.516994	-0.585794	-0.001729
H222	H	1.850327	-0.252460	0.331604
H223	H	1.107723	-0.241610	-0.921028
H224	H	1.441056	0.091724	-0.587695
H225	H	1.774390	0.425057	-0.254361
H226	H	1.107641	-0.241276	-0.793801
H227	H	1.440975	0.092057	-0.460467
H228	H	1.774308	0.425390	-0.127134
H229	H	1.177764	-0.312592	-0.792861
H230	H	1.511097	0.020741	-0.459528
H231	H	1.844431	0.354075	-0.126194
H232	H	1.178337	-0.312903	-0.920490
H233	H	1.511670	0.020430	-0.587156
H234	H	1.845003	0.353764	-0.253823
H235	H	1.141562	-0.451454	-0.794663
H236	H	1.474895	-0.118121	-0.461330
H237	H	1.808229	0.215213	-0.127996
H238	H	1.045022	-0.478464	-0.793877
H239	H	1.378355	-0.145131	-0.460543
H240	H	1.711688	0.188202	-0.127210
H241	H	0.970522	-0.277179	-0.920546
H242	H	1.303855	0.056154	-0.587213
H243	H	1.637188	0.389488	-0.253879
H244	H	1.140536	-0.452070	-0.921751
H245	H	1.473870	-0.118737	-0.588418
H246	H	1.807203	0.214596	-0.255084
H247	H	0.966786	-0.280419	-0.792965
H248	H	1.300120	0.052914	-0.459631
H249	H	1.633453	0.386247	-0.126298
H250	H	0.941530	-0.373283	-0.921578
H251	H	1.274863	-0.039949	-0.588245
H252	H	1.608197	0.293384	-0.254911
H253	H	0.943340	-0.378082	-0.794268
H254	H	1.276673	-0.044749	-0.460935
H255	H	1.610006	0.288585	-0.127602
