data_functionalizedCrystal
_audit_creation_method	'MofGen! by Chris Wilmer'
_symmetry_space_group_name_H-M	'P1'
_symmetry_Int_Tables_number	1
_symmetry_cell_setting	triclinic
loop_
_symmetry_equiv_pos_as_xyz
  x,y,z
_cell_length_a	14.044220
_cell_length_b	15.944545
_cell_length_c	12.503572
_cell_angle_alpha	93.521358
_cell_angle_beta	86.164750
_cell_angle_gamma	88.342525
loop_
_atom_site_label
_atom_site_type_symbol
_atom_site_fract_x
_atom_site_fract_y
_atom_site_fract_z
O1	O	1.263174	0.198062	-0.089215
O2	O	1.763174	0.698062	0.410785
O3	O	0.987206	0.190753	-0.089242
O4	O	1.487206	0.690753	0.410758
O5	O	1.132728	0.072697	-0.089215
O6	O	1.632728	0.572697	0.410785
O7	O	1.117651	0.316117	-0.089242
O8	O	1.617651	0.816117	0.410758
O9	O	1.121784	0.081592	0.089425
O10	O	1.621784	0.581592	0.589425
O11	O	0.976262	0.199647	0.089398
O12	O	1.476262	0.699647	0.589398
O13	O	1.252230	0.206956	0.089424
O14	O	1.752230	0.706956	0.589424
Cu15	Cu	1.113246	0.204114	0.105722
Cu16	Cu	1.613246	0.704114	0.605722
Cu17	Cu	1.126189	0.193595	-0.105540
Cu18	Cu	1.626189	0.693595	0.394460
O19	O	1.106707	0.325012	0.089398
O20	O	1.606707	0.825012	0.589398
C21	C	0.946419	0.192001	0.000074
C22	C	1.446419	0.692001	0.500074
C23	C	0.841194	0.182459	0.000065
C24	C	1.341194	0.682459	0.500065
C25	C	0.648530	0.165017	0.000088
C26	C	1.148530	0.665017	0.500088
C27	C	0.590900	0.232688	0.000085
C28	C	1.090900	0.732688	0.500085
C29	C	0.483695	0.222983	0.000098
C30	C	0.983695	0.722983	0.500098
C31	C	0.755745	0.174721	0.000075
C32	C	1.255745	0.674721	0.500075
C33	C	1.126631	0.045804	0.000106
C34	C	1.626631	0.545804	0.500106
C35	C	1.124758	-0.047583	0.000108
C36	C	1.624758	0.452417	0.500108
C37	C	1.028959	-0.325390	0.000077
C38	C	1.528959	0.174610	0.500077
C39	C	1.080542	-0.275732	-0.087997
C40	C	1.580542	0.224268	0.412003
C41	C	1.118078	-0.383728	0.000077
C42	C	1.618078	0.116272	0.500077
C43	C	1.069776	-0.266988	0.088127
C44	C	1.569776	0.233012	0.588127
C45	C	1.121355	-0.218569	0.000094
C46	C	1.621355	0.281431	0.500094
C47	C	1.169642	-0.335303	-0.088070
C48	C	1.669642	0.164697	0.411930
C49	C	1.158858	-0.326560	0.088134
C50	C	1.658858	0.173440	0.588134
C51	C	1.210508	-0.276930	0.000037
C52	C	1.710508	0.223070	0.500037
C53	C	1.116188	-0.478873	0.000066
C54	C	1.616188	0.021127	0.500066
C55	C	1.123253	-0.123427	0.000097
C56	C	1.623253	0.376573	0.500097
C57	C	1.293016	0.205708	0.000105
C58	C	1.793016	0.705708	0.500105
C59	C	1.398242	0.215249	0.000108
C60	C	1.898242	0.715249	0.500108
C61	C	1.112804	0.351905	0.000074
C62	C	1.612804	0.851905	0.500074
C63	C	1.114679	0.445291	0.000064
C64	C	1.614679	0.945291	0.500064
N65	N	1.104150	0.211512	0.254313
N66	N	1.604150	0.711512	0.754313
N67	N	1.135293	0.186191	-0.254131
N68	N	1.635293	0.686191	0.245869
C69	C	1.090769	0.222403	0.473426
C70	C	1.590769	0.722403	0.973426
C71	C	1.148671	0.175303	0.526763
C72	C	1.648671	0.675303	1.026763
C73	C	1.141225	0.181362	0.648685
C74	C	1.641225	0.681362	1.148685
C75	C	1.098213	0.216344	0.351493
C76	C	1.598213	0.716344	0.851493
H77	H	0.617358	0.099799	0.000101
H78	H	1.117358	0.599799	0.500101
H79	H	0.952214	-0.346794	-0.000016
H80	H	1.452214	0.153206	0.499984
H81	H	1.047467	-0.253323	-0.162466
H82	H	1.547467	0.246677	0.337534
C83	C	0.633014	0.320802	0.000056
C84	C	1.133014	0.820802	0.500056
N85	N	0.664739	0.387167	0.000028
N86	N	1.164739	0.887167	0.500028
H87	H	1.203834	0.130429	0.480861
H88	H	1.703834	0.630429	0.980861
H89	H	1.211818	-0.365005	-0.162613
H90	H	1.711818	0.134995	0.337387
H91	H	1.287320	-0.255690	-0.000005
H92	H	1.787320	0.244310	0.499995
H93	H	1.191900	-0.348986	0.162605
H94	H	1.691900	0.151014	0.662605
C95	C	1.016249	0.283021	0.535435
C96	C	1.516249	0.783021	1.035435
N97	N	0.960122	0.328678	0.582153
N98	N	1.460122	0.828678	1.082153
C99	C	1.012748	-0.226730	0.188720
C100	C	1.512748	0.273270	0.688720
N101	N	0.969789	-0.196411	0.264484
N102	N	1.469789	0.303589	0.764484
