data_functionalizedCrystal
_audit_creation_method	'MofGen! by Chris Wilmer'
_symmetry_space_group_name_H-M	'P1'
_symmetry_Int_Tables_number	1
_symmetry_cell_setting	triclinic
loop_
_symmetry_equiv_pos_as_xyz
  x,y,z
_cell_length_a	21.395364
_cell_length_b	21.295417
_cell_length_c	21.395356
_cell_angle_alpha	89.970425
_cell_angle_beta	89.976411
_cell_angle_gamma	90.044653
loop_
_atom_site_label
_atom_site_type_symbol
_atom_site_fract_x
_atom_site_fract_y
_atom_site_fract_z
Zn1	Zn	0.957858	-0.250374	-0.354253
Zn2	Zn	1.457858	0.249626	0.145747
Zn3	Zn	0.957764	-0.355642	-0.249472
Zn4	Zn	1.457764	0.144358	0.250528
Zn5	Zn	0.853074	-0.250418	-0.249490
Zn6	Zn	1.353074	0.249582	0.250510
Zn7	Zn	0.853044	-0.355637	-0.354213
Zn8	Zn	1.353044	0.144363	0.145787
O9	O	0.905435	-0.303018	-0.301857
O10	O	1.405435	0.196982	0.198143
O11	O	1.045523	-0.264322	-0.340364
O12	O	1.545523	0.235678	0.159636
O13	O	0.943850	-0.341705	-0.161797
O14	O	1.443850	0.158295	0.338203
O15	O	0.867026	-0.162323	-0.263412
O16	O	1.367026	0.337677	0.236588
O17	O	1.045454	-0.341662	-0.263381
O18	O	1.545454	0.158338	0.236619
O19	O	0.944010	-0.162291	-0.340381
O20	O	1.444010	0.337709	0.159619
O21	O	0.866935	-0.264398	-0.161810
O22	O	1.366935	0.235602	0.338190
O23	O	0.765392	-0.264392	-0.263372
O24	O	1.265392	0.235608	0.236628
O25	O	0.866974	-0.341653	-0.441896
O26	O	1.366974	0.158347	0.058104
O27	O	0.765370	-0.341696	-0.340311
O28	O	1.265370	0.158304	0.159689
O29	O	0.943980	-0.264316	-0.441926
O30	O	1.443980	0.235684	0.058074
O31	O	0.943820	-0.443731	-0.263342
O32	O	1.443820	0.056269	0.236658
O33	O	0.866883	-0.443727	-0.340294
O34	O	1.366883	0.056273	0.159706
C35	C	0.742647	-0.303049	-0.301839
C36	C	1.242647	0.196951	0.198161
C37	C	0.673006	-0.303077	-0.301847
C38	C	1.173006	0.196923	0.198153
C39	C	0.640351	-0.262872	-0.341993
C40	C	1.140351	0.237128	0.158007
C41	C	0.574916	-0.262855	-0.341996
C42	C	1.074916	0.237145	0.158004
C43	C	0.542138	-0.303055	-0.301858
C44	C	1.042138	0.196945	0.198142
C45	C	0.574800	-0.343263	-0.261704
C46	C	1.074800	0.156737	0.238296
C47	C	0.640235	-0.343274	-0.261698
C48	C	1.140235	0.156726	0.238302
C49	C	0.438414	-0.359745	-0.296819
C50	C	0.938414	0.140255	0.203181
C51	C	0.372981	-0.359735	-0.296829
C52	C	0.872981	0.140265	0.203171
C53	C	0.340317	-0.303020	-0.301872
C54	C	0.840317	0.196980	0.198128
C55	C	0.373093	-0.246313	-0.306918
C56	C	0.873093	0.253687	0.193082
C57	C	0.438528	-0.246324	-0.306913
C58	C	0.938528	0.253676	0.193087
C59	C	0.471185	-0.303047	-0.301860
C60	C	0.971185	0.196953	0.198140
C61	C	0.236710	-0.262793	-0.342023
C62	C	0.736710	0.237207	0.157977
C63	C	0.171273	-0.262775	-0.342021
C64	C	0.671273	0.237225	0.157979
C65	C	0.171159	-0.343189	-0.261733
C66	C	0.671159	0.156811	0.238267
C67	C	0.236594	-0.343201	-0.261732
C68	C	0.736594	0.156799	0.238268
C69	C	0.269366	-0.303004	-0.301880
C70	C	0.769366	0.196996	0.198120
C71	C	0.905355	-0.466570	-0.301825
C72	C	1.405355	0.033430	0.198175
C73	C	0.905378	-0.536538	-0.301833
C74	C	1.405378	-0.036538	0.198167
C75	C	0.945441	-0.569330	-0.341939
C76	C	1.445441	-0.069330	0.158061
C77	C	0.945463	-0.635073	-0.341955
C78	C	1.445463	-0.135073	0.158045
C79	C	0.905429	-0.668020	-0.301852
C80	C	1.405429	-0.168020	0.198148
C81	C	0.865359	-0.635220	-0.261743
C82	C	1.365359	-0.135220	0.238257
C83	C	0.865333	-0.569478	-0.261733
C84	C	1.365333	-0.069478	0.238267
N85	N	0.900693	-0.771282	-0.247019
N86	N	1.400693	-0.271282	0.252981
N87	N	0.900720	-0.833734	-0.247030
N88	N	1.400720	-0.333734	0.252970
C89	C	0.905502	-0.866095	-0.301881
C90	C	1.405502	-0.366095	0.198119
N91	N	0.910267	-0.833645	-0.356721
N92	N	1.410267	-0.333645	0.143279
N93	N	0.910243	-0.771188	-0.356709
N94	N	1.410243	-0.271188	0.143291
C95	C	0.905452	-0.739305	-0.301859
C96	C	1.405452	-0.239305	0.198141
C97	C	0.945591	-0.970173	-0.342007
C98	C	1.445591	-0.470173	0.157993
C99	C	0.945609	-1.035917	-0.342024
C100	C	1.445609	-0.535917	0.157976
C101	C	0.865508	-1.036062	-0.261807
C102	C	1.365508	-0.536062	0.238193
C103	C	0.865487	-0.970320	-0.261796
C104	C	1.365487	-0.470320	0.238204
C105	C	0.905532	-0.937379	-0.301895
C106	C	1.405532	-0.437379	0.198105
C107	C	1.068858	-0.302988	-0.301875
C108	C	1.568858	0.197012	0.198125
C109	C	1.138499	-0.302975	-0.301883
C110	C	1.638499	0.197025	0.198117
C111	C	0.905484	-0.302979	-0.465280
C112	C	1.405484	0.197021	0.034720
C113	C	0.905505	-0.302962	-0.534922
C114	C	1.405505	0.197038	-0.034922
C115	C	0.905532	-0.138828	-0.301903
C116	C	1.405532	0.361172	0.198097
C117	C	0.905574	-0.068859	-0.301922
C118	C	1.405574	0.431141	0.198078
C119	C	0.865466	-0.262704	-0.567632
C120	C	1.365466	0.237296	-0.067632
C121	C	0.865464	-0.262692	-0.633067
C122	C	1.365464	0.237308	-0.133067
C123	C	0.905512	-0.302932	-0.665790
C124	C	1.405512	0.197068	-0.165790
C125	C	0.945554	-0.343199	-0.633072
C126	C	1.445554	0.156801	-0.133072
C127	C	0.945550	-0.343214	-0.567638
C128	C	1.445550	0.156786	-0.067638
C129	C	0.961964	-0.307867	-0.769476
C130	C	1.461964	0.192133	-0.269476
C131	C	0.961969	-0.307847	-0.834909
C132	C	1.461969	0.192153	-0.334909
C133	C	0.905522	-0.302890	-0.867611
C134	C	1.405522	0.197110	-0.367611
C135	C	0.849070	-0.297939	-0.834872
C136	C	1.349070	0.202061	-0.334872
C137	C	0.849066	-0.297954	-0.769437
C138	C	1.349066	0.202046	-0.269437
C139	C	0.905520	-0.302921	-0.736742
C140	C	1.405520	0.197079	-0.236742
C141	C	0.865478	-0.262616	-0.971274
C142	C	1.365478	0.237384	-0.471274
C143	C	0.865475	-0.262609	-1.036710
C144	C	1.365475	0.237391	-0.536710
C145	C	0.945570	-0.343113	-1.036714
C146	C	1.445570	0.156887	-0.536714
C147	C	0.945567	-0.343123	-0.971279
C148	C	1.445567	0.156877	-0.471279
C149	C	0.905522	-0.302872	-0.938562
C150	C	1.405522	0.197128	-0.438562
C151	C	0.905422	-0.303011	-0.139069
C152	C	1.405422	0.196989	0.360931
C153	C	0.905522	-0.302851	-0.069429
C154	C	1.405522	0.197149	0.430571
H155	H	0.548323	-0.230112	-0.374687
H156	H	1.048323	0.269888	0.125313
N157	N	0.986480	-0.936505	-0.382967
N158	N	1.486480	-0.436505	0.117033
N159	N	1.026402	-0.899785	-0.360959
N160	N	1.526402	-0.399785	0.139041
H161	H	1.055277	-0.876005	-0.389888
H162	H	1.555277	-0.376005	0.110112
N163	N	0.986383	-0.668588	-0.382922
N164	N	1.486383	-0.168588	0.117078
N165	N	0.964336	-0.705275	-0.422832
N166	N	1.464336	-0.205275	0.077168
H167	H	0.993236	-0.728944	-0.451765
H168	H	1.493236	-0.228944	0.048235
H169	H	0.263394	-0.230059	-0.374711
H170	H	0.763394	0.269941	0.125289
N171	N	0.339727	-0.188381	-0.312077
N172	N	0.839727	0.311619	0.187923
N173	N	0.281305	-0.188377	-0.312081
N174	N	0.781305	0.311623	0.187919
H175	H	0.257736	-0.147464	-0.315727
H176	H	0.757736	0.352536	0.184273
H177	H	0.144472	-0.375920	-0.229052
H178	H	0.644472	0.124080	0.270948
H179	H	0.832866	-0.229828	-1.063342
H180	H	1.332866	0.270172	-0.563342
H181	H	0.832761	-0.662050	-0.229093
H182	H	1.332761	-0.162050	0.270907
H183	H	0.803106	-0.293897	-0.861496
H184	H	1.303106	0.206103	-0.361496
N185	N	0.824612	-1.069719	-0.220852
N186	N	1.324612	-0.569719	0.279148
N187	N	0.824636	-1.128416	-0.220868
N188	N	1.324636	-0.628416	0.279132
H189	H	0.795750	-1.152189	-0.191945
H190	H	1.295750	-0.652189	0.308055
N191	N	0.471998	-0.188400	-0.312067
N192	N	0.971998	0.311600	0.187933
N193	N	0.442833	-0.137763	-0.316572
N194	N	0.942833	0.362237	0.183428
H195	H	0.466472	-0.096852	-0.320211
H196	H	0.966472	0.403148	0.179789
H197	H	0.832870	-0.229842	-0.944634
H198	H	1.332870	0.270158	-0.444634
N199	N	0.824555	-0.221589	-0.534224
N200	N	1.324555	0.278411	-0.034224
N201	N	0.788805	-0.185649	-0.563442
N202	N	1.288805	0.314351	-0.063442
H203	H	0.759909	-0.156612	-0.539847
H204	H	1.259909	0.343388	-0.039847
N205	N	0.471779	-0.417679	-0.291654
N206	N	0.971779	0.082321	0.208346
N207	N	0.464418	-0.451753	-0.244631
N208	N	0.964418	0.048247	0.255369
H209	H	0.487983	-0.492667	-0.240980
H210	H	0.987983	0.007333	0.259020
H211	H	0.803101	-0.293923	-0.742784
H212	H	1.303101	0.206077	-0.242784
N213	N	0.986532	-1.069406	-0.383004
N214	N	1.486532	-0.569406	0.116996
N215	N	1.022278	-1.039983	-0.418803
N216	N	1.522278	-0.539983	0.081197
H217	H	1.051181	-1.063635	-0.447747
H218	H	1.551181	-0.563635	0.052253
H219	H	0.263182	-0.375943	-0.229042
H220	H	0.763182	0.124057	0.270958
H221	H	0.548108	-0.375993	-0.229023
H222	H	1.048108	0.124007	0.270977
N223	N	0.137924	-0.221690	-0.383026
N224	N	0.637924	0.278310	0.116974
N225	N	0.167195	-0.185802	-0.418863
N226	N	0.667195	0.314198	0.081137
H227	H	0.143643	-0.156782	-0.447822
H228	H	0.643643	0.343218	0.052178
N229	N	0.339514	-0.417662	-0.291683
N230	N	0.839514	0.082338	0.208317
N231	N	0.368684	-0.468296	-0.287174
N232	N	0.868684	0.031704	0.212826
H233	H	0.345049	-0.509209	-0.283540
H234	H	0.845049	-0.009209	0.216460
N235	N	0.673584	-0.384346	-0.220681
N236	N	1.173584	0.115654	0.279319
N237	N	0.644315	-0.420232	-0.184842
N238	N	1.144315	0.079768	0.315158
H239	H	0.667868	-0.449241	-0.155873
H240	H	1.167868	0.050759	0.344127
H241	H	0.978046	-0.542512	-0.374592
H242	H	1.478046	-0.042512	0.125408
H243	H	0.832709	-0.542778	-0.229073
H244	H	1.332709	-0.042778	0.270927
H245	H	0.832861	-0.229906	-0.659705
H246	H	1.332861	0.270094	-0.159705
N247	N	0.824560	-0.936829	-0.220823
N248	N	1.324560	-0.436829	0.279177
N249	N	0.788815	-0.966251	-0.185021
N250	N	1.288815	-0.466251	0.314979
H251	H	0.759907	-0.942599	-0.156083
H252	H	1.259907	-0.442599	0.343917
H253	H	0.978179	-0.375876	-1.063356
H254	H	1.478179	0.124124	-0.563356
H255	H	0.978173	-0.375905	-0.944646
H256	H	1.478173	0.124095	-0.444646
H257	H	1.007936	-0.311876	-0.861561
H258	H	1.507936	0.188124	-0.361561
N259	N	1.019632	-0.312935	-0.736085
N260	N	1.519632	0.187065	-0.236085
N261	N	1.070030	-0.317349	-0.765321
N262	N	1.570030	0.182651	-0.265321
H263	H	1.110757	-0.320929	-0.741741
H264	H	1.610757	0.179071	-0.241741
H265	H	0.978157	-0.375996	-0.541006
H266	H	1.478157	0.124004	-0.041006
N267	N	0.986454	-0.384303	-0.666504
N268	N	1.486454	0.115697	-0.166504
N269	N	0.986452	-0.384285	-0.724927
N270	N	1.486452	0.115715	-0.224927
H271	H	1.015337	-0.413318	-0.748539
H272	H	1.515337	0.086682	-0.248539
H273	H	0.667030	-0.230140	-0.374685
H274	H	1.167030	0.269860	0.125315
