data_functionalizedCrystal
_audit_creation_method	'MofGen! by Chris Wilmer'
_symmetry_space_group_name_H-M	'P1'
_symmetry_Int_Tables_number	1
_symmetry_cell_setting	triclinic
loop_
_symmetry_equiv_pos_as_xyz
  x,y,z
_cell_length_a	6.817900
_cell_length_b	11.102288
_cell_length_c	19.453114
_cell_angle_alpha	94.505586
_cell_angle_beta	101.709288
_cell_angle_gamma	108.605689
loop_
_atom_site_label
_atom_site_type_symbol
_atom_site_fract_x
_atom_site_fract_y
_atom_site_fract_z
V1	V	-4.033154	-0.177162	-0.218999
O2	O	-3.993679	0.007152	-0.214830
O3	O	-4.010467	-0.349974	-0.217501
O4	O	-3.975753	-0.175035	-0.314512
O5	O	-4.028634	-0.168998	-0.117148
V6	V	-4.514617	-0.155046	-0.206817
O7	O	-4.298932	-0.225677	-0.245722
O8	O	-4.699036	-0.106531	-0.180094
O9	O	-4.314097	0.017766	-0.208315
O10	O	-4.671489	-0.339360	-0.210986
O11	O	-4.636534	-0.163210	-0.308668
O12	O	-4.348812	-0.157173	-0.111304
C13	C	-3.862015	-0.392083	-0.214047
C14	C	-3.924692	-0.533362	-0.213459
C15	C	-4.136892	-0.606230	-0.216687
C16	C	-4.195775	-0.738978	-0.216140
C17	C	-3.830237	-0.725977	-0.209134
C18	C	-3.771359	-0.593233	-0.209686
C19	C	-3.817732	-0.168929	-0.337792
C20	C	-3.852253	-0.168333	-0.415875
C21	C	-4.051203	-0.174432	-0.456132
C22	C	-4.083640	-0.173872	-0.529499
C23	C	-3.917128	-0.167238	-0.562608
C24	C	-3.718147	-0.161131	-0.522341
C25	C	-3.685710	-0.161678	-0.448974
N26	N	-3.867372	-0.234355	-0.681397
N27	N	-3.898200	-0.233839	-0.751092
C28	C	-4.014849	-0.165586	-0.783656
N29	N	-4.099543	-0.097887	-0.743893
N30	N	-4.068721	-0.098410	-0.674192
C31	C	-3.952281	-0.166643	-0.642161
C32	C	-4.248982	-0.171077	-0.903466
C33	C	-4.281408	-0.170509	-0.976833
C34	C	-3.915916	-0.157781	-0.969674
C35	C	-3.883489	-0.158336	-0.896308
C36	C	-4.050033	-0.164990	-0.863208
C37	C	-4.125893	0.059868	-0.211767
C38	C	-4.042453	0.201146	-0.212360
C39	C	-4.170176	-0.163283	-0.088020
C40	C	-4.114892	-0.163873	-0.009937
H41	H	-4.261749	-0.557487	-0.219758
H42	H	-4.245657	-0.178846	-0.562283
Cl43	Cl	-4.462550	-0.830578	-0.220200
H44	H	-3.705406	-0.774740	-0.206060
Cl45	Cl	-3.504574	-0.501622	-0.205632
H46	H	-4.186816	-0.179845	-0.429187
Cl47	Cl	-3.508816	-0.152787	-0.563962
H48	H	-3.523694	-0.156702	-0.416196
Cl49	Cl	-4.458339	-0.179431	-0.861851
Cl50	Cl	-3.706570	-0.149417	-1.011288
Cl51	Cl	-4.531538	-0.178175	-1.027443
Cl52	Cl	-3.633377	-0.150689	-0.845697
