data_functionalizedCrystal
_audit_creation_method	'MofGen! by Chris Wilmer'
_symmetry_space_group_name_H-M	'P1'
_symmetry_Int_Tables_number	1
_symmetry_cell_setting	triclinic
loop_
_symmetry_equiv_pos_as_xyz
  x,y,z
_cell_length_a	19.188933
_cell_length_b	19.188930
_cell_length_c	13.101039
_cell_angle_alpha	93.345801
_cell_angle_beta	86.655175
_cell_angle_gamma	83.145175
loop_
_atom_site_label
_atom_site_type_symbol
_atom_site_fract_x
_atom_site_fract_y
_atom_site_fract_z
O1	O	0.929996	0.083310	-0.085191
O2	O	1.429996	0.583310	0.414809
O3	O	0.726685	0.095042	-0.085202
O4	O	1.226685	0.595042	0.414798
O5	O	0.834206	-0.012479	-0.085176
O6	O	1.334206	0.487521	0.414824
O7	O	0.822474	0.190831	-0.085217
O8	O	1.322474	0.690831	0.414783
O9	O	0.826492	-0.004751	0.085252
O10	O	1.326492	0.495249	0.585252
O11	O	0.718970	0.102769	0.085226
O12	O	1.218970	0.602769	0.585226
O13	O	0.922281	0.091037	0.085237
O14	O	1.422281	0.591037	0.585237
Zn15	Zn	0.819401	0.098130	0.112290
Zn16	Zn	1.319401	0.598130	0.612290
Zn17	Zn	0.829565	0.087949	-0.112256
Zn18	Zn	1.329565	0.587949	0.387744
O19	O	0.814759	0.198558	0.085211
O20	O	1.314759	0.698558	0.585211
C21	C	0.696817	0.098526	0.000011
C22	C	1.196817	0.598526	0.500011
C23	C	0.619312	0.097384	0.000007
C24	C	1.119312	0.597384	0.500007
C25	C	0.829969	-0.034626	0.000040
C26	C	1.329969	0.465374	0.500040
C27	C	0.828828	-0.112130	0.000049
C28	C	1.328828	0.387870	0.500049
C29	C	0.070262	0.085027	-0.092880
C30	C	0.570262	0.585027	0.407120
C31	C	0.143086	0.086095	-0.092885
C32	C	0.643086	0.586095	0.407115
C33	C	0.175298	0.090845	0.000015
C34	C	0.675298	0.590845	0.500015
C35	C	0.134681	0.094508	0.092926
C36	C	0.634681	0.594508	0.592926
C37	C	0.061859	0.093433	0.092928
C38	C	0.561859	0.593433	0.592928
N39	N	0.281188	0.135398	0.069157
N40	N	0.781188	0.635398	0.569157
N41	N	0.350366	0.136421	0.069149
N42	N	0.850366	0.636421	0.569149
C43	C	0.394707	0.094083	0.000016
C44	C	0.894707	0.594083	0.500016
N45	N	0.367255	0.050692	-0.069124
N46	N	0.867255	0.550692	0.430876
N47	N	0.298071	0.049672	-0.069119
N48	N	0.798071	0.549672	0.430881
C49	C	0.254261	0.092011	0.000024
C50	C	0.754261	0.592011	0.500024
C51	C	0.514279	0.091572	-0.092893
C52	C	1.014279	0.591572	0.407107
C53	C	0.587106	0.092636	-0.092894
C54	C	1.087106	0.592636	0.407106
C55	C	0.578698	0.101056	0.092920
C56	C	1.078698	0.601056	0.592920
C57	C	0.505875	0.099985	0.092918
C58	C	1.005875	0.599985	0.592918
C59	C	0.473669	0.095246	0.000008
C60	C	0.973669	0.595246	0.500008
C61	C	0.891918	-0.157053	0.000058
C62	C	1.391918	0.342947	0.500058
C63	C	0.890847	-0.229878	0.000041
C64	C	1.390847	0.270122	0.500041
C65	C	0.826682	-0.257775	0.000037
C66	C	1.326682	0.242225	0.500037
C67	C	0.763583	-0.212842	0.000023
C68	C	1.263583	0.287158	0.500023
C69	C	0.764656	-0.140020	0.000029
C70	C	1.264656	0.359980	0.500029
N71	N	0.775009	-0.363151	0.058034
N72	N	1.275009	0.136849	0.558034
N73	N	0.773994	-0.432330	0.058030
N74	N	1.273994	0.067670	0.558030
C75	C	0.823444	-0.477185	0.000016
C76	C	1.323444	0.022815	0.500016
N77	N	0.873959	-0.450248	-0.057982
N78	N	1.373959	0.049752	0.442018
N79	N	0.874976	-0.381063	-0.057974
N80	N	1.374976	0.118937	0.442026
C81	C	0.825511	-0.336738	0.000029
C82	C	1.325511	0.163262	0.500029
C83	C	0.885378	-0.601073	0.000005
C84	C	1.385378	-0.101073	0.500005
C85	C	0.884305	-0.673899	-0.000018
C86	C	1.384305	-0.173899	0.499982
C87	C	0.757038	-0.656861	-0.000026
C88	C	1.257038	-0.156861	0.499974
C89	C	0.758114	-0.584038	-0.000013
C90	C	1.258114	-0.084038	0.499987
C91	C	0.822285	-0.556148	0.000007
C92	C	1.322285	-0.056148	0.500007
C93	C	0.952149	0.087554	0.000022
C94	C	1.452149	0.587554	0.500022
C95	C	1.029654	0.088695	0.000018
C96	C	1.529654	0.588695	0.500018
C97	C	0.818997	0.220705	-0.000008
C98	C	1.318997	0.720705	0.499992
C99	C	0.820138	0.298209	-0.000024
C100	C	1.320138	0.798209	0.499976
N101	N	0.812469	0.105078	0.265537
N102	N	1.312469	0.605078	0.765537
N103	N	0.836502	0.080996	-0.265503
N104	N	1.336502	0.580996	0.234497
C105	C	0.803038	0.114537	0.474577
C106	C	1.303038	0.614537	0.974577
C107	C	0.845931	0.071539	0.525463
C108	C	1.345931	0.571539	1.025463
C109	C	0.840684	0.076802	0.641781
C110	C	1.340684	0.576802	1.141781
C111	C	0.808285	0.109275	0.358250
C112	C	1.308285	0.609275	0.858250
H113	H	0.044045	0.081166	-0.168535
H114	H	0.544045	0.581166	0.331465
C115	C	0.970926	-0.089010	-0.087542
C116	C	1.470926	0.410990	0.412458
C117	C	0.962456	-0.126398	0.000066
C118	C	1.462456	0.373602	0.500066
H119	H	1.014471	-0.070081	-0.087534
H120	H	1.514471	0.429919	0.412466
H121	H	0.970553	-0.119753	-0.146963
H122	H	1.470553	0.380247	0.353037
H123	H	0.933502	-0.051829	-0.087532
H124	H	1.433502	0.448171	0.412468
H125	H	0.999877	-0.163582	0.000052
H126	H	1.499877	0.336418	0.500052
H127	H	0.962835	-0.095653	0.059502
H128	H	1.462835	0.404347	0.559502
C129	C	1.016751	-0.239410	0.000077
C130	C	1.516751	0.260590	0.500077
C131	C	0.960201	-0.279269	0.000058
C132	C	1.460201	0.220731	0.500058
H133	H	1.059566	-0.269902	0.000094
H134	H	1.559566	0.230098	0.500094
H135	H	1.017221	-0.213344	-0.059352
H136	H	1.517221	0.286656	0.440648
H137	H	1.011824	-0.207961	0.059513
H138	H	1.511824	0.292039	0.559513
H139	H	0.965125	-0.310715	-0.059383
H140	H	1.465125	0.189285	0.440617
H141	H	0.959732	-0.305347	0.059492
H142	H	1.459732	0.194653	0.559492
H143	H	0.762378	0.155299	0.518365
H144	H	1.262378	0.655299	1.018365
C145	C	0.157979	0.042008	0.251300
C146	C	0.657979	0.542008	0.751300
C147	C	0.170087	0.099728	0.195043
C148	C	0.670087	0.599728	0.695043
H149	H	0.179841	0.045227	0.314342
H150	H	0.679841	0.545227	0.814342
H151	H	0.108802	0.041897	0.264597
H152	H	0.608802	0.541897	0.764597
H153	H	0.177094	-0.000245	0.213119
H154	H	0.677094	0.499755	0.713119
H155	H	0.150968	0.141981	0.233221
H156	H	0.650968	0.641981	0.733221
H157	H	0.219274	0.099845	0.181750
H158	H	0.719274	0.599845	0.681750
H159	H	0.713279	-0.103443	0.000022
H160	H	1.213279	0.396557	0.500022
C161	C	0.888498	-0.050979	0.492481
C162	C	1.388498	0.449021	0.992481
C163	C	0.900823	0.016440	0.466481
C164	C	1.400823	0.516440	0.966481
H165	H	0.922382	-0.085012	0.456096
H166	H	1.422382	0.414988	0.956096
H167	H	0.892073	-0.054531	0.564042
H168	H	1.392073	0.445469	1.064042
H169	H	0.842684	-0.059119	0.474919
H170	H	1.342684	0.440881	0.974919
H171	H	0.946636	0.024583	0.484049
H172	H	1.446636	0.524583	0.984049
H173	H	0.897255	0.019994	0.394903
H174	H	1.397255	0.519994	0.894903
C175	C	0.960903	-0.769626	-0.087637
C176	C	1.460903	-0.269626	0.412363
C177	C	0.953662	-0.723280	-0.000016
C178	C	1.453662	-0.223280	0.499984
H179	H	1.003724	-0.800109	-0.087638
H180	H	1.503724	-0.300109	0.412362
H181	H	0.922541	-0.796661	-0.087642
H182	H	1.422541	-0.296661	0.412358
H183	H	0.961366	-0.743538	-0.147056
H184	H	1.461366	-0.243538	0.352944
H185	H	0.953193	-0.749368	0.059403
H186	H	1.453193	-0.249368	0.559403
H187	H	0.992034	-0.696243	-0.000003
H188	H	1.492034	-0.196243	0.499997
C189	C	0.144085	0.077695	-0.276553
C190	C	0.644085	0.577695	0.223447
C191	C	0.187732	0.082077	-0.195006
C192	C	0.687732	0.582077	0.304994
H193	H	0.171647	0.075222	-0.339597
H194	H	0.671647	0.575222	0.160403
H195	H	0.120964	0.036742	-0.272701
H196	H	0.620964	0.536742	0.227299
H197	H	0.110050	0.118156	-0.272674
H198	H	0.610050	0.618156	0.227326
H199	H	0.221764	0.041614	-0.198881
H200	H	0.721764	0.541614	0.301119
H201	H	0.210865	0.123034	-0.198860
H202	H	0.710865	0.623034	0.301140
C203	C	-0.016873	0.037098	0.200731
C204	C	0.483127	0.537098	0.700731
C205	C	0.017221	0.097465	0.195052
C206	C	0.517221	0.597465	0.695052
H207	H	-0.044428	0.039587	0.263783
H208	H	0.455572	0.539587	0.763783
H209	H	-0.046477	0.034127	0.145411
H210	H	0.453523	0.534127	0.645411
H211	H	0.017166	-0.003359	0.196869
H212	H	0.517166	0.496641	0.696869
H213	H	-0.016819	0.137922	0.198906
H214	H	0.483181	0.637922	0.698906
H215	H	0.046826	0.100444	0.250387
H216	H	0.546826	0.600444	0.750387
H217	H	0.937631	-0.578364	0.000017
H218	H	1.437631	-0.078364	0.500017
H219	H	0.620169	0.089644	-0.168546
H220	H	1.120169	0.589644	0.331454
C221	C	0.529901	0.083356	-0.276560
C222	C	1.029901	0.583356	0.223440
C223	C	0.478874	0.086358	-0.195016
C224	C	0.978874	0.586358	0.304984
H225	H	0.508044	0.080134	-0.339605
H226	H	1.008044	0.580134	0.160395
H227	H	0.552683	0.124651	-0.272701
H228	H	1.052683	0.624651	0.227299
H229	H	0.563577	0.043239	-0.272685
H230	H	1.063577	0.543239	0.227315
H231	H	0.445201	0.126478	-0.198887
H232	H	0.945201	0.626478	0.301113
H233	H	0.456081	0.045058	-0.198877
H234	H	0.956081	0.545058	0.301123
H235	H	0.704793	-0.679575	-0.000034
H236	H	1.204793	-0.179575	0.499966
H237	H	0.604925	0.104921	0.168561
H238	H	1.104925	0.604921	0.668561
H239	H	0.472811	0.102974	0.168566
H240	H	0.972811	0.602974	0.668566
C241	C	0.653935	-0.551061	-0.087619
C242	C	1.153935	-0.051061	0.412381
C243	C	0.688760	-0.534654	-0.000008
C244	C	1.188760	-0.034654	0.499992
H245	H	0.611115	-0.520577	-0.087612
H246	H	1.111115	-0.020577	0.412388
H247	H	0.682944	-0.545307	-0.147038
H248	H	1.182944	-0.045307	0.352962
H249	H	0.644119	-0.598426	-0.087614
H250	H	1.144119	-0.098426	0.412386
H251	H	0.698580	-0.487291	-0.000017
H252	H	1.198580	0.012709	0.499983
H253	H	0.659745	-0.540403	0.059426
H254	H	1.159745	-0.040403	0.559426
C255	C	0.705430	-0.316910	0.000026
C256	C	1.205430	0.183090	0.500026
C257	C	0.693050	-0.243504	0.000022
C258	C	1.193050	0.256496	0.500022
H259	H	0.661884	-0.335836	0.000028
H260	H	1.161884	0.164164	0.500028
H261	H	0.734085	-0.335027	-0.059401
H262	H	1.234085	0.164973	0.440599
H263	H	0.728709	-0.329647	0.059464
H264	H	1.228709	0.170353	0.559464
H265	H	0.669776	-0.230766	-0.059420
H266	H	1.169776	0.269234	0.440580
H267	H	0.664385	-0.225379	0.059455
H268	H	1.164385	0.274621	0.559455
