data_functionalizedCrystal
_audit_creation_method	'MofGen! by Chris Wilmer'
_symmetry_space_group_name_H-M	'P1'
_symmetry_Int_Tables_number	1
_symmetry_cell_setting	triclinic
loop_
_symmetry_equiv_pos_as_xyz
  x,y,z
_cell_length_a	19.077105
_cell_length_b	12.645330
_cell_length_c	19.077271
_cell_angle_alpha	87.677602
_cell_angle_beta	89.892926
_cell_angle_gamma	87.714233
loop_
_atom_site_label
_atom_site_type_symbol
_atom_site_fract_x
_atom_site_fract_y
_atom_site_fract_z
Zn1	Zn	1.058309	-0.459543	-0.440450
Zn2	Zn	1.062962	-0.644217	-0.322951
Zn3	Zn	0.945526	-0.460135	-0.318241
Zn4	Zn	0.940784	-0.629929	-0.435705
O5	O	1.001895	-0.548456	-0.379337
O6	O	1.157258	-0.489772	-0.428821
O7	O	1.051316	-0.626026	-0.223993
O8	O	0.960524	-0.311711	-0.334468
O9	O	1.160677	-0.625452	-0.342494
O10	O	1.043385	-0.311276	-0.424254
O11	O	0.965036	-0.490782	-0.220533
O12	O	0.846565	-0.476927	-0.329866
O13	O	0.952442	-0.601099	-0.534667
O14	O	0.843080	-0.601674	-0.416166
O15	O	1.038787	-0.475918	-0.538154
O16	O	1.046717	-0.790668	-0.337893
O17	O	0.956953	-0.780170	-0.420733
C18	C	0.819326	-0.537815	-0.371991
C19	C	0.741221	-0.533287	-0.368865
C20	C	1.001844	-0.823884	-0.379325
C21	C	1.001886	-0.941715	-0.379346
C22	C	0.702735	-0.596215	-0.412257
C23	C	0.629347	-0.591947	-0.409323
C24	C	0.594448	-0.524755	-0.362993
C25	C	0.632939	-0.461819	-0.319599
C26	C	0.706325	-0.466083	-0.322536
C27	C	0.375159	-0.505021	-0.349399
C28	C	0.301767	-0.500764	-0.346463
C29	C	0.298180	-0.630891	-0.436189
C30	C	0.371568	-0.635153	-0.439120
C31	C	0.410053	-0.572214	-0.395728
N32	N	0.519434	-0.520392	-0.359991
N33	N	0.485066	-0.576571	-0.398734
C34	C	0.945632	-1.102721	-0.431637
C35	C	0.945363	-0.980157	-0.431451
C36	C	0.984820	-0.989801	-0.304487
C37	C	0.984476	-1.112359	-0.304804
C38	C	1.075560	-1.111940	-0.401327
C39	C	1.075039	-0.989205	-0.402928
C40	C	1.185177	-0.559140	-0.386712
C41	C	1.263281	-0.563693	-0.389855
C42	C	0.994566	-0.536848	-0.562620
C43	C	0.991443	-0.531902	-0.640725
C44	C	1.001965	-0.271953	-0.379365
C45	C	1.001994	-0.154124	-0.379377
C46	C	0.969043	-0.496509	-1.080177
C47	C	0.971981	-0.501153	-1.006790
C48	C	1.018368	-0.573894	-0.971896
C49	C	1.061824	-0.641989	-1.010395
C50	C	1.058889	-0.637339	-1.083781
C51	C	1.031965	-0.595347	-0.752609
C52	C	1.034895	-0.599994	-0.679218
C53	C	0.945053	-0.459155	-0.675618
C54	C	0.942119	-0.454516	-0.749005
C55	C	0.985578	-0.522607	-0.787497
N56	N	1.021370	-0.578645	-0.896883
N57	N	0.982578	-0.517850	-0.862509
C58	C	1.009236	-0.559945	-0.196768
C59	C	1.012495	-0.564600	-0.118670
H60	H	0.731145	-0.650934	-0.449982
C61	C	0.911944	-1.148217	-0.280156
N62	N	0.857310	-1.175219	-0.261594
H63	H	0.737660	-0.414834	-0.287205
H64	H	0.904343	-0.395287	-0.777410
C65	C	0.924179	-0.426248	-0.964451
N66	N	0.888172	-0.369827	-0.932561
H67	H	0.955842	-1.129391	-0.487227
C68	C	1.097377	-1.150528	-0.474034
N69	N	1.113800	-1.179591	-0.528799
C70	C	0.897261	-0.384247	-0.633271
N71	N	0.861266	-0.327816	-0.601375
H72	H	1.072684	-0.659211	-0.650810
C73	C	0.871588	-0.937390	-0.411538
N74	N	0.816013	-0.905177	-0.396557
H75	H	0.266838	-0.682131	-0.471517
C76	C	1.079765	-0.670258	-0.794940
N77	N	1.115769	-0.726688	-0.826827
H78	H	1.023908	-1.146850	-0.264378
H79	H	0.273354	-0.446036	-0.308739
C80	C	0.417483	-0.435792	-0.301662
N81	N	0.449364	-0.383647	-0.265703
C82	C	0.409953	-0.709075	-0.490083
N83	N	0.438864	-0.764759	-0.528467
H84	H	0.598015	-0.643190	-0.444657
C85	C	0.594547	-0.387904	-0.268636
N86	N	0.565631	-0.332232	-0.230249
C87	C	1.112850	-0.722006	-0.972010
N88	N	1.151281	-0.782280	-0.943099
H89	H	0.891372	-1.131216	-0.417034
C90	C	0.959319	-0.935737	-0.506314
N91	N	0.969827	-0.902285	-0.562705
C92	C	1.038693	-0.956946	-0.250266
N93	N	1.079271	-0.932195	-0.209427
C94	C	0.918015	-0.416485	-1.118552
N95	N	0.879581	-0.356206	-1.147455
H96	H	1.094274	-0.692785	-1.115121
H97	H	0.931709	-0.957090	-0.285971
C98	C	1.134435	-0.954266	-0.355569
N99	N	1.179171	-0.927952	-0.319891
C100	C	1.092518	-0.946338	-0.477361
N101	N	1.105686	-0.914032	-0.533420
H102	H	1.117515	-1.145770	-0.363300
