data_functionalizedCrystal
_audit_creation_method	'MofGen! by Chris Wilmer'
_symmetry_space_group_name_H-M	'P1'
_symmetry_Int_Tables_number	1
_symmetry_cell_setting	triclinic
loop_
_symmetry_equiv_pos_as_xyz
  x,y,z
_cell_length_a	12.759400
_cell_length_b	14.908783
_cell_length_c	14.909241
_cell_angle_alpha	96.414852
_cell_angle_beta	93.324200
_cell_angle_gamma	93.305724
loop_
_atom_site_label
_atom_site_type_symbol
_atom_site_fract_x
_atom_site_fract_y
_atom_site_fract_z
Zn1	Zn	-0.283612	1.413438	0.591798
Zn2	Zn	-0.470084	1.404616	0.440434
Zn3	Zn	-0.305160	1.253330	0.431700
Zn4	Zn	-0.470000	1.262048	0.583009
O5	O	-0.382214	1.333358	0.511735
O6	O	-0.299365	1.538938	0.579053
O7	O	-0.457259	1.377207	0.312605
O8	O	-0.155276	1.274612	0.452960
O9	O	-0.436365	1.532457	0.467846
O10	O	-0.139444	1.392242	0.570584
O11	O	-0.336090	1.266058	0.306189
O12	O	-0.336009	1.127815	0.444438
O13	O	-0.436222	1.289470	0.710844
O14	O	-0.457116	1.134221	0.555604
O15	O	-0.299283	1.400696	0.717302
O16	O	-0.617098	1.385661	0.459323
O17	O	-0.617037	1.280916	0.564072
C18	C	-0.398892	1.098174	0.498120
C19	C	-0.406051	0.997562	0.492316
C20	C	-0.277016	0.815259	0.597388
C21	C	-0.283739	0.720726	0.591938
C22	C	-0.426213	0.713960	0.475963
C23	C	-0.419491	0.808493	0.481413
C24	C	-0.344891	0.859140	0.542128
C25	C	-0.338174	0.953675	0.547582
C26	C	-0.480642	0.946907	0.431603
C27	C	-0.487365	0.852374	0.426153
C28	C	-0.655186	1.333303	0.511713
C29	C	-0.771957	1.333364	0.511739
C30	C	-0.826807	1.387972	0.457263
C31	C	-0.936525	1.388030	0.457295
C32	C	-0.936534	1.278863	0.566278
C33	C	-0.826817	1.278811	0.566251
C34	C	-0.771947	1.442526	0.402751
C35	C	-0.826798	1.497137	0.348270
C36	C	-0.936516	1.497195	0.348302
C37	C	-0.991383	1.442640	0.402813
C38	C	-0.108172	1.333439	0.511778
C39	C	0.008608	1.333473	0.511797
C40	C	-0.365340	1.347040	0.747835
C41	C	-0.358149	1.352870	0.848447
C42	C	-0.365471	1.569460	0.525404
C43	C	-0.358336	1.670073	0.531229
C44	C	-0.398943	1.319781	0.276556
C45	C	-0.405825	1.314126	0.175955
C46	C	-0.487255	1.248009	1.030786
C47	C	-0.480502	1.253484	1.125319
C48	C	-0.337897	1.369299	1.132050
C49	C	-0.344649	1.363824	1.037517
C50	C	-0.419330	1.303176	0.986887
C51	C	-0.426077	1.297697	0.892352
C52	C	-0.283477	1.413516	0.899085
C53	C	-0.276724	1.418991	0.993619
H54	H	-0.228466	0.685002	0.636934
H55	H	-0.277432	0.994911	0.597020
H56	H	-0.486938	0.672707	0.426522
H57	H	-0.548099	0.811125	0.376718
O58	O	-0.546586	1.200026	1.168008
C59	C	-0.606862	1.254715	1.225679
H60	H	-0.610320	1.324357	1.201320
H61	H	-0.569042	1.261987	1.297512
C62	C	-0.714875	1.125017	1.254462
C63	C	-0.719130	1.210551	1.224540
H64	H	-0.784125	1.097773	1.253764
H65	H	-0.674263	1.088171	1.215611
H66	H	-0.683353	1.131089	1.314321
H67	H	-0.750638	1.204476	1.164679
H68	H	-0.759749	1.247394	1.263381
O69	O	-0.265400	1.428142	1.181375
C70	C	-0.274039	1.421166	1.274227
H71	H	-0.312472	1.352043	1.283084
H72	H	-0.324281	1.476389	1.304140
C73	C	-0.116483	1.517218	1.312401
C74	C	-0.163680	1.432317	1.323280
H75	H	-0.048410	1.524101	1.342661
H76	H	-0.110665	1.521922	1.249845
H77	H	-0.158363	1.563229	1.337328
H78	H	-0.121808	1.386309	1.298343
H79	H	-0.169489	1.427607	1.385832
H80	H	-0.486876	1.248305	0.851130
H81	H	-0.548045	1.198610	0.989561
H82	H	-0.216279	0.856497	0.646829
O83	O	-0.773346	1.550048	0.295347
C84	C	-0.664743	1.538306	0.307016
H85	H	-0.652656	1.470133	0.332556
H86	H	-0.626272	1.594740	0.358359
C87	C	-0.629251	1.625069	0.184533
C88	C	-0.614406	1.541334	0.215896
H89	H	-0.598199	1.626941	0.128328
H90	H	-0.702418	1.632983	0.176674
H91	H	-0.597192	1.672088	0.227328
H92	H	-0.646476	1.494317	0.173107
H93	H	-0.541242	1.533412	0.223746
O94	O	-0.989640	1.550268	0.295303
C95	C	-0.917685	1.598422	0.247205
H96	H	-0.842371	1.561124	0.241876
H97	H	-0.898680	1.669063	0.284379
C98	C	-1.058995	1.651790	0.158190
C99	C	-0.966496	1.605976	0.151639
H100	H	-1.089104	1.656454	0.099242
H101	H	-1.107473	1.619351	0.190597
H102	H	-1.043145	1.710653	0.189173
H103	H	-0.982349	1.547110	0.120667
H104	H	-0.918022	1.638405	0.119225
O105	O	-0.989663	1.225843	0.619306
C106	C	-0.917725	1.177614	0.667366
H107	H	-0.836620	1.214834	0.672659
H108	H	-0.913387	1.106963	0.630181
C109	C	-1.054175	1.124378	0.756442
C110	C	-0.954563	1.170096	0.762950
H111	H	-1.076900	1.119736	0.815402
H112	H	-1.102643	1.156868	0.724061
H113	H	-1.050548	1.065507	0.725451
H114	H	-0.958195	1.228970	0.793930
H115	H	-0.906097	1.137616	0.795339
H116	H	-0.535919	0.982645	0.386613
H117	H	-0.215925	1.468371	1.034854
O118	O	-0.773461	1.225901	0.619269
C119	C	-0.702067	1.280758	0.680718
H120	H	-0.729607	1.352386	0.690501
H121	H	-0.620705	1.282244	0.652889
C122	C	-0.662957	1.153939	0.760206
C123	C	-0.696788	1.241913	0.772227
H124	H	-0.659696	1.129977	0.816651
H125	H	-0.711054	1.116980	0.718804
H126	H	-0.595159	1.155190	0.737012
H127	H	-0.764590	1.240660	0.795409
H128	H	-0.648703	1.278871	0.813634
H129	H	-0.228162	1.458433	0.863333
H130	H	-0.682610	1.442482	0.402717
H131	H	-1.080722	1.442698	0.402842
