data_functionalizedCrystal
_audit_creation_method	'MofGen! by Chris Wilmer'
_symmetry_space_group_name_H-M	'P1'
_symmetry_Int_Tables_number	1
_symmetry_cell_setting	triclinic
loop_
_symmetry_equiv_pos_as_xyz
  x,y,z
_cell_length_a	12.759399
_cell_length_b	17.077404
_cell_length_c	17.077396
_cell_angle_alpha	90.017258
_cell_angle_beta	89.972395
_cell_angle_gamma	89.987816
loop_
_atom_site_label
_atom_site_type_symbol
_atom_site_fract_x
_atom_site_fract_y
_atom_site_fract_z
Zn1	Zn	-0.418332	-1.200078	-0.443860
Zn2	Zn	-0.594037	-1.200009	-0.312600
Zn3	Zn	-0.418364	-1.068815	-0.312608
Zn4	Zn	-0.593960	-1.068796	-0.443823
O5	O	-0.506173	-1.134424	-0.378223
O6	O	-0.441658	-1.309916	-0.426461
O7	O	-0.570779	-1.182585	-0.202754
O8	O	-0.271339	-1.086265	-0.330038
O9	O	-0.570748	-1.309865	-0.330024
O10	O	-0.271315	-1.182703	-0.426468
O11	O	-0.441713	-1.086198	-0.202760
O12	O	-0.441638	-0.958966	-0.330002
O13	O	-0.570617	-1.086231	-0.553675
O14	O	-0.570648	-0.958951	-0.426405
O15	O	-0.441584	-1.182684	-0.553702
O16	O	-0.741048	-1.182566	-0.329988
O17	O	-0.740992	-1.086164	-0.426397
C18	C	-0.506139	-0.930477	-0.378201
C19	C	-0.506150	-0.843227	-0.378210
C20	C	-0.439051	-0.802264	-0.428500
C21	C	-0.439057	-0.720284	-0.428501
C22	C	-0.506166	-0.679267	-0.378216
C23	C	-0.573268	-0.720236	-0.327921
C24	C	-0.573257	-0.802215	-0.327916
C25	C	-0.573288	-0.549366	-0.327936
C26	C	-0.573301	-0.467381	-0.327942
C27	C	-0.439088	-0.467435	-0.428522
C28	C	-0.439077	-0.549414	-0.428517
C29	C	-0.506180	-0.590376	-0.378222
C30	C	-0.779141	-1.134376	-0.378205
C31	C	-0.895917	-1.134428	-0.378224
C32	C	-0.950774	-1.184681	-0.328080
C33	C	-1.060498	-1.184732	-0.328107
C34	C	-1.060499	-1.084268	-0.428422
C35	C	-0.950777	-1.084222	-0.428399
C36	C	-1.210381	-1.277387	-0.300176
C37	C	-1.265241	-1.327634	-0.250020
C38	C	-1.229696	-1.339718	-0.173430
C39	C	-1.139292	-1.301543	-0.146980
C40	C	-1.084438	-1.251290	-0.197131
C41	C	-1.119981	-1.239222	-0.273732
C42	C	-0.800892	-0.991565	-0.456322
C43	C	-0.746036	-0.941308	-0.506469
C44	C	-0.781579	-0.929217	-0.583061
C45	C	-0.871986	-0.967378	-0.609509
C46	C	-0.926843	-1.017635	-0.559361
C47	C	-0.891292	-1.029727	-0.482770
C48	C	-0.232140	-1.134494	-0.378258
C49	C	-0.115363	-1.134524	-0.378273
C50	C	-0.506088	-1.134463	-0.582967
C51	C	-0.506052	-1.134480	-0.670217
C52	C	-0.506203	-0.339169	-0.378240
C53	C	-0.506202	-0.426418	-0.378232
C54	C	-0.573135	-1.184740	-1.046031
C55	C	-0.573165	-1.184720	-0.964051
C56	C	-0.505978	-1.134530	-0.923066
C57	C	-0.438763	-1.084352	-0.964066
C58	C	-0.438738	-1.084368	-1.046045
C59	C	-0.438817	-1.084322	-0.793196
C60	C	-0.438840	-1.084307	-0.711212
C61	C	-0.573244	-1.184674	-0.711201
C62	C	-0.573219	-1.184691	-0.793180
C63	C	-0.506003	-1.134513	-0.834175
C64	C	-0.506182	-1.134431	-0.174275
C65	C	-0.505923	-1.134567	-0.087026
H66	H	-0.627928	-0.582715	-0.286979
H67	H	-0.384406	-0.835653	-0.469450
H68	H	-0.384063	-1.043483	-0.930690
H69	H	-0.384436	-0.582807	-0.469468
F70	F	-1.101476	-1.314398	-0.065457
H71	H	-0.627841	-1.225614	-1.079395
F72	F	-0.367334	-1.030888	-0.667594
F73	F	-1.118894	-1.030837	-0.481817
H74	H	-0.900926	-0.957533	-0.671876
F75	F	-0.763053	-1.004436	-0.374804
H76	H	-0.627909	-1.225566	-0.930676
F77	F	-1.288086	-1.393194	-0.120052
H78	H	-1.338848	-1.358716	-0.271564
H79	H	-0.627924	-1.225563	-0.826548
H80	H	-1.000454	-1.048710	-0.580902
F81	F	-0.367643	-0.676691	-0.482029
H82	H	-0.384448	-0.434079	-0.469472
F83	F	-0.367198	-1.030970	-1.089675
F84	F	-0.723227	-0.875689	-0.636416
F85	F	-0.644746	-0.423730	-0.274438
F86	F	-0.644785	-1.238075	-0.667571
H87	H	-0.672417	-0.910240	-0.484931
F88	F	-0.367266	-1.030925	-0.836824
H89	H	-0.627904	-0.686834	-0.286974
H90	H	-0.906109	-1.225563	-0.287226
F91	F	-0.988233	-1.210660	-0.168984
F92	F	-0.644673	-0.845810	-0.274390
H93	H	-1.239324	-1.267561	-0.362544
