data_functionalizedCrystal
_audit_creation_method	'MofGen! by Chris Wilmer'
_symmetry_space_group_name_H-M	'P1'
_symmetry_Int_Tables_number	1
_symmetry_cell_setting	triclinic
loop_
_symmetry_equiv_pos_as_xyz
  x,y,z
_cell_length_a	14.809374
_cell_length_b	23.196402
_cell_length_c	23.196401
_cell_angle_alpha	59.997774
_cell_angle_beta	81.053453
_cell_angle_gamma	55.134732
loop_
_atom_site_label
_atom_site_type_symbol
_atom_site_fract_x
_atom_site_fract_y
_atom_site_fract_z
Zr1	Zr	0.880668	0.631004	-0.163136
O2	O	0.734704	0.751279	-0.240688
O3	O	0.925401	0.510739	-0.139364
O4	O	0.925385	0.631021	-0.259638
O5	O	0.734748	0.630981	-0.025538
O6	O	1.075812	0.631024	-0.274584
O7	O	0.734721	0.630997	-0.120414
O8	O	1.075840	0.415861	-0.059436
O9	O	0.734720	0.846143	-0.240686
O10	O	1.056757	0.560204	-0.140377
O11	O	0.944515	0.560190	-0.058419
O12	O	0.944497	0.701807	-0.200025
O13	O	0.832255	0.701793	-0.118067
Zr14	Zr	1.120627	0.630982	-0.035657
Zr15	Zr	1.120582	0.631008	-0.186973
Zr16	Zr	0.880713	0.630978	-0.011820
Zr17	Zr	0.880693	0.782302	-0.163133
Zr18	Zr	1.120602	0.479685	-0.035660
O19	O	1.075894	0.751248	-0.059429
O20	O	1.075831	0.751285	-0.274581
O21	O	0.734768	0.751242	-0.025536
O22	O	1.266590	0.510708	0.041895
O23	O	1.266527	0.510745	-0.173257
O24	O	0.925464	0.510702	0.075788
O25	O	1.266547	0.631006	-0.173254
O26	O	1.075910	0.630966	0.060845
O27	O	0.925483	0.630963	0.075791
O28	O	1.266574	0.630990	-0.078378
O29	O	0.925419	0.846146	-0.259633
O30	O	1.075876	0.415841	0.060840
O31	O	1.266575	0.415844	0.041893
O32	O	1.266540	0.415865	-0.078383
O33	O	0.734755	0.846122	-0.120410
O34	O	0.925454	0.846126	-0.139357
O35	O	1.056798	0.560180	0.001232
O36	O	1.169040	0.560194	-0.080726
O37	O	1.056779	0.701796	-0.140374
O38	O	0.944538	0.701782	-0.058416
C39	C	1.000617	0.441744	-0.099401
C40	C	1.000607	0.377514	-0.099402
C41	C	0.700552	0.630988	-0.069580
C42	C	0.598702	0.630987	-0.059461
C43	C	1.083495	0.295078	-0.055373
C44	C	1.083502	0.234717	-0.055367
C45	C	1.000631	0.256798	-0.099402
C46	C	0.917728	0.339248	-0.143435
C47	C	0.917716	0.399606	-0.143434
C48	C	0.974809	0.201221	-0.160634
C49	C	0.974828	0.140862	-0.160635
C50	C	1.000661	0.070636	-0.099402
C51	C	1.026498	0.060767	-0.038166
C52	C	1.026486	0.121125	-0.038166
C53	C	1.000634	0.191356	-0.099407
C54	C	1.083561	-0.077253	-0.055363
C55	C	1.083562	-0.137613	-0.055356
C56	C	0.917792	-0.033079	-0.143430
C57	C	0.917787	0.027278	-0.143431
C58	C	1.000678	0.005186	-0.099398
C59	C	0.553280	0.630994	-0.104622
C60	C	0.448013	0.630993	-0.094165
C61	C	1.300743	0.630999	-0.129213
C62	C	1.402593	0.631000	-0.139332
C63	C	1.000592	0.631026	-0.288670
C64	C	1.000573	0.631037	-0.352908
C65	C	1.000678	0.820243	-0.099392
C66	C	1.000688	0.884473	-0.099391
C67	C	1.083447	0.631040	-0.391305
C68	C	1.083472	0.631023	-0.451654
C69	C	1.000605	0.631021	-0.473610
C70	C	0.917724	0.631013	-0.435203
C71	C	0.917708	0.631021	-0.374852
C72	C	0.899479	0.678512	-0.582943
C73	C	0.899495	0.678509	-0.643295
C74	C	1.000655	0.630992	-0.659751
C75	C	1.101807	0.583488	-0.615854
C76	C	1.101790	0.583496	-0.555502
C77	C	1.000614	0.631011	-0.539050
C78	C	1.083563	0.630976	-0.763586
C79	C	1.083588	0.630954	-0.823934
C80	C	0.917831	0.630952	-0.807484
C81	C	0.917815	0.630965	-0.747135
C82	C	1.000680	0.630981	-0.725191
C83	C	1.000703	0.630961	0.089877
C84	C	1.000722	0.630950	0.154115
C85	C	1.300713	0.441749	-0.129217
C86	C	1.402552	0.377521	-0.139337
C87	C	1.000673	0.441711	0.089873
C88	C	1.000681	0.377470	0.154110
C89	C	1.300768	0.441716	0.060057
C90	C	1.402627	0.377477	0.114174
C91	C	0.700527	0.820271	-0.258850
C92	C	0.598668	0.884510	-0.312967
C93	C	0.700582	0.820238	-0.069576
C94	C	0.598743	0.884466	-0.059455
C95	C	1.000622	0.820276	-0.288666
C96	C	1.000614	0.884516	-0.352902
C97	C	1.391767	0.347364	-0.175234
C98	C	1.487446	0.287023	-0.184757
C99	C	1.593911	0.256837	-0.158378
C100	C	1.604694	0.286999	-0.122481
C101	C	1.509015	0.347343	-0.112963
C102	C	1.059296	0.347297	0.215419
C103	C	1.059299	0.286944	0.275782
C104	C	1.000695	0.256762	0.274834
C105	C	0.942073	0.286942	0.213518
C106	C	0.942063	0.347297	0.153157
C107	C	1.509059	0.347317	0.096805
C108	C	1.604775	0.286966	0.147647
C109	C	1.594056	0.256772	0.215857
C110	C	1.487612	0.286938	0.233226
C111	C	1.391899	0.347292	0.182384
C112	C	0.492236	0.914677	-0.295598
C113	C	0.396520	0.975047	-0.346440
C114	C	0.407239	1.005244	-0.414650
C115	C	0.513683	0.975074	-0.432019
C116	C	0.609396	0.914710	-0.381177
C117	C	0.609528	0.914629	-0.023565
C118	C	0.513849	0.974986	-0.014059
C119	C	0.407384	1.005175	-0.040440
C120	C	0.396601	0.975010	-0.076335
C121	C	0.492280	0.914658	-0.085844
C122	C	1.059230	0.914679	-0.351932
C123	C	1.059244	0.975032	-0.412286
C124	C	1.000634	1.005225	-0.473608
C125	C	0.942016	0.975056	-0.474576
C126	C	0.942010	0.914701	-0.414224
H127	H	1.151001	0.167586	-0.019511
O128	O	0.480661	0.882118	-0.222031
H129	H	0.390564	0.913253	-0.218505
O130	O	1.475805	0.254494	-0.223472
H131	H	1.429354	0.226986	-0.197485
H132	H	0.483482	0.890101	-0.115067
H133	H	0.329294	1.054396	-0.456042
O134	O	0.946939	0.276965	-0.226684
H135	H	0.951258	0.317283	-0.216397
H136	H	0.894298	0.999649	-0.524513
H137	H	1.107040	0.262379	0.325702
O138	O	0.878782	0.882173	-0.415280
H139	H	0.888624	0.835125	-0.363016
O140	O	0.454288	0.631016	-0.200813
H141	H	0.528850	0.631023	-0.199384
O142	O	1.172831	0.631041	-0.367629
H143	H	1.230471	0.631031	-0.404468
H144	H	1.517808	0.371892	0.041268
H145	H	1.517813	0.371889	-0.083729
H146	H	1.150990	0.277083	-0.019517
O147	O	1.210926	0.532250	-0.633604
H148	H	1.281256	0.499233	-0.592947
O149	O	0.396320	0.630971	-0.032682
H150	H	0.370835	0.686229	-0.032696
H151	H	0.894358	0.262358	0.212755
H152	H	0.309905	0.999599	-0.097811
H153	H	1.106957	0.890106	-0.302007
O154	O	1.719574	0.254427	0.128908
H155	H	1.710938	0.285554	0.072935
O156	O	1.172975	0.630944	-0.739895
H157	H	1.159043	0.630947	-0.691477
H158	H	1.478901	0.262345	0.288769
H159	H	0.894336	0.371857	0.103238
O160	O	1.276943	0.379924	-0.203696
H161	H	1.285536	0.348818	-0.230263
H162	H	1.671809	0.207700	-0.166133
O163	O	0.724348	0.882091	0.004881
H164	H	0.734096	0.854601	0.060718
H165	H	1.106976	0.999590	-0.411483
H166	H	1.107019	0.371864	0.216205
O167	O	1.000631	1.070335	-0.538697
H168	H	1.087893	1.047174	-0.547320
O169	O	1.054334	0.110493	0.027875
H170	H	1.072292	0.051526	0.070457
H171	H	0.953794	0.148903	-0.210497
O172	O	0.525493	1.007502	0.024669
H173	H	0.571987	1.034981	-0.001295
O174	O	1.054354	-0.014968	0.027886
H175	H	1.050007	-0.055277	0.017602
O176	O	0.604977	0.631014	-0.166101
H177	H	0.679538	0.631022	-0.164671
H178	H	1.151051	-0.095242	-0.019505
H179	H	1.150961	0.631026	-0.482923
H180	H	1.184151	0.544816	-0.519762
H181	H	0.850253	0.357223	-0.179288
O182	O	0.304190	1.070247	-0.030158
H183	H	0.329587	1.086132	-0.000755
O184	O	1.172977	-0.226530	-0.007863
H185	H	1.133152	-0.256544	0.026244
H186	H	0.696056	0.890148	-0.395328
O187	O	0.281720	1.007576	-0.327701
H188	H	0.235300	0.996010	-0.348830
O189	O	0.546989	0.630972	0.002012
H190	H	0.609127	0.575695	0.048551
H191	H	0.522397	0.999668	-0.487562
O192	O	0.828408	-0.009250	-0.190930
H193	H	0.842344	-0.065070	-0.183538
H194	H	1.672001	0.207628	0.257249
H195	H	1.305240	0.371841	0.196536
O196	O	0.790398	0.729747	-0.690638
H197	H	0.807403	0.721769	-0.735373
O198	O	0.828400	0.116195	-0.190935
H199	H	0.744846	0.129666	-0.180070
O200	O	0.828325	0.488527	-0.190934
H201	H	0.770703	0.493745	-0.221559
H202	H	1.151080	0.630951	-0.855196
H203	H	0.850363	0.630945	-0.825358
H204	H	0.817094	0.717199	-0.569546
O205	O	0.828418	0.630976	-0.705720
H206	H	0.770791	0.630979	-0.731127
H207	H	0.850221	0.631019	-0.343587
O208	O	0.828330	0.631023	-0.458881
H209	H	0.868175	0.575759	-0.462704
O210	O	1.719525	0.254437	-0.094027
H211	H	1.765913	0.187858	-0.057790
O212	O	1.000730	0.191650	0.339937
H213	H	1.051352	0.175735	0.382725
