data_functionalizedCrystal
_audit_creation_method	'MofGen! by Chris Wilmer'
_symmetry_space_group_name_H-M	'P1'
_symmetry_Int_Tables_number	1
_symmetry_cell_setting	triclinic
loop_
_symmetry_equiv_pos_as_xyz
  x,y,z
_cell_length_a	16.974829
_cell_length_b	10.654551
_cell_length_c	16.053802
_cell_angle_alpha	92.593346
_cell_angle_beta	83.771117
_cell_angle_gamma	83.940828
loop_
_atom_site_label
_atom_site_type_symbol
_atom_site_fract_x
_atom_site_fract_y
_atom_site_fract_z
O1	O	1.056731	0.149369	-0.140823
O2	O	1.556731	0.649369	0.359177
O3	O	0.825894	0.170935	-0.125227
O4	O	1.325894	0.670935	0.374773
O5	O	0.946619	-0.022697	-0.133384
O6	O	1.446619	0.477303	0.366616
O7	O	0.936005	0.343001	-0.132666
O8	O	1.436005	0.843001	0.367334
O9	O	0.939974	-0.012082	0.005924
O10	O	1.439974	0.487918	0.505924
O11	O	0.819248	0.181549	0.014081
O12	O	1.319248	0.681549	0.514081
O13	O	1.050086	0.159983	-0.001515
O14	O	1.550086	0.659983	0.498485
Zn15	Zn	0.933612	0.172451	0.028401
Zn16	Zn	1.433612	0.672451	0.528401
Zn17	Zn	0.942367	0.158467	-0.155143
Zn18	Zn	1.442367	0.658467	0.344857
O19	O	0.929360	0.353615	0.006642
O20	O	1.429360	0.853615	0.506642
C21	C	0.793013	0.175617	-0.053576
C22	C	1.293013	0.675617	0.446424
C23	C	0.704941	0.173741	-0.047626
C24	C	1.204941	0.673741	0.452374
C25	C	0.208792	0.163844	-0.005982
C26	C	0.708792	0.663844	0.494018
C27	C	0.291546	0.165606	-0.011574
C28	C	0.791546	0.665606	0.488426
C29	C	0.336546	0.160692	-0.090309
C30	C	0.836546	0.660692	0.409691
C31	C	0.298787	0.154028	-0.163455
C32	C	0.798787	0.654028	0.336545
C33	C	0.216034	0.152274	-0.157862
C34	C	0.716034	0.652274	0.342138
C35	C	0.584429	0.165324	-0.115180
C36	C	1.084429	0.665324	0.384820
C37	C	0.667188	0.167074	-0.120767
C38	C	1.167188	0.667074	0.379233
C39	C	0.659940	0.178655	0.031114
C40	C	1.159940	0.678655	0.531114
C41	C	0.577187	0.176893	0.036701
C42	C	1.077187	0.676893	0.536701
C43	C	0.539435	0.170235	-0.036446
C44	C	1.039435	0.670235	0.463554
N45	N	0.421134	0.162490	-0.096027
N46	N	0.921134	0.662490	0.403973
N47	N	0.454847	0.168447	-0.030727
N48	N	0.954847	0.668447	0.469273
C49	C	0.942517	-0.064172	-0.063679
C50	C	1.442517	0.435828	0.436321
C51	C	0.940185	-0.203567	-0.063527
C52	C	1.440185	0.296433	0.436473
C53	C	0.942714	-0.274842	-0.139389
C54	C	1.442714	0.225158	0.360611
C55	C	0.940515	-0.405817	-0.139236
C56	C	1.440515	0.094183	0.360764
C57	C	0.933264	-0.394230	0.012645
C58	C	1.433264	0.105770	0.512645
C59	C	0.935456	-0.263257	0.012493
C60	C	1.435456	0.236743	0.512493
C61	C	0.947443	-0.215153	-0.215408
C62	C	1.447443	0.284847	0.284592
C63	C	0.949972	-0.286429	-0.291276
C64	C	1.449972	0.213571	0.208724
C65	C	0.947774	-0.417403	-0.291124
C66	C	1.447774	0.082597	0.208876
C67	C	0.943046	-0.477102	-0.215104
C68	C	1.443046	0.022898	0.284896
C69	C	1.082966	0.155301	-0.073167
C70	C	1.582966	0.655301	0.426833
C71	C	1.171039	0.157176	-0.079123
C72	C	1.671039	0.657176	0.420877
C73	C	0.933462	0.395090	-0.063065
C74	C	1.433462	0.895090	0.436935
C75	C	0.935794	0.534485	-0.063222
C76	C	1.435794	1.034485	0.436778
N77	N	0.927642	0.181995	0.153665
N78	N	1.427642	0.681995	0.653665
N79	N	0.948343	0.148913	-0.280407
N80	N	1.448343	0.648913	0.219593
C81	C	0.979030	0.099633	0.193887
C82	C	1.479030	0.599633	0.693887
C83	C	0.974862	0.106321	0.281575
C84	C	1.474862	0.606321	0.781575
C85	C	0.919309	0.195377	0.329040
C86	C	1.419309	0.695377	0.829040
C87	C	0.867915	0.277742	0.288812
C88	C	1.367915	0.777742	0.788812
C89	C	0.872081	0.271048	0.201126
C90	C	1.372081	0.771048	0.701126
C91	C	0.901115	0.224584	0.591679
C92	C	1.401115	0.724584	1.091679
C93	C	0.896955	0.231275	0.679371
C94	C	1.396955	0.731275	1.179371
C95	C	1.003901	0.059851	0.672128
C96	C	1.503901	0.559851	1.172128
C97	C	1.008065	0.053170	0.584440
C98	C	1.508065	0.553170	1.084440
C99	C	0.956668	0.135530	0.544220
C100	C	1.456668	0.635530	1.044220
N101	N	0.915049	0.202218	0.418671
N102	N	1.415049	0.702218	0.918671
N103	N	0.960926	0.128683	0.454590
N104	N	1.460926	0.628683	0.954590
H105	H	0.690687	0.184077	0.090666
H106	H	1.190687	0.684077	0.590666
H107	H	0.703824	0.163082	-0.184885
H108	H	1.203824	0.663082	0.315115
Cl109	Cl	0.955913	-0.211380	-0.386838
Cl110	Cl	1.455913	0.288620	0.113162
H111	H	0.859267	0.291647	0.558939
H112	H	1.359267	0.791647	1.058939
H113	H	0.851715	0.303800	0.718013
H114	H	1.351715	0.803800	1.218013
Cl115	Cl	0.932283	-0.173648	0.107863
Cl116	Cl	1.432283	0.326352	0.607863
Cl117	Cl	1.048876	-0.012323	0.134226
Cl118	Cl	1.548876	0.487677	0.634226
H119	H	0.172158	0.167851	0.058132
H120	H	0.672158	0.667851	0.558132
H121	H	0.822679	0.350249	0.327463
H122	H	1.322679	0.850249	0.827463
Cl123	Cl	0.339002	0.173996	0.080379
Cl124	Cl	0.839002	0.673996	0.580379
H125	H	0.540555	0.180867	0.100814
H126	H	1.040555	0.680867	0.600814
H127	H	1.016705	0.039255	0.314323
H128	H	1.516705	0.539255	0.814323
Cl129	Cl	0.950945	-0.507002	-0.386497
Cl130	Cl	1.450945	-0.007002	0.113503
H131	H	0.929415	-0.442848	0.074537
H132	H	1.429415	0.057152	0.574537
Cl133	Cl	0.807472	0.374589	0.150562
Cl134	Cl	1.307472	0.874589	0.650562
Cl135	Cl	0.950210	-0.050501	-0.215605
Cl136	Cl	1.450210	0.449499	0.284395
Cl137	Cl	1.068507	-0.043686	0.722694
Cl138	Cl	1.568507	0.456314	1.222694
Cl139	Cl	0.536981	0.156946	-0.207136
Cl140	Cl	1.036981	0.656946	0.292864
Cl141	Cl	0.355359	0.147851	-0.262436
Cl142	Cl	0.855359	0.647851	0.237564
Cl143	Cl	0.168573	0.143899	-0.249815
Cl144	Cl	0.668573	0.643899	0.250185
H145	H	0.941245	-0.583749	-0.214985
H146	H	1.441245	-0.083749	0.285015
Cl147	Cl	1.077904	-0.058786	0.524770
Cl148	Cl	1.577904	0.441214	1.024770
