data_functionalizedCrystal
_audit_creation_method	'MofGen! by Chris Wilmer'
_symmetry_space_group_name_H-M	'P1'
_symmetry_Int_Tables_number	1
_symmetry_cell_setting	triclinic
loop_
_symmetry_equiv_pos_as_xyz
  x,y,z
_cell_length_a	19.188905
_cell_length_b	19.188930
_cell_length_c	14.185569
_cell_angle_alpha	76.885558
_cell_angle_beta	103.100864
_cell_angle_gamma	83.139668
loop_
_atom_site_label
_atom_site_type_symbol
_atom_site_fract_x
_atom_site_fract_y
_atom_site_fract_z
O1	O	0.910236	0.102998	-0.083594
O2	O	1.243569	0.436331	0.249739
O3	O	1.576903	0.769664	0.583073
O4	O	0.706928	0.114744	-0.083561
O5	O	1.040262	0.448077	0.249772
O6	O	1.373595	0.781411	0.583105
O7	O	0.814453	0.007211	-0.083559
O8	O	1.147786	0.340544	0.249774
O9	O	1.481120	0.673878	0.583108
O10	O	0.802711	0.210531	-0.083596
O11	O	1.136045	0.543864	0.249737
O12	O	1.469378	0.877197	0.583070
O13	O	0.846217	-0.024552	0.083276
O14	O	1.179550	0.308782	0.416610
O15	O	1.512883	0.642115	0.749943
O16	O	0.738692	0.082981	0.083274
O17	O	1.072025	0.416315	0.416607
O18	O	1.405359	0.749648	0.749941
O19	O	0.942000	0.071235	0.083241
O20	O	1.275333	0.404568	0.416575
O21	O	1.608666	0.737902	0.749908
Cu22	Cu	0.843246	0.074208	0.098491
Cu23	Cu	1.176579	0.407541	0.431824
Cu24	Cu	1.509913	0.740875	0.765158
Cu25	Cu	0.805682	0.111771	-0.098811
Cu26	Cu	1.139015	0.445104	0.234522
Cu27	Cu	1.472349	0.778438	0.567856
O28	O	0.834475	0.178768	0.083239
O29	O	1.167808	0.512101	0.416572
O30	O	1.501142	0.845434	0.749906
C31	C	0.696800	0.098484	-0.000139
C32	C	1.030133	0.431817	0.333194
C33	C	1.363466	0.765151	0.666528
C34	C	0.619297	0.097348	-0.000126
C35	C	0.952630	0.430681	0.333208
C36	C	1.285964	0.764014	0.666541
C37	C	0.565590	0.114118	-0.091070
C38	C	0.898924	0.447451	0.242263
C39	C	1.232257	0.780784	0.575596
C40	C	0.492764	0.113047	-0.091083
C41	C	0.826098	0.446380	0.242251
C42	C	1.159431	0.779714	0.575584
C43	C	0.473651	0.095191	-0.000145
C44	C	0.806984	0.428525	0.333188
C45	C	1.140317	0.761858	0.666522
C46	C	0.527368	0.078423	0.090811
C47	C	0.860701	0.411757	0.424145
C48	C	1.194034	0.745090	0.757478
C49	C	0.600191	0.079502	0.090821
C50	C	0.933524	0.412835	0.424154
C51	C	1.266858	0.746168	0.757488
N52	N	0.377516	0.040877	0.067538
N53	N	0.710850	0.374210	0.400872
N54	N	1.044183	0.707544	0.734205
N55	N	0.308337	0.039852	0.067523
N56	N	0.641670	0.373186	0.400856
N57	N	0.975003	0.706519	0.734190
C58	C	0.254239	0.091943	-0.000169
C59	C	0.587573	0.425277	0.333165
C60	C	0.920906	0.758610	0.666498
N61	N	0.271934	0.145092	-0.067860
N62	N	0.605267	0.478425	0.265474
N63	N	0.938601	0.811758	0.598807
N64	N	0.341120	0.146114	-0.067847
N65	N	0.674453	0.479447	0.265486
N66	N	1.007787	0.812780	0.598819
C67	C	0.394688	0.094021	-0.000146
C68	C	0.728021	0.427354	0.333188
C69	C	1.061355	0.760687	0.666521
C70	C	0.121565	0.107554	-0.091133
C71	C	0.454899	0.440888	0.242201
C72	C	0.788232	0.774221	0.575534
C73	C	0.048738	0.106487	-0.091141
C74	C	0.382071	0.439821	0.242192
C75	C	0.715405	0.773154	0.575525
C76	C	0.083344	0.071856	0.090755
C77	C	0.416678	0.405190	0.424088
C78	C	0.750011	0.738523	0.757422
C79	C	0.156169	0.072931	0.090761
C80	C	0.489502	0.406264	0.424094
C81	C	0.822835	0.739597	0.757428
C82	C	0.175275	0.090777	-0.000186
C83	C	0.508608	0.424110	0.333148
C84	C	0.841941	0.757444	0.666481
C85	C	0.829955	-0.034682	-0.000138
C86	C	1.163289	0.298652	0.333195
C87	C	1.496622	0.631985	0.666528
C88	C	0.828816	-0.112188	-0.000130
C89	C	1.162150	0.221145	0.333204
C90	C	1.495483	0.554479	0.666537
C91	C	0.891907	-0.157116	-0.000135
C92	C	1.225240	0.176217	0.333198
C93	C	1.558573	0.509550	0.666532
C94	C	0.890832	-0.229937	-0.000151
C95	C	1.224165	0.103396	0.333182
C96	C	1.557499	0.436730	0.666516
C97	C	0.826667	-0.257830	-0.000141
C98	C	1.160000	0.075504	0.333192
C99	C	1.493334	0.408837	0.666525
C100	C	0.763567	-0.212890	-0.000142
C101	C	1.096900	0.120443	0.333192
C102	C	1.430234	0.453776	0.666525
C103	C	0.764642	-0.140069	-0.000136
C104	C	1.097975	0.193264	0.333198
C105	C	1.431308	0.526597	0.666531
N106	N	0.788430	-0.376641	0.056644
N107	N	1.121764	-0.043308	0.389977
N108	N	1.455097	0.290025	0.723311
N109	N	0.787414	-0.445819	0.056640
N110	N	1.120748	-0.112486	0.389974
N111	N	1.454081	0.220847	0.723307
C112	C	0.823425	-0.477234	-0.000161
C113	C	1.156758	-0.143901	0.333172
C114	C	1.490092	0.189432	0.666506
N115	N	0.860503	-0.436862	-0.056946
N116	N	1.193837	-0.103529	0.276387
N117	N	1.527170	0.229805	0.609720
N118	N	0.861523	-0.367679	-0.056939
N119	N	1.194856	-0.034346	0.276395
N120	N	1.528189	0.298988	0.609728
C121	C	0.825495	-0.336791	-0.000148
C122	C	1.158828	-0.003458	0.333185
C123	C	1.492161	0.329876	0.666518
C124	C	0.885355	-0.601124	-0.000185
C125	C	1.218688	-0.267790	0.333148
C126	C	1.552021	0.065543	0.666482
C127	C	0.884276	-0.673944	-0.000207
C128	C	1.217609	-0.340611	0.333126
C129	C	1.550943	-0.007278	0.666459
C130	C	0.757011	-0.656898	-0.000188
C131	C	1.090344	-0.323564	0.333146
C132	C	1.423678	0.009769	0.666479
C133	C	0.758090	-0.584077	-0.000176
C134	C	1.091423	-0.250744	0.333158
C135	C	1.424756	0.082590	0.666491
C136	C	0.822264	-0.556195	-0.000170
C137	C	1.155597	-0.222862	0.333164
C138	C	1.488931	0.110471	0.666497
C139	C	0.952128	0.087495	-0.000183
C140	C	1.285461	0.420829	0.333150
C141	C	1.618794	0.754162	0.666484
C142	C	1.029629	0.088633	-0.000203
C143	C	1.362963	0.421966	0.333130
C144	C	1.696296	0.755299	0.666464
C145	C	0.818972	0.220661	-0.000184
C146	C	1.152306	0.553994	0.333149
C147	C	1.485639	0.887328	0.666483
C148	C	0.820110	0.298168	-0.000199
C149	C	1.153443	0.631502	0.333134
C150	C	1.486777	0.964835	0.666467
N151	N	0.869672	0.047788	0.237263
N152	N	1.203005	0.381121	0.570596
N153	N	1.536338	0.714454	0.903929
N154	N	0.779262	0.138186	-0.237583
N155	N	1.112595	0.471519	0.095751
N156	N	1.445928	0.804852	0.429084
C157	C	0.701623	0.215778	0.604909
C158	C	1.034956	0.549112	0.938242
C159	C	1.368290	0.882445	1.271576
C160	C	0.721645	0.195770	0.709931
C161	C	1.054978	0.529103	1.043264
C162	C	1.388311	0.862437	1.376598
C163	C	0.816877	0.100585	0.709894
C164	C	1.150210	0.433918	1.043227
C165	C	1.483544	0.767251	1.376561
C166	C	0.796861	0.120583	0.604870
C167	C	1.130194	0.453916	0.938203
C168	C	1.463527	0.787250	1.271537
C169	C	0.739234	0.178181	0.552386
C170	C	1.072567	0.511514	0.885719
C171	C	1.405900	0.844847	1.219052
C172	C	0.834471	0.082985	0.552346
C173	C	1.167805	0.416319	0.885680
C174	C	1.501138	0.749652	1.219013
C175	C	0.814459	0.102985	0.447332
C176	C	1.147792	0.436318	0.780665
C177	C	1.481126	0.769651	1.113998
C178	C	0.756836	0.160581	0.394840
C179	C	1.090169	0.493915	0.728173
C180	C	1.423502	0.827248	1.061507
C181	C	0.719221	0.198180	0.447371
C182	C	1.052555	0.531513	0.780704
C183	C	1.385888	0.864847	1.114037
C184	C	0.892101	0.025391	0.604833
C185	C	1.225435	0.358724	0.938166
C186	C	1.558768	0.692058	1.271499
C187	C	0.929712	-0.012206	0.552309
C188	C	1.263046	0.321127	0.885643
C189	C	1.596379	0.654460	1.218976
C190	C	0.909697	0.007789	0.447292
C191	C	1.243030	0.341123	0.780626
C192	C	1.576363	0.674456	1.113959
C193	C	0.852073	0.065386	0.394801
C194	C	1.185407	0.398719	0.728134
C195	C	1.518740	0.732053	1.061468
C196	C	0.947311	-0.029809	0.394762
C197	C	1.280644	0.303524	0.728095
C198	C	1.613978	0.636857	1.061428
C199	C	0.927299	-0.009810	0.289747
C200	C	1.260632	0.323523	0.623080
C201	C	1.593965	0.656857	0.956413
C202	C	0.832061	0.085385	0.289786
C203	C	1.165394	0.418719	0.623119
C204	C	1.498728	0.752052	0.956453
H205	H	0.067783	0.057322	0.164798
H206	H	0.401116	0.390656	0.498131
H207	H	0.734449	0.723989	0.831465
H208	H	0.785130	0.132282	0.247051
H209	H	1.118464	0.465616	0.580385
H210	H	1.451797	0.798949	0.913718
H211	H	0.937608	-0.578421	-0.000185
H212	H	1.270942	-0.245087	0.333149
H213	H	1.604275	0.088246	0.666482
H214	H	0.740544	0.176866	0.309330
H215	H	1.073878	0.510199	0.642663
H216	H	1.407211	0.843533	0.975997
H217	H	0.672291	0.245077	0.404636
H218	H	1.005624	0.578410	0.737969
H219	H	1.338957	0.911743	1.071303
Cl220	Cl	0.629168	0.288182	0.538925
Cl221	Cl	0.962502	0.621515	0.872258
Cl222	Cl	1.295835	0.954848	1.205591
Cl223	Cl	0.223690	0.051843	0.205098
Cl224	Cl	0.557023	0.385177	0.538431
Cl225	Cl	0.890357	0.718510	0.871765
H226	H	0.942209	-0.266524	-0.000159
H227	H	1.275542	0.066809	0.333174
H228	H	1.608876	0.400142	0.666507
H229	H	0.704766	-0.679606	-0.000185
H230	H	1.038099	-0.346273	0.333148
H231	H	1.371432	-0.012939	0.666482
Cl232	Cl	0.674355	0.243046	0.775953
Cl233	Cl	1.007689	0.576380	1.109286
Cl234	Cl	1.341022	0.909713	1.442620
Cl235	Cl	0.889322	0.028180	0.775881
Cl236	Cl	1.222655	0.361513	1.109214
Cl237	Cl	1.555988	0.694846	1.442548
Cl238	Cl	0.963596	-0.730426	-0.000221
Cl239	Cl	1.296930	-0.397093	0.333113
Cl240	Cl	1.630263	-0.063760	0.666446
H241	H	0.137121	0.122093	-0.165187
H242	H	0.470454	0.455427	0.168146
H243	H	0.803788	0.788760	0.501480
H244	H	0.706715	-0.547496	-0.000166
H245	H	1.040049	-0.214163	0.333168
H246	H	1.373382	0.119171	0.666501
Cl247	Cl	0.917261	0.000255	0.736853
Cl248	Cl	1.250594	0.333588	1.070187
Cl249	Cl	1.583927	0.666922	1.403520
H250	H	0.976635	-0.059102	0.595054
H251	H	1.309968	0.274232	0.928387
H252	H	1.643301	0.607565	1.261721
H253	H	0.944162	-0.134420	-0.000133
H254	H	1.277495	0.198913	0.333200
H255	H	1.610829	0.532247	0.666533
H256	H	0.957926	-0.040426	0.246982
H257	H	1.291260	0.292908	0.580315
H258	H	1.624593	0.626241	0.913649
Cl259	Cl	0.589605	0.136556	-0.205403
Cl260	Cl	0.922938	0.469890	0.127930
Cl261	Cl	1.256272	0.803223	0.461263
Cl262	Cl	0.425236	0.134130	-0.205421
Cl263	Cl	0.758569	0.467463	0.127912
Cl264	Cl	1.091903	0.800797	0.461245
Cl265	Cl	1.019761	-0.102208	0.460752
Cl266	Cl	1.353094	0.231125	0.794085
Cl267	Cl	1.686428	0.564458	1.127419
Cl268	Cl	-0.018783	0.127577	-0.205483
Cl269	Cl	0.314551	0.460911	0.127851
Cl270	Cl	0.647884	0.794244	0.461184
H271	H	0.511801	0.063887	0.164853
H272	H	0.845134	0.397220	0.498186
H273	H	1.178467	0.730554	0.831520
H274	H	0.643921	0.065846	0.164881
H275	H	0.977254	0.399179	0.498215
H276	H	1.310588	0.732513	0.831548
H277	H	0.711323	-0.235605	-0.000136
H278	H	1.044656	0.097729	0.333197
H279	H	1.377990	0.431062	0.666531
H280	H	0.713264	-0.103488	-0.000131
H281	H	1.046597	0.229846	0.333202
H282	H	1.379931	0.563179	0.666536
