data_functionalizedCrystal
_audit_creation_method	'MofGen! by Chris Wilmer'
_symmetry_space_group_name_H-M	'P1'
_symmetry_Int_Tables_number	1
_symmetry_cell_setting	triclinic
loop_
_symmetry_equiv_pos_as_xyz
  x,y,z
_cell_length_a	10.489689
_cell_length_b	9.565339
_cell_length_c	9.065218
_cell_angle_alpha	89.992803
_cell_angle_beta	84.766886
_cell_angle_gamma	89.993230
loop_
_atom_site_label
_atom_site_type_symbol
_atom_site_fract_x
_atom_site_fract_y
_atom_site_fract_z
O1	O	-1.694842	0.116390	-0.207790
O2	O	-1.323709	0.116372	-0.227410
O3	O	-1.516947	0.116346	-0.002919
O4	O	-1.501604	0.116416	-0.432281
O5	O	-1.516931	-0.116175	-0.002933
O6	O	-1.323694	-0.116148	-0.227424
O7	O	-1.694827	-0.116130	-0.207804
Zn8	Zn	-1.509258	-0.153057	-0.217616
Zn9	Zn	-1.509278	0.153298	-0.217598
O10	O	-1.501589	-0.116104	-0.432295
C11	C	-1.276163	0.000109	-0.225951
C12	C	-1.134515	0.000101	-0.221567
C13	C	-0.952614	0.000134	-0.356575
C14	C	-1.044524	0.114768	-0.289130
C15	C	-1.044482	-0.114479	-0.289107
C16	C	-0.974056	0.114850	-0.146235
C17	C	-0.974005	-0.114499	-0.146233
C18	C	-1.065887	0.000163	-0.078684
N19	N	-1.509253	-0.362136	-0.217628
C20	C	-1.419859	-0.453327	-0.321413
C21	C	-1.535467	-0.546495	-0.351242
C22	C	-1.393696	-0.546524	-0.187810
C23	C	-1.624919	-0.453252	-0.247525
C24	C	-1.483072	-0.453273	-0.084034
C25	C	-1.598762	-0.546399	-0.113807
C26	C	-0.742370	0.000128	-0.209286
C27	C	-0.884012	0.000122	-0.213740
C28	C	-1.515464	0.000079	0.052053
C29	C	-1.511055	0.000061	0.215874
N30	N	-1.509292	0.362378	-0.217574
C31	C	-1.503071	0.000127	0.512733
C32	C	-1.507480	0.000040	0.348912
H33	H	-0.943036	0.211874	-0.085850
C34	C	-0.886043	0.000307	-0.515180
C35	C	-0.910557	-0.119691	-0.622239
C36	C	-0.843985	-0.119510	-0.780838
C37	C	-0.752898	0.000669	-0.832378
C38	C	-0.728380	0.120676	-0.725317
C39	C	-0.794952	0.120495	-0.566718
H40	H	-0.977989	-0.208663	-0.584088
H41	H	-0.862135	-0.208348	-0.860091
H42	H	-0.703617	0.000803	-0.949783
H43	H	-0.660948	0.209648	-0.763469
H44	H	-0.776801	0.209333	-0.487465
C45	C	-1.317830	-0.398102	-0.440081
C46	C	-1.326082	-0.434931	-0.604299
C47	C	-1.224061	-0.379703	-0.722968
C48	C	-1.113787	-0.287645	-0.677420
C49	C	-1.105530	-0.250811	-0.513194
C50	C	-1.207551	-0.306039	-0.394525
H51	H	-1.407718	-0.503082	-0.638023
H52	H	-1.230174	-0.406971	-0.844539
H53	H	-1.038264	-0.246762	-0.765266
H54	H	-1.023895	-0.182660	-0.479469
H55	H	-1.201438	-0.278771	-0.272954
H56	H	-1.075744	0.211697	-0.349565
H57	H	-1.075650	-0.211390	-0.349574
C58	C	-1.701018	-0.601274	0.004796
C59	C	-1.810140	-0.695157	-0.040502
C60	C	-1.912400	-0.750035	0.078092
C61	C	-1.905537	-0.711031	0.241984
C62	C	-1.796410	-0.617143	0.287289
C63	C	-1.694151	-0.562264	0.168695
H64	H	-1.815225	-0.724035	-0.161832
H65	H	-1.993183	-0.819538	0.044553
H66	H	-1.981236	-0.751655	0.329774
H67	H	-1.791326	-0.588265	0.408619
H68	H	-1.613368	-0.492762	0.202235
H69	H	-1.114921	0.000203	0.038835
H70	H	-1.557638	-0.587442	-0.464197
H71	H	-0.942757	-0.211437	-0.085852
H72	H	-1.722683	-0.412454	-0.272857
H73	H	-1.460865	-0.412293	0.028885
H74	H	-1.295955	-0.587497	-0.162614
