data_functionalizedCrystal
_audit_creation_method	'MofGen! by Chris Wilmer'
_symmetry_space_group_name_H-M	'P1'
_symmetry_Int_Tables_number	1
_symmetry_cell_setting	triclinic
loop_
_symmetry_equiv_pos_as_xyz
  x,y,z
_cell_length_a	11.169417
_cell_length_b	15.297327
_cell_length_c	11.169409
_cell_angle_alpha	99.639974
_cell_angle_beta	89.979436
_cell_angle_gamma	99.707226
loop_
_atom_site_label
_atom_site_type_symbol
_atom_site_fract_x
_atom_site_fract_y
_atom_site_fract_z
Zn1	Zn	1.752176	-0.359064	-0.761131
Zn2	Zn	1.717269	-0.509957	-0.595155
Zn3	Zn	1.551447	-0.359119	-0.560478
Zn4	Zn	1.516693	-0.509883	-0.795783
O5	O	1.634396	-0.434506	-0.678137
O6	O	1.915493	-0.379088	-0.739125
O7	O	1.695208	-0.490001	-0.422618
O8	O	1.607227	-0.232867	-0.558081
O9	O	1.889848	-0.489948	-0.617183
O10	O	1.754702	-0.232827	-0.705500
O11	O	1.573379	-0.379182	-0.397141
O12	O	1.378889	-0.379111	-0.591682
O13	O	1.547994	-0.489823	-0.959124
O14	O	1.353355	-0.489876	-0.764559
O15	O	1.721003	-0.379017	-0.933666
O16	O	1.661509	-0.636191	-0.650783
O17	O	1.514146	-0.636138	-0.798184
C18	C	1.322575	-0.434492	-0.678119
C19	C	1.189171	-0.434508	-0.678144
C20	C	1.580301	-0.668898	-0.732033
C21	C	1.557269	-0.769172	-0.755130
C22	C	1.799506	-1.051815	-0.513469
C23	C	1.821146	-0.957602	-0.491762
C24	C	1.755179	-0.910490	-0.557602
C25	C	1.667568	-0.957600	-0.645153
C26	C	1.645920	-1.051821	-0.666855
C27	C	1.601592	-0.910497	-0.710988
C28	C	1.513981	-0.957606	-0.798539
C29	C	1.492338	-1.051819	-0.820238
C30	C	1.558305	-1.098931	-0.754398
C31	C	1.623240	-0.816275	-0.689286
C32	C	1.469654	-0.816282	-0.842672
C33	C	1.448014	-0.910494	-0.864379
C34	C	1.947435	-0.434520	-0.678157
C35	C	2.080834	-0.434526	-0.678165
C36	C	1.634515	-0.434406	-0.991157
C37	C	1.634566	-0.434363	-1.124547
C38	C	1.688735	-0.199198	-0.624057
C39	C	1.711891	-0.098924	-0.601012
C40	C	1.634361	-0.434540	-0.366320
C41	C	1.634602	-0.434329	-0.232872
H42	H	1.694573	-0.777927	-0.618002
Cl43	Cl	1.782713	-0.792050	-0.530641
Cl44	Cl	1.931291	-0.898386	-0.381716
Cl45	Cl	1.382193	-1.111040	-0.930296
Cl46	Cl	1.882422	-1.111045	-0.430707
Cl47	Cl	1.530618	-1.217374	-0.781195
Cl48	Cl	1.386711	-0.757062	-0.925440
Cl49	Cl	1.337878	-0.969728	-0.974438
