data_functionalizedCrystal
_audit_creation_method	'MofGen! by Chris Wilmer'
_symmetry_space_group_name_H-M	'P1'
_symmetry_Int_Tables_number	1
_symmetry_cell_setting	triclinic
loop_
_symmetry_equiv_pos_as_xyz
  x,y,z
_cell_length_a	15.297476
_cell_length_b	12.594516
_cell_length_c	15.296720
_cell_angle_alpha	99.649603
_cell_angle_beta	91.616508
_cell_angle_gamma	80.315672
loop_
_atom_site_label
_atom_site_type_symbol
_atom_site_fract_x
_atom_site_fract_y
_atom_site_fract_z
Zn1	Zn	1.253518	-0.828398	-0.726662
Zn2	Zn	1.753518	-0.328398	-0.226662
Zn3	Zn	1.278802	-0.981668	-0.580188
Zn4	Zn	1.778802	-0.481668	-0.080188
Zn5	Zn	1.132387	-0.768603	-0.554898
Zn6	Zn	1.632387	-0.268603	-0.054898
Zn7	Zn	1.107027	-0.971207	-0.701314
Zn8	Zn	1.607027	-0.471207	-0.201314
O9	O	1.192934	-0.887469	-0.640766
O10	O	1.692934	-0.387469	-0.140766
O11	O	1.379454	-0.878133	-0.728424
O12	O	1.879454	-0.378133	-0.228424
O13	O	1.280575	-0.932758	-0.454258
O14	O	1.780575	-0.432758	0.045742
O15	O	1.148487	-0.627600	-0.577708
O16	O	1.648487	-0.127600	-0.077708
O17	O	1.398030	-0.990739	-0.620810
O18	O	1.898030	-0.490739	-0.120810
O19	O	1.237481	-0.671532	-0.703902
O20	O	1.737481	-0.171532	-0.203902
O21	O	1.173004	-0.776220	-0.435677
O22	O	1.673004	-0.276220	0.064323
O23	O	1.006441	-0.766076	-0.553128
O24	O	1.506441	-0.266076	-0.053128
O25	O	1.105265	-0.972909	-0.827252
O26	O	1.605265	-0.472909	-0.327252
O27	O	0.987809	-0.914928	-0.660700
O28	O	1.487809	-0.414928	-0.160700
O29	O	1.212891	-0.867989	-0.845876
O30	O	1.712891	-0.367989	-0.345876
O31	O	1.255985	-1.129215	-0.596231
O32	O	1.755985	-0.629215	-0.096231
O33	O	1.129782	-1.121529	-0.685222
O34	O	1.629782	-0.621529	-0.185222
C35	C	0.965341	-0.832879	-0.601420
C36	C	1.465341	-0.332879	-0.101420
C37	C	0.867972	-0.809554	-0.584608
C38	C	1.367972	-0.309554	-0.084608
C39	C	0.831892	-0.720994	-0.520788
C40	C	1.331892	-0.220994	-0.020788
C41	C	0.740409	-0.699077	-0.504991
C42	C	1.240409	-0.199077	-0.004991
C43	C	0.684998	-0.765712	-0.553017
C44	C	1.184998	-0.265712	-0.053017
C45	C	0.721077	-0.854269	-0.616842
C46	C	1.221077	-0.354269	-0.116842
C47	C	0.812569	-0.876194	-0.632636
C48	C	1.312569	-0.376194	-0.132636
C49	C	0.665675	-0.920912	-0.664864
C50	C	1.165675	-0.420912	-0.164864
C51	C	0.701755	-1.009469	-0.728690
C52	C	1.201755	-0.509469	-0.228690
C53	C	0.793238	-1.031390	-0.744481
C54	C	1.293238	-0.531390	-0.244481
C55	C	0.848650	-0.964754	-0.696456
C56	C	1.348650	-0.464754	-0.196456
C57	C	0.574183	-0.898987	-0.649070
C58	C	1.074183	-0.398987	-0.149070
C59	C	0.554861	-1.054187	-0.760918
C60	C	1.054861	-0.554187	-0.260918
C61	C	0.646343	-1.076105	-0.776715
C62	C	1.146343	-0.576105	-0.276715
C63	C	1.192896	-1.163998	-0.640743
C64	C	1.692896	-0.663998	-0.140743
C65	C	1.192955	-1.282322	-0.640777
C66	C	1.692955	-0.782322	-0.140777
C67	C	1.261653	-1.355743	-0.592449
C68	C	1.761653	-0.855743	-0.092449
C69	C	1.269216	-1.445067	-0.676093
C70	C	1.769216	-0.945067	-0.176093
C71	C	1.185493	-1.403832	-0.557203
C72	C	1.685493	-0.903832	-0.057203
C73	C	1.200551	-1.370104	-0.724470
C74	C	1.700551	-0.870104	-0.224470
C75	C	1.116800	-1.328845	-0.605519
C76	C	1.616800	-0.828845	-0.105519
C77	C	1.124323	-1.418138	-0.689213
C78	C	1.624323	-0.918138	-0.189213
C79	C	1.421415	-0.942273	-0.680266
C80	C	1.921415	-0.442273	-0.180266
C81	C	1.518780	-0.965627	-0.697098
C82	C	2.018780	-0.465627	-0.197098
C83	C	1.153429	-0.925952	-0.869235
C84	C	1.653429	-0.425952	-0.369235
C85	C	1.136594	-0.942352	-0.966595
C86	C	1.636594	-0.442352	-0.466595
C87	C	1.192992	-0.609869	-0.640811
C88	C	1.692992	-0.109869	-0.140811
C89	C	1.193017	-0.491573	-0.640831
C90	C	1.693017	0.008427	-0.140831
C91	C	1.313287	-0.770082	-1.279823
C92	C	1.813287	-0.270082	-0.779823
C93	C	1.329110	-0.754677	-1.188349
C94	C	1.829110	-0.254677	-0.688349
C95	C	1.280982	-0.801594	-1.132906
C96	C	1.780982	-0.301594	-0.632906
C97	C	1.217029	-0.863919	-1.168946
C98	C	1.717029	-0.363919	-0.668946
C99	C	1.201210	-0.879333	-1.260429
C100	C	1.701210	-0.379333	-0.760429
C101	C	1.168905	-0.910845	-1.113513
C102	C	1.668905	-0.410845	-0.613513
C103	C	1.104952	-0.973170	-1.149552
C104	C	1.604952	-0.473170	-0.649552
C105	C	1.089135	-0.988580	-1.241027
C106	C	1.589135	-0.488580	-0.741027
C107	C	1.137263	-0.941663	-1.296470
C108	C	1.637263	-0.441663	-0.796470
C109	C	1.184724	-0.895431	-1.022029
C110	C	1.684724	-0.395431	-0.522029
C111	C	1.072647	-1.004682	-1.002636
C112	C	1.572647	-0.504682	-0.502636
C113	C	1.056824	-1.020087	-1.094109
C114	C	1.556824	-0.520087	-0.594109
C115	C	1.232336	-0.849071	-0.413194
C116	C	1.732336	-0.349071	0.086806
C117	C	1.249340	-0.832412	-0.315864
C118	C	1.749340	-0.332412	0.184136
H119	H	0.509744	-1.108448	-0.800024
H120	H	1.009744	-0.608448	-0.300024
O121	O	0.586325	-0.742070	-0.535992
O122	O	1.086325	-0.242070	-0.035992
H123	H	0.570544	-0.669290	-0.483549
H124	H	1.070544	-0.169290	0.016451
O125	O	1.398085	-0.687465	-1.149480
O126	O	1.898085	-0.187465	-0.649480
H127	H	1.380047	-0.603285	-1.164447
H128	H	1.880047	-0.103285	-0.664447
H129	H	0.711041	-0.626977	-0.453020
H130	H	1.211041	-0.126977	0.046980
O131	O	1.365170	-0.719450	-1.339613
O132	O	1.865170	-0.219450	-0.839613
H133	H	1.343413	-0.740624	-1.409275
H134	H	1.843413	-0.240624	-0.909275
O135	O	1.338600	-1.319286	-0.538372
O136	O	1.838600	-0.819286	-0.038372
H137	H	1.401753	-1.366513	-0.567867
H138	H	1.901753	-0.866513	-0.067867
O139	O	1.120192	-0.958280	-1.395134
O140	O	1.620192	-0.458280	-0.895134
H141	H	1.164403	-0.915183	-1.427627
H142	H	1.664403	-0.415183	-0.927627
H143	H	1.333643	-1.495370	-0.705942
H144	H	1.833643	-0.995370	-0.205942
O145	O	1.020165	-1.055812	-1.279897
O146	O	1.520165	-0.555812	-0.779897
H147	H	1.017257	-1.058656	-1.352822
H148	H	1.517257	-0.558656	-0.852822
H149	H	0.923143	-0.982594	-0.709316
H150	H	1.423143	-0.482594	-0.209316
O151	O	0.685257	-1.171605	-0.845567
O152	O	1.185257	-0.671605	-0.345567
H153	H	0.758181	-1.175648	-0.848480
H154	H	1.258181	-0.675648	-0.348480
H155	H	0.822612	-1.103507	-0.796445
H156	H	1.322612	-0.603507	-0.296445
O157	O	1.209057	-1.349878	-0.818168
O158	O	1.709057	-0.849878	-0.318168
H159	H	1.209001	-1.261587	-0.817406
H160	H	1.709001	-0.761587	-0.317406
H161	H	1.066244	-1.445479	-0.730163
H162	H	1.566244	-0.945479	-0.230163
O163	O	0.987848	-1.087309	-1.132983
O164	O	1.487848	-0.587309	-0.632983
H165	H	0.984940	-1.090144	-1.205907
H166	H	1.484940	-0.590144	-0.705907
H167	H	1.033459	-1.042888	-0.957494
H168	H	1.533459	-0.542888	-0.457494
H169	H	1.052396	-1.278520	-0.575650
H170	H	1.552396	-0.778520	-0.075650
H171	H	0.544816	-0.826881	-0.597105
H172	H	1.044816	-0.326881	-0.097105
H173	H	0.877016	-0.666754	-0.481688
H174	H	1.377016	-0.166754	0.018312
O175	O	1.177082	-1.424273	-0.463552
O176	O	1.677082	-0.924273	0.036448
H177	H	1.234155	-1.399440	-0.423557
H178	H	1.734155	-0.899440	0.076443
H179	H	1.236794	-0.844684	-0.992695
H180	H	1.736794	-0.344684	-0.492695
H181	H	1.293869	-0.789048	-1.058425
H182	H	1.793869	-0.289048	-0.558425
