data_functionalizedCrystal
_audit_creation_method	'MofGen! by Chris Wilmer'
_symmetry_space_group_name_H-M	'P1'
_symmetry_Int_Tables_number	1
_symmetry_cell_setting	triclinic
loop_
_symmetry_equiv_pos_as_xyz
  x,y,z
_cell_length_a	14.908783
_cell_length_b	18.101397
_cell_length_c	14.908308
_cell_angle_alpha	86.737270
_cell_angle_beta	90.211273
_cell_angle_gamma	93.311144
loop_
_atom_site_label
_atom_site_type_symbol
_atom_site_fract_x
_atom_site_fract_y
_atom_site_fract_z
Zn1	Zn	1.345316	-0.259021	0.587809
Zn2	Zn	1.845316	0.240979	1.087809
Zn3	Zn	1.353897	-0.375344	0.437440
Zn4	Zn	1.853897	0.124656	0.937440
Zn5	Zn	1.203629	-0.258219	0.428781
Zn6	Zn	1.703629	0.241781	0.928781
Zn7	Zn	1.194922	-0.389525	0.579061
Zn8	Zn	1.694922	0.110475	1.079061
O9	O	1.274441	-0.320527	0.508273
O10	O	1.774441	0.179473	1.008273
O11	O	1.472282	-0.268852	0.575148
O12	O	1.972282	0.231148	1.075148
O13	O	1.341198	-0.353537	0.310469
O14	O	1.841198	0.146463	0.810469
O15	O	1.222476	-0.154692	0.449913
O16	O	1.722476	0.345308	0.949913
O17	O	1.478586	-0.354314	0.464672
O18	O	1.978586	0.145686	0.964672
O19	O	1.326573	-0.155281	0.566751
O20	O	1.826573	0.344719	1.066751
O21	O	1.230797	-0.267486	0.304107
O22	O	1.730797	0.232514	0.804107
O23	O	1.076646	-0.281237	0.441430
O24	O	1.576646	0.218763	0.941430
O25	O	1.207637	-0.378483	0.706044
O26	O	1.707637	0.121517	1.206044
O27	O	1.070249	-0.377706	0.551841
O28	O	1.570249	0.122294	1.051841
O29	O	1.318131	-0.282603	0.712472
O30	O	1.818131	0.217397	1.212472
O31	O	1.332756	-0.480859	0.456189
O32	O	1.832756	0.019141	0.956189
O33	O	1.215958	-0.491277	0.560237
O34	O	1.715958	0.008723	1.060237
C35	C	1.040822	-0.330924	0.494747
C36	C	1.540822	0.169076	0.994747
C37	C	0.940878	-0.335390	0.488982
C38	C	1.440878	0.164610	0.988982
C39	C	0.746495	-0.254930	0.593363
C40	C	1.246495	0.245070	1.093363
C41	C	0.652588	-0.259125	0.587949
C42	C	1.152588	0.240875	1.087949
C43	C	0.659156	-0.347969	0.472736
C44	C	1.159156	0.152031	0.972736
C45	C	0.753062	-0.343775	0.478150
C46	C	1.253062	0.156225	0.978150
C47	C	0.796728	-0.297255	0.538466
C48	C	1.296728	0.202745	1.038466
C49	C	0.890637	-0.293065	0.543884
C50	C	1.390637	0.206935	1.043884
C51	C	0.897203	-0.381905	0.428668
C52	C	1.397203	0.118095	0.928668
C53	C	0.803296	-0.386099	0.423254
C54	C	1.303296	0.113901	0.923254
C55	C	1.274366	-0.512939	0.508225
C56	C	1.774366	-0.012939	1.008225
C57	C	1.274415	-0.595252	0.508239
C58	C	1.774415	-0.095252	1.008239
C59	C	1.274525	-0.894341	0.508328
C60	C	1.774525	-0.394341	1.008328
C61	C	1.347828	-0.856430	0.442666
C62	C	1.847828	-0.356430	0.942666
C63	C	1.348058	-0.770809	0.442861
C64	C	1.848058	-0.270809	0.942861
C65	C	1.274471	-0.745959	0.508283
C66	C	1.774471	-0.245959	1.008283
C67	C	1.294687	-0.780566	0.604541
C68	C	1.794687	-0.280566	1.104541
C69	C	1.295245	-0.866168	0.604193
C70	C	1.795245	-0.366168	1.104193
C71	C	1.180774	-0.865875	0.478541
C72	C	1.680774	-0.365875	0.978541
C73	C	1.181366	-0.780099	0.476452
C74	C	1.681366	-0.280099	0.976452
C75	C	1.274438	-0.662101	0.508263
C76	C	1.774438	-0.162101	1.008263
C77	C	1.274560	-0.978200	0.508354
C78	C	1.774560	-0.478200	1.008354
C79	C	1.508972	-0.310091	0.521852
C80	C	2.008972	0.189909	1.021852
C81	C	1.608915	-0.305643	0.527639
C82	C	2.108915	0.194357	1.027639
C83	C	1.260955	-0.332214	0.742795
C84	C	1.760955	0.167786	1.242795
C85	C	1.255209	-0.337194	0.842734
C86	C	1.755209	0.162806	1.342734
C87	C	1.274539	-0.127364	0.508342
C88	C	1.774539	0.372636	1.008342
C89	C	1.274581	-0.045049	0.508372
C90	C	1.774581	0.454951	1.008372
C91	C	1.287925	-0.308830	0.274667
C92	C	1.787925	0.191170	0.774667
C93	C	1.293846	-0.303633	0.174738
C94	C	1.793846	0.196367	0.674738
C95	C	1.359465	-0.246695	1.037224
C96	C	1.859465	0.253305	1.537224
C97	C	1.354068	-0.251372	1.131126
C98	C	1.854068	0.248628	1.631126
C99	C	1.239015	-0.351221	1.124441
C100	C	1.739015	0.148779	1.624441
C101	C	1.244412	-0.346544	1.030539
C102	C	1.744412	0.153456	1.530539
C103	C	1.304639	-0.294280	0.986934
C104	C	1.804639	0.205720	1.486934
C105	C	1.310040	-0.289607	0.893031
C106	C	1.810040	0.210393	1.393031
C107	C	1.194983	-0.389452	0.886347
C108	C	1.694983	0.110548	1.386347
C109	C	1.189586	-0.394129	0.980249
C110	C	1.689586	0.105871	1.480249
H111	H	0.782048	-0.217055	0.642478
H112	H	1.282048	0.282945	1.142478
H113	H	1.398710	-0.212621	1.172069
H114	H	1.898710	0.287379	1.672069
H115	H	0.611691	-0.224658	0.632649
H116	H	1.111691	0.275342	1.132649
C117	C	1.387600	-0.890288	0.637403
C118	C	1.887600	-0.390288	1.137403
H119	H	1.388754	-0.942713	0.637486
H120	H	1.888754	-0.442713	1.137486
H121	H	1.433207	-0.868164	0.598604
H122	H	1.933207	-0.368164	1.098604
H123	H	1.397809	-0.874875	0.696619
H124	H	1.897809	-0.374875	1.196619
H125	H	0.767731	-0.423972	0.374144
H126	H	1.267731	0.076028	0.874144
H127	H	1.336020	-0.874252	0.371265
H128	H	1.836020	-0.374252	0.871265
H129	H	1.150343	-0.428201	0.845390
H130	H	1.650343	0.071799	1.345390
H131	H	1.417614	-0.747929	0.463004
H132	H	1.917614	-0.247929	0.963004
H133	H	1.189980	-0.393771	1.159960
H134	H	1.689980	0.106229	1.659960
C135	C	1.107077	-0.899792	0.543046
C136	C	1.607077	-0.399792	1.043046
H137	H	1.050585	-0.882381	0.524707
H138	H	1.550585	-0.382381	1.024707
H139	H	1.105062	-0.952280	0.541936
H140	H	1.605062	-0.452280	1.041936
H141	H	1.120119	-0.885627	0.602294
H142	H	1.620119	-0.385627	1.102294
H143	H	1.140549	-0.436679	1.015765
H144	H	1.640549	0.063321	1.515765
H145	H	0.926188	-0.255186	0.592997
H146	H	1.426188	0.244814	1.092997
H147	H	0.623587	-0.385835	0.423620
H148	H	1.123587	0.114165	0.923620
H149	H	0.938113	-0.416375	0.383974
H150	H	1.438113	0.083625	0.883974
H151	H	1.166023	-0.757212	0.405587
H152	H	1.666023	-0.257212	0.905587
H153	H	1.336044	-0.747046	0.371659
H154	H	1.836044	-0.247046	0.871659
C155	C	1.441290	-0.882273	0.469600
C156	C	1.941290	-0.382273	0.969600
H157	H	1.435833	-0.916065	0.520690
H158	H	1.935833	-0.416065	1.020690
H159	H	1.466282	-0.906065	0.421132
H160	H	1.966282	-0.406065	0.921132
H161	H	1.479412	-0.840629	0.483616
H162	H	1.979412	-0.340629	0.983616
C163	C	1.376280	-0.232116	0.845066
C164	C	1.876280	0.267884	1.345066
H165	H	1.408151	-0.204440	0.888469
H166	H	1.908151	0.295560	1.388469
H167	H	1.417555	-0.256868	0.810690
H168	H	1.917555	0.243132	1.310690
H169	H	1.343992	-0.199556	0.806458
H170	H	1.843992	0.300444	1.306458
H171	H	1.243894	-0.891733	0.655099
H172	H	1.743894	-0.391733	1.155099
H173	H	1.124254	-0.763492	0.520334
H174	H	1.624254	-0.263492	1.020334
C175	C	1.224455	-0.759610	0.672734
C176	C	1.724455	-0.259610	1.172734
H177	H	1.182081	-0.729494	0.643036
H178	H	1.682081	-0.229494	1.143036
H179	H	1.194328	-0.803376	0.698494
H180	H	1.694328	-0.303376	1.198494
H181	H	1.253631	-0.733016	0.718738
H182	H	1.753631	-0.233016	1.218738
C183	C	1.385997	-0.748841	0.638150
C184	C	1.885997	-0.248841	1.138150
H185	H	1.397639	-0.770134	0.696448
H186	H	1.897639	-0.270134	1.196448
H187	H	1.432043	-0.760240	0.598175
H188	H	1.932043	-0.260240	1.098175
H189	H	1.384645	-0.696586	0.640563
H190	H	1.884645	-0.196586	1.140563
C191	C	1.154502	-0.891941	0.384972
C192	C	1.654502	-0.391941	0.884972
H193	H	1.200471	-0.920431	0.363196
H194	H	1.700471	-0.420431	0.863196
H195	H	1.099711	-0.921435	0.389119
H196	H	1.599711	-0.421435	0.889119
H197	H	1.147141	-0.850033	0.344867
H198	H	1.647141	-0.350033	0.844867
H199	H	1.408509	-0.204143	1.001721
H200	H	1.908509	0.295857	1.501721
