data_functionalizedCrystal
_audit_creation_method	'MofGen! by Chris Wilmer'
_symmetry_space_group_name_H-M	'P1'
_symmetry_Int_Tables_number	1
_symmetry_cell_setting	triclinic
loop_
_symmetry_equiv_pos_as_xyz
  x,y,z
_cell_length_a	14.853558
_cell_length_b	15.995300
_cell_length_c	13.330367
_cell_angle_alpha	89.999902
_cell_angle_beta	89.992972
_cell_angle_gamma	83.551470
loop_
_atom_site_label
_atom_site_type_symbol
_atom_site_fract_x
_atom_site_fract_y
_atom_site_fract_z
O1	O	1.196205	0.109282	-0.083401
O2	O	0.933725	0.122313	-0.083404
O3	O	1.072164	-0.006085	-0.083407
O4	O	1.057766	0.237680	-0.083398
O5	O	1.072144	-0.006087	0.083440
O6	O	0.933705	0.122310	0.083443
O7	O	1.196185	0.109280	0.083446
Cu8	Cu	1.064943	0.115795	0.098679
Cu9	Cu	1.064967	0.115798	-0.098637
O10	O	1.057746	0.237677	0.083449
C11	C	0.900127	0.121723	0.000019
C12	C	0.800045	0.119958	0.000017
C13	C	1.071567	-0.037282	0.000013
C14	C	1.069806	-0.130237	0.000003
C15	C	0.753037	0.119131	-0.090935
C16	C	0.753014	0.119118	0.090968
C17	C	0.658983	0.117455	0.090969
C18	C	0.611975	0.116629	0.000017
C19	C	0.658998	0.117466	-0.090937
C20	C	0.611954	0.116610	0.181922
C21	C	0.517917	0.114946	0.181927
C22	C	0.470907	0.114126	0.090973
C23	C	0.517935	0.114964	0.000016
C24	C	0.470927	0.114137	-0.090936
C25	C	0.517954	0.114981	-0.181895
C26	C	0.611987	0.116646	-0.181890
C27	C	0.376873	0.112461	0.090969
C28	C	0.376888	0.112472	-0.090937
C29	C	1.066555	-0.300423	0.000012
C30	C	1.165127	-0.347778	0.000012
C31	C	1.163328	-0.444468	0.000394
C32	C	1.063355	-0.467984	0.000021
C33	C	1.014439	-0.426906	0.095110
C34	C	1.016933	-0.330270	0.095186
C35	C	1.015497	-0.329993	-0.094557
C36	C	1.015506	-0.426937	-0.095803
C37	C	1.061541	-0.562681	0.000029
C38	C	1.068366	-0.205726	0.000011
C39	C	1.229783	0.109870	0.000021
C40	C	1.329865	0.111635	0.000016
C41	C	1.058343	0.268875	0.000027
C42	C	1.060104	0.361829	0.000031
N43	N	1.064933	0.115792	0.237461
N44	N	1.064984	0.115794	-0.237419
C45	C	1.003663	0.172630	0.710085
C46	C	1.126295	0.058959	0.710050
C47	C	1.126284	0.058957	0.605032
C48	C	1.064964	0.115793	0.552535
C49	C	1.003653	0.172631	0.605057
C50	C	1.187600	0.002125	0.552502
C51	C	1.187593	0.002121	0.447477
C52	C	1.126267	0.058953	0.394979
C53	C	1.064953	0.115793	0.447507
C54	C	1.003633	0.172629	0.395010
C55	C	0.942314	0.229466	0.447537
C56	C	0.942327	0.229464	0.552558
C57	C	1.126254	0.058956	0.289957
C58	C	1.003622	0.172630	0.289982
H59	H	0.338620	0.111804	-0.165003
Br60	Br	1.075039	-0.472437	-0.213060
H61	H	1.237530	-0.044145	0.595248
Br62	Br	1.070347	-0.474104	0.213507
H63	H	0.942817	-0.298304	-0.095465
H64	H	0.791294	0.119784	0.165017
H65	H	1.176225	0.012689	0.752796
Br66	Br	0.454102	0.113811	0.305367
H67	H	0.650236	0.117275	0.255970
H68	H	0.953736	0.218904	0.752854
H69	H	1.237521	-0.044159	0.404717
Br70	Br	1.075657	-0.299665	0.214111
Br71	Br	0.920390	0.249762	0.218745
H72	H	0.338587	0.111782	0.165026
Br73	Br	1.227384	-0.491847	-0.113191
Br74	Br	1.209473	-0.018166	0.218678
H75	H	0.944551	-0.298079	0.099243
H76	H	0.479668	0.114304	-0.255948
H77	H	0.892390	0.275746	0.404782
H78	H	1.204742	-0.329253	-0.068176
H79	H	1.204168	-0.328066	0.068049
H80	H	0.940981	-0.441089	0.098378
Br81	Br	0.675815	0.117780	-0.305322
Br82	Br	0.816853	0.120280	-0.214373
H83	H	1.201581	-0.472272	0.068957
H84	H	1.047956	-0.309454	-0.166653
Br85	Br	0.894061	-0.452740	-0.105927
Br86	Br	0.859117	0.306595	0.623845
