data_functionalizedCrystal
_audit_creation_method	'MofGen! by Chris Wilmer'
_symmetry_space_group_name_H-M	'P1'
_symmetry_Int_Tables_number	1
_symmetry_cell_setting	triclinic
loop_
_symmetry_equiv_pos_as_xyz
  x,y,z
_cell_length_a	12.759400
_cell_length_b	21.295420
_cell_length_c	12.759393
_cell_angle_alpha	90.022906
_cell_angle_beta	89.968436
_cell_angle_gamma	89.991274
loop_
_atom_site_label
_atom_site_type_symbol
_atom_site_fract_x
_atom_site_fract_y
_atom_site_fract_z
Zn1	Zn	-0.418371	-0.962407	-0.594105
Zn2	Zn	-0.594090	-0.962344	-0.418425
Zn3	Zn	-0.418408	-0.857135	-0.418431
Zn4	Zn	-0.593991	-0.857129	-0.594053
O5	O	-0.506215	-0.909754	-0.506253
O6	O	-0.441707	-1.050488	-0.570820
O7	O	-0.570842	-0.948364	-0.271405
O8	O	-0.271382	-0.871129	-0.441758
O9	O	-0.570807	-1.050441	-0.441749
O10	O	-0.271355	-0.948472	-0.570825
O11	O	-0.441769	-0.871068	-0.271409
O12	O	-0.441672	-0.769045	-0.441708
O13	O	-0.570637	-0.871118	-0.741081
O14	O	-0.570673	-0.769040	-0.570737
O15	O	-0.441611	-0.948465	-0.741119
O16	O	-0.741098	-0.948357	-0.441698
O17	O	-0.741025	-0.871056	-0.570731
C18	C	-0.506166	-0.746202	-0.506218
C19	C	-0.506171	-0.676234	-0.506228
C20	C	-0.439114	-0.176799	-0.573561
C21	C	-0.439109	-0.242542	-0.573563
C22	C	-0.506215	-0.275394	-0.506256
C23	C	-0.573349	-0.242499	-0.438962
C24	C	-0.573359	-0.176758	-0.438969
N25	N	-0.514152	-0.378588	-0.414266
N26	N	-0.514136	-0.441040	-0.414262
C27	C	-0.506190	-0.473469	-0.506232
N28	N	-0.498240	-0.441088	-0.598208
N29	N	-0.498250	-0.378631	-0.598211
C30	C	-0.506212	-0.346680	-0.506241
C31	C	-0.439061	-0.577642	-0.573530
C32	C	-0.439064	-0.643386	-0.573534
C33	C	-0.573297	-0.643342	-0.438923
C34	C	-0.573300	-0.577599	-0.438929
C35	C	-0.506176	-0.544753	-0.506231
C36	C	-0.779182	-0.909716	-0.506231
C37	C	-0.895959	-0.909758	-0.506257
C38	C	-0.950824	-0.950053	-0.439144
C39	C	-1.060548	-0.950092	-0.439176
C40	C	-1.060532	-0.869534	-0.573438
C41	C	-0.950810	-0.869499	-0.573410
C42	C	-0.895973	-0.990312	-0.371991
C43	C	-0.950838	-1.030610	-0.304871
C44	C	-1.060562	-1.030648	-0.304904
C45	C	-1.115421	-0.990389	-0.372056
C46	C	-0.232182	-0.909808	-0.506298
C47	C	-0.115405	-0.909832	-0.506318
C48	C	-0.506109	-0.909798	-0.780287
C49	C	-0.506064	-0.909816	-0.897064
C50	C	-0.506252	-0.073944	-0.506281
C51	C	-0.506235	-0.143912	-0.506271
C52	C	-0.438873	-0.950097	-0.951947
C53	C	-0.438835	-0.950112	-1.061671
C54	C	-0.573187	-0.869564	-1.061619
C55	C	-0.573219	-0.869547	-0.951896
C56	C	-0.371718	-0.990367	-0.897114
C57	C	-0.304522	-1.030651	-0.951998
C58	C	-0.304484	-1.030666	-1.061722
C59	C	-0.371642	-0.990397	-1.116563
C60	C	-0.506245	-0.909746	-0.233286
C61	C	-0.505994	-0.909849	-0.116510
H62	H	-0.384447	-0.269324	-0.628357
C63	C	-0.646309	-0.825806	-0.892490
C64	C	-0.705152	-0.790565	-0.963992
C65	C	-0.772511	-0.750274	-0.909304
H66	H	-0.606260	-0.798320	-0.849675
H67	H	-0.692154	-0.849870	-0.849715
H68	H	-0.659313	-0.766503	-1.006748
H69	H	-0.745222	-0.818034	-1.006808
H70	H	-0.818355	-0.774338	-0.866529
H71	H	-0.732453	-0.722793	-0.866492
H72	H	-0.812450	-0.726362	-0.957810
H73	H	-0.627953	-0.550822	-0.384129
H74	H	-0.371743	-0.990360	-0.807771
H75	H	-0.384461	-0.150061	-0.628368
H76	H	-0.627944	-0.670089	-0.384129
C77	C	-0.646236	-0.825956	-1.121211
C78	C	-0.713586	-0.861599	-1.184168
C79	C	-0.780906	-0.821451	-1.239067
H80	H	-0.606151	-0.798531	-1.164107
H81	H	-0.686321	-0.801975	-1.072841
H82	H	-0.673506	-0.885570	-1.232533
H83	H	-0.753694	-0.889023	-1.141299
H84	H	-0.820990	-0.797470	-1.190697
H85	H	-0.740812	-0.794028	-1.281957
H86	H	-0.826617	-0.845629	-1.281782
C87	C	-1.119955	-0.825721	-0.646275
C88	C	-1.093334	-0.763438	-0.623313
C89	C	-1.148041	-0.723058	-0.690397
H90	H	-1.193176	-0.831426	-0.636745
H91	H	-1.101885	-0.834868	-0.716894
H92	H	-1.111412	-0.754294	-0.552712
H93	H	-1.020123	-0.757712	-0.632849
H94	H	-1.129971	-0.732205	-0.761015
H95	H	-1.221259	-0.728769	-0.680862
H96	H	-1.129980	-0.680795	-0.674833
H97	H	-0.628019	-0.149981	-0.384172
C98	C	-0.231669	-1.074469	-0.892595
C99	C	-0.254538	-1.136750	-0.919316
C100	C	-0.187435	-1.177131	-0.864627
H101	H	-0.241248	-1.068777	-0.819372
H102	H	-0.161052	-1.065310	-0.910612
H103	H	-0.325138	-1.145905	-0.901292
H104	H	-0.244953	-1.142461	-0.992530
H105	H	-0.116818	-1.167973	-0.882644
H106	H	-0.197019	-1.171434	-0.791407
H107	H	-0.202936	-1.219393	-0.882757
C108	C	-0.646091	-0.278278	-0.365924
C109	C	-0.631696	-0.342891	-0.380297
C110	C	-0.698684	-0.375869	-0.313025
H111	H	-0.716744	-0.267583	-0.381117
H112	H	-0.630629	-0.267519	-0.295337
H113	H	-0.647165	-0.353645	-0.450868
H114	H	-0.561057	-0.353604	-0.365096
H115	H	-0.683222	-0.365110	-0.242438
H116	H	-0.769332	-0.365169	-0.328224
H117	H	-0.688919	-0.419712	-0.322761
H118	H	-0.249763	-1.063463	-1.106406
H119	H	-0.806630	-0.990283	-0.371954
H120	H	-0.371593	-0.990405	-1.205908
H121	H	-0.906138	-0.836688	-0.628061
H122	H	-0.384409	-0.670162	-0.628337
C123	C	-0.366331	-0.542008	-0.646784
C124	C	-0.389348	-0.558012	-0.750694
C125	C	-0.322382	-0.525193	-0.818206
H126	H	-0.295682	-0.552753	-0.631671
H127	H	-0.375956	-0.498138	-0.637217
H128	H	-0.379714	-0.601871	-0.760257
H129	H	-0.459984	-0.547264	-0.765840
H130	H	-0.332008	-0.481323	-0.808639
H131	H	-0.251738	-0.535941	-0.803083
H132	H	-0.337996	-0.536043	-0.888717
C133	C	-0.891227	-1.074214	-0.231839
C134	C	-0.828358	-1.038569	-0.164409
C135	C	-0.773442	-1.078716	-0.097108
H136	H	-0.848270	-1.101627	-0.271935
H137	H	-0.939586	-1.098209	-0.191813
H138	H	-0.780004	-1.014585	-0.204430
H139	H	-0.871288	-1.011158	-0.124290
H140	H	-0.821801	-1.102711	-0.057082
H141	H	-0.730491	-1.106127	-0.137212
H142	H	-0.730786	-1.054537	-0.051342
C143	C	-1.119960	-1.074522	-0.232101
C144	C	-1.093109	-1.136776	-0.255079
C145	C	-1.147775	-1.177217	-0.188021
H146	H	-1.193186	-1.068886	-0.241645
H147	H	-1.102012	-1.065366	-0.161476
H148	H	-1.111064	-1.145929	-0.325687
H149	H	-1.019892	-1.142432	-0.245529
H150	H	-1.129827	-1.168062	-0.117395
H151	H	-1.220998	-1.171576	-0.197570
H152	H	-1.129557	-1.219461	-0.203595
C153	C	-1.234552	-0.990504	-0.371905
C154	C	-1.270863	-1.034402	-0.298744
C155	C	-1.380597	-1.034518	-0.298563
H156	H	-1.259432	-1.001399	-0.439666
H157	H	-1.259478	-0.949907	-0.353629
H158	H	-1.245948	-1.074990	-0.317026
H159	H	-1.246012	-1.023517	-0.230972
H160	H	-1.405523	-0.993921	-0.280287
H161	H	-1.405467	-1.045412	-0.366328
H162	H	-1.405248	-1.064298	-0.248918
