data_functionalizedCrystal
_audit_creation_method	'MofGen! by Chris Wilmer'
_symmetry_space_group_name_H-M	'P1'
_symmetry_Int_Tables_number	1
_symmetry_cell_setting	triclinic
loop_
_symmetry_equiv_pos_as_xyz
  x,y,z
_cell_length_a	6.817900
_cell_length_b	16.418049
_cell_length_c	14.125465
_cell_angle_alpha	95.891231
_cell_angle_beta	100.398878
_cell_angle_gamma	103.389670
loop_
_atom_site_label
_atom_site_type_symbol
_atom_site_fract_x
_atom_site_fract_y
_atom_site_fract_z
V1	V	-3.990825	-0.115166	-0.300313
O2	O	-3.979535	0.006275	-0.294248
O3	O	-3.942095	-0.229066	-0.298594
O4	O	-3.926976	-0.113069	-0.431137
O5	O	-3.994759	-0.110525	-0.160788
V6	V	-4.476498	-0.100678	-0.283584
O7	O	-4.247369	-0.146945	-0.337010
O8	O	-4.670152	-0.068899	-0.246887
O9	O	-4.302021	0.013222	-0.285303
O10	O	-4.605185	-0.222119	-0.289649
O11	O	-4.589961	-0.105319	-0.423109
O12	O	-4.317140	-0.102775	-0.152760
C13	C	-3.787516	-0.256843	-0.293943
C14	C	-3.828857	-0.349956	-0.293410
C15	C	-4.105464	-0.568437	-0.297014
C16	C	-4.144296	-0.655927	-0.296522
C17	C	-3.781216	-0.647406	-0.286889
C18	C	-3.742389	-0.559918	-0.287388
C19	C	-3.904519	-0.520435	-0.292446
C20	C	-3.982178	-0.695414	-0.291454
C21	C	-4.024280	-0.790275	-0.290920
C22	C	-3.862415	-0.425569	-0.292982
C23	C	-3.768229	-0.108876	-0.463013
C24	C	-3.797307	-0.107916	-0.569965
C25	C	-3.850605	-0.106155	-0.765783
C26	C	-4.036087	-0.109688	-0.818114
C27	C	-4.065745	-0.108708	-0.927074
C28	C	-3.820939	-0.107135	-0.656813
C29	C	-4.119943	0.040994	-0.289951
C30	C	-4.057839	0.134107	-0.290490
C31	C	-4.139230	-0.106971	-0.120879
C32	C	-4.089391	-0.107927	-0.013926
H33	H	-3.649221	-0.679564	-0.282769
O34	O	-3.547040	-0.513403	-0.282901
C35	C	-3.412271	-0.567012	-0.278346
H36	H	-3.482814	-0.626546	-0.248787
H37	H	-3.386793	-0.585347	-0.354387
C38	C	-3.117540	-0.447265	-0.246886
C39	C	-3.204175	-0.520382	-0.210573
H40	H	-2.989172	-0.418501	-0.205084
H41	H	-3.208335	-0.411147	-0.249958
H42	H	-3.096326	-0.462554	-0.310253
H43	H	-3.225411	-0.505092	-0.147213
H44	H	-3.113377	-0.556497	-0.207488
O45	O	-3.687604	-0.101523	-0.809880
C46	C	-3.534060	-0.026374	-0.769138
H47	H	-3.607225	0.021860	-0.735023
H48	H	-3.413059	-0.040767	-0.710832
C49	C	-3.341092	-0.049239	-0.891380
C50	C	-3.430959	0.010005	-0.849486
H51	H	-3.277486	-0.026801	-0.940940
H52	H	-3.444533	-0.099871	-0.918827
H53	H	-3.240271	-0.061228	-0.842783
H54	H	-3.531795	0.021985	-0.898081
H55	H	-3.327532	0.060639	-0.822049
O56	O	-4.262829	-0.530007	-0.302062
C57	C	-4.279563	-0.490834	-0.386395
H58	H	-4.125560	-0.477745	-0.410206
H59	H	-4.403918	-0.534472	-0.447223
C60	C	-4.527039	-0.422854	-0.334941
C61	C	-4.337885	-0.406772	-0.364180
H62	H	-4.563024	-0.371002	-0.321240
H63	H	-4.515772	-0.449248	-0.278125
H64	H	-4.630646	-0.459221	-0.385635
H65	H	-4.234278	-0.370415	-0.313482
H66	H	-4.349136	-0.380370	-0.420987
O67	O	-4.339364	-0.702623	-0.300814
C68	C	-4.344390	-0.742303	-0.217055
H69	H	-4.183158	-0.747997	-0.184889
H70	H	-4.399170	-0.702866	-0.160977
C71	C	-4.691706	-0.824236	-0.284272
C72	C	-4.493681	-0.831236	-0.244769
H73	H	-4.783802	-0.879093	-0.301365
H74	H	-4.688325	-0.797501	-0.340700
H75	H	-4.737328	-0.791369	-0.237533
H76	H	-4.448053	-0.864094	-0.291511
H77	H	-4.497059	-0.857979	-0.188349
H78	H	-4.172615	-0.113457	-0.781087
