data_functionalizedCrystal
_audit_creation_method	'MofGen! by Chris Wilmer'
_symmetry_space_group_name_H-M	'P1'
_symmetry_Int_Tables_number	1
_symmetry_cell_setting	triclinic
loop_
_symmetry_equiv_pos_as_xyz
  x,y,z
_cell_length_a	12.811457
_cell_length_b	12.837942
_cell_length_c	9.198806
_cell_angle_alpha	89.997396
_cell_angle_beta	95.428003
_cell_angle_gamma	89.411937
loop_
_atom_site_label
_atom_site_type_symbol
_atom_site_fract_x
_atom_site_fract_y
_atom_site_fract_z
O1	O	1.406628	0.139675	0.064559
O2	O	1.906628	0.639675	0.564559
O3	O	1.102567	0.154865	0.024468
O4	O	1.602567	0.654865	0.524468
O5	O	1.247855	-0.003662	0.043633
O6	O	1.747855	0.496338	0.543633
O7	O	1.261340	0.298202	0.045394
O8	O	1.761340	0.798202	0.545394
O9	O	1.247842	-0.003662	0.285417
O10	O	1.747842	0.496338	0.785417
O11	O	1.102554	0.154865	0.266252
O12	O	1.602554	0.654865	0.766252
O13	O	1.406615	0.139674	0.306342
O14	O	1.906615	0.639674	0.806342
Cu15	Cu	1.254583	0.147269	0.308374
Cu16	Cu	1.754583	0.647269	0.808374
Cu17	Cu	1.254599	0.147270	0.022437
Cu18	Cu	1.754599	0.647270	0.522437
O19	O	1.261327	0.298201	0.287177
O20	O	1.761327	0.798201	0.787177
C21	C	1.063371	0.154014	0.140193
C22	C	1.563371	0.654014	0.640193
C23	C	0.946600	0.151466	0.124797
C24	C	1.446600	0.651466	0.624797
C25	C	0.727159	0.146658	0.359488
C26	C	1.227159	0.646658	0.859488
C27	C	0.617442	0.144263	0.345029
C28	C	1.117442	0.644263	0.845029
C29	C	0.617447	0.144275	0.081422
C30	C	1.117447	0.644275	0.581422
C31	C	0.727164	0.146670	0.095881
C32	C	1.227164	0.646670	0.595881
C33	C	0.782016	0.147862	0.234918
C34	C	1.282016	0.647862	0.734918
C35	C	0.891735	0.150264	0.249375
C36	C	1.391735	0.650264	0.749375
C37	C	0.891738	0.150269	-0.014230
C38	C	1.391738	0.650269	0.485770
C39	C	0.782021	0.147874	-0.028689
C40	C	1.282021	0.647874	0.471311
C41	C	1.243294	-0.042302	0.163924
C42	C	1.743294	0.457698	0.663924
C43	C	1.229708	-0.157438	0.162130
C44	C	1.729708	0.342562	0.662130
C45	C	1.393035	-0.397693	0.183634
C46	C	1.893035	0.102307	0.683634
C47	C	1.380275	-0.505874	0.181950
C48	C	1.880275	-0.005874	0.681950
C49	C	1.191428	-0.481982	0.157065
C50	C	1.691428	0.018018	0.657065
C51	C	1.204188	-0.373802	0.158750
C52	C	1.704188	0.126198	0.658750
C53	C	1.304995	-0.331661	0.172037
C54	C	1.804995	0.168339	0.672037
C55	C	1.317754	-0.223478	0.173732
C56	C	1.817754	0.276522	0.673732
C57	C	1.128908	-0.199589	0.148838
C58	C	1.628908	0.300411	0.648838
C59	C	1.116147	-0.307770	0.147153
C60	C	1.616147	0.192230	0.647153
C61	C	1.445811	0.140525	0.190614
C62	C	1.945811	0.640525	0.690614
C63	C	1.562582	0.143073	0.206001
C64	C	2.062582	0.643073	0.706001
C65	C	1.265889	0.336842	0.166883
C66	C	1.765889	0.836842	0.666883
C67	C	1.279474	0.451977	0.168668
C68	C	1.779474	0.951977	0.668668
N69	N	1.254580	0.147269	0.509487
N70	N	1.754580	0.647269	1.009487
N71	N	1.254609	0.147263	-0.178676
N72	N	1.754609	0.647263	0.321324
C73	C	1.315556	0.080415	0.589728
C74	C	1.815556	0.580415	1.089728
C75	C	1.315572	0.080412	0.757142
C76	C	1.815572	0.580412	1.257142
H77	H	0.771820	0.147643	0.472697
H78	H	1.271820	0.647643	0.972697
C79	C	1.184065	0.224587	0.584113
C80	C	1.684065	0.724587	1.084113
N81	N	1.130950	0.282825	0.640318
N82	N	1.630950	0.782825	1.140318
H83	H	1.202407	0.204505	0.752361
H84	H	1.702407	0.704505	1.252361
H85	H	1.451967	-0.559634	0.191389
H86	H	1.951967	-0.059634	0.691389
H87	H	0.737346	0.146898	-0.141889
H88	H	1.237346	0.646898	0.358111
H89	H	0.572781	0.143288	0.446466
H90	H	1.072781	0.643288	0.946466
H91	H	0.936394	0.151242	0.362587
H92	H	1.436394	0.651242	0.862587
C93	C	0.557091	0.142949	-0.071507
C94	C	1.057091	0.642949	0.428493
N95	N	0.511630	0.141948	-0.186694
N96	N	1.011630	0.641948	0.313306
H97	H	0.936414	0.151256	-0.115664
H98	H	1.436414	0.651256	0.384336
H99	H	1.399837	-0.189170	0.184557
H100	H	1.899837	0.310830	0.684557
C101	C	1.386099	0.003085	0.850319
C102	C	1.886099	0.503085	1.350319
N103	N	1.439221	-0.055160	0.920503
N104	N	1.939221	0.444840	1.420503
C105	C	1.503922	-0.351336	0.198258
C106	C	2.003922	0.148664	0.698258
N107	N	1.587445	-0.316421	0.209272
N108	N	2.087445	0.183579	0.709272
H109	H	1.109355	-0.516313	0.146232
H110	H	1.609355	-0.016313	0.646232
C111	C	1.032057	-0.126945	0.136081
C112	C	1.532057	0.373055	0.636081
N113	N	0.959111	-0.072228	0.126477
N114	N	1.459111	0.427772	0.626477
C115	C	1.005265	-0.354138	0.132554
C116	C	1.505265	0.145862	0.632554
N117	N	0.921746	-0.389060	0.121570
N118	N	1.421746	0.110940	0.621570
C119	C	1.386048	0.003076	0.515099
C120	C	1.886048	0.503076	1.015099
N121	N	1.439139	-0.055184	0.458890
N122	N	1.939139	0.444816	0.958890
