data_functionalizedCrystal
_audit_creation_method	'MofGen! by Chris Wilmer'
_symmetry_space_group_name_H-M	'P1'
_symmetry_Int_Tables_number	1
_symmetry_cell_setting	triclinic
loop_
_symmetry_equiv_pos_as_xyz
  x,y,z
_cell_length_a	10.654553
_cell_length_b	14.044190
_cell_length_c	9.130313
_cell_angle_alpha	89.993628
_cell_angle_beta	89.999282
_cell_angle_gamma	88.838977
loop_
_atom_site_label
_atom_site_type_symbol
_atom_site_fract_x
_atom_site_fract_y
_atom_site_fract_z
O1	O	1.681226	0.133242	-0.121834
O2	O	1.317023	0.145932	-0.121835
O3	O	1.493653	0.001566	-0.121806
O4	O	1.504596	0.277608	-0.121864
O5	O	1.493651	0.001570	0.121793
O6	O	1.317021	0.145936	0.121763
O7	O	1.681224	0.133246	0.121764
Cu8	Cu	1.499122	0.139591	0.144006
Cu9	Cu	1.499125	0.139587	-0.144077
O10	O	1.504594	0.277612	0.121735
C11	C	1.270131	0.145002	-0.000036
C12	C	1.130407	0.142212	-0.000035
C13	C	0.933470	0.138276	0.132741
C14	C	1.064755	0.140903	0.132749
C15	C	1.064768	0.140904	-0.132836
C16	C	0.933485	0.138284	-0.132842
C17	C	0.933464	0.138272	0.286075
C18	C	1.064749	0.140898	0.286083
C19	C	1.488865	-0.033778	-0.000002
C20	C	1.474586	-0.139098	0.000010
C21	C	1.549751	-0.388890	-0.000047
C22	C	1.448501	-0.331927	-0.000037
C23	C	1.463018	-0.224627	-0.000011
C24	C	1.535236	-0.496200	-0.000073
C25	C	1.728116	0.134176	-0.000038
C26	C	1.867840	0.136966	-0.000049
C27	C	1.509382	0.312956	-0.000072
C28	C	1.523661	0.418276	-0.000094
N29	N	1.499130	0.139594	0.346629
N30	N	1.499126	0.139576	-0.346700
C31	C	1.577366	0.075691	0.423294
C32	C	1.577361	0.075679	0.576631
C33	C	1.420882	0.203483	0.576624
C34	C	1.420881	0.203489	0.423290
C35	C	1.667712	0.001907	0.423299
C36	C	1.667707	0.001895	0.576636
H37	H	0.896936	0.069090	0.333661
N38	N	1.672165	-0.348981	0.000015
N39	N	1.746494	-0.367021	0.102714
H40	H	1.832949	-0.338825	0.102767
H41	H	0.880053	0.137229	-0.240973
N42	N	1.114536	0.058666	0.359968
N43	N	1.041952	-0.001428	0.412006
H44	H	1.077111	-0.059501	0.464189
N45	N	1.326068	-0.371818	-0.000023
N46	N	1.230866	-0.318323	0.000000
H47	H	1.144400	-0.346498	0.000016
N48	N	1.131844	0.142254	-0.268460
N49	N	1.249059	0.144599	-0.268439
H50	H	1.296432	0.145551	-0.364227
N51	N	0.883676	0.220506	0.359921
N52	N	0.956258	0.280597	0.411945
H53	H	0.921097	0.338674	0.464099
N54	N	1.110548	0.227688	0.345779
N55	N	1.084500	0.250540	0.474719
H56	H	1.116844	0.311836	0.516874
H57	H	1.357163	0.255516	0.360871
N58	N	1.340959	0.268737	0.654957
N59	N	1.340961	0.268718	0.791861
H60	H	1.284514	0.314805	0.847184
H61	H	1.638940	-0.071003	0.381694
N62	N	1.785023	0.030873	0.363636
N63	N	1.846774	-0.024505	0.282758
H64	H	1.929628	-0.004044	0.240626
H65	H	1.630268	-0.067004	0.624197
N66	N	1.790833	0.022277	0.628829
N67	N	1.877580	0.036654	0.539856
H68	H	1.964535	0.051049	0.576715
