data_functionalizedCrystal
_audit_creation_method	'MofGen! by Chris Wilmer'
_symmetry_space_group_name_H-M	'P1'
_symmetry_Int_Tables_number	1
_symmetry_cell_setting	triclinic
loop_
_symmetry_equiv_pos_as_xyz
  x,y,z
_cell_length_a	19.121063
_cell_length_b	12.759401
_cell_length_c	12.759393
_cell_angle_alpha	90.018442
_cell_angle_beta	92.402665
_cell_angle_gamma	87.532947
loop_
_atom_site_label
_atom_site_type_symbol
_atom_site_fract_x
_atom_site_fract_y
_atom_site_fract_z
Zn1	Zn	-0.279604	-1.588307	-0.611803
Zn2	Zn	-0.397073	-1.580669	-0.443598
Zn3	Zn	-0.279637	-1.412610	-0.436141
Zn4	Zn	-0.397014	-1.405066	-0.619233
O5	O	-0.338332	-1.496663	-0.527694
O6	O	-0.295197	-1.734314	-0.589502
O7	O	-0.381533	-1.558337	-0.295590
O8	O	-0.181349	-1.442271	-0.453213
O9	O	-0.381501	-1.728703	-0.465922
O10	O	-0.181324	-1.571354	-0.582271
O11	O	-0.295254	-1.434865	-0.290112
O12	O	-0.295197	-1.264589	-0.460417
O13	O	-0.381401	-1.429412	-0.765266
O14	O	-0.381433	-1.259046	-0.594934
O15	O	-0.295140	-1.564039	-0.759807
O16	O	-0.495349	-1.551021	-0.473126
O17	O	-0.495306	-1.422006	-0.602164
C18	C	-0.338313	-1.223697	-0.527673
C19	C	-0.338321	-1.106920	-0.527690
C20	C	-0.520812	-1.484894	-0.539284
C21	C	-0.598877	-1.479956	-0.544277
C22	C	-0.383295	-1.049194	-0.597625
C23	C	-0.383302	-0.939470	-0.597635
C24	C	-0.293358	-0.945206	-0.457766
C25	C	-0.293349	-1.054929	-0.457762
C26	C	-0.435226	-1.045882	-0.678375
C27	C	-0.435232	-0.936157	-0.678385
C28	C	-0.635552	-1.544859	-0.479495
C29	C	-0.708902	-1.540221	-0.484198
C30	C	-0.745577	-1.470673	-0.553677
C31	C	-0.708898	-1.405767	-0.618466
C32	C	-0.635548	-1.410412	-0.613768
C33	C	-0.967046	-1.453292	-0.571224
C34	C	-1.040400	-1.448650	-0.575915
C35	C	-1.040400	-1.583105	-0.441648
C36	C	-0.967049	-1.587739	-0.436952
C37	C	-0.930376	-1.522837	-0.501744
C38	C	-0.820554	-1.465928	-0.558483
C39	C	-0.855401	-1.527589	-0.496943
C40	C	-0.155140	-1.508506	-0.516082
C41	C	-0.077075	-1.513553	-0.511133
C42	C	-0.338261	-1.496736	-0.801723
C43	C	-0.338230	-1.496767	-0.918497
C44	C	-0.338346	-0.770695	-0.527710
C45	C	-0.338337	-0.887473	-0.527704
C46	C	-0.293296	-1.432504	-0.970512
C47	C	-0.293275	-1.432537	-1.080235
C48	C	-0.383124	-1.561105	-1.085919
C49	C	-0.383148	-1.561066	-0.976198
C50	C	-0.241420	-1.358280	-0.967232
C51	C	-0.241399	-1.358313	-1.076955
C52	C	-0.338353	-1.496654	-0.254728
C53	C	-0.338185	-1.496839	-0.137941
H54	H	-0.256722	-1.101925	-0.400821
H55	H	-0.186996	-1.383620	-1.103291
O56	O	-0.431572	-1.630457	-1.148147
H57	H	-0.400135	-1.685969	-1.196142
O58	O	-0.260707	-1.249238	-0.928997
H59	H	-0.270140	-1.195886	-0.997295
O60	O	-0.815844	-1.602612	-0.422022
H61	H	-0.782478	-1.557735	-0.366391
H62	H	-0.189760	-1.390758	-0.929929
H63	H	-0.415815	-0.903404	-0.754500
H64	H	-0.256742	-0.902861	-0.400833
H65	H	-0.489614	-0.902874	-0.659912
H66	H	-0.260868	-1.279767	-1.112218
O67	O	-0.416003	-1.086613	-0.784974
H68	H	-0.406592	-1.019537	-0.837165
O69	O	-0.595995	-1.619876	-0.404561
H70	H	-0.633824	-1.664236	-0.360314
H71	H	-0.486870	-1.076584	-0.652377
H72	H	-1.070267	-1.635946	-0.388899
O73	O	-0.748461	-1.610217	-0.414321
H74	H	-0.710636	-1.659346	-0.365207
H75	H	-0.937189	-1.644371	-0.380376
O76	O	-0.595993	-1.340406	-0.683642
H77	H	-0.538827	-1.355327	-0.668712
O78	O	-0.431622	-1.630368	-0.920100
H79	H	-0.424100	-1.619533	-0.834111
H80	H	-0.738765	-1.349144	-0.675042
H81	H	-1.070259	-1.392028	-0.632512
H82	H	-0.937192	-1.400444	-0.623979
H83	H	-0.850423	-1.409300	-0.615051
