data_functionalizedCrystal
_audit_creation_method	'MofGen! by Chris Wilmer'
_symmetry_space_group_name_H-M	'P1'
_symmetry_Int_Tables_number	1
_symmetry_cell_setting	triclinic
loop_
_symmetry_equiv_pos_as_xyz
  x,y,z
_cell_length_a	6.817900
_cell_length_b	14.125465
_cell_length_c	11.353959
_cell_angle_alpha	106.193871
_cell_angle_beta	107.526623
_cell_angle_gamma	100.398878
loop_
_atom_site_label
_atom_site_type_symbol
_atom_site_fract_x
_atom_site_fract_y
_atom_site_fract_z
V1	V	-4.027839	-0.330075	-0.179668
O2	O	-3.977518	-0.292626	0.009789
O3	O	-4.015716	-0.357791	-0.357363
O4	O	-3.963316	-0.460357	-0.176398
O5	O	-4.030281	-0.189350	-0.172429
V6	V	-4.508855	-0.309602	-0.157067
O7	O	-4.294595	-0.374984	-0.229247
O8	O	-4.692296	-0.264693	-0.107489
O9	O	-4.297772	-0.281886	0.020628
O10	O	-4.676572	-0.347050	-0.346524
O11	O	-4.623810	-0.450326	-0.164306
O12	O	-4.350171	-0.179319	-0.160338
C13	C	-3.870063	-0.360318	-0.400697
C14	C	-3.941330	-0.383847	-0.545962
C15	C	-3.941208	-0.307688	-0.593306
C16	C	-4.014866	-0.332005	-0.743444
C17	C	-3.803221	-0.491150	-0.169856
C18	C	-3.831990	-0.597853	-0.168358
C19	C	-3.884722	-0.793216	-0.165611
C20	C	-4.071340	-0.846460	-0.171122
C21	C	-4.100683	-0.955167	-0.169593
C22	C	-3.855372	-0.684499	-0.167139
C23	C	-4.106768	-0.279357	0.063955
C24	C	-4.014738	-0.255834	0.209218
C25	C	-4.173610	-0.148522	-0.166883
C26	C	-4.124078	-0.041817	-0.168375
H27	H	-3.886584	-0.224482	-0.522687
C28	C	-3.698607	-0.841894	-0.157576
N29	N	-3.558413	-0.878560	-0.151487
H30	H	-3.960111	-0.172623	-0.720169
C31	C	-4.015131	-0.496257	-0.641359
N32	N	-4.070711	-0.580926	-0.713211
C33	C	-4.088666	-0.444420	-0.838837
N34	N	-4.144246	-0.529089	-0.910689
H35	H	-4.209079	-0.810407	-0.177002
