data_functionalizedCrystal
_audit_creation_method	'MofGen! by Chris Wilmer'
_symmetry_space_group_name_H-M	'P1'
_symmetry_Int_Tables_number	1
_symmetry_cell_setting	triclinic
loop_
_symmetry_equiv_pos_as_xyz
  x,y,z
_cell_length_a	14.044220
_cell_length_b	16.109301
_cell_length_c	15.186229
_cell_angle_alpha	90.000638
_cell_angle_beta	89.995248
_cell_angle_gamma	91.674821
loop_
_atom_site_label
_atom_site_type_symbol
_atom_site_fract_x
_atom_site_fract_y
_atom_site_fract_z
O1	O	0.121835	-1.112195	-0.073175
O2	O	0.136997	-0.871261	-0.073189
O3	O	-0.008568	-0.988112	-0.073174
O4	O	0.267399	-0.995345	-0.073191
O5	O	-0.008570	-0.988103	0.073284
O6	O	0.136995	-0.871253	0.073268
O7	O	0.121832	-1.112187	0.073282
Zn8	Zn	0.129413	-0.991718	0.096528
Zn9	Zn	0.129416	-0.991730	-0.096435
O10	O	0.267397	-0.995336	0.073267
C11	C	0.136381	-0.840236	0.000038
C12	C	0.134540	-0.747804	0.000033
C13	C	-0.043882	-0.984941	0.000055
C14	C	-0.149105	-0.975498	0.000056
C15	C	0.122448	-1.143211	0.000053
C16	C	0.124289	-1.235644	0.000053
C17	C	-0.341761	-0.958232	0.000042
C18	C	-0.399415	-1.025212	0.000043
C19	C	-0.506616	-1.015605	0.000036
C20	C	-0.234551	-0.967838	0.000050
C21	C	0.302711	-0.998506	0.000036
C22	C	0.407934	-1.007950	0.000030
N23	N	0.129411	-0.991716	0.228221
C24	C	0.216634	-0.531640	0.000038
C25	C	0.214896	-0.444790	0.000043
C26	C	0.042189	-0.451815	0.000050
C27	C	0.043927	-0.538663	0.000051
C28	C	0.131153	-0.578573	0.000040
C29	C	0.127677	-0.404875	0.000045
C30	C	0.125792	-0.310709	0.000052
C31	C	0.133038	-0.672745	0.000036
N32	N	0.129411	-0.991737	-0.228128
C33	C	0.064976	-1.043479	0.453951
C34	C	0.064974	-1.043481	0.546141
C35	C	0.193848	-0.939969	0.546136
C36	C	0.193845	-0.939963	0.453948
C37	C	0.129410	-0.991723	0.407858
C38	C	0.129411	-0.991731	0.592235
C39	C	0.129409	-0.991734	0.692192
C40	C	0.129411	-0.991719	0.307895
H41	H	-0.372911	-0.893680	0.000036
N42	N	0.259656	-0.887094	0.406843
N43	N	0.229558	-0.833259	0.355408
H44	H	0.276031	-0.795920	0.322138
N45	N	-0.360329	-1.106195	0.000053
N46	N	-0.272037	-1.113987	0.000063
H47	H	-0.244427	-1.171179	0.000073
H48	H	0.287658	-0.564132	0.000035
H49	H	-0.028827	-0.419309	0.000065
N50	N	-0.043404	-0.586597	0.000062
N51	N	-0.121276	-0.550956	0.000068
H52	H	-0.182951	-0.584809	0.000080
H53	H	0.284504	-0.406580	0.000043
N54	N	-0.000858	-1.096331	0.593228
N55	N	-0.059707	-1.065580	0.644664
H56	H	-0.106212	-1.102902	0.677918
N57	N	-0.000903	-1.096298	0.406884
N58	N	-0.058467	-1.142467	0.448054
H59	H	-0.105020	-1.179751	0.414816
H60	H	0.246311	-0.897829	0.583672
