data_functionalizedCrystal
_audit_creation_method	'MofGen! by Chris Wilmer'
_symmetry_space_group_name_H-M	'P1'
_symmetry_Int_Tables_number	1
_symmetry_cell_setting	triclinic
loop_
_symmetry_equiv_pos_as_xyz
  x,y,z
_cell_length_a	17.077404
_cell_length_b	21.295417
_cell_length_c	17.077395
_cell_angle_alpha	89.968068
_cell_angle_beta	89.984359
_cell_angle_gamma	90.030732
loop_
_atom_site_label
_atom_site_type_symbol
_atom_site_fract_x
_atom_site_fract_y
_atom_site_fract_z
Zn1	Zn	1.199983	-0.250613	-0.443817
Zn2	Zn	1.699983	0.249387	0.056183
Zn3	Zn	1.199882	-0.355884	-0.312540
Zn4	Zn	1.699882	0.144116	0.187460
Zn5	Zn	1.068724	-0.250633	-0.312565
Zn6	Zn	1.568724	0.249367	0.187435
Zn7	Zn	1.068665	-0.355849	-0.443764
Zn8	Zn	1.568665	0.144151	0.056236
O9	O	1.134314	-0.303245	-0.378171
O10	O	1.634314	0.196755	0.121829
O11	O	1.309817	-0.264584	-0.426415
O12	O	1.809817	0.235416	0.073585
O13	O	1.182465	-0.341945	-0.202697
O14	O	1.682465	0.158055	0.297303
O15	O	1.086203	-0.162541	-0.330008
O16	O	1.586203	0.337459	0.169992
O17	O	1.309742	-0.341926	-0.329966
O18	O	1.809742	0.158074	0.170034
O19	O	1.182638	-0.162526	-0.426439
O20	O	1.682638	0.337474	0.073561
O21	O	1.086104	-0.264618	-0.202715
O22	O	1.586104	0.235382	0.297285
O23	O	0.958869	-0.264584	-0.329957
O24	O	1.458869	0.235416	0.170043
O25	O	1.086103	-0.341866	-0.553618
O26	O	1.586103	0.158134	-0.053618
O27	O	0.958826	-0.341885	-0.426348
O28	O	1.458826	0.158115	0.073652
O29	O	1.182582	-0.264550	-0.553657
O30	O	1.682582	0.235450	-0.053657
O31	O	1.182409	-0.443969	-0.329915
O32	O	1.682409	0.056031	0.170085
O33	O	1.086005	-0.443943	-0.426324
O34	O	1.586005	0.056057	0.073676
C35	C	0.930366	-0.303233	-0.378150
C36	C	1.430366	0.196767	0.121850
C37	C	0.843116	-0.303244	-0.378159
C38	C	1.343116	0.196756	0.121841
C39	C	0.802124	-0.343555	-0.428270
C40	C	1.302124	0.156445	0.071730
C41	C	0.720143	-0.343557	-0.428282
C42	C	1.220143	0.156443	0.071718
C43	C	0.679156	-0.303249	-0.378180
C44	C	1.179156	0.196751	0.121820
C45	C	0.720154	-0.262933	-0.328067
C46	C	1.220154	0.237067	0.171933
C47	C	0.802133	-0.262929	-0.328059
C48	C	1.302133	0.237071	0.171941
C49	C	0.549284	-0.262945	-0.328086
C50	C	1.049284	0.237055	0.171914
C51	C	0.467299	-0.262950	-0.328093
C52	C	0.967299	0.237050	0.171907
C53	C	0.467294	-0.343573	-0.428309
C54	C	0.967294	0.156427	0.071691
C55	C	0.549273	-0.343569	-0.428301
C56	C	1.049273	0.156431	0.071699
C57	C	0.590265	-0.303254	-0.378187
C58	C	1.090265	0.196746	0.121813
C59	C	1.134211	-0.466796	-0.378128
C60	C	1.634211	0.033204	0.121872
C61	C	1.134238	-0.536765	-0.378136
C62	C	1.634238	-0.036765	0.121864
C63	C	1.184481	-0.569624	-0.327987
C64	C	1.684481	-0.069624	0.172013
C65	C	1.184517	-0.635366	-0.328004
C66	C	1.684517	-0.135366	0.171996
C67	C	1.134298	-0.668247	-0.378163
C68	C	1.634298	-0.168247	0.121837
C69	C	1.084052	-0.635380	-0.428321
C70	C	1.584052	-0.135380	0.071679
C71	C	1.084023	-0.569639	-0.428308
C72	C	1.584023	-0.069639	0.071692
N73	N	1.065629	-0.771513	-0.384140
N74	N	1.565629	-0.271513	0.115860
N75	N	1.065659	-0.833964	-0.384148
N76	N	1.565659	-0.333964	0.115852
C77	C	1.134386	-0.866322	-0.378208
C78	C	1.634386	-0.366322	0.121792
N79	N	1.203082	-0.833868	-0.372244
N80	N	1.703082	-0.333868	0.127756
N81	N	1.203051	-0.771411	-0.372231
N82	N	1.703051	-0.271411	0.127769
C83	C	1.134325	-0.739532	-0.378183
C84	C	1.634325	-0.239532	0.121817
C85	C	1.184672	-0.970466	-0.328075
C86	C	1.684672	-0.470466	0.171925
C87	C	1.184710	-1.036210	-0.328098
C88	C	1.684710	-0.536210	0.171902
C89	C	1.084238	-1.036223	-0.428411
C90	C	1.584238	-0.536223	0.071589
C91	C	1.084207	-0.970480	-0.428392
C92	C	1.584207	-0.470480	0.071608
C93	C	1.134423	-0.937606	-0.378220
C94	C	1.634423	-0.437606	0.121780
C95	C	1.339058	-0.303257	-0.378194
C96	C	1.839058	0.196743	0.121806
C97	C	1.426308	-0.303262	-0.378203
C98	C	1.926308	0.196738	0.121797
C99	C	1.134347	-0.303202	-0.582916
C100	C	1.634347	0.196798	-0.082916
C101	C	1.134362	-0.303184	-0.670166
C102	C	1.634362	0.196816	-0.170166
C103	C	1.134438	-0.139055	-0.378232
C104	C	1.634438	0.360945	0.121768
C105	C	1.134491	-0.069086	-0.378258
C106	C	1.634491	0.430914	0.121742
C107	C	1.184685	-0.262840	-1.046002
C108	C	1.684685	0.237160	-0.546002
C109	C	1.184669	-0.262862	-0.964021
C110	C	1.684669	0.237138	-0.464021
C111	C	1.134426	-0.303124	-0.923015
C112	C	1.634426	0.196876	-0.423015
C113	C	1.084202	-0.343372	-0.963993
C114	C	1.584202	0.156628	-0.463993
C115	C	1.084222	-0.343352	-1.045972
C116	C	1.584222	0.156648	-0.545972
C117	C	1.084161	-0.343408	-0.793123
C118	C	1.584161	0.156592	-0.293123
C119	C	1.084139	-0.343427	-0.711138
C120	C	1.584139	0.156573	-0.211138
C121	C	1.184608	-0.262918	-0.711172
C122	C	1.684608	0.237082	-0.211172
C123	C	1.184628	-0.262898	-0.793151
C124	C	1.684628	0.237102	-0.293151
C125	C	1.134403	-0.303145	-0.834124
C126	C	1.634403	0.196855	-0.334124
C127	C	1.134325	-0.303242	-0.174224
C128	C	1.634325	0.196758	0.325776
C129	C	1.134463	-0.303083	-0.086974
C130	C	1.634463	0.196917	0.413026
H131	H	0.835508	-0.230100	-0.287258
H132	H	1.335508	0.269900	0.212742
H133	H	1.225537	-0.230110	-0.826537
H134	H	1.725537	0.269890	-0.326537
H135	H	0.686776	-0.230111	-0.287276
H136	H	1.186776	0.269889	0.212724
H137	H	1.043292	-0.943724	-0.469225
H138	H	1.543292	-0.443724	0.030775
H139	H	1.225371	-0.542859	-0.287136
H140	H	1.725371	-0.042859	0.212864
H141	H	0.835490	-0.376381	-0.469066
H142	H	1.335490	0.123619	0.030934
H143	H	1.225564	-0.943699	-0.287224
H144	H	1.725564	-0.443699	0.212776
H145	H	1.043352	-1.062994	-0.469255
H146	H	1.543352	-0.562994	0.030745
H147	H	1.225433	-0.662125	-0.287167
H148	H	1.725433	-0.162125	0.212833
H149	H	1.225567	-0.230094	-0.930665
H150	H	1.725567	0.269906	-0.430665
H151	H	1.043327	-0.376123	-1.079331
H152	H	1.543327	0.123877	-0.579331
H153	H	0.433915	-0.376398	-0.469116
H154	H	0.933915	0.123602	0.030884
H155	H	0.686771	-0.376383	-0.469086
H156	H	1.186771	0.123617	0.030914
H157	H	1.043165	-0.662156	-0.469162
H158	H	1.543165	-0.162156	0.030838
H159	H	1.225502	-0.230146	-0.677809
H160	H	1.725502	0.269854	-0.177809
H161	H	1.043209	-0.376198	-0.677753
H162	H	1.543209	0.123802	-0.177753
H163	H	1.043264	-0.376183	-0.826480
H164	H	1.543264	0.123817	-0.326480
H165	H	0.582643	-0.376395	-0.469094
H166	H	1.082643	0.123605	0.030906
H167	H	0.433930	-0.230121	-0.287304
H168	H	0.933930	0.269879	0.212696
H169	H	1.225594	-0.230049	-1.079384
H170	H	1.725594	0.269951	-0.579384
H171	H	1.225628	-1.062963	-0.287263
H172	H	1.725628	-0.562963	0.212737
H173	H	1.043297	-0.376157	-0.930599
H174	H	1.543297	0.123843	-0.430599
H175	H	0.582657	-0.230111	-0.287285
H176	H	1.082657	0.269889	0.212715
H177	H	1.043109	-0.542884	-0.469146
H178	H	1.543109	-0.042884	0.030854
