data_functionalizedCrystal
_audit_creation_method	'MofGen! by Chris Wilmer'
_symmetry_space_group_name_H-M	'P1'
_symmetry_Int_Tables_number	1
_symmetry_cell_setting	triclinic
loop_
_symmetry_equiv_pos_as_xyz
  x,y,z
_cell_length_a	14.446369
_cell_length_b	17.917603
_cell_length_c	14.446369
_cell_angle_alpha	90.001815
_cell_angle_beta	60.000250
_cell_angle_gamma	57.012736
loop_
_atom_site_label
_atom_site_type_symbol
_atom_site_fract_x
_atom_site_fract_y
_atom_site_fract_z
Zr1	Zr	0.928013	0.754913	-0.078903
O2	O	1.135249	0.629791	-0.233777
O3	O	0.730567	0.793269	-0.031420
O4	O	0.923675	0.793271	-0.224539
O5	O	0.942149	0.629789	0.111671
O6	O	0.909117	0.922228	-0.217259
O7	O	0.942141	0.629789	-0.040658
O8	O	0.563682	0.922225	0.128196
O9	O	1.287585	0.629792	-0.233784
O10	O	0.797289	0.905868	-0.005743
O11	O	0.808160	0.809629	0.102505
O12	O	1.035520	0.809631	-0.124868
O13	O	1.046391	0.713391	-0.016619
Zr14	Zr	0.904809	0.960585	0.175655
Zr15	Zr	0.904795	0.960585	-0.067292
Zr16	Zr	0.928027	0.754913	0.164044
Zr17	Zr	1.170971	0.754915	-0.078914
Zr18	Zr	0.661851	0.960583	0.175666
O19	O	1.102255	0.922229	0.128171
O20	O	1.102236	0.922229	-0.217268
O21	O	1.135268	0.629790	0.111662
O22	O	0.697573	1.085707	0.330528
O23	O	0.697554	1.085708	-0.014911
O24	O	0.730586	0.793269	0.314019
O25	O	0.890673	1.085709	-0.014920
O26	O	0.909147	0.922227	0.321290
O27	O	0.923705	0.793270	0.314010
O28	O	0.890681	1.085709	0.137409
O29	O	1.269130	0.793274	-0.224555
O30	O	0.563692	0.922225	0.321306
O31	O	0.545237	1.085706	0.330535
O32	O	0.545226	1.085706	0.137425
O33	O	1.287596	0.629792	-0.040673
O34	O	1.269140	0.793273	-0.031444
O35	O	0.797302	0.905868	0.221619
O36	O	0.786431	1.002107	0.113371
O37	O	1.024662	0.905870	-0.005753
O38	O	1.035533	0.809630	0.102495
C39	C	0.612508	0.857747	0.048390
C40	C	0.509366	0.857746	0.048394
C41	C	0.369180	0.797339	0.117011
C42	C	0.476837	0.797010	0.116702
C43	C	0.563354	0.813467	-0.077640
C44	C	0.456172	0.813014	-0.077292
C45	C	0.264088	0.962475	0.104751
C46	C	0.370256	0.962321	0.107263
C47	C	0.945453	0.600485	0.033853
C48	C	0.955310	0.513172	0.028924
C49	C	0.973315	0.353328	0.019922
C50	C	0.859513	0.362163	0.076827
C51	C	0.869531	0.273220	0.071818
C52	C	0.963299	0.442277	0.024929
C53	C	1.220314	0.857751	0.048362
C54	C	1.323456	0.857752	0.048357
C55	C	0.916394	0.857749	-0.255514
C56	C	0.916389	0.857750	-0.358651
C57	C	0.887369	1.115013	0.062899
C58	C	0.877512	1.202326	0.067828
C59	C	0.766117	0.918749	-0.430183
C60	C	0.766050	0.918484	-0.322869
C61	C	0.999421	0.753179	-0.439117
C62	C	0.998473	0.753513	-0.545957
C63	C	0.984836	0.900476	-0.539234
C64	C	0.981895	0.902592	-0.430443
C65	C	0.916428	0.857749	0.352265
C66	C	0.916433	0.857749	0.455402
C67	C	0.583466	1.115011	0.062913
C68	C	0.470467	1.202323	0.067847
C69	C	0.612525	0.857746	0.352279
C70	C	0.509388	0.857746	0.455421
C71	C	0.583482	1.115010	0.366802
C72	C	0.470489	1.202322	0.474873
C73	C	1.249340	0.600488	-0.270051
C74	C	1.362333	0.513176	-0.378122
C75	C	1.249356	0.600488	0.033839
C76	C	1.362355	0.513175	0.028905
C77	C	1.220297	0.857752	-0.255527
C78	C	1.323434	0.857753	-0.358669
C79	C	0.423069	1.193090	0.007977
C80	C	0.316909	1.275121	0.012590
C81	C	0.258142	1.366384	0.077079
C82	C	0.305550	1.375616	0.136951
C83	C	0.411714	1.293585	0.132331
C84	C	0.411751	1.293570	0.469121
C85	C	0.305595	1.375616	0.570656
C86	C	0.258172	1.366414	0.677943
C87	C	0.316921	1.275157	0.683693
C88	C	0.423082	1.193112	0.582159
C89	C	1.421082	0.421929	-0.372369
C90	C	1.527269	0.339882	-0.473904
C91	C	1.574697	0.349084	-0.581191
C92	C	1.515942	0.440341	-0.586941
C93	C	1.409764	0.522386	-0.485407
C94	C	1.409763	0.522408	0.088764
C95	C	1.515949	0.440377	0.084125
C96	C	1.574720	0.349114	0.019632
C97	C	1.527308	0.339883	-0.040235
C98	C	1.421130	0.421913	-0.035601
C99	C	0.369959	0.796753	0.526967
C100	C	0.476851	0.797012	0.419648
C101	C	0.370730	0.962318	0.535884
C102	C	0.263392	0.961989	0.642729
C103	C	0.454956	0.815028	0.636011
C104	C	0.563665	0.812906	0.527214
H105	H	0.574356	0.719764	0.077343
Br106	Br	0.105691	1.018999	0.645502
Br107	Br	0.225884	1.499452	0.562825
Br108	Br	0.204437	1.041868	0.778214
Br109	Br	0.114061	1.477703	0.083337
Br110	Br	0.398878	1.041366	0.585737
H111	H	0.450291	1.301116	0.181091
H112	H	1.361931	0.596681	-0.490104
Br113	Br	0.603529	0.883244	-0.167089
H114	H	0.328281	0.996764	0.486223
Br115	Br	1.148233	0.229394	-0.067544
H116	H	0.951716	0.719307	-0.547617
H117	H	1.661176	0.282327	0.015869
H118	H	1.382474	0.414417	-0.285020
H119	H	0.754561	0.436524	0.129306
Br120	Br	0.396899	1.043671	0.033473
H121	H	0.425177	0.859249	0.716723
H122	H	0.701474	0.995487	-0.264246
H123	H	1.575090	0.265585	-0.469200
Br124	Br	0.476094	1.306085	0.323531
Br125	Br	0.114094	1.477772	0.815731
Br126	Br	0.225776	1.499481	0.224471
H127	H	0.436036	0.826651	0.367537
H128	H	1.361919	0.596712	0.141289
H129	H	0.278293	1.267678	0.771059
H130	H	0.470894	1.118818	0.586858
Br131	Br	1.718799	0.237727	-0.718979
Br132	Br	0.657750	1.047427	-0.419015
Br133	Br	0.923452	0.695757	-0.356354
H134	H	0.326926	0.995400	0.200140
H135	H	1.554572	0.447823	-0.674306
Br136	Br	0.731563	0.686254	-0.152646
H137	H	1.109116	0.705590	-0.627247
Br138	Br	0.100934	1.024115	0.257543
Br139	Br	1.580268	0.452928	0.165383
Br140	Br	1.607080	0.216017	-0.127753
H141	H	1.110272	0.705755	-0.469030
H142	H	0.713418	0.889384	-0.430805
Br143	Br	0.411783	0.881629	-0.167754
H144	H	0.233005	1.007698	0.055065
H145	H	1.382535	0.414382	-0.084343
H146	H	0.574892	0.720008	0.361029
Br147	Br	0.502806	1.069243	-0.079557
Br148	Br	0.446555	0.668075	0.515801
Br149	Br	0.214990	0.845681	0.528007
H150	H	0.713147	0.888851	-0.270754
H151	H	0.436779	0.826711	0.209345
Br152	Br	0.894069	1.026882	-0.538958
Br153	Br	0.535180	0.688623	0.635738
Br154	Br	0.538494	0.684574	-0.151899
H155	H	0.662854	0.735867	0.471442
Br156	Br	0.609741	0.879256	0.573488
H157	H	0.276981	0.826883	0.209872
H158	H	1.091065	0.862782	-0.458211
Br159	Br	0.443126	0.669368	0.052009
Br160	Br	0.880839	1.030999	-0.337489
Br161	Br	0.252592	1.262570	-0.068668
Br162	Br	1.169264	0.826775	-0.673761
