data_functionalizedCrystal
_audit_creation_method	'MofGen! by Chris Wilmer'
_symmetry_space_group_name_H-M	'P1'
_symmetry_Int_Tables_number	1
_symmetry_cell_setting	triclinic
loop_
_symmetry_equiv_pos_as_xyz
  x,y,z
_cell_length_a	16.120530
_cell_length_b	19.121063
_cell_length_c	16.120297
_cell_angle_alpha	95.179432
_cell_angle_beta	90.128140
_cell_angle_gamma	89.687057
loop_
_atom_site_label
_atom_site_type_symbol
_atom_site_fract_x
_atom_site_fract_y
_atom_site_fract_z
Zn1	Zn	1.228532	-0.355748	-0.551587
Zn2	Zn	1.229542	-0.467532	-0.417878
Zn3	Zn	1.097153	-0.343883	-0.404937
Zn4	Zn	1.083532	-0.466885	-0.549816
O5	O	1.159690	-0.408512	-0.481054
O6	O	1.344754	-0.375813	-0.540007
O7	O	1.218103	-0.446434	-0.299571
O8	O	1.119859	-0.247198	-0.419716
O9	O	1.345496	-0.457940	-0.441771
O10	O	1.216382	-0.255916	-0.527458
O11	O	1.120838	-0.355590	-0.290063
O12	O	0.979258	-0.354963	-0.417999
O13	O	1.096644	-0.456838	-0.666641
O14	O	0.969251	-0.445332	-0.524441
O15	O	1.203175	-0.375186	-0.667942
O16	O	1.204895	-0.565705	-0.440054
O17	O	1.097623	-0.565230	-0.536989
C18	C	0.944155	-0.398790	-0.469624
C19	C	0.851946	-0.394649	-0.464754
C20	C	1.149912	-0.590946	-0.489753
C21	C	1.145804	-0.668997	-0.493506
C22	C	0.683119	-0.387072	-0.455870
C23	C	0.637096	-0.430006	-0.506302
C24	C	0.543155	-0.425790	-0.501358
C25	C	0.777068	-0.391287	-0.460812
C26	C	1.199763	-0.705893	-0.444847
C27	C	1.195904	-0.779230	-0.448382
C28	C	1.138080	-0.815670	-0.500573
C29	C	1.084118	-0.778769	-0.549237
C30	C	1.087982	-0.705433	-0.545706
C31	C	1.123621	-1.037085	-0.513761
C32	C	1.119760	-1.110426	-0.517287
C33	C	1.231547	-1.110882	-0.416433
C34	C	1.235403	-1.037545	-0.412903
C35	C	1.181443	-1.000650	-0.461570
C36	C	1.134132	-0.890632	-0.504185
C37	C	1.185396	-0.925690	-0.457962
C38	C	1.376067	-0.418272	-0.492530
C39	C	1.468274	-0.422431	-0.497420
C40	C	1.148278	-0.417263	-0.698367
C41	C	1.143414	-0.420993	-0.790973
C42	C	1.169527	-0.225367	-0.472341
C43	C	1.173720	-0.147322	-0.468628
C44	C	1.134506	-0.427785	-0.960523
C45	C	1.185049	-0.389036	-1.002436
C46	C	1.180092	-0.392815	-1.096780
C47	C	1.139461	-0.424006	-0.866171
C48	C	1.171108	-0.399746	-0.264587
C49	C	1.176143	-0.395826	-0.171981
H50	H	0.651970	-0.347152	-0.408986
O51	O	1.057396	-1.149733	-0.573587
H52	H	1.020530	-1.111759	-0.606843
O53	O	1.247307	-0.341342	-0.956118
H54	H	1.283568	-0.313539	-1.001378
O55	O	1.072259	-0.475483	-1.006840
H56	H	1.084381	-0.530580	-0.993583
O57	O	1.247766	-0.886385	-0.401682
H58	H	1.236290	-0.897216	-0.336205
H59	H	0.668246	-0.469929	-0.553190
O60	O	1.254101	-0.819027	-0.395898
H61	H	1.244088	-0.801718	-0.329070
O62	O	1.262134	-0.666591	-0.388560
H63	H	1.299013	-0.704572	-0.355326
H64	H	1.087051	-0.920309	-0.546677
H65	H	1.282487	-1.007877	-0.370405
H66	H	1.275479	-1.140930	-0.376812
H67	H	1.079684	-1.007051	-0.553387
H68	H	1.037040	-0.808444	-0.591735
H69	H	1.044044	-0.675393	-0.585330
