data_functionalizedCrystal
_audit_creation_method	'MofGen! by Chris Wilmer'
_symmetry_space_group_name_H-M	'P1'
_symmetry_Int_Tables_number	1
_symmetry_cell_setting	triclinic
loop_
_symmetry_equiv_pos_as_xyz
  x,y,z
_cell_length_a	18.215405
_cell_length_b	12.759401
_cell_length_c	12.759393
_cell_angle_alpha	90.022497
_cell_angle_beta	89.963505
_cell_angle_gamma	89.974293
loop_
_atom_site_label
_atom_site_type_symbol
_atom_site_fract_x
_atom_site_fract_y
_atom_site_fract_z
Zn1	Zn	-0.292933	-1.606192	-0.594020
Zn2	Zn	-0.416017	-1.606052	-0.418322
Zn3	Zn	-0.292970	-1.430491	-0.418350
Zn4	Zn	-0.415964	-1.430451	-0.593954
O5	O	-0.354471	-1.518297	-0.506162
O6	O	-0.309266	-1.753194	-0.570729
O7	O	-0.399732	-1.582721	-0.271304
O8	O	-0.189981	-1.453873	-0.441693
O9	O	-0.399696	-1.753091	-0.441644
O10	O	-0.189953	-1.582960	-0.570757
O11	O	-0.309330	-1.453737	-0.271325
O12	O	-0.309279	-1.283465	-0.441629
O13	O	-0.399605	-1.453806	-0.740984
O14	O	-0.399642	-1.283436	-0.570644
O15	O	-0.309215	-1.582922	-0.741032
O16	O	-0.518994	-1.582683	-0.441580
O17	O	-0.518955	-1.453670	-0.570617
C18	C	-0.354459	-1.245329	-0.506133
C19	C	-0.354472	-1.128553	-0.506146
C20	C	-0.401595	-1.073703	-0.573217
C21	C	-0.401597	-0.963979	-0.573235
C22	C	-0.307351	-0.963964	-0.439102
C23	C	-0.307346	-1.073686	-0.439090
C24	C	-0.545677	-1.518186	-0.506111
C25	C	-0.627476	-1.518234	-0.506125
C26	C	-0.815666	-1.585569	-0.439059
C27	C	-0.892524	-1.585616	-0.439084
C28	C	-0.892524	-1.451158	-0.573340
C29	C	-0.815666	-1.451118	-0.573319
C30	C	-0.777239	-1.518321	-0.506172
C31	C	-0.930955	-1.518409	-0.506219
C32	C	-1.014289	-1.518460	-0.506247
C33	C	-0.693900	-1.518272	-0.506145
C34	C	-0.162518	-1.518437	-0.506235
C35	C	-0.080719	-1.518496	-0.506267
C36	C	-0.354400	-1.518375	-0.780195
C37	C	-0.354370	-1.518409	-0.896972
C38	C	-0.354480	-0.792330	-0.506184
C39	C	-0.354479	-0.909106	-0.506176
C40	C	-0.307296	-1.585644	-0.951861
C41	C	-0.307264	-1.585662	-1.061585
C42	C	-0.401387	-1.451206	-1.061522
C43	C	-0.401414	-1.451183	-0.951799
C44	C	-0.354488	-1.518279	-0.233194
C45	C	-0.354311	-1.518449	-0.116418
H46	H	-0.439967	-1.118372	-0.627821
N47	N	-0.256508	-1.132854	-0.366759
H48	H	-0.226657	-1.081449	-0.324279
H49	H	-0.286415	-1.178346	-0.318054
H50	H	-0.784380	-1.640292	-0.384386
N51	N	-0.452174	-1.378640	-0.892588
H52	H	-0.481972	-1.336056	-0.943969
H53	H	-0.486248	-1.421354	-0.847046
H54	H	-0.439968	-0.919325	-0.627852
N55	N	-0.256483	-1.658177	-1.120775
H56	H	-0.267921	-1.733232	-1.101693
H57	H	-0.263617	-1.647905	-1.198586
N58	N	-0.452114	-1.378686	-1.120657
H59	H	-0.444952	-1.388897	-1.198495
H60	H	-0.504684	-1.394975	-1.101468
N61	N	-0.256543	-0.904786	-0.366752
H62	H	-0.263703	-0.826954	-0.376925
H63	H	-0.267952	-0.923938	-0.291696
H64	H	-0.923808	-1.640377	-0.384435
N65	N	-0.933970	-1.378673	-0.645754
H66	H	-0.988490	-1.388898	-0.635582
H67	H	-0.920586	-1.303642	-0.629324
H68	H	-0.268988	-1.640381	-0.907223
H69	H	-0.784378	-1.396356	-0.627976
