data_functionalizedCrystal
_audit_creation_method	'MofGen! by Chris Wilmer'
_symmetry_space_group_name_H-M	'P1'
_symmetry_Int_Tables_number	1
_symmetry_cell_setting	triclinic
loop_
_symmetry_equiv_pos_as_xyz
  x,y,z
_cell_length_a	27.731996
_cell_length_b	10.489741
_cell_length_c	26.809956
_cell_angle_alpha	89.981931
_cell_angle_beta	89.974638
_cell_angle_gamma	83.580281
loop_
_atom_site_label
_atom_site_type_symbol
_atom_site_fract_x
_atom_site_fract_y
_atom_site_fract_z
O1	O	0.068201	1.691050	-0.041456
O2	O	0.074602	1.319570	-0.041465
O3	O	0.001076	1.516882	-0.041449
O4	O	0.141727	1.493738	-0.041471
O5	O	0.001056	1.516811	0.041510
O6	O	0.074582	1.319498	0.041495
O7	O	0.068181	1.690979	0.041503
Zn8	Zn	0.071378	1.505227	0.054670
Zn9	Zn	0.071405	1.505322	-0.054632
O10	O	0.141707	1.493667	0.041488
C11	C	0.074109	1.272024	0.000014
C12	C	0.072662	1.130459	0.000011
C13	C	-0.016944	1.516371	0.000032
C14	C	-0.070610	1.514939	0.000037
C15	C	0.025880	1.064398	0.000023
C16	C	0.047989	0.971324	-0.040882
C17	C	0.047980	0.971287	0.040909
C18	C	0.094791	1.039250	-0.040928
C19	C	0.094775	1.039222	0.040900
C20	C	0.116919	0.946175	-0.000016
C21	C	-0.403372	1.505968	-0.045209
C22	C	-0.605064	1.500531	-0.045217
O23	O	-0.631130	1.499806	-0.083677
N24	N	-0.630297	1.499816	0.000003
C25	C	-0.605103	1.500453	0.045229
O26	O	-0.631192	1.499707	0.083692
C27	C	-0.403411	1.505881	0.045238
C28	C	-0.378181	1.506609	0.000014
C29	C	-0.378142	1.506694	-0.090429
C30	C	-0.327722	1.508061	-0.090426
C31	C	-0.302532	1.508701	-0.045203
C32	C	-0.327762	1.507975	0.000017
C33	C	-0.378217	1.506509	0.090463
C34	C	-0.327791	1.507863	0.090461
C35	C	-0.302561	1.508590	0.045238
C36	C	-0.252151	1.509982	0.045242
N37	N	-0.226919	1.510696	0.000021
C38	C	-0.252109	1.510056	-0.045201
C39	C	-0.710994	1.497605	0.045222
C40	C	-0.761417	1.496250	0.045220
C41	C	-0.761375	1.496326	-0.045227
C42	C	-0.710951	1.497690	-0.045225
C43	C	-0.685761	1.498320	0.000001
C44	C	-0.146224	1.512927	-0.045192
C45	C	-0.095800	1.514299	-0.045186
C46	C	-0.095846	1.514216	0.045261
C47	C	-0.146266	1.512851	0.045255
C48	C	-0.171454	1.512202	0.000024
O49	O	-0.226054	1.510693	0.083681
O50	O	-0.226010	1.510774	-0.083658
C51	C	-0.453791	1.504602	-0.045211
C52	C	-0.479021	1.503876	0.000009
C53	C	-0.453831	1.504516	0.045231
C54	C	-0.529444	1.502521	0.000007
C55	C	-0.554634	1.501881	-0.045216
C56	C	-0.529401	1.502595	-0.090437
C57	C	-0.478982	1.503962	-0.090434
C58	C	-0.479063	1.503802	0.090452
C59	C	-0.529483	1.502437	0.090446
C60	C	-0.554673	1.501797	0.045223
C61	C	0.159727	1.494178	0.000005
C62	C	0.213393	1.495610	-0.000003
C63	C	0.068675	1.738525	0.000023
C64	C	0.070121	1.880090	0.000023
N65	N	0.071359	1.505172	0.129266
C66	C	0.041781	1.428531	0.526163
C67	C	0.041767	1.428475	0.317285
O68	O	0.016577	1.363234	0.290295
N69	N	0.071367	1.505220	0.291145
C70	C	0.100970	1.581990	0.317228
O71	O	0.126143	1.647275	0.290201
C72	C	0.100981	1.582052	0.526104
C73	C	0.071383	1.505293	0.552242
C74	C	0.012184	1.351779	0.552300
C75	C	0.012190	1.351788	0.604516
C76	C	0.041792	1.428550	0.630595
C77	C	0.071389	1.505302	0.604458
C78	C	0.130582	1.658828	0.552186
C79	C	0.130581	1.658839	0.604409
C80	C	0.100983	1.582080	0.630546
C81	C	0.100996	1.582073	0.682753
N82	N	0.071396	1.505328	0.708893
C83	C	0.041794	1.428567	0.682814
C84	C	0.100963	1.581951	0.207564
C85	C	0.100961	1.581934	0.155346
C86	C	0.041757	1.428420	0.155406
C87	C	0.041762	1.428431	0.207626
C88	C	0.071363	1.505206	0.233704
C89	C	0.041809	1.428592	0.792472
C90	C	0.041819	1.428604	0.844693
C91	C	0.101021	1.582122	0.844628
C92	C	0.101013	1.582105	0.792411
C93	C	0.071403	1.505336	0.766335
O94	O	0.126170	1.647290	0.709775
O95	O	0.016617	1.363313	0.709850
C96	C	0.041775	1.428522	0.473946
C97	C	0.071372	1.505274	0.447809
C98	C	0.100974	1.582035	0.473888
C99	C	0.071370	1.505257	0.395590
C100	C	0.041767	1.428495	0.369511
C101	C	0.012167	1.351751	0.395651
C102	C	0.012173	1.351760	0.447867
C103	C	0.130574	1.658780	0.447748
C104	C	0.130566	1.658763	0.395532
C105	C	0.100964	1.582001	0.369453
N106	N	0.071421	1.505365	0.870772
H107	H	-0.012578	1.115797	-0.000022
C108	C	0.020548	0.797345	0.087333
C109	C	0.021239	0.930613	0.087596
H110	H	0.004034	0.772242	0.116153
H111	H	0.052885	0.756453	0.087383
H112	H	0.004249	0.772965	0.058287
H113	H	0.037542	0.954992	0.116640
H114	H	-0.011103	0.971520	0.087551
H115	H	0.028203	0.941220	-0.075460
H116	H	-0.011934	1.289243	0.374408
C117	C	0.122913	1.212917	0.086823
C118	C	0.121465	1.079926	0.087578
H119	H	0.139390	1.238045	0.115642
H120	H	0.090757	1.255009	0.086538
H121	H	0.139581	1.235885	0.057782
H122	H	0.104794	1.056959	0.116617
H123	H	0.153626	1.037819	0.087868
H124	H	-0.398750	1.505919	0.127289
H125	H	-0.781893	1.495805	-0.082049
H126	H	0.114579	1.069229	-0.075550
H127	H	-0.075261	1.514894	-0.082014
C128	C	-0.417333	1.395621	0.142938
C129	C	-0.451381	1.504514	0.140166
H130	H	-0.400248	1.396066	0.173633
H131	H	-0.395086	1.396253	0.116015
H132	H	-0.433575	1.320694	0.141053
H133	H	-0.435138	1.579442	0.142047
H134	H	-0.473630	1.503894	0.167096
H135	H	-0.549921	1.502080	-0.127258
C136	C	-0.756381	1.496302	0.134621
C137	C	-0.789146	1.495462	0.094931
H138	H	-0.773499	1.495802	0.165311
H139	H	-0.740145	1.571232	0.132742
H140	H	-0.733282	1.422427	0.132731
H141	H	-0.812243	1.569342	0.096819
H142	H	-0.805390	1.420524	0.096811
C143	C	0.193271	0.911398	-0.042919
C144	C	0.168889	0.877129	-0.000052
H145	H	0.225353	0.868762	-0.042944
H146	H	0.194468	1.001534	-0.043193
H147	H	0.176532	0.887116	-0.071694
H148	H	0.185626	0.901419	0.028722
H149	H	0.167694	0.786972	0.000225
H150	H	0.154679	1.721292	0.468977
H151	H	-0.690413	1.498280	-0.082050
H152	H	-0.307283	1.508357	0.127290
C153	C	-0.141102	1.513111	-0.134595
C154	C	-0.173904	1.512193	-0.094910
H155	H	-0.158192	1.512662	-0.165288
H156	H	-0.118004	1.439251	-0.132706
H157	H	-0.124871	1.588056	-0.132709
H158	H	-0.190133	1.437242	-0.096794
H159	H	-0.197011	1.586059	-0.096800
C160	C	-0.417230	1.395741	-0.142905
C161	C	-0.451263	1.504670	-0.140154
H162	H	-0.400122	1.396160	-0.173603
H163	H	-0.433484	1.320846	-0.140996
H164	H	-0.394998	1.396358	-0.115983
H165	H	-0.473498	1.504049	-0.167073
H166	H	-0.435009	1.579585	-0.142067
C167	C	-0.332760	1.507977	-0.179826
C168	C	-0.299993	1.508838	-0.140138
H169	H	-0.315642	1.508445	-0.210517
H170	H	-0.355854	1.581847	-0.177944
H171	H	-0.349000	1.433042	-0.177937
H172	H	-0.283756	1.583779	-0.142025
H173	H	-0.276891	1.434961	-0.142021
H174	H	-0.398646	1.506168	-0.127256
C175	C	-0.649267	1.389409	0.097712
C176	C	-0.683312	1.498310	0.094940
H177	H	-0.632183	1.389848	0.128407
H178	H	-0.627021	1.390035	0.070789
H179	H	-0.665513	1.314487	0.095826
H180	H	-0.667066	1.573232	0.096822
H181	H	-0.705562	1.497695	0.121870
C182	C	0.189082	1.810527	0.400730
C183	C	0.163103	1.743149	0.366806
H184	H	0.209163	1.862632	0.382996
H185	H	0.208675	1.751437	0.421091
H186	H	0.167025	1.863224	0.421105
H187	H	0.185160	1.690444	0.346433
H188	H	0.143508	1.802246	0.346436
H189	H	-0.166810	1.512271	0.082079
C190	C	-0.018565	1.516251	0.085415
C191	C	-0.068150	1.514911	0.094968
H192	H	-0.001466	1.516665	0.116103
H193	H	-0.013728	1.590893	0.066843
H194	H	-0.006872	1.442088	0.066826
H195	H	-0.079843	1.589079	0.113554
H196	H	-0.072990	1.440261	0.113548
C197	C	-0.052860	1.345055	0.493611
C198	C	-0.020351	1.267378	0.523637
H199	H	-0.072945	1.292934	0.475920
H200	H	-0.035236	1.390748	0.470569
H201	H	-0.072452	1.404148	0.513983
H202	H	-0.000756	1.208291	0.503264
H203	H	-0.037976	1.221663	0.546681
C204	C	0.195627	1.665498	0.493442
C205	C	0.163120	1.743207	0.523469
H206	H	0.215718	1.717595	0.475717
H207	H	0.178002	1.619802	0.470430
H208	H	0.215213	1.606407	0.513817
H209	H	0.143532	1.802292	0.503093
H210	H	0.180747	1.788925	0.546484
H211	H	-0.550021	1.501855	0.127275
C212	C	-0.016707	1.276863	0.839502
C213	C	0.009279	1.344232	0.873423
H214	H	-0.036796	1.224786	0.857239
H215	H	0.005342	1.224150	0.819132
H216	H	-0.036296	1.335968	0.819136
H217	H	0.028872	1.285126	0.893788
H218	H	-0.012772	1.396949	0.893802
C219	C	-0.023277	1.421788	0.266382
C220	C	0.009225	1.344063	0.236355
H221	H	-0.043363	1.369698	0.284117
H222	H	-0.042865	1.480863	0.246010
H223	H	-0.005644	1.467499	0.289390
H224	H	-0.008408	1.298359	0.213345
H225	H	0.028814	1.284966	0.256729
C226	C	0.038149	1.257094	0.733787
C227	C	0.009266	1.344197	0.763813
H228	H	0.018059	1.204994	0.716093
H229	H	0.060201	1.204407	0.754156
H230	H	0.055769	1.302813	0.710744
H231	H	-0.008352	1.298477	0.786860
H232	H	-0.012795	1.396890	0.743443
C233	C	-0.046336	1.200065	0.599320
C234	C	-0.020351	1.267430	0.633244
H235	H	-0.066429	1.147994	0.617055
H236	H	-0.024286	1.147347	0.578953
H237	H	-0.065921	1.259172	0.578951
H238	H	-0.000763	1.208322	0.653611
H239	H	-0.042404	1.320152	0.653620
H240	H	0.125069	1.644423	0.134069
C241	C	0.038104	1.256932	0.096711
C242	C	0.009218	1.344034	0.126736
H243	H	0.018014	1.204847	0.079009
H244	H	0.060149	1.204230	0.117082
H245	H	0.055731	1.302652	0.073675
H246	H	-0.008407	1.298314	0.149775
H247	H	-0.012835	1.396742	0.106364
C248	C	0.159489	1.733676	0.202248
C249	C	0.133509	1.666336	0.236225
H250	H	0.179585	1.785761	0.219941
H251	H	0.137436	1.786378	0.181886
H252	H	0.179071	1.674554	0.181879
H253	H	0.113924	1.725459	0.256592
H254	H	0.155565	1.613630	0.256596
C255	C	0.189099	1.810591	0.599099
C256	C	0.163122	1.743231	0.633073
H257	H	0.209190	1.862681	0.616796
H258	H	0.167044	1.863289	0.578738
H259	H	0.208685	1.751480	0.578729
H260	H	0.143533	1.802342	0.653441
H261	H	0.185180	1.690528	0.653443
H262	H	0.125121	1.644590	0.771129
C263	C	0.104666	1.753594	0.903324
C264	C	0.133556	1.666502	0.873301
H265	H	0.124750	1.805696	0.921024
H266	H	0.087043	1.707875	0.926358
H267	H	0.082615	1.806291	0.882950
H268	H	0.155604	1.613798	0.893676
H269	H	0.151187	1.712226	0.850264
H270	H	-0.011929	1.289255	0.469144
