data_functionalizedCrystal
_audit_creation_method	'MofGen! by Chris Wilmer'
_symmetry_space_group_name_H-M	'P1'
_symmetry_Int_Tables_number	1
_symmetry_cell_setting	triclinic
loop_
_symmetry_equiv_pos_as_xyz
  x,y,z
_cell_length_a	14.853567
_cell_length_b	10.654550
_cell_length_c	9.730223
_cell_angle_alpha	90.000043
_cell_angle_beta	89.999394
_cell_angle_gamma	95.940070
loop_
_atom_site_label
_atom_site_type_symbol
_atom_site_fract_x
_atom_site_fract_y
_atom_site_fract_z
O1	O	0.126626	-1.666524	-0.114175
O2	O	0.138690	-1.300920	-0.114199
O3	O	0.001480	-1.493487	-0.114190
O4	O	0.263835	-1.473956	-0.114183
O5	O	0.001477	-1.493475	0.114390
O6	O	0.138686	-1.300907	0.114381
O7	O	0.126622	-1.666511	0.114405
Zn8	Zn	0.132654	-1.483707	0.150685
Zn9	Zn	0.132659	-1.483724	-0.150479
O10	O	0.263832	-1.473943	0.114397
C11	C	0.137802	-1.254125	0.000088
C12	C	0.135152	-1.114709	0.000078
C13	C	-0.032115	-1.492596	0.000096
C14	C	-0.132213	-1.489944	0.000084
C15	C	0.127510	-1.713306	0.000116
C16	C	0.130160	-1.852722	0.000116
C17	C	-0.545419	-1.364344	0.000102
C18	C	-0.565475	-1.593119	0.000116
C19	C	-0.471428	-1.595613	0.000109
C20	C	-0.414372	-1.482470	0.000099
C21	C	-0.451363	-1.366834	0.000098
C22	C	-0.434430	-1.711247	0.000124
C23	C	-0.340378	-1.713745	0.000118
C24	C	-0.283320	-1.600601	0.000098
C25	C	-0.320316	-1.484961	0.000095
C26	C	-0.263260	-1.371818	0.000086
C27	C	-0.300254	-1.256176	0.000073
C28	C	-0.394305	-1.253691	0.000079
C29	C	-0.189269	-1.603087	0.000093
C30	C	-0.169204	-1.374308	0.000082
C31	C	0.297427	-1.474835	0.000108
C32	C	0.397525	-1.477487	0.000111
N33	N	0.132650	-1.483705	0.356222
C34	C	0.215939	-1.034384	0.000084
C35	C	0.213443	-0.903389	0.000108
C36	C	0.049367	-0.933057	0.000114
C37	C	0.051864	-1.064049	0.000100
N38	N	0.132655	-1.483735	-0.356015
C39	C	0.071919	-1.569003	0.428151
C40	C	0.071919	-1.569016	0.572034
C41	C	0.193389	-1.398429	0.572045
C42	C	0.193383	-1.398411	0.428165
H43	H	-0.122754	-1.282172	0.000069
H44	H	-0.253787	-1.164056	0.000075
H45	H	0.242838	-1.328985	0.630636
C46	C	0.005107	-1.662815	0.349013
C47	C	-0.061699	-1.756635	0.428143
C48	C	-0.128516	-1.850446	0.349009
C49	C	-0.128526	-1.850438	0.190747
C50	C	-0.061718	-1.756615	0.111608
C51	C	0.005099	-1.662803	0.190742
H52	H	-0.061693	-1.756644	0.545306
H53	H	-0.177972	-1.919901	0.407594
H54	H	-0.177988	-1.919883	0.132167
H55	H	-0.061724	-1.756605	-0.005555
H56	H	0.054555	-1.593349	0.132157
C57	C	0.260192	-1.304579	0.349029
C58	C	0.327037	-1.210811	0.428155
C59	C	0.393838	-1.116980	0.349018
C60	C	0.393795	-1.116917	0.190755
C61	C	0.326948	-1.210688	0.111621
C62	C	0.260146	-1.304519	0.190758
H63	H	0.327071	-1.210855	0.545319
H64	H	0.443323	-1.047565	0.407600
H65	H	0.443246	-1.047458	0.132173
H66	H	0.326914	-1.210644	-0.005543
H67	H	0.210661	-1.373934	0.132176
H68	H	-0.424435	-1.159541	0.000070
H69	H	-0.575544	-1.270191	0.000086
H70	H	-0.480891	-1.803361	0.000144
H71	H	-0.611935	-1.685234	0.000135
H72	H	-0.310265	-1.807907	0.000126
H73	H	0.283758	-1.075626	0.000077
H74	H	-0.159152	-1.697240	0.000112
H75	H	0.022466	-1.638471	0.630596
H76	H	0.279228	-0.837993	0.000116
H77	H	-0.013927	-1.129454	0.000099
H78	H	-0.018444	-0.891793	0.000140
