data_functionalizedCrystal
_audit_creation_method	'MofGen! by Chris Wilmer'
_symmetry_space_group_name_H-M	'P1'
_symmetry_Int_Tables_number	1
_symmetry_cell_setting	triclinic
loop_
_symmetry_equiv_pos_as_xyz
  x,y,z
_cell_length_a	19.188905
_cell_length_b	19.188930
_cell_length_c	9.730223
_cell_angle_alpha	90.006436
_cell_angle_beta	90.007319
_cell_angle_gamma	83.139668
loop_
_atom_site_label
_atom_site_type_symbol
_atom_site_fract_x
_atom_site_fract_y
_atom_site_fract_z
O1	O	0.926152	0.087081	0.114532
O2	O	0.722838	0.098834	0.114487
O3	O	0.830362	-0.008699	0.114484
O4	O	0.818628	0.194614	0.114535
O5	O	0.830361	-0.008696	-0.114096
O6	O	0.722837	0.098837	-0.114093
O7	O	0.926151	0.087084	-0.114048
Zn8	Zn	0.824494	0.092961	-0.150363
Zn9	Zn	0.824495	0.092957	0.150801
O10	O	0.818627	0.194617	-0.114045
C11	C	0.696826	0.098458	0.000191
C12	C	0.619321	0.097324	0.000172
C13	C	0.582930	0.096778	0.124775
C14	C	0.510106	0.095705	0.124792
C15	C	0.473678	0.095164	0.000199
C16	C	0.510078	0.095714	-0.124420
C17	C	0.582899	0.096794	-0.124433
N18	N	0.364657	0.053736	-0.092534
N19	N	0.295480	0.052709	-0.092513
C20	C	0.254272	0.091911	0.000231
N21	N	0.284854	0.132171	0.092974
N22	N	0.354038	0.133196	0.092957
C23	C	0.394716	0.093993	0.000199
C24	C	0.138917	0.090203	0.124861
C25	C	0.066091	0.089134	0.124872
C26	C	0.066065	0.089136	-0.124343
C27	C	0.138888	0.090212	-0.124351
C28	C	0.175310	0.090742	0.000255
C29	C	0.829982	-0.034708	0.000190
C30	C	0.828841	-0.112213	0.000178
C31	C	0.891933	-0.157142	0.000185
C32	C	0.890861	-0.229966	0.000207
C33	C	0.826694	-0.257857	0.000194
C34	C	0.763594	-0.212917	0.000194
C35	C	0.764668	-0.140095	0.000186
N36	N	0.777646	-0.365856	-0.077607
N37	N	0.776630	-0.435035	-0.077603
C38	C	0.823456	-0.477265	0.000221
N39	N	0.871346	-0.447705	0.078022
N40	N	0.872363	-0.378520	0.078011
C41	C	0.825523	-0.336819	0.000203
C42	C	0.885390	-0.601159	0.000254
C43	C	0.884315	-0.673984	0.000284
C44	C	0.757047	-0.656933	0.000257
C45	C	0.758123	-0.584110	0.000241
C46	C	0.822296	-0.556228	0.000232
C47	C	0.952163	0.087460	0.000251
C48	C	1.029668	0.088594	0.000278
C49	C	0.819007	0.220626	0.000252
C50	C	0.820148	0.298131	0.000273
N51	N	0.824498	0.092963	-0.355899
C52	C	0.872121	0.045363	-0.427827
C53	C	0.872119	0.045355	-0.571709
C54	C	0.776868	0.140551	-0.571725
C55	C	0.776867	0.140556	-0.427845
C56	C	0.927116	-0.009596	-0.427819
C57	C	0.927114	-0.009604	-0.571702
N58	N	0.824497	0.092950	0.356338
H59	H	0.480413	0.095275	-0.225864
H60	H	0.168519	0.090652	-0.225816
C61	C	0.228863	0.031406	0.269428
C62	C	0.178953	0.090795	0.261826
H63	H	0.253573	0.031771	0.353990
H64	H	0.260961	0.031885	0.195228
H65	H	0.205900	-0.009716	0.264243
H66	H	0.201916	0.131916	0.267000
H67	H	0.146851	0.090322	0.336046
H68	H	0.935694	-0.710565	0.000297
C69	C	1.043179	0.014971	-0.512470
C70	C	0.999360	0.005684	-0.624412
H71	H	1.087777	0.024412	-0.545014
H72	H	1.048622	-0.026477	-0.458239
H73	H	1.022857	0.053286	-0.458250
H74	H	1.019679	-0.032634	-0.678626
H75	H	0.993919	0.047137	-0.678665
C76	C	0.656523	-0.103133	0.117666
C77	C	0.695311	-0.090705	0.000168
H78	H	0.613703	-0.072643	0.117645
H79	H	0.682844	-0.094688	0.197364
H80	H	0.646705	-0.150496	0.117660
H81	H	0.705133	-0.043343	0.000178
H82	H	0.668984	-0.099145	-0.079551
C83	C	0.632220	-0.574575	0.000195
C84	C	0.688770	-0.534719	0.000208
H85	H	0.589403	-0.544080	0.000169
H86	H	0.634446	-0.603322	0.079907
H87	H	0.634455	-0.603343	-0.079515
H88	H	0.686538	-0.505954	0.079924
H89	H	0.686542	-0.505959	-0.079512
C90	C	-0.045570	0.087467	-0.234979
C91	C	0.026033	0.088533	-0.261300
H92	H	-0.070285	0.087091	-0.319535
H93	H	-0.062953	0.127996	-0.183790
H94	H	-0.052034	0.046583	-0.183778
H95	H	0.032496	0.129420	-0.312493
H96	H	0.043421	0.048000	-0.312511
H97	H	0.704801	-0.679641	0.000253
H98	H	0.612528	0.097239	-0.225903
C99	C	1.017623	-0.181316	0.000206
C100	C	0.962471	-0.126495	0.000191
H101	H	1.061169	-0.162392	0.000219
H102	H	1.014555	-0.209368	-0.079498
H103	H	1.014553	-0.209359	0.079924
H104	H	0.965538	-0.098454	-0.079533
H105	H	0.965541	-0.098430	0.079903
H106	H	0.937644	-0.578456	0.000253
H107	H	0.910746	-0.060122	-0.616334
C108	C	0.963491	-0.321749	0.117713
C109	C	0.960215	-0.279365	0.000207
H110	H	1.006310	-0.352241	0.117712
H111	H	0.925124	-0.348774	0.117706
H112	H	0.961273	-0.292974	0.197414
H113	H	0.962428	-0.308140	-0.079495
H114	H	0.998593	-0.252338	0.000201
C115	C	0.682712	0.234647	-0.442318
C116	C	0.724514	0.192874	-0.348781
H117	H	0.650393	0.266949	-0.393504
H118	H	0.657695	0.205642	-0.498443
H119	H	0.711700	0.259689	-0.498429
H120	H	0.695526	0.167828	-0.292676
H121	H	0.749532	0.221883	-0.292632
H122	H	0.036462	0.088694	0.226343
H123	H	0.612580	0.097209	0.226239
C124	C	0.654784	-0.220812	-0.117326
C125	C	0.693059	-0.243569	0.000181
H126	H	0.611235	-0.239731	-0.117321
H127	H	0.680750	-0.236258	-0.197018
H128	H	0.646400	-0.171010	-0.117314
H129	H	0.701447	-0.293371	0.000164
H130	H	0.667088	-0.228126	0.079894
C131	C	0.681805	0.155932	-0.733558
C132	C	0.724518	0.192866	-0.650817
H133	H	0.649490	0.188231	-0.782389
H134	H	0.656784	0.126942	-0.677432
H135	H	0.710176	0.127584	-0.796982
H136	H	0.696147	0.221210	-0.587386
H137	H	0.749541	0.221868	-0.706948
C138	C	0.902616	-0.125684	-0.487046
C139	C	0.911868	-0.081853	-0.375106
H140	H	0.893198	-0.170289	-0.454499
H141	H	0.944069	-0.131106	-0.541261
H142	H	0.864297	-0.105384	-0.541281
H143	H	0.950190	-0.102150	-0.320876
H144	H	0.870410	-0.076433	-0.320868
H145	H	0.480470	0.095261	0.226261
H146	H	0.977614	0.006810	-0.383176
