data_functionalizedCrystal
_audit_creation_method	'MofGen! by Chris Wilmer'
_symmetry_space_group_name_H-M	'P1'
_symmetry_Int_Tables_number	1
_symmetry_cell_setting	triclinic
loop_
_symmetry_equiv_pos_as_xyz
  x,y,z
_cell_length_a	8.559649
_cell_length_b	9.065218
_cell_length_c	7.088638
_cell_angle_alpha	83.694087
_cell_angle_beta	95.333776
_cell_angle_gamma	77.397275
loop_
_atom_site_label
_atom_site_type_symbol
_atom_site_fract_x
_atom_site_fract_y
_atom_site_fract_z
O1	O	-2.135558	0.066954	-0.158964
O2	O	-1.635558	0.566954	0.341036
O3	O	-1.671456	-0.009111	-0.158972
O4	O	-1.171456	0.490889	0.341028
O5	O	-1.913099	0.244769	-0.158964
O6	O	-1.413099	0.744769	0.341036
O7	O	-1.893914	-0.186926	-0.158972
O8	O	-1.393914	0.313074	0.341028
O9	O	-1.880766	0.210793	0.159025
O10	O	-1.380766	0.710793	0.659025
O11	O	-1.639122	-0.043087	0.159017
O12	O	-1.139122	0.456913	0.659017
O13	O	-2.103224	0.032978	0.159025
O14	O	-1.603224	0.532978	0.659025
Cu15	Cu	-1.868221	-0.008157	0.188056
Cu16	Cu	-1.368221	0.491843	0.688056
Cu17	Cu	-1.906459	0.032024	-0.188003
Cu18	Cu	-1.406459	0.532024	0.311997
O19	O	-1.861581	-0.220902	0.159017
O20	O	-1.361581	0.279098	0.659017
C21	C	-1.595843	-0.031863	0.000022
C22	C	-1.095843	0.468137	0.500022
C23	C	-1.418711	-0.049022	0.000018
C24	C	-0.918711	0.450978	0.500018
C25	C	-1.895089	0.282536	0.000027
C26	C	-1.395089	0.782536	0.500027
C27	C	-1.889577	0.445687	0.000018
C28	C	-1.389577	0.945687	0.500018
C29	C	-2.178838	0.055731	0.000027
C30	C	-1.678838	0.555731	0.500027
C31	C	-2.355971	0.072890	0.000018
C32	C	-1.855971	0.572890	0.500018
C33	C	-1.879591	-0.258669	0.000021
C34	C	-1.379591	0.241331	0.500021
C35	C	-1.885105	-0.421819	0.000018
C36	C	-1.385105	0.078181	0.500018
N37	N	-1.841338	-0.036416	0.452555
N38	N	-1.341338	0.463584	0.952555
N39	N	-1.933355	0.060296	-0.452502
N40	N	-1.433355	0.560296	0.047498
H41	H	-1.437768	0.190392	0.000011
H42	H	-0.937768	0.690392	0.500011
H43	H	-1.336907	-0.166529	0.000006
H44	H	-0.836907	0.333471	0.500006
O45	O	-2.059606	0.193064	0.439306
O46	O	-1.559606	0.693064	0.939306
H47	H	-2.057345	0.190710	0.283350
H48	H	-1.557345	0.690710	0.783350
H49	H	-1.746010	-0.136615	0.534242
H50	H	-1.246010	0.363385	1.034242
