data_functionalizedCrystal
_audit_creation_method	'MofGen! by Chris Wilmer'
_symmetry_space_group_name_H-M	'P1'
_symmetry_Int_Tables_number	1
_symmetry_cell_setting	triclinic
loop_
_symmetry_equiv_pos_as_xyz
  x,y,z
_cell_length_a	23.204074
_cell_length_b	23.204055
_cell_length_c	23.204116
_cell_angle_alpha	59.996931
_cell_angle_beta	89.996907
_cell_angle_gamma	59.999903
loop_
_atom_site_label
_atom_site_type_symbol
_atom_site_fract_x
_atom_site_fract_y
_atom_site_fract_z
O1	O	0.395337	0.508352	-0.017165
O2	O	0.311533	0.390338	0.017047
O3	O	0.311532	0.508347	-0.100966
O4	O	0.395338	0.390343	0.100848
O5	O	0.407383	0.412496	-0.100966
O6	O	0.407385	0.294486	0.017047
O7	O	0.491188	0.412501	-0.017165
Zn8	Zn	0.464505	0.338275	-0.000059
Zn9	Zn	0.338217	0.464564	-0.000059
O10	O	0.491190	0.294491	0.100848
C11	C	0.492069	0.517024	-0.024955
C12	C	0.456508	0.476564	-0.020056
C13	C	0.457225	0.586871	-0.025446
C14	C	0.596426	0.517029	-0.024963
C15	C	0.672444	0.476574	-0.020071
C16	C	0.561423	0.586876	-0.025453
C17	C	0.492066	0.621388	-0.024963
C18	C	0.456503	0.692515	-0.020072
C19	C	0.561426	0.482670	-0.025445
C20	C	0.144180	0.212796	0.035745
C21	C	0.068161	0.253253	0.030849
C22	C	0.179181	0.142952	0.036231
C23	C	0.248541	0.212793	0.035749
C24	C	0.284105	0.253247	0.030857
C25	C	0.283384	0.142949	0.036234
C26	C	0.248539	0.108436	0.035744
C27	C	0.284101	0.037313	0.030848
C28	C	0.179183	0.247149	0.036235
C29	C	0.312831	-0.020147	0.026891
C30	C	0.006745	0.285940	0.026893
C31	C	0.312836	0.285932	0.026904
C32	C	0.348875	-0.092233	0.021928
C33	C	-0.070304	0.326947	0.021930
C34	C	0.348881	0.326935	0.021946
C35	C	0.248542	0.590048	-0.445864
C36	C	0.284105	0.549592	-0.481426
C37	C	0.179185	0.659893	-0.480706
C38	C	0.248543	0.590048	-0.341505
C39	C	0.284105	0.549591	-0.265486
C40	C	0.179186	0.659892	-0.376505
C41	C	0.144184	0.694407	-0.445862
C42	C	0.068165	0.765531	-0.481424
C43	C	0.283386	0.555692	-0.376507
C44	C	0.006749	0.822992	-0.510153
C45	C	0.312835	0.516906	-0.510157
C46	C	0.312836	0.516905	-0.204070
C47	C	-0.070299	0.895079	-0.546195
C48	C	0.348879	0.475901	-0.546201
C49	C	0.348880	0.475899	-0.127021
O50	O	0.903642	0.294496	0.017034
O51	O	0.701827	0.412510	-0.017179
O52	O	0.819823	0.294507	0.100834
O53	O	0.785647	0.412500	-0.100980
O54	O	0.819820	0.390363	0.100826
O55	O	0.701825	0.508367	-0.017187
O56	O	0.903640	0.390353	0.017026
Zn57	Zn	0.802732	0.464579	-0.000082
Zn58	Zn	0.802735	0.338284	-0.000072
O59	O	0.785645	0.508356	-0.100988
O60	O	0.407380	0.886609	0.017032
O61	O	0.491183	0.719006	-0.017180
O62	O	0.491179	0.718990	0.100833
O63	O	0.407384	0.886626	-0.100981
O64	O	0.395324	0.718997	0.100825
O65	O	0.395328	0.719013	-0.017189
O66	O	0.311525	0.886616	0.017023
Zn67	Zn	0.338208	0.802816	-0.000084
Zn68	Zn	0.464500	0.802807	-0.000073
O69	O	0.311529	0.886633	-0.100990
O70	O	-0.298164	1.083846	-0.592645
O71	O	-0.096352	0.916232	-0.508846
O72	O	-0.214355	0.916226	-0.508835
O73	O	-0.180162	1.083851	-0.592657
O74	O	-0.214358	0.916229	-0.604687
O75	O	-0.096355	0.916235	-0.604698
O76	O	-0.298167	1.083848	-0.688498
Zn77	Zn	-0.197262	1.000042	-0.661816
Zn78	Zn	-0.197258	1.000038	-0.535527
O79	O	-0.180165	1.083854	-0.688509
O80	O	0.395343	0.390338	-0.688506
O81	O	0.311531	0.508348	-0.604703
O82	O	0.311535	0.390336	-0.604694
O83	O	0.395339	0.508350	-0.688516
O84	O	0.407385	0.294486	-0.508843
O85	O	0.407381	0.412499	-0.508852
O86	O	0.491192	0.294489	-0.592655
Zn87	Zn	0.464505	0.338275	-0.535535
Zn88	Zn	0.338219	0.464561	-0.661823
O89	O	0.491188	0.412501	-0.592665
C90	C	0.596434	0.181464	0.310607
C91	C	0.672452	0.110340	0.346167
C92	C	0.561433	0.215977	0.345451
C93	C	0.492074	0.285824	0.206249
C94	C	0.456511	0.326281	0.130231
C95	C	0.457232	0.320178	0.241252
C96	C	0.492076	0.285822	0.310609
C97	C	0.456514	0.326278	0.346172
C98	C	0.561432	0.215979	0.241250
C99	C	0.827558	0.285874	0.310579
C100	C	0.822657	0.326338	0.346134
C101	C	0.828037	0.216033	0.345424
C102	C	0.827581	0.285857	0.206228
C103	C	0.822704	0.326303	0.130212
C104	C	0.828060	0.216016	0.241232
C105	C	0.827556	0.181512	0.310586
C106	C	0.822653	0.110392	0.346150
C107	C	0.828061	0.320219	0.241225
C108	C	0.492049	0.516999	0.310585
C109	C	0.456483	0.476542	0.346144
C110	C	0.561406	0.482637	0.345432
C111	C	0.492056	0.621365	0.206230
C112	C	0.456497	0.692497	0.130211
C113	C	0.561413	0.586845	0.241235
C114	C	0.596411	0.516994	0.310592
C115	C	0.672429	0.476531	0.346157
C116	C	0.457209	0.586850	0.241228
C117	C	0.767008	0.694370	-0.445874
C118	C	0.771907	0.765494	-0.481439
C119	C	0.766532	0.659846	-0.480711
C120	C	0.766988	0.590021	-0.341515
C121	C	0.771866	0.549575	-0.265499
C122	C	0.766513	0.555656	-0.376510
C123	C	0.767016	0.590002	-0.445864
C124	C	0.771922	0.549535	-0.481419
C125	C	0.766505	0.659865	-0.376520
C126	C	0.775888	0.516841	-0.510143
C127	C	0.775866	0.822954	-0.510172
C128	C	0.775807	0.516897	-0.204085
C129	C	0.780861	0.475826	-0.546179
C130	C	0.780831	0.895041	-0.546218
C131	C	0.780751	0.475902	-0.127038
O132	O	0.785538	0.412580	0.491094
O133	O	0.819754	0.294557	0.407303
O134	O	0.701742	0.412581	0.407278
O135	O	0.903550	0.294556	0.491119
O136	O	0.701764	0.508421	0.311429
O137	O	0.819776	0.390397	0.311454
O138	O	0.785560	0.508420	0.395245
Zn139	Zn	0.802672	0.464625	0.338131
Zn140	Zn	0.802642	0.338352	0.464416
O141	O	0.903572	0.390396	0.395270
C142	C	0.144201	1.212852	-0.445886
C143	C	0.068183	1.253315	-0.481452
C144	C	0.179207	1.247208	-0.480725
C145	C	0.248556	1.108480	-0.341524
C146	C	0.284114	1.037348	-0.265505
C147	C	0.283403	1.142994	-0.376522
C148	C	0.248564	1.212846	-0.445879
C149	C	0.284130	1.253302	-0.481436
C150	C	0.179199	1.143000	-0.376529
C151	C	0.312864	1.285987	-0.510163
C152	C	0.006767	1.286005	-0.510185
C153	C	0.312841	0.979882	-0.204089
C154	C	0.348911	1.326992	-0.546202
C155	C	-0.070281	1.327017	-0.546232
C156	C	0.348881	0.907786	-0.127040
H157	H	0.400239	0.615751	-0.026226
H158	H	0.151080	0.303349	0.037024
C159	C	0.829060	0.177034	0.422397
H160	H	0.829259	0.207623	0.438220
H161	H	0.870203	0.122669	0.451390
H162	H	0.788330	0.176767	0.425060
H163	H	0.589533	0.187079	0.402442
C164	C	0.599389	0.176968	0.203280
H165	H	0.568590	0.207551	0.156874
H166	H	0.612608	0.122603	0.228667
H167	H	0.640383	0.176703	0.200863
C168	C	0.599368	0.406709	0.422414
H169	H	0.645771	0.391106	0.438244
H170	H	0.601778	0.363301	0.425103
H171	H	0.573978	0.418887	0.451389
C172	C	0.380225	0.625886	0.203265
H173	H	0.364390	0.595310	0.234057
H174	H	0.377527	0.626189	0.162255
H175	H	0.351259	0.680243	0.190073
C176	C	0.380249	0.396100	0.203295
H177	H	0.364417	0.411714	0.156888
H178	H	0.377557	0.439505	0.200894
H179	H	0.351279	0.383908	0.228686
C180	C	0.599383	0.625861	0.203282
H181	H	0.645788	0.595275	0.234084
H182	H	0.573997	0.680223	0.190071
H183	H	0.601799	0.626138	0.162283
C184	C	0.829126	0.176986	0.203279
H185	H	0.829353	0.207556	0.156872
H186	H	0.788410	0.176700	0.200875
H187	H	0.870283	0.122623	0.228673
H188	H	0.828835	0.376431	0.213118
H189	H	0.765731	0.499450	-0.348402
C190	C	0.599394	0.406745	-0.026502
H191	H	0.645799	0.391140	-0.026722
H192	H	0.574007	0.418916	-0.067648
H193	H	0.601810	0.363331	0.014227
C194	C	0.765486	0.698857	-0.557691
H195	H	0.765277	0.745478	-0.573523
H196	H	0.724336	0.714623	-0.586666
H197	H	0.806209	0.660536	-0.560371
C198	C	0.141226	0.698922	-0.338549
H199	H	0.172021	0.668348	-0.292143
H200	H	0.100220	0.699218	-0.336145
H201	H	0.128031	0.753282	-0.363944
H202	H	0.340371	0.114065	0.037019
H203	H	0.151078	0.114066	0.037019
H204	H	0.765714	0.688759	-0.348426
C205	C	0.360393	1.103952	-0.338567
H206	H	0.376223	1.057319	-0.292163
H207	H	0.363105	1.142249	-0.336158
H208	H	0.389351	1.088185	-0.363966
C209	C	0.141256	1.323134	-0.557709
H210	H	0.172062	1.338733	-0.573534
H211	H	0.100258	1.366546	-0.560402
H212	H	0.128050	1.310956	-0.586685
C213	C	0.599378	0.625907	-0.026525
H214	H	0.645785	0.595332	-0.026745
H215	H	0.601777	0.626203	0.014185
H216	H	0.573988	0.680267	-0.067690
C217	C	0.141221	0.698915	-0.557687
H218	H	0.172011	0.668332	-0.573516
H219	H	0.128014	0.753276	-0.586664
H220	H	0.100219	0.699195	-0.560368
C221	C	0.141234	1.103981	-0.338569
H222	H	0.094827	1.134563	-0.369364
H223	H	0.138836	1.103685	-0.297563
H224	H	0.166617	1.049621	-0.325371
H225	H	0.340366	0.499475	-0.348402
