data_functionalizedCrystal
_audit_creation_method	'MofGen! by Chris Wilmer'
_symmetry_space_group_name_H-M	'P1'
_symmetry_Int_Tables_number	1
_symmetry_cell_setting	triclinic
loop_
_symmetry_equiv_pos_as_xyz
  x,y,z
_cell_length_a	21.395362
_cell_length_b	29.839131
_cell_length_c	21.395355
_cell_angle_alpha	90.020172
_cell_angle_beta	90.043940
_cell_angle_gamma	90.057297
loop_
_atom_site_label
_atom_site_type_symbol
_atom_site_fract_x
_atom_site_fract_y
_atom_site_fract_z
Zn1	Zn	0.957813	-0.178715	0.354578
Zn2	Zn	1.207813	0.071285	0.604578
Zn3	Zn	1.457813	0.321285	0.854578
Zn4	Zn	1.707813	0.571285	1.104578
Zn5	Zn	0.957696	-0.253830	0.249798
Zn6	Zn	1.207696	-0.003830	0.499798
Zn7	Zn	1.457696	0.246170	0.749798
Zn8	Zn	1.707696	0.496170	0.999798
Zn9	Zn	0.853028	-0.178736	0.249780
Zn10	Zn	1.103028	0.071264	0.499780
Zn11	Zn	1.353028	0.321264	0.749780
Zn12	Zn	1.603028	0.571264	0.999780
Zn13	Zn	0.852977	-0.253840	0.354503
Zn14	Zn	1.102977	-0.003840	0.604503
Zn15	Zn	1.352977	0.246160	0.854503
Zn16	Zn	1.602977	0.496160	1.104503
O17	O	0.905378	-0.216280	0.302165
O18	O	1.155378	0.033720	0.552165
O19	O	1.405378	0.283720	0.802165
O20	O	1.655378	0.533720	1.052165
O21	O	1.045475	-0.188667	0.340718
O22	O	1.295475	0.061333	0.590718
O23	O	1.545475	0.311333	0.840718
O24	O	1.795475	0.561333	1.090718
O25	O	0.943783	-0.243874	0.162117
O26	O	1.193783	0.006126	0.412117
O27	O	1.443783	0.256126	0.662117
O28	O	1.693783	0.506126	0.912117
O29	O	0.866998	-0.115866	0.263706
O30	O	1.116998	0.134134	0.513706
O31	O	1.366998	0.384134	0.763706
O32	O	1.616998	0.634134	1.013706
O33	O	1.045389	-0.243853	0.263737
O34	O	1.295389	0.006147	0.513737
O35	O	1.545389	0.256147	0.763737
O36	O	1.795389	0.506147	1.013737
O37	O	0.943983	-0.115851	0.340701
O38	O	1.193983	0.134149	0.590701
O39	O	1.443983	0.384149	0.840701
O40	O	1.693983	0.634149	1.090701
O41	O	0.866884	-0.188702	0.162104
O42	O	1.116884	0.061298	0.412104
O43	O	1.366884	0.311298	0.662104
O44	O	1.616884	0.561298	0.912104
O45	O	0.765343	-0.188711	0.263632
O46	O	1.015343	0.061289	0.513632
O47	O	1.265343	0.311289	0.763632
O48	O	1.515343	0.561289	1.013632
O49	O	0.866912	-0.243869	0.442191
O50	O	1.116912	0.006131	0.692191
O51	O	1.366912	0.256131	0.942191
O52	O	1.616912	0.506131	1.192191
O53	O	0.765306	-0.243889	0.340571
O54	O	1.015306	0.006111	0.590571
O55	O	1.265306	0.256111	0.840571
O56	O	1.515306	0.506111	1.090571
O57	O	0.943934	-0.188676	0.442246
O58	O	1.193934	0.061324	0.692246
O59	O	1.443934	0.311324	0.942246
O60	O	1.693934	0.561324	1.192246
O61	O	0.943735	-0.316699	0.263663
O62	O	1.193735	-0.066699	0.513663
O63	O	1.443735	0.183301	0.763663
O64	O	1.693735	0.433301	1.013663
O65	O	0.866798	-0.316705	0.340589
O66	O	1.116798	-0.066705	0.590589
O67	O	1.366798	0.183295	0.840589
O68	O	1.616798	0.433295	1.090589
C69	C	0.742591	-0.216304	0.302092
C70	C	0.992591	0.033696	0.552092
C71	C	1.242591	0.283696	0.802092
C72	C	1.492591	0.533696	1.052092
C73	C	0.672950	-0.216325	0.302076
C74	C	0.922950	0.033675	0.552076
C75	C	1.172950	0.283675	0.802076
C76	C	1.422950	0.533675	1.052076
C77	C	0.640233	-0.245094	0.342078
C78	C	0.890233	0.004906	0.592078
C79	C	1.140233	0.254906	0.842078
C80	C	1.390233	0.504906	1.092078
C81	C	0.574798	-0.245083	0.342106
C82	C	0.824798	0.004917	0.592106
C83	C	1.074798	0.254917	0.842106
C84	C	1.324798	0.504917	1.092106
C85	C	0.542081	-0.216308	0.302120
C86	C	0.792081	0.033692	0.552120
C87	C	1.042081	0.283692	0.802120
C88	C	1.292081	0.533692	1.052120
C89	C	0.574805	-0.187533	0.262115
C90	C	0.824805	0.062467	0.512115
C91	C	1.074805	0.312467	0.762115
C92	C	1.324805	0.562467	1.012115
C93	C	0.640239	-0.187541	0.262093
C94	C	0.890239	0.062459	0.512093
C95	C	1.140239	0.312459	0.762093
C96	C	1.390239	0.562459	1.012093
C97	C	0.438357	-0.212688	0.245715
C98	C	0.688357	0.037312	0.495715
C99	C	0.938357	0.287312	0.745715
C100	C	1.188357	0.537312	0.995715
C101	C	0.372925	-0.212683	0.245736
C102	C	0.622925	0.037317	0.495736
C103	C	0.872925	0.287317	0.745736
C104	C	1.122925	0.537317	0.995736
C105	C	0.340261	-0.216278	0.302189
C106	C	0.590261	0.033722	0.552189
C107	C	0.840261	0.283722	0.802189
C108	C	1.090261	0.533722	1.052189
C109	C	0.373038	-0.219889	0.358623
C110	C	0.623038	0.030111	0.608623
C111	C	0.873038	0.280111	0.858623
C112	C	1.123038	0.530111	1.108623
C113	C	0.438472	-0.219897	0.358601
C114	C	0.688472	0.030103	0.608601
C115	C	0.938472	0.280103	0.858601
C116	C	1.188472	0.530103	1.108601
C117	C	0.471129	-0.216295	0.302140
C118	C	0.721129	0.033705	0.552140
C119	C	0.971129	0.283705	0.802140
C120	C	1.221129	0.533705	1.052140
C121	C	0.236592	-0.245037	0.342226
C122	C	0.486592	0.004963	0.592226
C123	C	0.736592	0.254963	0.842226
C124	C	0.986592	0.504963	1.092226
C125	C	0.171155	-0.245023	0.342254
C126	C	0.421155	0.004977	0.592254
C127	C	0.671155	0.254977	0.842254
C128	C	0.921155	0.504977	1.092254
C129	C	0.171164	-0.187475	0.262258
C130	C	0.421164	0.062525	0.512258
C131	C	0.671164	0.312525	0.762258
C132	C	0.921164	0.562525	1.012258
C133	C	0.236599	-0.187487	0.262235
C134	C	0.486599	0.062513	0.512235
C135	C	0.736599	0.312513	0.762235
C136	C	0.986599	0.562513	1.012235
C137	C	0.269309	-0.216270	0.302218
C138	C	0.519309	0.033730	0.552218
C139	C	0.769309	0.283730	0.802218
C140	C	1.019309	0.533730	1.052218
C141	C	0.905265	-0.333003	0.302133
C142	C	1.155265	-0.083003	0.552133
C143	C	1.405265	0.166997	0.802133
C144	C	1.655265	0.416997	1.052133
C145	C	0.905274	-0.382937	0.302141
C146	C	1.155274	-0.132937	0.552141
C147	C	1.405274	0.117063	0.802141
C148	C	1.655274	0.367063	1.052141
C149	C	0.945512	-0.692564	0.262168
C150	C	1.195512	-0.442564	0.512168
C151	C	1.445512	-0.192564	0.762168
C152	C	1.695512	0.057436	1.012168
C153	C	0.945589	-0.880237	0.262192
C154	C	1.195589	-0.630237	0.512192
C155	C	1.445589	-0.380237	0.762192
C156	C	1.695589	-0.130237	1.012192
O157	O	0.979711	-0.904488	0.228181
O158	O	1.229711	-0.654488	0.478181
O159	O	1.479711	-0.404488	0.728181
O160	O	1.729711	-0.154488	0.978181
N161	N	0.905508	-0.903722	0.302212
N162	N	1.155508	-0.653722	0.552212
N163	N	1.405508	-0.403722	0.802212
N164	N	1.655508	-0.153722	1.052212
C165	C	0.865408	-0.880286	0.342231
C166	C	1.115408	-0.630286	0.592231
C167	C	1.365408	-0.380286	0.842231
C168	C	1.615408	-0.130286	1.092231
O169	O	0.831323	-0.904567	0.376276
O170	O	1.081323	-0.654567	0.626276
O171	O	1.331323	-0.404567	0.876276
O172	O	1.581323	-0.154567	1.126276
C173	C	0.865334	-0.692614	0.342210
C174	C	1.115334	-0.442614	0.592210
C175	C	1.365334	-0.192614	0.842210
C176	C	1.615334	0.057386	1.092210
C177	C	0.905414	-0.669131	0.302183
C178	C	1.155414	-0.419131	0.552183
C179	C	1.405414	-0.169131	0.802183
C180	C	1.655414	0.080869	1.052183
C181	C	0.985588	-0.669082	0.222145
C182	C	1.235588	-0.419082	0.472145
C183	C	1.485588	-0.169082	0.722145
C184	C	1.735588	0.080918	0.972145
C185	C	0.985566	-0.622166	0.222136
C186	C	1.235566	-0.372166	0.472136
C187	C	1.485566	-0.122166	0.722136
C188	C	1.735566	0.127834	0.972136
C189	C	0.945468	-0.598733	0.262152
C190	C	1.195468	-0.348733	0.512152
C191	C	1.445468	-0.098733	0.762152
C192	C	1.695468	0.151267	1.012152
C193	C	0.905391	-0.622216	0.302175
C194	C	1.155391	-0.372216	0.552175
C195	C	1.405391	-0.122216	0.802175
C196	C	1.655391	0.127784	1.052175
C197	C	0.825238	-0.669178	0.382232
C198	C	1.075238	-0.419178	0.632232
C199	C	1.325238	-0.169178	0.882232
C200	C	1.575238	0.080822	1.132232
C201	C	0.825224	-0.622257	0.382224
C202	C	1.075224	-0.372257	0.632224
C203	C	1.325224	-0.122257	0.882224
C204	C	1.575224	0.127743	1.132224
C205	C	0.865303	-0.598775	0.342197
C206	C	1.115303	-0.348775	0.592197
C207	C	1.365303	-0.098775	0.842197
C208	C	1.615303	0.151225	1.092197
C209	C	0.865271	-0.551867	0.342182
C210	C	1.115271	-0.301867	0.592182
C211	C	1.365271	-0.051867	0.842182
C212	C	1.615271	0.198133	1.092182
N213	N	0.905352	-0.528383	0.302162
N214	N	1.155352	-0.278383	0.552162
N215	N	1.405352	-0.028383	0.802162
N216	N	1.655352	0.221617	1.052162
C217	C	0.945450	-0.551816	0.262147
C218	C	1.195450	-0.301816	0.512147
C219	C	1.445450	-0.051816	0.762147
C220	C	1.695450	0.198184	1.012147
C221	C	0.865449	-0.978816	0.342239
C222	C	1.115449	-0.728816	0.592239
C223	C	1.365449	-0.478816	0.842239
C224	C	1.615449	-0.228816	1.092239
C225	C	0.865466	-1.025734	0.342244
C226	C	1.115466	-0.775734	0.592244
C227	C	1.365466	-0.525734	0.842244
C228	C	1.615466	-0.275734	1.092244
C229	C	0.945649	-1.025683	0.262205
C230	C	1.195649	-0.775683	0.512205
C231	C	1.445649	-0.525683	0.762205
C232	C	1.695649	-0.275683	1.012205
C233	C	0.945627	-0.978764	0.262198
C234	C	1.195627	-0.728764	0.512198
C235	C	1.445627	-0.478764	0.762198
C236	C	1.695627	-0.228764	1.012198
C237	C	0.905530	-0.955332	0.302219
C238	C	1.155530	-0.705332	0.552219
C239	C	1.405530	-0.455332	0.802219
C240	C	1.655530	-0.205332	1.052219
C241	C	0.945400	-0.453290	0.262132
C242	C	1.195400	-0.203290	0.512132
C243	C	1.445400	0.046710	0.762132
C244	C	1.695400	0.296710	1.012132
C245	C	0.945373	-0.406370	0.262126
C246	C	1.195373	-0.156370	0.512126
C247	C	1.445373	0.093630	0.762126
C248	C	1.695373	0.343630	1.012126
C249	C	0.865193	-0.406426	0.342167
C250	C	1.115193	-0.156426	0.592167
C251	C	1.365193	0.093574	0.842167
C252	C	1.615193	0.343574	1.092167
C253	C	0.865218	-0.453342	0.342171
C254	C	1.115218	-0.203342	0.592171
C255	C	1.365218	0.046658	0.842171
C256	C	1.615218	0.296658	1.092171
C257	C	0.905327	-0.476772	0.302152
C258	C	1.155327	-0.226772	0.552152
C259	C	1.405327	0.023228	0.802152
C260	C	1.655327	0.273228	1.052152
O261	O	0.831172	-0.527587	0.376180
O262	O	1.081172	-0.277587	0.626180
O263	O	1.331172	-0.027587	0.876180
O264	O	1.581172	0.222413	1.126180
O265	O	0.979540	-0.527526	0.228117
O266	O	1.229540	-0.277526	0.478117
O267	O	1.479540	-0.027526	0.728117
O268	O	1.729540	0.222474	0.978117
C269	C	0.945534	-0.739480	0.262176
C270	C	1.195534	-0.489480	0.512176
C271	C	1.445534	-0.239480	0.762176
C272	C	1.695534	0.010520	1.012176
C273	C	0.905458	-0.762962	0.302199
C274	C	1.155458	-0.512962	0.552199
C275	C	1.405458	-0.262962	0.802199
C276	C	1.655458	-0.012962	1.052199
C277	C	0.865359	-0.739529	0.342214
C278	C	1.115359	-0.489529	0.592214
C279	C	1.365359	-0.239529	0.842214
C280	C	1.615359	0.010471	1.092214
C281	C	0.905475	-0.809880	0.302204
C282	C	1.155475	-0.559880	0.552204
C283	C	1.405475	-0.309880	0.802204
C284	C	1.655475	-0.059880	1.052204
C285	C	0.945574	-0.833313	0.262189
C286	C	1.195574	-0.583313	0.512189
C287	C	1.445574	-0.333313	0.762189
C288	C	1.695574	-0.083313	1.012189
C289	C	0.985655	-0.809828	0.222169
C290	C	1.235655	-0.559828	0.472169
C291	C	1.485655	-0.309828	0.722169
C292	C	1.735655	-0.059828	0.972169
C293	C	0.985633	-0.762913	0.222161
C294	C	1.235633	-0.512913	0.472161
C295	C	1.485633	-0.262913	0.722161
C296	C	1.735633	-0.012913	0.972161
C297	C	0.825278	-0.763014	0.382234
C298	C	1.075278	-0.513014	0.632234
C299	C	1.325278	-0.263014	0.882234
C300	C	1.575278	-0.013014	1.132234
C301	C	0.825303	-0.809929	0.382238
C302	C	1.075303	-0.559929	0.632238
C303	C	1.325303	-0.309929	0.882238
C304	C	1.575303	-0.059929	1.132238
C305	C	0.865402	-0.833362	0.342223
C306	C	1.115402	-0.583362	0.592223
C307	C	1.365402	-0.333362	0.842223
C308	C	1.615402	-0.083362	1.092223
C309	C	1.068802	-0.216257	0.302238
C310	C	1.318802	0.033743	0.552238
C311	C	1.568802	0.283743	0.802238
C312	C	1.818802	0.533743	1.052238
C313	C	1.138443	-0.216247	0.302269
C314	C	1.388443	0.033753	0.552269
C315	C	1.638443	0.283753	0.802269
C316	C	1.888443	0.533753	1.052269
C317	C	0.905431	-0.216271	0.465588
C318	C	1.155431	0.033729	0.715588
C319	C	1.405431	0.283729	0.965588
C320	C	1.655431	0.533729	1.215588
C321	C	0.905453	-0.216267	0.535229
C322	C	1.155453	0.033733	0.785229
C323	C	1.405453	0.283733	1.035229
C324	C	1.655453	0.533733	1.285229
C325	C	0.905509	-0.099102	0.302210
C326	C	1.155509	0.150898	0.552210
C327	C	1.405509	0.400898	0.802210
C328	C	1.655509	0.650898	1.052210
C329	C	0.905565	-0.049167	0.302229
C330	C	1.155565	0.200833	0.552229
C331	C	1.405565	0.450833	0.802229
C332	C	1.655565	0.700833	1.052229
C333	C	0.905363	-0.216257	0.139377
C334	C	1.155363	0.033743	0.389377
C335	C	1.405363	0.283743	0.639377
C336	C	1.655363	0.533743	0.889377
C337	C	0.905462	-0.216134	0.069736
C338	C	1.155462	0.033866	0.319736
C339	C	1.405462	0.283866	0.569736
C340	C	1.655462	0.533866	0.819736
C341	C	0.945556	-0.187527	0.567972
C342	C	1.195556	0.062473	0.817972
C343	C	1.445556	0.312473	1.067972
C344	C	1.695556	0.562473	1.317972
C345	C	0.945556	-0.187507	0.633408
C346	C	1.195556	0.062493	0.883408
C347	C	1.445556	0.312493	1.133408
C348	C	1.695556	0.562493	1.383408
C349	C	0.905458	-0.216237	0.666098
C350	C	1.155458	0.033763	0.916098
C351	C	1.405458	0.283763	1.166098
C352	C	1.655458	0.533763	1.416098
C353	C	0.865346	-0.244979	0.633347
C354	C	1.115346	0.005021	0.883347
C355	C	1.365346	0.255021	1.133347
C356	C	1.615346	0.505021	1.383347
C357	C	0.865344	-0.244994	0.567912
C358	C	1.115344	0.005006	0.817912
C359	C	1.365344	0.255006	1.067912
C360	C	1.615344	0.505006	1.317912
C361	C	0.900471	-0.256689	0.769760
C362	C	1.150471	-0.006689	1.019760
C363	C	1.400471	0.243311	1.269760
C364	C	1.650471	0.493311	1.519760
C365	C	0.900478	-0.256674	0.835193
C366	C	1.150478	-0.006674	1.085193
C367	C	1.400478	0.243326	1.335193
C368	C	1.650478	0.493326	1.585193
C369	C	0.905461	-0.216189	0.867918
C370	C	1.155461	0.033811	1.117918
C371	C	1.405461	0.283811	1.367918
C372	C	1.655461	0.533811	1.617918
C373	C	0.910451	-0.175717	0.835203
C374	C	1.160451	0.074283	1.085203
C375	C	1.410451	0.324283	1.335203
C376	C	1.660451	0.574283	1.585203
C377	C	0.910449	-0.175733	0.769769
C378	C	1.160449	0.074267	1.019769
C379	C	1.410449	0.324267	1.269769
C380	C	1.660449	0.574267	1.519769
C381	C	0.905455	-0.216223	0.737050
C382	C	1.155455	0.033777	0.987050
C383	C	1.405455	0.283777	1.237050
C384	C	1.655455	0.533777	1.487050
C385	C	0.945566	-0.187425	0.971614
C386	C	1.195566	0.062575	1.221614
C387	C	1.445566	0.312575	1.471614
C388	C	1.695566	0.562575	1.721614
C389	C	0.945561	-0.187405	1.037051
C390	C	1.195561	0.062595	1.287051
C391	C	1.445561	0.312595	1.537051
C392	C	1.695561	0.562595	1.787051
C393	C	0.865355	-0.244881	1.036988
C394	C	1.115355	0.005119	1.286988
C395	C	1.365355	0.255119	1.536988
C396	C	1.615355	0.505119	1.786988
C397	C	0.865357	-0.244897	0.971553
C398	C	1.115357	0.005103	1.221553
C399	C	1.365357	0.255103	1.471553
C400	C	1.615357	0.505103	1.721553
C401	C	0.905466	-0.216170	0.938870
C402	C	1.155466	0.033830	1.188870
C403	C	1.405466	0.283830	1.438870
C404	C	1.655466	0.533830	1.688870
H405	H	0.548156	-0.268511	0.374683
H406	H	0.798156	-0.018511	0.624683
H407	H	1.048156	0.231489	0.874683
H408	H	1.298156	0.481489	1.124683
H409	H	0.666876	-0.164112	0.229518
H410	H	0.916876	0.085888	0.479518
H411	H	1.166876	0.335888	0.729518
H412	H	1.416876	0.585888	0.979518
H413	H	0.263226	-0.268472	0.374785
H414	H	0.513226	-0.018472	0.624785
H415	H	0.763226	0.231528	0.874785
H416	H	1.013226	0.481528	1.124785
Br417	Br	0.684623	-0.284156	0.396342
Br418	Br	0.934623	-0.034156	0.646342
Br419	Br	1.184623	0.215844	0.896342
Br420	Br	1.434623	0.465844	1.146342
Br421	Br	1.000002	-0.148403	1.081490
Br422	Br	1.250002	0.101597	1.331490
Br423	Br	1.500002	0.351597	1.581490
Br424	Br	1.750002	0.601597	1.831490
Br425	Br	0.893715	-0.311599	0.879586
Br426	Br	1.143715	-0.061599	1.129586
Br427	Br	1.393715	0.188401	1.379586
Br428	Br	1.643715	0.438401	1.629586
Br429	Br	0.999768	-0.374504	0.207799
Br430	Br	1.249768	-0.124504	0.457799
Br431	Br	1.499768	0.125496	0.707799
Br432	Br	1.749768	0.375496	0.957799
H433	H	1.018245	-0.688156	0.189559
H434	H	1.268245	-0.438156	0.439559
H435	H	1.518245	-0.188156	0.689559
H436	H	1.768245	0.061844	0.939559
Br437	Br	0.810922	-0.283966	0.677709
Br438	Br	1.060922	-0.033966	0.927709
Br439	Br	1.310922	0.216034	1.177709
Br440	Br	1.560922	0.466034	1.427709
H441	H	0.792573	-0.603181	0.414816
H442	H	1.042573	-0.353181	0.664816
H443	H	1.292573	-0.103181	0.914816
H444	H	1.542573	0.146819	1.164816
Br445	Br	0.810927	-0.283866	1.081346
Br446	Br	1.060927	-0.033866	1.331346
Br447	Br	1.310927	0.216134	1.581346
Br448	Br	1.560927	0.466134	1.831346
H449	H	0.346242	-0.209746	0.199785
H450	H	0.596242	0.040254	0.449785
H451	H	0.846242	0.290254	0.699785
H452	H	1.096242	0.540254	0.949785
H453	H	0.896245	-0.289648	0.743120
H454	H	1.146245	-0.039648	0.993120
H455	H	1.396245	0.210352	1.243120
H456	H	1.646245	0.460352	1.493120
Br457	Br	0.770848	-0.701035	0.436564
Br458	Br	1.020848	-0.451035	0.686564
Br459	Br	1.270848	-0.201035	0.936564
Br460	Br	1.520848	0.048965	1.186564
Br461	Br	0.770903	-0.841793	0.436564
Br462	Br	1.020903	-0.591793	0.686564
Br463	Br	1.270903	-0.341793	0.936564
Br464	Br	1.520903	-0.091793	1.186564
Br465	Br	0.482680	-0.207809	0.169093
Br466	Br	0.732680	0.042191	0.419093
Br467	Br	0.982680	0.292191	0.669093
Br468	Br	1.232680	0.542191	0.919093
H469	H	0.832683	-0.268398	0.541253
H470	H	1.082683	-0.018398	0.791253
H471	H	1.332683	0.231602	1.041253
H472	H	1.582683	0.481602	1.291253
Br473	Br	0.281003	-0.148440	0.207942
Br474	Br	0.531003	0.101560	0.457942
Br475	Br	0.781003	0.351560	0.707942
Br476	Br	1.031003	0.601560	0.957942
Br477	Br	0.126753	-0.284067	0.396554
Br478	Br	0.376753	-0.034067	0.646554
Br479	Br	0.626753	0.215933	0.896554
Br480	Br	0.876753	0.465933	1.146554
Br481	Br	0.482953	-0.224795	0.435185
Br482	Br	0.732953	0.025205	0.685185
Br483	Br	0.982953	0.275205	0.935185
Br484	Br	1.232953	0.525205	1.185185
Br485	Br	0.810928	-0.283905	0.927113
Br486	Br	1.060928	-0.033905	1.177113
Br487	Br	1.310928	0.216095	1.427113
Br488	Br	1.560928	0.466095	1.677113
Br489	Br	0.810810	-0.485212	0.396478
Br490	Br	1.060810	-0.235212	0.646478
Br491	Br	1.310810	0.014788	0.896478
Br492	Br	1.560810	0.264788	1.146478
H493	H	0.914510	-0.142779	0.743135
H494	H	1.164510	0.107221	0.993135
H495	H	1.414510	0.357221	1.243135
H496	H	1.664510	0.607221	1.493135
H497	H	0.346444	-0.222815	0.404593
H498	H	0.596444	0.027185	0.654593
H499	H	0.846444	0.277185	0.904593
H500	H	1.096444	0.527185	1.154593
H501	H	0.548163	-0.164102	0.229560
H502	H	0.798163	0.085898	0.479560
H503	H	1.048163	0.335898	0.729560
H504	H	1.298163	0.585898	0.979560
H505	H	0.978062	-0.472362	0.229546
H506	H	1.228062	-0.222362	0.479546
H507	H	1.478062	0.027638	0.729546
H508	H	1.728062	0.277638	0.979546
H509	H	0.144526	-0.164043	0.229704
H510	H	0.394526	0.085957	0.479704
H511	H	0.644526	0.335957	0.729704
H512	H	0.894526	0.585957	0.979704
H513	H	1.018269	-0.743797	0.189567
H514	H	1.268269	-0.493797	0.439567
H515	H	1.518269	-0.243797	0.689567
H516	H	1.768269	0.006203	0.939567
H517	H	0.914510	-0.142751	0.861847
H518	H	1.164510	0.107249	1.111847
H519	H	1.414510	0.357249	1.361847
H520	H	1.664510	0.607249	1.611847
Br521	Br	1.040071	-0.841640	0.167861
Br522	Br	1.290071	-0.591640	0.417861
Br523	Br	1.540071	-0.341640	0.667861
Br524	Br	1.790071	-0.091640	0.917861
H525	H	0.978263	-0.959647	0.229605
H526	H	1.228263	-0.709647	0.479605
H527	H	1.478263	-0.459647	0.729605
H528	H	1.728263	-0.209647	0.979605
Br529	Br	1.039971	-0.590305	0.167820
Br530	Br	1.289971	-0.340305	0.417820
Br531	Br	1.539971	-0.090305	0.667820
Br532	Br	1.789971	0.159695	0.917820
H533	H	0.978298	-1.044770	0.229623
H534	H	1.228298	-0.794770	0.479623
H535	H	1.478298	-0.544770	0.729623
H536	H	1.728298	-0.294770	0.979623
H537	H	0.832824	-1.044850	0.374832
H538	H	1.082824	-0.794850	0.624832
H539	H	1.332824	-0.544850	0.874832
H540	H	1.582824	-0.294850	1.124832
Br541	Br	0.811025	-0.947022	0.396559
Br542	Br	1.061025	-0.697022	0.646559
Br543	Br	1.311025	-0.447022	0.896559
Br544	Br	1.561025	-0.197022	1.146559
Br545	Br	0.810779	-0.374615	0.396473
Br546	Br	1.060779	-0.124615	0.646473
Br547	Br	1.310779	0.125385	0.896473
Br548	Br	1.560779	0.375385	1.146473
Br549	Br	0.999987	-0.148538	0.523619
Br550	Br	1.249987	0.101462	0.773619
Br551	Br	1.499987	0.351462	1.023619
Br552	Br	1.749987	0.601462	1.273619
H553	H	0.978222	-0.164031	0.945002
H554	H	1.228222	0.085969	1.195002
H555	H	1.478222	0.335969	1.445002
H556	H	1.728222	0.585969	1.695002
H557	H	0.792626	-0.743938	0.414820
H558	H	1.042626	-0.493938	0.664820
H559	H	1.292626	-0.243938	0.914820
H560	H	1.542626	0.006062	1.164820
Br561	Br	0.999970	-0.148488	0.677855
Br562	Br	1.249970	0.101512	0.927855
Br563	Br	1.499970	0.351512	1.177855
Br564	Br	1.749970	0.601512	1.427855
