data_functionalizedCrystal
_audit_creation_method	'MofGen! by Chris Wilmer'
_symmetry_space_group_name_H-M	'P1'
_symmetry_Int_Tables_number	1
_symmetry_cell_setting	triclinic
loop_
_symmetry_equiv_pos_as_xyz
  x,y,z
_cell_length_a	15.995343
_cell_length_b	15.538191
_cell_length_c	14.472310
_cell_angle_alpha	90.001031
_cell_angle_beta	89.991294
_cell_angle_gamma	114.619361
loop_
_atom_site_label
_atom_site_type_symbol
_atom_site_fract_x
_atom_site_fract_y
_atom_site_fract_z
O1	O	1.074110	-0.121382	-0.076742
O2	O	1.574110	0.378618	0.423258
O3	O	0.825775	-0.136384	-0.076764
O4	O	1.325775	0.363616	0.423236
O5	O	0.998283	0.008248	-0.076753
O6	O	1.498283	0.508248	0.423247
O7	O	0.901602	-0.266014	-0.076753
O8	O	1.401602	0.233986	0.423247
O9	O	0.998247	0.008239	0.076929
O10	O	1.498247	0.508239	0.576929
O11	O	0.825739	-0.136393	0.076918
O12	O	1.325739	0.363607	0.576918
O13	O	1.074074	-0.121391	0.076940
O14	O	1.574074	0.378609	0.576940
Cu15	Cu	0.949903	-0.128892	0.090962
Cu16	Cu	1.449903	0.371108	0.590962
Cu17	Cu	0.949946	-0.128882	-0.090785
Cu18	Cu	1.449946	0.371118	0.409215
O19	O	0.901566	-0.266023	0.076929
O20	O	1.401566	0.233977	0.576929
C21	C	0.794750	-0.135769	0.000075
C22	C	1.294750	0.364231	0.500075
C23	C	0.702363	-0.133914	0.000066
C24	C	1.202363	0.366086	0.500066
C25	C	0.533200	-0.130546	0.000078
C26	C	1.033200	0.369454	0.500078
C27	C	0.541585	-0.026144	0.000078
C28	C	1.041585	0.473856	0.500078
C29	C	0.445504	-0.024180	0.000432
C30	C	0.945504	0.475820	0.500432
C31	C	0.366649	-0.127229	0.000090
C32	C	0.866649	0.372771	0.500090
C33	C	0.379766	-0.179729	0.087675
C34	C	0.879766	0.320271	0.587675
C35	C	0.476182	-0.180967	0.087743
C36	C	0.976182	0.319033	0.587743
C37	C	0.475668	-0.182486	-0.087028
C38	C	0.975668	0.317514	0.412972
C39	C	0.380345	-0.178632	-0.088174
C40	C	0.880345	0.321368	0.411826
C41	C	0.272519	-0.125360	0.000099
C42	C	0.772519	0.374640	0.500099
C43	C	0.627329	-0.132418	0.000075
C44	C	1.127329	0.367582	0.500075
C45	C	1.008380	0.043339	0.000086
C46	C	1.508380	0.543339	0.500086
C47	C	1.038511	0.147914	0.000079
C48	C	1.538511	0.647914	0.500079
C49	C	1.105099	-0.122005	0.000100
C50	C	1.605099	0.377995	0.500100
C51	C	1.197486	-0.123861	0.000102
C52	C	1.697486	0.376139	0.500102
C53	C	0.891469	-0.301114	0.000088
C54	C	1.391469	0.198886	0.500088
C55	C	0.861338	-0.405689	0.000089
C56	C	1.361338	0.094311	0.500089
C57	C	0.739173	0.435695	0.000073
C58	C	1.239173	0.935695	0.500073
C59	C	0.767506	0.533962	0.000078
C60	C	1.267506	1.033962	0.500078
C61	C	0.926874	0.556410	0.000091
C62	C	1.426874	1.056410	0.500091
C63	C	0.898554	0.458143	0.000082
C64	C	1.398554	0.958143	0.500082
C65	C	0.804703	0.397793	0.000074
C66	C	1.304703	0.897793	0.500074
C67	C	0.964084	0.420241	0.000083
C68	C	1.464084	0.920241	0.500083
C69	C	0.935766	0.321983	0.000079
C70	C	1.435766	0.821983	0.500079
C71	C	0.841918	0.261627	0.000074
C72	C	1.341918	0.761627	0.500074
C73	C	0.776385	0.299535	0.000070
C74	C	1.276385	0.799535	0.500070
C75	C	1.057935	0.480593	0.000097
C76	C	1.557935	0.980593	0.500097
C77	C	1.123464	0.442690	0.000098
C78	C	1.623464	0.942690	0.500098
C79	C	1.095147	0.344430	0.000088
C80	C	1.595147	0.844430	0.500088
C81	C	1.001299	0.284074	0.000082
C82	C	1.501299	0.784074	0.500082
C83	C	1.160681	0.306522	0.000091
C84	C	1.660681	0.806522	0.500091
C85	C	1.132363	0.208264	0.000087
C86	C	1.632363	0.708264	0.500087
C87	C	0.972981	0.185816	0.000078
C88	C	1.472981	0.685816	0.500078
N89	N	0.949880	-0.128899	0.218792
N90	N	1.449880	0.371101	0.718792
N91	N	0.949978	-0.128869	-0.218616
N92	N	1.449978	0.371131	0.281384
C93	C	0.949946	-0.128879	0.592884
C94	C	1.449946	0.371121	1.092884
C95	C	0.857488	-0.206009	0.553712
C96	C	1.357488	0.293991	1.053712
C97	C	0.857562	-0.206290	0.446624
C98	C	1.357562	0.293710	0.946624
C99	C	0.949912	-0.128889	0.407293
C100	C	1.449912	0.371111	0.907293
C101	C	1.030753	-0.150354	0.446138
C102	C	1.530753	0.349646	0.946138
C103	C	1.030199	-0.150902	0.553259
C104	C	1.530199	0.349098	1.053259
C105	C	0.962411	-0.030055	0.553411
C106	C	1.462411	0.469945	1.053411
C107	C	0.960207	-0.030714	0.446283
C108	C	1.460207	0.469286	0.946283
C109	C	0.949900	-0.128892	0.302404
C110	C	1.449900	0.371108	0.802404
C111	C	0.949963	-0.128877	0.697772
C112	C	1.449963	0.371123	1.197772
H113	H	0.324537	-0.253822	-0.093734
H114	H	0.824537	0.246178	0.406266
H115	H	0.324869	-0.255570	0.090686
H116	H	0.824869	0.244430	0.590686
O117	O	1.028096	0.621507	0.000106
O118	O	1.528096	1.121507	0.500106
H119	H	1.060890	0.608035	-0.062528
H120	H	1.560890	1.108035	0.437472
H121	H	0.438988	0.016917	-0.062340
H122	H	0.938988	0.516917	0.437660
H123	H	0.439482	0.016717	0.063584
H124	H	0.939482	0.516717	0.563584
H125	H	0.466327	-0.259332	-0.087872
H126	H	0.966327	0.240668	0.412128
H127	H	0.896558	0.136675	0.000065
H128	H	1.396558	0.636675	0.500065
O129	O	0.367663	-0.132015	0.174350
O130	O	0.867663	0.367985	0.674350
H131	H	0.352309	-0.070921	0.155269
H132	H	0.852309	0.429079	0.655269
H133	H	1.237095	0.355673	0.000107
H134	H	1.737095	0.855673	0.500107
O135	O	0.526381	-0.138848	-0.174999
O136	O	1.026381	0.361152	0.325001
H137	H	0.593165	-0.079646	-0.157614
H138	H	1.093165	0.420354	0.342386
O139	O	0.811362	0.155645	0.000073
O140	O	1.311362	0.655645	0.500073
H141	H	0.838299	0.134581	-0.062568
H142	H	1.338299	0.634581	0.437432
O143	O	0.675158	0.234430	0.000060
O144	O	1.175158	0.734430	0.500060
H145	H	0.634344	0.277290	0.000063
H146	H	1.134344	0.777290	0.500063
H147	H	1.030186	0.027343	0.578741
H148	H	1.530186	0.527343	1.078741
O149	O	1.224688	0.507782	0.000109
O150	O	1.724688	1.007782	0.500109
H151	H	1.233372	0.582476	0.000109
H152	H	1.733372	1.082476	0.500109
O153	O	1.122426	-0.077922	0.412394
O154	O	1.622426	0.422078	0.912394
H155	H	1.157758	-0.114005	0.372441
H156	H	1.657758	0.385995	0.872441
H157	H	0.796509	-0.193501	0.420362
H158	H	1.296509	0.306499	0.920362
O159	O	0.888151	-0.002724	0.589234
O160	O	1.388151	0.497276	1.089234
H161	H	0.898466	0.067189	0.560411
H162	H	1.398466	0.567189	1.060411
H163	H	0.662750	0.386554	0.000060
H164	H	1.162750	0.886554	0.500060
H165	H	0.373421	-0.140399	-0.152971
H166	H	0.873421	0.359601	0.347029
O167	O	1.023071	-0.244738	0.410610
O168	O	1.523071	0.255262	0.910610
H169	H	0.961773	-0.276503	0.365297
H170	H	1.461773	0.223497	0.865297
H171	H	0.714137	0.564816	0.000090
H172	H	1.214137	1.064816	0.500090
H173	H	1.080988	0.560600	0.000092
H174	H	1.580988	1.060600	0.500092
H175	H	1.185723	0.177404	0.000089
H176	H	1.685723	0.677404	0.500089
O177	O	0.776242	-0.189370	0.587873
O178	O	1.276242	0.310630	1.087873
H179	H	0.800885	-0.125953	0.633140
H180	H	1.300885	0.374047	1.133140
H181	H	0.846390	-0.278932	0.580623
H182	H	1.346390	0.221068	1.080623
H183	H	0.846493	-0.279626	0.420991
H184	H	1.346493	0.220374	0.920991
O185	O	0.595977	0.026583	0.083154
O186	O	1.095977	0.526583	0.583154
H187	H	0.658056	0.088581	0.059716
H188	H	1.158056	0.588581	0.559716
H189	H	1.023777	-0.222974	0.578236
H190	H	1.523777	0.277026	1.078236
H191	H	1.099561	-0.096939	0.579169
H192	H	1.599561	0.403061	1.079169
O193	O	0.881641	-0.009124	0.412660
O194	O	1.381641	0.490876	0.912660
H195	H	0.842530	-0.001034	0.472877
H196	H	1.342530	0.498966	0.972877
O197	O	1.046668	0.048883	0.410850
O198	O	1.546668	0.548883	0.910850
H199	H	1.083821	0.019581	0.364693
H200	H	1.583821	0.519581	0.864693
H201	H	0.581905	0.014326	-0.062721
H202	H	1.081905	0.514326	0.437279
H203	H	0.513872	-0.145040	0.153464
H204	H	1.013872	0.354960	0.653464
H205	H	0.467486	-0.257528	0.091489
H206	H	0.967486	0.242472	0.591489
