data_functionalizedCrystal
_audit_creation_method	'MofGen! by Chris Wilmer'
_symmetry_space_group_name_H-M	'P1'
_symmetry_Int_Tables_number	1
_symmetry_cell_setting	triclinic
loop_
_symmetry_equiv_pos_as_xyz
  x,y,z
_cell_length_a	6.817900
_cell_length_b	11.102289
_cell_length_c	11.168136
_cell_angle_alpha	91.983379
_cell_angle_beta	108.508683
_cell_angle_gamma	108.605707
loop_
_atom_site_label
_atom_site_type_symbol
_atom_site_fract_x
_atom_site_fract_y
_atom_site_fract_z
V1	V	-4.110388	-0.175858	-0.393699
O2	O	-4.069442	0.008431	-0.386205
O3	O	-4.087173	-0.348678	-0.391006
O4	O	-4.086671	-0.173162	-0.565405
O5	O	-4.069948	-0.168301	-0.210599
V6	V	-4.587554	-0.153814	-0.371799
O7	O	-4.385590	-0.224214	-0.441739
O8	O	-4.762549	-0.105458	-0.323759
O9	O	-4.387563	0.019006	-0.374492
O10	O	-4.745897	-0.338103	-0.379293
O11	O	-4.745391	-0.161372	-0.554899
O12	O	-4.388065	-0.156510	-0.200093
C13	C	-3.937501	-0.390808	-0.384795
C14	C	-3.999972	-0.532091	-0.383738
C15	C	-4.213309	-0.604939	-0.389540
C16	C	-4.272000	-0.737691	-0.388558
C17	C	-3.903992	-0.724732	-0.375965
C18	C	-3.845309	-0.591984	-0.376957
C19	C	-4.425774	-0.612421	-0.396805
C20	C	-4.484465	-0.745172	-0.395823
C21	C	-3.936860	-0.166917	-0.607257
C22	C	-3.998918	-0.165856	-0.747627
C23	C	-4.201443	-0.171411	-0.816319
C24	C	-4.265587	-0.170314	-0.961399
C25	C	-4.200576	0.061129	-0.380699
C26	C	-4.117346	0.202410	-0.381764
C27	C	-4.201217	-0.162759	-0.158235
C28	C	-4.118396	-0.163814	-0.017863
H29	H	-4.426100	-0.559189	-0.307775
H30	H	-4.616002	-0.803044	-0.489369
C31	C	-3.828795	-0.158283	-0.813265
N32	N	-3.700644	-0.152561	-0.862700
H33	H	-3.778080	-0.773514	-0.370446
C34	C	-3.610632	-0.511857	-0.370585
N35	N	-3.433863	-0.451504	-0.365784
C36	C	-4.554106	-0.778904	-0.279296
N37	N	-4.606551	-0.804310	-0.191528
H38	H	-4.327338	-0.176970	-0.767720
C39	C	-4.499977	-0.176736	-1.041169
N40	N	-4.676525	-0.181570	-1.101255
H41	H	-4.537374	-0.593205	-0.488638
H42	H	-3.944901	-0.159066	-0.958822
