data_functionalizedCrystal
_audit_creation_method	'MofGen! by Chris Wilmer'
_symmetry_space_group_name_H-M	'P1'
_symmetry_Int_Tables_number	1
_symmetry_cell_setting	triclinic
loop_
_symmetry_equiv_pos_as_xyz
  x,y,z
_cell_length_a	35.282672
_cell_length_b	35.277853
_cell_length_c	35.277682
_cell_angle_alpha	59.999234
_cell_angle_beta	90.009159
_cell_angle_gamma	60.014852
loop_
_atom_site_label
_atom_site_type_symbol
_atom_site_fract_x
_atom_site_fract_y
_atom_site_fract_z
O1	O	-0.322975	-0.271425	0.011265
O2	O	-0.267873	-0.193783	-0.011233
O3	O	-0.267867	-0.271406	0.066389
O4	O	-0.322981	-0.193802	-0.066357
O5	O	-0.204838	-0.334431	0.066388
O6	O	-0.204843	-0.256808	-0.011233
O7	O	-0.259946	-0.334451	0.011264
Zn8	Zn	-0.222387	-0.305636	0.000015
Zn9	Zn	-0.305431	-0.222597	0.000016
O10	O	-0.259951	-0.256828	-0.066357
C11	C	-0.163414	-0.140027	-0.023532
C12	C	-0.186802	-0.166640	-0.020316
C13	C	-0.186322	-0.094093	-0.023852
C14	C	-0.094787	-0.140014	-0.023528
C15	C	-0.044799	-0.166613	-0.020308
C16	C	-0.117800	-0.094081	-0.023848
C17	C	-0.163407	-0.071389	-0.023529
C18	C	-0.186789	-0.024614	-0.020309
C19	C	-0.117806	-0.162614	-0.023851
C20	C	-0.205678	0.013174	-0.017706
C21	C	-0.205697	-0.188141	-0.017716
C22	C	-0.004414	-0.188103	-0.017705
C23	C	-0.229376	0.060582	-0.014442
C24	C	-0.229402	-0.215115	-0.014455
C25	C	0.046251	-0.215063	-0.014440
C26	C	-0.431864	-0.466052	0.034168
C27	C	-0.477470	-0.443470	0.034490
C28	C	-0.431860	-0.534697	0.034170
C29	C	-0.477466	-0.512011	0.034491
C30	C	-0.500484	-0.466077	0.034170
C31	C	-0.408950	-0.511986	0.034489
C32	C	-0.320715	-0.411665	0.021735
C33	C	-0.298966	-0.386537	0.018220
C34	C	-0.322416	-0.339573	0.016456
C35	C	-0.298840	-0.312319	0.012636
C36	C	-0.367616	-0.317741	0.018211
C37	C	-0.389359	-0.342873	0.021732
C38	C	-0.365907	-0.389837	0.023494
C39	C	-0.665969	-0.342518	0.021745
C40	C	-0.712832	-0.317263	0.018232
C41	C	-0.736341	-0.338960	0.016468
C42	C	-0.787154	-0.311577	0.012652
C43	C	-0.712981	-0.385920	0.018222
C44	C	-0.666117	-0.411179	0.021743
C45	C	-0.642615	-0.389470	0.023501
C46	C	-0.320699	-0.687766	0.021743
C47	C	-0.298948	-0.731119	0.018224
C48	C	-0.322395	-0.752880	0.016461
C49	C	-0.298814	-0.799884	0.012643
C50	C	-0.367593	-0.731284	0.018214
C51	C	-0.389342	-0.687932	0.021731
C52	C	-0.365889	-0.666178	0.023500
C53	C	-0.389489	-0.417083	0.027308
C54	C	-0.408285	-0.438802	0.030350
C55	C	-0.408277	-0.581701	0.030354
C56	C	-0.389478	-0.619170	0.027314
C57	C	-0.551297	-0.438691	0.030355
C58	C	-0.591800	-0.416861	0.027315
C59	C	-0.431887	-0.062008	-0.438517
C60	C	-0.477496	-0.016082	-0.461436
C61	C	-0.431888	-0.062008	-0.369874
C62	C	-0.477496	-0.016081	-0.392898
C63	C	-0.500513	0.006613	-0.438518
C64	C	-0.408975	-0.084598	-0.392896
C65	C	-0.320727	-0.185589	-0.480430
C66	C	-0.298974	-0.210854	-0.502035
C67	C	-0.322423	-0.189170	-0.547242
C68	C	-0.298843	-0.216568	-0.570667
C69	C	-0.367625	-0.142218	-0.570845
C70	C	-0.389371	-0.116953	-0.549242
C71	C	-0.365920	-0.138641	-0.504033
C72	C	-0.666000	0.159663	-0.549709
C73	C	-0.712864	0.203011	-0.571467
C74	C	-0.736376	0.224756	-0.548014
C75	C	-0.787190	0.271751	-0.571599
C76	C	-0.713017	0.203152	-0.502801
C77	C	-0.666153	0.159812	-0.481046
C78	C	-0.642647	0.138068	-0.504505
C79	C	-0.320729	-0.185587	-0.204340
C80	C	-0.298979	-0.210856	-0.157461
C81	C	-0.322428	-0.189172	-0.133946
C82	C	-0.298848	-0.216568	-0.083116
C83	C	-0.367628	-0.142223	-0.157310
C84	C	-0.389376	-0.116958	-0.204188
C85	C	-0.365920	-0.138643	-0.227701
C86	C	-0.389507	-0.111244	-0.480610
C87	C	-0.408305	-0.089405	-0.461939
C88	C	-0.408306	-0.089404	-0.319046
C89	C	-0.389508	-0.111242	-0.278531
C90	C	-0.551327	0.053608	-0.462107
C91	C	-0.591831	0.091069	-0.480911
O92	O	0.196087	-0.334351	0.011280
O93	O	0.063381	-0.256761	-0.011218
O94	O	0.140978	-0.334364	0.066403
O95	O	0.118491	-0.256747	-0.066342
O96	O	0.140984	-0.271322	0.066407
O97	O	0.063387	-0.193719	-0.011215
O98	O	0.196094	-0.271309	0.011283
Zn99	Zn	0.129741	-0.222505	0.000035
Zn100	Zn	0.129733	-0.305565	0.000030
O101	O	0.118497	-0.193706	-0.066338
O102	O	-0.259916	0.184730	0.011280
O103	O	-0.204814	0.074500	-0.011216
O104	O	-0.204811	0.074495	0.066404
O105	O	-0.259919	0.184735	-0.066341
O106	O	-0.267843	0.074483	0.066401
O107	O	-0.267846	0.074488	-0.011220
O108	O	-0.322948	0.184718	0.011276
Zn109	Zn	-0.305404	0.129601	0.000028
Zn110	Zn	-0.222358	0.129617	0.000032
O111	O	-0.322951	0.184723	-0.066344
O112	O	-0.936655	0.397342	-0.602587
O113	O	-0.803947	0.287136	-0.547459
O114	O	-0.881541	0.287107	-0.547458
O115	O	-0.859061	0.397371	-0.602588
O116	O	-0.881539	0.287106	-0.610504
O117	O	-0.803946	0.287134	-0.610504
O118	O	-0.936653	0.397341	-0.665633
Zn119	Zn	-0.870299	0.342237	-0.648078
Zn120	Zn	-0.870301	0.342239	-0.565013
O121	O	-0.859060	0.397369	-0.665633
O122	O	-0.267867	-0.271406	-0.665322
O123	O	-0.322978	-0.193805	-0.610198
O124	O	-0.322973	-0.271427	-0.610195
O125	O	-0.267871	-0.193785	-0.665325
O126	O	-0.259943	-0.334453	-0.547148
O127	O	-0.259948	-0.256832	-0.547151
O128	O	-0.204836	-0.334433	-0.602275
Zn129	Zn	-0.222384	-0.305639	-0.564703
Zn130	Zn	-0.305430	-0.222599	-0.647770
O131	O	-0.204841	-0.256811	-0.602278
C132	C	-0.094791	-0.456778	0.293249
C133	C	-0.044802	-0.503545	0.316641
C134	C	-0.117807	-0.434084	0.316167
C135	C	-0.163416	-0.388157	0.224605
C136	C	-0.186802	-0.361554	0.174603
C137	C	-0.186328	-0.365567	0.247628
C138	C	-0.163416	-0.388158	0.293248
C139	C	-0.186801	-0.361555	0.316639
C140	C	-0.117808	-0.434084	0.247628
C141	C	-0.205694	-0.340061	0.335536
C142	C	-0.004416	-0.541327	0.335539
C143	C	-0.205694	-0.340061	0.134206
C144	C	-0.229396	-0.313098	0.359244
C145	C	0.046250	-0.588726	0.359247
C146	C	-0.229397	-0.313097	0.083526
C147	C	0.153287	-0.388107	0.293266
C148	C	0.150072	-0.361500	0.316659
C149	C	0.153604	-0.434045	0.316184
C150	C	0.153284	-0.388104	0.224622
C151	C	0.150066	-0.361493	0.174620
C152	C	0.153601	-0.434042	0.247644
C153	C	0.153280	-0.456745	0.293264
C154	C	0.150058	-0.503526	0.316654
C155	C	0.153607	-0.365508	0.247646
C156	C	0.147454	-0.541320	0.335551
C157	C	0.147474	-0.340003	0.335558
C158	C	0.147465	-0.339994	0.134223
C159	C	0.144188	-0.588734	0.359258
C160	C	0.144215	-0.313036	0.359267
C161	C	0.144203	-0.313023	0.083543
C162	C	-0.163391	-0.140064	0.293254
C163	C	-0.186778	-0.166680	0.316642
C164	C	-0.117782	-0.162655	0.316174
C165	C	-0.163390	-0.071417	0.224615
C166	C	-0.186776	-0.024635	0.174614
C167	C	-0.117781	-0.094112	0.247639
C168	C	-0.094765	-0.140051	0.293258
C169	C	-0.044775	-0.166653	0.316650
C170	C	-0.186304	-0.094125	0.247635
C171	C	-0.004389	-0.188146	0.335549
C172	C	-0.205671	-0.188184	0.335537
C173	C	-0.205669	0.013159	0.134219
C174	C	0.046278	-0.215108	0.359258
C175	C	-0.229374	-0.215161	0.359242
C176	C	-0.229371	0.060575	0.083540
C177	C	0.095611	0.006467	-0.438500
C178	C	0.095287	-0.016233	-0.461419
C179	C	0.095607	-0.062174	-0.369857
C180	C	0.095284	-0.084770	-0.392881
C181	C	0.095604	-0.062172	-0.438501
C182	C	0.095290	-0.016235	-0.392879
C183	C	0.108048	0.159565	-0.480412
C184	C	0.111564	0.202927	-0.502017
C185	C	0.113328	0.224679	-0.547225
C186	C	0.117149	0.271689	-0.570649
C187	C	0.111571	0.203069	-0.570828
C188	C	0.108049	0.159716	-0.549225
C189	C	0.106288	0.137963	-0.504015
C190	C	0.108019	-0.116505	-0.549692
C191	C	0.111528	-0.141621	-0.571451
C192	C	0.113290	-0.188590	-0.547998
C193	C	0.117102	-0.215831	-0.571583
C194	C	0.111537	-0.210439	-0.502784
C195	C	0.108019	-0.185319	-0.481030
C196	C	0.106263	-0.138350	-0.504489
C197	C	0.108034	-0.116518	-0.204324
C198	C	0.111552	-0.141640	-0.157444
C199	C	0.113312	-0.188609	-0.133929
C200	C	0.117130	-0.215852	-0.083099
C201	C	0.111558	-0.210455	-0.157293
C202	C	0.108041	-0.185332	-0.204171
C203	C	0.106275	-0.138360	-0.227684
C204	C	0.102473	0.090950	-0.480593
C205	C	0.099430	0.053476	-0.461922
C206	C	0.099423	-0.089413	-0.319029
C207	C	0.102462	-0.111125	-0.278514
C208	C	0.099416	-0.089408	-0.462090
C209	C	0.102453	-0.111117	-0.480894
O210	O	0.118500	-0.256765	0.452869
O211	O	0.140992	-0.334379	0.397747
O212	O	0.063393	-0.256780	0.397740
O213	O	0.196098	-0.334364	0.452877
O214	O	0.063397	-0.193735	0.334694
O215	O	0.140996	-0.271335	0.334702
O216	O	0.118503	-0.193720	0.389824
Zn217	Zn	0.129750	-0.222518	0.352253
Zn218	Zn	0.129745	-0.305582	0.435318
O219	O	0.196102	-0.271319	0.389831
C220	C	-0.500189	0.533979	-0.438495
C221	C	-0.477172	0.556583	-0.461410
C222	C	-0.431563	0.465346	-0.369852
C223	C	-0.408651	0.488054	-0.392872
C224	C	-0.431563	0.533994	-0.438490
C225	C	-0.477172	0.488039	-0.392876
C226	C	-0.665678	0.588288	-0.480417
C227	C	-0.712543	0.613398	-0.502024
C228	C	-0.736052	0.660367	-0.547229
C229	C	-0.786869	0.687601	-0.570656
C230	C	-0.712693	0.682222	-0.570829
C231	C	-0.665830	0.657108	-0.549224
C232	C	-0.642322	0.610139	-0.504016
C233	C	-0.389656	0.657625	-0.549667
C234	C	-0.368056	0.682903	-0.571422
C235	C	-0.322862	0.661223	-0.547966
C236	C	-0.299440	0.688630	-0.571546
C237	C	-0.299266	0.614258	-0.502754
C238	C	-0.320863	0.588976	-0.481004
C239	C	-0.366063	0.610668	-0.504465
C240	C	-0.389657	0.312236	-0.204325
C241	C	-0.368059	0.268877	-0.157447
C242	C	-0.322862	0.247133	-0.133930
C243	C	-0.299443	0.200123	-0.083101
C244	C	-0.299269	0.268752	-0.157291
C245	C	-0.320869	0.312111	-0.204167
C246	C	-0.366063	0.333847	-0.227682
C247	C	-0.591508	0.582913	-0.480592
C248	C	-0.551003	0.561209	-0.461920
C249	C	-0.408145	0.418335	-0.319025
C250	C	-0.389479	0.380861	-0.278511
C251	C	-0.408145	0.561404	-0.462075
C252	C	-0.389479	0.583253	-0.480875
H253	H	-0.223797	-0.075101	-0.024373
H254	H	-0.731558	0.595601	-0.482806
F255	F	-0.093626	-0.069275	0.223481
H256	H	-0.426159	-0.325096	0.023162
F257	F	0.154284	-0.317191	0.223487
F258	F	-0.738036	0.226298	-0.477841
H259	H	-0.099332	-0.199576	-0.024368
H260	H	-0.223777	-0.075134	0.229152
H261	H	-0.223800	-0.328607	0.229139
H262	H	-0.647137	0.142228	-0.444235
H263	H	-0.099327	-0.453080	0.353651
F264	F	0.094582	-0.133070	-0.368730
F265	F	0.094610	0.008603	-0.510413
F266	F	-0.250865	-0.409773	0.016351
F267	F	-0.093639	-0.210951	0.365176
F268	F	-0.093638	-0.069255	-0.024504
F269	F	-0.093656	-0.458912	0.223471
H270	H	0.106589	-0.203109	-0.444219
H271	H	0.094814	0.002740	-0.374384
H272	H	-0.495943	-0.531018	0.035005
H273	H	-0.495949	-0.406507	0.035003
F274	F	0.106178	0.136723	-0.574346
H275	H	0.106598	-0.078272	-0.223465
H276	H	0.154121	-0.453042	0.229159
F277	F	-0.437444	-0.664951	0.023597
H278	H	0.112993	-0.123856	-0.138421
H279	H	0.106613	0.141859	-0.443602
F280	F	-0.437479	-0.066992	-0.229051
F281	F	-0.359972	-0.536802	0.035161
H282	H	-0.371177	0.469061	-0.374384
H283	H	0.154113	-0.453039	0.353665
H284	H	-0.646814	0.674904	-0.568442
F285	F	0.113436	0.225919	-0.476895
F286	F	0.113445	0.226224	-0.618940
H287	H	-0.262148	-0.748697	0.016793
F288	F	-0.295737	-0.664618	0.023628
H289	H	0.106585	-0.078261	-0.568797
H290	H	-0.301614	-0.449906	0.023172
F291	F	-0.501324	0.604897	-0.510404
H292	H	-0.371501	-0.121553	-0.374414
F293	F	0.113397	-0.118369	-0.619566
H294	H	-0.386705	-0.279504	0.016776
H295	H	-0.646835	-0.324841	0.023180
F296	F	0.113404	-0.260422	-0.477825
H297	H	-0.731849	-0.279027	0.016801
F298	F	0.113425	-0.260440	-0.132269
F299	F	-0.737997	-0.409018	0.016351
F300	F	-0.251165	0.245608	-0.132263
F301	F	0.106174	-0.208585	-0.229034
F302	F	-0.501327	0.463201	-0.368719
H303	H	-0.647101	-0.449414	0.023173
H304	H	-0.387275	0.251283	-0.138428
F305	F	-0.392548	-0.754444	0.016338
F306	F	-0.437756	0.335369	-0.229351
H307	H	-0.646542	0.550043	-0.443608
F308	F	-0.393170	0.732884	-0.619535
F309	F	-0.737714	0.732206	-0.618939
H310	H	-0.495974	0.002910	-0.374412
H311	H	-0.426458	0.675290	-0.568773
F312	F	-0.251164	0.591178	-0.477792
H313	H	-0.301648	0.550737	-0.444194
H314	H	-0.495970	0.002916	-0.498923
F315	F	-0.295766	-0.208671	-0.229362
F316	F	-0.250876	-0.260823	-0.132597
F317	F	-0.295764	-0.208672	-0.432317
F318	F	-0.437474	-0.066985	-0.574363
H319	H	-0.646864	0.141964	-0.568814
H320	H	-0.301654	0.329708	-0.223185
F321	F	-0.392575	-0.119140	-0.618958
F322	F	-0.737721	0.225997	-0.619582
F323	F	-0.250872	-0.260823	-0.476913
H324	H	-0.386722	-0.124567	-0.138161
