data_functionalizedCrystal
_audit_creation_method	'MofGen! by Chris Wilmer'
_symmetry_space_group_name_H-M	'P1'
_symmetry_Int_Tables_number	1
_symmetry_cell_setting	triclinic
loop_
_symmetry_equiv_pos_as_xyz
  x,y,z
_cell_length_a	8.559649
_cell_length_b	17.666332
_cell_length_c	8.597304
_cell_angle_alpha	97.706266
_cell_angle_beta	102.375399
_cell_angle_gamma	89.990083
loop_
_atom_site_label
_atom_site_type_symbol
_atom_site_fract_x
_atom_site_fract_y
_atom_site_fract_z
O1	O	-2.119308	0.059483	-0.053141
O2	O	-1.655369	0.064760	0.027759
O3	O	-1.896465	0.047148	-0.242259
O4	O	-1.878212	0.077095	0.216877
O5	O	-1.896422	-0.078750	-0.242267
O6	O	-1.655326	-0.061138	0.027751
O7	O	-2.119265	-0.066414	-0.053149
Cu8	Cu	-1.887291	-0.075271	-0.012699
Cu9	Cu	-1.887342	0.073617	-0.012690
O10	O	-1.878169	-0.048802	0.216869
C11	C	-1.595914	0.002211	0.033886
C12	C	-1.418819	0.003401	0.052135
N13	N	-1.887267	-0.179991	-0.012708
C14	C	-1.994060	-0.227397	-0.132224
C15	C	-1.994070	-0.306645	-0.132233
C16	C	-1.887301	-0.338483	-0.012700
C17	C	-1.780488	-0.291068	0.106826
C18	C	-1.780471	-0.211822	0.106822
N19	N	-1.869168	-0.453701	0.128358
N20	N	-1.869193	-0.528982	0.128355
C21	C	-1.887343	-0.577246	-0.012683
N22	N	-1.905498	-0.547386	-0.153728
N23	N	-1.905481	-0.472099	-0.153725
C24	C	-1.887307	-0.424411	-0.012683
C25	C	-1.994153	-0.710582	-0.132219
C26	C	-1.994151	-0.789831	-0.132228
C27	C	-1.780576	-0.774252	0.106844
C28	C	-1.780570	-0.695005	0.106841
C29	C	-1.887367	-0.663174	-0.012690
C30	C	-1.178720	-0.003865	-0.059276
C31	C	-1.355815	-0.005055	-0.077525
C32	C	-1.894481	-0.019598	-0.300498
C33	C	-1.888616	-0.030911	-0.474019
N34	N	-1.887379	0.178336	-0.012696
C35	C	-1.880152	0.017945	0.275108
C36	C	-1.886018	0.029263	0.448629
H37	H	-1.337267	0.011557	0.177113
N38	N	-2.109238	-0.193065	-0.261145
H39	H	-2.176891	-0.235127	-0.336862
H40	H	-2.047099	-0.164239	-0.323082
N41	N	-1.463827	-0.015857	-0.243063
H42	H	-1.442271	-0.066471	-0.303514
H43	H	-1.442261	0.026908	-0.303388
N44	N	-1.888918	0.108980	-0.463243
H45	H	-1.892796	0.106039	-0.347611
H46	H	-1.986542	0.135543	-0.516227
N47	N	-1.665299	-0.160682	0.235742
H48	H	-1.593754	-0.131165	0.184344
H49	H	-1.597761	-0.192920	0.311429
N50	N	-1.885615	-0.110628	-0.562138
H51	H	-1.985169	-0.140406	-0.558452
H52	H	-1.787898	-0.137137	-0.509181
N53	N	-2.109300	-0.676230	-0.261135
H54	H	-2.222778	-0.689710	-0.256690
H55	H	-2.089057	-0.697142	-0.370047
N56	N	-2.109253	-0.357788	-0.261147
H57	H	-2.176902	-0.325599	-0.336870
H58	H	-2.180689	-0.387294	-0.209616
N59	N	-2.109370	-0.840960	-0.261126
H60	H	-2.089309	-0.834286	-0.370121
H61	H	-2.222768	-0.826823	-0.256470
N62	N	-1.665326	-0.325407	0.235742
H63	H	-1.727352	-0.354225	0.297801
H64	H	-1.597690	-0.283308	0.311348
N65	N	-1.665403	-0.808582	0.235760
H66	H	-1.727419	-0.837404	0.297821
H67	H	-1.597775	-0.766479	0.311363
N68	N	-1.665385	-0.643868	0.235748
H69	H	-1.597744	-0.676061	0.311471
H70	H	-1.727504	-0.606935	0.297681
