data_functionalizedCrystal
_audit_creation_method	'MofGen! by Chris Wilmer'
_symmetry_space_group_name_H-M	'P1'
_symmetry_Int_Tables_number	1
_symmetry_cell_setting	triclinic
loop_
_symmetry_equiv_pos_as_xyz
  x,y,z
_cell_length_a	21.395362
_cell_length_b	19.077068
_cell_length_c	21.395356
_cell_angle_alpha	92.269849
_cell_angle_beta	89.957023
_cell_angle_gamma	92.343691
loop_
_atom_site_label
_atom_site_type_symbol
_atom_site_fract_x
_atom_site_fract_y
_atom_site_fract_z
Zn1	Zn	0.947857	-0.279924	-0.364584
Zn2	Zn	1.447857	0.220076	0.135416
Zn3	Zn	0.943558	-0.397624	-0.264010
Zn4	Zn	1.443558	0.102376	0.235990
Zn5	Zn	0.843072	-0.279976	-0.259787
Zn6	Zn	1.343072	0.220024	0.240213
Zn7	Zn	0.838838	-0.397620	-0.368715
Zn8	Zn	1.338838	0.102380	0.131285
O9	O	0.893331	-0.338786	-0.314274
O10	O	1.393331	0.161214	0.185726
O11	O	1.034965	-0.295518	-0.351281
O12	O	1.534965	0.204482	0.148719
O13	O	0.930201	-0.382041	-0.175773
O14	O	1.430201	0.117959	0.324227
O15	O	0.860543	-0.181477	-0.270192
O16	O	1.360543	0.318523	0.229808
O17	O	1.031807	-0.381991	-0.277390
O18	O	1.531807	0.118009	0.222610
O19	O	0.937528	-0.181439	-0.347186
O20	O	1.437528	0.318561	0.152814
O21	O	0.856374	-0.295606	-0.172670
O22	O	1.356374	0.204394	0.327330
O23	O	0.754831	-0.295601	-0.274198
O24	O	1.254831	0.204399	0.225802
O25	O	0.853327	-0.381984	-0.455844
O26	O	1.353327	0.118016	0.044156
O27	O	0.751721	-0.382034	-0.354227
O28	O	1.251721	0.117966	0.145773
O29	O	0.933423	-0.295514	-0.452809
O30	O	1.433423	0.204486	0.047191
O31	O	0.926095	-0.496116	-0.281396
O32	O	1.426095	0.003884	0.218604
O33	O	0.849158	-0.496113	-0.358322
O34	O	1.349158	0.003887	0.141678
C35	C	0.730542	-0.338823	-0.314203
C36	C	1.230542	0.161177	0.185797
C37	C	0.660900	-0.338856	-0.314188
C38	C	1.160900	0.161144	0.185812
C39	C	0.626581	-0.383921	-0.355801
C40	C	1.126581	0.116079	0.144199
C41	C	0.561146	-0.383904	-0.355828
C42	C	1.061146	0.116096	0.144172
C43	C	0.530032	-0.338829	-0.314231
C44	C	1.030032	0.161171	0.185769
C45	C	0.564359	-0.293755	-0.272615
C46	C	1.064359	0.206245	0.227385
C47	C	0.629793	-0.293769	-0.272593
C48	C	1.129793	0.206231	0.227407
C49	C	0.426511	-0.333169	-0.257624
C50	C	0.926511	0.166831	0.242376
C51	C	0.361078	-0.333161	-0.257645
C52	C	0.861078	0.166839	0.242355
C53	C	0.328213	-0.338783	-0.314299
C54	C	0.828213	0.161217	0.185701
C55	C	0.360789	-0.344429	-0.370934
C56	C	0.860789	0.155571	0.129066
C57	C	0.426222	-0.344443	-0.370912
C58	C	0.926222	0.155557	0.129088
C59	C	0.459081	-0.338809	-0.314251
C60	C	0.959081	0.161191	0.185749
C61	C	0.222943	-0.383832	-0.355945
C62	C	0.722943	0.116168	0.144055
C63	C	0.157507	-0.383810	-0.355973
C64	C	0.657507	0.116190	0.144027
C65	C	0.160721	-0.293665	-0.272755
C66	C	0.660721	0.206335	0.227245
C67	C	0.226156	-0.293683	-0.272732
C68	C	0.726156	0.206317	0.227268
C69	C	0.257262	-0.338771	-0.314326
C70	C	0.757262	0.161229	0.185674
C71	C	0.886718	-0.521652	-0.320779
C72	C	1.386718	-0.021652	0.179221
C73	C	0.883946	-0.599883	-0.323583
C74	C	1.383946	-0.099883	0.176417
C75	C	0.922732	-0.636615	-0.284883
C76	C	1.422732	-0.136615	0.215117
C77	C	0.920129	-0.710121	-0.287523
C78	C	1.420129	-0.210121	0.212477
C79	C	0.878736	-0.746895	-0.328862
C80	C	1.378736	-0.246895	0.171138
C81	C	0.839948	-0.710158	-0.367567
C82	C	1.339948	-0.210158	0.132433
C83	C	0.842555	-0.636653	-0.364929
C84	C	1.342555	-0.136653	0.135071
C85	C	0.866643	-0.966733	-0.341047
C86	C	1.366643	-0.466733	0.158953
C87	C	0.864038	-1.040243	-0.343681
C88	C	1.364038	-0.540243	0.156319
C89	C	0.944219	-1.040201	-0.263637
C90	C	1.444219	-0.540201	0.236363
C91	C	0.946820	-0.966695	-0.261000
C92	C	1.446820	-0.466695	0.239000
C93	C	0.908035	-0.929965	-0.299707
C94	C	1.408035	-0.429965	0.200293
N95	N	0.876072	-0.822030	-0.331561
N96	N	1.376072	-0.322030	0.168439
N97	N	0.910702	-0.854831	-0.297011
N98	N	1.410702	-0.354831	0.202989
C99	C	1.056756	-0.338749	-0.314346
C100	C	1.556756	0.161251	0.185654
C101	C	1.126398	-0.338734	-0.314377
C102	C	1.626398	0.161266	0.185623
C103	C	0.893382	-0.338743	-0.477696
C104	C	1.393382	0.161257	0.022304
C105	C	0.893404	-0.338724	-0.547337
C106	C	1.393404	0.161276	-0.047337
C107	C	0.899987	-0.155206	-0.307757
C108	C	1.399987	0.344794	0.192243
C109	C	0.902824	-0.076975	-0.304980
C110	C	1.402824	0.423025	0.195020
C111	C	0.854973	-0.293712	-0.578424
C112	C	1.354973	0.206288	-0.078424
C113	C	0.854971	-0.293699	-0.643859
C114	C	1.354971	0.206301	-0.143859
C115	C	0.893412	-0.338690	-0.678204
C116	C	1.393412	0.161310	-0.178204
C117	C	0.931845	-0.383711	-0.647109
C118	C	1.431845	0.116289	-0.147109
C119	C	0.931841	-0.383728	-0.581675
C120	C	1.431841	0.116272	-0.081675
C121	C	0.949667	-0.344206	-0.782106
C122	C	1.449667	0.155794	-0.282106
C123	C	0.949672	-0.344185	-0.847538
C124	C	1.449672	0.155815	-0.347538
C125	C	0.893424	-0.338643	-0.880023
C126	C	1.393424	0.161357	-0.380023
C127	C	0.837169	-0.333108	-0.847067
C128	C	1.337169	0.166892	-0.347067
C129	C	0.837165	-0.333125	-0.781633
C130	C	1.337165	0.166875	-0.281633
C131	C	0.893420	-0.338678	-0.749156
C132	C	1.393420	0.161322	-0.249156
C133	C	0.854988	-0.293614	-0.982062
C134	C	1.354988	0.206386	-0.482062
C135	C	0.854985	-0.293606	-1.047499
C136	C	1.354985	0.206394	-0.547499
C137	C	0.931864	-0.383615	-1.050747
C138	C	1.431864	0.116385	-0.550747
C139	C	0.931862	-0.383627	-0.985312
C140	C	1.431862	0.116373	-0.485312
C141	C	0.893424	-0.338623	-0.950973
C142	C	1.393424	0.161377	-0.450973
C143	C	0.893318	-0.338779	-0.151486
C144	C	1.393318	0.161221	0.348514
C145	C	0.893425	-0.338599	-0.081839
C146	C	1.393425	0.161401	0.418161
H147	H	0.254098	-0.256990	-0.238843
H148	H	0.754098	0.243010	0.261157
H149	H	0.963158	-0.420279	-0.960001
H150	H	1.463158	0.079721	-0.460001
H151	H	0.334032	-0.349006	-0.417067
H152	H	0.834032	0.150994	0.082933
Cl153	Cl	0.811989	-1.086472	-0.395646
Cl154	Cl	1.311989	-0.586472	0.104354
Cl155	Cl	0.766448	-0.326172	-0.740205
Cl156	Cl	1.266448	0.173828	-0.240205
H157	H	0.835061	-0.936833	-0.372563
H158	H	1.335061	-0.436833	0.127437
H159	H	0.248271	-0.420541	-0.389817
H160	H	0.748271	0.079459	0.110183
H161	H	0.452743	-0.349038	-0.417027
H162	H	0.952743	0.150962	0.082973
Cl163	Cl	0.968893	-0.756295	-0.238871
Cl164	Cl	1.468893	-0.256295	0.261129
Cl165	Cl	0.787914	-0.756388	-0.419540
Cl166	Cl	1.287914	-0.256388	0.080460
Cl167	Cl	0.467819	-0.326103	-0.186394
Cl168	Cl	0.967819	0.173897	0.313606
H169	H	0.791367	-0.328591	-0.873514
H170	H	1.291367	0.171409	-0.373514
Cl171	Cl	0.992979	-1.086380	-0.214984
Cl172	Cl	1.492979	-0.586380	0.285016
H173	H	0.539022	-0.257054	-0.238748
H174	H	1.039022	0.242946	0.261252
Cl175	Cl	0.806669	-0.237092	-0.682948
Cl176	Cl	1.306669	0.262908	-0.182948
H177	H	0.810972	-0.606747	-0.396444
H178	H	1.310972	-0.106747	0.103556
H179	H	0.651904	-0.420634	-0.389671
H180	H	1.151904	0.079366	0.110329
H181	H	0.995475	-0.348713	-0.755662
H182	H	1.495475	0.151287	-0.255662
H183	H	0.980525	-0.936755	-0.227339
H184	H	1.480525	-0.436755	0.272661
Cl185	Cl	0.806664	-0.237043	-0.938891
Cl186	Cl	1.306664	0.262957	-0.438891
H187	H	0.995478	-0.348688	-0.874366
H188	H	1.495478	0.151312	-0.374366
H189	H	0.963143	-0.420344	-0.675076
H190	H	1.463143	0.079656	-0.175076
H191	H	0.963138	-0.420382	-0.556364
H192	H	1.463138	0.079618	-0.056364
H193	H	0.956436	-0.606679	-0.251217
H194	H	1.456436	-0.106679	0.248783
H195	H	0.135389	-0.256961	-0.238889
H196	H	0.635389	0.243039	0.261111
H197	H	0.823686	-0.256954	-1.072809
H198	H	1.323686	0.243046	-0.572809
Cl199	Cl	0.806649	-0.237139	-0.535259
Cl200	Cl	1.306649	0.262861	-0.035259
H201	H	0.533199	-0.420601	-0.389717
H202	H	1.033199	0.079399	0.110283
Cl203	Cl	0.672938	-0.237111	-0.220275
Cl204	Cl	1.172938	0.262889	0.279725
Cl205	Cl	0.114363	-0.440465	-0.408296
Cl206	Cl	0.614363	0.059535	0.091704
H207	H	0.334560	-0.328568	-0.211529
H208	H	0.834560	0.171432	0.288471
Cl209	Cl	0.980186	-0.440182	-1.093917
Cl210	Cl	1.480186	0.059818	-0.593917
