data_functionalizedCrystal
_audit_creation_method	'MofGen! by Chris Wilmer'
_symmetry_space_group_name_H-M	'P1'
_symmetry_Int_Tables_number	1
_symmetry_cell_setting	triclinic
loop_
_symmetry_equiv_pos_as_xyz
  x,y,z
_cell_length_a	19.188930
_cell_length_b	19.188924
_cell_length_c	13.330367
_cell_angle_alpha	89.993282
_cell_angle_beta	89.978569
_cell_angle_gamma	83.143372
loop_
_atom_site_label
_atom_site_type_symbol
_atom_site_fract_x
_atom_site_fract_y
_atom_site_fract_z
O1	O	0.926146	0.087167	-0.083751
O2	O	1.426146	0.587167	0.416249
O3	O	0.722834	0.098902	-0.083682
O4	O	1.222834	0.598902	0.416318
O5	O	0.830360	-0.008621	-0.083707
O6	O	1.330360	0.491379	0.416293
O7	O	0.818620	0.194691	-0.083726
O8	O	1.318620	0.694691	0.416274
O9	O	0.830344	-0.008624	0.083141
O10	O	1.330344	0.491376	0.583141
O11	O	0.722819	0.098899	0.083165
O12	O	1.222819	0.598899	0.583165
O13	O	0.926130	0.087165	0.083097
O14	O	1.426130	0.587165	0.583097
Cu15	Cu	0.824473	0.093032	0.098365
Cu16	Cu	1.324473	0.593032	0.598365
Cu17	Cu	0.824491	0.093035	-0.098951
Cu18	Cu	1.324491	0.593035	0.401049
O19	O	0.818605	0.194688	0.083121
O20	O	1.318605	0.694688	0.583121
C21	C	0.696815	0.098521	-0.000250
C22	C	1.196815	0.598521	0.499750
C23	C	0.619311	0.097380	-0.000223
C24	C	1.119311	0.597380	0.499777
C25	C	0.574386	0.160471	-0.000245
C26	C	1.074386	0.660471	0.499755
C27	C	0.501562	0.159399	-0.000256
C28	C	1.001562	0.659399	0.499744
C29	C	0.473667	0.095233	-0.000265
C30	C	0.973667	0.595233	0.499735
C31	C	0.518602	0.032134	-0.000238
C32	C	1.018602	0.532134	0.499762
C33	C	0.591424	0.033207	-0.000217
C34	C	1.091424	0.533207	0.499783
N35	N	0.365693	0.046187	-0.057086
N36	N	0.865693	0.546187	0.442914
N37	N	0.296514	0.045171	-0.057109
N38	N	0.796514	0.545171	0.442891
C39	C	0.254258	0.091995	-0.000327
C40	C	0.754258	0.591995	0.499673
N41	N	0.283792	0.139883	0.056466
N42	N	0.783792	0.639883	0.556466
N43	N	0.352977	0.140900	0.056483
N44	N	0.852977	0.640900	0.556483
C45	C	0.394704	0.094062	-0.000288
C46	C	0.894704	0.594062	0.499712
C47	C	0.130368	0.153928	-0.000359
C48	C	0.630368	0.653928	0.499641
C49	C	0.057543	0.152854	-0.000364
C50	C	0.557543	0.652854	0.499636
C51	C	0.074585	0.025586	-0.000355
C52	C	0.574585	0.525586	0.499645
C53	C	0.147409	0.026663	-0.000340
C54	C	0.647409	0.526663	0.499660
C55	C	0.175295	0.090835	-0.000347
C56	C	0.675295	0.590835	0.499653
C57	C	0.829973	-0.034634	-0.000282
C58	C	1.329973	0.465366	0.499718
C59	C	0.828834	-0.112138	-0.000279
C60	C	1.328834	0.387862	0.499721
C61	C	0.828311	-0.148536	-0.091227
C62	C	1.328311	0.351464	0.408773
C63	C	0.827231	-0.221359	-0.091235
C64	C	1.327231	0.278641	0.408765
C65	C	0.826688	-0.257783	-0.000288
C66	C	1.326688	0.242217	0.499712
C67	C	0.827207	-0.221376	0.090672
C68	C	1.327207	0.278624	0.590672
C69	C	0.828280	-0.148554	0.090677
C70	C	1.328280	0.351446	0.590677
N71	N	0.864730	-0.377447	0.067388
N72	N	1.364730	0.122553	0.567388
N73	N	0.863712	-0.446625	0.067377
N74	N	1.363712	0.053375	0.567377
C75	C	0.823454	-0.477192	-0.000297
C76	C	1.323454	0.022808	0.499703
N77	N	0.784261	-0.435968	-0.067975
N78	N	1.284261	0.064032	0.432025
N79	N	0.785282	-0.366784	-0.067968
N80	N	1.285282	0.133216	0.432032
C81	C	0.825524	-0.336746	-0.000283
C82	C	1.325524	0.163254	0.499717
C83	C	0.821759	-0.592552	-0.091259
C84	C	1.321759	-0.092552	0.408741
C85	C	0.820675	-0.665376	-0.091263
C86	C	1.320675	-0.165376	0.408737
C87	C	0.820658	-0.665393	0.090647
C88	C	1.320658	-0.165393	0.590647
C89	C	0.821735	-0.592570	0.090647
C90	C	1.321735	-0.092570	0.590647
C91	C	0.822289	-0.556154	-0.000308
C92	C	1.322289	-0.056154	0.499692
C93	C	0.952149	0.087546	-0.000338
C94	C	1.452149	0.587546	0.499662
C95	C	1.029654	0.088687	-0.000371
C96	C	1.529654	0.588687	0.499629
C97	C	0.818992	0.220700	-0.000306
C98	C	1.318992	0.720700	0.499694
C99	C	0.820131	0.298205	-0.000316
C100	C	1.320131	0.798205	0.499684
N101	N	0.824465	0.093030	0.237147
N102	N	1.324465	0.593030	0.737147
N103	N	0.824505	0.093032	-0.237732
N104	N	1.324505	0.593032	0.262268
C105	C	0.776877	0.140627	0.709780
C106	C	1.276877	0.640627	1.209780
C107	C	0.872125	0.045437	0.709727
C108	C	1.372125	0.545437	1.209727
C109	C	0.872117	0.045435	0.604709
C110	C	1.372117	0.545435	1.104709
C111	C	0.824489	0.093030	0.552221
C112	C	1.324489	0.593030	1.052221
C113	C	0.776869	0.140628	0.604752
C114	C	1.276869	0.640628	1.104752
C115	C	0.919740	-0.002158	0.552170
C116	C	1.419740	0.497842	1.052170
C117	C	0.919735	-0.002161	0.447145
C118	C	1.419735	0.497839	0.947145
C119	C	0.872103	0.045432	0.394656
C120	C	1.372103	0.545432	0.894656
C121	C	0.824481	0.093031	0.447193
C122	C	1.324481	0.593031	0.947193
C123	C	0.776853	0.140627	0.394706
C124	C	1.276853	0.640627	0.894706
C125	C	0.729227	0.188223	0.447241
C126	C	1.229227	0.688223	0.947241
C127	C	0.729238	0.188221	0.552263
C128	C	1.229238	0.688221	1.052263
C129	C	0.872093	0.045434	0.289634
C130	C	1.372093	0.545434	0.789634
C131	C	0.776845	0.140627	0.289678
C132	C	1.276845	0.640627	0.789678
H133	H	0.020965	0.204232	-0.000376
H134	H	0.520965	0.704232	0.499624
H135	H	0.826801	-0.250999	-0.165298
H136	H	1.326801	0.249001	0.334702
N137	N	0.923458	-0.005890	0.232970
N138	N	1.423458	0.494110	0.732970
H139	H	0.953634	-0.036039	0.282156
H140	H	1.453634	0.463961	0.782156
H141	H	0.896827	-0.036695	0.189420
H142	H	1.396827	0.463305	0.689420
N143	N	0.822315	-0.553307	0.188741
N144	N	1.322315	-0.053307	0.688741
H145	H	0.779489	-0.517299	0.192816
H146	H	1.279489	-0.017299	0.692816
H147	H	0.821835	-0.587476	0.246300
H148	H	1.321835	-0.087476	0.746300
N149	N	0.195873	-0.041384	-0.000336
N150	N	0.695873	0.458616	0.499664
H151	H	0.226443	-0.043776	0.061523
H152	H	0.726443	0.456224	0.561523
H153	H	0.167109	-0.082160	-0.000383
H154	H	0.667109	0.417840	0.499617
H155	H	0.690463	0.226973	0.595044
H156	H	1.190463	0.726973	1.095044
N157	N	0.826626	-0.260657	0.188766
N158	N	1.326626	0.239343	0.688766
H159	H	0.825872	-0.312314	0.174963
H160	H	1.325872	0.187686	0.674963
H161	H	0.870084	-0.253721	0.228464
H162	H	1.370084	0.246279	0.728464
H163	H	0.958514	-0.040917	0.404377
H164	H	1.458514	0.459083	0.904377
H165	H	0.820211	-0.695048	0.164697
H166	H	1.320211	-0.195048	0.664697
H167	H	0.828760	-0.118891	-0.165291
H168	H	1.328760	0.381109	0.334709
N169	N	0.604464	0.229683	-0.000260
N170	N	1.104464	0.729683	0.499740
H171	H	0.564949	0.269488	-0.000278
H172	H	1.064949	0.769488	0.499722
H173	H	0.634283	0.232906	0.061598
H174	H	1.134283	0.732906	0.561598
H175	H	0.153075	0.206181	-0.000349
H176	H	0.653075	0.706181	0.499651
N177	N	0.828846	-0.109291	0.188775
N178	N	1.328846	0.390709	0.688775
H179	H	0.828337	-0.143413	0.246391
H180	H	1.328337	0.356587	0.746391
H181	H	0.872566	-0.084874	0.192723
H182	H	1.372566	0.415126	0.692723
N183	N	0.822353	-0.553269	-0.189355
N184	N	1.322353	-0.053269	0.310645
H185	H	0.821852	-0.587379	-0.246974
H186	H	1.321852	-0.087379	0.253026
H187	H	0.779528	-0.517257	-0.193300
H188	H	1.279528	-0.017257	0.306700
N189	N	0.820169	-0.704645	-0.189362
N190	N	1.320169	-0.204645	0.310638
H191	H	0.820705	-0.670526	-0.246977
H192	H	1.320705	-0.170526	0.253023
H193	H	0.863017	-0.740632	-0.193269
H194	H	1.363017	-0.240632	0.306731
H195	H	0.738059	0.179383	0.246949
H196	H	1.238059	0.679383	0.746949
N197	N	0.677862	0.239561	0.390627
N198	N	1.177862	0.739561	0.890627
H199	H	0.685090	0.232338	0.316125
H200	H	1.185090	0.732338	0.816125
H201	H	0.628359	0.231616	0.409010
H202	H	1.128359	0.731616	0.909010
H203	H	0.958521	-0.040906	0.594908
H204	H	1.458521	0.459094	1.094908
N205	N	0.725507	0.191958	0.766434
N206	N	1.225507	0.691958	1.266434
H207	H	0.732734	0.184737	0.840930
H208	H	1.232734	0.684737	1.340930
H209	H	0.733414	0.241471	0.748065
H210	H	1.233414	0.741471	1.248065
H211	H	0.910905	0.006689	0.752465
H212	H	1.410905	0.506689	1.252465
H213	H	0.464976	0.210777	-0.000271
H214	H	0.964976	0.710777	0.499729
H215	H	0.628003	-0.018171	-0.000200
H216	H	1.128003	0.481829	0.499800
N217	N	0.488518	-0.037074	-0.000258
N218	N	0.988518	0.462926	0.499742
H219	H	0.528032	-0.076881	-0.000242
H220	H	1.028032	0.423119	0.499758
H221	H	0.458648	-0.040292	0.061583
H222	H	0.958648	0.459708	0.561583
N223	N	0.044510	-0.043623	-0.000354
N224	N	0.544510	0.456377	0.499646
H225	H	-0.008440	-0.034731	-0.000367
H226	H	0.491560	0.465269	0.499633
H227	H	0.060982	-0.071224	-0.062199
H228	H	0.560982	0.428776	0.437801
