data_functionalizedCrystal
_audit_creation_method	'MofGen! by Chris Wilmer'
_symmetry_space_group_name_H-M	'P1'
_symmetry_Int_Tables_number	1
_symmetry_cell_setting	triclinic
loop_
_symmetry_equiv_pos_as_xyz
  x,y,z
_cell_length_a	16.974959
_cell_length_b	16.109301
_cell_length_c	16.053934
_cell_angle_alpha	92.567699
_cell_angle_beta	88.925772
_cell_angle_gamma	96.567540
loop_
_atom_site_label
_atom_site_type_symbol
_atom_site_fract_x
_atom_site_fract_y
_atom_site_fract_z
O1	O	0.104619	-1.099908	0.062316
O2	O	0.437952	-0.766575	0.395650
O3	O	0.771286	-0.433241	0.728983
O4	O	0.117227	-0.857878	0.061479
O5	O	0.450560	-0.524545	0.394812
O6	O	0.783893	-0.191212	0.728146
O7	O	-0.003808	-0.985243	0.069633
O8	O	0.329525	-0.651910	0.402967
O9	O	0.662859	-0.318576	0.736300
O10	O	0.225654	-0.972543	0.054162
O11	O	0.558987	-0.639210	0.387495
O12	O	0.892320	-0.305877	0.720829
O13	O	-0.010447	-0.992215	-0.068776
O14	O	0.322886	-0.658882	0.264558
O15	O	0.656220	-0.325549	0.597891
O16	O	0.110588	-0.864851	-0.076930
O17	O	0.443921	-0.531517	0.256403
O18	O	0.777254	-0.198184	0.589737
O19	O	0.097980	-1.106880	-0.076093
O20	O	0.431313	-0.773547	0.257241
O21	O	0.764647	-0.440214	0.590574
Zn22	Zn	0.103230	-0.986972	-0.098487
Zn23	Zn	0.436563	-0.653639	0.234847
Zn24	Zn	0.769896	-0.320306	0.568180
Zn25	Zn	0.111977	-0.977786	0.083873
Zn26	Zn	0.445310	-0.644453	0.417206
Zn27	Zn	0.778644	-0.311119	0.750540
O28	O	0.219015	-0.979516	-0.084247
O29	O	0.552348	-0.646182	0.249086
O30	O	0.885681	-0.312849	0.582420
C31	C	0.113397	-0.830388	-0.007689
C32	C	0.446730	-0.497055	0.325644
C33	C	0.780063	-0.163721	0.658977
C34	C	0.111866	-0.738089	-0.007581
C35	C	0.445199	-0.404755	0.325752
C36	C	0.778532	-0.071422	0.659085
N37	N	0.097259	-0.993248	-0.222942
N38	N	0.430593	-0.659915	0.110391
N39	N	0.763926	-0.326581	0.443724
C40	C	-0.036490	-0.988113	0.002410
C41	C	0.296844	-0.654780	0.335744
C42	C	0.630177	-0.321447	0.669077
C43	C	-0.123980	-0.986269	0.008315
C44	C	0.209353	-0.652936	0.341648
C45	C	0.542686	-0.319603	0.674982
C46	C	-0.616075	-0.975552	0.049742
C47	C	-0.282742	-0.642218	0.383076
C48	C	0.050591	-0.308885	0.716409
C49	C	-0.533868	-0.977277	0.044177
C50	C	-0.200535	-0.643944	0.377511
C51	C	0.132798	-0.310610	0.710844
C52	C	-0.496399	-0.981934	-0.034052
C53	C	-0.163066	-0.648601	0.299281
C54	C	0.170267	-0.315267	0.632615
C55	C	-0.541143	-0.984874	-0.106721
C56	C	-0.207810	-0.651541	0.226612
C57	C	0.125524	-0.318207	0.559945
C58	C	-0.623349	-0.983154	-0.101155
C59	C	-0.290016	-0.649821	0.232178
C60	C	0.043317	-0.316488	0.565511
C61	C	-0.250930	-0.987490	-0.058788
C62	C	0.082403	-0.654156	0.274545
C63	C	0.415736	-0.320823	0.607878
C64	C	-0.168718	-0.989207	-0.064349
C65	C	0.164616	-0.655873	0.268985
C66	C	0.497949	-0.322540	0.602318
C67	C	-0.161449	-0.981611	0.086551
C68	C	0.171885	-0.648278	0.419884
C69	C	0.505218	-0.314945	0.753217
C70	C	-0.243656	-0.979887	0.092110
C71	C	0.089677	-0.646554	0.425443
C72	C	0.423011	-0.313220	0.758776
C73	C	-0.288393	-0.982831	0.019441
C74	C	0.044940	-0.649498	0.352774
C75	C	0.378273	-0.316165	0.686107
N76	N	-0.412371	-0.983695	-0.039742
N77	N	-0.079037	-0.650362	0.293591
N78	N	0.254296	-0.317029	0.626924
N79	N	-0.372421	-0.981076	0.025132
N80	N	-0.039088	-0.647743	0.358465
N81	N	0.294245	-0.314409	0.691798
C82	C	0.251697	-0.976645	-0.017022
C83	C	0.585030	-0.643312	0.316311
C84	C	0.918363	-0.309978	0.649644
C85	C	0.339187	-0.978489	-0.022921
C86	C	0.672521	-0.645155	0.310412
C87	C	1.005854	-0.311822	0.643745
C88	C	0.101810	-1.134370	-0.006922
C89	C	0.435144	-0.801037	0.326411
C90	C	0.768477	-0.467704	0.659744
C91	C	0.103341	-1.226670	-0.007025
C92	C	0.436675	-0.893336	0.326308
C93	C	0.770008	-0.560003	0.659642
C94	C	0.180125	-0.515995	-0.012193
C95	C	0.513458	-0.182662	0.321140
C96	C	0.846791	0.150672	0.654474
C97	C	0.178680	-0.429271	-0.012101
C98	C	0.512013	-0.095938	0.321232
C99	C	0.845346	0.237395	0.654566
C100	C	0.035077	-0.448770	-0.002415
C101	C	0.368410	-0.115437	0.330918
C102	C	0.701743	0.217897	0.664251
C103	C	0.036522	-0.535493	-0.002513
C104	C	0.369856	-0.202159	0.330820
C105	C	0.703189	0.131174	0.664153
C106	C	0.109049	-0.569102	-0.007398
C107	C	0.442382	-0.235769	0.325935
C108	C	0.775715	0.097564	0.659268
C109	C	0.106158	-0.395656	-0.007208
C110	C	0.439492	-0.062323	0.326125
C111	C	0.772825	0.271011	0.659459
C112	C	0.104591	-0.301626	-0.007108
C113	C	0.437924	0.031707	0.326225
C114	C	0.771258	0.365041	0.659558
C115	C	0.110616	-0.663138	-0.007500
C116	C	0.443950	-0.329805	0.325834
C117	C	0.777283	0.003529	0.659167
C118	C	0.148741	-0.939044	-0.270125
C119	C	0.482074	-0.605710	0.063208
C120	C	0.815408	-0.272377	0.396541
C121	C	0.144561	-0.943458	-0.357249
C122	C	0.477895	-0.610124	-0.023915
C123	C	0.811228	-0.276791	0.309418
C124	C	0.088896	-1.002073	-0.397187
C125	C	0.422229	-0.668739	-0.063854
C126	C	0.755563	-0.335406	0.269479
C127	C	0.037412	-1.056283	-0.349998
C128	C	0.370746	-0.722949	-0.016665
C129	C	0.704079	-0.389616	0.316668
C130	C	0.041596	-1.051872	-0.262877
C131	C	0.374930	-0.718539	0.070457
C132	C	0.708263	-0.385205	0.403790
C133	C	0.070641	-1.021317	-0.657360
C134	C	0.403975	-0.687983	-0.324027
C135	C	0.737308	-0.354650	0.009307
C136	C	0.066460	-1.025721	-0.744488
C137	C	0.399793	-0.692388	-0.411155
C138	C	0.733126	-0.359055	-0.077821
C139	C	0.173610	-0.912897	-0.751732
C140	C	0.506943	-0.579564	-0.418399
C141	C	0.840277	-0.246230	-0.085066
C142	C	0.177786	-0.908488	-0.664609
C143	C	0.511119	-0.575155	-0.331275
C144	C	0.844453	-0.241821	0.002058
C145	C	0.126305	-0.962701	-0.617427
C146	C	0.459638	-0.629368	-0.284094
C147	C	0.792972	-0.296034	0.049239
N148	N	0.084621	-1.006584	-0.486242
N149	N	0.417954	-0.673251	-0.152908
N150	N	0.751287	-0.339918	0.180425
N151	N	0.130585	-0.958193	-0.528375
N152	N	0.463918	-0.624860	-0.195042
N153	N	0.797251	-0.291526	0.138292
N154	N	0.117941	-0.971517	0.208329
N155	N	0.451274	-0.638184	0.541663
N156	N	0.784608	-0.304850	0.874996
H157	H	-0.646575	-0.971752	0.113445
H158	H	-0.313242	-0.638418	0.446778
H159	H	0.020092	-0.305085	0.780112
H160	H	-0.510630	-0.988671	-0.170417
H161	H	-0.177297	-0.655338	0.162916
H162	H	0.156036	-0.322004	0.496249
Cl163	Cl	-0.290754	-0.974035	0.190459
Cl164	Cl	0.042579	-0.640701	0.523793
Cl165	Cl	0.375913	-0.307368	0.857126
Cl166	Cl	0.271300	-0.558245	-0.018339
Cl167	Cl	0.604633	-0.224911	0.314994
Cl168	Cl	0.937967	0.108422	0.648327
H169	H	-0.497447	-0.974887	0.103348
H170	H	-0.164113	-0.641554	0.436681
H171	H	0.169220	-0.308220	0.770015
H172	H	-0.138210	-0.992974	-0.128056
H173	H	0.195123	-0.659641	0.205277
H174	H	0.528456	-0.326307	0.538611
H175	H	-0.659774	-0.985546	-0.160326
H176	H	-0.326440	-0.652212	0.173007
H177	H	0.006893	-0.318879	0.506341
H178	H	-0.021360	-0.578735	0.001389
H179	H	0.311973	-0.245402	0.334722
H180	H	0.645307	0.087932	0.668056
H181	H	0.215524	-0.868760	-0.790155
H182	H	0.548858	-0.535427	-0.456822
H183	H	0.882191	-0.202093	-0.123489
H184	H	-0.000324	-1.096012	-0.224461
H185	H	0.333009	-0.762679	0.108873
H186	H	0.666342	-0.429345	0.442206
H187	H	0.236557	-0.386034	-0.016007
H188	H	0.569890	-0.052701	0.317326
H189	H	0.903224	0.280632	0.650659
Cl190	Cl	-0.056094	-0.406511	0.003731
Cl191	Cl	0.277239	-0.073178	0.337064
Cl192	Cl	0.610573	0.260156	0.670397
H193	H	-0.007909	-1.104013	-0.382522
H194	H	0.325424	-0.770679	-0.049188
H195	H	0.658757	-0.437346	0.284145
Cl196	Cl	-0.105206	-0.977928	0.177900
Cl197	Cl	0.228127	-0.644595	0.511233
Cl198	Cl	0.561461	-0.311261	0.844567
H199	H	0.028722	-1.065458	-0.618952
H200	H	0.362055	-0.732124	-0.285618
H201	H	0.695389	-0.398791	0.047715
Cl202	Cl	0.218720	-0.865348	-0.219926
Cl203	Cl	0.552054	-0.532015	0.113407
Cl204	Cl	0.885387	-0.198681	0.446741
H205	H	0.021127	-1.073455	-0.777001
H206	H	0.354460	-0.740122	-0.443668
H207	H	0.687794	-0.406789	-0.110335
Cl208	Cl	-0.307159	-0.991183	-0.150145
Cl209	Cl	0.026174	-0.657850	0.183189
Cl210	Cl	0.359507	-0.324516	0.516522
H211	H	0.186482	-0.899321	-0.395665
H212	H	0.519815	-0.565987	-0.062332
H213	H	0.853149	-0.232654	0.271002
Cl214	Cl	0.247765	-0.834799	-0.614400
Cl215	Cl	0.581098	-0.501466	-0.281066
Cl216	Cl	0.914432	-0.168132	0.052267
