data_functionalizedCrystal
_audit_creation_method	'MofGen! by Chris Wilmer'
_symmetry_space_group_name_H-M	'P1'
_symmetry_Int_Tables_number	1
_symmetry_cell_setting	triclinic
loop_
_symmetry_equiv_pos_as_xyz
  x,y,z
_cell_length_a	19.805407
_cell_length_b	19.121063
_cell_length_c	19.805399
_cell_angle_alpha	87.588895
_cell_angle_beta	90.019573
_cell_angle_gamma	92.469032
loop_
_atom_site_label
_atom_site_type_symbol
_atom_site_fract_x
_atom_site_fract_y
_atom_site_fract_z
Zn1	Zn	1.023234	-0.279631	0.394203
Zn2	Zn	1.273234	-0.029631	0.644203
Zn3	Zn	1.523234	0.220369	0.894203
Zn4	Zn	1.773234	0.470369	1.144203
Zn5	Zn	1.018317	-0.397083	0.285838
Zn6	Zn	1.268317	-0.147083	0.535838
Zn7	Zn	1.518317	0.102917	0.785838
Zn8	Zn	1.768317	0.352917	1.035838
Zn9	Zn	0.910048	-0.279650	0.281028
Zn10	Zn	1.160048	-0.029650	0.531028
Zn11	Zn	1.410048	0.220350	0.781028
Zn12	Zn	1.660048	0.470350	1.031028
Zn13	Zn	0.905182	-0.397046	0.398983
Zn14	Zn	1.155182	-0.147046	0.648983
Zn15	Zn	1.405182	0.102954	0.898983
Zn16	Zn	1.655182	0.352954	1.148983
O17	O	0.964195	-0.338352	0.340013
O18	O	1.214195	-0.088352	0.590013
O19	O	1.464195	0.161648	0.840013
O20	O	1.714195	0.411648	1.090013
O21	O	1.117298	-0.295218	0.379840
O22	O	1.367298	-0.045218	0.629840
O23	O	1.617298	0.204782	0.879840
O24	O	1.867298	0.454782	1.129840
O25	O	1.003934	-0.381529	0.190484
O26	O	1.253934	-0.131529	0.440484
O27	O	1.503934	0.118471	0.690484
O28	O	1.753934	0.368471	0.940484
O29	O	0.929156	-0.181363	0.292028
O30	O	1.179156	0.068637	0.542028
O31	O	1.429156	0.318637	0.792028
O32	O	1.679156	0.568637	1.042028
O33	O	1.113686	-0.381510	0.300225
O34	O	1.363686	-0.131510	0.550225
O35	O	1.613686	0.118490	0.800225
O36	O	1.863686	0.368490	1.050225
O37	O	1.012313	-0.181348	0.375177
O38	O	1.262313	0.068652	0.625177
O39	O	1.512313	0.318652	0.875177
O40	O	1.762313	0.568652	1.125177
O41	O	0.924388	-0.295251	0.186951
O42	O	1.174388	-0.045251	0.436951
O43	O	1.424388	0.204749	0.686951
O44	O	1.674388	0.454749	0.936951
O45	O	0.814686	-0.295215	0.296663
O46	O	1.064686	-0.045215	0.546663
O47	O	1.314686	0.204785	0.796663
O48	O	1.564686	0.454785	1.046663
O49	O	0.920863	-0.381447	0.493065
O50	O	1.170863	-0.131447	0.743065
O51	O	1.420863	0.118553	0.993065
O52	O	1.670863	0.368553	1.243065
O53	O	0.811111	-0.381465	0.383324
O54	O	1.061111	-0.131465	0.633324
O55	O	1.311111	0.118535	0.883324
O56	O	1.561111	0.368535	1.133324
O57	O	1.007595	-0.295182	0.489553
O58	O	1.257595	-0.045182	0.739553
O59	O	1.507595	0.204818	0.989553
O60	O	1.757595	0.454818	1.239553
O61	O	0.999216	-0.495363	0.304860
O62	O	1.249216	-0.245363	0.554860
O63	O	1.499216	0.004637	0.804860
O64	O	1.749216	0.254637	1.054860
O65	O	0.916096	-0.495335	0.387987
O66	O	1.166096	-0.245335	0.637987
O67	O	1.416096	0.004665	0.887987
O68	O	1.666096	0.254665	1.137987
C69	C	0.788340	-0.338339	0.339991
C70	C	1.038340	-0.088339	0.589991
C71	C	1.288340	0.161661	0.839991
C72	C	1.538340	0.411661	1.089991
C73	C	0.713107	-0.338350	0.339998
C74	C	0.963107	-0.088350	0.589998
C75	C	1.213107	0.161650	0.839998
C76	C	1.463107	0.411650	1.089998
C77	C	0.956613	-0.520833	0.347479
C78	C	1.206613	-0.270833	0.597479
C79	C	1.456613	-0.020833	0.847479
C80	C	1.706613	0.229167	1.097479
C81	C	0.953431	-0.598899	0.350696
C82	C	1.203431	-0.348899	0.600696
C83	C	1.453431	-0.098899	0.850696
C84	C	1.703431	0.151101	1.100696
C85	C	0.675917	-0.383328	0.385055
C86	C	0.925917	-0.133328	0.635055
C87	C	1.175917	0.116672	0.885055
C88	C	1.425917	0.366672	1.135055
C89	C	0.605228	-0.383329	0.385064
C90	C	0.855228	-0.133329	0.635064
C91	C	1.105228	0.116671	0.885064
C92	C	1.355228	0.366671	1.135064
C93	C	0.571732	-0.338356	0.340013
C94	C	0.821732	-0.088356	0.590013
C95	C	1.071732	0.161644	0.840013
C96	C	1.321732	0.411644	1.090013
C97	C	0.608927	-0.293373	0.294954
C98	C	0.858927	-0.043373	0.544954
C99	C	1.108927	0.206627	0.794954
C100	C	1.358927	0.456627	1.044954
C101	C	0.679614	-0.293368	0.294948
C102	C	0.929614	-0.043368	0.544948
C103	C	1.179614	0.206632	0.794948
C104	C	1.429614	0.456632	1.044948
C105	C	0.323853	-0.293388	0.294977
C106	C	0.573853	-0.043388	0.544977
C107	C	0.823853	0.206612	0.794977
C108	C	1.073853	0.456612	1.044977
C109	C	0.253161	-0.293397	0.294985
C110	C	0.503161	-0.043397	0.544985
C111	C	0.753161	0.206603	0.794985
C112	C	1.003161	0.456603	1.044985
C113	C	0.249467	-0.383349	0.385093
C114	C	0.499467	-0.133349	0.635093
C115	C	0.749467	0.116651	0.885093
C116	C	0.999467	0.366651	1.135093
C117	C	0.320154	-0.383345	0.385087
C118	C	0.570154	-0.133345	0.635087
C119	C	0.820154	0.116655	0.885087
C120	C	1.070154	0.366655	1.135087
C121	C	0.357344	-0.338360	0.340031
C122	C	0.607344	-0.088360	0.590031
C123	C	0.857344	0.161640	0.840031
C124	C	1.107344	0.411640	1.090031
C125	C	0.433992	-0.338358	0.340022
C126	C	0.683992	-0.088358	0.590022
C127	C	0.933992	0.161642	0.840022
C128	C	1.183992	0.411642	1.090022
C129	C	0.495084	-0.338360	0.340018
C130	C	0.745084	-0.088360	0.590018
C131	C	0.995084	0.161640	0.840018
C132	C	1.245084	0.411640	1.090018
C133	C	0.995246	-0.635566	0.308963
C134	C	1.245246	-0.385566	0.558963
C135	C	1.495246	-0.135566	0.808963
C136	C	1.745246	0.114434	1.058963
C137	C	0.992258	-0.708917	0.311992
C138	C	1.242258	-0.458917	0.561992
C139	C	1.492258	-0.208917	0.811992
C140	C	1.742258	0.041083	1.061992
C141	C	0.947451	-0.745601	0.356752
C142	C	1.197451	-0.495601	0.606752
C143	C	1.447451	-0.245601	0.856752
C144	C	1.697451	0.004399	1.106752
C145	C	0.905634	-0.708929	0.398489
C146	C	1.155634	-0.458929	0.648489
C147	C	1.405634	-0.208929	0.898489
C148	C	1.655634	0.041071	1.148489
C149	C	0.908626	-0.635579	0.395463
C150	C	1.158626	-0.385579	0.645463
C151	C	1.408626	-0.135579	0.895463
C152	C	1.658626	0.114421	1.145463
C153	C	0.936252	-0.967071	0.368056
C154	C	1.186252	-0.717071	0.618056
C155	C	1.436252	-0.467071	0.868056
C156	C	1.686252	-0.217071	1.118056
C157	C	0.933262	-1.040426	0.371078
C158	C	1.183262	-0.790426	0.621078
C159	C	1.433262	-0.540426	0.871078
C160	C	1.683262	-0.290426	1.121078
C161	C	1.019887	-1.040409	0.284581
C162	C	1.269887	-0.790409	0.534581
C163	C	1.519887	-0.540409	0.784581
C164	C	1.769887	-0.290409	1.034581
C165	C	1.022872	-0.967058	0.281556
C166	C	1.272872	-0.717058	0.531556
C167	C	1.522872	-0.467058	0.781556
C168	C	1.772872	-0.217058	1.031556
C169	C	0.981058	-0.930393	0.323296
C170	C	1.231058	-0.680393	0.573296
C171	C	1.481058	-0.430393	0.823296
C172	C	1.731058	-0.180393	1.073296
C173	C	0.944394	-0.820578	0.359848
C174	C	1.194394	-0.570578	0.609848
C175	C	1.444394	-0.320578	0.859848
C176	C	1.694394	-0.070578	1.109848
C177	C	0.984119	-0.855417	0.320203
C178	C	1.234119	-0.605417	0.570203
C179	C	1.484119	-0.355417	0.820203
C180	C	1.734119	-0.105417	1.070203
C181	C	1.140737	-0.338366	0.340036
C182	C	1.390737	-0.088366	0.590036
C183	C	1.640737	0.161634	0.840036
C184	C	1.890737	0.411634	1.090036
C185	C	1.215969	-0.338372	0.340046
C186	C	1.465969	-0.088372	0.590046
C187	C	1.715969	0.161628	0.840046
C188	C	1.965969	0.411628	1.090046
C189	C	0.964235	-0.338308	0.516554
C190	C	1.214235	-0.088308	0.766554
C191	C	1.464235	0.161692	1.016554
C192	C	1.714235	0.411692	1.266554
C193	C	0.964252	-0.338289	0.591785
C194	C	1.214252	-0.088289	0.841785
C195	C	1.464252	0.161711	1.091785
C196	C	1.714252	0.411711	1.341785
C197	C	0.971825	-0.155159	0.332532
C198	C	1.221825	0.094841	0.582532
C199	C	1.471825	0.344841	0.832532
C200	C	1.721825	0.594841	1.082532
C201	C	0.975077	-0.077093	0.329345
C202	C	1.225077	0.172907	0.579345
C203	C	1.475077	0.422907	0.829345
C204	C	1.725077	0.672907	1.079345
C205	C	0.964197	-0.338346	0.164157
C206	C	1.214197	-0.088346	0.414157
C207	C	1.464197	0.161654	0.664157
C208	C	1.714197	0.411654	0.914157
C209	C	0.964319	-0.338167	0.088918
C210	C	1.214319	-0.088167	0.338918
C211	C	1.464319	0.161833	0.588918
C212	C	1.714319	0.411833	0.838918
C213	C	1.009414	-0.293369	0.625302
C214	C	1.259414	-0.043369	0.875302
C215	C	1.509414	0.206631	1.125302
C216	C	1.759414	0.456631	1.375302
C217	C	1.009422	-0.293349	0.695989
C218	C	1.259422	-0.043349	0.945989
C219	C	1.509422	0.206651	1.195989
C220	C	1.759422	0.456651	1.445989
C221	C	0.964270	-0.338253	0.733159
C222	C	1.214270	-0.088253	0.983159
C223	C	1.464270	0.161747	1.233159
C224	C	1.714270	0.411747	1.483159
C225	C	0.919103	-0.383175	0.699638
C226	C	1.169103	-0.133175	0.949638
C227	C	1.419103	0.116825	1.199638
C228	C	1.669103	0.366825	1.449638
C229	C	0.919093	-0.383191	0.628952
C230	C	1.169093	-0.133191	0.878952
C231	C	1.419093	0.116809	1.128952
C232	C	1.669093	0.366809	1.378952
C233	C	0.919144	-0.383109	0.984709
C234	C	1.169144	-0.133109	1.234709
C235	C	1.419144	0.116891	1.484709
C236	C	1.669144	0.366891	1.734709
C237	C	0.919159	-0.383091	1.055400
C238	C	1.169159	-0.133091	1.305400
C239	C	1.419159	0.116909	1.555400
C240	C	1.669159	0.366909	1.805400
C241	C	1.009474	-0.293267	1.051747
C242	C	1.259474	-0.043267	1.301747
C243	C	1.509474	0.206733	1.551747
C244	C	1.759474	0.456733	1.801747
C245	C	1.009463	-0.293283	0.981060
C246	C	1.259463	-0.043283	1.231060
C247	C	1.509463	0.206717	1.481060
C248	C	1.759463	0.456717	1.731060
C249	C	0.964294	-0.338202	0.947545
C250	C	1.214294	-0.088202	1.197545
C251	C	1.464294	0.161798	1.447545
C252	C	1.714294	0.411798	1.697545
C253	C	0.964285	-0.338223	0.870897
C254	C	1.214285	-0.088223	1.120897
C255	C	1.464285	0.161777	1.370897
C256	C	1.714285	0.411777	1.620897
C257	C	0.964282	-0.338236	0.809806
C258	C	1.214282	-0.088236	1.059806
C259	C	1.464282	0.161764	1.309806
C260	C	1.714282	0.411764	1.559806
H261	H	0.703185	-0.419953	0.421739
H262	H	0.953185	-0.169953	0.671739
H263	H	1.203185	0.080047	0.921739
H264	H	1.453185	0.330047	1.171739
F265	F	0.719195	-0.245495	0.246994
F266	F	0.969195	0.004505	0.496994
F267	F	1.219195	0.254505	0.746994
F268	F	1.469195	0.504505	0.996994
F269	F	0.871071	-0.430916	0.949048
F270	F	1.121071	-0.180916	1.199048
F271	F	1.371071	0.069084	1.449048
F272	F	1.621071	0.319084	1.699048
H273	H	0.907910	-0.850454	0.396289
H274	H	1.157910	-0.600454	0.646289
H275	H	1.407910	-0.350454	0.896289
H276	H	1.657910	-0.100454	1.146289
F277	F	0.217513	-0.245527	0.247033
F278	F	0.467513	0.004473	0.497033
F279	F	0.717513	0.254473	0.747033
F280	F	0.967513	0.504473	0.997033
F281	F	1.057475	-0.245579	0.585749
F282	F	1.307475	0.004421	0.835749
F283	F	1.557475	0.254421	1.085749
F284	F	1.807475	0.504421	1.335749
H285	H	0.581649	-0.256751	0.258275
H286	H	0.831649	-0.006751	0.508275
H287	H	1.081649	0.243249	0.758275
H288	H	1.331649	0.493249	1.008275
H289	H	1.046199	-0.256772	0.723275
H290	H	1.296199	-0.006772	0.973275
H291	H	1.546199	0.243228	1.223275
H292	H	1.796199	0.493228	1.473275
H293	H	0.882337	-0.419734	0.729907
H294	H	1.132337	-0.169734	0.979907
H295	H	1.382337	0.080266	1.229907
H296	H	1.632337	0.330266	1.479907
H297	H	0.874577	-0.605726	0.429447
H298	H	1.124577	-0.355726	0.679447
H299	H	1.374577	-0.105726	0.929447
H300	H	1.624577	0.144274	1.179447
H301	H	0.902204	-0.937224	0.402041
H302	H	1.152204	-0.687224	0.652041
H303	H	1.402204	-0.437224	0.902041
H304	H	1.652204	-0.187224	1.152041
H305	H	0.896783	-1.070292	0.407538
H306	H	1.146783	-0.820292	0.657538
H307	H	1.396783	-0.570292	0.907538
H308	H	1.646783	-0.320292	1.157538
H309	H	1.026308	-0.738768	0.278008
H310	H	1.276308	-0.488768	0.528008
H311	H	1.526308	-0.238768	0.778008
H312	H	1.776308	0.011232	1.028008
F313	F	0.871023	-0.430999	0.593281
F314	F	1.121023	-0.180999	0.843281
F315	F	1.371023	0.069001	1.093281
F316	F	1.621023	0.319001	1.343281
F317	F	1.057522	-0.245493	0.941505
F318	F	1.307522	0.004507	1.191505
F319	F	1.557522	0.254507	1.441505
F320	F	1.807522	0.504507	1.691505
F321	F	0.565651	-0.431201	0.433021
F322	F	0.815651	-0.181201	0.683021
F323	F	1.065651	0.068799	0.933021
F324	F	1.315651	0.318799	1.183021
F325	F	0.363424	-0.245509	0.247025
F326	F	0.613424	0.004491	0.497025
F327	F	0.863424	0.254491	0.747025
F328	F	1.113424	0.504491	0.997025
H329	H	1.046250	-0.256689	1.079043
H330	H	1.296250	-0.006689	1.329043
H331	H	1.546250	0.243311	1.579043
H332	H	1.796250	0.493311	1.829043
H333	H	1.059358	-0.937192	0.245110
H334	H	1.309358	-0.687192	0.495110
H335	H	1.559358	-0.437192	0.745110
H336	H	1.809358	-0.187192	0.995110
F337	F	1.042933	-0.596531	0.261320
F338	F	1.292933	-0.346531	0.511320
F339	F	1.542933	-0.096531	0.761320
F340	F	1.792933	0.153469	1.011320
F341	F	1.064388	-1.079436	0.240165
F342	F	1.314388	-0.829436	0.490165
F343	F	1.564388	-0.579436	0.740165
F344	F	1.814388	-0.329436	0.990165
F345	F	0.871100	-0.430886	1.094958
F346	F	1.121100	-0.180886	1.344958
F347	F	1.371100	0.069114	1.594958
F348	F	1.621100	0.319114	1.844958
H349	H	0.347424	-0.419970	0.421771
H350	H	0.597424	-0.169970	0.671771
H351	H	0.847424	0.080030	0.921771
H352	H	1.097424	0.330030	1.171771
H353	H	0.219179	-0.419976	0.421783
H354	H	0.469179	-0.169976	0.671783
H355	H	0.719179	0.080024	0.921783
H356	H	0.969179	0.330024	1.171783
H357	H	0.869154	-0.738803	0.434936
H358	H	1.119154	-0.488803	0.684936
H359	H	1.369154	-0.238803	0.934936
H360	H	1.619154	0.011197	1.184936
F361	F	1.031808	-0.816374	0.272571
F362	F	1.281808	-0.566374	0.522571
F363	F	1.531808	-0.316374	0.772571
F364	F	1.781808	-0.066374	1.022571
