data_functionalizedCrystal
_audit_creation_method	'MofGen! by Chris Wilmer'
_symmetry_space_group_name_H-M	'P1'
_symmetry_Int_Tables_number	1
_symmetry_cell_setting	triclinic
loop_
_symmetry_equiv_pos_as_xyz
  x,y,z
_cell_length_a	19.805407
_cell_length_b	18.101397
_cell_length_c	19.805399
_cell_angle_alpha	90.033690
_cell_angle_beta	89.980427
_cell_angle_gamma	89.974888
loop_
_atom_site_label
_atom_site_type_symbol
_atom_site_fract_x
_atom_site_fract_y
_atom_site_fract_z
Zn1	Zn	1.034742	0.294847	-0.382691
Zn2	Zn	1.034659	0.418690	-0.269491
Zn3	Zn	0.921556	0.294867	-0.269516
Zn4	Zn	0.921522	0.418651	-0.382637
O5	O	0.978120	0.356764	-0.326084
O6	O	1.129447	0.311283	-0.367687
O7	O	1.019635	0.402290	-0.174777
O8	O	0.936619	0.191232	-0.284561
O9	O	1.129387	0.402270	-0.284519
O10	O	1.019776	0.191217	-0.367711
O11	O	0.936539	0.311318	-0.174796
O12	O	0.826835	0.311279	-0.284509
O13	O	0.936562	0.402203	-0.477361
O14	O	0.826810	0.402223	-0.367620
O15	O	1.019743	0.311245	-0.477400
O16	O	1.019603	0.522318	-0.284467
O17	O	0.936482	0.522289	-0.367595
C18	C	0.802264	0.356750	-0.326062
C19	C	0.727032	0.356761	-0.326068
C20	C	0.978048	0.549174	-0.326037
C21	C	0.978079	0.631488	-0.326040
C22	C	0.691693	0.404187	-0.369274
C23	C	0.621004	0.404188	-0.369283
C24	C	0.585656	0.356767	-0.326084
C25	C	0.621001	0.309336	-0.282876
C26	C	0.691688	0.309332	-0.282871
C27	C	0.335927	0.309353	-0.282899
C28	C	0.265235	0.309363	-0.282906
C29	C	0.265244	0.404209	-0.369311
C30	C	0.335931	0.404205	-0.369306
C31	C	0.371269	0.356771	-0.326101
C32	C	0.447917	0.356770	-0.326092
C33	C	0.509009	0.356772	-0.326089
C34	C	0.978143	0.930579	-0.326081
C35	C	1.030297	0.899242	-0.273641
C36	C	1.030484	0.813623	-0.273783
C37	C	0.978111	0.782197	-0.326060
C38	C	0.997444	0.813206	-0.397403
C39	C	0.997841	0.898851	-0.397111
C40	C	0.906519	0.899088	-0.307798
C41	C	0.906879	0.813438	-0.306212
C42	C	0.978092	0.698337	-0.326053
C43	C	0.978164	1.014439	-0.326093
C44	C	1.154663	0.356779	-0.326106
C45	C	1.229895	0.356785	-0.326115
C46	C	0.978158	0.356717	-0.502626
C47	C	0.978174	0.356697	-0.577858
C48	C	0.978192	1.163602	-0.326127
C49	C	0.978175	1.081288	-0.326101
C50	C	1.021488	0.309333	-0.613224
C51	C	1.021495	0.309311	-0.683913
C52	C	0.978191	0.356659	-0.719234
C53	C	0.934872	0.404025	-0.683863
C54	C	0.934863	0.404042	-0.613176
C55	C	0.934911	0.403956	-0.968937
C56	C	0.934925	0.403937	-1.039629
C57	C	1.021543	0.309225	-1.039673
C58	C	1.021533	0.309242	-0.968986
C59	C	0.978212	0.356606	-0.933622
C60	C	0.978204	0.356627	-0.856973
C61	C	0.978202	0.356641	-0.795881
C62	C	0.978121	0.356757	-0.150228
C63	C	0.978236	0.356568	-0.074996
H64	H	0.720468	0.442805	-0.404450
C65	C	0.887238	0.456107	-0.722712
H66	H	0.861436	0.484314	-0.691523
H67	H	0.913118	0.488371	-0.750281
H68	H	0.857762	0.427765	-0.750290
H69	H	0.865934	0.792054	-0.341612
C70	C	0.374810	0.456365	-0.416827
H71	H	0.343638	0.484606	-0.442566
H72	H	0.402365	0.488594	-0.390880
H73	H	0.402404	0.428068	-0.446367
H74	H	0.899585	0.442604	-0.584382
H75	H	0.888928	0.920747	-0.256674
H76	H	0.236463	0.442829	-0.404493
H77	H	0.867661	0.919355	-0.345993
C78	C	1.069191	0.257120	-1.078576
H79	H	1.062992	0.263883	-1.125734
H80	H	1.114660	0.267968	-1.066997
H81	H	1.059305	0.207361	-1.067004
H82	H	0.592234	0.442808	-0.404465
C83	C	0.887266	0.456057	-0.930041
H84	H	0.893454	0.449285	-0.882884
H85	H	0.897151	0.505813	-0.941612
H86	H	0.841794	0.445208	-0.941624
H87	H	1.018345	0.919883	-0.220580
C88	C	0.226354	0.257191	-0.235390
H89	H	0.257523	0.228935	-0.209663
H90	H	0.198756	0.285476	-0.205850
H91	H	0.198801	0.224966	-0.261350
H92	H	1.056767	0.270744	-0.712704
C93	C	1.069165	0.257158	-0.930136
H94	H	1.094958	0.228940	-0.961323
H95	H	1.098639	0.285493	-0.902555
H96	H	1.043276	0.224894	-0.902569
H97	H	1.083062	0.920710	-0.285599
H98	H	0.364691	0.270735	-0.247714
H99	H	0.899659	0.442494	-1.068386
H100	H	1.056753	0.270779	-0.584471
C101	C	1.014154	0.785300	-0.202320
H102	H	1.007348	0.826138	-0.172940
H103	H	0.974352	0.756074	-0.203698
H104	H	1.050700	0.756226	-0.186227
H105	H	1.083542	0.793080	-0.285883
H106	H	0.592215	0.270722	-0.247705
C107	C	0.948764	0.926857	-0.451701
H108	H	0.928676	0.885889	-0.473960
H109	H	0.914555	0.956064	-0.431217
H110	H	0.972794	0.955884	-0.483615
C111	C	0.730561	0.257163	-0.235346
H112	H	0.699387	0.228924	-0.209615
H113	H	0.758157	0.224933	-0.261294
H114	H	0.758115	0.285449	-0.205800
C115	C	1.068567	0.925764	-0.418024
H116	H	1.096787	0.884356	-0.426614
H117	H	1.065123	0.954965	-0.457711
H118	H	1.087432	0.954565	-0.382636
C119	C	0.887179	0.786065	-0.235290
H120	H	0.922212	0.755720	-0.217844
H121	H	0.880608	0.827253	-0.206276
H122	H	0.846566	0.758316	-0.237999
H123	H	1.049215	0.791699	-0.413155
C124	C	0.947708	0.785701	-0.451613
H125	H	0.914634	0.754986	-0.431170
H126	H	0.926218	0.826823	-0.472244
H127	H	0.971592	0.758311	-0.484866
