data_functionalizedCrystal
_audit_creation_method	'MofGen! by Chris Wilmer'
_symmetry_space_group_name_H-M	'P1'
_symmetry_Int_Tables_number	1
_symmetry_cell_setting	triclinic
loop_
_symmetry_equiv_pos_as_xyz
  x,y,z
_cell_length_a	16.109301
_cell_length_b	10.489741
_cell_length_c	15.186229
_cell_angle_alpha	89.996534
_cell_angle_beta	89.999362
_cell_angle_gamma	84.000327
loop_
_atom_site_label
_atom_site_type_symbol
_atom_site_fract_x
_atom_site_fract_y
_atom_site_fract_z
O1	O	1.104141	0.163947	-0.073172
O2	O	0.862205	0.184350	-0.073186
O3	O	0.988678	-0.011529	-0.073174
O4	O	0.977668	0.359826	-0.073185
O5	O	0.988670	-0.011532	0.073284
O6	O	0.862196	0.184347	0.073271
O7	O	1.104133	0.163944	0.073285
Zn8	Zn	0.983163	0.174145	0.096531
Zn9	Zn	0.983174	0.174149	-0.096433
O10	O	0.977659	0.359823	0.073272
C11	C	0.831221	0.183522	0.000041
C12	C	0.738910	0.181044	0.000035
C13	C	0.987842	-0.059050	0.000054
C14	C	0.985354	-0.200644	0.000053
C15	C	0.517319	0.291514	0.000042
C16	C	0.430584	0.289175	0.000048
C17	C	0.449026	0.056771	0.000051
C18	C	0.535759	0.059111	0.000052
C19	C	0.569903	0.176486	0.000043
C20	C	0.396435	0.171808	0.000048
C21	C	0.302393	0.169272	0.000054
C22	C	0.663950	0.179022	0.000038
C23	C	0.904883	-0.267616	0.000042
C24	C	0.942893	-0.360292	0.072255
C25	C	0.942920	-0.360264	-0.072141
C26	C	1.023397	-0.291454	0.072325
C27	C	1.023413	-0.291417	-0.072135
C28	C	1.061482	-0.384066	0.000096
C29	C	1.135117	0.164772	0.000056
C30	C	1.227427	0.167250	0.000056
C31	C	0.978495	0.407344	0.000042
C32	C	0.980983	0.548938	0.000038
N33	N	0.983162	0.174142	0.228224
N34	N	0.983183	0.174142	-0.228125
C35	C	1.039183	0.087436	0.453952
C36	C	1.039186	0.087433	0.546142
C37	C	0.927155	0.260852	0.546140
C38	C	0.927149	0.260848	0.453952
C39	C	0.983168	0.174141	0.407860
C40	C	0.983176	0.174142	0.592238
C41	C	0.983179	0.174140	0.692194
C42	C	0.983165	0.174142	0.307898
H43	H	0.545116	0.387088	0.000042
H44	H	1.057413	-0.261117	0.133445
H45	H	1.057437	-0.260865	-0.133185
C46	C	0.373632	0.414203	-0.000001
C47	C	0.422102	0.517488	-0.000030
C48	C	0.369666	0.632687	-0.000086
H49	H	0.339397	0.418305	0.051059
H50	H	0.339425	0.418192	-0.051093
H51	H	0.456294	0.513500	0.051057
H52	H	0.456335	0.513428	-0.051086
H53	H	0.335460	0.636676	-0.051178
H54	H	0.335434	0.636776	0.050975
H55	H	0.402545	0.702779	-0.000114
H56	H	0.421215	-0.038791	0.000064
C57	C	0.866301	0.354790	0.596300
C58	C	0.815023	0.286826	0.649253
C59	C	0.758963	0.373322	0.695481
H60	H	0.832856	0.406466	0.555747
H61	H	0.896508	0.407881	0.632306
H62	H	0.784819	0.233757	0.613251
H63	H	0.848445	0.235155	0.689823
H64	H	0.789170	0.426413	0.731487
H65	H	0.725524	0.424993	0.654922
H66	H	0.724170	0.327222	0.731421
C67	C	0.592718	-0.065923	0.000007
C68	C	0.544255	-0.169215	-0.000016
C69	C	0.596696	-0.284408	-0.000066
H70	H	0.626952	-0.070023	0.051067
H71	H	0.626925	-0.069904	-0.051086
H72	H	0.510062	-0.165236	0.051071
H73	H	0.510022	-0.165158	-0.051072
H74	H	0.630903	-0.288390	-0.051159
H75	H	0.630928	-0.288495	0.050995
H76	H	0.563822	-0.354506	-0.000090
C77	C	0.866368	0.354855	0.403743
C78	C	0.878339	0.336267	0.313144
C79	C	0.822358	0.422824	0.266865
H80	H	0.875853	0.440044	0.418737
H81	H	0.810782	0.340973	0.418804
H82	H	0.933912	0.350160	0.298090
H83	H	0.868847	0.251096	0.298125
H84	H	0.766772	0.408942	0.281925
H85	H	0.831848	0.508007	0.281866
H86	H	0.830467	0.410216	0.205389
H87	H	1.084798	0.016828	0.583667
H88	H	0.838720	-0.217005	0.000110
C89	C	0.897336	-0.400894	0.153579
C90	C	0.815379	-0.341402	0.153234
C91	C	0.773379	-0.378780	0.228126
H92	H	0.925287	-0.376192	0.204923
H93	H	0.896477	-0.491315	0.153260
H94	H	0.816242	-0.251000	0.153561
H95	H	0.787405	-0.366096	0.101906
H96	H	0.772520	-0.469202	0.227808
H97	H	0.801337	-0.354077	0.279465
H98	H	0.717765	-0.338430	0.227898
H99	H	1.127704	-0.434450	0.000140
C100	C	0.897382	-0.400708	-0.153517
C101	C	0.815441	-0.341153	-0.153180
C102	C	0.773464	-0.378359	-0.228131
H103	H	0.896476	-0.491106	-0.153294
H104	H	0.925393	-0.375923	-0.204817
H105	H	0.787437	-0.365946	-0.101894
H106	H	0.816322	-0.250756	-0.153417
H107	H	0.801475	-0.353575	-0.279431
H108	H	0.772564	-0.468757	-0.227902
H109	H	0.717865	-0.337948	-0.227917
H110	H	1.084796	0.016832	0.416427
