data_functionalizedCrystal
_audit_creation_method	'MofGen! by Chris Wilmer'
_symmetry_space_group_name_H-M	'P1'
_symmetry_Int_Tables_number	1
_symmetry_cell_setting	triclinic
loop_
_symmetry_equiv_pos_as_xyz
  x,y,z
_cell_length_a	19.288859
_cell_length_b	19.288865
_cell_length_c	9.130313
_cell_angle_alpha	90.008224
_cell_angle_beta	90.004585
_cell_angle_gamma	83.134986
loop_
_atom_site_label
_atom_site_type_symbol
_atom_site_fract_x
_atom_site_fract_y
_atom_site_fract_z
O1	O	0.921350	0.086626	0.121845
O2	O	0.719089	0.098319	0.121844
O3	O	0.826064	-0.008658	0.121815
O4	O	0.814375	0.193603	0.121873
O5	O	0.826056	-0.008658	-0.121784
O6	O	0.719081	0.098319	-0.121755
O7	O	0.921342	0.086626	-0.121754
Cu8	Cu	0.820211	0.092472	-0.143997
Cu9	Cu	0.820220	0.092472	0.144087
O10	O	0.814367	0.193603	-0.121726
C11	C	0.693209	0.097943	0.000044
C12	C	0.616105	0.096816	0.000042
C13	C	0.052064	0.151959	0.000060
C14	C	0.124511	0.153025	0.000068
C15	C	0.169217	0.090255	0.000047
C16	C	0.141472	0.026416	0.000056
C17	C	0.069027	0.025353	0.000063
C18	C	0.290485	0.043442	-0.085315
C19	C	0.362928	0.044508	-0.085331
C20	C	0.392663	0.093533	0.000033
C21	C	0.349944	0.141503	0.085394
C22	C	0.277499	0.140439	0.085401
C23	C	0.247773	0.091401	0.000041
C24	C	0.498955	0.158523	0.000043
C25	C	0.571403	0.159586	0.000060
C26	C	0.588364	0.032976	0.000034
C27	C	0.515917	0.031915	0.000031
C28	C	0.471216	0.094691	0.000029
C29	C	0.825684	-0.034535	0.000012
C30	C	0.824555	-0.111638	-0.000001
C31	C	0.887323	-0.156336	-0.000008
C32	C	0.886262	-0.228783	0.000015
C33	C	0.822430	-0.256529	0.000016
C34	C	0.759654	-0.211822	0.000031
C35	C	0.760716	-0.139376	0.000022
C36	C	0.772248	-0.364815	-0.085312
C37	C	0.771188	-0.437260	-0.085313
C38	C	0.819150	-0.479975	0.000048
C39	C	0.868185	-0.450238	0.085391
C40	C	0.869247	-0.377792	0.085382
C41	C	0.821271	-0.335083	0.000026
C42	C	0.880773	-0.603228	0.000069
C43	C	0.879709	-0.675676	0.000101
C44	C	0.753099	-0.658713	0.000102
C45	C	0.754164	-0.586267	0.000084
C46	C	0.818003	-0.558529	0.000061
C47	C	0.947223	0.087001	0.000049
C48	C	1.024327	0.088128	0.000061
C49	C	0.814747	0.219479	0.000081
C50	C	0.815876	0.296583	0.000104
N51	N	0.820209	0.092472	-0.346620
C52	C	0.862202	0.134492	-0.423253
C53	C	0.862214	0.134488	-0.576590
C54	C	0.778233	0.050442	-0.576646
C55	C	0.778226	0.050443	-0.423312
N56	N	0.820228	0.092467	0.346709
H57	H	0.046445	-0.026628	0.000064
H58	H	0.896388	0.168715	-0.360815
H59	H	0.624763	-0.018132	0.000028
H60	H	0.896409	0.168705	-0.638978
H61	H	0.493333	-0.020063	0.000023
N62	N	0.409000	-0.007220	-0.177411
H63	H	0.379173	-0.038442	-0.231477
H64	H	0.443056	-0.036559	-0.111963
H65	H	0.266282	0.003517	-0.154832
H66	H	0.907240	-0.485015	0.154901
N67	N	0.732933	0.005113	-0.340654
H68	H	0.682355	0.018941	-0.367345
H69	H	0.739360	0.011507	-0.231907
N70	N	0.949623	-0.573305	0.000044
H71	H	0.952892	-0.543610	0.090331
H72	H	0.952834	-0.543674	-0.090333
H73	H	0.593984	0.211567	0.000072
H74	H	0.733189	-0.330042	-0.154831
N75	N	0.718312	-0.469332	-0.177374
H76	H	0.688085	-0.431281	-0.231440
H77	H	0.688092	-0.495399	-0.111914
N78	N	0.947413	-0.723890	0.000100
H79	H	0.988012	-0.695322	0.000079
H80	H	0.949720	-0.754327	-0.090200
N81	N	0.690805	-0.241742	0.000039
H82	H	0.699656	-0.294419	0.000039
H83	H	0.663343	-0.225382	-0.090264
N84	N	0.732952	0.005112	-0.659365
H85	H	0.739327	0.011489	-0.768131
H86	H	0.682393	0.018964	-0.632576
H87	H	0.147099	0.205005	0.000054
H88	H	0.937377	-0.265183	0.000015
N89	N	0.693014	-0.091161	0.000030
H90	H	0.652413	-0.119728	0.000039
H91	H	0.690694	-0.060744	-0.090281
H92	H	0.015673	0.203077	0.000065
H93	H	0.242719	0.179497	0.154907
N94	N	0.189687	-0.041286	0.000039
H95	H	0.239790	-0.030927	0.000030
H96	H	0.180720	-0.069118	-0.090268
N97	N	0.382002	0.194388	0.177466
H98	H	0.434377	0.187783	0.164518
H99	H	0.370211	0.187711	0.283916
N100	N	0.450736	0.226227	0.000057
H101	H	0.479304	0.266827	0.000074
H102	H	0.420313	0.228541	0.090364
H103	H	0.939306	-0.133757	-0.000022
H104	H	0.909171	-0.353583	0.154874
N105	N	0.686465	-0.538049	0.000062
H106	H	0.684086	-0.507605	0.090359
H107	H	0.645903	-0.566664	0.000007
N108	N	0.684249	-0.688628	0.000119
H109	H	0.693099	-0.741305	0.000128
H110	H	0.656787	-0.672272	-0.090186
