data_functionalizedCrystal
_audit_creation_method	'MofGen! by Chris Wilmer'
_symmetry_space_group_name_H-M	'P1'
_symmetry_Int_Tables_number	1
_symmetry_cell_setting	triclinic
loop_
_symmetry_equiv_pos_as_xyz
  x,y,z
_cell_length_a	11.026607
_cell_length_b	13.596369
_cell_length_c	10.908878
_cell_angle_alpha	90.000591
_cell_angle_beta	84.335404
_cell_angle_gamma	90.006133
loop_
_atom_site_label
_atom_site_type_symbol
_atom_site_fract_x
_atom_site_fract_y
_atom_site_fract_z
O1	O	1.506488	0.081790	0.513753
O2	O	1.839822	0.415124	0.847086
O3	O	2.173155	0.748457	1.180420
O4	O	1.164988	0.081792	0.455251
O5	O	1.498321	0.415125	0.788585
O6	O	1.831655	0.748458	1.121918
O7	O	1.381008	0.081787	0.308035
O8	O	1.714342	0.415120	0.641368
O9	O	2.047675	0.748454	0.974701
O10	O	1.290468	0.081795	0.660970
O11	O	1.623801	0.415128	0.994303
O12	O	1.957135	0.748462	1.327636
O13	O	1.380984	-0.081796	0.308040
O14	O	1.714318	0.251538	0.641374
O15	O	2.047651	0.584871	0.974707
O16	O	1.164964	-0.081791	0.455257
O17	O	1.498297	0.251542	0.788590
O18	O	1.831631	0.584875	1.121923
O19	O	1.506464	-0.081793	0.513758
O20	O	1.839798	0.251541	0.847092
O21	O	2.173131	0.584874	1.180425
Zn22	Zn	1.335710	-0.107764	0.484508
Zn23	Zn	1.669044	0.225569	0.817842
Zn24	Zn	2.002377	0.558902	1.151175
Zn25	Zn	1.335742	0.107763	0.484501
Zn26	Zn	1.669075	0.441097	0.817835
Zn27	Zn	2.002409	0.774430	1.151168
O28	O	1.290444	-0.081788	0.660975
O29	O	1.623777	0.251545	0.994308
O30	O	1.957111	0.584879	1.327642
C31	C	1.121943	0.000000	0.444461
C32	C	1.455277	0.333334	0.777795
C33	C	1.788610	0.666667	1.111128
C34	C	0.993722	0.000001	0.412288
C35	C	1.327055	0.333334	0.745622
C36	C	1.660389	0.666668	1.078955
N37	N	1.335697	-0.254856	0.484514
N38	N	1.669031	0.078477	0.817848
N39	N	2.002364	0.411811	1.151181
C40	C	0.901989	0.000004	0.501123
C41	C	1.235322	0.333337	0.834457
C42	C	1.568656	0.666670	1.167790
C43	C	0.769465	0.000004	0.467873
C44	C	1.102798	0.333337	0.801207
C45	C	1.436131	0.666671	1.134540
C46	C	1.335703	-0.343854	0.484519
C47	C	1.669036	-0.010521	0.817852
C48	C	2.002369	0.322813	1.151185
C49	C	1.335716	-0.455505	0.484513
C50	C	1.669049	-0.122172	0.817846
C51	C	2.002382	0.211161	1.151179
C52	C	1.335734	-0.544496	0.484502
C53	C	1.669067	-0.211163	0.817836
C54	C	2.002400	0.122171	1.151169
C55	C	1.335748	-0.656154	0.484498
C56	C	1.669082	-0.322821	0.817831
C57	C	2.002415	0.010512	1.151165
C58	C	1.549509	0.000001	0.524548
C59	C	1.882842	0.333334	0.857882
C60	C	2.216176	0.666667	1.191215
C61	C	1.677730	0.000007	0.556721
C62	C	2.011064	0.333340	0.890055
C63	C	2.344397	0.666673	1.223388
C64	C	1.389458	-0.000003	0.262152
C65	C	1.722791	0.333330	0.595485
C66	C	2.056124	0.666663	0.928819
C67	C	1.414656	0.000000	0.125424
C68	C	1.747990	0.333333	0.458758
C69	C	2.081323	0.666667	0.792091
N70	N	1.335766	0.254855	0.484488
N71	N	1.669099	0.588188	0.817821
N72	N	2.002433	0.921522	1.151154
C73	C	1.322712	0.000002	0.055162
C74	C	1.656045	0.333335	0.388495
C75	C	1.989378	0.666669	0.721828
C76	C	1.348753	0.000006	-0.086154
C77	C	1.682087	0.333339	0.247179
C78	C	2.015420	0.666672	0.580513
C79	C	1.281995	0.000004	0.706858
C80	C	1.615328	0.333338	1.040191
C81	C	1.948661	0.666671	1.373524
C82	C	1.256796	0.000008	0.843586
C83	C	1.590129	0.333341	1.176919
C84	C	1.923463	0.666674	1.510252
H85	H	0.921564	0.000000	0.601794
H86	H	1.254898	0.333333	0.935128
H87	H	1.588231	0.666667	1.268461
N88	N	1.544471	0.000005	0.066546
N89	N	1.877804	0.333338	0.399880
N90	N	2.211137	0.666672	0.733213
H91	H	1.587847	-0.060636	0.093124
H92	H	1.921181	0.272697	0.426457
H93	H	2.254514	0.606030	0.759790
H94	H	1.544574	0.000044	-0.026045
H95	H	1.877907	0.333377	0.307288
H96	H	2.211240	0.666711	0.640622
H97	H	1.224716	-0.000003	0.099627
H98	H	1.558049	0.333330	0.432960
H99	H	1.891382	0.666663	0.766294
N100	N	0.743548	-0.000008	0.334516
N101	N	1.076881	0.333326	0.667849
N102	N	1.410215	0.666659	1.001182
H103	H	0.695162	0.060631	0.317195
H104	H	1.028496	0.393964	0.650529
H105	H	1.361829	0.727298	0.983862
H106	H	0.823020	-0.000048	0.279882
H107	H	1.156353	0.333285	0.613215
H108	H	1.489686	0.666618	0.946548
H109	H	1.446756	0.000002	-0.130614
H110	H	1.780090	0.333335	0.202719
H111	H	2.113423	0.666669	0.536053
N112	N	1.126976	-0.000002	-0.097540
N113	N	1.460309	0.333331	0.235793
N114	N	1.793642	0.666665	0.569127
H115	H	1.126770	-0.000006	-0.004935
H116	H	1.460104	0.333328	0.328398
H117	H	1.793437	0.666661	0.661732
H118	H	1.083669	0.060641	-0.124208
H119	H	1.417002	0.393974	0.209126
H120	H	1.750336	0.727307	0.542459
H121	H	0.697297	0.000002	0.657399
H122	H	1.030630	0.333336	0.990733
H123	H	1.363964	0.666669	1.324066
H124	H	0.974146	0.000024	0.311618
H125	H	1.307480	0.333357	0.644951
H126	H	1.640813	0.666691	0.978284
