data_functionalizedCrystal
_audit_creation_method	'MofGen! by Chris Wilmer'
_symmetry_space_group_name_H-M	'P1'
_symmetry_Int_Tables_number	1
_symmetry_cell_setting	triclinic
loop_
_symmetry_equiv_pos_as_xyz
  x,y,z
_cell_length_a	10.654550
_cell_length_b	11.792241
_cell_length_c	9.730223
_cell_angle_alpha	89.996370
_cell_angle_beta	89.996251
_cell_angle_gamma	95.660841
loop_
_atom_site_label
_atom_site_type_symbol
_atom_site_fract_x
_atom_site_fract_y
_atom_site_fract_z
O1	O	1.667383	-0.159415	-0.114386
O2	O	1.301862	-0.174603	-0.114363
O3	O	1.493493	-0.001859	-0.114383
O4	O	1.475752	-0.332159	-0.114366
O5	O	1.493490	-0.001863	0.114197
O6	O	1.301859	-0.174608	0.114217
O7	O	1.667381	-0.159419	0.114194
Zn8	Zn	1.484620	-0.167014	0.150497
Zn9	Zn	1.484623	-0.167008	-0.150666
O10	O	1.475750	-0.332163	0.114214
C11	C	1.255066	-0.173490	-0.000070
C12	C	1.115632	-0.170154	-0.000062
C13	C	1.035858	-0.271863	-0.000076
C14	C	0.904847	-0.268721	-0.000100
C15	C	0.933394	-0.062152	-0.000101
C16	C	1.064404	-0.065295	-0.000067
C17	C	1.087087	-0.376722	-0.000071
C18	C	1.007312	-0.478439	-0.000087
C19	C	0.876300	-0.475297	-0.000111
C20	C	0.825063	-0.370438	-0.000119
C21	C	1.476865	-0.374455	-0.000074
C22	C	1.480201	-0.500476	-0.000068
C23	C	1.486334	-0.731203	-0.000103
C24	C	1.482926	-0.602809	-0.000084
C25	C	1.714177	-0.160532	-0.000102
C26	C	1.853611	-0.163869	-0.000119
C27	C	1.492377	0.040432	-0.000098
C28	C	1.489042	0.166454	-0.000113
N29	N	1.484627	-0.167017	0.356034
N30	N	1.484625	-0.166996	-0.356203
C31	C	1.569503	-0.090552	0.427951
C32	C	1.569500	-0.090539	0.571834
C33	C	1.399740	-0.243465	0.571870
C34	C	1.399739	-0.243472	0.427990
C35	C	1.654391	-0.014098	0.355995
C36	C	1.739275	0.062373	0.427912
C37	C	1.739272	0.062387	0.571795
C38	C	1.654385	-0.014070	0.643761
H39	H	1.129358	0.017526	-0.000059
H40	H	1.330630	-0.305714	0.630474
N41	N	1.825953	0.140527	0.354457
N42	N	1.942050	0.138075	0.370523
H43	H	2.003254	0.193300	0.318665
N44	N	1.825968	0.140514	0.645237
N45	N	1.901745	0.208771	0.580968
H46	H	1.962980	0.263950	0.632833
N47	N	1.654383	-0.014029	0.790734
N48	N	1.730164	0.054258	0.854934
H49	H	1.730166	0.054287	0.958733
H50	H	0.811350	-0.558120	-0.000110
N51	N	0.691238	-0.367219	-0.000095
N52	N	0.626382	-0.411922	0.096263
H53	H	0.531870	-0.409648	0.096282
H54	H	1.654404	-0.014104	0.238838
N55	N	1.220907	-0.379953	-0.000059
N56	N	1.266636	-0.473578	-0.000059
H57	H	1.361147	-0.475861	-0.000055
N58	N	1.059664	-0.585534	-0.000057
N59	N	1.176637	-0.588329	-0.000031
H60	H	1.213611	-0.663967	-0.000007
H61	H	1.330623	-0.305736	0.369435
H62	H	0.891666	0.023220	-0.000130
