data_functionalizedCrystal
_audit_creation_method	'MofGen! by Chris Wilmer'
_symmetry_space_group_name_H-M	'P1'
_symmetry_Int_Tables_number	1
_symmetry_cell_setting	triclinic
loop_
_symmetry_equiv_pos_as_xyz
  x,y,z
_cell_length_a	18.215407
_cell_length_b	16.120256
_cell_length_c	18.215405
_cell_angle_alpha	92.870633
_cell_angle_beta	90.022329
_cell_angle_gamma	92.880741
loop_
_atom_site_label
_atom_site_type_symbol
_atom_site_fract_x
_atom_site_fract_y
_atom_site_fract_z
Zn1	Zn	1.103975	-0.471317	-0.314161
Zn2	Zn	1.110124	-0.331898	-0.430985
Zn3	Zn	0.987147	-0.331926	-0.307933
Zn4	Zn	0.980876	-0.471269	-0.437183
O5	O	1.045530	-0.401602	-0.372566
O6	O	1.207775	-0.452831	-0.329671
O7	O	1.099009	-0.215238	-0.409462
O8	O	1.002696	-0.350447	-0.205776
O9	O	1.212292	-0.350400	-0.415501
O10	O	1.088529	-0.452858	-0.210352
O11	O	1.008658	-0.215259	-0.319056
O12	O	0.883331	-0.350402	-0.325065
O13	O	0.992007	-0.587939	-0.426064
O14	O	0.878724	-0.452777	-0.420025
O15	O	1.082448	-0.587974	-0.335681
O16	O	1.092928	-0.350354	-0.534790
O17	O	0.997969	-0.452750	-0.539344
C18	C	0.854325	-0.401588	-0.372542
C19	C	0.772525	-0.401601	-0.372551
C20	C	0.581974	-0.455021	-0.327960
C21	C	0.505115	-0.455024	-0.327966
C22	C	0.509838	-0.348198	-0.417193
C23	C	0.586696	-0.348192	-0.417182
C24	C	0.622761	-0.401608	-0.372567
C25	C	0.469045	-0.401617	-0.372584
C26	C	0.385711	-0.401620	-0.372591
C27	C	0.706101	-0.401604	-0.372558
C28	C	1.035842	-0.619052	-0.382258
C29	C	1.031713	-0.711715	-0.386389
C30	C	1.067060	-0.922678	-0.351006
C31	C	1.024151	-0.881368	-0.393900
C32	C	1.028360	-0.786965	-0.389720
C33	C	1.062852	-1.017090	-0.355186
C34	C	1.237483	-0.401617	-0.372589
C35	C	1.319281	-0.401624	-0.372600
C36	C	1.045454	-0.401562	-0.563770
C37	C	1.045488	-0.401573	-0.645569
C38	C	1.055224	-0.184999	-0.362857
C39	C	1.059495	-0.092336	-0.358519
C40	C	1.095039	-0.348354	-0.831372
C41	C	1.095071	-0.348374	-0.908232
C42	C	0.996113	-0.454911	-0.913009
C43	C	0.996085	-0.454894	-0.836151
C44	C	1.045547	-0.401611	-0.795335
C45	C	1.045607	-0.401648	-0.949052
C46	C	1.045642	-0.401670	-1.032387
C47	C	1.045514	-0.401590	-0.711995
C48	C	1.045626	-0.401661	-0.180615
C49	C	1.045667	-0.401686	-0.098817
H50	H	0.619906	-0.304692	-0.453506
H51	H	0.984250	-0.916901	-0.433757
C52	C	1.148819	-0.290696	-0.947498
C53	C	1.138296	-0.302154	-1.023545
C54	C	1.187826	-0.249068	-1.059741
H55	H	1.140678	-0.234614	-0.932550
H56	H	1.197702	-0.303007	-0.935421
H57	H	1.089425	-0.289837	-1.035617
H58	H	1.146443	-0.358225	-1.038514
H59	H	1.236709	-0.261379	-1.047664
H60	H	1.179681	-0.192990	-1.044787
H61	H	1.180698	-0.256841	-1.111343
C62	C	1.120240	-0.875155	-0.297938
C63	C	1.113912	-0.789613	-0.304316
C64	C	1.162900	-0.745799	-0.255452
H65	H	1.108934	-0.889269	-0.249069
H66	H	1.169077	-0.889339	-0.309344
H67	H	1.065087	-0.775435	-0.292905
H68	H	1.125225	-0.775475	-0.353174
H69	H	1.211736	-0.759983	-0.266858
H70	H	1.151589	-0.759919	-0.206587
H71	H	1.158617	-0.687755	-0.259778
C72	C	1.148824	-0.290478	-0.787188
C73	C	1.192186	-0.243858	-0.835203
C74	C	1.241750	-0.190542	-0.794530
H75	H	1.122395	-0.254042	-0.755616
H76	H	1.179473	-0.322377	-0.758605
H77	H	1.161542	-0.211961	-0.863773
H78	H	1.218632	-0.280271	-0.866776
H79	H	1.272398	-0.222441	-0.765947
H80	H	1.215314	-0.154111	-0.762960
H81	H	1.271181	-0.158909	-0.827103
C82	C	0.942440	-0.512661	-0.957455
C83	C	0.953041	-0.501261	-1.032477
C84	C	0.903602	-0.554437	-1.073440
H85	H	0.950617	-0.568719	-0.947418
H86	H	0.893529	-0.500396	-0.944395
H87	H	1.001941	-0.513533	-1.045532
H88	H	0.944858	-0.445214	-1.042537
H89	H	0.854691	-0.542171	-1.060381
H90	H	0.911783	-0.610492	-1.063397
H91	H	0.910783	-0.546704	-1.124346
C92	C	0.942266	-0.512752	-0.797153
C93	C	0.898938	-0.559399	-0.849346
C94	C	0.849351	-0.612697	-0.813448
H95	H	0.968677	-0.549172	-0.768756
H96	H	0.911597	-0.480839	-0.765801
H97	H	0.929604	-0.591310	-0.880686
H98	H	0.872511	-0.523001	-0.877746
H99	H	0.818682	-0.580784	-0.782095
H100	H	0.875768	-0.649111	-0.785052
H101	H	0.819943	-0.644348	-0.848855
H102	H	0.471910	-0.498517	-0.291642
C103	C	0.621034	-0.513144	-0.279567
C104	C	0.598655	-0.595597	-0.299366
C105	C	0.634611	-0.649162	-0.254794
H106	H	0.672655	-0.505606	-0.285907
H107	H	0.608970	-0.501092	-0.229556
H108	H	0.610723	-0.607645	-0.349364
H109	H	0.547038	-0.603161	-0.293022
H110	H	0.622548	-0.637110	-0.204783
H111	H	0.686231	-0.641617	-0.261138
H112	H	0.619427	-0.705112	-0.268216
C113	C	0.470542	-0.290303	-0.465611
C114	C	0.394502	-0.301756	-0.456091
C115	C	0.358280	-0.248446	-0.500692
H116	H	0.485539	-0.234274	-0.452315
H117	H	0.482546	-0.302412	-0.515628
H118	H	0.382503	-0.289641	-0.406085
H119	H	0.379483	-0.357774	-0.469392
H120	H	0.370285	-0.260556	-0.550709
H121	H	0.373284	-0.192421	-0.487391
H122	H	0.306684	-0.256215	-0.494244
