data_functionalizedCrystal
_audit_creation_method	'MofGen! by Chris Wilmer'
_symmetry_space_group_name_H-M	'P1'
_symmetry_Int_Tables_number	1
_symmetry_cell_setting	triclinic
loop_
_symmetry_equiv_pos_as_xyz
  x,y,z
_cell_length_a	15.944551
_cell_length_b	10.065875
_cell_length_c	10.967931
_cell_angle_alpha	110.814645
_cell_angle_beta	95.883839
_cell_angle_gamma	98.743338
loop_
_atom_site_label
_atom_site_type_symbol
_atom_site_fract_x
_atom_site_fract_y
_atom_site_fract_z
O1	O	1.123867	0.078481	-0.148249
O2	O	0.878914	0.073665	-0.168868
O3	O	1.011800	0.120474	0.030260
O4	O	0.990982	0.031673	-0.347378
O5	O	0.986457	-0.115477	-0.007863
O6	O	0.853571	-0.162285	-0.206992
O7	O	1.098525	-0.157469	-0.186373
Zn8	Zn	0.972024	-0.197339	-0.202735
Zn9	Zn	1.005414	0.113535	-0.152506
O10	O	0.965639	-0.204278	-0.385502
C11	C	0.834966	-0.044104	-0.187073
C12	C	0.741772	-0.043487	-0.184504
C13	C	0.999529	0.013865	0.059524
C14	C	1.000713	0.047735	0.203518
N15	N	0.949243	-0.409503	-0.237015
C16	C	0.529473	-0.013047	-0.054942
C17	C	0.479759	0.089141	-0.096311
C18	C	0.571136	-0.042412	-0.179863
C19	C	0.454795	-0.143495	-0.133928
C20	C	0.406310	-0.041377	-0.175372
C21	C	0.522660	0.059864	-0.221251
C22	C	0.497692	-0.172872	-0.258867
C23	C	0.447997	-0.070677	-0.300323
C24	C	0.666089	-0.043006	-0.182447
C25	C	0.311359	-0.040775	-0.172796
C26	C	1.142473	-0.039697	-0.168167
C27	C	1.235668	-0.040304	-0.170735
C28	C	0.997483	-0.460218	-0.164425
C29	C	0.979956	-0.623589	-0.190817
N30	N	1.028203	0.325701	-0.118216
C31	C	0.989331	-0.024408	0.396789
C32	C	0.988110	-0.059409	0.247965
C33	C	0.977911	-0.097669	0.585235
C34	C	0.976729	-0.131536	0.441242
H35	H	0.564870	0.011476	0.048757
H36	H	0.976422	-0.177046	0.175848
H37	H	0.412795	-0.095016	-0.404095
H38	H	0.894964	-0.487029	-0.318696
O39	O	0.962755	-0.271793	0.355026
C40	C	0.948884	-0.434556	0.128106
C41	C	0.964700	-0.275650	0.225592
H42	H	0.950470	-0.437726	0.023441
H43	H	0.883289	-0.494607	0.132410
H44	H	1.001251	-0.488981	0.156323
H45	H	0.912386	-0.221099	0.197441
H46	H	1.030323	-0.215706	0.221272
H47	H	0.552180	0.145909	-0.258140
O48	O	1.014822	0.188108	0.289524
C49	C	1.111771	0.421168	0.381315
C50	C	1.095910	0.262232	0.283885
H51	H	1.177321	0.481152	0.376768
H52	H	1.110336	0.424481	0.486054
H53	H	1.059360	0.475563	0.353183
H54	H	1.148302	0.207741	0.311895
H55	H	1.097311	0.259021	0.179172
H56	H	0.425190	-0.229414	-0.096958
O57	O	0.469657	0.221239	-0.014133
C58	C	0.500128	0.401049	0.208072
C59	C	0.511613	0.251418	0.115151
H60	H	0.534057	0.425509	0.312612
H61	H	0.428623	0.400596	0.208587
H62	H	0.529253	0.487870	0.171776
H63	H	0.482537	0.164514	0.151379
H64	H	0.583130	0.251993	0.114645
H65	H	1.051756	-0.382691	-0.082733
O66	O	1.092799	-0.581580	-0.020610
C67	C	1.168894	-0.334113	0.095113
C68	C	1.095826	-0.438994	-0.015639
H69	H	1.171354	-0.218805	0.099187
H70	H	1.232936	-0.366734	0.074168
H71	H	1.156447	-0.339151	0.194048
H72	H	1.108190	-0.434008	-0.114619
H73	H	1.031808	-0.406339	0.005421
O74	O	0.915092	-0.715971	-0.288136
C75	C	0.762751	-0.779644	-0.371996
C76	C	0.836122	-0.674937	-0.261685
H77	H	0.698889	-0.746488	-0.350663
H78	H	0.760077	-0.894943	-0.375920
H79	H	0.774986	-0.774961	-0.471131
H80	H	0.823940	-0.679493	-0.162492
H81	H	0.838777	-0.559686	-0.257877
O82	O	0.507988	-0.305013	-0.340639
C83	C	0.569741	-0.514484	-0.361021
C84	C	0.558162	-0.364830	-0.268290
H85	H	0.610290	-0.562903	-0.302558
H86	H	0.603482	-0.501873	-0.444186
H87	H	0.503959	-0.589516	-0.404963
H88	H	0.623908	-0.289719	-0.224252
H89	H	0.524379	-0.377553	-0.185201
H90	H	1.001028	0.093222	0.468911
