data_functionalizedCrystal
_audit_creation_method	'MofGen! by Chris Wilmer'
_symmetry_space_group_name_H-M	'P1'
_symmetry_Int_Tables_number	1
_symmetry_cell_setting	triclinic
loop_
_symmetry_equiv_pos_as_xyz
  x,y,z
_cell_length_a	27.732048
_cell_length_b	27.731996
_cell_length_c	9.565339
_cell_angle_alpha	89.994276
_cell_angle_beta	90.001982
_cell_angle_gamma	82.632022
loop_
_atom_site_label
_atom_site_type_symbol
_atom_site_fract_x
_atom_site_fract_y
_atom_site_fract_z
O1	O	0.640916	0.057515	-0.116098
O2	O	0.500121	0.066261	-0.116143
O3	O	0.574904	-0.008511	-0.116088
O4	O	0.566133	0.132286	-0.116152
O5	O	0.574899	-0.008506	0.116432
O6	O	0.500115	0.066265	0.116378
O7	O	0.640910	0.057520	0.116422
Zn8	Zn	0.570512	0.061893	0.153318
Zn9	Zn	0.570520	0.061887	-0.153038
O10	O	0.566127	0.132291	0.116368
C11	C	0.482111	0.066079	0.000112
C12	C	0.428456	0.065527	0.000096
C13	C	0.089634	0.106231	0.000139
C14	C	-0.112026	0.104180	0.000152
O15	O	-0.143288	0.141402	0.000196
N16	N	-0.131141	0.059844	0.000170
C17	C	-0.099838	0.016017	0.000193
O18	O	-0.120724	-0.021740	0.000222
C19	C	0.101820	0.018069	0.000189
C20	C	0.120933	0.062408	0.000158
C21	C	0.108747	0.150567	0.000109
C22	C	0.159159	0.151079	0.000098
C23	C	0.190457	0.107256	0.000117
C24	C	0.171344	0.062920	0.000147
C25	C	0.133122	-0.025757	0.000223
C26	C	0.183539	-0.025240	0.000225
C27	C	0.202652	0.019099	0.000194
C28	C	0.253055	0.019609	0.000155
N29	N	0.272171	0.063946	0.000138
C30	C	0.240872	0.107769	0.000118
C31	C	-0.205712	0.014943	0.000192
C32	C	-0.256126	0.014430	0.000190
C33	C	-0.268310	0.102594	0.000152
C34	C	-0.217895	0.103106	0.000144
C35	C	-0.186597	0.059280	0.000174
C36	C	0.346741	0.108842	0.000094
C37	C	0.397158	0.109350	0.000077
C38	C	0.409337	0.021187	0.000123
C39	C	0.358925	0.020678	0.000132
C40	C	0.327627	0.064510	0.000123
O41	O	0.284346	-0.017592	0.000127
O42	O	0.261767	0.145521	0.000120
C43	C	0.039222	0.105719	0.000150
C44	C	0.020109	0.061384	0.000180
C45	C	0.051408	0.017560	0.000199
C46	C	-0.030305	0.060871	0.000178
C47	C	-0.061604	0.104694	0.000159
C48	C	-0.042489	0.149030	0.000142
C49	C	0.007923	0.149543	0.000131
C50	C	0.032292	-0.026776	0.000216
C51	C	-0.018120	-0.027285	0.000226
C52	C	-0.049419	0.016539	0.000207
C53	C	0.574721	-0.026516	0.000176
C54	C	0.574179	-0.080172	0.000190
C55	C	0.570767	-0.412891	-0.126626
C56	C	0.568706	-0.614549	-0.126651
O57	O	0.568422	-0.640622	-0.234445
N58	N	0.568447	-0.639764	0.000094
C59	C	0.568700	-0.614560	0.126855
O60	O	0.568427	-0.640633	0.234659
C61	C	0.570757	-0.412902	0.126879
C62	C	0.571021	-0.387691	0.000125
C63	C	0.571031	-0.387679	-0.253369
C64	C	0.571549	-0.337268	-0.253362
C65	C	0.571803	-0.312068	-0.126611
C66	C	0.571539	-0.337280	0.000133
C67	C	0.571007	-0.387699	0.253638
C68	C	0.571520	-0.337281	0.253633
C69	C	0.571784	-0.312070	0.126879
C70	C	0.572311	-0.261669	0.126891
N71	N	0.572571	-0.236454	0.000146
C72	C	0.572316	-0.261654	-0.126605
C73	C	0.567620	-0.720434	0.126834
C74	C	0.567107	-0.770848	0.126828
C75	C	0.567112	-0.770833	-0.126679
C76	C	0.567629	-0.720418	-0.126671
C77	C	0.567880	-0.695219	0.000088
C78	C	0.573404	-0.155787	-0.126579
C79	C	0.573924	-0.105372	-0.126561
C80	C	0.573916	-0.105390	0.126945
C81	C	0.573399	-0.155802	0.126927
C82	C	0.573141	-0.180999	0.000154
O83	O	0.572591	-0.235564	0.234629
O84	O	0.572578	-0.235571	-0.234393
C85	C	0.570249	-0.463302	-0.126633
C86	C	0.569986	-0.488513	0.000110
C87	C	0.570240	-0.463314	0.126861
C88	C	0.569472	-0.538928	0.000105
C89	C	0.569218	-0.564127	-0.126646
C90	C	0.569477	-0.538913	-0.253392
C91	C	0.569995	-0.488502	-0.253384
C92	C	0.569981	-0.488528	0.253606
C93	C	0.569463	-0.538940	0.253589
C94	C	0.569209	-0.564139	0.126838
C95	C	0.658920	0.057701	0.000165
C96	C	0.712575	0.058254	0.000171
C97	C	0.566310	0.150296	0.000101
C98	C	0.566853	0.203952	0.000077
N99	N	0.570510	0.061897	0.362397
N100	N	0.570525	0.061879	-0.362117
C101	C	0.535915	0.096465	0.453575
C102	C	0.579525	0.105519	0.546763
C103	C	0.526919	0.052847	0.546764
C104	C	0.614142	0.070972	0.453533
C105	C	0.561507	0.018282	0.453526
C106	C	0.605149	0.027317	0.546672
H107	H	0.412716	0.145458	0.000051
C108	C	0.551188	-0.031517	0.398142
H109	H	0.520181	-0.037892	0.430005
H110	H	0.575451	-0.056141	0.431401
H111	H	0.551553	-0.031236	0.298835
H112	H	0.570210	-0.467979	-0.356600
C113	C	0.573110	-0.183535	0.266351
H114	H	0.573333	-0.161305	0.341839
H115	H	0.601104	-0.207107	0.271638
H116	H	0.544702	-0.199296	0.271602
C117	C	0.569195	-0.566639	-0.392814
H118	H	0.568845	-0.600273	-0.374651
H119	H	0.597478	-0.562278	-0.444896
H120	H	0.541076	-0.554475	-0.444896
H121	H	-0.202337	0.139211	0.000126
H122	H	0.567844	-0.699895	-0.229886
C123	C	0.663962	0.081364	0.398461
H124	H	0.684763	0.085678	0.475127
H125	H	0.659866	0.110057	0.343183
H126	H	0.677994	0.054761	0.343110
C127	C	0.566828	-0.798558	-0.266102
H128	H	0.566480	-0.832193	-0.247939
H129	H	0.595110	-0.794196	-0.318191
H130	H	0.538708	-0.786395	-0.318176
H131	H	-0.293803	0.138276	0.000137
H132	H	0.569252	-0.559463	0.356815
C133	C	0.566821	-0.798576	0.266257
H134	H	0.567041	-0.776342	0.341739
H135	H	0.594818	-0.822142	0.271547
H136	H	0.538416	-0.814341	0.271514
C137	C	0.477111	0.042510	0.602073
H138	H	0.452566	0.067106	0.570176
H139	H	0.477560	0.042281	0.701373
H140	H	0.470476	0.011768	0.568758
C141	C	0.570266	-0.460816	0.393040
H142	H	0.570041	-0.483057	0.468514
H143	H	0.542270	-0.437247	0.398324
H144	H	0.598672	-0.445054	0.398320
C145	C	-0.171289	-0.033269	0.000210
H146	H	-0.189899	-0.059744	0.000206
H147	H	-0.151367	-0.034906	0.081293
H148	H	-0.151372	-0.034904	-0.080887
H149	H	0.083267	0.186255	0.000098
C150	C	0.496431	0.135989	0.398334
H151	H	0.502916	0.166952	0.430259
H152	H	0.465519	0.129872	0.431622
H153	H	0.496509	0.135532	0.299026
H154	H	0.321264	0.144533	0.000091
C155	C	0.571796	-0.309563	0.393069
H156	H	0.572137	-0.275926	0.374930
H157	H	0.599907	-0.321728	0.445164
H158	H	0.543505	-0.313928	0.445125
C159	C	0.217965	-0.073451	0.000243
H160	H	0.199358	-0.099928	0.000249
H161	H	0.237890	-0.075085	0.081321
H162	H	0.237880	-0.075085	-0.080859
C163	C	0.644720	-0.012185	0.601563
H164	H	0.675657	-0.005681	0.569466
H165	H	0.638582	-0.043084	0.568227
H166	H	0.644338	-0.012152	0.700874
C167	C	0.567902	-0.692721	0.266279
H168	H	0.567680	-0.714963	0.341752
H169	H	0.539905	-0.669155	0.271562
H170	H	0.596307	-0.676956	0.271560
H171	H	0.570792	-0.408218	0.356855
H172	H	0.174715	0.187185	0.000071
H173	H	-0.271683	-0.021675	0.000194
H174	H	0.587150	0.142395	0.587716
H175	H	0.573192	-0.176296	-0.229811
H176	H	0.023479	0.185648	0.000107
H177	H	0.343363	-0.015426	0.000138
C178	C	0.112109	-0.074531	0.000277
H179	H	0.137976	-0.100553	0.000309
H180	H	0.092693	-0.076576	-0.080799
H181	H	0.092701	-0.076560	0.081381
H182	H	0.434830	-0.014493	0.000133
C183	C	0.574212	-0.077642	-0.265995
H184	H	0.573981	-0.099872	-0.341481
H185	H	0.602612	-0.061875	-0.271260
H186	H	0.546210	-0.054075	-0.271271
C187	C	-0.076924	0.197235	0.000126
H188	H	-0.109685	0.190574	0.000146
H189	H	-0.071172	0.215433	-0.080965
H190	H	-0.071165	0.215430	0.081215
H191	H	-0.033676	-0.063394	0.000240
H192	H	0.571762	-0.316745	-0.356578
C193	C	0.570756	-0.415392	-0.392808
H194	H	0.570991	-0.393151	-0.468278
H195	H	0.542359	-0.431163	-0.398116
H196	H	0.598761	-0.438954	-0.398068
H197	H	0.057772	-0.062463	0.000235
H198	H	0.574126	-0.084864	0.230143
