data_functionalizedCrystal
_audit_creation_method	'MofGen! by Chris Wilmer'
_symmetry_space_group_name_H-M	'P1'
_symmetry_Int_Tables_number	1
_symmetry_cell_setting	triclinic
loop_
_symmetry_equiv_pos_as_xyz
  x,y,z
_cell_length_a	19.288864
_cell_length_b	19.288865
_cell_length_c	17.766277
_cell_angle_alpha	90.011603
_cell_angle_beta	90.023209
_cell_angle_gamma	83.136245
loop_
_atom_site_label
_atom_site_type_symbol
_atom_site_fract_x
_atom_site_fract_y
_atom_site_fract_z
O1	O	-0.921353	-0.086649	-0.062844
O2	O	-0.421353	0.413351	0.437156
O3	O	-0.719092	-0.098337	-0.062794
O4	O	-0.219092	0.401663	0.437206
O5	O	-0.826067	0.008637	-0.062806
O6	O	-0.326067	0.508637	0.437194
O7	O	-0.814378	-0.193623	-0.062832
O8	O	-0.314378	0.306377	0.437168
O9	O	-0.826048	0.008643	0.062383
O10	O	-0.326048	0.508643	0.562383
O11	O	-0.719074	-0.098332	0.062395
O12	O	-0.219074	0.401668	0.562395
O13	O	-0.921334	-0.086643	0.062344
O14	O	-0.421334	0.413357	0.562344
Cu15	Cu	-0.820202	-0.092487	0.073800
Cu16	Cu	-0.320202	0.407513	0.573800
Cu17	Cu	-0.820224	-0.092494	-0.074250
Cu18	Cu	-0.320224	0.407506	0.425750
O19	O	-0.814360	-0.193618	0.062356
O20	O	-0.314360	0.306382	0.562356
C21	C	-0.693207	-0.097959	-0.000193
C22	C	-0.193207	0.402041	0.499807
C23	C	-0.616103	-0.096830	-0.000173
C24	C	-0.116103	0.403170	0.499827
C25	C	-0.825682	0.034516	-0.000209
C26	C	-0.325682	0.534516	0.499791
C27	C	-0.824553	0.111620	-0.000202
C28	C	-0.324553	0.611620	0.499798
C29	C	-0.947220	-0.087022	-0.000258
C30	C	-0.447220	0.412978	0.499742
C31	C	-1.024324	-0.088151	-0.000283
C32	C	-0.524324	0.411849	0.499717
C33	C	-0.814745	-0.219497	-0.000242
C34	C	-0.314745	0.280503	0.499758
C35	C	-0.815874	-0.296601	-0.000254
C36	C	-0.315874	0.203399	0.499746
C37	C	-0.571407	-0.159598	-0.000193
C38	C	-0.071407	0.340402	0.499807
C39	C	-0.498960	-0.158537	-0.000201
C40	C	0.001040	0.341463	0.499799
C41	C	-0.471212	-0.094705	-0.000205
C42	C	0.028788	0.405295	0.499795
C43	C	-0.515918	-0.031929	-0.000180
C44	C	-0.015918	0.468071	0.499820
C45	C	-0.588364	-0.032991	-0.000164
C46	C	-0.088364	0.467009	0.499836
C47	C	-0.362957	-0.044527	-0.044082
C48	C	0.137043	0.455473	0.455918
C49	C	-0.290512	-0.043468	-0.044103
C50	C	0.209488	0.456532	0.455897
C51	C	-0.247767	-0.091425	-0.000250
C52	C	0.252233	0.408575	0.499750
C53	C	-0.277473	-0.140454	0.043614
C54	C	0.222527	0.359546	0.543614
C55	C	-0.349918	-0.141517	0.043630
C56	C	0.150082	0.358483	0.543630
C57	C	-0.392658	-0.093546	-0.000221
C58	C	0.107342	0.406454	0.499779
C59	C	-0.124514	-0.153047	-0.000278
C60	C	0.375486	0.346953	0.499722
C61	C	-0.052066	-0.151984	-0.000281
C62	C	0.447934	0.348016	0.499719
C63	C	-0.069026	-0.025374	-0.000267
C64	C	0.430974	0.474626	0.499733
C65	C	-0.141473	-0.026439	-0.000256
C66	C	0.358527	0.473561	0.499744
C67	C	-0.169212	-0.090278	-0.000265
C68	C	0.330788	0.409722	0.499735
C69	C	-0.887321	0.156316	-0.000214
C70	C	-0.387321	0.656316	0.499786
C71	C	-0.886260	0.228763	-0.000226
C72	C	-0.386260	0.728763	0.499774
C73	C	-0.822428	0.256511	-0.000210
C74	C	-0.322428	0.756511	0.499790
C75	C	-0.759652	0.211805	-0.000203
C76	C	-0.259652	0.711805	0.499797
C77	C	-0.760714	0.139359	-0.000198
C78	C	-0.260714	0.639359	0.499802
C79	C	-0.772242	0.364800	0.043653
C80	C	-0.272242	0.864800	0.543653
C81	C	-0.771182	0.437245	0.043654
C82	C	-0.271182	0.937245	0.543654
C83	C	-0.819148	0.479956	-0.000226
C84	C	-0.319148	0.979956	0.499774
C85	C	-0.868186	0.450216	-0.044097
C86	C	-0.368186	0.950216	0.455903
C87	C	-0.869249	0.377771	-0.044093
C88	C	-0.369249	0.877771	0.455907
C89	C	-0.821269	0.335065	-0.000215
C90	C	-0.321269	0.835065	0.499785
C91	C	-0.880770	0.603209	-0.000252
C92	C	-0.380770	1.103209	0.499748
C93	C	-0.879707	0.675657	-0.000268
C94	C	-0.379707	1.175657	0.499732
C95	C	-0.753097	0.658697	-0.000238
C96	C	-0.253097	1.158697	0.499762
C97	C	-0.754162	0.586250	-0.000229
C98	C	-0.254162	1.086250	0.499771
C99	C	-0.818001	0.558511	-0.000232
C100	C	-0.318001	1.058511	0.499768
N101	N	-0.820192	-0.092482	0.177931
N102	N	-0.320192	0.407518	0.677931
N103	N	-0.820241	-0.092493	-0.178380
N104	N	-0.320241	0.407507	0.321620
C105	C	-0.867575	-0.045137	0.217312
C106	C	-0.367575	0.454863	0.717312
C107	C	-0.867579	-0.045134	0.296114
C108	C	-0.367579	0.454866	0.796114
C109	C	-0.820206	-0.092488	0.335531
C110	C	-0.320206	0.407512	0.835531
C111	C	-0.772814	-0.139837	0.296140
C112	C	-0.272814	0.360163	0.796140
C113	C	-0.772807	-0.139834	0.217340
C114	C	-0.272807	0.360166	0.717340
C115	C	-0.810908	-0.155775	0.460362
C116	C	-0.310908	0.344225	0.960362
C117	C	-0.810920	-0.155779	0.539161
C118	C	-0.310920	0.344221	1.039161
C119	C	-0.820225	-0.092496	0.578577
C120	C	-0.320225	0.407504	1.078577
C121	C	-0.829533	-0.029207	0.539185
C122	C	-0.329533	0.470793	1.039185
C123	C	-0.829525	-0.029204	0.460385
C124	C	-0.329525	0.470796	0.960385
C125	C	-0.820209	-0.092496	0.420977
C126	C	-0.320209	0.407504	0.920977
C127	C	-0.867616	-0.045143	0.703405
C128	C	-0.367616	0.454857	1.203405
C129	C	-0.867615	-0.045139	0.782208
C130	C	-0.367615	0.454861	1.282208
C131	C	-0.772853	-0.139848	0.782233
C132	C	-0.272853	0.360152	1.282233
C133	C	-0.772850	-0.139846	0.703431
C134	C	-0.272850	0.360154	1.203431
C135	C	-0.820235	-0.092495	0.664022
C136	C	-0.320235	0.407505	1.164022
H137	H	-0.593987	-0.211580	-0.000202
H138	H	-0.093987	0.288420	0.499798
F139	F	-0.231985	-0.191499	0.090289
F140	F	0.268015	0.308501	0.590289
H141	H	-0.734269	-0.178402	0.671364
H142	H	-0.234269	0.321598	1.171364
H143	H	-0.906158	-0.006579	0.185228
H144	H	-0.406158	0.493421	0.685228
H145	H	-0.709599	0.102967	-0.000188
H146	H	-0.209599	0.602967	0.499812
H147	H	-0.374102	-0.181436	0.079347
H148	H	0.125898	0.318564	0.579347
H149	H	-0.147101	-0.205028	-0.000274
H150	H	0.352899	0.294972	0.499726
F151	F	-0.635935	0.033818	-0.000143
F152	F	-0.135935	0.533818	0.499857
H153	H	-0.266331	-0.003548	-0.079822
H154	H	0.233669	0.496452	0.420178
H155	H	-0.803318	-0.207311	0.428276
H156	H	-0.303318	0.292689	0.928276
F157	F	-0.451382	-0.225346	-0.000221
F158	F	0.048618	0.274654	0.499779
F159	F	-0.921434	0.346122	-0.090785
F160	F	-0.421434	0.846122	0.409215
H161	H	-0.015674	-0.203099	-0.000293
H162	H	0.484326	0.296901	0.499707
F163	F	-0.946517	0.723227	-0.000286
F164	F	-0.446517	1.223227	0.499714
F165	F	-0.039500	0.042562	-0.000263
F166	F	0.460500	0.542562	0.499737
H167	H	-0.177866	0.024674	-0.000244
H168	H	0.322134	0.524674	0.499756
H169	H	-0.907245	0.484991	-0.079829
H170	H	-0.407245	0.984991	0.420171
F171	F	-0.408444	0.006520	-0.090759
F172	F	0.091556	0.506520	0.409241
F173	F	-0.722394	-0.190232	0.338091
F174	F	-0.222394	0.309768	0.838091
F175	F	-0.722430	-0.190242	0.824179
F176	F	-0.222430	0.309758	1.324179
F177	F	-0.718994	0.468890	0.090347
F178	F	-0.218994	0.968890	0.590347
F179	F	-0.918014	0.005260	0.338034
F180	F	-0.418014	0.505260	0.838034
H181	H	-0.932751	0.580622	-0.000258
H182	H	-0.432751	1.080622	0.499742
H183	H	-0.707679	0.234401	-0.000192
H184	H	-0.207679	0.734401	0.499808
F185	F	-0.953069	0.276341	-0.000239
F186	F	-0.453069	0.776341	0.499761
H187	H	-0.906198	-0.006581	0.814274
H188	H	-0.406198	0.493419	1.314274
H189	H	-0.493322	0.020044	-0.000193
H190	H	0.006678	0.520044	0.499807
F191	F	-0.685161	0.688223	-0.000225
F192	F	-0.185161	1.188223	0.499775
F193	F	-0.839426	0.038151	0.418464
F194	F	-0.339426	0.538151	0.918464
F195	F	-0.955264	0.126798	-0.000234
F196	F	-0.455264	0.626798	0.499766
H197	H	-0.906198	-0.006585	0.671317
H198	H	-0.406198	0.493415	1.171317
H199	H	-0.734220	-0.178389	0.185274
H200	H	-0.234220	0.321611	0.685274
F201	F	-0.687355	0.538679	-0.000213
F202	F	-0.187355	1.038679	0.499787
F203	F	-0.839441	0.038149	0.581129
F204	F	-0.339441	0.538149	1.081129
H205	H	-0.733180	0.330029	0.079389
H206	H	-0.233180	0.830029	0.579389
F207	F	-0.801018	-0.223136	0.581078
F208	F	-0.301018	0.276864	1.081078
