data_functionalizedCrystal
_audit_creation_method	'MofGen! by Chris Wilmer'
_symmetry_space_group_name_H-M	'P1'
_symmetry_Int_Tables_number	1
_symmetry_cell_setting	triclinic
loop_
_symmetry_equiv_pos_as_xyz
  x,y,z
_cell_length_a	10.967829
_cell_length_b	10.654555
_cell_length_c	9.130313
_cell_angle_alpha	89.998912
_cell_angle_beta	102.130878
_cell_angle_gamma	95.398430
loop_
_atom_site_label
_atom_site_type_symbol
_atom_site_fract_x
_atom_site_fract_y
_atom_site_fract_z
O1	O	0.175303	-1.667812	0.165953
O2	O	0.191996	-1.302332	0.170188
O3	O	0.002073	-1.493500	0.122235
O4	O	0.365226	-1.476644	0.213907
O5	O	0.002073	-1.493486	-0.121364
O6	O	0.191996	-1.302318	-0.073411
O7	O	0.175303	-1.667798	-0.077646
Cu8	Cu	0.183650	-1.485056	-0.097771
Cu9	Cu	0.183650	-1.485074	0.190313
O10	O	0.365226	-1.476630	-0.029692
C11	C	0.190769	-1.255527	0.048082
C12	C	0.187098	-1.116085	0.047164
C13	C	0.181929	-0.919548	0.178638
C14	C	0.185371	-1.050570	0.179513
C15	C	0.185371	-1.050573	-0.086072
C16	C	0.181920	-0.919554	-0.086948
C17	C	-0.044427	-1.492266	-0.011300
C18	C	-0.182983	-1.488593	-0.046266
C19	C	-0.244750	-1.486963	0.064338
C20	C	-0.387954	-1.483167	0.028201
C21	C	0.411726	-1.477864	0.103845
C22	C	0.550282	-1.481537	0.138821
C23	C	0.176531	-0.714603	0.044469
C24	C	0.180206	-0.854045	0.045413
N25	N	0.183649	-1.485053	-0.300394
C26	C	0.260043	-1.561874	-0.357760
C27	C	0.260036	-1.561894	-0.511099
C28	C	0.107238	-1.408263	-0.549691
C29	C	0.107239	-1.408250	-0.396357
N30	N	0.183640	-1.485086	0.392933
H31	H	0.186769	-1.103926	-0.193835
C32	C	0.344085	-1.646371	-0.252208
N33	N	0.407384	-1.710021	-0.172711
C34	C	0.180028	-0.847494	0.324234
N35	N	0.178590	-0.793227	0.433900
H36	H	0.186772	-1.103897	0.287997
C37	C	0.180035	-0.847495	-0.233511
N38	N	0.178616	-0.793220	-0.343897
H39	H	-0.236120	-1.487170	-0.167710
C40	C	0.344098	-1.646381	-0.574188
N41	N	0.407424	-1.710013	-0.621704
C42	C	0.023204	-1.323770	-0.655261
N43	N	-0.040087	-1.260124	-0.734773
C44	C	0.023196	-1.323736	-0.333251
N45	N	-0.040103	-1.260084	-0.285719
C46	C	-0.459730	-1.481252	-0.135878
N47	N	-0.513794	-1.479811	-0.259460
C48	C	-0.172969	-1.488882	0.228409
N49	N	-0.118907	-1.490333	0.351991
H50	H	-0.396584	-1.482937	0.260275
