data_functionalizedCrystal
_audit_creation_method	'MofGen! by Chris Wilmer'
_symmetry_space_group_name_H-M	'P1'
_symmetry_Int_Tables_number	1
_symmetry_cell_setting	triclinic
loop_
_symmetry_equiv_pos_as_xyz
  x,y,z
_cell_length_a	18.426585
_cell_length_b	12.477989
_cell_length_c	12.477989
_cell_angle_alpha	60.281621
_cell_angle_beta	89.999811
_cell_angle_gamma	55.726983
loop_
_atom_site_label
_atom_site_type_symbol
_atom_site_fract_x
_atom_site_fract_y
_atom_site_fract_z
Zr1	Zr	0.643628	1.187031	-0.067879
O2	O	0.509491	1.433413	-0.234499
O3	O	0.691090	0.957217	-0.027629
O4	O	0.670036	1.210933	-0.250119
O5	O	0.539939	1.155066	0.175811
O6	O	0.789461	1.210941	-0.250123
O7	O	0.530546	1.179697	-0.012009
O8	O	0.827124	0.757090	0.147871
O9	O	0.502276	1.608916	-0.222183
O10	O	0.792795	1.045613	0.002616
O11	O	0.710679	1.027225	0.142787
O12	O	0.685891	1.325942	-0.119166
O13	O	0.603775	1.307554	0.021006
Zr14	Zr	0.849078	1.147760	0.231666
Zr15	Zr	0.834097	1.187044	-0.067886
Zr16	Zr	0.658608	1.147747	0.231672
Zr17	Zr	0.632121	1.466940	-0.048236
Zr18	Zr	0.860585	0.867851	0.212022
O19	O	0.801615	1.377574	0.191415
O20	O	0.780315	1.433431	-0.234509
O21	O	0.530792	1.377556	0.191425
O22	O	0.983214	0.901379	0.398286
O23	O	0.961913	0.957236	-0.027638
O24	O	0.712391	0.901360	0.398295
O25	O	0.952767	1.179725	-0.012024
O26	O	0.822670	1.123858	0.413905
O27	O	0.703244	1.123850	0.413909
O28	O	0.962160	1.155094	0.175796
O29	O	0.653674	1.608927	-0.222188
O30	O	0.839031	0.725864	0.385975
O31	O	0.990429	0.725875	0.385969
O32	O	0.978521	0.757100	0.147865
O33	O	0.514184	1.577691	0.015921
O34	O	0.665582	1.577701	0.015916
O35	O	0.806815	1.008849	0.282952
O36	O	0.888931	1.027237	0.142781
O37	O	0.782026	1.307566	0.020999
O38	O	0.699910	1.289178	0.161171
C39	C	0.760746	0.817273	0.057322
C40	C	0.765631	0.698444	0.048983
C41	C	0.508104	1.167379	0.081902
C42	C	0.427245	1.167374	0.081905
C43	C	0.131127	1.167423	0.081883
C44	C	0.213514	1.167416	0.081886
C45	C	0.279183	1.167399	0.081893
C46	C	0.361575	1.167391	0.081898
C47	C	0.984601	1.167412	0.081885
C48	C	1.065461	1.167417	0.081882
C49	C	0.727614	1.216534	-0.292800
C50	C	0.721254	1.233211	-0.419968
C51	C	0.731959	1.517518	0.106464
C52	C	0.727074	1.636347	0.114803
C53	C	0.765091	1.118257	0.456587
C54	C	0.771451	1.101580	0.583754
C55	C	0.998995	0.817289	0.057314
C56	C	1.084739	0.698466	0.048972
C57	C	0.779485	0.768134	0.432016
C58	C	0.790730	0.632629	0.550844
C59	C	1.017734	0.768150	0.432007
C60	C	1.109838	0.632650	0.550833
C61	C	0.474972	1.566641	-0.268221
C62	C	0.382868	1.702141	-0.387047
C63	C	0.493711	1.517502	0.106473
C64	C	0.407966	1.636325	0.114815
C65	C	0.713221	1.566657	-0.268229
C66	C	0.701976	1.702162	-0.387058
C67	C	1.074823	0.652259	-0.028123
C68	C	1.155380	0.540631	-0.035988
C69	C	1.245852	0.475203	0.033250
C70	C	1.255766	0.521421	0.110348
C71	C	1.175210	0.633056	0.118204
C72	C	1.195962	0.578616	0.533467
C73	C	1.282510	0.451316	0.645106
C74	C	1.282931	0.378045	0.774109
C75	C	1.196797	0.432090	0.791473
C76	C	1.110251	0.559396	0.679836
C77	C	0.296743	1.756188	-0.369679
C78	C	0.210194	1.883523	-0.481316
C79	C	0.209772	1.956800	-0.610319
C80	C	0.295907	1.902748	-0.627684
C81	C	0.382453	1.775423	-0.516048
C82	C	0.417881	1.682546	0.191898
C83	C	0.337322	1.794208	0.199732
C84	C	0.246849	1.859641	0.130490
C85	C	0.236935	1.813417	0.053397
C86	C	0.317493	1.701765	0.045556
H87	H	0.819290	0.976126	-0.315772
H88	H	0.690320	0.674100	0.177526
H89	H	0.673403	1.358673	-0.520451
O90	O	0.648525	0.837081	0.557275
H91	H	0.654587	0.851910	0.636624
O92	O	0.814309	0.648454	-0.034122
H93	H	0.841775	0.712641	-0.081032
O94	O	0.871637	0.459622	0.603828
H95	H	0.868076	0.376750	0.691965
H96	H	1.001162	0.705532	-0.084523
H97	H	1.147289	0.503015	-0.098768
H98	H	1.183297	0.670661	0.180991
H99	H	1.311439	0.384303	0.026843
O100	O	0.475340	1.717176	-0.534797
H101	H	0.535600	1.616350	-0.435505
O102	O	1.353351	0.450833	0.185037
H103	H	1.407693	0.365430	0.166627
O104	O	1.195519	0.657650	0.394335
H105	H	1.269954	0.598689	0.401037
O106	O	0.159967	1.980017	0.138994
H107	H	0.182073	2.001128	0.204255
H108	H	0.309408	1.664136	-0.017209
O109	O	1.375415	0.393016	0.626393
H110	H	1.382347	0.349724	0.564829
O111	O	0.139352	1.883995	-0.021284
H112	H	0.085010	1.969384	-0.002861
H113	H	0.491542	1.629277	0.248293
H114	H	1.353409	0.274386	0.865000
O115	O	1.197265	0.353027	0.930618
H116	H	1.231682	0.366836	0.990067
H117	H	0.297068	1.696533	-0.264649
O118	O	1.017360	0.617640	0.698571
H119	H	1.032204	0.545276	0.807032
O120	O	0.117300	1.941782	-0.462575
H121	H	0.132142	1.869403	-0.354116
O122	O	0.116421	2.094145	-0.730722
H123	H	0.056608	2.119404	-0.696960
O124	O	0.295448	1.981783	-0.766825
H125	H	0.261038	1.967942	-0.826249
H126	H	0.345412	1.831823	0.262513
