data_functionalizedCrystal
_audit_creation_method	'MofGen! by Chris Wilmer'
_symmetry_space_group_name_H-M	'P1'
_symmetry_Int_Tables_number	1
_symmetry_cell_setting	triclinic
loop_
_symmetry_equiv_pos_as_xyz
  x,y,z
_cell_length_a	13.897449
_cell_length_b	13.897448
_cell_length_c	13.897441
_cell_angle_alpha	89.969401
_cell_angle_beta	90.014047
_cell_angle_gamma	89.977982
loop_
_atom_site_label
_atom_site_type_symbol
_atom_site_fract_x
_atom_site_fract_y
_atom_site_fract_z
Zn1	Zn	1.474703	0.383873	0.545209
Zn2	Zn	1.974703	0.883873	1.045209
Zn3	Zn	1.474597	0.545195	0.383911
Zn4	Zn	1.974597	1.045195	0.883911
Zn5	Zn	1.313392	0.383927	0.383946
Zn6	Zn	1.813392	0.883927	0.883946
Zn7	Zn	1.313373	0.545140	0.545182
Zn8	Zn	1.813373	1.045140	1.045182
O9	O	1.394016	0.464534	0.464562
O10	O	1.894016	0.964534	0.964562
O11	O	1.609670	0.405273	0.523809
O12	O	2.109670	0.905273	1.023809
O13	O	1.453176	0.523848	0.248934
O14	O	1.953176	1.023848	0.748934
O15	O	1.334842	0.248938	0.405365
O16	O	1.834842	0.748938	0.905365
O17	O	1.609592	0.523795	0.405304
O18	O	2.109592	1.023795	0.905304
O19	O	1.453356	0.248898	0.523844
O20	O	1.953356	0.748898	1.023844
O21	O	1.334739	0.405366	0.248960
O22	O	1.834739	0.905366	0.748960
O23	O	1.178408	0.405312	0.405338
O24	O	1.678408	0.905312	0.905338
O25	O	1.334811	0.523702	0.680167
O26	O	1.834811	1.023702	1.180167
O27	O	1.178394	0.523754	0.523797
O28	O	1.678394	1.023754	1.023797
O29	O	1.453339	0.405220	0.680187
O30	O	1.953339	0.905220	1.180187
O31	O	1.453158	0.680169	0.405277
O32	O	1.953158	1.180169	0.905277
O33	O	1.334708	0.680129	0.523763
O34	O	1.834708	1.180129	1.023763
C35	C	1.143402	0.464534	0.464569
C36	C	1.643402	0.964534	0.964569
C37	C	1.036188	0.464558	0.464595
C38	C	1.536188	0.964558	0.964595
C39	C	1.393946	0.715148	0.464534
C40	C	1.893946	1.215148	0.964534
C41	C	1.394004	0.822362	0.464554
C42	C	1.894004	1.322362	0.964554
C43	C	1.394085	0.464448	0.716155
C44	C	1.894085	0.964448	1.216155
C45	C	1.394114	0.464412	0.823369
C46	C	1.894114	0.964412	1.323369
C47	C	1.645609	0.464534	0.464555
C48	C	2.145609	0.964534	0.964555
C49	C	1.752823	0.464534	0.464552
C50	C	2.252823	0.964534	0.964552
C51	C	1.839893	0.464544	0.464559
C52	C	2.339893	0.964544	0.964559
C53	C	1.949125	0.464554	0.464576
C54	C	2.449125	0.964554	0.964576
C55	C	1.394113	0.212941	0.464611
C56	C	1.894113	0.712941	0.964611
C57	C	1.394154	0.105727	0.464632
C58	C	1.894154	0.605727	0.964632
C59	C	1.394105	1.018657	0.464615
C60	C	1.894105	1.518657	0.964615
C61	C	1.394046	0.909424	0.464584
C62	C	1.894046	1.409424	0.964584
C63	C	1.394003	0.464549	0.213948
C64	C	1.894003	0.964549	0.713948
C65	C	1.394161	0.464314	0.106734
C66	C	1.894161	0.964314	0.606734
C67	C	1.394140	0.464347	1.019664
C68	C	1.894140	0.964347	1.519664
C69	C	1.394122	0.464386	0.910432
C70	C	1.894122	0.964386	1.410432
