data_functionalizedCrystal
_audit_creation_method	'MofGen! by Chris Wilmer'
_symmetry_space_group_name_H-M	'P1'
_symmetry_Int_Tables_number	1
_symmetry_cell_setting	triclinic
loop_
_symmetry_equiv_pos_as_xyz
  x,y,z
_cell_length_a	6.394989
_cell_length_b	10.654550
_cell_length_c	9.730223
_cell_angle_alpha	90.000043
_cell_angle_beta	89.998669
_cell_angle_gamma	94.508679
loop_
_atom_site_label
_atom_site_type_symbol
_atom_site_fract_x
_atom_site_fract_y
_atom_site_fract_z
O1	O	0.293441	-1.670947	-0.114177
O2	O	0.321399	-1.305765	-0.114201
O3	O	0.003431	-1.493539	-0.114190
O4	O	0.611409	-1.483172	-0.114188
O5	O	0.003422	-1.493527	0.114390
O6	O	0.321390	-1.305752	0.114379
O7	O	0.293433	-1.670934	0.114403
Zn8	Zn	0.307410	-1.488341	0.150683
Zn9	Zn	0.307421	-1.488358	-0.150481
O10	O	0.611400	-1.483160	0.114392
C11	C	0.319341	-1.258939	0.000085
C12	C	0.313200	-1.119430	0.000076
C13	C	0.689256	-1.485216	0.000096
C14	C	0.925582	-1.491480	0.000092
C15	C	0.295490	-1.717760	0.000113
C16	C	0.301631	-1.857269	0.000114
N17	N	0.307401	-1.488339	0.356219
N18	N	0.307414	-1.488369	-0.356018
C19	C	0.500414	-1.041927	0.000080
C20	C	0.494631	-0.910845	0.000104
C21	C	0.114403	-0.934782	0.000113
C22	C	0.120188	-1.065861	0.000099
C23	C	0.166665	-1.571516	0.428150
C24	C	0.166665	-1.571528	0.572033
C25	C	0.448157	-1.405184	0.572041
C26	C	0.448144	-1.405166	0.428161
H27	H	0.657577	-1.085539	0.000072
C28	C	-0.211462	-0.914822	-0.117383
C29	C	-0.097751	-0.875895	0.000121
H30	H	-0.342443	-0.878475	-0.117375
H31	H	-0.134294	-0.888412	-0.197077
H32	H	-0.234794	-1.003982	-0.117373
H33	H	-0.074405	-0.786735	0.000106
H34	H	-0.174935	-0.902297	0.079836
C35	C	-0.039769	-1.277429	0.000086
C36	C	-0.085613	-1.151065	0.000093
H37	H	-0.166817	-1.330027	0.000094
H38	H	0.039277	-1.293978	-0.079624
H39	H	0.039298	-1.293982	0.079799
H40	H	-0.164666	-1.134509	-0.079625
H41	H	-0.164692	-1.134509	0.079811
H42	H	0.562749	-1.337428	0.369591
H43	H	0.052060	-1.639238	0.369578
C44	C	-0.111553	-1.735960	0.557563
C45	C	0.011972	-1.662964	0.651099
H46	H	-0.207050	-1.792414	0.606378
H47	H	-0.187520	-1.682486	0.501458
H48	H	-0.023858	-1.782500	0.501432
H49	H	-0.075722	-1.616416	0.707224
H50	H	0.087944	-1.716444	0.707228
C51	C	0.567453	-1.189679	0.616382
C52	C	0.602858	-1.313769	0.651131
H53	H	0.662955	-1.133245	0.665216
H54	H	0.587600	-1.177769	0.520411
H55	H	0.427796	-1.173862	0.639978
H56	H	0.742511	-1.329589	0.627526
H57	H	0.582729	-1.325684	0.747124
H58	H	0.647080	-0.847747	0.000111
