data_functionalizedCrystal
_audit_creation_method	'MofGen! by Chris Wilmer'
_symmetry_space_group_name_H-M	'P1'
_symmetry_Int_Tables_number	1
_symmetry_cell_setting	triclinic
loop_
_symmetry_equiv_pos_as_xyz
  x,y,z
_cell_length_a	15.298206
_cell_length_b	15.297327
_cell_length_c	10.686551
_cell_angle_alpha	83.957836
_cell_angle_beta	85.408457
_cell_angle_gamma	88.422996
loop_
_atom_site_label
_atom_site_type_symbol
_atom_site_fract_x
_atom_site_fract_y
_atom_site_fract_z
Zn1	Zn	1.311720	-0.556797	0.530060
Zn2	Zn	1.275930	-0.710558	0.364924
Zn3	Zn	1.154184	-0.539321	0.353047
Zn4	Zn	1.144201	-0.674861	0.599183
O5	O	1.221509	-0.620384	0.461803
O6	O	1.428031	-0.599447	0.484196
O7	O	1.248981	-0.695469	0.191230
O8	O	1.194237	-0.420566	0.342630
O9	O	1.401737	-0.712415	0.362872
O10	O	1.309978	-0.433406	0.472680
O11	O	1.159534	-0.569662	0.182505
O12	O	1.031801	-0.535048	0.409656
O13	O	1.177222	-0.651574	0.762132
O14	O	1.024466	-0.634628	0.590490
O15	O	1.300298	-0.564833	0.711347
O16	O	1.239300	-0.826896	0.429898
O17	O	1.142519	-0.800669	0.602007
C18	C	0.996744	-0.579068	0.506286
C19	C	0.900588	-0.561413	0.525351
C20	C	0.869104	-0.494382	0.597627
C21	C	0.778762	-0.477785	0.615540
C22	C	0.719893	-0.528222	0.561187
C23	C	0.751376	-0.595258	0.488916
C24	C	0.841728	-0.611852	0.470993
C25	C	0.692517	-0.645692	0.434553
C26	C	0.724000	-0.712728	0.362283
C27	C	0.814343	-0.729320	0.344364
C28	C	0.873211	-0.678883	0.398717
C29	C	0.602166	-0.629098	0.452476
C30	C	0.574789	-0.746568	0.325843
C31	C	0.665132	-0.763165	0.307930
C32	C	1.185968	-0.845179	0.524764
C33	C	1.170845	-0.941359	0.551724
C34	C	1.329977	-1.266996	0.269464
C35	C	1.344185	-1.176630	0.244127
C36	C	1.300851	-1.117808	0.321024
C37	C	1.243307	-1.149361	0.423262
C38	C	1.229092	-1.239735	0.448595
C39	C	1.199967	-1.090547	0.500156
C40	C	1.142423	-1.122100	0.602394
C41	C	1.128211	-1.212466	0.627723
C42	C	1.171545	-1.271288	0.550826
C43	C	1.214181	-1.000173	0.474823
C44	C	1.113297	-0.972912	0.653955
C45	C	1.099089	-1.063278	0.679291
C46	C	1.447151	-0.661862	0.417148
C47	C	1.543306	-0.679538	0.398119
C48	C	1.241639	-0.606171	0.782616
C49	C	1.250217	-0.600114	0.919327
C50	C	1.257214	-0.394715	0.398619
C51	C	1.272429	-0.298549	0.371694
C52	C	1.201517	-0.634489	0.142212
C53	C	1.193144	-0.640333	0.005400
H54	H	0.576542	-0.574515	0.511317
H55	H	0.526858	-0.787639	0.281585
H56	H	0.839973	-0.783898	0.285504
O57	O	1.043298	-1.093904	0.778745
C58	C	1.073298	-1.069787	0.891420
H59	H	1.146715	-1.057300	0.877048
H60	H	1.060284	-1.125144	0.970310
H61	H	1.037154	-1.007417	0.918013
H62	H	1.137722	-0.679403	0.974504
O63	O	1.314784	-1.030057	0.296277
C64	C	1.374850	-1.014818	0.189535
H65	H	1.416138	-1.076911	0.176942
H66	H	1.419506	-0.958709	0.203235
H67	H	1.337478	-0.996512	0.102114
H68	H	1.305648	-0.561049	0.950228
H69	H	1.078009	-0.925018	0.716569
O70	O	1.270147	-0.969433	0.375656
C71	C	1.338628	-0.924271	0.420020
H72	H	1.316044	-0.900984	0.515449
H73	H	1.357103	-0.865084	0.349817
H74	H	1.398112	-0.970222	0.430668
O75	O	0.695820	-0.828331	0.237886
C76	C	0.743618	-0.890803	0.313098
H77	H	0.767823	-0.858745	0.395179
H78	H	0.802176	-0.916226	0.253609
H79	H	0.699507	-0.947953	0.351323
O80	O	0.748035	-0.412686	0.685667
C81	C	0.655670	-0.408870	0.689858
H82	H	0.632890	-0.439034	0.605224
H83	H	0.632107	-0.337389	0.687025
H84	H	0.627324	-0.447098	0.780710
H85	H	1.391036	-1.150943	0.160885
H86	H	0.917042	-0.453320	0.641866
O87	O	0.632110	-0.512266	0.578644
C88	C	0.590801	-0.588285	0.639292
H89	H	0.633665	-0.648594	0.621782
H90	H	0.524441	-0.594963	0.600069
H91	H	0.580893	-0.582767	0.745063
O92	O	0.960987	-0.694996	0.381547
C93	C	0.995041	-0.717698	0.499648
H94	H	0.949754	-0.690296	0.576729
H95	H	1.063028	-0.688824	0.498705
H96	H	0.999880	-0.792327	0.519010
H97	H	1.365247	-1.314895	0.206859
O98	O	1.157585	-1.359043	0.575475
C99	C	1.067948	-1.375498	0.568660
H100	H	1.027599	-1.313370	0.584881
H101	H	1.046517	-1.430661	0.644128
H102	H	1.057244	-1.395769	0.471464
O103	O	1.072418	-1.243086	0.727178
C104	C	1.102420	-1.218966	0.839850
H105	H	1.175838	-1.206487	0.825479
H106	H	1.089400	-1.274318	0.918746
H107	H	1.066282	-1.156590	0.866435
