data_functionalizedCrystal
_audit_creation_method	'MofGen! by Chris Wilmer'
_symmetry_space_group_name_H-M	'P1'
_symmetry_Int_Tables_number	1
_symmetry_cell_setting	triclinic
loop_
_symmetry_equiv_pos_as_xyz
  x,y,z
_cell_length_a	21.395362
_cell_length_b	19.077068
_cell_length_c	21.395355
_cell_angle_alpha	92.279051
_cell_angle_beta	89.956060
_cell_angle_gamma	92.343691
loop_
_atom_site_label
_atom_site_type_symbol
_atom_site_fract_x
_atom_site_fract_y
_atom_site_fract_z
Zn1	Zn	0.947861	-0.279990	-0.364586
Zn2	Zn	1.281194	0.053343	-0.031253
Zn3	Zn	1.614527	0.386677	0.302080
Zn4	Zn	0.943561	-0.397672	-0.264012
Zn5	Zn	1.276894	-0.064339	0.069321
Zn6	Zn	1.610227	0.268995	0.402655
Zn7	Zn	0.843074	-0.280023	-0.259789
Zn8	Zn	1.176408	0.053311	0.073545
Zn9	Zn	1.509741	0.386644	0.406878
Zn10	Zn	0.838842	-0.397686	-0.368717
Zn11	Zn	1.172175	-0.064353	-0.035384
Zn12	Zn	1.505508	0.268980	0.297949
O13	O	0.893334	-0.338843	-0.314276
O14	O	1.226668	-0.005509	0.019057
O15	O	1.560001	0.327824	0.352391
O16	O	1.034969	-0.295581	-0.351283
O17	O	1.368302	0.037752	-0.017950
O18	O	1.701636	0.371086	0.315383
O19	O	0.930203	-0.382073	-0.175774
O20	O	1.263536	-0.048740	0.157559
O21	O	1.596869	0.284594	0.490892
O22	O	0.860546	-0.181525	-0.270194
O23	O	1.193879	0.151808	0.063139
O24	O	1.527212	0.485141	0.396473
O25	O	1.031810	-0.382041	-0.277392
O26	O	1.365143	-0.048708	0.055941
O27	O	1.698476	0.284625	0.389275
O28	O	0.937532	-0.181501	-0.347188
O29	O	1.270865	0.151832	-0.013855
O30	O	1.604198	0.485165	0.319478
O31	O	0.856376	-0.295637	-0.172671
O32	O	1.189709	0.037697	0.160662
O33	O	1.523043	0.371030	0.493995
O34	O	0.754834	-0.295651	-0.274200
O35	O	1.088168	0.037683	0.059134
O36	O	1.421501	0.371016	0.392467
O37	O	0.853331	-0.382066	-0.455847
O38	O	1.186665	-0.048733	-0.122514
O39	O	1.519998	0.284601	0.210820
O40	O	0.751725	-0.382098	-0.354229
O41	O	1.085058	-0.048764	-0.020896
O42	O	1.418391	0.284569	0.312438
O43	O	0.933427	-0.295595	-0.452812
O44	O	1.266761	0.037738	-0.119479
O45	O	1.600094	0.371072	0.213855
O46	O	0.926098	-0.496167	-0.281398
O47	O	1.259432	-0.162833	0.051935
O48	O	1.592765	0.170500	0.385269
O49	O	0.849162	-0.496177	-0.358324
O50	O	1.182495	-0.162844	-0.024991
O51	O	1.515828	0.170489	0.308342
C52	C	0.730545	-0.338880	-0.314205
C53	C	1.063879	-0.005547	0.019129
C54	C	1.397212	0.327787	0.352462
C55	C	0.660903	-0.338913	-0.314190
C56	C	0.994236	-0.005579	0.019144
C57	C	1.327570	0.327754	0.352477
C58	C	0.626585	-0.383985	-0.355803
C59	C	0.959918	-0.050652	-0.022470
C60	C	1.293251	0.282681	0.310864
C61	C	0.561150	-0.383968	-0.355830
C62	C	0.894483	-0.050635	-0.022497
C63	C	1.227817	0.282699	0.310836
C64	C	0.530036	-0.338886	-0.314233
C65	C	0.863369	-0.005552	0.019100
C66	C	1.196702	0.327781	0.352433
C67	C	0.564362	-0.293804	-0.272617
C68	C	0.897695	0.039529	0.060717
C69	C	1.231029	0.372862	0.394050
C70	C	0.629796	-0.293818	-0.272595
C71	C	0.963129	0.039515	0.060738
C72	C	1.296462	0.372849	0.394072
C73	C	0.426513	-0.333216	-0.257626
C74	C	0.759847	0.000118	0.075708
C75	C	1.093180	0.333451	0.409041
C76	C	0.361081	-0.333207	-0.257647
C77	C	0.694414	0.000126	0.075687
C78	C	1.027747	0.333460	0.409020
C79	C	0.328216	-0.338840	-0.314301
C80	C	0.661550	-0.005506	0.019032
C81	C	0.994883	0.327827	0.352366
C82	C	0.360792	-0.344496	-0.370937
C83	C	0.694126	-0.011163	-0.037603
C84	C	1.027459	0.322171	0.295730
C85	C	0.426226	-0.344510	-0.370915
C86	C	0.759559	-0.011176	-0.037581
C87	C	1.092893	0.322157	0.295752
C88	C	0.459084	-0.338866	-0.314253
C89	C	0.792417	-0.005532	0.019081
C90	C	1.125751	0.327801	0.352414
C91	C	0.222946	-0.383896	-0.355947
C92	C	0.556280	-0.050563	-0.022614
C93	C	0.889613	0.282771	0.310719
C94	C	0.157511	-0.383874	-0.355976
C95	C	0.490844	-0.050541	-0.022642
C96	C	0.824177	0.282793	0.310691
C97	C	0.160724	-0.293714	-0.272756
C98	C	0.494057	0.039620	0.060577
C99	C	0.827390	0.372953	0.393910
C100	C	0.226158	-0.293732	-0.272734
C101	C	0.559492	0.039601	0.060600
C102	C	0.892825	0.372934	0.393933
C103	C	0.257266	-0.338827	-0.314328
C104	C	0.590599	-0.005494	0.019005
C105	C	0.923932	0.327840	0.352338
C106	C	0.886721	-0.521710	-0.320781
C107	C	1.220054	-0.188377	0.012552
C108	C	1.553388	0.144957	0.345885
C109	C	0.883949	-0.599942	-0.323585
C110	C	1.217283	-0.266608	0.009748
C111	C	1.550616	0.066725	0.343081
C112	C	0.922735	-0.636666	-0.284884
C113	C	1.256068	-0.303333	0.048449
C114	C	1.589402	0.030001	0.381782
C115	C	0.920132	-0.710173	-0.287525
C116	C	1.253465	-0.376839	0.045808
C117	C	1.586798	-0.043506	0.379141
C118	C	0.878739	-0.746954	-0.328864
C119	C	1.212072	-0.413620	0.004469
C120	C	1.545406	-0.080287	0.337802
C121	C	0.839952	-0.710224	-0.367570
C122	C	1.173285	-0.376891	-0.034236
C123	C	1.506619	-0.043558	0.299097
C124	C	0.842559	-0.636719	-0.364931
C125	C	1.175892	-0.303386	-0.031598
C126	C	1.509225	0.029948	0.301735
C127	C	0.866647	-0.966795	-0.341049
C128	C	1.199980	-0.633461	-0.007716
C129	C	1.533313	-0.300128	0.325618
C130	C	0.864041	-1.040305	-0.343683
C131	C	1.197375	-0.706972	-0.010350
C132	C	1.530708	-0.373639	0.322984
C133	C	0.944222	-1.040249	-0.263639
C134	C	1.277555	-0.706915	0.069694
C135	C	1.610889	-0.373582	0.403028
C136	C	0.946823	-0.966742	-0.261002
C137	C	1.280156	-0.633409	0.072331
C138	C	1.613489	-0.300075	0.405665
C139	C	0.908038	-0.930019	-0.299709
C140	C	1.241371	-0.596685	0.033624
C141	C	1.574705	-0.263352	0.366957
N142	N	0.876076	-0.822090	-0.331564
N143	N	1.209409	-0.488756	0.001770
N144	N	1.542742	-0.155423	0.335103
N145	N	0.910705	-0.854884	-0.297013
N146	N	1.244038	-0.521551	0.036320
N147	N	1.577372	-0.188218	0.369654
C148	C	1.056759	-0.338806	-0.314348
C149	C	1.390092	-0.005473	0.018985
C150	C	1.723426	0.327861	0.352319
C151	C	1.126401	-0.338790	-0.314379
C152	C	1.459734	-0.005457	0.018955
C153	C	1.793067	0.327877	0.352288
C154	C	0.893387	-0.338828	-0.477699
C155	C	1.226720	-0.005495	-0.144366
C156	C	1.560053	0.327838	0.188968
C157	C	0.893409	-0.338822	-0.547340
C158	C	1.226743	-0.005489	-0.214007
C159	C	1.560076	0.327844	0.119327
C160	C	0.899990	-0.155261	-0.307759
C161	C	1.233324	0.178072	0.025574
C162	C	1.566657	0.511406	0.358908
C163	C	0.902827	-0.077030	-0.304982
C164	C	1.236160	0.256304	0.028351
C165	C	1.569493	0.589637	0.361685
C166	C	0.935113	-0.293795	-0.578474
C167	C	1.268447	0.039538	-0.245140
C168	C	1.601780	0.372872	0.088193
C169	C	0.935114	-0.293765	-0.643908
C170	C	1.268447	0.039569	-0.310575
C171	C	1.601780	0.372902	0.022759
C172	C	0.893416	-0.338774	-0.678207
C173	C	1.226749	-0.005441	-0.344873
C174	C	1.560082	0.327892	-0.011540
C175	C	0.851704	-0.383805	-0.647065
C176	C	1.185037	-0.050472	-0.313732
C177	C	1.518370	0.282862	0.019601
C178	C	0.851700	-0.383829	-0.581632
C179	C	1.185034	-0.050496	-0.248299
C180	C	1.518367	0.282838	0.085035
C181	C	0.886177	-0.402150	-0.784134
C182	C	1.219510	-0.068817	-0.450801
C183	C	1.552843	0.264517	-0.117468
C184	C	0.886184	-0.402127	-0.849566
C185	C	1.219518	-0.068794	-0.516233
C186	C	1.552851	0.264539	-0.182900
C187	C	0.893422	-0.338700	-0.880025
C188	C	1.226756	-0.005367	-0.546692
C189	C	1.560089	0.327967	-0.213358
C190	C	0.900666	-0.275294	-0.845043
C191	C	1.233999	0.058040	-0.511710
C192	C	1.567333	0.391373	-0.178376
C193	C	0.900663	-0.275318	-0.779610
C194	C	1.233996	0.058016	-0.446276
C195	C	1.567329	0.391349	-0.112943
C196	C	0.893414	-0.338753	-0.749158
C197	C	1.226748	-0.005420	-0.415825
C198	C	1.560081	0.327914	-0.082492
C199	C	0.935129	-0.293636	-0.982110
C200	C	1.268462	0.039697	-0.648777
C201	C	1.601796	0.373031	-0.315443
C202	C	0.935125	-0.293605	-1.047545
C203	C	1.268458	0.039729	-0.714212
C204	C	1.601792	0.373062	-0.380879
C205	C	0.851718	-0.383651	-1.050701
C206	C	1.185051	-0.050318	-0.717368
C207	C	1.518385	0.283016	-0.384035
C208	C	0.851719	-0.383676	-0.985267
C209	C	1.185052	-0.050343	-0.651934
C210	C	1.518386	0.282990	-0.318600
C211	C	0.893428	-0.338670	-0.950975
C212	C	1.226761	-0.005336	-0.617642
C213	C	1.560095	0.327997	-0.284308
C214	C	0.893320	-0.338806	-0.151487
C215	C	1.226653	-0.005473	0.181846
C216	C	1.559987	0.327861	0.515179
C217	C	0.893426	-0.338614	-0.081839
C218	C	1.226759	-0.005281	0.251494
C219	C	1.560093	0.328053	0.584827
H220	H	0.129570	-0.420576	-0.389866
H221	H	0.462903	-0.087243	-0.056533
H222	H	0.796236	0.246091	0.276801
H223	H	0.135391	-0.257003	-0.238890
H224	H	0.468724	0.076330	0.094443
H225	H	0.802058	0.409663	0.427777
H226	H	0.906559	-0.223690	-0.751130
H227	H	1.239892	0.109643	-0.417797
H228	H	1.573226	0.442977	-0.084464
F229	F	0.666321	-0.245843	-0.228302
F230	F	0.999654	0.087490	0.105031
F231	F	1.332987	0.420824	0.438364
H232	H	0.254101	-0.257033	-0.238845
H233	H	0.587434	0.076301	0.094489
H234	H	0.920767	0.409634	0.427822
H235	H	0.334036	-0.349081	-0.417070
H236	H	0.667369	-0.015748	-0.083737
H237	H	1.000703	0.317585	0.249597
H238	H	0.806252	-0.740177	-0.401232
H239	H	1.139585	-0.406844	-0.067898
H240	H	1.472919	-0.073511	0.265435
F241	F	0.807333	-0.431604	-0.952131
F242	F	1.140667	-0.098270	-0.618798
F243	F	1.474000	0.235063	-0.285464
F244	F	0.878480	-0.469610	-0.886791
F245	F	1.211814	-0.136276	-0.553457
F246	F	1.545147	0.197057	-0.220124
H247	H	0.951715	-0.740071	-0.256010
H248	H	1.285048	-0.406737	0.077323
H249	H	1.618381	-0.073404	0.410656
H250	H	0.334562	-0.328606	-0.211530
H251	H	0.667896	0.004728	0.121803
H252	H	1.001229	0.338061	0.455136
F253	F	0.825367	-0.927720	-0.382245
F254	F	1.158701	-0.594387	-0.048911
F255	F	1.492034	-0.261054	0.284422
F256	F	0.807311	-0.431755	-0.548496
F257	F	1.140644	-0.098422	-0.215163
F258	F	1.473978	0.234911	0.118170
F259	F	0.985500	-1.079337	-0.222450
F260	F	1.318833	-0.746004	0.110884
F261	F	1.652166	-0.412671	0.444217
H262	H	0.980528	-0.936796	-0.227340
H263	H	1.313861	-0.603463	0.105993
H264	H	1.647194	-0.270130	0.439326
H265	H	0.830342	-1.070250	-0.377357
H266	H	1.163675	-0.736917	-0.044024
H267	H	1.497009	-0.403584	0.289309
H268	H	0.956438	-0.606724	-0.251219
H269	H	1.289772	-0.273390	0.082114
H270	H	1.623105	0.059943	0.415448
H271	H	0.880115	-0.453787	-0.759340
H272	H	1.213449	-0.120454	-0.426007
H273	H	1.546782	0.212880	-0.092674
F274	F	0.801279	-0.597634	-0.406124
F275	F	1.134613	-0.264301	-0.072791
F276	F	1.467946	0.069032	0.260543
H277	H	0.969075	-0.257146	-0.550557
H278	H	1.302409	0.076187	-0.217224
H279	H	1.635742	0.409520	0.116110
F280	F	0.461483	-0.327222	-0.197322
F281	F	0.794817	0.006112	0.136011
F282	F	1.128150	0.339445	0.469345
F283	F	0.979493	-0.245827	-0.677049
F284	F	1.312826	0.087506	-0.343716
F285	F	1.646160	0.420840	-0.010383
F286	F	0.908372	-0.207784	-0.877454
F287	F	1.241705	0.125549	-0.544120
F288	F	1.575039	0.458882	-0.210787
F289	F	0.256055	-0.431886	-0.400218
F290	F	0.589389	-0.098553	-0.066885
F291	F	0.922722	0.234781	0.266448
H292	H	0.969088	-0.256985	-0.954188
H293	H	1.302421	0.076348	-0.620854
H294	H	1.635754	0.409682	-0.287521
H295	H	0.539024	-0.257097	-0.238749
H296	H	0.872358	0.076237	0.094584
H297	H	1.205691	0.409570	0.427917
F298	F	0.807324	-0.431705	-0.683569
F299	F	1.140657	-0.098372	-0.350236
F300	F	1.473991	0.234961	-0.016902
H301	H	0.969085	-0.256934	-1.072893
H302	H	1.302418	0.076400	-0.739560
H303	H	1.635751	0.409733	-0.406226
H304	H	0.817761	-0.420292	-1.078627
H305	H	1.151094	-0.086958	-0.745293
H306	H	1.484427	0.246375	-0.411960
H307	H	0.533203	-0.420671	-0.389719
H308	H	0.866536	-0.087338	-0.056386
H309	H	1.199869	0.245995	0.276947
F310	F	0.460894	-0.350526	-0.431189
F311	F	0.794227	-0.017193	-0.097855
F312	F	1.127560	0.316141	0.235478
F313	F	0.659688	-0.431977	-0.400074
F314	F	0.993021	-0.098644	-0.066741
F315	F	1.326354	0.234689	0.266593
