data_functionalizedCrystal
_audit_creation_method	'MofGen! by Chris Wilmer'
_symmetry_space_group_name_H-M	'P1'
_symmetry_Int_Tables_number	1
_symmetry_cell_setting	triclinic
loop_
_symmetry_equiv_pos_as_xyz
  x,y,z
_cell_length_a	27.732048
_cell_length_b	15.944551
_cell_length_c	15.021413
_cell_angle_alpha	89.996935
_cell_angle_beta	89.990270
_cell_angle_gamma	96.929304
loop_
_atom_site_label
_atom_site_type_symbol
_atom_site_fract_x
_atom_site_fract_y
_atom_site_fract_z
O1	O	0.641363	-0.099933	-0.074084
O2	O	0.500635	-0.115130	-0.074075
O3	O	0.574842	0.014793	-0.074072
O4	O	0.567156	-0.229857	-0.074088
O5	O	0.574830	0.014775	0.073992
O6	O	0.500623	-0.115148	0.073989
O7	O	0.641351	-0.099952	0.073980
Zn8	Zn	0.570985	-0.107553	0.097493
Zn9	Zn	0.571001	-0.107529	-0.097588
O10	O	0.567144	-0.229875	0.073977
C11	C	0.482621	-0.114820	-0.000042
C12	C	0.428962	-0.113860	-0.000038
C13	C	0.574517	0.046074	-0.000040
C14	C	0.573560	0.139307	-0.000039
C15	C	0.659365	-0.100262	-0.000055
C16	C	0.713024	-0.101222	-0.000065
C17	C	1.051533	-0.030493	-0.000030
C18	C	1.253208	-0.034057	-0.000027
O19	O	1.284183	0.030620	0.000015
N20	N	1.272665	-0.111096	-0.000035
C21	C	1.241700	-0.187250	-0.000037
O22	O	1.262878	-0.252858	-0.000034
C23	C	1.040026	-0.183685	-0.000033
C24	C	1.020572	-0.106641	-0.000035
C25	C	1.032078	0.046545	-0.000030
C26	C	0.981662	0.047435	-0.000036
C27	C	0.950701	-0.028713	-0.000041
C28	C	0.970156	-0.105751	-0.000040
C29	C	1.009063	-0.259838	-0.000029
C30	C	0.958641	-0.258940	-0.000026
C31	C	0.939187	-0.181896	-0.000028
C32	C	0.888780	-0.181008	-0.000051
N33	N	0.869322	-0.103969	-0.000043
C34	C	0.900283	-0.027821	-0.000038
C35	C	1.347583	-0.189116	-0.000041
C36	C	1.398001	-0.190007	-0.000043
C37	C	1.409505	-0.036814	-0.000032
C38	C	1.359086	-0.035924	-0.000036
C39	C	1.328125	-0.112077	-0.000033
C40	C	0.794406	-0.025958	-0.000051
C41	C	0.743985	-0.025074	-0.000060
C42	C	0.732485	-0.178267	-0.000067
C43	C	0.782902	-0.179151	-0.000062
C44	C	0.813861	-0.102989	-0.000051
O45	O	0.857775	-0.245650	-0.000083
O46	O	0.879096	0.037777	-0.000022
C47	C	1.101949	-0.031383	-0.000024
C48	C	1.121404	-0.108421	-0.000024
C49	C	1.090443	-0.184569	-0.000029
C50	C	1.171822	-0.109313	-0.000026
C51	C	1.202783	-0.033165	-0.000021
C52	C	1.183325	0.043874	-0.000014
C53	C	1.132910	0.044765	-0.000019
C54	C	1.109900	-0.261608	-0.000036
C55	C	1.160316	-0.262492	-0.000032
C56	C	1.191277	-0.186344	-0.000027
C57	C	0.567469	-0.261156	-0.000058
C58	C	0.568426	-0.354389	-0.000064
N59	N	0.570978	-0.107569	0.230630
C60	C	0.525277	0.353533	-0.000048
C61	C	0.547692	0.414834	0.072955
C62	C	0.571830	0.310011	-0.000046
C63	C	0.547715	0.414836	-0.073025
C64	C	0.570155	0.474902	-0.000056
C65	C	0.594258	0.370084	0.073018
C66	C	0.594274	0.370079	-0.073028
C67	C	0.616723	0.431364	-0.000007
C68	C	0.572793	0.215021	-0.000039
C69	C	0.569195	0.569890	-0.000057
N70	N	0.571012	-0.107506	-0.230726
C71	C	0.536660	-0.167618	0.470312
C72	C	0.580337	-0.183354	0.529643
C73	C	0.570990	-0.107548	0.412237
C74	C	0.527325	-0.091831	0.529649
C75	C	0.570998	-0.107530	0.587661
C76	C	0.614690	-0.123321	0.470261
C77	C	0.561649	-0.031766	0.470262
C78	C	0.605358	-0.047469	0.529566
C79	C	0.570985	-0.107561	0.311180
C80	C	0.571009	-0.107516	0.688717
H81	H	0.728148	0.037667	-0.000064
N82	N	0.590808	-0.268232	0.564199
H83	H	0.591047	-0.267420	0.631430
H84	H	0.623534	-0.280520	0.541605
H85	H	0.507656	-0.218457	0.444295
H86	H	0.819608	0.036060	-0.000042
N87	N	0.521633	0.441109	-0.154779
H88	H	0.544518	0.481462	-0.191363
H89	H	0.492743	0.469889	-0.136082
H90	H	0.486636	0.319720	0.000027
H91	H	0.651628	-0.136684	0.444285
N92	N	0.521605	0.441132	0.154704
H93	H	0.544490	0.481485	0.191269
H94	H	0.510126	0.389526	0.191467
N95	N	0.551160	0.053084	0.435670
H96	H	0.576747	0.098594	0.458163
H97	H	0.518135	0.064823	0.457239
H98	H	0.490394	-0.078546	0.555737
N99	N	0.643857	0.019836	0.563821
H100	H	0.676810	0.007859	0.542101
H101	H	0.643419	0.019769	0.631051
N102	N	0.960683	0.130533	-0.000029
H103	H	0.987953	0.178630	-0.000021
H104	H	0.940011	0.134233	0.054863
N105	N	1.216721	0.126009	-0.000006
H106	H	1.237905	0.129060	-0.054890
H107	H	1.237857	0.128990	0.054921
N108	N	1.065467	0.128683	-0.000018
H109	H	1.045484	0.177613	-0.000016
H110	H	1.086641	0.131663	-0.054909
N111	N	0.667950	0.475961	0.000035
H112	H	0.685462	0.459710	0.055200
H113	H	0.666988	0.539077	-0.000522
N114	N	1.338104	0.047172	-0.000036
H115	H	1.365373	0.095272	-0.000036
H116	H	1.317433	0.050877	0.054856
H117	H	1.434722	0.025188	-0.000031
H118	H	1.413836	-0.252744	-0.000054
H119	H	1.322378	-0.251133	-0.000040
H120	H	1.024893	-0.322575	-0.000032
N121	N	1.181291	-0.345600	-0.000040
H122	H	1.169991	-0.378932	0.054846
H123	H	1.217926	-0.334554	-0.000070
N124	N	0.925248	-0.341078	-0.000003
H125	H	0.945227	-0.390015	0.000004
H126	H	0.904081	-0.344056	-0.054888
N127	N	0.620337	0.343759	-0.154789
H128	H	0.621062	0.280585	-0.153867
H129	H	0.654671	0.373272	-0.155332
N130	N	0.803885	-0.262249	-0.000068
H131	H	0.824538	-0.266040	0.054824
H132	H	0.824532	-0.265978	-0.054987
N133	N	0.699087	-0.260395	-0.000076
H134	H	0.664197	-0.248133	-0.000075
H135	H	0.705380	-0.294002	0.054815
H136	H	1.117075	0.107502	-0.000020
N137	N	0.620310	0.343957	0.154869
H138	H	0.649402	0.315626	0.136361
H139	H	0.597474	0.303244	0.191144
N140	N	1.076510	-0.343743	0.000021
H141	H	1.096491	-0.392676	0.000038
H142	H	1.055332	-0.346747	-0.054851
