data_functionalizedCrystal
_audit_creation_method	'MofGen! by Chris Wilmer'
_symmetry_space_group_name_H-M	'P1'
_symmetry_Int_Tables_number	1
_symmetry_cell_setting	triclinic
loop_
_symmetry_equiv_pos_as_xyz
  x,y,z
_cell_length_a	15.995300
_cell_length_b	15.995350
_cell_length_c	16.776229
_cell_angle_alpha	90.004420
_cell_angle_beta	90.008728
_cell_angle_gamma	83.482091
loop_
_atom_site_label
_atom_site_type_symbol
_atom_site_fract_x
_atom_site_fract_y
_atom_site_fract_z
O1	O	1.111015	0.107728	0.066313
O2	O	1.444348	0.441061	0.399647
O3	O	1.777681	0.774395	0.732980
O4	O	0.867234	0.121099	0.066308
O5	O	1.200567	0.454433	0.399641
O6	O	1.533900	0.787766	0.732975
O7	O	0.995788	-0.007475	0.066310
O8	O	1.329122	0.325858	0.399644
O9	O	1.662455	0.659191	0.732977
O10	O	0.982460	0.236302	0.066311
O11	O	1.315794	0.569636	0.399645
O12	O	1.649127	0.902969	0.732978
O13	O	0.995771	-0.007483	-0.066266
O14	O	1.329104	0.325850	0.267067
O15	O	1.662438	0.659184	0.600400
O16	O	0.867217	0.121091	-0.066268
O17	O	1.200550	0.454425	0.267065
O18	O	1.533883	0.787758	0.600398
O19	O	1.110998	0.107720	-0.066263
O20	O	1.444331	0.441053	0.267070
O21	O	1.777664	0.774387	0.600404
Zn22	Zn	0.989105	0.114404	-0.087315
Zn23	Zn	1.322438	0.447738	0.246018
Zn24	Zn	1.655771	0.781071	0.579352
Zn25	Zn	0.989127	0.114415	0.087360
Zn26	Zn	1.322460	0.447748	0.420693
Zn27	Zn	1.655794	0.781082	0.754027
O28	O	0.982443	0.236295	-0.066265
O29	O	1.315777	0.569628	0.267068
O30	O	1.649110	0.902961	0.600402
C31	C	0.836030	0.120550	0.000019
C32	C	1.169363	0.453883	0.333353
C33	C	1.502696	0.787217	0.666686
C34	C	0.743077	0.118915	0.000017
C35	C	1.076410	0.452248	0.333351
C36	C	1.409744	0.785582	0.666684
C37	C	0.572894	0.115896	0.000023
C38	C	0.906227	0.449229	0.333357
C39	C	1.239561	0.782562	0.666690
C40	C	0.525428	0.207443	0.000022
C41	C	0.858762	0.540777	0.333355
C42	C	1.192095	0.874110	0.666689
C43	C	0.428740	0.205773	0.000325
C44	C	0.762074	0.539107	0.333658
C45	C	1.095407	0.872440	0.666992
C46	C	0.405337	0.112924	0.000029
C47	C	0.738671	0.446257	0.333362
C48	C	1.072004	0.779590	0.666695
C49	C	0.446480	0.067508	0.075587
C50	C	0.779813	0.400841	0.408920
C51	C	1.113147	0.734175	0.742253
C52	C	0.543113	0.069825	0.075648
C53	C	0.876447	0.403158	0.408981
C54	C	1.209780	0.736491	0.742315
C55	C	0.543373	0.068460	-0.075121
C56	C	0.876706	0.401794	0.258212
C57	C	1.210040	0.735127	0.591545
C58	C	0.446429	0.068469	-0.076112
C59	C	0.779762	0.401802	0.257221
C60	C	1.113095	0.735135	0.590554
C61	C	0.310642	0.111239	0.000034
C62	C	0.643975	0.444573	0.333367
C63	C	0.977309	0.777906	0.666701
C64	C	0.667590	0.117577	0.000023
C65	C	1.000923	0.450911	0.333357
C66	C	1.334256	0.784244	0.666690
C67	C	0.995229	-0.038674	0.000023
C68	C	1.328562	0.294660	0.333357
C69	C	1.661895	0.627993	0.666690
C70	C	0.993577	-0.131624	0.000028
C71	C	1.326910	0.201709	0.333361
C72	C	1.660243	0.535043	0.666695
C73	C	0.987644	-0.469370	0.000025
C74	C	1.320978	-0.136037	0.333358
C75	C	1.654311	0.197296	0.666692
C76	C	0.896090	-0.421920	0.000320
C77	C	1.229424	-0.088586	0.333654
C78	C	1.562757	0.244747	0.666987
C79	C	0.897743	-0.325230	0.000022
C80	C	1.231076	0.008103	0.333355
C81	C	1.564409	0.341437	0.666688
C82	C	0.990587	-0.301810	0.000027
C83	C	1.323920	0.031523	0.333360
C84	C	1.657254	0.364856	0.666694
C85	C	1.035735	-0.342900	-0.075678
C86	C	1.369068	-0.009567	0.257655
C87	C	1.702402	0.323766	0.590988
C88	C	1.033435	-0.439536	-0.075742
C89	C	1.366768	-0.106202	0.257592
C90	C	1.700102	0.227131	0.590925
C91	C	1.035346	-0.439885	0.075023
C92	C	1.368679	-0.106552	0.408356
C93	C	1.702012	0.226781	0.741689
C94	C	1.035324	-0.342940	0.076023
C95	C	1.368658	-0.009607	0.409356
C96	C	1.701991	0.323727	0.742690
C97	C	0.992255	-0.207113	0.000025
C98	C	1.325588	0.126220	0.333359
C99	C	1.658922	0.459554	0.666692
C100	C	0.985979	-0.564068	0.000021
C101	C	1.319313	-0.230735	0.333355
C102	C	1.652646	0.102599	0.666688
C103	C	1.142202	0.108269	0.000028
C104	C	1.475535	0.441603	0.333361
C105	C	1.808868	0.774936	0.666694
C106	C	1.235154	0.109904	0.000035
C107	C	1.568488	0.443238	0.333368
C108	C	1.901821	0.776571	0.666701
C109	C	0.983003	0.267493	0.000023
C110	C	1.316336	0.600826	0.333357
C111	C	1.649669	0.934160	0.666690
C112	C	0.984655	0.360443	0.000024
C113	C	1.317988	0.693777	0.333357
C114	C	1.651321	1.027110	0.666691
N115	N	0.989095	0.114397	-0.206526
N116	N	1.322429	0.447730	0.126807
N117	N	1.655762	0.781063	0.460140
C118	C	1.046037	0.057487	-0.248243
C119	C	1.379370	0.390821	0.085091
C120	C	1.712703	0.724154	0.418424
C121	C	1.046041	0.057487	-0.331695
C122	C	1.379375	0.390820	0.001639
C123	C	1.712708	0.724153	0.334972
C124	C	0.989108	0.114400	-0.373429
C125	C	1.322441	0.447733	-0.040096
C126	C	1.655775	0.781067	0.293237
C127	C	0.932161	0.171312	-0.331707
C128	C	1.265494	0.504646	0.001626
C129	C	1.598827	0.837979	0.334959
C130	C	0.932153	0.171308	-0.248257
C131	C	1.265486	0.504642	0.085077
C132	C	1.598819	0.837975	0.418410
C133	C	0.932191	0.171329	-0.668254
C134	C	1.265524	0.504662	-0.334921
C135	C	1.598858	0.837995	-0.001588
C136	C	0.932205	0.171330	-0.751711
C137	C	1.265538	0.504663	-0.418378
C138	C	1.598872	0.837997	-0.085044
C139	C	1.046079	0.057507	-0.751693
C140	C	1.379413	0.390840	-0.418359
C141	C	1.712746	0.724174	-0.085026
C142	C	1.046071	0.057503	-0.668242
C143	C	1.379405	0.390836	-0.334909
C144	C	1.712738	0.724170	-0.001575
C145	C	0.989122	0.114412	-0.626527
C146	C	1.322455	0.447745	-0.293194
C147	C	1.655788	0.781079	0.040139
C148	C	0.989116	0.114411	-0.536039
C149	C	1.322449	0.447744	-0.202706
C150	C	1.655783	0.781078	0.130628
C151	C	0.989117	0.114406	-0.463916
C152	C	1.322450	0.447739	-0.130583
C153	C	1.655783	0.781072	0.202751
N154	N	0.989143	0.114416	0.206571
N155	N	1.322476	0.447749	0.539905
N156	N	1.655810	0.781083	0.873238
H157	H	0.561440	0.102562	0.132343
H158	H	0.894773	0.435896	0.465677
H159	H	1.228106	0.769229	0.799010
H160	H	1.103031	-0.327590	0.080598
H161	H	1.436364	0.005744	0.413931
H162	H	1.769697	0.339077	0.747265
Br163	Br	0.838591	-0.277837	0.090473
Br164	Br	1.171924	0.055496	0.423806
Br165	Br	1.505258	0.388830	0.757140
H166	H	0.885822	0.217667	-0.634297
H167	H	1.219155	0.551001	-0.300963
H168	H	1.552489	0.884334	0.032370
Br169	Br	1.123344	-0.019734	-0.611605
Br170	Br	1.456678	0.313599	-0.278271
Br171	Br	1.790011	0.646933	0.055062
H172	H	0.431090	0.000774	-0.080899
H173	H	0.764423	0.334108	0.252435
H174	H	1.097757	0.667441	0.585768
Br175	Br	0.400850	0.123743	-0.169285
Br176	Br	0.734184	0.457076	0.164048
Br177	Br	1.067517	0.790409	0.497382
Br178	Br	0.983450	-0.295596	-0.169587
Br179	Br	1.316784	0.037737	0.163746
Br180	Br	1.650117	0.371070	0.497080
H181	H	0.543912	0.244231	-0.054152
H182	H	0.877246	0.577564	0.279181
H183	H	1.210579	0.910897	0.612514
Br184	Br	0.422984	-0.046204	0.079921
Br185	Br	0.756318	0.287129	0.413254
Br186	Br	1.089651	0.620463	0.746588
H187	H	0.563866	0.098597	-0.132409
H188	H	0.897199	0.431930	0.200925
H189	H	1.230532	0.765264	0.534258
Br190	Br	1.123317	-0.019752	-0.388312
Br191	Br	1.456650	0.313582	-0.054979
Br192	Br	1.789983	0.646915	0.278354
H193	H	1.102848	-0.471658	0.075535
H194	H	1.436182	-0.138325	0.408868
H195	H	1.769515	0.195008	0.742202
Br196	Br	0.382329	0.265006	0.091129
Br197	Br	0.715663	0.598339	0.424462
Br198	Br	1.048996	0.931673	0.757795
Br199	Br	0.399271	0.119487	0.169665
Br200	Br	0.732605	0.452820	0.502998
Br201	Br	1.065938	0.786154	0.836331
Br202	Br	0.596358	-0.044032	-0.076346
Br203	Br	0.929691	0.289301	0.256987
Br204	Br	1.263025	0.622635	0.590321
H205	H	1.092449	0.011166	-0.785666
H206	H	1.425782	0.344499	-0.452332
H207	H	1.759115	0.677833	-0.118999
Br208	Br	0.985459	-0.474092	0.170661
Br209	Br	1.318793	-0.140758	0.503995
Br210	Br	1.652126	0.192575	0.837328
Br211	Br	0.854934	0.248576	-0.808351
Br212	Br	1.188267	0.581909	-0.475018
Br213	Br	1.521601	0.915242	-0.141684
H214	H	0.859504	-0.440442	0.054610
H215	H	1.192837	-0.107108	0.387943
H216	H	1.526171	0.226225	0.721277
Br217	Br	0.835182	-0.454970	-0.089389
Br218	Br	1.168515	-0.121637	0.243944
Br219	Br	1.501848	0.211696	0.577278
H220	H	0.862000	-0.297362	-0.054341
H221	H	1.195333	0.035971	0.278992
H222	H	1.528667	0.369305	0.612326
H223	H	0.885800	0.217650	-0.365692
H224	H	1.219134	0.550983	-0.032359
H225	H	1.552467	0.884316	0.300974
H226	H	0.545044	0.243689	0.054124
H227	H	0.878377	0.577022	0.387458
H228	H	1.211710	0.910356	0.720791
H229	H	1.000499	-0.457835	-0.132336
H230	H	1.333832	-0.124501	0.200997
H231	H	1.667165	0.208832	0.534330
Br232	Br	0.381282	0.265260	-0.089926
Br233	Br	0.714616	0.598593	0.243408
Br234	Br	1.047949	0.931926	0.576741
Br235	Br	0.596910	-0.042216	0.081022
Br236	Br	0.930243	0.291117	0.414356
Br237	Br	1.263576	0.624450	0.747689
Br238	Br	1.145464	-0.493310	-0.081471
Br239	Br	1.478797	-0.159977	0.251863
Br240	Br	1.812130	0.173356	0.585196
H241	H	1.103945	-0.328787	-0.078490
H242	H	1.437278	0.004546	0.254843
H243	H	1.770612	0.337879	0.588177
H244	H	0.885784	0.217649	-0.214292
H245	H	1.219118	0.550982	0.119041
H246	H	1.552451	0.884315	0.452375
H247	H	1.002315	-0.315682	0.132028
H248	H	1.335649	0.017651	0.465361
H249	H	1.668982	0.350985	0.798694
H250	H	1.092402	0.011145	-0.214268
H251	H	1.425735	0.344479	0.119066
H252	H	1.759068	0.677812	0.452399
