data_functionalizedCrystal
_audit_creation_method	'MofGen! by Chris Wilmer'
_symmetry_space_group_name_H-M	'P1'
_symmetry_Int_Tables_number	1
_symmetry_cell_setting	triclinic
loop_
_symmetry_equiv_pos_as_xyz
  x,y,z
_cell_length_a	14.908520
_cell_length_b	11.169417
_cell_length_c	11.169409
_cell_angle_alpha	89.979747
_cell_angle_beta	93.260433
_cell_angle_gamma	93.321755
loop_
_atom_site_label
_atom_site_type_symbol
_atom_site_fract_x
_atom_site_fract_y
_atom_site_fract_z
Zn1	Zn	-0.359054	1.807308	-0.706049
Zn2	Zn	-0.509946	1.795569	-0.516930
Zn3	Zn	-0.359110	1.606587	-0.505389
Zn4	Zn	-0.509874	1.594982	-0.717571
O5	O	-0.434496	1.701112	-0.611485
O6	O	-0.379077	1.973700	-0.680971
O7	O	-0.489991	1.770445	-0.347453
O8	O	-0.232859	1.642983	-0.522356
O9	O	-0.489937	1.965076	-0.542026
O10	O	-0.232818	1.790452	-0.669780
O11	O	-0.379172	1.631600	-0.338974
O12	O	-0.379102	1.437098	-0.533527
O13	O	-0.489814	1.623203	-0.883988
O14	O	-0.489868	1.428572	-0.689416
O15	O	-0.379007	1.779198	-0.875523
O16	O	-0.636181	1.759192	-0.553197
O17	O	-0.636128	1.611821	-0.700607
C18	C	-0.434484	1.389288	-0.611470
C19	C	-0.434500	1.255887	-0.611494
C20	C	-0.668888	1.683006	-0.629431
C21	C	-0.769161	1.675369	-0.637148
C22	C	-0.957581	1.814636	-0.498276
C23	C	-1.051797	1.807465	-0.505523
C24	C	-1.051811	1.653864	-0.658895
C25	C	-0.957595	1.661035	-0.651648
C26	C	-0.910483	1.741422	-0.571334
C27	C	-0.816265	1.748586	-0.564082
C28	C	-0.816282	1.594992	-0.717459
C29	C	-0.910498	1.587821	-0.724706
C30	C	-0.199189	1.719321	-0.593495
C31	C	-0.098915	1.727081	-0.585829
C32	C	-0.434396	1.701215	-0.924520
C33	C	-0.434354	1.701260	-1.057917
C34	C	-0.434509	2.014153	-0.611500
C35	C	-0.434514	2.147552	-0.611507
C36	C	-0.434531	1.701082	-0.299663
C37	C	-0.434319	1.701290	-0.166247
H38	H	-0.777908	1.814038	-0.498683
H39	H	-1.090186	1.588425	-0.724290
C40	C	-0.962332	1.499393	-0.813040
N41	N	-1.001372	1.432782	-0.879569
C42	C	-0.905755	1.903058	-0.409929
N43	N	-0.866722	1.969662	-0.343386
H44	H	-1.090140	1.867086	-0.446034
H45	H	-0.777924	1.535373	-0.776945
