data_functionalizedCrystal
_audit_creation_method	'MofGen! by Chris Wilmer'
_symmetry_space_group_name_H-M	'P1'
_symmetry_Int_Tables_number	1
_symmetry_cell_setting	triclinic
loop_
_symmetry_equiv_pos_as_xyz
  x,y,z
_cell_length_a	10.654550
_cell_length_b	15.944551
_cell_length_c	9.130313
_cell_angle_alpha	89.997799
_cell_angle_beta	89.996220
_cell_angle_gamma	83.991820
loop_
_atom_site_label
_atom_site_type_symbol
_atom_site_fract_x
_atom_site_fract_y
_atom_site_fract_z
O1	O	1.666308	0.117973	-0.121923
O2	O	1.300684	0.129213	-0.121900
O3	O	1.493480	0.001376	-0.121899
O4	O	1.473511	0.245810	-0.121924
O5	O	1.493478	0.001379	0.121700
O6	O	1.300681	0.129216	0.121699
O7	O	1.666305	0.117976	0.121676
Cu8	Cu	1.483493	0.123596	0.143930
Cu9	Cu	1.483496	0.123592	-0.144154
O10	O	1.473509	0.245813	0.121675
C11	C	1.253895	0.128389	-0.000098
C12	C	1.114484	0.125920	-0.000088
C13	C	1.034024	0.201188	-0.000117
C14	C	0.903034	0.198863	-0.000142
C15	C	0.932975	0.045995	-0.000116
C16	C	1.063963	0.048321	-0.000080
C17	C	1.084545	0.278788	-0.000126
C18	C	1.004084	0.354062	-0.000156
C19	C	0.873094	0.351737	-0.000182
C20	C	0.822564	0.274137	-0.000176
C21	C	1.492650	-0.029921	-0.000099
C22	C	1.490165	-0.123182	-0.000098
C23	C	1.364720	-0.338765	-0.000111
C24	C	1.422971	-0.399443	0.119995
C25	C	1.485668	-0.293934	-0.000109
C26	C	1.423002	-0.399430	-0.120175
C27	C	1.481317	-0.458872	-0.000126
C28	C	1.543953	-0.353384	0.120095
C29	C	1.543967	-0.353364	-0.120182
C30	C	1.602306	-0.414024	-0.000048
C31	C	1.488172	-0.198917	-0.000098
C32	C	1.478822	-0.553887	-0.000127
C33	C	1.713094	0.118800	-0.000130
C34	C	1.852505	0.121269	-0.000149
C35	C	1.474339	0.277110	-0.000128
C36	C	1.476824	0.370371	-0.000139
N37	N	1.483500	0.123599	0.346552
N38	N	1.483499	0.123583	-0.346777
C39	C	1.568892	0.067012	0.423205
C40	C	1.568889	0.067002	0.576542
C41	C	1.398098	0.180173	0.576560
C42	C	1.398096	0.180178	0.423226
C43	C	1.654296	0.010433	0.346531
C44	C	1.739696	-0.046158	0.423184
C45	C	1.739693	-0.046168	0.576520
C46	C	1.654290	0.010412	0.653205
H47	H	0.715901	0.272250	-0.000174
O48	O	1.053105	0.429459	0.000101
C49	C	1.011940	0.475402	0.126230
H50	H	0.984672	0.430045	0.214412
H51	H	1.091285	0.511603	0.168587
H52	H	0.926579	0.521710	0.097684
H53	H	0.891822	-0.017184	-0.000135
O54	O	0.794986	0.424877	-0.000465
C55	C	0.817942	0.471945	-0.126613
H56	H	0.862727	0.427856	-0.214774
H57	H	0.725020	0.505086	-0.168989
H58	H	0.884637	0.520953	-0.098084
O59	O	1.362142	-0.423723	-0.241463
C60	C	1.424835	-0.399089	-0.367901
H61	H	1.527057	-0.390867	-0.339708
H62	H	1.422380	-0.449627	-0.455872
H63	H	1.375766	-0.336855	-0.410365
H64	H	1.371814	-0.419846	0.221540
O65	O	1.142081	-0.024815	-0.000322
C66	C	1.119197	-0.071894	-0.126469
H67	H	1.074444	-0.027815	-0.214663
H68	H	1.212145	-0.105029	-0.168792
H69	H	1.052500	-0.120908	-0.097961
O70	O	1.244935	-0.299754	0.000290
C71	C	1.181622	-0.323117	0.127153
H72	H	1.253712	-0.344689	0.215220
H73	H	1.117024	-0.266705	0.169072
H74	H	1.122933	-0.376846	0.099752
H75	H	1.191203	0.280689	-0.000112
O76	O	1.654284	0.010245	0.802157
C77	C	1.628726	-0.069644	0.853371
H78	H	1.654469	-0.118967	0.765002
H79	H	1.686971	-0.086483	0.955954
H80	H	1.524075	-0.068084	0.880572
H81	H	1.595065	-0.333096	0.221746
O82	O	1.722195	-0.452859	0.000278
C83	C	1.785482	-0.429360	0.127055
H84	H	1.713384	-0.407871	0.215169
H85	H	1.850282	-0.485675	0.168971
H86	H	1.843957	-0.375534	0.099542
H87	H	1.595080	-0.332939	-0.221733
O88	O	1.654534	0.010435	0.197582
C89	C	1.773723	0.028282	0.146357
H90	H	1.847706	0.011527	0.234718
H91	H	1.799439	-0.010516	0.043770
H92	H	1.770404	0.098264	0.119161
H93	H	1.809222	-0.092229	0.360739
H94	H	1.809220	-0.092252	0.638929
O95	O	1.315098	0.235020	0.651210
C96	C	1.237611	0.189549	0.739885
H97	H	1.287627	0.124130	0.762844
H98	H	1.217752	0.224480	0.847716
H99	H	1.144799	0.183268	0.680805
H100	H	1.328561	0.226256	0.360815
