data_functionalizedCrystal
_audit_creation_method	'MofGen! by Chris Wilmer'
_symmetry_space_group_name_H-M	'P1'
_symmetry_Int_Tables_number	1
_symmetry_cell_setting	triclinic
loop_
_symmetry_equiv_pos_as_xyz
  x,y,z
_cell_length_a	12.827893
_cell_length_b	12.827892
_cell_length_c	12.827885
_cell_angle_alpha	89.970024
_cell_angle_beta	89.980728
_cell_angle_gamma	90.015362
loop_
_atom_site_label
_atom_site_type_symbol
_atom_site_fract_x
_atom_site_fract_y
_atom_site_fract_z
Zn1	Zn	1.597670	-0.415983	-0.590847
Zn2	Zn	1.597564	-0.590761	-0.416107
Zn3	Zn	1.422911	-0.416034	-0.416121
Zn4	Zn	1.422896	-0.590683	-0.590807
O5	O	1.510260	-0.503365	-0.503471
O6	O	1.743892	-0.439179	-0.567679
O7	O	1.574357	-0.567637	-0.269873
O8	O	1.446144	-0.269791	-0.439321
O9	O	1.743814	-0.567587	-0.439298
O10	O	1.574538	-0.269754	-0.567692
O11	O	1.446041	-0.439266	-0.269883
O12	O	1.276673	-0.439190	-0.439282
O13	O	1.446118	-0.567455	-0.737048
O14	O	1.276662	-0.567504	-0.567623
O15	O	1.574524	-0.439104	-0.737078
O16	O	1.574343	-0.736986	-0.439259
O17	O	1.446016	-0.736929	-0.567610
C18	C	1.238750	-0.503345	-0.503451
C19	C	1.122597	-0.503362	-0.503467
C20	C	1.510195	-0.774875	-0.503451
C21	C	1.510262	-0.891028	-0.503478
C22	C	1.070835	-0.566954	-0.566876
C23	C	0.950784	-0.566973	-0.566895
C24	C	1.573768	-0.942711	-0.567057
C25	C	1.573839	-1.062761	-0.567086
C26	C	1.782830	-0.503386	-0.503491
C27	C	1.898983	-0.503395	-0.503500
C28	C	1.510331	-0.503265	-0.776041
C29	C	1.510362	-0.503222	-0.892194
C30	C	1.510354	-0.230795	-0.503513
C31	C	1.510394	-0.114642	-0.503531
C32	C	1.573907	-0.439697	-0.943993
C33	C	1.573940	-0.439652	-1.064044
C34	C	1.510249	-0.503390	-0.231961
C35	C	1.510422	-0.503138	-0.115808
H36	H	1.115396	-0.621381	-0.621153
H37	H	0.906270	-0.621420	-0.621179
H38	H	1.078036	-0.448927	-0.449198
H39	H	1.456026	-1.070203	-0.449091
F40	F	0.957157	-0.432232	-0.432532
H41	H	1.628081	-0.898084	-0.621473
F42	F	1.644967	-0.368632	-0.885796
H43	H	1.628212	-1.107208	-0.621514
H44	H	1.455941	-0.935657	-0.449072
H45	H	1.628348	-0.385270	-1.108590
H46	H	1.456019	-0.557531	-1.071269
F47	F	1.439275	-0.574261	-0.950392
