data_functionalizedCrystal
_audit_creation_method	'MofGen! by Chris Wilmer'
_symmetry_space_group_name_H-M	'P1'
_symmetry_Int_Tables_number	1
_symmetry_cell_setting	triclinic
loop_
_symmetry_equiv_pos_as_xyz
  x,y,z
_cell_length_a	17.699083
_cell_length_b	7.681481
_cell_length_c	17.699083
_cell_angle_alpha	84.268690
_cell_angle_beta	96.716985
_cell_angle_gamma	84.282230
loop_
_atom_site_label
_atom_site_type_symbol
_atom_site_fract_x
_atom_site_fract_y
_atom_site_fract_z
O1	O	0.996918	0.146188	-0.102878
O2	O	0.776537	0.146246	-0.115334
O3	O	0.892955	0.146200	0.001084
O4	O	0.880500	0.146234	-0.219296
O5	O	0.907284	-0.146663	0.015446
O6	O	0.790866	-0.146617	-0.100972
O7	O	1.011247	-0.146675	-0.088517
Zn8	Zn	0.903332	-0.193144	-0.092464
Zn9	Zn	0.884452	0.192716	-0.111386
O10	O	0.894830	-0.146629	-0.204934
C11	C	0.755504	-0.000178	-0.107707
C12	C	0.671485	-0.000156	-0.106369
N13	N	0.916222	-0.456484	-0.079550
C14	C	0.622864	-0.000146	-0.174703
C15	C	0.543921	-0.000169	-0.173440
C16	C	0.513602	-0.000190	-0.103842
C17	C	0.562229	-0.000205	-0.035503
C18	C	0.641171	-0.000195	-0.036767
C19	C	0.243869	-0.000249	-0.030406
C20	C	0.164921	-0.000255	-0.029148
C21	C	0.146619	-0.000224	-0.167079
C22	C	0.225560	-0.000214	-0.168342
C23	C	0.274182	-0.000238	-0.100003
C24	C	0.359780	-0.000217	-0.101374
C25	C	0.428004	-0.000199	-0.102472
C26	C	1.032280	-0.000247	-0.096144
C27	C	1.116298	-0.000257	-0.097482
C28	C	0.899673	-0.000232	0.036462
C29	C	0.898334	-0.000232	0.120480
N30	N	0.871568	0.456055	-0.124294
C31	C	0.888111	-0.000193	-0.240312
C32	C	0.889449	-0.000181	-0.324331
C33	C	0.966669	-0.000253	0.169102
C34	C	0.965406	-0.000237	0.248045
C35	C	0.895808	-0.000213	0.278364
C36	C	0.827468	-0.000187	0.229736
C37	C	0.828731	-0.000190	0.150794
C38	C	0.822372	-0.000171	0.548098
C39	C	0.821114	-0.000173	0.627046
C40	C	0.959046	-0.000218	0.645348
C41	C	0.960310	-0.000221	0.566407
C42	C	0.891970	-0.000186	0.517785
C43	C	0.893340	-0.000200	0.432186
C44	C	0.894438	-0.000212	0.363962
H45	H	0.647543	-0.000128	-0.231378
H46	H	0.504336	-0.000159	-0.229084
H47	H	0.250242	-0.000189	-0.225016
Br48	Br	0.707159	-0.000224	0.055977
Br49	Br	0.795594	-0.418585	-0.200419
Br50	Br	0.992212	-0.581850	-0.003434
Br51	Br	1.054767	-0.000252	0.525263
H52	H	0.283447	-0.000271	0.025241
Br53	Br	0.729624	-0.000113	0.482120
H54	H	1.023344	-0.000283	0.144423
H55	H	0.770800	-0.000157	0.254428
Br56	Br	1.058150	-0.000264	0.314029
Br57	Br	1.051796	-0.000265	0.711340
H58	H	0.107022	-0.000213	-0.222724
Br59	Br	0.123773	-0.000277	0.065312
H60	H	0.764437	-0.000157	0.651729
H61	H	0.773086	-0.000173	0.111206
H62	H	0.537538	-0.000247	0.021166
