data_functionalizedCrystal
_audit_creation_method	'MofGen! by Chris Wilmer'
_symmetry_space_group_name_H-M	'P1'
_symmetry_Int_Tables_number	1
_symmetry_cell_setting	triclinic
loop_
_symmetry_equiv_pos_as_xyz
  x,y,z
_cell_length_a	21.295420
_cell_length_b	21.295417
_cell_length_c	10.686551
_cell_angle_alpha	85.587790
_cell_angle_beta	85.602548
_cell_angle_gamma	90.026289
loop_
_atom_site_label
_atom_site_type_symbol
_atom_site_fract_x
_atom_site_fract_y
_atom_site_fract_z
Zn1	Zn	0.989667	-0.223330	-0.713459
Zn2	Zn	0.981491	-0.336693	-0.502426
Zn3	Zn	0.876313	-0.231432	-0.502465
Zn4	Zn	0.884356	-0.328561	-0.713373
O5	O	0.932957	-0.280004	-0.607931
O6	O	1.076673	-0.238380	-0.685485
O7	O	0.960751	-0.329524	-0.325848
O8	O	0.891406	-0.142266	-0.530507
O9	O	1.070666	-0.321667	-0.530440
O10	O	0.974686	-0.136313	-0.685523
O11	O	0.883478	-0.252189	-0.325877
O12	O	0.789290	-0.244304	-0.530423
O13	O	0.905114	-0.307807	-0.889968
O14	O	0.795199	-0.315664	-0.685376
O15	O	0.982485	-0.230495	-0.890031
O16	O	0.968550	-0.423705	-0.530356
O17	O	0.897186	-0.417731	-0.685338
C18	C	0.769404	-0.279981	-0.607895
C19	C	0.699436	-0.279985	-0.607910
C20	C	0.203112	-0.236725	-0.688813
C21	C	0.268855	-0.236721	-0.688813
C22	C	0.298599	-0.280022	-0.607960
C23	C	0.262596	-0.323342	-0.527125
C24	C	0.196855	-0.323349	-0.527136
N25	N	0.397559	-0.289004	-0.497468
N26	N	0.460010	-0.288993	-0.497461
C27	C	0.496672	-0.280003	-0.607923
N28	N	0.468524	-0.271011	-0.718396
N29	N	0.406067	-0.271019	-0.718402
C30	C	0.369883	-0.280019	-0.607940
C31	C	0.603953	-0.236683	-0.688760
C32	C	0.669697	-0.236683	-0.688762
C33	C	0.663436	-0.323301	-0.527062
C34	C	0.597694	-0.323304	-0.527072
C35	C	0.567956	-0.279992	-0.607919
C36	C	0.932872	-0.443558	-0.607861
C37	C	0.932894	-0.513526	-0.607873
C38	C	0.970093	-0.549479	-0.527257
C39	C	0.970123	-0.615221	-0.527286
C40	C	0.932944	-0.645007	-0.607917
C41	C	0.895743	-0.609045	-0.688549
C42	C	0.895719	-0.543304	-0.688527
N43	N	0.878245	-0.747900	-0.617525
N44	N	0.878270	-0.810351	-0.617538
C45	C	0.933017	-0.843079	-0.607989
N46	N	0.987739	-0.810997	-0.598402
N47	N	0.987713	-0.748541	-0.598382
C48	C	0.932967	-0.716291	-0.607950
C49	C	0.970252	-0.950317	-0.527399
C50	C	0.970284	-1.016059	-0.527437
C51	C	0.895898	-1.009882	-0.688693
C52	C	0.895872	-0.944140	-0.688663
C53	C	0.933048	-0.914362	-0.608009
C54	C	1.097149	-0.280027	-0.607968
C55	C	1.167117	-0.280037	-0.607983
C56	C	0.945609	-0.267340	-0.937066
C57	C	0.951000	-0.261944	-1.077324
C58	C	0.933061	-0.115810	-0.608029
C59	C	0.933105	-0.045840	-0.608070
C60	C	0.920391	-0.292573	-0.280076
C61	C	0.915121	-0.297792	-0.139819
H62	H	0.286818	-0.358599	-0.461297
H63	H	0.985847	-0.227124	-1.131126
H64	H	1.000579	-1.045331	-0.461792
H65	H	0.865579	-0.914865	-0.754303
H66	H	0.865629	-1.034132	-0.754351
O67	O	0.873636	-0.339369	-1.075508
C68	C	0.906558	-0.382940	-0.999279
H69	H	0.953533	-0.361489	-0.979693
H70	H	0.915371	-0.427664	-1.049969
C71	C	0.809465	-0.425442	-0.898052
C72	C	0.867158	-0.399094	-0.873987
H73	H	0.785161	-0.435409	-0.820768
H74	H	0.787285	-0.396089	-0.949412
H75	H	0.816818	-0.462708	-0.940297
H76	H	0.859805	-0.361824	-0.831758
H77	H	0.889337	-0.428441	-0.822617
O78	O	1.006423	-0.921484	-0.449022
C79	C	1.039255	-0.967319	-0.377855
H80	H	1.043423	-1.012177	-0.429567
H81	H	1.012557	-0.978046	-0.281981
C82	C	1.100433	-0.887208	-0.296260
C83	C	1.105557	-0.942301	-0.359779
H84	H	1.141330	-0.871775	-0.285104
H85	H	1.078312	-0.856327	-0.344202
H86	H	1.078182	-0.896154	-0.216371
H87	H	1.127800	-0.933352	-0.439671
H88	H	1.127683	-0.973179	-0.311850
O89	O	0.574993	-0.194703	-0.767361
C90	C	0.540099	-0.227478	-0.848753
H91	H	0.528513	-0.276869	-0.804072
H92	H	0.569033	-0.230867	-0.942240
C93	C	0.492779	-0.131321	-0.926610
C94	C	0.478544	-0.191982	-0.871727
H95	H	0.454810	-0.109425	-0.940787
H96	H	0.516289	-0.109239	-0.871779
H97	H	0.516891	-0.134154	-1.004510
H98	H	0.454439	-0.189149	-0.793822
H99	H	0.455028	-0.214063	-0.926546
H100	H	0.178904	-0.201460	-0.754650
O101	O	0.692397	-0.365390	-0.448698
C102	C	0.733159	-0.403350	-0.520392
H103	H	0.746704	-0.377536	-0.616098
H104	H	0.708332	-0.449485	-0.534094
C105	C	0.776288	-0.449071	-0.333364
C106	C	0.792929	-0.417364	-0.450909
H107	H	0.813156	-0.457718	-0.290503
H108	H	0.748825	-0.423499	-0.285062
H109	H	0.755599	-0.487513	-0.344799
H110	H	0.813611	-0.378920	-0.439472
H111	H	0.820398	-0.442930	-0.499209
H112	H	0.298167	-0.201448	-0.754633
O113	O	0.161814	-0.365337	-0.448549
C114	C	0.120676	-0.332571	-0.367160
H115	H	0.112569	-0.283180	-0.411835
H116	H	0.142413	-0.329182	-0.273666
C117	C	0.067288	-0.428739	-0.289328
C118	C	0.057326	-0.368078	-0.344204
H119	H	0.028212	-0.450642	-0.275162
H120	H	0.095005	-0.450814	-0.344158
H121	H	0.085404	-0.425906	-0.211423
H122	H	0.039219	-0.370911	-0.422115
H123	H	0.029605	-0.346003	-0.289387
H124	H	0.699003	-0.201415	-0.754592
H125	H	0.865427	-0.514030	-0.754176
H126	H	0.568386	-0.358571	-0.461246
H127	H	1.000365	-0.525236	-0.461587
H128	H	1.000417	-0.644500	-0.461638
O129	O	0.859716	-0.638043	-0.766935
C130	C	0.898674	-0.672872	-0.848532
H131	H	0.944692	-0.684401	-0.804116
H132	H	0.909139	-0.643912	-0.942052
C133	C	0.808407	-0.720306	-0.925888
C134	C	0.864926	-0.734470	-0.871330
H135	H	0.787590	-0.758301	-0.939956
H136	H	0.782160	-0.696839	-0.870918
H137	H	0.817137	-0.696171	-1.003815
H138	H	0.856195	-0.758597	-0.793398
H139	H	0.891171	-0.757943	-0.926287
