data_functionalizedCrystal
_audit_creation_method	'MofGen! by Chris Wilmer'
_symmetry_space_group_name_H-M	'P1'
_symmetry_Int_Tables_number	1
_symmetry_cell_setting	triclinic
loop_
_symmetry_equiv_pos_as_xyz
  x,y,z
_cell_length_a	16.959455
_cell_length_b	17.637651
_cell_length_c	16.959447
_cell_angle_alpha	101.247502
_cell_angle_beta	90.014701
_cell_angle_gamma	101.218339
loop_
_atom_site_label
_atom_site_type_symbol
_atom_site_fract_x
_atom_site_fract_y
_atom_site_fract_z
Zn1	Zn	1.144790	-0.314761	0.383218
Zn2	Zn	1.117997	-0.446988	0.224281
Zn3	Zn	1.012612	-0.314791	0.251049
Zn4	Zn	0.985878	-0.446935	0.356430
O5	O	1.065319	-0.380869	0.303744
O6	O	1.251844	-0.332311	0.362144
O7	O	1.103993	-0.429487	0.117214
O8	O	1.052546	-0.204147	0.290995
O9	O	1.232160	-0.429457	0.245373
O10	O	1.149657	-0.204125	0.388100
O11	O	1.026567	-0.332363	0.136880
O12	O	0.898457	-0.332311	0.265019
O13	O	1.006983	-0.429367	0.470601
O14	O	0.878816	-0.429396	0.342442
O15	O	1.123734	-0.332259	0.490283
O16	O	1.078070	-0.557621	0.219397
O17	O	0.981003	-0.557582	0.316486
C18	C	0.859956	-0.380852	0.303728
C19	C	0.772097	-0.380863	0.303737
C20	C	0.720587	-0.431371	0.242882
C21	C	0.741053	-0.330362	0.364596
C22	C	0.658506	-0.330368	0.364604
C23	C	0.606995	-0.380876	0.303750
C24	C	0.638033	-0.431377	0.242887
C25	C	0.627463	-0.279862	0.425461
C26	C	0.544912	-0.279865	0.425471
C27	C	0.493399	-0.330378	0.364619
C28	C	0.524441	-0.380882	0.303755
C29	C	0.472931	-0.431390	0.242900
C30	C	0.503970	-0.481898	0.182038
C31	C	0.586520	-0.481890	0.182035
C32	C	0.410849	-0.330386	0.364622
C33	C	0.390376	-0.431396	0.242905
C34	C	1.023750	-0.586289	0.262147
C35	C	1.006039	-0.674169	0.244378
C36	C	1.200383	-0.962841	0.438983
C37	C	1.183715	-1.045418	0.422273
C38	C	1.082662	-1.045548	0.321060
C39	C	1.099323	-0.962970	0.337759
C40	C	1.158184	-0.921623	0.396722
C41	C	1.057125	-0.921752	0.295499
C42	C	1.073783	-0.839182	0.312200
C43	C	1.132639	-0.797829	0.371162
C44	C	1.174842	-0.839053	0.413423
C45	C	0.998260	-0.963101	0.236540
C46	C	0.956062	-0.921883	0.194279
C47	C	0.972723	-0.839311	0.210976
C48	C	1.031579	-0.797958	0.269938
C49	C	0.930520	-0.798087	0.168714
C50	C	0.947178	-0.715516	0.185415
C51	C	1.048237	-0.715387	0.286639
C52	C	1.271484	-0.380887	0.303761
C53	C	1.359339	-0.380894	0.303768
C54	C	1.065365	-0.380803	0.509926
C55	C	1.065385	-0.380775	0.597788
C56	C	1.107072	-0.174646	0.345521
C57	C	1.124865	-0.086767	0.363324
C58	C	1.065330	-0.380877	0.098377
C59	C	1.065509	-0.380682	0.010560
C60	C	1.004709	-0.431252	0.959036
C61	C	1.126283	-0.330133	0.979526
C62	C	1.126259	-0.330149	0.896977
C63	C	1.065459	-0.380719	0.845453
C64	C	1.004684	-0.431271	0.876479
C65	C	1.187038	-0.279603	0.865943
C66	C	1.187016	-0.279619	0.783389
C67	C	1.126212	-0.330185	0.731865
C68	C	1.065434	-0.380739	0.762895
C69	C	1.004635	-0.431308	0.711372
C70	C	0.943853	-0.481859	0.742401
C71	C	0.943880	-0.481838	0.824954
C72	C	1.126185	-0.330206	0.649312
C73	C	1.004610	-0.431328	0.628814
H74	H	0.519647	-0.238739	0.475030
F75	F	1.150172	-0.709949	0.389132
H76	H	1.175674	-0.289051	0.624051
H77	H	0.912814	-0.681956	0.151003
H78	H	0.955220	-0.472406	0.984305
F79	F	1.190991	-0.276322	1.034361
H80	H	0.894397	-0.522996	0.850226
F81	F	0.377819	-0.276630	0.429387
F82	F	1.251744	-0.225793	0.920780
F83	F	1.110893	-0.671378	0.349386
F84	F	0.753621	-0.485126	0.178114
F85	F	0.335560	-0.485158	0.178137
F86	F	1.237497	-0.795043	0.476170
H87	H	0.782997	-0.289237	0.414138
F88	F	0.449141	-0.535646	0.117271
F89	F	0.939894	-0.485148	0.573985
F90	F	1.251703	-0.225817	0.750373
F91	F	0.879151	-0.535681	0.687556
H92	H	0.611800	-0.523009	0.132483
H93	H	1.218072	-1.078974	0.456702
F94	F	1.263038	-0.918832	0.501730
F95	F	0.682287	-0.226111	0.490221
F96	F	1.020015	-1.089561	0.258315
H97	H	0.984692	-1.030335	0.222951
F98	F	0.893414	-0.965896	0.131534
H99	H	0.882590	-0.831764	0.120712
