data_functionalizedCrystal
_audit_creation_method	'MofGen! by Chris Wilmer'
_symmetry_space_group_name_H-M	'P1'
_symmetry_Int_Tables_number	1
_symmetry_cell_setting	triclinic
loop_
_symmetry_equiv_pos_as_xyz
  x,y,z
_cell_length_a	17.038272
_cell_length_b	10.654550
_cell_length_c	9.730223
_cell_angle_alpha	90.000193
_cell_angle_beta	89.994715
_cell_angle_gamma	87.798230
loop_
_atom_site_label
_atom_site_type_symbol
_atom_site_fract_x
_atom_site_fract_y
_atom_site_fract_z
O1	O	-1.038886	-0.272859	-0.114112
O2	O	-0.811231	-0.268526	-0.114153
O3	O	-0.930293	-0.088439	-0.114126
O4	O	-0.919825	-0.452946	-0.114139
O5	O	-0.930292	-0.088444	0.114453
O6	O	-0.811230	-0.268531	0.114427
O7	O	-1.038885	-0.272864	0.114468
Zn8	Zn	-0.925057	-0.270698	0.150739
Zn9	Zn	-0.925059	-0.270692	-0.150424
O10	O	-0.919823	-0.452950	0.114441
C11	C	-0.782081	-0.264588	0.000132
C12	C	-0.695222	-0.252831	0.000117
C13	C	-0.929524	-0.041572	0.000162
C14	C	-0.927224	0.098084	0.000156
C15	C	-1.068036	-0.276802	0.000180
C16	C	-1.154895	-0.288559	0.000186
C17	C	-0.645711	-0.360775	0.000114
C18	C	-0.564098	-0.349720	0.000133
C19	C	-0.531999	-0.230720	0.000145
C20	C	-0.581517	-0.122768	0.000152
C21	C	-0.663127	-0.133824	0.000143
C22	C	-0.286023	-0.191663	0.000183
C23	C	-0.204406	-0.180615	0.000189
C24	C	-0.186993	-0.407568	0.000173
C25	C	-0.268606	-0.418614	0.000155
C26	C	-0.318117	-0.310661	0.000169
C27	C	-0.448578	-0.219418	0.000161
C28	C	-0.401536	-0.321965	0.000163
C29	C	-0.920593	-0.499817	0.000150
C30	C	-0.922892	-0.639474	0.000146
N31	N	-0.925062	-0.270702	0.356276
C32	C	-0.997326	0.171061	0.000173
C33	C	-0.995160	0.302283	0.000163
C34	C	-0.852785	0.287540	0.000126
C35	C	-0.854952	0.156320	0.000126
C36	C	-1.079525	0.179574	0.000201
C37	C	-1.077359	0.310796	0.000191
N38	N	-0.925061	-0.270678	-0.355961
C39	C	-0.977796	-0.190990	0.428213
C40	C	-0.977794	-0.190974	0.572096
C41	C	-0.872321	-0.350394	0.572091
C42	C	-0.872320	-0.350402	0.428211
C43	C	-1.038692	-0.098954	0.428218
C44	C	-1.038690	-0.098938	0.572101
H45	H	-0.671839	-0.457677	0.000103
C46	C	-0.555085	-0.575160	0.000098
C47	C	-0.509675	-0.468377	0.000124
H48	H	-0.521484	-0.648415	0.000086
H49	H	-0.587284	-0.574758	0.079798
H50	H	-0.587272	-0.574734	-0.079625
H51	H	-0.477492	-0.468798	0.079852
H52	H	-0.477462	-0.468779	-0.079584
H53	H	-1.108330	0.349678	0.095855
C54	C	-0.768061	-0.507970	0.442664
C55	C	-0.814348	-0.438016	0.349136
H56	H	-0.732273	-0.562065	0.393844
H57	H	-0.739647	-0.452622	0.498772
H58	H	-0.800872	-0.556681	0.498793
H59	H	-0.781538	-0.389298	0.293014
H60	H	-0.842764	-0.493371	0.293004
C61	C	-1.191711	0.176891	0.149458
C62	C	-1.114707	0.128323	0.133633
H63	H	-1.213384	0.145285	0.231889
H64	H	-1.191421	0.265931	0.153801
H65	H	-1.222555	0.152377	0.073421
H66	H	-1.083862	0.152845	0.209664
H67	H	-1.114993	0.039264	0.129301
H68	H	-1.025336	-0.001181	0.389164
H69	H	-1.019684	-0.005951	0.616715
H70	H	-1.095490	-0.134816	0.383601
H71	H	-0.793943	0.334971	0.000100
H72	H	-1.111676	0.147232	-0.095447
H73	H	-1.098807	-0.126039	0.611161
C74	C	-0.194110	0.016250	-0.117289
C75	C	-0.169119	-0.049802	0.000205
H76	H	-0.172327	0.097005	-0.117275
H77	H	-0.177153	-0.028558	-0.196989
H78	H	-0.249801	0.025116	-0.117271
H79	H	-0.113428	-0.058676	0.000183
H80	H	-0.186071	-0.004982	0.079926
C81	C	-1.066945	0.324137	-0.245423
C82	C	-1.110901	0.369307	-0.133029
H83	H	-1.087656	0.360255	-0.327665
H84	H	-1.013793	0.346185	-0.234906
H85	H	-1.069588	0.235336	-0.249934
H86	H	-1.108253	0.458107	-0.128513
H87	H	-1.164066	0.347268	-0.143549
C88	C	-0.243194	-0.641837	0.000164
C89	C	-0.303887	-0.549422	0.000155
H90	H	-0.264977	-0.722592	0.000169
H91	H	-0.211720	-0.632807	-0.079539
H92	H	-0.211730	-0.632797	0.079883
H93	H	-0.335348	-0.558457	-0.079570
H94	H	-0.335374	-0.558457	0.079866
H95	H	-0.146673	-0.495456	0.000164
H96	H	-0.326325	-0.103759	0.000196
H97	H	-0.555375	-0.025876	0.000181
C98	C	-0.766007	-0.366163	0.733886
C99	C	-0.814353	-0.438001	0.651172
H100	H	-0.730224	-0.420253	0.782711
H101	H	-0.737590	-0.310842	0.677744
H102	H	-0.797423	-0.318691	0.797316
H103	H	-0.782938	-0.485467	0.587735
H104	H	-0.842773	-0.493344	0.707320
C105	C	-0.672147	0.091618	0.000136
C106	C	-0.717553	-0.015168	0.000132
H107	H	-0.705748	0.164871	0.000124
H108	H	-0.639963	0.091210	0.079846
H109	H	-0.639943	0.091201	-0.079577
H110	H	-0.749753	-0.014757	0.079850
H111	H	-0.749751	-0.014760	-0.079586
C112	C	-0.366887	-0.075340	-0.117340
C113	C	-0.413291	-0.088614	0.000159
H114	H	-0.345104	0.005415	-0.117341
H115	H	-0.325728	-0.138047	-0.117322
H116	H	-0.398363	-0.084367	-0.197046
H117	H	-0.381813	-0.079597	0.079865
H118	H	-0.454455	-0.025889	0.000153
H119	H	-0.427675	-0.418854	0.000161
H120	H	-0.797868	0.096907	0.000093
