data_functionalizedCrystal
_audit_creation_method	'MofGen! by Chris Wilmer'
_symmetry_space_group_name_H-M	'P1'
_symmetry_Int_Tables_number	1
_symmetry_cell_setting	triclinic
loop_
_symmetry_equiv_pos_as_xyz
  x,y,z
_cell_length_a	10.268362
_cell_length_b	11.792241
_cell_length_c	11.792241
_cell_angle_alpha	84.193416
_cell_angle_beta	89.994090
_cell_angle_gamma	90.003482
loop_
_atom_site_label
_atom_site_type_symbol
_atom_site_fract_x
_atom_site_fract_y
_atom_site_fract_z
O1	O	0.108174	-1.506902	-0.155570
O2	O	0.441508	-1.173569	0.177763
O3	O	0.774841	-0.840236	0.511097
O4	O	0.108205	-1.176561	-0.171603
O5	O	0.441538	-0.843228	0.161730
O6	O	0.774871	-0.509895	0.495064
O7	O	0.108180	-1.349748	0.001584
O8	O	0.441513	-1.016415	0.334917
O9	O	0.774846	-0.683082	0.668251
O10	O	0.108199	-1.333715	-0.328757
O11	O	0.441533	-1.000382	0.004576
O12	O	0.774866	-0.667049	0.337910
O13	O	-0.108421	-1.349746	0.001594
O14	O	0.224912	-1.016413	0.334927
O15	O	0.558246	-0.683079	0.668261
O16	O	-0.108396	-1.176559	-0.171593
O17	O	0.224937	-0.843226	0.161740
O18	O	0.558271	-0.509892	0.495074
O19	O	-0.108426	-1.506900	-0.155560
O20	O	0.224907	-1.173567	0.177773
O21	O	0.558240	-0.840233	0.511107
Cu22	Cu	-0.128188	-1.341729	-0.163576
Cu23	Cu	0.205145	-1.008396	0.169758
Cu24	Cu	0.538478	-0.675063	0.503091
Cu25	Cu	0.127967	-1.341732	-0.163588
Cu26	Cu	0.461300	-1.008399	0.169746
Cu27	Cu	0.794634	-0.675065	0.503079
O28	O	-0.108401	-1.333713	-0.328747
O29	O	0.224932	-1.000380	0.004586
O30	O	0.558265	-0.667046	0.337920
C31	C	-0.000092	-1.134269	-0.170591
C32	C	0.333242	-0.800936	0.162742
C33	C	0.666575	-0.467603	0.496076
C34	C	-0.000080	-1.008255	-0.167576
C35	C	0.333253	-0.674922	0.165757
C36	C	0.666586	-0.341589	0.499090
N37	N	-0.308354	-1.341736	-0.163566
N38	N	0.024979	-1.008403	0.169767
N39	N	0.358312	-0.675069	0.503100
N40	N	0.308133	-1.341734	-0.163588
N41	N	0.641466	-1.008401	0.169746
N42	N	0.974799	-0.675068	0.503079
C43	C	0.573803	-1.341731	-0.163581
C44	C	0.907137	-1.008398	0.169752
C45	C	1.240470	-0.675065	0.503086
C46	C	0.425965	-1.341730	-0.163588
C47	C	0.759299	-1.008396	0.169745
C48	C	1.092632	-0.675063	0.503078
C49	C	-0.000120	-1.348740	0.043880
C50	C	0.333213	-1.015407	0.377213
C51	C	0.666546	-0.682073	0.710547
C52	C	-0.000119	-1.345726	0.169894
C53	C	0.333215	-1.012392	0.503227
C54	C	0.666548	-0.679059	0.836560
C55	C	-0.000127	-1.549192	-0.156572
C56	C	0.333206	-1.215859	0.176761
C57	C	0.666540	-0.882525	0.510095
C58	C	-0.000130	-1.675206	-0.159587
C59	C	0.333204	-1.341873	0.173747
C60	C	0.666537	-1.008539	0.507080
C61	C	-0.000118	-0.777543	-0.162034
C62	C	0.333215	-0.444210	0.171300
C63	C	0.666549	-0.110877	0.504633
C64	C	-0.000097	-0.905928	-0.165113
C65	C	0.333236	-0.572595	0.168220
C66	C	0.666569	-0.239262	0.501553
C67	C	-0.000099	-1.334721	-0.371043
C68	C	0.333235	-1.001388	-0.037710
C69	C	0.666568	-0.668055	0.295624
C70	C	-0.000092	-1.337736	-0.497057
C71	C	0.333242	-1.004402	-0.163723
C72	C	0.666575	-0.671069	0.169610
C73	C	-0.000096	-1.340183	0.400606
C74	C	0.333237	-1.006849	0.733939
C75	C	0.666570	-0.673516	1.067272
C76	C	-0.000108	-1.343262	0.272221
C77	C	0.333225	-1.009929	0.605554
C78	C	0.666558	-0.676596	0.938887
