data_functionalizedCrystal
_audit_creation_method	'MofGen! by Chris Wilmer'
_symmetry_space_group_name_H-M	'P1'
_symmetry_Int_Tables_number	1
_symmetry_cell_setting	triclinic
loop_
_symmetry_equiv_pos_as_xyz
  x,y,z
_cell_length_a	8.497365
_cell_length_b	11.169416
_cell_length_c	11.169417
_cell_angle_alpha	89.988973
_cell_angle_beta	90.031044
_cell_angle_gamma	89.951407
loop_
_atom_site_label
_atom_site_type_symbol
_atom_site_fract_x
_atom_site_fract_y
_atom_site_fract_z
Zn1	Zn	-0.891925	-0.477478	-1.835097
Zn2	Zn	-0.558592	-0.144144	-1.501763
Zn3	Zn	-0.225259	0.189189	-1.168430
Zn4	Zn	-0.628141	-0.678279	-1.834948
Zn5	Zn	-0.294807	-0.344945	-1.501614
Zn6	Zn	0.038526	-0.011612	-1.168281
Zn7	Zn	-0.628159	-0.477611	-1.634343
Zn8	Zn	-0.294826	-0.144278	-1.301010
Zn9	Zn	0.038508	0.189055	-0.967677
Zn10	Zn	-0.891879	-0.678121	-1.634391
Zn11	Zn	-0.558546	-0.344787	-1.301058
Zn12	Zn	-0.225213	-0.011454	-0.967724
O13	O	-0.760026	-0.577872	-1.734695
O14	O	-0.426693	-0.244539	-1.401361
O15	O	-0.093359	0.088795	-1.068028
O16	O	-0.856945	-0.504125	-2.003027
O17	O	-0.523612	-0.170791	-1.669693
O18	O	-0.190278	0.162542	-1.336360
O19	O	-0.407380	-0.651782	-1.808255
O20	O	-0.074047	-0.318448	-1.474921
O21	O	0.259286	0.014885	-1.141588
O22	O	-0.663175	-0.309644	-1.661016
O23	O	-0.329842	0.023689	-1.327683
O24	O	0.003492	0.357023	-0.994350
O25	O	-0.663144	-0.651652	-2.002917
O26	O	-0.329810	-0.318319	-1.669584
O27	O	0.003523	0.015014	-1.336250
O28	O	-0.856963	-0.309546	-1.808509
O29	O	-0.523630	0.023788	-1.475176
O30	O	-0.190296	0.357121	-1.141842
O31	O	-0.407394	-0.504352	-1.660872
O32	O	-0.074061	-0.171019	-1.327538
O33	O	0.259273	0.162314	-0.994205
O34	O	-0.663131	-0.504199	-1.466400
O35	O	-0.329797	-0.170866	-1.133067
O36	O	0.003536	0.162468	-0.799733
O37	O	-1.112648	-0.651383	-1.661097
O38	O	-0.779315	-0.318050	-1.327764
O39	O	-0.445981	0.015284	-0.994431
O40	O	-0.856885	-0.651512	-1.466435
O41	O	-0.523552	-0.318179	-1.133102
O42	O	-0.190218	0.015154	-0.799768
O43	O	-1.112682	-0.503971	-1.808555
O44	O	-0.779348	-0.170638	-1.475222
O45	O	-0.446015	0.162695	-1.141888
O46	O	-0.663099	-0.846207	-1.808301
O47	O	-0.329766	-0.512874	-1.474967
O48	O	0.003567	-0.179541	-1.141634
O49	O	-0.856867	-0.846091	-1.660953
O50	O	-0.523534	-0.512758	-1.327619
O51	O	-0.190200	-0.179425	-0.994286
C52	C	-0.760011	-0.889697	-1.734648
C53	C	-0.426677	-0.556363	-1.401315
C54	C	-0.093344	-0.223030	-1.067981
C55	C	-0.760057	-1.023097	-1.734738
C56	C	-0.426723	-0.689763	-1.401405
C57	C	-0.093390	-0.356430	-1.068071
C58	C	-0.760006	-0.577854	-1.422870
C59	C	-0.426672	-0.244521	-1.089537
C60	C	-0.093339	0.088813	-0.756203
C61	C	-0.760035	-0.577875	-1.289470
C62	C	-0.426701	-0.244542	-0.956137
C63	C	-0.093368	0.088792	-0.622803
C64	C	-0.350146	-0.578003	-1.734608
C65	C	-0.016813	-0.244670	-1.401275
C66	C	0.316521	0.088664	-1.067941
C67	C	-0.171503	-0.577757	-1.734779
C68	C	0.161831	-0.244423	-1.401446
C69	C	0.495164	0.088910	-1.068112
C70	C	-0.760047	-0.577891	-2.047737
C71	C	-0.426714	-0.244558	-1.714404
C72	C	-0.093381	0.088775	-1.381070
C73	C	-0.760056	-0.577899	-2.181137
C74	C	-0.426723	-0.244566	-1.847804
C75	C	-0.093390	0.088767	-1.514470
C76	C	-0.760076	-0.264830	-1.734774
C77	C	-0.426743	0.068504	-1.401441
C78	C	-0.093410	0.401837	-1.068107
C79	C	-0.760098	-0.131430	-1.734808
C80	C	-0.426764	0.201904	-1.401475
C81	C	-0.093431	0.535237	-1.068141
