data_functionalizedCrystal
_audit_creation_method	'MofGen! by Chris Wilmer'
_symmetry_space_group_name_H-M	'P1'
_symmetry_Int_Tables_number	1
_symmetry_cell_setting	triclinic
loop_
_symmetry_equiv_pos_as_xyz
  x,y,z
_cell_length_a	10.654550
_cell_length_b	15.538191
_cell_length_c	9.730223
_cell_angle_alpha	90.002740
_cell_angle_beta	89.996251
_cell_angle_gamma	65.878499
loop_
_atom_site_label
_atom_site_type_symbol
_atom_site_fract_x
_atom_site_fract_y
_atom_site_fract_z
O1	O	1.606168	0.131911	-0.114384
O2	O	1.234815	0.144479	-0.114360
O3	O	1.492779	0.001538	-0.114383
O4	O	1.348204	0.274853	-0.114361
O5	O	1.492775	0.001542	0.114197
O6	O	1.234811	0.144483	0.114220
O7	O	1.606165	0.131915	0.114196
Zn8	Zn	1.420487	0.138200	0.150500
Zn9	Zn	1.420492	0.138195	-0.150664
O10	O	1.348201	0.274856	0.114219
C11	C	1.188446	0.143559	-0.000068
C12	C	1.050294	0.140798	-0.000059
C13	C	0.931464	0.224959	-0.000072
C14	C	0.801659	0.222359	-0.000096
C15	C	0.909528	0.051429	-0.000100
C16	C	1.039331	0.054030	-0.000066
C17	C	0.869186	0.323644	-0.000077
C18	C	0.739380	0.321045	-0.000100
C19	C	1.507903	-0.033457	-0.000099
C20	C	1.552959	-0.137736	-0.000115
C21	C	1.105338	-0.428451	-0.000057
C22	C	1.147707	-0.526440	-0.000057
C23	C	1.386021	-0.547326	-0.000073
C24	C	1.343672	-0.449337	-0.000080
C25	C	1.203329	-0.389906	-0.000071
C26	C	1.441663	-0.410792	-0.000093
C27	C	1.399317	-0.312812	-0.000093
C28	C	1.258980	-0.253375	-0.000080
C29	C	1.160983	-0.291926	-0.000070
C30	C	1.582005	-0.470224	-0.000093
C31	C	1.679996	-0.431680	-0.000106
C32	C	1.637651	-0.333697	-0.000116
C33	C	1.497314	-0.274261	-0.000102
C34	C	1.735648	-0.295147	-0.000125
C35	C	1.693302	-0.197166	-0.000125
C36	C	1.454968	-0.176280	-0.000102
C37	C	1.652533	0.132836	-0.000100
C38	C	1.790686	0.135597	-0.000117
C39	C	1.333076	0.309851	-0.000069
C40	C	1.288020	0.414130	-0.000061
N41	N	1.420493	0.138202	0.356036
N42	N	1.420500	0.138185	-0.356201
C43	C	1.534731	0.074930	0.427952
C44	C	1.534733	0.074918	0.571835
C45	C	1.306251	0.201461	0.571874
C46	C	1.306246	0.201467	0.427993
C47	C	1.666646	0.001874	0.427931
C48	C	1.666648	0.001863	0.571814
H49	H	0.680267	0.358226	-0.095765
F50	F	1.305598	-0.113025	-0.000106
F51	F	1.771841	0.031783	0.369589
H52	H	0.991057	-0.380059	-0.000060
H53	H	1.224505	-0.173594	-0.000072
F54	F	0.896599	0.364713	-0.129063
H55	H	1.046702	-0.243534	-0.000073
F56	F	0.661452	0.360030	0.128885
H57	H	0.900584	-0.019215	-0.000126
F58	F	1.165796	-0.035546	-0.000025
F59	F	1.043399	-0.567457	-0.000035
H60	H	1.500288	-0.595727	-0.000075
F61	F	1.627071	-0.574505	-0.000084
F62	F	0.883943	0.374097	0.124963
H63	H	1.794264	-0.480081	-0.000108
F64	F	1.885006	-0.358408	-0.000112
H65	H	1.213218	0.252980	0.369441
F66	F	1.797595	-0.156142	-0.000119
F67	F	1.184667	0.268787	0.648466
H68	H	1.678950	-0.070315	0.388873
H69	H	1.668026	-0.066356	0.616426
H70	H	1.755637	0.017955	0.610860
