data_functionalizedCrystal
_audit_creation_method	'MofGen! by Chris Wilmer'
_symmetry_space_group_name_H-M	'P1'
_symmetry_Int_Tables_number	1
_symmetry_cell_setting	triclinic
loop_
_symmetry_equiv_pos_as_xyz
  x,y,z
_cell_length_a	25.639239
_cell_length_b	10.685980
_cell_length_c	10.686551
_cell_angle_alpha	98.408259
_cell_angle_beta	94.409472
_cell_angle_gamma	94.404956
loop_
_atom_site_label
_atom_site_type_symbol
_atom_site_fract_x
_atom_site_fract_y
_atom_site_fract_z
Zn1	Zn	-0.117194	1.995668	0.866668
Zn2	Zn	-0.211916	1.979148	0.654375
Zn3	Zn	-0.131747	1.767080	0.638128
Zn4	Zn	-0.211866	1.783272	0.850285
O5	O	-0.168181	1.881292	0.752364
O6	O	-0.123690	2.171116	0.852162
O7	O	-0.207393	1.937327	0.474586
O8	O	-0.056645	1.797540	0.668501
O9	O	-0.193282	2.158980	0.696192
O10	O	-0.045954	1.965483	0.836408
O11	O	-0.148493	1.781522	0.462649
O12	O	-0.148444	1.591588	0.652615
O13	O	-0.193196	1.825137	1.030093
O14	O	-0.207307	1.603485	0.808487
O15	O	-0.123641	1.981183	1.042129
O16	O	-0.285081	1.953028	0.680307
O17	O	-0.285044	1.809119	0.824241
C18	C	-0.179449	1.551477	0.727011
C19	C	-0.184282	1.410382	0.716195
C20	C	-0.304033	1.881074	0.752290
C21	C	-0.362145	1.881100	0.752309
C22	C	-0.722495	1.956448	0.677572
C23	C	-0.777097	1.956499	0.677593
O24	O	-0.805333	2.020336	0.613968
N25	N	-0.804409	1.881522	0.752465
C26	C	-0.777116	1.806499	0.827332
O27	O	-0.805361	1.742731	0.891020
C28	C	-0.722514	1.806456	0.827317
C29	C	-0.695206	1.881429	0.752430
C30	C	-0.695187	2.031415	0.602692
C31	C	-0.640589	2.031363	0.602670
C32	C	-0.613299	1.956343	0.677527
C33	C	-0.640608	1.881376	0.752408
C34	C	-0.695221	1.731442	0.902190
C35	C	-0.640616	1.731406	0.902169
C36	C	-0.613308	1.806378	0.827282
C37	C	-0.558720	1.806304	0.827243
N38	N	-0.531408	1.881281	0.752371
C39	C	-0.558698	1.956300	0.677513
C40	C	-0.891783	1.806596	0.827359
C41	C	-0.946383	1.806631	0.827367
C42	C	-0.946361	1.956633	0.677630
C43	C	-0.891760	1.956590	0.677615
C44	C	-0.864471	1.881573	0.752486
C45	C	-0.444038	1.956183	0.677471
C46	C	-0.389435	1.956120	0.677451
C47	C	-0.389462	1.806124	0.827193
C48	C	-0.444060	1.806182	0.827208
C49	C	-0.471346	1.881221	0.752344
O50	O	-0.530450	1.742503	0.890839
O51	O	-0.530445	2.020071	0.613848
C52	C	-0.031796	1.881548	0.752469
C53	C	0.026323	1.881657	0.752514
C54	C	-0.156789	1.906809	1.083457
C55	C	-0.151935	1.917683	1.224549
C56	C	-0.156869	2.212396	0.777817
C57	C	-0.152048	2.353493	0.788663
C58	C	-0.179488	1.855948	0.422565
C59	C	-0.184186	1.845320	0.281492
H60	H	-0.215577	1.351139	0.645866
C61	C	-0.359868	1.724464	0.908307
C62	C	-0.378440	1.596751	0.870921
C63	C	-0.351185	1.521499	0.945617
H64	H	-0.365211	1.749407	0.995066
H65	H	-0.323437	1.735094	0.897557
H66	H	-0.414863	1.586128	0.881683
H67	H	-0.373097	1.571770	0.784174
H68	H	-0.314754	1.532128	0.934866
H69	H	-0.356530	1.546452	1.032372
H70	H	-0.363779	1.434836	0.920254
C71	C	-0.724819	1.650221	0.983733
C72	C	-0.706241	1.687475	1.111456
C73	C	-0.733497	1.612692	1.186620
H74	H	-0.719481	1.563467	0.958701
H75	H	-0.761249	1.660995	0.973126
H76	H	-0.669820	1.676690	1.122055
H77	H	-0.711579	1.774217	1.136526
H78	H	-0.769927	1.623467	1.176013
H79	H	-0.728157	1.525943	1.161577
H80	H	-0.720899	1.637967	1.273289
H81	H	-0.466248	2.017291	0.616512
C82	C	-0.359772	2.037302	0.595970
C83	C	-0.333738	1.959189	0.508991
C84	C	-0.306415	2.033925	0.433902
H85	H	-0.334839	2.096315	0.648664
H86	H	-0.383834	2.081962	0.551319
H87	H	-0.309678	1.914550	0.553638
H88	H	-0.358659	1.900177	0.456268
H89	H	-0.330478	2.078584	0.389252
H90	H	-0.281485	2.092934	0.486607
H91	H	-0.288752	1.980935	0.374871
H92	H	-0.618400	1.670320	0.963142
H93	H	-0.120752	1.412728	0.858979
C94	C	-0.473772	1.724989	0.908592
C95	C	-0.499824	1.803106	0.995526
C96	C	-0.527201	1.728363	1.070515
H97	H	-0.449756	1.680277	0.953287
H98	H	-0.498697	1.666019	0.855787
H99	H	-0.474902	1.862053	1.048324
H100	H	-0.523849	1.847818	0.950866
H101	H	-0.552126	1.669393	1.017711
H102	H	-0.503181	1.683655	1.115202
H103	H	-0.544884	1.781353	1.129501
C104	C	-0.611034	2.112916	0.521341
C105	C	-0.646627	2.178647	0.455828
C106	C	-0.619423	2.253808	0.380912
H107	H	-0.593321	2.060267	0.462146
H108	H	-0.586154	2.171983	0.574169
H109	H	-0.671498	2.119586	0.403005
H110	H	-0.664341	2.231318	0.514992
H111	H	-0.594543	2.312876	0.433739
H112	H	-0.601711	2.201150	0.321725
H113	H	-0.643568	2.298425	0.336462
C114	C	-0.724800	2.113135	0.521684
C115	C	-0.750812	2.200046	0.599930
C116	C	-0.778076	2.275396	0.525363
H117	H	-0.749740	2.060603	0.462554
H118	H	-0.700703	2.157846	0.477167
H119	H	-0.774906	2.155339	0.644425
H120	H	-0.725884	2.252606	0.659058
H121	H	-0.753979	2.320107	0.480846
H122	H	-0.803013	2.222854	0.466237
H123	H	-0.795724	2.334382	0.578443
C124	C	-0.862097	2.037772	0.596143
C125	C	-0.836058	1.959667	0.509170
C126	C	-0.808736	2.034410	0.434086
H127	H	-0.837168	2.096792	0.648840
H128	H	-0.886162	2.082424	0.551487
H129	H	-0.811996	1.915036	0.553822
H130	H	-0.860975	1.900648	0.456445
H131	H	-0.832801	2.079061	0.389430
H132	H	-0.783810	2.093426	0.486793
H133	H	-0.791069	1.981425	0.375059
H134	H	-0.968590	2.017723	0.616681
H135	H	-0.215513	1.775052	1.222305
C136	C	-0.110145	2.011513	1.303248
C137	C	-0.081374	2.076109	1.222443
C138	C	-0.042879	2.162565	1.294895
H139	H	-0.087212	1.967080	1.351269
H140	H	-0.126486	2.070795	1.359177
H141	H	-0.065034	2.016836	1.166536
H142	H	-0.104294	2.120568	1.174422
H143	H	-0.059220	2.221847	1.350825
H144	H	-0.019949	2.118121	1.342913
H145	H	-0.023357	2.206412	1.240081
H146	H	-0.968614	1.745569	0.888335
C147	C	-0.862255	1.724994	0.908677
C148	C	-0.897867	1.659324	0.974217
C149	C	-0.870690	1.584130	1.049128
H150	H	-0.837363	1.777616	0.967857
H151	H	-0.844561	1.665890	0.855844
H152	H	-0.915553	1.718420	1.027047
H153	H	-0.922760	1.606679	0.915070
H154	H	-0.852995	1.525026	0.996295
H155	H	-0.845798	1.636762	1.108300
H156	H	-0.894849	1.539556	1.093597
