data_functionalizedCrystal
_audit_creation_method	'MofGen! by Chris Wilmer'
_symmetry_space_group_name_H-M	'P1'
_symmetry_Int_Tables_number	1
_symmetry_cell_setting	triclinic
loop_
_symmetry_equiv_pos_as_xyz
  x,y,z
_cell_length_a	13.897448
_cell_length_b	10.685980
_cell_length_c	10.686551
_cell_angle_alpha	81.591741
_cell_angle_beta	85.592616
_cell_angle_gamma	94.384308
loop_
_atom_site_label
_atom_site_type_symbol
_atom_site_fract_x
_atom_site_fract_y
_atom_site_fract_z
Zn1	Zn	-0.216203	1.995774	-0.866694
Zn2	Zn	0.283797	2.495774	-0.366694
Zn3	Zn	-0.390948	1.979340	-0.654423
Zn4	Zn	0.109052	2.479340	-0.154423
Zn5	Zn	-0.243050	1.767199	-0.638157
Zn6	Zn	0.256950	2.267199	-0.138157
Zn7	Zn	-0.390854	1.783463	-0.850333
Zn8	Zn	0.109146	2.283463	-0.350333
O9	O	-0.310264	1.881444	-0.752402
O10	O	0.189736	2.381444	-0.252402
O11	O	-0.228187	2.171228	-0.852190
O12	O	0.271813	2.671228	-0.352190
O13	O	-0.382604	1.937514	-0.474633
O14	O	0.117396	2.437514	0.025367
O15	O	-0.104500	1.797591	-0.668513
O16	O	0.395500	2.297591	-0.168513
O17	O	-0.356571	2.159154	-0.696235
O18	O	0.143429	2.659154	-0.196235
O19	O	-0.084776	1.965524	-0.836418
O20	O	0.415224	2.465524	-0.336418
O21	O	-0.273944	1.781655	-0.462683
O22	O	0.226056	2.281655	0.037317
O23	O	-0.273853	1.591722	-0.652649
O24	O	0.226147	2.091722	-0.152649
O25	O	-0.356412	1.825311	-1.030136
O26	O	0.143588	2.325311	-0.530136
O27	O	-0.382444	1.603672	-0.808533
O28	O	0.117556	2.103672	-0.308533
O29	O	-0.228096	1.981295	-1.042156
O30	O	0.271904	2.481295	-0.542156
O31	O	-0.525924	1.953285	-0.680371
O32	O	-0.025924	2.453285	-0.180371
O33	O	-0.525855	1.809376	-0.824305
O34	O	-0.025855	2.309376	-0.324305
C35	C	-0.331052	1.551638	-0.727051
C36	C	0.168948	2.051638	-0.227051
C37	C	-0.339967	1.410548	-0.716236
C38	C	0.160033	1.910548	-0.216236
C39	C	-0.560886	1.881348	-0.752358
C40	C	-0.060886	2.381348	-0.252358
C41	C	-0.668094	1.881427	-0.752391
C42	C	-0.168094	2.381427	-0.252391
C43	C	-0.864375	1.881566	-0.752481
C44	C	-0.364375	2.381566	-0.252481
C45	C	-0.755150	1.881486	-0.752434
C46	C	-0.255150	2.381486	-0.252434
C47	C	-0.058659	1.881576	-0.752476
C48	C	0.441341	2.381576	-0.252476
C49	C	0.048560	1.881633	-0.752508
C50	C	0.548560	2.381633	-0.252508
C51	C	-0.289249	1.906950	-1.083492
C52	C	0.210751	2.406950	-0.583492
C53	C	-0.280293	1.917820	-1.224583
C54	C	0.219707	2.417820	-0.724583
C55	C	-0.289395	2.212537	-0.777852
C56	C	0.210605	2.712537	-0.277852
C57	C	-0.280502	2.353630	-0.788698
C58	C	0.219498	2.853630	-0.288698
C59	C	-0.331123	1.856110	-0.422605
C60	C	0.168877	2.356110	0.077395
C61	C	-0.339791	1.845486	-0.281534
C62	C	0.160209	2.345486	0.218466
H63	H	-0.397701	1.351334	-0.645915
H64	H	0.102299	1.851334	-0.145915
C65	C	-0.110723	1.399520	-0.854024
C66	C	0.389277	1.899520	-0.354024
C67	C	-0.202562	1.433550	-0.883624
C68	C	0.297438	1.933550	-0.383624
H69	H	-0.062608	1.448872	-0.912626
H70	H	0.437392	1.948872	-0.412626
H71	H	-0.106699	1.312021	-0.858969
H72	H	0.393301	1.812021	-0.358969
H73	H	-0.100575	1.414610	-0.770408
H74	H	0.399425	1.914610	-0.270408
H75	H	-0.212713	1.418451	-0.967238
H76	H	0.287287	1.918451	-0.467238
H77	H	-0.206589	1.521070	-0.878692
H78	H	0.293411	2.021070	-0.378692
H79	H	-0.397583	1.775247	-1.222354
H80	H	0.102417	2.275247	-0.722354
H81	H	-0.222503	1.988073	-1.283771
H82	H	0.277497	2.488073	-0.783771
