data_functionalizedCrystal
_audit_creation_method	'MofGen! by Chris Wilmer'
_symmetry_space_group_name_H-M	'P1'
_symmetry_Int_Tables_number	1
_symmetry_cell_setting	triclinic
loop_
_symmetry_equiv_pos_as_xyz
  x,y,z
_cell_length_a	15.995300
_cell_length_b	15.995350
_cell_length_c	14.472310
_cell_angle_alpha	90.001162
_cell_angle_beta	89.985388
_cell_angle_gamma	83.482091
loop_
_atom_site_label
_atom_site_type_symbol
_atom_site_fract_x
_atom_site_fract_y
_atom_site_fract_z
O1	O	1.111023	0.107720	-0.076870
O2	O	0.867242	0.121092	-0.076864
O3	O	0.995796	-0.007483	-0.076866
O4	O	0.982468	0.236295	-0.076868
O5	O	0.995763	-0.007475	0.076816
O6	O	0.867209	0.121099	0.076818
O7	O	1.110990	0.107728	0.076812
Cu8	Cu	0.989096	0.114414	0.090847
Cu9	Cu	0.989135	0.114405	-0.090899
O10	O	0.982435	0.236302	0.076814
C11	C	0.836030	0.120550	-0.000022
C12	C	0.743077	0.118915	-0.000020
C13	C	0.572894	0.115896	-0.000027
C14	C	0.525428	0.207443	-0.000026
C15	C	0.428741	0.205773	-0.000377
C16	C	0.405337	0.112924	-0.000033
C17	C	0.446489	0.067499	-0.087620
C18	C	0.543122	0.069816	-0.087691
C19	C	0.543364	0.068469	0.087080
C20	C	0.446419	0.068477	0.088229
C21	C	0.310642	0.111239	-0.000040
C22	C	0.667590	0.117577	-0.000027
C23	C	0.995229	-0.038674	-0.000027
C24	C	0.993577	-0.131624	-0.000032
C25	C	0.987644	-0.469370	-0.000029
C26	C	0.896090	-0.421920	-0.000371
C27	C	0.897743	-0.325230	-0.000025
C28	C	0.990587	-0.301810	-0.000031
C29	C	1.035726	-0.342892	0.087726
C30	C	1.033426	-0.439527	0.087800
C31	C	1.035355	-0.439894	-0.086966
C32	C	1.035333	-0.342949	-0.088126
C33	C	0.992255	-0.207113	-0.000029
C34	C	0.985979	-0.564068	-0.000025
C35	C	1.142202	0.108269	-0.000032
C36	C	1.235154	0.109904	-0.000040
C37	C	0.983003	0.267493	-0.000027
C38	C	0.984655	0.360443	-0.000028
N39	N	0.989075	0.114420	0.218678
N40	N	0.989163	0.114393	-0.218730
C41	C	0.989134	0.114402	0.592769
C42	C	0.920117	0.182969	0.553605
C43	C	0.920276	0.183219	0.446517
C44	C	0.989104	0.114411	0.407178
C45	C	1.076471	0.133477	0.446013
C46	C	1.076083	0.133964	0.553135
C47	C	0.971565	0.026565	0.553300
C48	C	0.969561	0.027152	0.446172
C49	C	0.989092	0.114414	0.302290
C50	C	0.989152	0.114400	0.697658
H51	H	0.419066	0.101649	0.153027
N52	N	1.097477	0.217363	0.410479
H53	H	1.151658	0.208992	0.374068
H54	H	1.050482	0.243087	0.369271
H55	H	0.400264	0.241466	0.062395
N56	N	0.585878	-0.019226	-0.092649
H57	H	0.648924	-0.018417	-0.092734
H58	H	0.568989	-0.051999	-0.037363
N59	N	1.124771	-0.481974	-0.087748
H60	H	1.165003	-0.437696	-0.085696
H61	H	1.134280	-0.519948	-0.032091
H62	H	0.855335	0.171862	0.420262
H63	H	1.004347	-0.314501	0.153036
H64	H	0.431080	0.000784	0.093777
N65	N	0.570462	0.108401	0.175058
H66	H	0.608168	0.065594	0.211691
H67	H	0.602134	0.157652	0.159271
N68	N	1.146138	0.069097	0.412257
H69	H	1.175100	0.039105	0.466909
H70	H	1.121618	0.026901	0.371352
H71	H	1.103936	-0.328778	0.090985
N72	N	1.038221	-0.041035	0.586843
H73	H	1.095343	-0.027980	0.565159
H74	H	1.037301	-0.043061	0.656582
H75	H	0.854965	0.171799	0.579394
N76	N	0.427813	-0.022869	-0.091627
H77	H	0.482340	-0.061482	-0.090615
H78	H	0.392389	-0.035189	-0.036566
N79	N	0.549905	0.256192	0.083150
H80	H	0.592001	0.219410	0.121640
H81	H	0.575838	0.307605	0.061936
H82	H	1.002331	-0.315697	-0.153046
H83	H	0.909240	0.008228	0.580369
N84	N	1.031826	-0.043606	0.410723
H85	H	1.073774	-0.019995	0.368696
H86	H	1.062405	-0.073252	0.464617
H87	H	0.400906	0.241306	-0.063529
H88	H	0.905293	0.012682	0.420792
N89	N	0.585459	-0.020937	0.088207
H90	H	0.623477	-0.030709	0.032597
H91	H	0.619867	-0.030750	0.146506
H92	H	0.545050	0.243683	-0.062741
H93	H	1.103041	-0.327599	-0.093429
N94	N	0.934793	0.268834	0.589200
H95	H	0.985951	0.263510	0.630590
H96	H	0.944234	0.306785	0.535324
N97	N	0.567416	0.113166	-0.174744
H98	H	0.515376	0.130595	-0.212711
H99	H	0.595339	0.164617	-0.157853
H100	H	0.862259	-0.296804	-0.062933
H101	H	0.931495	0.248401	0.420882
H102	H	1.100643	-0.471787	0.091777
N103	N	0.408939	0.108768	-0.174286
H104	H	0.419503	0.169825	-0.175381
H105	H	0.435840	0.079034	-0.230222
H106	H	0.859511	-0.440448	-0.063304
N107	N	1.096578	0.218821	0.586214
H108	H	1.048340	0.246420	0.624527
H109	H	1.149363	0.211278	0.625024
N110	N	0.847809	-0.447853	0.082525
H111	H	0.884984	-0.490205	0.120300
H112	H	0.829543	-0.396738	0.121644
N113	N	0.850403	-0.288302	0.083455
H114	H	0.851279	-0.225267	0.084027
H115	H	0.790253	-0.301704	0.080710
N116	N	0.989791	-0.463766	0.174696
H117	H	0.972226	-0.411700	0.212593
H118	H	0.938402	-0.491711	0.157619
H119	H	1.005436	-0.460431	-0.153481
H120	H	1.129045	0.085992	0.579040
