data_functionalizedCrystal
_audit_creation_method	'MofGen! by Chris Wilmer'
_symmetry_space_group_name_H-M	'P1'
_symmetry_Int_Tables_number	1
_symmetry_cell_setting	triclinic
loop_
_symmetry_equiv_pos_as_xyz
  x,y,z
_cell_length_a	12.837943
_cell_length_b	9.065218
_cell_length_c	7.540329
_cell_angle_alpha	90.001757
_cell_angle_beta	89.998130
_cell_angle_gamma	90.077587
loop_
_atom_site_label
_atom_site_type_symbol
_atom_site_fract_x
_atom_site_fract_y
_atom_site_fract_z
O1	O	1.379057	-0.384029	-0.147437
O2	O	1.077074	-0.365058	-0.147448
O3	O	1.234307	-0.160660	-0.147439
O4	O	1.221824	-0.588427	-0.147446
O5	O	1.234298	-0.160656	0.147526
O6	O	1.077064	-0.365054	0.147517
O7	O	1.379048	-0.384024	0.147528
Cu8	Cu	1.228055	-0.374539	0.174455
Cu9	Cu	1.228066	-0.374544	-0.174375
O10	O	1.221814	-0.588423	0.147519
C11	C	1.038388	-0.358647	0.000033
C12	C	0.923132	-0.339534	0.000029
C13	C	0.684331	-0.569311	0.000050
C14	C	0.576036	-0.551359	0.000047
C15	C	0.598246	-0.285680	0.000033
C16	C	0.706541	-0.303632	0.000036
C17	C	0.749579	-0.445452	0.000042
C18	C	0.857875	-0.463402	0.000032
C19	C	0.880083	-0.197725	0.000030
C20	C	0.771789	-0.179773	0.000027
C21	C	1.233103	-0.105525	0.000041
C22	C	1.229515	0.058754	0.000032
C23	C	1.417733	-0.390435	0.000043
C24	C	1.532990	-0.409548	0.000036
N25	N	1.228055	-0.374536	0.419804
C26	C	1.223019	-0.643557	0.000035
C27	C	1.226606	-0.807836	0.000032
N28	N	1.228075	-0.374536	-0.419724
H29	H	0.719372	-0.684786	0.000052
C30	C	0.550891	-0.129696	0.000045
H31	H	0.477050	-0.136751	0.000042
H32	H	0.573203	-0.078054	0.102904
H33	H	0.573195	-0.078057	-0.102831
C34	C	0.724441	-0.023784	0.000012
H35	H	0.650599	-0.030830	-0.000000
H36	H	0.746750	0.027870	0.102863
H37	H	0.746753	0.027836	-0.102872
C38	C	0.504267	-0.687604	0.000041
H39	H	0.545413	-0.774632	0.000031
H40	H	0.461552	-0.686122	0.102896
H41	H	0.461567	-0.686125	-0.102839
C42	C	0.905217	-0.619395	0.000043
H43	H	0.850843	-0.690588	0.000065
H44	H	0.947003	-0.631934	-0.102815
H45	H	0.946996	-0.631909	0.102919
C46	C	0.951858	-0.061474	0.000019
H47	H	1.022519	-0.092473	0.000028
H48	H	0.938671	-0.003960	-0.102845
H49	H	0.938675	-0.003945	0.102889
