data_functionalizedCrystal
_audit_creation_method	'MofGen! by Chris Wilmer'
_symmetry_space_group_name_H-M	'P1'
_symmetry_Int_Tables_number	1
_symmetry_cell_setting	triclinic
loop_
_symmetry_equiv_pos_as_xyz
  x,y,z
_cell_length_a	10.654550
_cell_length_b	9.565339
_cell_length_c	10.489746
_cell_angle_alpha	90.000074
_cell_angle_beta	84.513102
_cell_angle_gamma	90.007114
loop_
_atom_site_label
_atom_site_type_symbol
_atom_site_fract_x
_atom_site_fract_y
_atom_site_fract_z
O1	O	1.667928	0.116376	0.179152
O2	O	1.302457	0.116354	0.196222
O3	O	1.493505	0.116355	0.002086
O4	O	1.476880	0.116375	0.373289
O5	O	1.493490	-0.116165	0.002098
O6	O	1.302442	-0.116166	0.196234
O7	O	1.667913	-0.116144	0.179164
Zn8	Zn	1.485175	-0.153073	0.187701
Zn9	Zn	1.485195	0.153283	0.187685
O10	O	1.476865	-0.116145	0.373301
C11	C	1.255651	0.000091	0.194975
C12	C	1.116206	0.000082	0.191225
N13	N	1.485171	-0.362152	0.187711
C14	C	1.036776	0.000109	0.305529
C15	C	0.905754	0.000133	0.301998
C16	C	0.933604	0.000109	0.069849
C17	C	1.064624	0.000075	0.073381
C18	C	1.020696	0.000128	0.439559
C19	C	0.889673	0.000152	0.436028
C20	C	1.396790	-0.453356	0.277463
C21	C	1.510506	-0.546526	0.303218
C22	C	1.371504	-0.546537	0.161966
C23	C	1.598944	-0.453271	0.213525
C24	C	1.459867	-0.453273	0.072222
C25	C	1.573664	-0.546402	0.097929
C26	C	1.714719	0.000122	0.180412
C27	C	1.854164	0.000140	0.184161
C28	C	1.492241	0.000095	-0.045439
C29	C	1.488480	0.000096	-0.187067
N30	N	1.485209	0.362362	0.187665
C31	C	1.364695	0.000106	-0.339865
C32	C	1.426590	0.114751	-0.262508
C33	C	1.426604	-0.114495	-0.262538
C34	C	1.543736	0.114867	-0.362057
C35	C	1.543733	-0.114483	-0.362091
C36	C	1.605714	0.000191	-0.284784
C37	C	1.478129	0.000118	0.420826
C38	C	1.481890	0.000126	0.562453
H39	H	0.891589	0.000126	-0.026096
O40	O	1.367571	-0.230245	-0.210900
C41	C	1.321576	-0.310696	-0.309013
H42	H	1.377649	-0.285228	-0.404222
H43	H	1.217803	-0.285385	-0.315367
C44	C	1.266898	-0.498451	-0.162054
C45	C	1.335776	-0.467179	-0.278990
H46	H	1.275651	-0.594977	-0.143534
H47	H	1.297881	-0.444248	-0.095952
H48	H	1.180427	-0.477348	-0.167365
H49	H	1.422247	-0.488265	-0.273673
H50	H	1.304807	-0.521389	-0.345091
H51	H	1.129292	0.000034	-0.019697
H52	H	0.847972	0.097471	0.486523
H53	H	0.844015	-0.100231	0.476538
O54	O	1.602514	0.230738	-0.413748
C55	C	1.516454	0.310081	-0.477909
H56	H	1.416117	0.284090	-0.437214
H57	H	1.528502	0.284151	-0.584456
C58	C	1.664948	0.498810	-0.509025
C59	C	1.541712	0.466896	-0.459034
H60	H	1.680530	0.595541	-0.497388
H61	H	1.722931	0.445354	-0.465803
H62	H	1.674973	0.477191	-0.597810
H63	H	1.531694	0.488499	-0.370248
H64	H	1.483728	0.520360	-0.502241
O65	O	1.727398	0.000501	-0.255713
C66	C	1.788731	0.121516	-0.306898
H67	H	1.715690	0.205627	-0.321551
H68	H	1.843236	0.095262	-0.402753
C69	C	1.970473	0.072244	-0.195534
C70	C	1.880764	0.175554	-0.213521
H71	H	2.027248	0.105575	-0.137939
H72	H	1.929155	-0.009289	-0.161053
H73	H	2.015880	0.050375	-0.275420
H74	H	1.835348	0.197408	-0.133639
H75	H	1.922077	0.257092	-0.247987
H76	H	1.050046	-0.097184	0.491983
H77	H	1.593156	-0.211407	-0.405609
O78	O	1.243077	0.000048	-0.369151
C79	C	1.180895	-0.119705	-0.316306
H80	H	1.231627	-0.159256	-0.232473
H81	H	1.181385	-0.204735	-0.392508
C82	C	0.981466	-0.033650	-0.371854
C83	C	1.043770	-0.082221	-0.268882
H84	H	0.896879	-0.010532	-0.342606
H85	H	1.023359	0.047027	-0.407461
H86	H	0.981887	-0.104518	-0.435347
H87	H	1.043362	-0.011348	-0.205400
H88	H	1.001873	-0.162886	-0.233263
H89	H	1.056379	0.100519	0.482231
H90	H	1.322119	-0.412501	0.353433
O91	O	1.713553	-0.404380	0.239745
C92	C	1.712127	-0.256989	0.239520
H93	H	1.610828	-0.218457	0.258591
H94	H	1.754215	-0.217016	0.142305
C95	C	1.914974	-0.249360	0.321411
C96	C	1.790556	-0.202034	0.344845
H97	H	1.963357	-0.215459	0.386375
H98	H	1.915937	-0.348660	0.321558
H99	H	1.950030	-0.216045	0.240396
H100	H	1.755498	-0.235363	0.425851
H101	H	1.789589	-0.102738	0.344714
H102	H	1.648504	-0.587000	0.022006
O103	O	1.256707	-0.595241	0.136152
C104	C	1.163808	-0.547859	0.231060
H105	H	1.198896	-0.449730	0.278109
H106	H	1.143775	-0.632776	0.306531
C107	C	0.998899	-0.634474	0.111445
C108	C	1.041990	-0.513943	0.169223
H109	H	0.923754	-0.613559	0.073304
H110	H	1.061486	-0.666401	0.047505
H111	H	0.982214	-0.705226	0.174347
H112	H	1.058689	-0.443200	0.106318
H113	H	0.979403	-0.482003	0.233151
H114	H	1.531935	-0.587486	0.400865
H115	H	1.438403	-0.412280	-0.025394
H116	H	1.377123	0.211672	-0.219014
