data_functionalizedCrystal
_audit_creation_method	'MofGen! by Chris Wilmer'
_symmetry_space_group_name_H-M	'P1'
_symmetry_Int_Tables_number	1
_symmetry_cell_setting	triclinic
loop_
_symmetry_equiv_pos_as_xyz
  x,y,z
_cell_length_a	23.532361
_cell_length_b	23.532407
_cell_length_c	14.472311
_cell_angle_alpha	90.012934
_cell_angle_beta	90.000844
_cell_angle_gamma	82.839173
loop_
_atom_site_label
_atom_site_type_symbol
_atom_site_fract_x
_atom_site_fract_y
_atom_site_fract_z
O1	O	0.755277	0.069011	0.076758
O2	O	0.589410	0.079042	0.076781
O3	O	0.677345	-0.008906	0.076752
O4	O	0.667342	0.156959	0.076787
O5	O	0.677337	-0.008914	-0.076930
O6	O	0.589402	0.079034	-0.076901
O7	O	0.755269	0.069003	-0.076924
Cu8	Cu	0.672335	0.074018	-0.090945
Cu9	Cu	0.672344	0.074028	0.090802
O10	O	0.667334	0.156951	-0.076895
C11	C	0.568189	0.078787	-0.000057
C12	C	0.504971	0.078032	-0.000049
C13	C	0.231731	0.074733	0.083717
C14	C	0.291131	0.075448	0.083719
O15	O	0.321861	0.075802	0.154963
N16	N	0.320832	0.075804	-0.000053
C17	C	0.291132	0.075440	-0.083833
O18	O	0.321850	0.075808	-0.155088
C19	C	0.231734	0.074721	-0.083835
C20	C	0.202035	0.074370	-0.000057
C21	C	0.202032	0.074381	0.167488
C22	C	0.142636	0.073668	0.167485
C23	C	0.112940	0.073305	0.083711
C24	C	0.142639	0.073657	-0.000060
C25	C	0.202035	0.074353	-0.167614
C26	C	0.142633	0.073633	-0.167608
C27	C	0.112933	0.073283	-0.083830
C28	C	0.053546	0.072580	-0.083836
N29	N	0.023845	0.072224	-0.000064
C30	C	0.053542	0.072586	0.083710
C31	C	0.415872	0.076949	-0.083824
C32	C	0.475268	0.077672	-0.083823
C33	C	0.475264	0.077679	0.083730
C34	C	0.415866	0.076960	0.083728
C35	C	0.386171	0.076593	-0.000051
C36	C	-0.071194	0.071088	0.083698
C37	C	-0.130595	0.070376	0.083687
C38	C	-0.130585	0.070367	-0.083865
C39	C	-0.071189	0.071081	-0.083855
C40	C	-0.041495	0.071440	-0.000066
O41	O	0.022779	0.072224	-0.155043
O42	O	0.022818	0.072210	0.154953
C43	C	0.677086	-0.030126	-0.000092
C44	C	0.676320	-0.093343	-0.000099
C45	C	0.723555	-0.492454	-0.000055
C46	C	0.722844	-0.551854	-0.000048
O47	O	0.766630	-0.588606	-0.000020
N48	N	0.670566	-0.574471	-0.000041
C49	C	0.618997	-0.537685	-0.000032
O50	O	0.574465	-0.562377	-0.000025
C51	C	0.619709	-0.478286	-0.000032
C52	C	0.671990	-0.455672	-0.000048
C53	C	0.775832	-0.469839	-0.000070
C54	C	0.776543	-0.410443	-0.000079
C55	C	0.724977	-0.373662	-0.000072
C56	C	0.672701	-0.396276	-0.000057
C57	C	0.568140	-0.441501	-0.000017
C58	C	0.568857	-0.382099	-0.000016
C59	C	0.621137	-0.359485	-0.000033
C60	C	0.621847	-0.300099	-0.000060
N61	N	0.674124	-0.277481	-0.000067
C62	C	0.725690	-0.314263	-0.000073
C63	C	0.617505	-0.662427	-0.000029
C64	C	0.616793	-0.721825	-0.000035
C65	C	0.720640	-0.735990	-0.000049
C66	C	0.721352	-0.676591	-0.000050
C67	C	0.669783	-0.639810	-0.000036
C68	C	0.727179	-0.189526	-0.000092
C69	C	0.727886	-0.130124	-0.000105
C70	C	0.624039	-0.115965	-0.000086
C71	C	0.623332	-0.175361	-0.000078
C72	C	0.674907	-0.212141	-0.000078
O73	O	0.578083	-0.263312	-0.000084
O74	O	0.770214	-0.289562	-0.000068
C75	C	0.776489	0.069258	-0.000084
C76	C	0.839708	0.070014	-0.000086
C77	C	0.667592	0.178171	-0.000050
C78	C	0.668358	0.241388	-0.000037
N79	N	0.672332	0.074010	-0.218776
C80	C	0.672339	0.074017	-0.407276
C81	C	0.719402	0.026974	-0.446494
C82	C	0.719571	0.027097	-0.553581
C83	C	0.672345	0.074023	-0.592867
C84	C	0.684741	0.133447	-0.553963
C85	C	0.685075	0.133167	-0.446842
C86	C	0.612735	0.062174	-0.446762
C87	C	0.613147	0.060825	-0.553891
C88	C	0.672347	0.074031	-0.697755
C89	C	0.672337	0.074014	-0.302388
N90	N	0.672351	0.074031	0.218633
H91	H	-0.154774	0.070092	0.151912
C92	C	0.785398	-0.105250	-0.000118
C93	C	0.800173	-0.066348	0.079676
C94	C	0.857682	-0.041475	0.079665
C95	C	0.900417	-0.055505	-0.000141
C96	C	0.885643	-0.094408	-0.079942
C97	C	0.828134	-0.119281	-0.079930
H98	H	0.768537	-0.055961	0.138758
H99	H	0.868619	-0.012676	0.138738
H100	H	0.942989	-0.037092	-0.000150
H101	H	0.917279	-0.104795	-0.139024
H102	H	0.817198	-0.148080	-0.139004
H103	H	0.575509	-0.632483	-0.000026
H104	H	0.526862	-0.352154	-0.000004
C105	C	0.565826	-0.200245	-0.000065
C106	C	0.523080	-0.186255	-0.079859
C107	C	0.465574	-0.211136	-0.079834
C108	C	0.450815	-0.250005	-0.000016
C109	C	0.493562	-0.263996	0.079784
C110	C	0.551068	-0.239116	0.079760
H111	H	0.534005	-0.157480	-0.138951
H112	H	0.433930	-0.200778	-0.138908
H113	H	0.408246	-0.268423	0.000003
H114	H	0.482637	-0.292772	0.138876
H115	H	0.582712	-0.249474	0.138833
H116	H	0.574220	-0.740232	-0.000038
C117	C	0.383209	0.076555	-0.175989
C118	C	0.384629	0.126114	-0.245083
C119	C	0.351970	0.125719	-0.337248
C120	C	0.317891	0.075764	-0.360319
C121	C	0.316470	0.026201	-0.291223
C122	C	0.349129	0.026596	-0.199058
H123	H	0.409858	0.163096	-0.228007
H124	H	0.353023	0.162409	-0.388397
H125	H	0.293715	0.075472	-0.428544
H126	H	0.291241	-0.010781	-0.308300
H127	H	0.348076	-0.010094	-0.147909
H128	H	0.769176	-0.219466	-0.000089
C129	C	0.834055	-0.385575	-0.000082
C130	C	0.848836	-0.346705	-0.079885
C131	C	0.906351	-0.321843	-0.079884
C132	C	0.949085	-0.335852	-0.000080
C133	C	0.934305	-0.374725	0.079729
C134	C	0.876790	-0.399587	0.079728
H135	H	0.817200	-0.336332	-0.138967
H136	H	0.917292	-0.293067	-0.138964
H137	H	0.991662	-0.317448	-0.000079
H138	H	0.965941	-0.385097	0.138810
H139	H	0.865849	-0.428363	0.138808
C140	C	0.109975	0.073276	0.259645
C141	C	0.124904	0.023915	0.328739
C142	C	0.092249	0.023522	0.420906
C143	C	0.044665	0.072490	0.443978
C144	C	0.029733	0.121855	0.374881
C145	C	0.062389	0.122248	0.282715
H146	H	0.160131	-0.012337	0.311662
H147	H	0.103302	-0.013021	0.472055
H148	H	0.020491	0.072199	0.512205
H149	H	-0.005493	0.158107	0.391959
H150	H	0.051335	0.158791	0.231566
H151	H	0.817825	-0.499782	-0.000071
H152	H	0.712240	-0.017349	-0.420731
C153	C	0.567320	-0.075497	-0.000075
C154	C	0.553545	-0.032702	0.079733
C155	C	0.496826	0.007768	0.079752
C156	C	0.453882	0.005444	-0.000036
C157	C	0.467655	-0.037353	-0.079850
C158	C	0.524374	-0.077823	-0.079869
H159	H	0.585337	-0.030980	0.138802
H160	H	0.486631	0.039449	0.138836
H161	H	0.411895	0.035402	-0.000022
H162	H	0.435864	-0.039075	-0.138920
H163	H	0.534570	-0.109504	-0.138953
C164	C	0.510627	-0.466361	0.000007
C165	C	0.467880	-0.452350	-0.079780
C166	C	0.410362	-0.477207	-0.079755
C167	C	0.395591	-0.516075	0.000057
C168	C	0.438338	-0.530088	0.079850
C169	C	0.495856	-0.505232	0.079825
H170	H	0.478814	-0.423575	-0.138868
H171	H	0.378718	-0.466833	-0.138824
H172	H	0.353012	-0.534475	0.000076
H173	H	0.427404	-0.558863	0.138938
H174	H	0.527500	-0.515606	0.138894
C175	C	0.565426	0.108515	-0.412492
C176	C	0.554336	0.116652	-0.308176
C177	C	0.507032	0.162994	-0.273901
C178	C	0.470818	0.201199	-0.343941
C179	C	0.481907	0.193062	-0.448264
C180	C	0.529211	0.146720	-0.482540
H181	H	0.581145	0.088370	-0.256322
H182	H	0.498824	0.169017	-0.196673
H183	H	0.435801	0.235503	-0.318569
H184	H	0.455099	0.221344	-0.500119
H185	H	0.537420	0.140698	-0.559767
C186	C	0.709717	-0.032581	-0.589127
C187	C	0.701638	-0.080684	-0.520040
C188	C	0.691788	-0.140365	-0.555580
C189	C	0.690017	-0.151944	-0.660207
C190	C	0.698096	-0.103839	-0.729300
C191	C	0.707946	-0.044158	-0.693760
H192	H	0.702950	-0.072114	-0.442584
H193	H	0.685808	-0.175976	-0.504432
H194	H	0.682725	-0.196124	-0.686516
H195	H	0.696784	-0.112409	-0.806757
H196	H	0.713926	-0.008548	-0.744908
H197	H	0.499443	0.077967	-0.152044
C198	C	0.383200	0.076568	0.175884
C199	C	0.398127	0.027209	0.244983
C200	C	0.365465	0.026816	0.337143
C201	C	0.317876	0.075782	0.360204
C202	C	0.302947	0.125145	0.291103
C203	C	0.335609	0.125538	0.198943
H204	H	0.433357	-0.009041	0.227913
H205	H	0.376517	-0.009725	0.388296
H206	H	0.293698	0.075491	0.428427
H207	H	0.267717	0.161396	0.308173
H208	H	0.324557	0.162080	0.147791
C209	C	-0.038510	0.071491	-0.176000
C210	C	-0.053426	0.120864	-0.245077
C211	C	-0.020747	0.121278	-0.337219
C212	C	0.026847	0.072318	-0.360284
C213	C	0.041765	0.022941	-0.291205
C214	C	0.009087	0.022528	-0.199063
H215	H	-0.088660	0.157110	-0.228005
H216	H	-0.031791	0.157830	-0.388356
H217	H	0.051038	0.072624	-0.428493
H218	H	0.076999	-0.013305	-0.308277
H219	H	0.020130	-0.014024	-0.147926
C220	C	0.777364	-0.776456	-0.000046
C221	C	0.820298	-0.774155	-0.079852
C222	C	0.877019	-0.814622	-0.079850
C223	C	0.890806	-0.857391	-0.000041
C224	C	0.847872	-0.859694	0.079772
C225	C	0.791151	-0.819227	0.079769
H226	H	0.810093	-0.742493	-0.138937
H227	H	0.908802	-0.812917	-0.138932
H228	H	0.932795	-0.887347	-0.000038
H229	H	0.858077	-0.891356	0.138856
H230	H	0.759367	-0.820932	0.138851
H231	H	0.651351	0.169293	-0.579407
H232	H	0.763923	-0.658183	-0.000062
H233	H	0.226205	0.074675	0.235710
C234	C	0.640443	0.181828	-0.411782
C235	C	0.631617	0.191475	-0.307250
C236	C	0.586965	0.240115	-0.272196
C237	C	0.551137	0.279109	-0.341673
C238	C	0.559961	0.269463	-0.446212
C239	C	0.604614	0.220822	-0.481266
H240	H	0.658140	0.162608	-0.255813
H241	H	0.580433	0.247256	-0.194809
H242	H	0.518082	0.315115	-0.315724
H243	H	0.533438	0.298329	-0.497649
H244	H	0.611146	0.213682	-0.558653
H245	H	0.763395	0.034414	-0.419560
C246	C	0.596446	0.004892	-0.410298
C247	C	0.586611	-0.043181	-0.478466
C248	C	0.570329	-0.100465	-0.442001
C249	C	0.563882	-0.109676	-0.337368
C250	C	0.573717	-0.061602	-0.269194
C251	C	0.589999	-0.004318	-0.305659
H252	H	0.591384	-0.036364	-0.555927
H253	H	0.563049	-0.136053	-0.492469
H254	H	0.551829	-0.152082	-0.310375
H255	H	0.568944	-0.068419	-0.191733
H256	H	0.597279	0.031270	-0.255191
C257	C	0.779341	0.037308	-0.588197
C258	C	0.832240	-0.004905	-0.562054
C259	C	0.892015	0.005307	-0.596663
C260	C	0.898891	0.057731	-0.657414
C261	C	0.845990	0.099948	-0.683560
C262	C	0.786216	0.089736	-0.648951
H263	H	0.827152	-0.043715	-0.517080
H264	H	0.931175	-0.025945	-0.577308
H265	H	0.943140	0.065290	-0.683034
H266	H	0.851079	0.138758	-0.728534
H267	H	0.747055	0.120988	-0.668306
C268	C	0.743774	0.147287	-0.413076
C269	C	0.790019	0.158739	-0.483582
C270	C	0.848719	0.172859	-0.449821
C271	C	0.861174	0.175526	-0.345555
C272	C	0.814928	0.164074	-0.275042
C273	C	0.756228	0.149954	-0.308803
H274	H	0.780800	0.156765	-0.560772
H275	H	0.882954	0.181337	-0.502020
H276	H	0.904628	0.185978	-0.320563
H277	H	0.824147	0.166048	-0.197852
H278	H	0.721993	0.141477	-0.256604
H279	H	0.226206	0.074636	-0.235835
C280	C	0.742768	0.147924	-0.590191
C281	C	0.745520	0.202389	-0.648137
C282	C	0.803548	0.216863	-0.684363
C283	C	0.858824	0.176871	-0.662641
C284	C	0.856073	0.122403	-0.604691
C285	C	0.798045	0.107929	-0.568466
H286	H	0.704600	0.231996	-0.664220
H287	H	0.805584	0.257184	-0.727261
H288	H	0.901780	0.187585	-0.689457
H289	H	0.896993	0.092796	-0.588609
H290	H	0.796009	0.067608	-0.525568
H291	H	-0.047024	0.071380	0.151926
H292	H	0.118457	0.073339	-0.235833
H293	H	0.603726	0.017111	-0.579319
H294	H	0.576528	0.092879	-0.580629
H295	H	0.499454	0.077973	0.151943
H296	H	-0.154775	0.070074	-0.152071
