data_functionalizedCrystal
_audit_creation_method	'MofGen! by Chris Wilmer'
_symmetry_space_group_name_H-M	'P1'
_symmetry_Int_Tables_number	1
_symmetry_cell_setting	triclinic
loop_
_symmetry_equiv_pos_as_xyz
  x,y,z
_cell_length_a	17.038278
_cell_length_b	16.098524
_cell_length_c	8.559649
_cell_angle_alpha	86.632618
_cell_angle_beta	99.555417
_cell_angle_gamma	92.876348
loop_
_atom_site_label
_atom_site_type_symbol
_atom_site_fract_x
_atom_site_fract_y
_atom_site_fract_z
O1	O	1.019463	0.069256	-0.350898
O2	O	0.792159	0.069257	-0.345437
O3	O	0.925837	0.069256	-0.118287
O4	O	0.885785	0.069257	-0.578047
O5	O	0.920395	-0.069258	-0.104785
O6	O	0.786718	-0.069257	-0.331935
O7	O	1.014021	-0.069257	-0.337396
Zn8	Zn	0.899505	-0.091249	-0.332522
Zn9	Zn	0.906675	0.091248	-0.350311
O10	O	0.880344	-0.069256	-0.564546
C11	C	0.760608	-0.000000	-0.333716
C12	C	0.674703	0.000000	-0.318888
N13	N	0.894618	-0.215799	-0.320381
C14	C	0.189750	0.000003	-0.227793
C15	C	0.270465	-0.000002	-0.241737
C16	C	0.292905	0.000002	-0.391836
C17	C	0.234625	0.000003	-0.527997
C18	C	0.153912	0.000002	-0.514051
C19	C	0.535710	0.000000	-0.441104
C20	C	0.616431	0.000004	-0.455040
C21	C	0.652265	-0.000003	-0.168778
C22	C	0.571548	0.000001	-0.154846
C23	C	0.513275	-0.000003	-0.291007
C24	C	0.375408	0.000000	-0.406093
C25	C	0.430774	-0.000006	-0.276748
C26	C	0.934166	-0.259380	-0.418712
C27	C	0.930758	-0.346569	-0.410210
C28	C	0.887798	-0.390176	-0.303383
C29	C	0.848249	-0.346588	-0.205041
C30	C	0.851662	-0.259401	-0.213537
C31	C	0.875433	-0.653427	-0.272594
C32	C	0.872021	-0.740621	-0.264109
C33	C	0.954532	-0.740596	-0.469276
C34	C	0.957937	-0.653406	-0.477769
C35	C	0.918392	-0.609826	-0.379421
C36	C	0.884311	-0.479297	-0.294693
C37	C	0.921884	-0.520707	-0.388104
C38	C	1.045572	0.000001	-0.349117
C39	C	1.131477	0.000006	-0.363945
C40	C	0.926151	0.000000	-0.052419
C41	C	0.935186	0.000005	0.123733
N42	N	0.911569	0.215798	-0.362440
C43	C	0.880029	0.000001	-0.630414
C44	C	0.870995	0.000002	-0.806566
H45	H	0.171487	0.000005	-0.105568
Br46	Br	1.038313	-0.000010	0.248886
H47	H	0.699718	-0.000001	-0.057924
H48	H	0.809126	-0.000001	0.118346
Br49	Br	0.400317	-0.000019	-0.073049
H50	H	0.849332	-0.514811	-0.207715
Br51	Br	0.992469	-0.200208	-0.563703
Br52	Br	0.646884	0.000011	-0.658759
Br53	Br	0.541101	0.000031	0.048863
H54	H	0.317908	-0.000008	-0.130867
H55	H	0.252902	0.000002	-0.650211
Br56	Br	0.456636	0.000005	-0.625897
H57	H	0.106465	0.000002	-0.624921
H58	H	0.393688	0.000006	-0.528304
H59	H	0.992923	-0.617908	-0.564754
Br60	Br	0.984433	-0.405712	-0.543665
Br61	Br	0.813713	-0.799801	-0.119122
Br62	Br	0.821728	-0.594294	-0.139182
Br63	Br	1.008198	-0.799744	-0.602741
Br64	Br	0.789948	-0.405767	-0.060054
H65	H	0.819457	-0.223918	-0.133465
H66	H	0.956865	-0.485198	-0.475076
