data_functionalizedCrystal
_audit_creation_method	'MofGen! by Chris Wilmer'
_symmetry_space_group_name_H-M	'P1'
_symmetry_Int_Tables_number	1
_symmetry_cell_setting	triclinic
loop_
_symmetry_equiv_pos_as_xyz
  x,y,z
_cell_length_a	19.805407
_cell_length_b	21.295417
_cell_length_c	19.805399
_cell_angle_alpha	90.029796
_cell_angle_beta	90.017803
_cell_angle_gamma	90.027018
loop_
_atom_site_label
_atom_site_type_symbol
_atom_site_fract_x
_atom_site_fract_y
_atom_site_fract_z
Zn1	Zn	1.034720	-0.250669	0.382677
Zn2	Zn	1.034628	-0.355938	0.269485
Zn3	Zn	0.921535	-0.250681	0.269505
Zn4	Zn	0.921492	-0.355899	0.382635
O5	O	0.978094	-0.303297	0.326075
O6	O	1.129425	-0.264644	0.367671
O7	O	1.019606	-0.341996	0.174771
O8	O	0.936605	-0.162590	0.284544
O9	O	1.129357	-0.341984	0.284509
O10	O	1.019762	-0.162581	0.367691
O11	O	0.936517	-0.264665	0.174786
O12	O	0.826813	-0.264628	0.284503
O13	O	0.936532	-0.341919	0.477357
O14	O	0.826781	-0.341931	0.367619
O15	O	1.019721	-0.264607	0.477388
O16	O	1.019564	-0.444022	0.284468
O17	O	0.936443	-0.443994	0.367599
C18	C	0.802238	-0.303277	0.326059
C19	C	0.727006	-0.303284	0.326068
C20	C	0.691697	-0.263084	0.369436
C21	C	0.621009	-0.263087	0.369439
C22	C	0.585630	-0.303294	0.326076
C23	C	0.620944	-0.343496	0.282703
C24	C	0.691631	-0.343489	0.282698
C25	C	0.335870	-0.343524	0.282724
C26	C	0.265178	-0.343529	0.282734
C27	C	0.265248	-0.263122	0.369465
C28	C	0.335936	-0.263115	0.369460
C29	C	0.371243	-0.303314	0.326084
C30	C	0.447891	-0.303310	0.326081
C31	C	0.508983	-0.303303	0.326082
C32	C	0.978008	-0.466848	0.326041
C33	C	0.978033	-0.536816	0.326049
C34	C	1.021308	-0.569621	0.369375
C35	C	1.021331	-0.635364	0.369391
C36	C	0.978087	-0.668299	0.326071
C37	C	0.934804	-0.635486	0.282742
C38	C	0.934777	-0.569745	0.282731
N39	N	0.972976	-0.771560	0.266835
N40	N	0.973006	-0.834011	0.266847
C41	C	0.978167	-0.866374	0.326101
N42	N	0.983309	-0.833925	0.385344
N43	N	0.983283	-0.771468	0.385331
C44	C	0.978112	-0.739584	0.326078
C45	C	1.021470	-0.970464	0.369448
C46	C	1.021489	-1.036208	0.369466
C47	C	0.934965	-1.036329	0.282811
C48	C	0.934942	-0.970587	0.282799
C49	C	0.978198	-0.937658	0.326117
C50	C	1.154637	-0.303317	0.326092
C51	C	1.229868	-0.303326	0.326100
C52	C	0.978132	-0.303257	0.502618
C53	C	0.978148	-0.303240	0.577850
C54	C	0.978199	-0.139106	0.326125
C55	C	0.978244	-0.069138	0.326146
C56	C	0.978095	-0.303291	0.150220
C57	C	0.978210	-0.303130	0.074988
C58	C	1.021465	-0.262982	0.613212
C59	C	1.021472	-0.262963	0.683900
C60	C	0.978165	-0.303207	0.719226
C61	C	0.934843	-0.343468	0.683860
C62	C	0.934833	-0.343482	0.613172
C63	C	0.934881	-0.343409	0.968933
C64	C	0.934896	-0.343393	1.039625
C65	C	1.021520	-0.262890	1.039661
C66	C	1.021510	-0.262905	0.968974
C67	C	0.978186	-0.303162	0.933613
C68	C	0.978178	-0.303181	0.856965
C69	C	0.978176	-0.303192	0.795873
H70	H	0.236493	-0.230388	0.404781
H71	H	0.236375	-0.376272	0.247420
C72	C	0.887217	-0.387672	0.930028
C73	C	0.916482	-0.437101	0.881399
C74	C	0.868810	-0.481355	0.842484
C75	C	0.791872	-0.476180	0.852197
C76	C	0.762603	-0.426750	0.900828
C77	C	0.810275	-0.382495	0.939744
H78	H	0.973440	-0.440933	0.874207
H79	H	0.890477	-0.517947	0.806484
H80	H	0.756582	-0.508940	0.823389
H81	H	0.705645	-0.422917	0.908021
H82	H	0.788608	-0.345903	0.975744
C83	C	0.730612	-0.218854	0.417136
C84	C	0.779217	-0.246187	0.470220
C85	C	0.818129	-0.201954	0.517918
C86	C	0.808436	-0.130387	0.512532
C87	C	0.759829	-0.103050	0.459445
C88	C	0.720917	-0.147283	0.411747
H89	H	0.786394	-0.299169	0.474209
H90	H	0.854112	-0.222191	0.557216
H91	H	0.837242	-0.097643	0.547841
H92	H	0.752652	-0.050068	0.455456
H93	H	0.684934	-0.127046	0.372449
H94	H	0.720378	-0.376223	0.247382
C95	C	0.582170	-0.218868	0.417147
C96	C	0.621084	-0.174646	0.464850
C97	C	0.582245	-0.130424	0.512560
C98	C	0.504491	-0.130425	0.512566
C99	C	0.465573	-0.174649	0.464862
C100	C	0.504412	-0.218871	0.417152
H101	H	0.678645	-0.174644	0.464847
H102	H	0.611055	-0.097687	0.547874
H103	H	0.475740	-0.097689	0.547884
H104	H	0.408012	-0.174651	0.464865
H105	H	0.475602	-0.251608	0.381838
C106	C	1.069097	-1.072294	0.417127
C107	C	1.122268	-1.117467	0.387848
C108	C	1.169879	-1.153553	0.435508
C109	C	1.164320	-1.144466	0.512447
C110	C	1.111146	-1.099291	0.541730
C111	C	1.063535	-1.063205	0.494070
H112	H	1.126386	-1.124196	0.330889
H113	H	1.209242	-1.186995	0.413830
H114	H	1.199564	-1.171179	0.547728
H115	H	1.107029	-1.092562	0.598689
H116	H	1.024173	-1.029763	0.515747
C117	C	0.887250	-0.387660	1.078485
C118	C	0.887267	-0.387644	1.156238
C119	C	0.839625	-0.431909	1.195099
C120	C	0.791967	-0.476190	1.156206
C121	C	0.791949	-0.476207	1.078449
C122	C	0.839591	-0.431942	1.039588
H123	H	0.922547	-0.354864	1.185033
H124	H	0.839639	-0.431896	1.252660
H125	H	0.756700	-0.508957	1.184973
H126	H	0.756669	-0.508987	1.049654
H127	H	0.839577	-0.431955	0.982027
H128	H	0.899579	-0.376233	0.712627
H129	H	0.899751	-1.063144	0.247542
C130	C	1.068941	-0.671459	0.417048
C131	C	1.116520	-0.635240	0.464694
C132	C	1.164130	-0.671333	0.512349
C133	C	1.164161	-0.743646	0.512358
C134	C	1.116580	-0.779869	0.464709
C135	C	1.068970	-0.743776	0.417055
H136	H	1.116499	-0.581706	0.464690
H137	H	1.199353	-0.644517	0.547622
H138	H	1.199405	-0.770364	0.547635
H139	H	1.116601	-0.833403	0.464714
H140	H	1.033747	-0.770592	0.381782
C141	C	0.887187	-0.387769	0.574269
C142	C	0.810246	-0.382622	0.583975
C143	C	0.762597	-0.426908	0.545071
C144	C	0.791889	-0.476339	0.496462
C145	C	0.868834	-0.481488	0.486754
C146	C	0.916483	-0.437202	0.525657
H147	H	0.788559	-0.346028	0.619961
H148	H	0.705637	-0.423097	0.552258
H149	H	0.756617	-0.509122	0.467663
H150	H	0.890521	-0.518082	0.450768
H151	H	0.973443	-0.441014	0.518471
H152	H	0.364737	-0.230377	0.404773
H153	H	0.364609	-0.376257	0.247406
H154	H	1.056527	-0.542813	0.404648
H155	H	0.899536	-0.543035	0.247450
C156	C	0.582029	-0.387725	0.235004
C157	C	0.504276	-0.387739	0.235011
C158	C	0.465364	-0.431972	0.187312
C159	C	0.504204	-0.476191	0.139607
C160	C	0.581962	-0.476179	0.139598
C161	C	0.620874	-0.431946	0.187297
H162	H	0.475520	-0.355004	0.270327
H163	H	0.407802	-0.431981	0.187319
H164	H	0.475399	-0.508935	0.104298
H165	H	0.610718	-0.508915	0.104282
H166	H	0.678436	-0.431938	0.187290
H167	H	0.899707	-0.943875	0.247516
C168	C	0.887236	-0.671712	0.235087
C169	C	0.887267	-0.744025	0.235093
C170	C	0.839694	-0.780249	0.187440
C171	C	0.792090	-0.744161	0.139780
C172	C	0.792057	-0.671844	0.139772
C173	C	0.839630	-0.635620	0.187425
H174	H	0.922508	-0.770743	0.270376
H175	H	0.839718	-0.833783	0.187446
H176	H	0.756874	-0.770977	0.104503
H177	H	0.756816	-0.645126	0.104489
H178	H	0.839606	-0.582086	0.187419
C179	C	1.069123	-0.218682	0.722801
C180	C	1.039835	-0.169244	0.771406
C181	C	1.087488	-0.124961	0.810308
C182	C	1.164429	-0.130116	0.800606
C183	C	1.193721	-0.179556	0.751999
C184	C	1.146068	-0.223839	0.713097
H185	H	0.982876	-0.165426	0.778590
H186	H	1.065804	-0.088363	0.846290
H187	H	1.199704	-0.097335	0.829403
H188	H	1.250681	-0.183374	0.744815
H189	H	1.167753	-0.260438	0.677115
C190	C	1.069173	-0.218599	1.078559
C191	C	1.069186	-0.218575	1.156312
C192	C	1.116839	-0.174287	1.195207
C193	C	1.164478	-0.130023	1.156349
C194	C	1.164467	-0.130046	1.078592
C195	C	1.116814	-0.174334	1.039697
H196	H	1.033919	-0.251343	1.185080
H197	H	1.116847	-0.174270	1.252769
H198	H	1.199754	-0.097238	1.185142
H199	H	1.199734	-0.097278	1.049823
H200	H	1.116806	-0.174350	0.982135
H201	H	1.056733	-0.230212	0.584455
C202	C	1.069044	-0.934235	0.417099
C203	C	1.145996	-0.943219	0.411648
C204	C	1.193571	-0.906992	0.459298
C205	C	1.164193	-0.861780	0.512398
C206	C	1.087237	-0.852794	0.517851
C207	C	1.039663	-0.889021	0.470201
H208	H	1.167746	-0.976690	0.372338
H209	H	1.250539	-0.913644	0.455261
H210	H	1.199411	-0.834962	0.547671
H211	H	1.065487	-0.819323	0.557161
H212	H	0.982695	-0.882369	0.474238
H213	H	1.056778	-0.230136	0.940215
