data_functionalizedCrystal
_audit_creation_method	'MofGen! by Chris Wilmer'
_symmetry_space_group_name_H-M	'P1'
_symmetry_Int_Tables_number	1
_symmetry_cell_setting	triclinic
loop_
_symmetry_equiv_pos_as_xyz
  x,y,z
_cell_length_a	10.489716
_cell_length_b	9.565339
_cell_length_c	10.654551
_cell_angle_alpha	90.002000
_cell_angle_beta	95.492718
_cell_angle_gamma	90.003220
loop_
_atom_site_label
_atom_site_type_symbol
_atom_site_fract_x
_atom_site_fract_y
_atom_site_fract_z
O1	O	1.693986	0.116243	-0.177036
O2	O	1.322779	0.116248	-0.193701
O3	O	1.516916	0.116242	-0.002633
O4	O	1.499849	0.116248	-0.368104
O5	O	1.516901	-0.116278	-0.002645
O6	O	1.322763	-0.116273	-0.193713
O7	O	1.693971	-0.116277	-0.177048
Zn8	Zn	1.508365	-0.153193	-0.185382
Zn9	Zn	1.508385	0.153163	-0.185367
O10	O	1.499833	-0.116272	-0.368116
C11	C	1.275239	-0.000012	-0.192455
C12	C	1.133610	-0.000010	-0.188709
N13	N	1.508360	-0.362272	-0.185392
C14	C	1.035880	-0.000005	-0.305877
C15	C	0.958556	-0.114657	-0.243969
C16	C	0.958578	0.114590	-0.243929
C17	C	1.058152	-0.114757	-0.126849
C18	C	1.058179	0.114593	-0.126827
C19	C	0.980904	-0.000087	-0.064832
C20	C	1.418550	-0.453472	-0.273725
C21	C	1.534036	-0.546652	-0.299127
C22	C	1.392924	-0.546647	-0.160000
C23	C	1.623905	-0.453400	-0.210852
C24	C	1.482716	-0.453387	-0.071674
C25	C	1.598285	-0.546525	-0.097029
C26	C	1.741510	-0.000015	-0.178294
C27	C	1.883139	-0.000008	-0.182040
C28	C	1.515655	-0.000016	0.044160
C29	C	1.511905	-0.000009	0.183604
N30	N	1.508400	0.362242	-0.185347
C31	C	1.501094	-0.000011	-0.414909
C32	C	1.504845	-0.000008	-0.554353
C33	C	1.510153	0.126739	0.249115
C34	C	1.506618	0.126740	0.380137
C35	C	1.506593	-0.126766	0.380126
C36	C	1.510118	-0.126766	0.249106
C37	C	1.427211	0.279020	0.550247
C38	C	1.425482	0.405775	0.615766
C39	C	1.501251	0.517681	0.582202
C40	C	1.578782	0.502837	0.483126
C41	C	1.580523	0.376080	0.417616
C42	C	1.504724	0.264179	0.451174
C43	C	1.589536	-0.279037	0.078994
C44	C	1.591287	-0.405795	0.013483
C45	C	1.515525	-0.517713	0.047045
C46	C	1.438013	-0.502883	0.146127
C47	C	1.436263	-0.376125	0.211639
C48	C	1.512022	-0.264206	0.178067
H49	H	1.060501	-0.000110	-0.407797
H50	H	0.956523	-0.000155	0.037162
Cl51	Cl	1.499091	0.677019	0.664584
Cl52	Cl	0.891417	0.264221	-0.320320
H53	H	1.505141	-0.229967	0.433473
H54	H	1.342671	-0.412615	-0.348495
Cl55	Cl	1.242180	-0.609889	-0.126868
H56	H	1.362347	0.417851	0.696432
Cl57	Cl	1.774689	-0.390437	-0.244155
Cl58	Cl	1.342773	-0.643586	0.188332
Cl59	Cl	0.891372	-0.264302	-0.320339
Cl60	Cl	1.125404	0.264248	-0.050526
H61	H	1.511604	0.229952	0.195788
Cl62	Cl	1.674056	0.643522	0.440953
H63	H	1.101485	-0.211781	-0.077421
H64	H	1.373140	-0.364055	0.292314
H65	H	1.555753	-0.587618	-0.395277
Cl66	Cl	1.449132	-0.390081	0.076727
Cl67	Cl	1.331927	0.138348	0.592432
H68	H	1.674335	-0.587125	-0.022305
Cl69	Cl	1.677980	0.357412	0.293072
H70	H	1.516967	-0.620930	-0.006298
Cl71	Cl	1.688747	-0.424444	-0.111068
Cl72	Cl	1.684811	-0.138347	0.036814
