data_functionalizedCrystal
_audit_creation_method	'MofGen! by Chris Wilmer'
_symmetry_space_group_name_H-M	'P1'
_symmetry_Int_Tables_number	1
_symmetry_cell_setting	triclinic
loop_
_symmetry_equiv_pos_as_xyz
  x,y,z
_cell_length_a	14.853566
_cell_length_b	13.330367
_cell_length_c	9.065218
_cell_angle_alpha	89.993138
_cell_angle_beta	84.325150
_cell_angle_gamma	90.004068
loop_
_atom_site_label
_atom_site_type_symbol
_atom_site_fract_x
_atom_site_fract_y
_atom_site_fract_z
O1	O	1.197795	0.083353	0.192586
O2	O	0.935505	0.083369	0.215533
O3	O	1.072072	0.083359	-0.010691
O4	O	1.061229	0.083363	0.418809
O5	O	1.072051	-0.083488	-0.010655
O6	O	0.935484	-0.083478	0.215569
O7	O	1.197774	-0.083494	0.192622
Cu8	Cu	1.066627	-0.098721	0.204099
Cu9	Cu	1.066652	0.098596	0.204056
O10	O	1.061208	-0.083484	0.418845
C11	C	0.901899	-0.000052	0.214511
C12	C	0.801792	-0.000046	0.211397
C13	C	0.378521	0.090884	0.198202
C14	C	0.378519	-0.091019	0.198243
C15	C	0.472575	-0.091016	0.201168
C16	C	0.519608	-0.000061	0.202612
C17	C	0.472585	0.090890	0.201132
C18	C	0.519604	-0.181965	0.202663
C19	C	0.613665	-0.181966	0.205590
C20	C	0.660701	-0.091010	0.207024
C21	C	0.613672	-0.000055	0.205542
C22	C	0.660705	0.090899	0.206987
C23	C	0.613679	0.181856	0.205494
C24	C	0.519620	0.181846	0.202566
C25	C	0.754759	-0.091001	0.209952
C26	C	0.754769	0.090905	0.209916
N27	N	1.066617	-0.237502	0.204128
C28	C	1.122071	-0.710117	0.293672
C29	C	1.011260	-0.710101	0.114380
C30	C	1.011247	-0.605083	0.114403
C31	C	1.066648	-0.552577	0.204060
C32	C	1.122062	-0.605089	0.293695
C33	C	0.955841	-0.552563	0.024759
C34	C	0.955827	-0.447538	0.024777
C35	C	1.011224	-0.395030	0.114443
C36	C	1.066639	-0.447548	0.204083
C37	C	1.122040	-0.395042	0.293740
C38	C	1.177451	-0.447559	0.383388
C39	C	1.177458	-0.552581	0.383361
C40	C	1.011216	-0.290008	0.114471
C41	C	1.122030	-0.290014	0.293762
C42	C	1.231381	-0.000070	0.193643
C43	C	1.331488	-0.000070	0.196758
C44	C	1.071019	-0.000063	-0.065639
C45	C	1.067903	-0.000058	-0.229420
N46	N	1.066670	0.237377	0.204015
C47	C	1.062260	-0.000060	0.473793
C48	C	1.065376	-0.000058	0.637574
H49	H	0.651984	0.255911	0.206680
Br50	Br	0.936081	-0.781359	-0.007298
H51	H	0.481323	0.255898	0.201349
Br52	Br	0.314708	0.214319	0.196124
Br53	Br	0.314688	-0.214451	0.196305
Br54	Br	1.197213	-0.218764	0.415461
H55	H	1.167182	-0.752881	0.366666
Br56	Br	0.677478	-0.305403	0.207616
Br57	Br	0.880613	-0.376274	-0.096859
H58	H	0.793042	-0.165056	0.211182
H59	H	0.910745	-0.595321	-0.048248
Br60	Br	0.455769	-0.305396	0.200728
H61	H	1.222562	-0.404795	0.456381
H62	H	0.966104	-0.247254	0.041476
Br63	Br	0.818593	0.214351	0.211859
Br64	Br	1.252648	-0.623859	0.505021
