data_functionalizedCrystal
_audit_creation_method	'MofGen! by Chris Wilmer'
_symmetry_space_group_name_H-M	'P1'
_symmetry_Int_Tables_number	1
_symmetry_cell_setting	triclinic
loop_
_symmetry_equiv_pos_as_xyz
  x,y,z
_cell_length_a	17.077404
_cell_length_b	21.395361
_cell_length_c	17.077396
_cell_angle_alpha	89.966749
_cell_angle_beta	89.980499
_cell_angle_gamma	90.030933
loop_
_atom_site_label
_atom_site_type_symbol
_atom_site_fract_x
_atom_site_fract_y
_atom_site_fract_z
Zn1	Zn	1.200012	-0.249435	-0.443817
Zn2	Zn	1.700012	0.250565	0.056183
Zn3	Zn	1.199901	-0.354216	-0.312540
Zn4	Zn	1.699901	0.145784	0.187460
Zn5	Zn	1.068744	-0.249457	-0.312565
Zn6	Zn	1.568744	0.250543	0.187435
Zn7	Zn	1.068694	-0.354179	-0.443763
Zn8	Zn	1.568694	0.145821	0.056237
O9	O	1.134338	-0.301822	-0.378171
O10	O	1.634338	0.198178	0.121829
O11	O	1.309844	-0.263341	-0.426414
O12	O	1.809844	0.236659	0.073586
O13	O	1.182477	-0.340344	-0.202696
O14	O	1.682477	0.159656	0.297304
O15	O	1.086224	-0.161776	-0.330008
O16	O	1.586224	0.338224	0.169992
O17	O	1.309763	-0.340323	-0.329966
O18	O	1.809763	0.159677	0.170034
O19	O	1.182666	-0.161760	-0.426439
O20	O	1.682666	0.338240	0.073561
O21	O	1.086117	-0.263378	-0.202714
O22	O	1.586117	0.236622	0.297286
O23	O	0.958890	-0.263342	-0.329957
O24	O	1.458890	0.236658	0.170043
O25	O	1.086139	-0.340260	-0.553617
O26	O	1.586139	0.159740	-0.053617
O27	O	0.958854	-0.340281	-0.426348
O28	O	1.458854	0.159719	0.073652
O29	O	1.182618	-0.263305	-0.553657
O30	O	1.682618	0.236695	-0.053657
O31	O	1.182429	-0.441889	-0.329914
O32	O	1.682429	0.058111	0.170086
O33	O	1.086031	-0.441862	-0.426324
O34	O	1.586031	0.058138	0.073676
C35	C	0.930390	-0.301810	-0.378149
C36	C	1.430390	0.198190	0.121851
C37	C	0.843140	-0.301821	-0.378159
C38	C	1.343140	0.198179	0.121841
C39	C	1.134234	-0.464609	-0.378127
C40	C	1.634234	0.035391	0.121873
C41	C	1.134262	-0.534251	-0.378135
C42	C	1.634262	-0.034251	0.121865
C43	C	0.802151	-0.341943	-0.428269
C44	C	1.302151	0.158057	0.071731
C45	C	0.720171	-0.341944	-0.428282
C46	C	1.220171	0.158056	0.071718
C47	C	0.679181	-0.301826	-0.378179
C48	C	1.179181	0.198174	0.121821
C49	C	0.720175	-0.261699	-0.328067
C50	C	1.220175	0.238301	0.171933
C51	C	0.802154	-0.261695	-0.328059
C52	C	1.302154	0.238305	0.171941
C53	C	0.549305	-0.261711	-0.328086
C54	C	1.049305	0.238289	0.171914
C55	C	0.467320	-0.261716	-0.328092
C56	C	0.967320	0.238284	0.171908
C57	C	0.467322	-0.341961	-0.428309
C58	C	0.967322	0.158039	0.071691
C59	C	0.549301	-0.341957	-0.428301
C60	C	1.049301	0.158043	0.071699
C61	C	0.590290	-0.301830	-0.378187
C62	C	1.090290	0.198170	0.121813
C63	C	1.184500	-0.566957	-0.327986
C64	C	1.684500	-0.066957	0.172014
C65	C	1.184537	-0.632392	-0.328004
C66	C	1.684537	-0.132392	0.171996
C67	C	1.134321	-0.665119	-0.378162
C68	C	1.634321	-0.165119	0.121838
C69	C	1.084078	-0.632404	-0.428321
C70	C	1.584078	-0.132404	0.071679
C71	C	1.084049	-0.566970	-0.428307
C72	C	1.584049	-0.066970	0.071693
C73	C	1.063641	-0.768833	-0.384313
C74	C	1.563641	-0.268833	0.115687
C75	C	1.063669	-0.834266	-0.384321
C76	C	1.563669	-0.334266	0.115679
C77	C	1.134412	-0.866940	-0.378208
C78	C	1.634412	-0.366940	0.121792
C79	C	1.205129	-0.834172	-0.372070
C80	C	1.705129	-0.334172	0.127930
C81	C	1.205099	-0.768738	-0.372057
C82	C	1.705099	-0.268738	0.127943
C83	C	1.134347	-0.736071	-0.378182
C84	C	1.634347	-0.236071	0.121818
C85	C	1.184694	-0.970599	-0.328075
C86	C	1.684694	-0.470599	0.171925
C87	C	1.184732	-1.036035	-0.328098
C88	C	1.684732	-0.536035	0.171902
C89	C	1.084267	-1.036046	-0.428411
C90	C	1.584267	-0.536046	0.071589
C91	C	1.084236	-0.970611	-0.428392
C92	C	1.584236	-0.470611	0.071608
C93	C	1.134449	-0.937891	-0.378220
C94	C	1.634449	-0.437891	0.121780
C95	C	1.339082	-0.301833	-0.378193
C96	C	1.839082	0.198167	0.121807
C97	C	1.426332	-0.301839	-0.378203
C98	C	1.926332	0.198161	0.121797
C99	C	1.134385	-0.301775	-0.582915
C100	C	1.634385	0.198225	-0.082915
C101	C	1.134405	-0.301756	-0.670165
C102	C	1.634405	0.198244	-0.170165
C103	C	1.134463	-0.138398	-0.378232
C104	C	1.634463	0.361602	0.121768
C105	C	1.134517	-0.068757	-0.378258
C106	C	1.634517	0.431243	0.121742
C107	C	1.184644	-0.261682	-0.711177
C108	C	1.684644	0.238318	-0.211177
C109	C	1.184653	-0.261661	-0.793158
C110	C	1.684653	0.238339	-0.293158
C111	C	1.134428	-0.301718	-0.834125
C112	C	1.634428	0.198282	-0.334125
C113	C	1.084184	-0.341793	-0.793107
C114	C	1.584184	0.158207	-0.293107
C115	C	1.084171	-0.341811	-0.711128
C116	C	1.584171	0.158189	-0.211128
C117	C	1.084215	-0.341756	-0.963977
C118	C	1.584215	0.158244	-0.463977
C119	C	1.084229	-0.341739	-1.045962
C120	C	1.584229	0.158261	-0.545962
C121	C	1.184698	-0.261606	-1.046007
C122	C	1.684698	0.238394	-0.546007
C123	C	1.184685	-0.261623	-0.964028
C124	C	1.684685	0.238377	-0.464028
C125	C	1.134442	-0.301700	-0.923016
C126	C	1.634442	0.198300	-0.423016
C127	C	1.134336	-0.301822	-0.174223
C128	C	1.634336	0.198178	0.325777
C129	C	1.134467	-0.301666	-0.086974
C130	C	1.634467	0.198334	0.413026
H131	H	0.835520	-0.374614	-0.469066
H132	H	1.335520	0.125386	0.030934
H133	H	1.043329	-0.374356	-1.079315
H134	H	1.543329	0.125644	-0.579315
H135	H	1.043290	-0.374380	-0.930588
H136	H	1.543290	0.125620	-0.430588
O137	O	1.035433	-0.380791	-0.832815
O138	O	1.535433	0.119209	-0.332815
C139	C	0.997283	-0.487363	-0.857885
C140	C	1.497283	0.012637	-0.357885
C141	C	1.052528	-0.443266	-0.812856
C142	C	1.552528	0.056734	-0.312856
H143	H	1.011095	-0.537884	-0.841777
H144	H	1.511095	-0.037884	-0.341777
H145	H	0.933979	-0.476411	-0.841746
H146	H	1.433979	0.023589	-0.341746
H147	H	1.005910	-0.480436	-0.923518
H148	H	1.505910	0.019564	-0.423518
H149	H	1.043970	-0.450168	-0.747212
H150	H	1.543970	0.049832	-0.247212
H151	H	1.115811	-0.454229	-0.829059
H152	H	1.615811	0.045771	-0.329059
H153	H	1.043138	-0.540340	-0.469145
H154	H	1.543138	-0.040340	0.030855
H155	H	1.043383	-1.062691	-0.469255
H156	H	1.543383	-0.562691	0.030745
O157	O	1.035484	-0.380771	-0.671196
O158	O	1.535484	0.119229	-0.171196
C159	C	1.024856	-0.465401	-0.578631
C160	C	1.524856	0.034599	-0.078631
C161	C	1.080084	-0.421310	-0.623793
C162	C	1.580084	0.078690	-0.123793
H163	H	1.060894	-0.498197	-0.540308
H164	H	1.560894	0.001803	-0.040308
H165	H	0.983842	-0.436674	-0.540201
H166	H	1.483842	0.063326	-0.040201
H167	H	0.988941	-0.494003	-0.622001
H168	H	1.488941	0.005997	-0.122001
H169	H	1.116050	-0.392699	-0.580480
H170	H	1.616050	0.107301	-0.080480
H171	H	1.121046	-0.450074	-0.662235
H172	H	1.621046	0.049926	-0.162235
H173	H	1.043324	-0.943979	-0.469225
H174	H	1.543324	-0.443979	0.030775
H175	H	0.686801	-0.374617	-0.469086
H176	H	1.186801	0.125383	0.030914
O177	O	1.233340	-0.222661	-0.833026
O178	O	1.733340	0.277339	-0.333026
C179	C	1.243974	-0.138060	-0.925631
C180	C	1.743974	0.361940	-0.425631
C181	C	1.188748	-0.182185	-0.880521
C182	C	1.688748	0.317815	-0.380521
H183	H	1.207944	-0.105333	-0.964054
H184	H	1.707944	0.394667	-0.464054
H185	H	1.279852	-0.109391	-0.882298
H186	H	1.779852	0.390609	-0.382298
H187	H	1.285023	-0.166824	-0.963980
H188	H	1.785023	0.333176	-0.463980
H189	H	1.147652	-0.153470	-0.842171
H190	H	1.647652	0.346530	-0.342171
H191	H	1.152925	-0.210856	-0.923896
H192	H	1.652925	0.289144	-0.423896
O193	O	1.273922	-0.865805	-0.366093
O194	O	1.773922	-0.365805	0.133907
C195	C	1.414231	-0.858802	-0.353989
C196	C	1.914231	-0.358802	0.146011
C197	C	1.336383	-0.822896	-0.360738
C198	C	1.836383	-0.322896	0.139262
H199	H	1.464752	-0.824126	-0.349675
H200	H	1.964752	-0.324126	0.150325
H201	H	1.413115	-0.889455	-0.299373
H202	H	1.913115	-0.389455	0.200627
H203	H	1.422458	-0.889412	-0.407984
H204	H	1.922458	-0.389412	0.092016
H205	H	1.328106	-0.792252	-0.306784
H206	H	1.828106	-0.292252	0.193216
H207	H	1.337534	-0.792282	-0.415387
H208	H	1.837534	-0.292282	0.084613
H209	H	1.006087	-0.860941	-0.389311
H210	H	1.506087	-0.360941	0.110689
O211	O	1.233545	-0.938907	-0.279319
O212	O	1.733545	-0.438907	0.220681
C213	C	1.333156	-0.945801	-0.179788
C214	C	1.833156	-0.445801	0.320212
C215	C	1.277888	-0.981767	-0.234978
C216	C	1.777888	-0.481767	0.265022
H217	H	1.369010	-0.980437	-0.143912
H218	H	1.869010	-0.480437	0.356088
H219	H	1.374218	-0.915128	-0.215816
H220	H	1.874218	-0.415128	0.284184
H221	H	1.297110	-0.915204	-0.138736
H222	H	1.797110	-0.415204	0.361264
H223	H	1.313872	-1.012398	-0.276041
H224	H	1.813872	-0.512398	0.223959
H225	H	1.236824	-1.012400	-0.198901
H226	H	1.736824	-0.512400	0.301099
H227	H	1.225647	-1.062664	-0.287263
H228	H	1.725647	-0.562664	0.212737
H229	H	0.582673	-0.374628	-0.469094
H230	H	1.082673	0.125372	0.030906
O231	O	0.427542	-0.381028	-0.476906
O232	O	0.927542	0.118972	0.023094
C233	C	0.402444	-0.487647	-0.514782
C234	C	0.902444	0.012353	-0.014782
C235	C	0.447534	-0.443473	-0.459693
C236	C	0.947534	0.056527	0.040307
H237	H	0.418603	-0.538142	-0.500896
H238	H	0.918603	-0.038142	-0.000896
H239	H	0.336802	-0.480811	-0.506180
H240	H	0.836802	0.019189	-0.006180
H241	H	0.418588	-0.476681	-0.578098
H242	H	0.918588	0.023319	-0.078098
H243	H	0.431456	-0.454412	-0.396356
H244	H	0.931456	0.045588	0.103644
H245	H	0.513165	-0.450317	-0.468363
H246	H	1.013165	0.049683	0.031637
O247	O	1.233459	-0.222711	-0.671506
O248	O	1.733459	0.277289	-0.171506
C249	C	1.333140	-0.143252	-0.680213
C250	C	1.833140	0.356748	-0.180213
C251	C	1.277885	-0.187347	-0.725234
C252	C	1.777885	0.312653	-0.225234
H253	H	1.369085	-0.114657	-0.723632
H254	H	1.869085	0.385343	-0.223632
H255	H	1.297158	-0.110454	-0.641860
H256	H	1.797158	0.389546	-0.141860
H257	H	1.374125	-0.172037	-0.641807
H258	H	1.874125	0.327963	-0.141807
H259	H	1.236889	-0.158612	-0.763682
H260	H	1.736889	0.341388	-0.263682
H261	H	1.313916	-0.220146	-0.763537
H262	H	1.813916	0.279854	-0.263537
H263	H	0.582676	-0.229031	-0.287285
H264	H	1.082676	0.270969	0.212715
H265	H	1.225587	-0.229009	-0.930675
H266	H	1.725587	0.270991	-0.430675
H267	H	1.262678	-0.742060	-0.367061
H268	H	1.762678	-0.242060	0.132939
H269	H	0.433948	-0.229041	-0.287304
H270	H	0.933948	0.270959	0.212696
H271	H	0.686794	-0.229031	-0.287276
H272	H	1.186794	0.270969	0.212724
H273	H	0.835526	-0.229020	-0.287258
H274	H	1.335526	0.270980	0.212742
H275	H	1.006029	-0.742237	-0.389295
H276	H	1.506029	-0.242237	0.110705
H277	H	1.043194	-0.659054	-0.469161
H278	H	1.543194	-0.159054	0.030839
O279	O	1.233421	-0.222687	-1.085963
O280	O	1.733421	0.277313	-0.585963
C281	C	1.277984	-0.187155	-1.212276
C282	C	1.777984	0.312845	-0.712276
C283	C	1.222757	-0.231251	-1.167120
C284	C	1.722757	0.268749	-0.667120
H285	H	1.269393	-0.194073	-1.277900
H286	H	1.769393	0.305927	-0.777900
H287	H	1.264228	-0.136625	-1.196225
H288	H	1.764228	0.363375	-0.696225
H289	H	1.341263	-0.198154	-1.196125
H290	H	1.841263	0.301846	-0.696125
H291	H	1.159459	-0.220309	-1.183247
H292	H	1.659459	0.279691	-0.683247
H293	H	1.236580	-0.281768	-1.183175
H294	H	1.736580	0.218232	-0.683175
O295	O	1.233357	-0.535271	-0.279233
O296	O	1.733357	-0.035271	0.220767
C297	C	1.332976	-0.542169	-0.179710
C298	C	1.832976	-0.042169	0.320290
C299	C	1.277696	-0.578133	-0.234892
C300	C	1.777696	-0.078133	0.265108
H301	H	1.368826	-0.576807	-0.143834
H302	H	1.868826	-0.076807	0.356166
H303	H	1.374040	-0.511504	-0.215746
H304	H	1.874040	-0.011504	0.284254
H305	H	1.296938	-0.511565	-0.138659
H306	H	1.796938	-0.011565	0.361341
H307	H	1.313670	-0.608771	-0.275954
H308	H	1.813670	-0.108771	0.224046
H309	H	1.236630	-0.608759	-0.198807
H310	H	1.736630	-0.108759	0.301193
H311	H	1.225450	-0.659027	-0.287166
H312	H	1.725450	-0.159027	0.212834
