data_functionalizedCrystal
_audit_creation_method	'MofGen! by Chris Wilmer'
_symmetry_space_group_name_H-M	'P1'
_symmetry_Int_Tables_number	1
_symmetry_cell_setting	triclinic
loop_
_symmetry_equiv_pos_as_xyz
  x,y,z
_cell_length_a	10.685661
_cell_length_b	12.827892
_cell_length_c	10.686551
_cell_angle_alpha	94.405267
_cell_angle_beta	99.072622
_cell_angle_gamma	85.636845
loop_
_atom_site_label
_atom_site_type_symbol
_atom_site_fract_x
_atom_site_fract_y
_atom_site_fract_z
Zn1	Zn	1.995715	-0.487769	0.866181
Zn2	Zn	2.495715	0.012231	1.366181
Zn3	Zn	1.979291	-0.674997	0.653924
Zn4	Zn	2.479291	-0.174997	1.153924
Zn5	Zn	1.767150	-0.487817	0.637706
Zn6	Zn	2.267150	0.012183	1.137706
Zn7	Zn	1.783422	-0.650011	0.849885
Zn8	Zn	2.283422	-0.150011	1.349885
O9	O	1.881394	-0.575148	0.751924
O10	O	2.381394	-0.075148	1.251924
O11	O	2.171163	-0.523042	0.851631
O12	O	2.671163	-0.023042	1.351631
O13	O	1.937467	-0.660643	0.474144
O14	O	2.437467	-0.160643	0.974144
O15	O	1.797533	-0.341577	0.668046
O16	O	2.297533	0.158423	1.168046
O17	O	2.159097	-0.660597	0.695687
O18	O	2.659097	-0.160597	1.195687
O19	O	1.965458	-0.341542	0.835905
O20	O	2.465458	0.158458	1.335905
O21	O	1.781607	-0.523123	0.462229
O22	O	2.281607	-0.023123	0.962229
O23	O	1.591681	-0.498896	0.652245
O24	O	2.091681	0.001104	1.152245
O25	O	1.825266	-0.618013	1.029675
O26	O	2.325266	-0.118013	1.529675
O27	O	1.603636	-0.618059	0.808133
O28	O	2.103636	-0.118059	1.308133
O29	O	1.981237	-0.498815	1.041647
O30	O	2.481237	0.001185	1.541647
O31	O	1.953245	-0.817916	0.679886
O32	O	2.453245	-0.317916	1.179886
O33	O	1.809341	-0.799560	0.823858
O34	O	2.309341	-0.299560	1.323858
C35	C	1.551602	-0.555772	0.726661
C36	C	2.051602	-0.055772	1.226661
C37	C	1.410517	-0.547506	0.715884
C38	C	1.910517	-0.047506	1.215884
C39	C	1.881313	-0.846655	0.751894
C40	C	2.381313	-0.346655	1.251894
C41	C	1.881398	-0.962811	0.751933
C42	C	2.381398	-0.462811	1.251933
C43	C	1.964464	-1.014489	0.835062
C44	C	2.464464	-0.514489	1.335062
C45	C	1.964553	-1.134542	0.835104
C46	C	2.464553	-0.634542	1.335104
C47	C	2.212475	-0.594601	0.777286
C48	C	2.712475	-0.094601	1.277286
C49	C	2.353561	-0.602891	0.788093
C50	C	2.853561	-0.102891	1.288093
C51	C	1.906899	-0.555621	1.083006
C52	C	2.406899	-0.055621	1.583006
C53	C	1.917767	-0.547300	1.224094
C54	C	2.417767	-0.047300	1.724094
C55	C	1.881512	-0.302582	0.751984
C56	C	2.381512	0.197418	1.251984
C57	C	1.881563	-0.186430	0.752010
C58	C	2.381563	0.313570	1.252010
C59	C	1.856062	-0.594528	0.422135
C60	C	2.356062	-0.094528	0.922135
C61	C	1.845440	-0.602570	0.281067
C62	C	2.345440	-0.102570	0.781067
H63	H	1.351339	-0.493759	0.645816
H64	H	1.851339	0.006241	1.145816
H65	H	1.775206	-0.656257	1.221908
H66	H	2.275206	-0.156257	1.721908
O67	O	2.001390	-0.483122	1.294708
O68	O	2.501390	0.016878	1.794708
C69	C	1.934994	-0.406928	1.365896
C70	C	2.434994	0.093072	1.865896
H71	H	1.831974	-0.396937	1.318214
H72	H	2.331974	0.103063	1.818214
H73	H	1.981057	-0.329107	1.371057
H74	H	2.481057	0.170893	1.871057
H75	H	1.938261	-0.433125	1.465977
H76	H	2.438261	0.066875	1.965977
O77	O	1.424287	-0.666862	0.871763
O78	O	1.924287	-0.166862	1.371763
C79	C	1.507293	-0.607063	0.959683
C80	C	2.007293	-0.107063	1.459683
H81	H	1.523589	-0.531585	0.916569
H82	H	2.023589	-0.031585	1.416569
H83	H	1.601868	-0.654051	0.983652
H84	H	2.101868	-0.154051	1.483652
H85	H	1.463545	-0.587201	1.049921
H86	H	1.963545	-0.087201	1.549921
O87	O	2.049180	-0.961093	0.919812
O88	O	2.549180	-0.461093	1.419812
C89	C	2.030216	-0.853111	0.900917
C90	C	2.530216	-0.353111	1.400917
H91	H	1.981146	-0.841714	0.799723
H92	H	2.481146	-0.341714	1.299723
H93	H	2.125876	-0.816551	0.916823
H94	H	2.625876	-0.316551	1.416823
H95	H	1.968295	-0.813750	0.970925
H96	H	2.468295	-0.313750	1.470925
H97	H	2.035673	-1.178985	0.906269
H98	H	2.535673	-0.678985	1.406269
H99	H	1.810447	-1.141997	0.680831
H100	H	2.310447	-0.641997	1.180831
O101	O	1.796458	-1.015984	0.667181
O102	O	2.296458	-0.515984	1.167181
C103	C	1.672004	-0.980392	0.685064
C104	C	2.172004	-0.480392	1.185064
H105	H	1.673266	-0.943928	0.785920
H106	H	2.173266	-0.443928	1.285920
H107	H	1.608592	-1.049235	0.669386
H108	H	2.108592	-0.549235	1.169386
H109	H	1.633515	-0.919234	0.614348
H110	H	2.133515	-0.419234	1.114348
