data_functionalizedCrystal
_audit_creation_method	'MofGen! by Chris Wilmer'
_symmetry_space_group_name_H-M	'P1'
_symmetry_Int_Tables_number	1
_symmetry_cell_setting	triclinic
loop_
_symmetry_equiv_pos_as_xyz
  x,y,z
_cell_length_a	10.654545
_cell_length_b	13.262508
_cell_length_c	12.377033
_cell_angle_alpha	85.806358
_cell_angle_beta	78.604612
_cell_angle_gamma	84.458219
loop_
_atom_site_label
_atom_site_type_symbol
_atom_site_fract_x
_atom_site_fract_y
_atom_site_fract_z
O1	O	1.655420	0.157089	0.045689
O2	O	1.290901	0.170280	0.041638
O3	O	1.471117	0.020311	0.087738
O4	O	1.475204	0.307058	-0.000411
O5	O	1.516123	-0.017124	-0.088751
O6	O	1.335907	0.132846	-0.134851
O7	O	1.700426	0.119655	-0.130800
Zn8	Zn	1.525312	0.120307	-0.160847
Zn9	Zn	1.466015	0.169628	0.071685
O10	O	1.520210	0.269624	-0.176900
C11	C	1.266535	0.150596	-0.046308
C12	C	1.126880	0.147701	-0.045417
C13	C	1.085809	0.125933	-0.141202
C14	C	0.954590	0.123196	-0.140361
C15	C	0.905523	0.164003	0.052058
C16	C	1.036740	0.166732	0.051218
C17	C	1.489710	-0.035123	0.010783
C18	C	1.478045	-0.144525	0.044422
C19	C	1.543288	-0.534552	-0.245584
C20	C	1.554239	-0.431762	-0.277191
C21	C	1.535192	-0.359948	-0.196790
C22	C	1.505191	-0.390934	-0.084778
C23	C	1.494230	-0.493733	-0.053168
C24	C	1.486133	-0.319129	-0.004375
C25	C	1.456133	-0.350115	0.107638
C26	C	1.445174	-0.452905	0.139242
C27	C	1.464221	-0.524719	0.058842
C28	C	1.497095	-0.216330	-0.035984
C29	C	1.448036	-0.175511	0.156431
C30	C	1.437086	-0.278301	0.188038
C31	C	1.724791	0.139340	-0.042851
C32	C	1.864444	0.142236	-0.043736
C33	C	1.501616	0.325058	-0.099942
C34	C	1.513280	0.434462	-0.133574
N35	N	1.565789	0.086645	-0.319543
C36	C	1.331552	0.281447	-0.734494
C37	C	1.303198	0.305015	-0.623409
C38	C	1.368844	0.250425	-0.547437
C39	C	1.462847	0.172262	-0.582561
C40	C	1.491197	0.148687	-0.693655
C41	C	1.528489	0.117665	-0.506598
C42	C	1.622492	0.039503	-0.541722
C43	C	1.650838	0.015932	-0.652806
C44	C	1.585192	0.070522	-0.728778
C45	C	1.500139	0.141240	-0.395504
C46	C	1.659784	0.008480	-0.354665
C47	C	1.688138	-0.015087	-0.465750
N48	N	1.425547	0.203282	0.230383
H49	H	1.521510	-0.191111	-0.127186
H50	H	1.420735	-0.478128	0.230449
H51	H	1.278105	0.325882	-0.796354
N52	N	1.546988	-0.249080	-0.230875
H53	H	1.568881	-0.240346	-0.314033
H54	H	1.617156	-0.223824	-0.198360
H55	H	1.345754	0.269617	-0.456988
N56	N	0.910292	0.099713	-0.243671
H57	H	0.987363	0.087377	-0.304796
H58	H	0.852561	0.158956	-0.266691
N59	N	1.789515	-0.099394	-0.503641
H60	H	1.826806	-0.130404	-0.438664
H61	H	1.859984	-0.071037	-0.561450
H62	H	1.159199	0.110437	-0.219889
H63	H	1.578678	-0.406542	-0.368391
H64	H	0.832116	0.179498	0.130735
H65	H	1.070178	0.184457	0.129224
H66	H	1.455313	-0.608421	0.084570
H67	H	1.558784	-0.593029	-0.311034
H68	H	1.226660	0.368652	-0.594815
N69	N	1.615790	0.045110	-0.848597
H70	H	1.559947	0.091561	-0.891391
H71	H	1.598746	-0.027667	-0.854649
N72	N	1.404731	-0.311726	0.308848
H73	H	1.400681	-0.387742	0.316666
H74	H	1.318758	-0.277392	0.343051
N75	N	1.427442	-0.098062	0.243158
H76	H	1.438928	-0.028241	0.206138
H77	H	1.491970	-0.114554	0.293006
N78	N	1.398754	0.225538	-0.357635
H79	H	1.424024	0.291475	-0.398506
H80	H	1.390790	0.232104	-0.275727
N81	N	1.752246	-0.068354	-0.690698
H82	H	1.789545	-0.099351	-0.625721
H83	H	1.822702	-0.039971	-0.748501
H84	H	1.713236	-0.035974	-0.292808
