data_functionalizedCrystal
_audit_creation_method	'MofGen! by Chris Wilmer'
_symmetry_space_group_name_H-M	'P1'
_symmetry_Int_Tables_number	1
_symmetry_cell_setting	triclinic
loop_
_symmetry_equiv_pos_as_xyz
  x,y,z
_cell_length_a	12.837932
_cell_length_b	19.188924
_cell_length_c	11.295483
_cell_angle_alpha	94.078966
_cell_angle_beta	85.460332
_cell_angle_gamma	88.985834
loop_
_atom_site_label
_atom_site_type_symbol
_atom_site_fract_x
_atom_site_fract_y
_atom_site_fract_z
O1	O	1.381628	0.177221	-0.099039
O2	O	1.079864	0.168257	-0.099040
O3	O	1.239457	0.071681	-0.099025
O4	O	1.222035	0.273797	-0.099053
O5	O	1.225440	0.080149	0.099024
O6	O	1.065846	0.176724	0.099009
O7	O	1.367611	0.185689	0.099011
Cu8	Cu	1.215449	0.181980	0.117094
Cu9	Cu	1.232026	0.171966	-0.117123
O10	O	1.208018	0.282265	0.098996
C11	C	1.034248	0.169462	-0.000015
C12	C	0.919212	0.160431	-0.000015
C13	C	1.231885	0.049865	0.000000
C14	C	1.230195	-0.027755	0.000004
C15	C	0.769714	0.084946	-0.000002
C16	C	0.877801	0.093427	-0.000004
C17	C	0.852527	0.218958	-0.000021
C18	C	0.744440	0.210477	-0.000019
C19	C	0.703037	0.143468	-0.000012
C20	C	0.594948	0.134987	-0.000019
C21	C	0.569676	0.260518	-0.000027
C22	C	0.677763	0.268999	-0.000029
C23	C	1.237047	-0.068824	-0.107953
C24	C	1.235444	-0.141757	-0.107962
C25	C	1.227011	-0.173619	-0.000008
C26	C	1.220152	-0.132540	0.107963
C27	C	1.221744	-0.059608	0.107969
N28	N	1.277796	-0.285973	0.080340
N29	N	1.276287	-0.355255	0.080327
C30	C	1.222211	-0.393357	-0.000020
N31	N	1.169717	-0.359561	-0.080371
N32	N	1.171232	-0.290272	-0.080361
C33	C	1.225283	-0.252700	-0.000003
C34	C	1.227325	-0.513509	-0.107994
C35	C	1.225716	-0.586443	-0.107999
C36	C	1.210434	-0.577225	0.107930
C37	C	1.212033	-0.504292	0.107931
C38	C	1.220483	-0.472439	-0.000034
C39	C	1.413227	0.184483	-0.000017
C40	C	1.528263	0.193514	-0.000025
C41	C	1.215590	0.304080	-0.000032
C42	C	1.217281	0.381701	-0.000043
N43	N	1.203797	0.189024	0.281829
N44	N	1.243686	0.164917	-0.281858
C45	C	1.327563	0.114174	0.531130
C46	C	1.318765	0.119503	0.655793
C47	C	1.177398	0.205005	0.655820
C48	C	1.186196	0.199676	0.531157
C49	C	1.261282	0.154261	0.468816
C50	C	1.270085	0.148936	0.344151
C51	C	1.128713	0.234434	0.344180
C52	C	1.119915	0.239762	0.468843
H53	H	0.561241	0.080426	-0.000017
H54	H	1.241018	-0.175202	-0.195877
H55	H	1.116258	0.241976	0.706594
C56	C	1.055813	0.278539	0.275633
H57	H	1.071805	0.268863	0.192460
H58	H	1.065424	0.326746	0.296068
H59	H	0.985236	0.267210	0.296071
C60	C	1.037298	0.289695	0.537419
H61	H	0.999071	0.312797	0.482449
H62	H	1.070979	0.323328	0.586059
H63	H	0.990850	0.263756	0.586040
C64	C	1.210878	-0.167585	0.226709
H65	H	1.210921	-0.216903	0.211245
H66	H	1.147580	-0.152435	0.271069
H67	H	1.268424	-0.155043	0.271068
C68	C	0.496330	0.324895	-0.000041
H69	H	0.426025	0.310250	-0.000034
H70	H	0.513744	0.349120	-0.069109
H71	H	0.503959	0.355028	0.069028
C72	C	0.724167	0.011242	-0.000003
H73	H	0.779359	-0.022398	0.000005
H74	H	0.687413	0.002375	-0.069065
H75	H	0.677642	0.008276	0.069072
C76	C	1.246339	-0.033786	-0.226707
H77	H	1.246315	0.015533	-0.211245
H78	H	1.188805	-0.046326	-0.271076
H79	H	1.309647	-0.048938	-0.271055
C80	C	0.723313	0.342702	-0.000043
H81	H	0.797236	0.339372	-0.000051
H82	H	0.695518	0.370058	0.069012
H83	H	0.705296	0.364142	-0.069125
C84	C	1.233249	-0.631619	-0.226758
H85	H	1.238518	-0.602200	-0.291052
H86	H	1.172525	-0.658954	-0.231254
H87	H	1.293368	-0.661569	-0.231242
H88	H	0.932086	0.045772	0.000004
C89	C	0.898082	0.292659	-0.000020
H90	H	0.972005	0.289325	-0.000022
H91	H	0.870287	0.320010	0.069041
H92	H	0.880073	0.314107	-0.069096
H93	H	1.216160	-0.026170	0.195883
H94	H	1.234200	-0.487573	-0.195906
C95	C	1.201148	-0.612264	0.226678
H96	H	1.201184	-0.661582	0.211214
H97	H	1.137851	-0.597109	0.271033
H98	H	1.258694	-0.599726	0.271041
H99	H	1.388708	0.077200	0.480371
H100	H	1.206461	-0.470853	0.195842
H101	H	1.331226	0.111959	0.293394
H102	H	1.372736	0.086860	0.706525
