data_functionalizedCrystal
_audit_creation_method	'MofGen! by Chris Wilmer'
_symmetry_space_group_name_H-M	'P1'
_symmetry_Int_Tables_number	1
_symmetry_cell_setting	triclinic
loop_
_symmetry_equiv_pos_as_xyz
  x,y,z
_cell_length_a	19.121215
_cell_length_b	19.121063
_cell_length_c	19.120915
_cell_angle_alpha	94.738654
_cell_angle_beta	89.875521
_cell_angle_gamma	95.002544
loop_
_atom_site_label
_atom_site_type_symbol
_atom_site_fract_x
_atom_site_fract_y
_atom_site_fract_z
Zn1	Zn	1.043541	-0.254502	-0.452591
Zn2	Zn	1.543541	0.245498	0.047409
Zn3	Zn	1.043458	-0.367158	-0.339939
Zn4	Zn	1.543458	0.132842	0.160061
Zn5	Zn	0.931330	-0.254088	-0.330340
Zn6	Zn	1.431330	0.245912	0.169660
Zn7	Zn	0.920819	-0.377138	-0.452526
Zn8	Zn	1.420819	0.122862	0.047474
O9	O	0.984787	-0.313222	-0.393849
O10	O	1.484787	0.186778	0.106151
O11	O	1.141815	-0.265443	-0.441692
O12	O	1.641815	0.234557	0.058308
O13	O	1.032948	-0.347810	-0.240385
O14	O	1.532948	0.152190	0.259615
O15	O	0.950649	-0.155500	-0.342567
O16	O	1.450649	0.344500	0.157433
O17	O	1.141754	-0.348211	-0.358927
O18	O	1.641754	0.151789	0.141073
O19	O	1.033090	-0.155804	-0.432384
O20	O	1.533090	0.344196	0.067616
O21	O	0.950569	-0.264738	-0.233332
O22	O	1.450569	0.235262	0.266668
O23	O	0.831651	-0.274414	-0.342504
O24	O	1.331651	0.225586	0.157496
O25	O	0.932734	-0.365219	-0.550816
O26	O	1.432734	0.134781	-0.050816
O27	O	0.823928	-0.364818	-0.432274
O28	O	1.323928	0.135182	0.067726
O29	O	1.022897	-0.275120	-0.550864
O30	O	1.522897	0.224880	-0.050864
O31	O	1.022756	-0.467126	-0.358864
O32	O	1.522756	0.032874	0.141136
O33	O	0.932654	-0.474457	-0.441582
O34	O	1.432654	0.025543	0.058418
C35	C	0.802305	-0.320655	-0.386341
C36	C	1.302305	0.179345	0.113659
C37	C	0.724237	-0.323852	-0.383146
C38	C	1.224237	0.176148	0.116854
C39	C	0.282696	-0.344096	-0.362934
C40	C	0.782696	0.155904	0.137066
C41	C	0.356050	-0.341087	-0.365931
C42	C	0.856050	0.158913	0.134069
C43	C	0.392754	-0.296567	-0.410597
C44	C	0.892754	0.203433	0.089403
C45	C	0.356101	-0.255048	-0.452263
C46	C	0.856101	0.244952	0.047737
C47	C	0.282749	-0.258053	-0.449263
C48	C	0.782749	0.241947	0.050737
C49	C	0.614232	-0.285338	-0.421812
C50	C	1.114232	0.214662	0.078188
C51	C	0.687589	-0.282337	-0.424811
C52	C	1.187589	0.217663	0.075189
C53	C	0.687533	-0.368376	-0.338477
C54	C	1.187533	0.131624	0.161523
C55	C	0.614179	-0.371381	-0.335484
C56	C	1.114179	0.128619	0.164516
C57	C	0.577533	-0.329859	-0.377148
C58	C	1.077533	0.170141	0.122852
C59	C	0.467733	-0.293493	-0.413662
C60	C	0.967733	0.206507	0.086338
C61	C	0.502555	-0.332930	-0.374078
C62	C	1.002555	0.167070	0.125922
C63	C	0.976573	-0.496369	-0.401274
C64	C	1.476573	0.003631	0.098726
C65	C	0.973123	-0.574718	-0.404476
C66	C	1.473123	-0.074718	0.095524
C67	C	1.018447	-0.607686	-0.362952
C68	C	1.518447	-0.107686	0.137048
C69	C	1.015205	-0.681304	-0.365968
C70	C	1.515205	-0.181304	0.134032
C71	C	0.966636	-0.721952	-0.410505
C72	C	1.466636	-0.221952	0.089495
C73	C	0.921311	-0.688979	-0.452033
C74	C	1.421311	-0.188979	0.047967
C75	C	0.924556	-0.615363	-0.449020
C76	C	1.424556	-0.115363	0.050980
C77	C	0.954492	-0.944419	-0.421758
C78	C	1.454492	-0.444419	0.078242
C79	C	0.951249	-1.018040	-0.424766
C80	C	1.451249	-0.518040	0.075234
C81	C	1.045145	-1.010360	-0.338702
C82	C	1.545145	-0.510360	0.161298
C83	C	1.048383	-0.936743	-0.335690
C84	C	1.548383	-0.436743	0.164310
C85	C	1.003060	-0.903776	-0.377221
C86	C	1.503060	-0.403776	0.122779
C87	C	0.963321	-0.797202	-0.413587
C88	C	1.463321	-0.297202	0.086413
C89	C	1.006380	-0.828528	-0.374142
C90	C	1.506380	-0.328528	0.125858
C91	C	1.167982	-0.305760	-0.401387
C92	C	1.667982	0.194240	0.098613
C93	C	1.246048	-0.302581	-0.404600
C94	C	1.746048	0.197419	0.095400
C95	C	0.976652	-0.321329	-0.577035
C96	C	1.476652	0.178671	-0.077035
C97	C	0.973186	-0.324784	-0.655099
C98	C	1.473186	0.175216	-0.155099
C99	C	0.993051	-0.129360	-0.386412
C100	C	1.493051	0.370640	0.113588
C101	C	0.996573	-0.051009	-0.383242
C102	C	1.496573	0.448991	0.116758
C103	C	0.951229	-0.346716	-1.096608
C104	C	1.451229	0.153284	-0.596608
C105	C	0.954484	-0.343459	-1.023259
C106	C	1.454484	0.156541	-0.523259
C107	C	1.003058	-0.294925	-0.986613
C108	C	1.503058	0.205075	-0.486613
C109	C	1.048375	-0.249639	-1.023320
C110	C	1.548375	0.250361	-0.523320
C111	C	1.045117	-0.252893	-1.096667
C112	C	1.545117	0.247107	-0.596667
C113	C	1.015244	-0.282752	-0.765152
C114	C	1.515244	0.217248	-0.265152
C115	C	1.018501	-0.279503	-0.691800
C116	C	1.518501	0.220497	-0.191800
C117	C	0.924608	-0.373322	-0.691745
C118	C	1.424608	0.126678	-0.191745
C119	C	0.921357	-0.376575	-0.765094
C120	C	1.421357	0.123425	-0.265094
C121	C	0.966671	-0.331286	-0.801793
C122	C	1.466671	0.168714	-0.301793
C123	C	1.006388	-0.291597	-0.911639
C124	C	1.506388	0.208403	-0.411639
C125	C	0.963337	-0.334612	-0.876766
C126	C	1.463337	0.165388	-0.376766
C127	C	0.992933	-0.305094	-0.211375
C128	C	1.492933	0.194906	0.288625
C129	C	0.996544	-0.301435	-0.133310
C130	C	1.496544	0.198565	0.366690
H131	H	0.717472	-0.246079	-0.461182
H132	H	1.217472	0.253921	0.038818
H133	H	0.252817	-0.380352	-0.326566
H134	H	0.752817	0.119648	0.173434
H135	H	1.087923	-0.210118	-0.993477
H136	H	1.587923	0.289882	-0.493477
O137	O	1.089209	-0.208878	-1.132215
O138	O	1.589209	0.291122	-0.632215
C139	C	1.132769	-0.165330	-1.084143
C140	C	1.632769	0.334670	-0.584143
H141	H	1.136227	-0.191786	-1.033124
H142	H	1.636227	0.308214	-0.533124
H143	H	1.187502	-0.156497	-1.107311
H144	H	1.687502	0.343503	-0.607311
H145	H	1.109802	-0.112495	-1.073121
H146	H	1.609802	0.387505	-0.573121
O147	O	1.059177	-0.713464	-0.325695
O148	O	1.559177	-0.213464	0.174305
C149	C	1.019445	-0.755781	-0.280394
C150	C	1.519445	-0.255781	0.219606
H151	H	0.964569	-0.770059	-0.303295
H152	H	1.464569	-0.270059	0.196705
H153	H	1.046203	-0.805971	-0.274450
H154	H	1.546203	-0.305971	0.225550
H155	H	1.015433	-0.725534	-0.226809
H156	H	1.515433	-0.225534	0.273191
H157	H	0.881803	-0.416097	-0.794926
H158	H	1.381803	0.083903	-0.294926
O159	O	0.503363	-0.250150	-0.456978
O160	O	1.003363	0.249850	0.043022
C161	C	0.489244	-0.179929	-0.438187
C162	C	0.989244	0.320071	0.061813
H163	H	0.471720	-0.174613	-0.381114
H164	H	0.971720	0.325387	0.118886
H165	H	0.538772	-0.143411	-0.444862
H166	H	1.038772	0.356589	0.055138
H167	H	0.445825	-0.164979	-0.473391
H168	H	0.945825	0.335021	0.026609
O169	O	0.880692	-0.417335	-0.656018
O170	O	1.380692	0.082665	-0.156018
C171	C	0.920518	-0.459366	-0.617088
C172	C	1.420518	0.040634	-0.117088
H173	H	0.975352	-0.431852	-0.607292
H174	H	1.475352	0.068148	-0.107292
H175	H	0.893779	-0.467686	-0.564711
H176	H	1.393779	0.032314	-0.064711
H177	H	0.924626	-0.512546	-0.647780
H178	H	1.424626	-0.012546	-0.147780
O179	O	0.916060	-0.381685	-0.912323
O180	O	1.416060	0.118315	-0.412323
C181	C	0.847545	-0.368352	-0.890889
C182	C	1.347545	0.131648	-0.390889
H183	H	0.847421	-0.311291	-0.868302
H184	H	1.347421	0.188709	-0.368302
H185	H	0.810435	-0.377974	-0.937946
H186	H	1.310435	0.122026	-0.437946
H187	H	0.829376	-0.405009	-0.849088
H188	H	1.329376	0.094991	-0.349088
H189	H	0.385992	-0.218795	-0.488628
H190	H	0.885992	0.281205	0.011372
H191	H	1.082045	-1.037210	-0.304891
H192	H	1.582045	-0.537210	0.195109
H193	H	0.584403	-0.251531	-0.455742
H194	H	1.084403	0.248469	0.044258
H195	H	0.881768	-0.722081	-0.488299
H196	H	1.381768	-0.222081	0.011701
O197	O	0.247253	-0.217704	-0.489809
O198	O	0.747253	0.282296	0.010191
C199	C	0.295377	-0.177752	-0.529864
C200	C	0.795377	0.322248	-0.029864
H201	H	0.346269	-0.204593	-0.535558
H202	H	0.846269	0.295407	-0.035558
H203	H	0.272070	-0.173639	-0.584044
H204	H	0.772070	0.326361	-0.084044
H205	H	0.306707	-0.122721	-0.502382
H206	H	0.806707	0.377279	-0.002382
H207	H	0.923774	-0.830306	-0.449847
H208	H	1.423774	-0.330306	0.050153
H209	H	1.045939	-0.252081	-0.881794
H210	H	1.545939	0.247919	-0.381794
H211	H	0.911678	-0.386240	-1.126441
H212	H	1.411678	0.113760	-0.626441
O213	O	0.904051	-1.057422	-0.468097
O214	O	1.404051	-0.557422	0.031903
C215	C	0.864732	-1.012540	-0.504097
C216	C	1.364732	-0.512540	-0.004097
H217	H	0.895702	-0.958973	-0.505587
H218	H	1.395702	-0.458973	-0.005587
H219	H	0.853810	-1.036552	-0.559986
H220	H	1.353810	-0.536552	-0.059986
H221	H	0.812893	-1.005802	-0.475830
H222	H	1.312893	-0.505802	0.024170
O223	O	0.466865	-0.376257	-0.330794
O224	O	0.966865	0.123743	0.169206
C225	C	0.420620	-0.425336	-0.370822
C226	C	0.920620	0.074664	0.129178
H227	H	0.440088	-0.431317	-0.427213
H228	H	0.940088	0.068683	0.072787
H229	H	0.418482	-0.478452	-0.347498
H230	H	0.918482	0.021548	0.152502
H231	H	0.365896	-0.405926	-0.370123
H232	H	0.865896	0.094074	0.129877
O233	O	0.880458	-0.583447	-0.489382
O234	O	1.380458	-0.083447	0.010618
C235	C	0.836907	-0.635108	-0.529352
C236	C	1.336907	-0.135108	-0.029352
H237	H	0.833455	-0.686423	-0.502630
H238	H	1.333455	-0.186423	-0.002630
H239	H	0.782170	-0.616465	-0.533661
H240	H	1.282170	-0.116465	-0.033661
H241	H	0.859877	-0.644211	-0.584085
H242	H	1.359877	-0.144211	-0.084085
O243	O	0.910437	-0.912317	-0.461990
O244	O	1.410437	-0.412317	0.038010
C245	C	0.868749	-0.869880	-0.418359
C246	C	1.368749	-0.369880	0.081641
H247	H	0.896415	-0.855488	-0.365726
H248	H	1.396415	-0.355488	0.134274
H249	H	0.860324	-0.819758	-0.444451
H250	H	1.360324	-0.319758	0.055549
H251	H	0.815797	-0.900077	-0.409619
H252	H	1.315797	-0.400077	0.090381
H253	H	1.045927	-0.795430	-0.337883
H254	H	1.545927	-0.295430	0.162117
H255	H	0.917591	-0.380339	-0.993381
H256	H	1.417591	0.119661	-0.493381
H257	H	1.058056	-0.239976	-0.661965
H258	H	1.558056	0.260024	-0.161965
H259	H	1.057993	-0.574595	-0.326683
H260	H	1.557993	-0.074595	0.173317
H261	H	1.087932	-0.903648	-0.299425
H262	H	1.587932	-0.403648	0.200575
H263	H	1.052146	-0.245878	-0.795025
H264	H	1.552146	0.254122	-0.295025
H265	H	0.717378	-0.402181	-0.304556
H266	H	1.217378	0.097819	0.195444
O267	O	0.391539	-0.381484	-0.325432
O268	O	0.891539	0.118516	0.174568
C269	C	0.343415	-0.421412	-0.285356
C270	C	0.843415	0.078588	0.214644
H271	H	0.289747	-0.427316	-0.312085
H272	H	0.789747	0.072684	0.187915
H273	H	0.362462	-0.475734	-0.280887
H274	H	0.862462	0.024266	0.219113
H275	H	0.339122	-0.393474	-0.230690
H276	H	0.839122	0.106526	0.269310
O277	O	0.578638	-0.414638	-0.292030
O278	O	1.078638	0.085362	0.207970
C279	C	0.626714	-0.450649	-0.255908
C280	C	1.126714	0.049351	0.244092
H281	H	0.680399	-0.419526	-0.254494
H282	H	1.180399	0.080474	0.245506
H283	H	0.607632	-0.456495	-0.199993
H284	H	1.107632	0.043505	0.300007
H285	H	0.630985	-0.505042	-0.284026
H286	H	1.130985	-0.005042	0.215974
