data_functionalizedCrystal
_audit_creation_method	'MofGen! by Chris Wilmer'
_symmetry_space_group_name_H-M	'P1'
_symmetry_Int_Tables_number	1
_symmetry_cell_setting	triclinic
loop_
_symmetry_equiv_pos_as_xyz
  x,y,z
_cell_length_a	15.698487
_cell_length_b	12.970454
_cell_length_c	15.698487
_cell_angle_alpha	59.999638
_cell_angle_beta	90.001001
_cell_angle_gamma	60.000777
loop_
_atom_site_label
_atom_site_type_symbol
_atom_site_fract_x
_atom_site_fract_y
_atom_site_fract_z
Zr1	Zr	0.820607	1.128548	-0.111806
O2	O	0.684588	1.343639	-0.247823
O3	O	0.862304	0.913457	-0.070109
O4	O	0.862298	1.128553	-0.247825
O5	O	0.684598	1.128539	0.070077
O6	O	1.002479	1.128557	-0.247827
O7	O	0.684594	1.128543	-0.070108
O8	O	1.002490	0.743790	0.070074
O9	O	0.684588	1.513306	-0.247824
O10	O	0.984703	1.001930	-0.052328
O11	O	0.880091	1.001924	0.052291
O12	O	0.880084	1.255172	-0.156946
O13	O	0.775472	1.255166	-0.052326
Zr14	Zr	1.044187	1.128548	0.111768
Zr15	Zr	1.044180	1.128555	-0.111810
Zr16	Zr	0.820614	1.128542	0.111772
Zr17	Zr	0.820607	1.399148	-0.111808
Zr18	Zr	1.044187	0.857948	0.111769
O19	O	1.002490	1.343639	0.070071
O20	O	1.002479	1.343648	-0.247828
O21	O	0.684598	1.343630	0.070076
O22	O	1.180206	0.913457	0.247785
O23	O	1.180196	0.913466	-0.070114
O24	O	0.862314	0.913448	0.247790
O25	O	1.180196	1.128557	-0.070115
O26	O	1.002496	1.128543	0.247787
O27	O	0.862314	1.128539	0.247789
O28	O	1.180200	1.128553	0.070069
O29	O	0.862298	1.513311	-0.247827
O30	O	1.002496	0.743785	0.247788
O31	O	1.180206	0.743790	0.247786
O32	O	1.180200	0.743795	0.070071
O33	O	0.684594	1.513301	-0.070109
O34	O	0.862304	1.513306	-0.070112
O35	O	0.984710	1.001924	0.156908
O36	O	1.089322	1.001930	0.052288
O37	O	0.984703	1.255172	-0.052330
O38	O	0.880091	1.255166	0.052290
C39	C	0.932397	0.790069	-0.000018
C40	C	0.932397	0.675192	-0.000017
C41	C	0.652742	1.128540	-0.000015
C42	C	0.557829	1.128537	-0.000013
C43	C	0.384044	1.128563	-0.000023
C44	C	0.480748	1.128554	-0.000020
C45	C	1.212052	1.128556	-0.000023
C46	C	1.306965	1.128559	-0.000025
C47	C	0.932388	1.128556	-0.279681
C48	C	0.932385	1.128559	-0.374596
C49	C	0.932397	1.467027	-0.000021
C50	C	0.932397	1.581904	-0.000021
C51	C	0.932408	1.128533	-0.548360
C52	C	0.932398	1.128542	-0.451663
C53	C	0.932406	1.128540	0.279643
C54	C	0.932409	1.128537	0.374558
C55	C	1.212052	0.790077	-0.000022
C56	C	1.306965	0.675203	-0.000023
C57	C	0.932406	0.790061	0.279644
C58	C	0.932409	0.675181	0.374560
C59	C	1.212061	0.790069	0.279640
C60	C	1.306977	0.675192	0.374554
C61	C	0.652732	1.467027	-0.279678
C62	C	0.557817	1.581904	-0.374592
C63	C	0.652742	1.467019	-0.000016
C64	C	0.557829	1.581893	-0.000015
C65	C	0.932388	1.467035	-0.279683
C66	C	0.932385	1.581915	-0.374598
C67	C	1.296926	0.621257	-0.054642
C68	C	1.386098	0.513335	-0.054663
C69	C	1.485307	0.459355	-0.000060
C70	C	1.495343	0.513312	0.054560
C71	C	1.406173	0.621238	0.054575
C72	C	0.987021	0.621233	0.473751
C73	C	0.987020	0.513306	0.562942
C74	C	0.932413	0.459323	0.552940
C75	C	0.877794	0.513282	0.453739
C76	C	0.877790	0.621214	0.364549
C77	C	1.406166	0.621248	0.364516
C78	C	1.495358	0.513324	0.453689
C79	C	1.485358	0.459339	0.552899
C80	C	1.386159	0.513294	0.562935
C81	C	1.296969	0.621223	0.473763
C82	C	0.458628	1.635861	-0.364554
C83	C	0.369436	1.743819	-0.453727
C84	C	0.379435	1.797810	-0.552937
C85	C	0.478635	1.743848	-0.562973
C86	C	0.567825	1.635900	-0.473801
C87	C	0.567867	1.635850	0.054594
C88	C	0.478696	1.743802	0.054591
C89	C	0.379487	1.797786	-0.000015
C90	C	0.369450	1.743824	-0.054631
C91	C	0.458621	1.635883	-0.054634
C92	C	0.987002	1.635864	-0.364562
C93	C	0.987020	1.743791	-0.453737
C94	C	0.932413	1.797775	-0.552946
C95	C	0.877794	1.743815	-0.562979
C96	C	0.877783	1.635882	-0.473806
H97	H	1.377906	0.469417	-0.099141
H98	H	0.833302	1.591969	-0.481991
H99	H	1.031489	0.665174	0.481915
O100	O	0.447789	1.577675	-0.113526
H101	H	0.363820	1.633345	-0.151483
H102	H	1.414328	0.665187	0.283742
O103	O	0.447832	1.577639	-0.257553
H104	H	0.404547	1.668244	-0.248479
H105	H	1.378032	0.469323	0.643723
O106	O	0.932413	1.914207	-0.649124
H107	H	0.979558	1.942657	-0.625468
O108	O	0.283306	1.914201	-0.000007
H109	H	0.236220	1.872764	0.034163
O110	O	0.674860	1.577661	0.113489
H111	H	0.718111	1.458597	0.173865
H112	H	1.216154	0.665207	-0.099119
O113	O	1.189986	0.679373	0.484594
H114	H	1.198027	0.623676	0.568564
H115	H	1.576122	0.469405	0.445499
H116	H	1.031500	0.469385	0.643708
O117	O	0.674804	1.577746	-0.484643
H118	H	0.735153	1.493632	-0.405975
O119	O	0.283225	1.914247	-0.649105
H120	H	0.283260	1.872848	-0.696212
O121	O	1.581482	0.342936	-0.000070
H122	H	1.557824	0.314490	-0.047217
H123	H	0.288672	1.787736	-0.445535
H124	H	1.031470	1.591927	-0.283789
O125	O	0.818894	1.802022	-0.669976
H126	H	0.758532	1.921088	-0.713217
O127	O	1.602348	0.455082	0.113458
H128	H	1.645578	0.336015	0.173811
H129	H	1.414360	0.665147	0.099058
O130	O	1.581560	0.342913	0.649076
H131	H	1.652209	0.314467	0.625418
O132	O	0.489538	1.801972	0.113514
H133	H	0.451513	1.781268	0.173866
H134	H	0.486765	1.787821	-0.643760
H135	H	0.288663	1.787795	-0.099091
H136	H	0.932425	0.371438	0.625572
O137	O	0.818932	0.455012	0.442956
H138	H	0.828138	0.370874	0.521645
H139	H	1.031496	1.787714	-0.445547
H140	H	0.833322	0.665125	0.283787
