data_functionalizedCrystal
_audit_creation_method	'MofGen! by Chris Wilmer'
_symmetry_space_group_name_H-M	'P1'
_symmetry_Int_Tables_number	1
_symmetry_cell_setting	triclinic
loop_
_symmetry_equiv_pos_as_xyz
  x,y,z
_cell_length_a	14.519709
_cell_length_b	18.366186
_cell_length_c	19.288865
_cell_angle_alpha	90.006786
_cell_angle_beta	96.591803
_cell_angle_gamma	89.999755
loop_
_atom_site_label
_atom_site_type_symbol
_atom_site_fract_x
_atom_site_fract_y
_atom_site_fract_z
O1	O	-1.223293	0.060455	0.091046
O2	O	-0.723293	0.560455	0.591046
O3	O	-0.954748	0.060480	0.101769
O4	O	-0.454748	0.560480	0.601769
O5	O	-1.096780	0.060452	-0.004695
O6	O	-0.596780	0.560452	0.495305
O7	O	-1.081261	0.060482	0.197510
O8	O	-0.581261	0.560482	0.697510
O9	O	-1.096762	-0.060647	-0.004691
O10	O	-0.596762	0.439353	0.495309
O11	O	-0.954730	-0.060619	0.101772
O12	O	-0.454730	0.439381	0.601772
O13	O	-1.223275	-0.060645	0.091050
O14	O	-0.723275	0.439355	0.591050
Zn15	Zn	-1.088999	-0.079859	0.096412
Zn16	Zn	-0.588999	0.420141	0.596412
Zn17	Zn	-1.089023	0.079694	0.096407
Zn18	Zn	-0.589023	0.579694	0.596407
O19	O	-1.081242	-0.060617	0.197514
O20	O	-0.581242	0.439383	0.697514
C21	C	-0.920382	-0.000067	0.101271
C22	C	-0.420382	0.499933	0.601271
C23	C	-0.818010	-0.000058	0.099773
C24	C	-0.318010	0.499942	0.599773
C25	C	-0.443150	-0.000089	0.094261
C26	C	0.056850	0.499911	0.594261
C27	C	-0.547448	-0.000080	0.095792
C28	C	-0.047448	0.499920	0.595792
C29	C	-0.630577	-0.000073	0.097017
C30	C	-0.130577	0.499927	0.597017
C31	C	-0.734882	-0.000065	0.098548
C32	C	-0.234882	0.499935	0.598548
N33	N	-1.088990	-0.188750	0.096415
N34	N	-0.588990	0.311250	0.596415
C35	C	-1.096272	-0.000100	-0.030571
C36	C	-0.596272	0.499900	0.469429
C37	C	-1.094773	-0.000106	-0.107680
C38	C	-0.594773	0.499894	0.392320
C39	C	-0.257640	-0.000095	0.091548
C40	C	0.242360	0.499905	0.591548
C41	C	-0.360012	-0.000093	0.093045
C42	C	0.139988	0.499907	0.593045
C43	C	-1.144795	-0.773299	0.138613
C44	C	-0.644795	-0.273299	0.638613
C45	C	-1.144785	-0.697071	0.138620
C46	C	-0.644785	-0.197071	0.638620
C47	C	-1.089032	-0.658962	0.096399
C48	C	-0.589032	-0.158962	0.596399
C49	C	-1.033266	-0.697086	0.054182
C50	C	-0.533266	-0.197086	0.554182
C51	C	-1.033271	-0.773313	0.054182
C52	C	-0.533271	-0.273313	0.554182
C53	C	-1.086739	-0.538204	0.033767
C54	C	-0.586739	-0.038204	0.533767
C55	C	-1.086742	-0.461979	0.033766
C56	C	-0.586742	0.038021	0.533766
C57	C	-1.089014	-0.423854	0.096401
C58	C	-0.589014	0.076146	0.596401
C59	C	-1.091303	-0.461963	0.159039
C60	C	-0.591303	0.038037	0.659039
C61	C	-1.091307	-0.538190	0.159038
C62	C	-0.591307	-0.038190	0.659038
C63	C	-1.089021	-0.576307	0.096395
C64	C	-0.589021	-0.076307	0.596395
C65	C	-1.144761	-0.303084	0.138627
C66	C	-0.644761	0.196916	0.638627
C67	C	-1.144744	-0.226854	0.138635
C68	C	-0.644744	0.273146	0.638635
C69	C	-1.033231	-0.226871	0.054190
C70	C	-0.533231	0.273129	0.554190
C71	C	-1.033242	-0.303099	0.054189
C72	C	-0.533242	0.196901	0.554189
C73	C	-1.089012	-0.341201	0.096406
C74	C	-0.589012	0.158799	0.596406
N75	N	-1.089040	0.188586	0.096399
N76	N	-0.589040	0.688586	0.596399
C77	C	-1.178111	-0.000117	-0.152077
C78	C	-0.678111	0.499883	0.347923
C79	C	-1.176702	-0.000106	-0.224529
C80	C	-0.676702	0.499894	0.275471
C81	C	-1.091951	-0.000097	-0.252581
C82	C	-0.591951	0.499903	0.247419
C83	C	-1.008602	-0.000082	-0.208175
C84	C	-0.508602	0.499918	0.291825
C85	C	-1.010013	-0.000086	-0.135725
C86	C	-0.510013	0.499914	0.364275
C87	C	-1.025321	-0.042509	-0.361107
C88	C	-0.525321	0.457491	0.138893
C89	C	-1.023914	-0.042510	-0.433557
C90	C	-0.523914	0.457490	0.066443
C91	C	-1.087597	-0.000080	-0.476043
C92	C	-0.587597	0.499920	0.023957
C93	C	-1.152703	0.042339	-0.446071
C94	C	-0.652703	0.542339	0.053929
C95	C	-1.154114	0.042335	-0.373621
C96	C	-0.654114	0.542335	0.126379
C97	C	-1.090412	-0.000092	-0.331141
C98	C	-0.590412	0.499908	0.168859
C99	C	-1.169414	-0.000078	-0.599000
C100	C	-0.669414	0.499922	-0.099000
C101	C	-1.168002	-0.000062	-0.671454
C102	C	-0.668002	0.499938	-0.171454
C103	C	-0.999899	-0.000045	-0.655098
C104	C	-0.499899	0.499955	-0.155098
C105	C	-1.001314	-0.000054	-0.582647
C106	C	-0.501314	0.499946	-0.082647
C107	C	-1.086073	-0.000074	-0.554602
C108	C	-0.586073	0.499926	-0.054602
C109	C	-1.081751	-0.000063	0.223390
C110	C	-0.581751	0.499937	0.723390
C111	C	-1.083250	-0.000052	0.300499
C112	C	-0.583250	0.499948	0.800499
H113	H	-1.190205	-0.804316	0.172991
H114	H	-0.690205	-0.304316	0.672991
C115	C	-0.971899	-0.184964	0.007749
C116	C	-0.471899	0.315036	0.507749
H117	H	-0.938690	-0.218585	-0.017391
H118	H	-0.438690	0.281415	0.482609
H119	H	-1.009816	-0.155227	-0.024154
H120	H	-0.509816	0.344773	0.475846
H121	H	-0.929333	-0.155230	0.036150
H122	H	-0.429333	0.344770	0.536150
C123	C	-1.084241	-0.580138	-0.035135
C124	C	-0.584241	-0.080138	0.464865
H125	H	-1.084562	-0.630993	-0.026165
H126	H	-0.584562	-0.130993	0.473835
H127	H	-1.137057	-0.567648	-0.066605
H128	H	-0.637057	-0.067648	0.433395
H129	H	-1.029544	-0.567650	-0.055135
H130	H	-0.529544	-0.067650	0.444865
H131	H	-1.247128	-0.000131	-0.129248
H132	H	-0.747128	0.499869	0.370752
C133	C	-1.206129	-0.655135	0.185049
C134	C	-0.706129	-0.155135	0.685049
H135	H	-1.239350	-0.688744	0.210186
H136	H	-0.739350	-0.188744	0.710186
H137	H	-1.168217	-0.625391	0.216955
H138	H	-0.668217	-0.125391	0.716955
H139	H	-1.248685	-0.625407	0.156639
H140	H	-0.748685	-0.125407	0.656639
H141	H	-0.987867	-0.804346	0.019805
H142	H	-0.487867	-0.304346	0.519805
C143	C	-1.259679	-0.000076	-0.720290
C144	C	-0.759679	0.499924	-0.220290
H145	H	-1.310356	-0.000096	-0.693208
H146	H	-0.810356	0.499904	-0.193208
H147	H	-1.262637	0.042156	-0.748887
H148	H	-0.762637	0.542156	-0.248887
H149	H	-1.262607	-0.042310	-0.748899
H150	H	-0.762607	0.457690	-0.248899
H151	H	-1.244568	-0.000112	-0.260683
H152	H	-0.744568	0.499888	0.239317
H153	H	-1.204560	0.076890	-0.480662
H154	H	-0.704560	0.576890	0.019338
H155	H	-0.987870	-0.666053	0.019807
H156	H	-0.487870	-0.166053	0.519807
C157	C	-1.083975	-0.420063	-0.035103
C158	C	-0.583975	0.079937	0.464897
H159	H	-1.084233	-0.369205	-0.026126
H160	H	-0.584233	0.130795	0.473874
H161	H	-1.029211	-0.432631	-0.054971
H162	H	-0.529211	0.067369	0.445029
H163	H	-1.136714	-0.432486	-0.066689
H164	H	-0.636714	0.067514	0.433311
C165	C	-1.093813	-0.580111	0.227932
C166	C	-0.593813	-0.080111	0.727932
H167	H	-1.093496	-0.630967	0.218958
H168	H	-0.593496	-0.130967	0.718958
H169	H	-1.040995	-0.567618	0.259403
H170	H	-0.540995	-0.067618	0.759403
H171	H	-1.148508	-0.567618	0.247934
H172	H	-0.648508	-0.067618	0.747934
H173	H	-1.207124	0.076876	-0.349221
H174	H	-0.707124	0.576876	0.150779
C175	C	-1.206077	-0.184927	0.185074
C176	C	-0.706077	0.315073	0.685074
H177	H	-1.239296	-0.218539	0.210209
H178	H	-0.739296	0.281461	0.710209
H179	H	-1.168156	-0.155190	0.216981
H180	H	-0.668156	0.344810	0.716981
H181	H	-1.248634	-0.155192	0.156673
H182	H	-0.748634	0.344808	0.656673
C183	C	-1.262643	-0.000092	-0.568148
C184	C	-0.762643	0.499908	-0.068148
H185	H	-1.312076	-0.000086	-0.604969
H186	H	-0.812076	0.499914	-0.104969
H187	H	-1.266683	-0.042325	-0.540234
H188	H	-0.766683	0.457675	-0.040234
H189	H	-1.266692	0.042140	-0.540217
H190	H	-0.766692	0.542140	-0.040217
C191	C	-0.906675	-0.000034	-0.685947
C192	C	-0.406675	0.499966	-0.185947
H193	H	-0.917769	-0.000036	-0.735455
H194	H	-0.417769	0.499964	-0.235455
H195	H	-0.872379	0.042198	-0.670706
H196	H	-0.372379	0.542198	-0.170706
H197	H	-0.872367	-0.042267	-0.670722
H198	H	-0.372367	0.457733	-0.170722
H199	H	-0.939597	-0.000073	-0.231020
H200	H	-0.439597	0.499927	0.268980
H201	H	-0.970896	-0.077046	-0.457953
H202	H	-0.470896	0.422954	0.042047
C203	C	-0.909641	-0.000054	-0.533809
C204	C	-0.409641	0.499946	-0.033809
H205	H	-0.858963	-0.000054	-0.560890
H206	H	-0.358963	0.499946	-0.060890
H207	H	-0.906700	0.042173	-0.505197
H208	H	-0.406700	0.542173	-0.005197
H209	H	-0.906695	-0.042293	-0.505216
H210	H	-0.406695	0.457707	-0.005216
H211	H	-0.973460	-0.077064	-0.326520
H212	H	-0.473460	0.422936	0.173480
C213	C	-0.918337	-0.000080	-0.086887
C214	C	-0.418337	0.499920	0.413113
H215	H	-0.867659	-0.000077	-0.113967
H216	H	-0.367659	0.499923	0.386033
H217	H	-0.915400	0.042145	-0.058273
H218	H	-0.415400	0.542145	0.441727
H219	H	-0.915390	-0.042320	-0.058295
H220	H	-0.415390	0.457680	0.441705
H221	H	-1.093153	-0.430924	0.210043
H222	H	-0.593153	0.069076	0.710043
C223	C	-1.206095	-0.345002	0.185066
C224	C	-0.706095	0.154998	0.685066
H225	H	-1.198123	-0.395859	0.179012
H226	H	-0.698123	0.104141	0.679012
H227	H	-1.188763	-0.332508	0.232563
H228	H	-0.688763	0.167492	0.732563
H229	H	-1.269247	-0.332505	0.172260
H230	H	-0.769247	0.167495	0.672260
C231	C	-0.971925	-0.345028	0.007742
C232	C	-0.471925	0.154972	0.507742
H233	H	-0.938724	-0.311416	-0.017408
H234	H	-0.438724	0.188584	0.482592
H235	H	-0.929366	-0.374765	0.036131
H236	H	-0.429366	0.125235	0.536131
H237	H	-1.009861	-0.374763	-0.024165
H238	H	-0.509861	0.125237	0.475835
