data_functionalizedCrystal
_audit_creation_method	'MofGen! by Chris Wilmer'
_symmetry_space_group_name_H-M	'P1'
_symmetry_Int_Tables_number	1
_symmetry_cell_setting	triclinic
loop_
_symmetry_equiv_pos_as_xyz
  x,y,z
_cell_length_a	10.654549
_cell_length_b	27.731996
_cell_length_c	9.130307
_cell_angle_alpha	89.990770
_cell_angle_beta	89.997449
_cell_angle_gamma	83.554152
loop_
_atom_site_label
_atom_site_type_symbol
_atom_site_fract_x
_atom_site_fract_y
_atom_site_fract_z
O1	O	1.664946	0.067898	-0.121856
O2	O	1.299193	0.074363	-0.121854
O3	O	1.493463	0.000803	-0.121823
O4	O	1.470676	0.141458	-0.121887
O5	O	1.493457	0.000802	0.121776
O6	O	1.299187	0.074363	0.121745
O7	O	1.664940	0.067897	0.121743
Cu8	Cu	1.482063	0.071130	0.143986
Cu9	Cu	1.482070	0.071131	-0.144098
O10	O	1.470670	0.141457	0.121712
C11	C	1.252412	0.073888	-0.000053
C12	C	1.113030	0.072466	-0.000051
C13	C	0.819418	0.157758	-0.000130
C14	C	0.869057	0.202408	-0.000144
C15	C	1.000018	0.203746	-0.000126
C16	C	1.081345	0.160428	-0.000097
C17	C	1.031707	0.115778	-0.000083
C18	C	0.900741	0.114446	-0.000098
C19	C	1.063392	0.027816	-0.000037
C20	C	0.932431	0.026477	-0.000045
C21	C	1.144719	-0.015501	-0.000008
C22	C	1.095081	-0.060152	0.000016
C23	C	0.964111	-0.061488	-0.000001
C24	C	0.882792	-0.018173	-0.000031
C25	C	1.492992	-0.017208	-0.000019
C26	C	1.491582	-0.070873	-0.000004
C27	C	1.482715	-0.403644	-0.132861
C28	C	1.477361	-0.605335	-0.132887
O29	O	1.476617	-0.631410	-0.245817
N30	N	1.476692	-0.630557	-0.000102
C31	C	1.477354	-0.605352	0.132698
O32	O	1.476650	-0.631432	0.245639
C33	C	1.482699	-0.403661	0.132722
C34	C	1.483380	-0.378443	-0.000071
C35	C	1.483395	-0.378425	-0.265644
C36	C	1.484740	-0.328006	-0.265636
C37	C	1.485405	-0.302805	-0.132846
C38	C	1.484726	-0.328023	-0.000063
C39	C	1.483352	-0.378457	0.265521
C40	C	1.484685	-0.328031	0.265515
C41	C	1.485366	-0.302812	0.132722
C42	C	1.486737	-0.252403	0.132735
N43	N	1.487405	-0.227181	-0.000050
C44	C	1.486739	-0.252382	-0.132840
C45	C	1.474551	-0.711243	0.132676
C46	C	1.473217	-0.761666	0.132670
C47	C	1.473221	-0.761645	-0.132915
C48	C	1.474564	-0.711222	-0.132908
C49	C	1.475219	-0.686022	-0.000109
C50	C	1.489566	-0.146497	-0.132814
C51	C	1.490917	-0.096074	-0.132794
C52	C	1.490906	-0.096098	0.132790
C53	C	1.489562	-0.146518	0.132772
C54	C	1.488888	-0.171716	-0.000042
O55	O	1.487467	-0.226296	0.245606
O56	O	1.487416	-0.226292	-0.245764
C57	C	1.481370	-0.454063	-0.132869
C58	C	1.480690	-0.479282	-0.000087
C59	C	1.481355	-0.454081	0.132704
C60	C	1.479356	-0.529705	-0.000092
C61	C	1.478690	-0.554906	-0.132882
C62	C	1.479359	-0.529684	-0.265667
C63	C	1.480704	-0.479264	-0.265659
C64	C	1.480687	-0.479303	0.265488
C65	C	1.479343	-0.529722	0.265470
C66	C	1.478678	-0.554923	0.132679
C67	C	1.711721	0.068373	-0.000061
C68	C	1.851103	0.069795	-0.000073
C69	C	1.471141	0.159468	-0.000095
C70	C	1.472551	0.213133	-0.000120
N71	N	1.482067	0.071129	0.346609
N72	N	1.482076	0.071128	-0.346720
C73	C	1.654162	0.006011	0.346626
C74	C	1.740218	-0.026547	0.423301
C75	C	1.740230	-0.026548	0.576634
C76	C	1.654175	0.006012	0.653296
C77	C	1.568119	0.038570	0.576621
C78	C	1.568119	0.038568	0.423284
C79	C	1.396021	0.103686	0.576605
C80	C	1.396012	0.103689	0.423271
C81	C	1.309966	0.136246	0.653266
C82	C	1.223914	0.168807	0.576591
C83	C	1.223906	0.168806	0.423249
C84	C	1.309956	0.136247	0.346596
H85	H	0.802826	0.237676	-0.000172
H86	H	1.153824	0.195317	0.360828
H87	H	1.481258	-0.458736	-0.373793
H88	H	1.040432	0.240103	-0.000135
H89	H	1.153848	0.195312	0.639019
C90	C	1.225399	0.161900	-0.000088
H91	H	1.243313	0.194696	-0.000097
H92	H	1.260887	0.145956	-0.085021
H93	H	1.260865	0.145962	0.084886
H94	H	1.485290	-0.307477	-0.373770
H95	H	1.475117	-0.690693	-0.241040
C96	C	1.482590	-0.406186	0.411596
H97	H	1.483160	-0.383948	0.490669
H98	H	1.555317	-0.429301	0.417144
H99	H	1.408798	-0.422409	0.417110
H100	H	0.923706	-0.097848	0.000002
C101	C	1.288773	-0.014031	0.000016
H102	H	1.306690	0.018764	0.000019
H103	H	1.324269	-0.029972	-0.084917
H104	H	1.324229	-0.029972	0.084990
C105	C	1.184538	-0.107794	0.000049
H106	H	1.269642	-0.100603	0.000059
H107	H	1.169595	-0.126088	-0.084886
H108	H	1.169581	-0.126082	0.085021
H109	H	1.309962	0.136245	0.221744
C110	C	1.478620	-0.557411	-0.411732
H111	H	1.477712	-0.591051	-0.392703
H112	H	1.552092	-0.552592	-0.466306
H113	H	1.405573	-0.545702	-0.466286
H114	H	1.810300	-0.053061	0.639064
H115	H	0.712781	0.156673	-0.000120
C116	C	1.472477	-0.789372	-0.278981
H117	H	1.471574	-0.823012	-0.259954
H118	H	1.545943	-0.784551	-0.333562
H119	H	1.399424	-0.777663	-0.333527
H120	H	1.654171	0.006011	0.221774
C121	C	1.472479	-0.789401	0.278742
H122	H	1.473053	-0.767166	0.357821
H123	H	1.545209	-0.812515	0.284275
H124	H	1.398690	-0.805627	0.284260
C125	C	0.738738	-0.019640	-0.000060
H126	H	0.697417	0.012552	-0.000093
H127	H	0.714938	-0.036186	0.084886
H128	H	0.714982	-0.036183	-0.085022
H129	H	1.475090	-0.690730	0.240823
C130	C	1.491667	-0.068334	-0.278868
H131	H	1.492577	-0.034695	-0.259855
H132	H	1.418196	-0.073150	-0.333435
H133	H	1.564715	-0.080040	-0.333421
C134	C	1.488859	-0.174210	-0.278905
H135	H	1.489476	-0.151964	-0.357974
H136	H	1.415091	-0.190441	-0.284467
H137	H	1.561610	-0.197318	-0.284411
H138	H	1.485200	-0.307514	0.373659
C139	C	1.488816	-0.174259	0.278839
H140	H	1.489399	-0.152027	0.357924
H141	H	1.561538	-0.197377	0.284368
H142	H	1.415019	-0.190480	0.284350
C143	C	1.491631	-0.068370	0.278848
H144	H	1.492514	-0.034729	0.259822
H145	H	1.564658	-0.080076	0.333426
H146	H	1.418139	-0.073192	0.333396
H147	H	1.478798	-0.550251	0.373614
C148	C	1.834870	-0.062361	0.338972
H149	H	1.822549	-0.057696	0.236670
H150	H	1.821892	-0.094669	0.364121
H151	H	1.918571	-0.056804	0.364088
H152	H	1.482848	-0.398938	-0.373783
H153	H	1.481231	-0.458789	0.373624
H154	H	1.309974	0.136242	0.778119
H155	H	1.654181	0.006006	0.778149
