data_functionalizedCrystal
_audit_creation_method	'MofGen! by Chris Wilmer'
_symmetry_space_group_name_H-M	'P1'
_symmetry_Int_Tables_number	1
_symmetry_cell_setting	triclinic
loop_
_symmetry_equiv_pos_as_xyz
  x,y,z
_cell_length_a	23.532350
_cell_length_b	22.010155
_cell_length_c	23.532407
_cell_angle_alpha	90.004256
_cell_angle_beta	97.163005
_cell_angle_gamma	89.997170
loop_
_atom_site_label
_atom_site_type_symbol
_atom_site_fract_x
_atom_site_fract_y
_atom_site_fract_z
O1	O	-0.755285	0.050457	0.068971
O2	O	-0.589417	0.050477	0.079009
O3	O	-0.677353	0.050449	-0.008943
O4	O	-0.667349	0.050485	0.156923
O5	O	-0.677337	-0.050601	-0.008930
O6	O	-0.589401	-0.050573	0.079022
O7	O	-0.755269	-0.050593	0.068984
Cu8	Cu	-0.672334	-0.059810	0.074004
Cu9	Cu	-0.672352	0.059694	0.073989
O10	O	-0.667333	-0.050566	0.156936
C11	C	-0.568192	-0.000046	0.078765
C12	C	-0.504974	-0.000039	0.078012
N13	N	-0.672324	-0.143862	0.074015
C14	C	-0.112950	-0.055150	0.073289
C15	C	-0.053550	-0.055152	0.072573
O16	O	-0.022824	-0.101998	0.072189
N17	N	-0.023851	-0.000070	0.072210
C18	C	-0.053554	0.055018	0.072558
O19	O	-0.022838	0.101870	0.072184
C20	C	-0.112953	0.055020	0.073271
C21	C	-0.142649	-0.000065	0.073639
C22	C	-0.142646	-0.110231	0.073656
C23	C	-0.202041	-0.110228	0.074374
C24	C	-0.231741	-0.055144	0.074723
C25	C	-0.202044	-0.000062	0.074356
C26	C	-0.142656	0.110108	0.073615
C27	C	-0.202059	0.110106	0.074326
C28	C	-0.231755	0.055020	0.074694
C29	C	-0.291139	0.055025	0.075423
N30	N	-0.320839	-0.000057	0.075785
C31	C	-0.291140	-0.055141	0.075436
C32	C	0.071188	0.055010	0.071062
C33	C	0.130586	0.055008	0.070354
C34	C	0.130586	-0.055163	0.070367
C35	C	0.071187	-0.055161	0.071079
C36	C	0.041488	-0.000073	0.071424
C37	C	-0.415874	-0.055131	0.076942
C38	C	-0.475274	-0.055123	0.077662
C39	C	-0.475269	0.055047	0.077646
C40	C	-0.415874	0.055040	0.076929
C41	C	-0.386178	-0.000054	0.076576
O42	O	-0.321903	0.101846	0.075805
O43	O	-0.321864	-0.101985	0.075803
C44	C	-0.711293	-0.563654	0.035049
C45	C	-0.711295	-0.627262	0.035045
O46	O	-0.744404	-0.660164	0.001923
N47	N	-0.672352	-0.659070	0.073977
C48	C	-0.633400	-0.627267	0.112911
O49	O	-0.600276	-0.660162	0.146024
C50	C	-0.633395	-0.563660	0.112912
C51	C	-0.672345	-0.531856	0.073981
C52	C	-0.750239	-0.531850	-0.003878
C53	C	-0.750236	-0.468246	-0.003873
C54	C	-0.711288	-0.436448	0.035059
C55	C	-0.672342	-0.468252	0.073986
C56	C	-0.594441	-0.531858	0.151842
C57	C	-0.594439	-0.468247	0.151840
C58	C	-0.633388	-0.436443	0.112909
C59	C	-0.633392	-0.372850	0.112923
N60	N	-0.672335	-0.341043	0.073992
C61	C	-0.711283	-0.372841	0.035060
C62	C	-0.633413	-0.760844	0.112906
C63	C	-0.633420	-0.824450	0.112908
C64	C	-0.711314	-0.824440	0.035042
C65	C	-0.711310	-0.760834	0.035042
C66	C	-0.672356	-0.729036	0.073974
C67	C	-0.711276	-0.239270	0.035073
C68	C	-0.711272	-0.175661	0.035083
C69	C	-0.633376	-0.175676	0.112947
C70	C	-0.633382	-0.239279	0.112939
C71	C	-0.672334	-0.271075	0.073998
O72	O	-0.600299	-0.339908	0.146027
O73	O	-0.744397	-0.339938	0.001947
C74	C	0.223507	-0.000070	0.069233
C75	C	0.160290	-0.000077	0.070001
C76	C	-0.677090	-0.000079	-0.030152
C77	C	-0.676324	-0.000088	-0.093369
N78	N	-0.672366	0.143746	0.073974
C79	C	-0.621127	-0.000043	-0.359525
C80	C	-0.621839	-0.000048	-0.300125
O81	O	-0.578051	-0.000024	-0.263371
N82	N	-0.674116	-0.000061	-0.277510
C83	C	-0.725686	-0.000064	-0.314298
O84	O	-0.770218	-0.000075	-0.289607
C85	C	-0.724974	-0.000055	-0.373697
C86	C	-0.672693	-0.000048	-0.396309
C87	C	-0.568850	-0.000035	-0.382138
C88	C	-0.568139	-0.000032	-0.441534
C89	C	-0.619705	-0.000036	-0.478317
C90	C	-0.671982	-0.000044	-0.455705
C91	C	-0.776543	-0.000053	-0.410484
C92	C	-0.775826	-0.000043	-0.469886
C93	C	-0.723545	-0.000036	-0.492498
C94	C	-0.722836	-0.000045	-0.551884
N95	N	-0.670558	-0.000031	-0.574500
C96	C	-0.618993	-0.000027	-0.537716
C97	C	-0.727177	-0.000082	-0.189556
C98	C	-0.727890	-0.000095	-0.130158
C99	C	-0.624042	-0.000078	-0.115989
C100	C	-0.623330	-0.000069	-0.175388
C101	C	-0.674900	-0.000069	-0.212171
C102	C	-0.617503	-0.000020	-0.662453
C103	C	-0.616796	-0.000019	-0.721854
C104	C	-0.720644	-0.000032	-0.736018
C105	C	-0.721351	-0.000037	-0.676621
C106	C	-0.669776	-0.000028	-0.639839
O107	O	-0.766600	-0.000067	-0.588672
O108	O	-0.574468	-0.000008	-0.562415
C109	C	-0.667596	-0.000036	0.178145
C110	C	-0.668362	-0.000023	0.241362
H111	H	-0.391702	-0.099994	0.076660
H112	H	-0.743025	-0.734942	0.003342
H113	H	0.047012	-0.100016	0.071379
C114	C	-0.562290	0.051897	-0.233952
C115	C	-0.565863	-0.000055	-0.200242
H116	H	-0.526811	0.051904	-0.249295
H117	H	-0.564732	0.087124	-0.211066
H118	H	-0.592899	0.051891	-0.264361
H119	H	-0.535256	-0.000047	-0.169830
H120	H	-0.563415	-0.035291	-0.223129
C121	C	-0.745320	-0.844030	-0.063735
C122	C	-0.754126	-0.859400	-0.007759
H123	H	-0.771751	-0.865611	-0.090155
H124	H	-0.707351	-0.854458	-0.069713
H125	H	-0.750896	-0.801596	-0.069300
H126	H	-0.748545	-0.901833	-0.002192
H127	H	-0.792104	-0.848975	-0.001778
H128	H	-0.770463	-0.000111	-0.111753
C129	C	-0.275514	-0.174154	0.026213
C130	C	-0.234680	-0.170781	0.074768
H131	H	-0.295662	-0.211537	0.026457
H132	H	-0.256873	-0.171865	-0.007274
H133	H	-0.301707	-0.141350	0.026532
H134	H	-0.208484	-0.203582	0.074446
H135	H	-0.253321	-0.173075	0.108263
C136	C	-0.829899	-0.000110	-0.197585
C137	C	-0.783868	-0.000093	-0.229985
H138	H	-0.864896	-0.000120	-0.222544
H139	H	-0.828022	0.035125	-0.174119
H140	H	-0.828000	-0.035353	-0.174125
H141	H	-0.785764	0.035152	-0.253443
H142	H	-0.785746	-0.035331	-0.253461
H143	H	-0.118488	0.154965	0.073314
H144	H	-0.226237	0.154966	0.074608
C145	C	-0.620573	-0.310812	0.190517
C146	C	-0.590570	-0.274239	0.155736
H147	H	-0.594139	-0.332387	0.216938
H148	H	-0.643760	-0.338855	0.167331
H149	H	-0.644162	-0.285993	0.210879
H150	H	-0.566984	-0.299058	0.135371
H151	H	-0.567374	-0.246192	0.178925
H152	H	-0.601709	-0.850340	0.144614
H153	H	-0.781955	-0.557734	-0.035584
H154	H	-0.601693	-0.734958	0.144613
H155	H	-0.118471	-0.155090	0.073370
C156	C	-0.517438	-0.525451	0.228797
C157	C	-0.551623	-0.566806	0.194634
H158	H	-0.491000	-0.547027	0.255213
H159	H	-0.541026	-0.500642	0.249158
H160	H	-0.497095	-0.500643	0.205186
H161	H	-0.571968	-0.591611	0.218244
H162	H	-0.528031	-0.591626	0.174271
H163	H	-0.499450	-0.099982	0.077964
H164	H	-0.819116	-0.000058	-0.392084
C165	C	-0.516850	-0.396730	0.164615
C166	C	-0.551619	-0.433297	0.194637
H167	H	-0.490415	-0.375158	0.191038
H168	H	-0.540043	-0.368684	0.141440
H169	H	-0.496505	-0.421552	0.141014
H170	H	-0.571967	-0.408475	0.218236
H171	H	-0.528423	-0.461347	0.217823
C172	C	-0.599364	-0.156075	0.211718
C173	C	-0.590566	-0.140713	0.155739
H174	H	-0.572935	-0.134485	0.238133
H175	H	-0.593785	-0.198502	0.217290
H176	H	-0.637339	-0.145646	0.217698
H177	H	-0.552592	-0.151145	0.149757
H178	H	-0.596140	-0.098276	0.150165
C179	C	-0.466134	-0.000029	-0.374115
C180	C	-0.512162	-0.000036	-0.341711
H181	H	-0.431136	-0.000037	-0.349159
H182	H	-0.468023	0.035213	-0.397567
H183	H	-0.468024	-0.035265	-0.397589
H184	H	-0.510275	0.035202	-0.318240
H185	H	-0.510272	-0.035281	-0.318249
C186	C	-0.002288	0.118934	0.022896
C187	C	0.038547	0.115569	0.071451
H188	H	-0.022433	0.156323	0.023135
H189	H	-0.028478	0.086139	0.023218
H190	H	0.016356	0.116635	-0.010594
H191	H	0.019903	0.117864	0.104941
H192	H	0.064741	0.148373	0.071134
H193	H	-0.525566	-0.000021	-0.459938
H194	H	-0.817821	-0.000039	-0.499833
H195	H	-0.574221	-0.000016	-0.740261
C196	C	-0.514782	-0.000011	-0.654430
C197	C	-0.560811	-0.000016	-0.622028
H198	H	-0.479784	-0.000015	-0.629473
H199	H	-0.516671	0.035228	-0.677886
H200	H	-0.516669	-0.035249	-0.677900
H201	H	-0.558926	0.035226	-0.598561
H202	H	-0.558921	-0.035258	-0.598562
C203	C	-0.579030	-0.000068	-0.018639
C204	C	-0.567359	-0.000064	-0.075548
H205	H	-0.544038	-0.000054	0.006327
H206	H	-0.600468	-0.035310	-0.011824
H207	H	-0.600493	0.035167	-0.011823
H208	H	-0.545899	-0.035301	-0.082366
H209	H	-0.545912	0.035182	-0.082366
H210	H	0.154777	-0.100015	0.070081
H211	H	-0.763922	-0.000051	-0.658210
H212	H	-0.762627	-0.000039	-0.765978
H213	H	-0.391693	0.099895	0.076639
C214	C	0.155546	0.148924	0.119088
C215	C	0.163224	0.115561	0.069956
H216	H	0.175691	0.186310	0.118838
H217	H	0.169822	0.126300	0.152183
H218	H	0.115917	0.156799	0.119559
H219	H	0.202853	0.107683	0.069487
H220	H	0.148950	0.138190	0.036852
C221	C	-0.566330	0.103957	0.078727
C222	C	-0.507923	0.115594	0.078026
H223	H	-0.586489	0.141337	0.078955
H224	H	-0.571524	0.081340	0.112064
H225	H	-0.580587	0.081310	0.045632
H226	H	-0.493664	0.138238	0.111124
H227	H	-0.502725	0.138221	0.044686
C228	C	-0.788268	-0.182051	-0.041889
C229	C	-0.754086	-0.140702	-0.007715
H230	H	-0.814695	-0.160469	-0.068312
H231	H	-0.808618	-0.206856	-0.018292
H232	H	-0.764672	-0.206863	-0.062249
H233	H	-0.777682	-0.115893	0.012648
H234	H	-0.733735	-0.115887	-0.031316
H235	H	-0.742994	-0.265151	0.003362
H236	H	-0.781951	-0.442355	-0.035575
