data_functionalizedCrystal
_audit_creation_method	'MofGen! by Chris Wilmer'
_symmetry_space_group_name_H-M	'P1'
_symmetry_Int_Tables_number	1
_symmetry_cell_setting	triclinic
loop_
_symmetry_equiv_pos_as_xyz
  x,y,z
_cell_length_a	19.188925
_cell_length_b	19.188924
_cell_length_c	14.421503
_cell_angle_alpha	90.002214
_cell_angle_beta	89.991449
_cell_angle_gamma	83.142256
loop_
_atom_site_label
_atom_site_type_symbol
_atom_site_fract_x
_atom_site_fract_y
_atom_site_fract_z
O1	O	0.926149	0.087140	-0.077136
O2	O	1.426149	0.587140	0.422864
O3	O	0.722837	0.098878	-0.077134
O4	O	1.222837	0.598878	0.422866
O5	O	0.830363	-0.008647	-0.077124
O6	O	1.330363	0.491353	0.422876
O7	O	0.818624	0.194665	-0.077146
O8	O	1.318624	0.694665	0.422854
O9	O	0.830345	-0.008631	0.077099
O10	O	1.330345	0.491369	0.577099
O11	O	0.722819	0.098894	0.077090
O12	O	1.222819	0.598894	0.577090
O13	O	0.926132	0.087156	0.077088
O14	O	1.426132	0.587156	0.577088
Cu15	Cu	0.824474	0.093027	0.091170
Cu16	Cu	1.324474	0.593027	0.591170
Cu17	Cu	0.824495	0.093008	-0.091217
Cu18	Cu	1.324495	0.593008	0.408783
O19	O	0.818606	0.194681	0.077078
O20	O	1.318606	0.694681	0.577078
C21	C	0.696817	0.098507	-0.000022
C22	C	1.196817	0.598507	0.499978
C23	C	0.619313	0.097368	-0.000021
C24	C	1.119313	0.597368	0.499979
C25	C	0.057541	0.152832	-0.000029
C26	C	0.557541	0.652832	0.499971
C27	C	0.130364	0.153908	-0.000034
C28	C	0.630364	0.653908	0.499966
C29	C	0.175300	0.090816	-0.000025
C30	C	0.675300	0.590816	0.499975
C31	C	0.147408	0.026642	-0.000036
C32	C	0.647408	0.526642	0.499964
C33	C	0.074586	0.025568	-0.000040
C34	C	0.574586	0.525568	0.499960
N35	N	0.295972	0.045145	0.052478
N36	N	0.795972	0.545145	0.552478
N37	N	0.365150	0.046170	0.052484
N38	N	0.865150	0.546170	0.552484
C39	C	0.394709	0.094050	-0.000015
C40	C	0.894709	0.594050	0.499985
N41	N	0.352477	0.140877	-0.052508
N42	N	0.852477	0.640877	0.447492
N43	N	0.283293	0.139853	-0.052510
N44	N	0.783293	0.639853	0.447490
C45	C	0.254264	0.091974	-0.000021
C46	C	0.754264	0.591974	0.499979
C47	C	0.501557	0.159387	-0.000017
C48	C	1.001557	0.659387	0.499983
C49	C	0.574381	0.160461	-0.000027
C50	C	1.074381	0.660461	0.499973
C51	C	0.591424	0.033193	-0.000020
C52	C	1.091424	0.533193	0.499980
C53	C	0.518600	0.032121	-0.000018
C54	C	1.018600	0.532121	0.499982
C55	C	0.473671	0.095220	-0.000012
C56	C	0.973671	0.595220	0.499988
C57	C	0.829975	-0.034650	-0.000011
C58	C	1.329975	0.465350	0.499989
C59	C	0.828836	-0.112155	-0.000009
C60	C	1.328836	0.387845	0.499991
C61	C	0.828314	-0.148562	-0.084076
C62	C	1.328314	0.351438	0.415924
C63	C	0.827234	-0.221385	-0.084083
C64	C	1.327234	0.278615	0.415917
C65	C	0.826690	-0.257799	-0.000018
C66	C	1.326690	0.242201	0.499982
C67	C	0.827208	-0.221382	0.084060
C68	C	1.327208	0.278618	0.584060
C69	C	0.828281	-0.148560	0.084065
C70	C	1.328281	0.351440	0.584065
N71	N	0.864731	-0.377457	0.062549
N72	N	1.364731	0.122543	0.562549
N73	N	0.863713	-0.446635	0.062539
N74	N	1.363713	0.053365	0.562539
C75	C	0.823456	-0.477208	-0.000027
C76	C	1.323456	0.022792	0.499973
N77	N	0.784264	-0.435991	-0.062597
N78	N	1.284264	0.064009	0.437403
N79	N	0.785285	-0.366807	-0.062589
N80	N	1.285285	0.133193	0.437411
C81	C	0.825526	-0.336763	-0.000014
C82	C	1.325526	0.163237	0.499986
C83	C	0.821762	-0.592578	-0.084108
C84	C	1.321762	-0.092578	0.415892
C85	C	0.820678	-0.665402	-0.084111
C86	C	1.320678	-0.165402	0.415889
C87	C	0.820659	-0.665399	0.084035
C88	C	1.320659	-0.165399	0.584035
C89	C	0.821736	-0.592576	0.084036
C90	C	1.321736	-0.092576	0.584036
C91	C	0.822291	-0.556170	-0.000038
C92	C	1.322291	-0.056170	0.499962
C93	C	0.952151	0.087528	-0.000027
C94	C	1.452151	0.587528	0.499973
C95	C	1.029656	0.088667	-0.000034
C96	C	1.529656	0.588667	0.499966
C97	C	0.818994	0.220684	-0.000037
C98	C	1.318994	0.720684	0.499963
C99	C	0.820133	0.298189	-0.000045
C100	C	1.320133	0.798189	0.499955
N101	N	0.824464	0.093040	0.219452
N102	N	1.324464	0.593040	0.719452
N103	N	0.824510	0.092989	-0.219498
N104	N	1.324510	0.592989	0.280502
C105	C	0.774736	0.142737	0.469101
C106	C	1.274736	0.642737	0.969101
C107	C	0.837784	0.156095	0.530901
C108	C	1.337784	0.656095	1.030901
C109	C	0.824481	0.093023	0.408613
C110	C	1.324481	0.593023	0.908613
C111	C	0.761449	0.079681	0.530907
C112	C	1.261449	0.579681	1.030907
C113	C	0.824492	0.093008	0.591335
C114	C	1.324492	0.593008	1.091335
C115	C	0.887561	0.106412	0.469053
C116	C	1.387561	0.606412	0.969053
C117	C	0.811185	0.029971	0.469053
C118	C	1.311185	0.529971	0.969053
C119	C	0.874279	0.043302	0.530825
C120	C	1.374279	0.543302	1.030825
C121	C	0.824474	0.093033	0.303352
C122	C	1.324474	0.593033	0.803352
C123	C	0.824506	0.092998	0.696593
C124	C	1.324506	0.592998	1.196593
H125	H	0.183999	-0.024728	-0.000031
H126	H	0.683999	0.475272	0.499969
H127	H	0.822210	-0.562935	-0.152566
H128	H	1.322210	-0.062935	0.347434
H129	H	0.828764	-0.118925	-0.152536
H130	H	1.328764	0.381075	0.347464
H131	H	0.597083	0.212714	-0.000031
H132	H	1.097083	0.712714	0.499969
H133	H	0.732710	0.184812	0.441999
H134	H	1.232710	0.684812	0.941999
F135	F	0.044908	-0.042729	-0.000048
F136	F	0.544908	0.457271	0.499952
H137	H	0.940882	0.117754	0.441997
H138	H	1.440882	0.617754	0.941997
F139	F	0.929329	-0.011660	0.566032
F140	F	1.429329	0.488340	1.066032
F141	F	0.820076	-0.704148	0.173504
F142	F	1.320076	-0.204148	0.673504
H143	H	0.849039	0.209410	0.558067
H144	H	1.349039	0.709410	1.058067
F145	F	0.796448	-0.039693	0.433514
F146	F	1.296448	0.460307	0.933514
H147	H	0.826805	-0.251033	-0.152543
H148	H	1.326805	0.248967	0.347457
H149	H	0.708140	0.068404	0.558079
H150	H	1.208140	0.568404	1.058079
F151	F	0.828835	-0.109811	0.173545
F152	F	1.328835	0.390189	0.673545
F153	F	0.009728	0.219988	-0.000032
F154	F	0.509728	0.719988	0.499968
F155	F	0.639243	-0.033955	-0.000023
F156	F	1.139243	0.466045	0.499977
F157	F	0.826624	-0.260137	0.173528
F158	F	1.326624	0.239863	0.673528
F159	F	0.453737	0.226541	-0.000013
F160	F	0.953737	0.726541	0.499987
F161	F	0.160048	0.222204	-0.000027
F162	F	0.660048	0.722204	0.499973
H163	H	0.820250	-0.695043	-0.152572
H164	H	1.320250	-0.195043	0.347428
F165	F	0.822291	-0.553826	0.173513
F166	F	1.322291	-0.053826	0.673513
H167	H	0.495897	-0.020129	-0.000017
H168	H	0.995897	0.479871	0.499983
