data_functionalizedCrystal
_audit_creation_method	'MofGen! by Chris Wilmer'
_symmetry_space_group_name_H-M	'P1'
_symmetry_Int_Tables_number	1
_symmetry_cell_setting	triclinic
loop_
_symmetry_equiv_pos_as_xyz
  x,y,z
_cell_length_a	12.759401
_cell_length_b	21.295417
_cell_length_c	12.759393
_cell_angle_alpha	90.039170
_cell_angle_beta	90.018496
_cell_angle_gamma	90.030668
loop_
_atom_site_label
_atom_site_type_symbol
_atom_site_fract_x
_atom_site_fract_y
_atom_site_fract_z
Zn1	Zn	1.606140	-0.250569	0.593926
Zn2	Zn	1.605986	-0.355853	0.418223
Zn3	Zn	1.430442	-0.250602	0.418265
Zn4	Zn	1.430382	-0.355805	0.593864
O5	O	1.518237	-0.303208	0.506069
O6	O	1.753141	-0.264542	0.570626
O7	O	1.582660	-0.341926	0.271207
O8	O	1.453838	-0.162509	0.441611
O9	O	1.753027	-0.341894	0.441538
O10	O	1.582923	-0.162484	0.570668
O11	O	1.453689	-0.264598	0.271238
O12	O	1.283413	-0.264551	0.441551
O13	O	1.453736	-0.341811	0.740893
O14	O	1.283369	-0.341843	0.570562
O15	O	1.582865	-0.264495	0.740939
O16	O	1.582602	-0.443936	0.441478
O17	O	1.453587	-0.443901	0.570521
C18	C	1.245270	-0.303196	0.506055
C19	C	1.128493	-0.303206	0.506074
C20	C	1.073636	-0.343516	0.573139
C21	C	0.963912	-0.343524	0.573151
C22	C	0.963912	-0.262910	0.439022
C23	C	1.073635	-0.262899	0.439017
C24	C	1.073635	-0.390061	0.650574
C25	C	0.963911	-0.390069	0.650585
C26	C	1.518100	-0.466759	0.506011
C27	C	1.518137	-0.536727	0.506021
C28	C	1.585375	-0.569592	0.438898
C29	C	1.585424	-0.635334	0.438921
C30	C	1.518217	-0.668210	0.506058
C31	C	1.450974	-0.635338	0.573195
C32	C	1.450934	-0.569596	0.573177
N33	N	1.426309	-0.771475	0.514062
N34	N	1.426350	-0.833927	0.514073
C35	C	1.518334	-0.866284	0.506118
N36	N	1.610278	-0.833832	0.498130
N37	N	1.610236	-0.771375	0.498114
C38	C	1.518253	-0.739495	0.506085
C39	C	1.585631	-0.970434	0.439016
C40	C	1.585682	-1.036178	0.439047
C41	C	1.451223	-1.036180	0.573315
C42	C	1.451181	-0.970438	0.573289
C43	C	1.518384	-0.937569	0.506134
C44	C	1.792271	-0.303220	0.506084
C45	C	1.909047	-0.303225	0.506091
C46	C	1.518311	-0.303144	0.780103
C47	C	1.518342	-0.303117	0.896880
C48	C	1.518404	-0.139017	0.506151
C49	C	1.518475	-0.069049	0.506185
C50	C	1.518225	-0.303225	0.233102
C51	C	1.518397	-0.303075	0.116326
C52	C	1.585589	-0.262855	0.951767
C53	C	1.585614	-0.262832	1.061491
C54	C	1.451143	-0.343339	1.061431
C55	C	1.451113	-0.343358	0.951709
C56	C	1.663228	-0.216376	0.951803
C57	C	1.663253	-0.216353	1.061527
H58	H	0.929921	-0.372666	0.727941
O59	O	1.114319	-0.445281	0.615784
C60	C	1.176466	-0.472291	0.695229
H61	H	1.203719	-0.434065	0.751594
H62	H	1.247595	-0.496038	0.658489
H63	H	1.128339	-0.508612	0.739844
O64	O	0.928451	-0.448260	0.624525
C65	C	0.965353	-0.492365	0.698158
H66	H	1.038775	-0.473260	0.737920
H67	H	0.984869	-0.538251	0.656458
H68	H	0.902255	-0.501248	0.759635
O69	O	1.385672	-0.382373	0.898339
C70	C	1.317864	-0.346533	0.834873
H71	H	1.311446	-0.296949	0.867977
H72	H	1.236980	-0.369288	0.833603
H73	H	1.350331	-0.344380	0.751721
H74	H	1.744618	-0.229411	1.091302
H75	H	0.919233	-0.230093	0.384428
O76	O	1.385974	-1.068205	0.638437
C77	C	1.400450	-1.133278	0.624086
H78	H	1.434903	-1.142281	0.543037
H79	H	1.321767	-1.158304	0.631158
H80	H	1.456381	-1.151869	0.686455
O81	O	1.651189	-1.068007	0.373895
C82	C	1.755852	-1.051843	0.397000
H83	H	1.757906	-1.004096	0.437406
H84	H	1.803022	-1.049568	0.321231
H85	H	1.791263	-1.088792	0.451044
H86	H	1.640181	-0.662097	0.384261
H87	H	1.103449	-0.377059	0.731984
H88	H	1.640098	-0.542832	0.384219
O89	O	1.628700	-0.161096	1.102298
C90	C	1.708269	-0.134130	1.164466
H91	H	1.764488	-0.172392	1.191646
H92	H	1.671642	-0.110345	1.235641
H93	H	1.753017	-0.097850	1.116383
O94	O	1.385756	-0.938607	0.638517
C95	C	1.326463	-0.981719	0.697799
H96	H	1.322880	-1.028606	0.654778
H97	H	1.243667	-0.962763	0.708924
H98	H	1.364894	-0.988647	0.777629
H99	H	1.396180	-0.542838	0.627838
H100	H	1.396255	-0.662109	0.627859
O101	O	1.650862	-0.938568	0.373646
C102	C	1.627952	-0.954690	0.268919
H103	H	1.587602	-1.002447	0.266722
H104	H	1.703803	-0.956918	0.221875
H105	H	1.573927	-0.917740	0.233474
O106	O	1.755318	-0.237231	0.911010
C107	C	1.749846	-0.236003	0.800662
H108	H	1.664309	-0.237809	0.775000
H109	H	1.793379	-0.278267	0.767331
H110	H	1.787426	-0.190943	0.770427
H111	H	1.641482	-0.167626	0.922058
O112	O	1.126761	-0.223716	0.373782
C113	C	1.054810	-0.188132	0.314621
H114	H	0.976580	-0.213923	0.310896
H115	H	1.086487	-0.181345	0.231866
H116	H	1.043180	-0.140357	0.353259
O117	O	1.385945	-0.382411	1.114856
C118	C	1.400367	-0.373749	1.223471
H119	H	1.481472	-0.353133	1.238476
H120	H	1.393203	-0.420892	1.265141
H121	H	1.338091	-0.340218	1.254623
