data_functionalizedCrystal
_audit_creation_method	'MofGen! by Chris Wilmer'
_symmetry_space_group_name_H-M	'P1'
_symmetry_Int_Tables_number	1
_symmetry_cell_setting	triclinic
loop_
_symmetry_equiv_pos_as_xyz
  x,y,z
_cell_length_a	11.026607
_cell_length_b	10.967829
_cell_length_c	16.776229
_cell_angle_alpha	77.865496
_cell_angle_beta	89.994019
_cell_angle_gamma	96.380563
loop_
_atom_site_label
_atom_site_type_symbol
_atom_site_fract_x
_atom_site_fract_y
_atom_site_fract_z
O1	O	1.614538	0.523523	-0.138202
O2	O	2.114538	1.023523	0.361798
O3	O	1.260734	0.463910	-0.130014
O4	O	1.760734	0.963910	0.369986
O5	O	1.445793	0.313898	-0.109404
O6	O	1.945793	0.813898	0.390596
O7	O	1.429479	0.673536	-0.158812
O8	O	1.929479	1.173536	0.341188
O9	O	1.445768	0.313880	0.023175
O10	O	1.945768	0.813880	0.523175
O11	O	1.260709	0.463893	0.002565
O12	O	1.760709	0.963893	0.502565
O13	O	1.614513	0.523506	-0.005623
O14	O	2.114513	1.023506	0.494377
Zn15	Zn	1.437607	0.493697	0.019521
Zn16	Zn	1.937607	0.993697	0.519521
Zn17	Zn	1.437640	0.493720	-0.155157
Zn18	Zn	1.937640	0.993720	0.344843
O19	O	1.429454	0.673519	-0.026233
O20	O	1.929454	1.173519	0.473767
C21	C	1.215419	0.452904	-0.062214
C22	C	1.715419	0.952904	0.437786
C23	C	1.080431	0.420120	-0.057711
C24	C	1.580431	0.920120	0.442289
C25	C	1.444592	0.267132	-0.036692
C26	C	1.944592	0.767132	0.463308
C27	C	1.441035	0.127807	-0.017556
C28	C	1.941035	0.627807	0.482444
C29	C	1.007381	0.510642	-0.070148
C30	C	1.507381	1.010642	0.429852
C31	C	0.867864	0.476761	-0.065494
C32	C	1.367864	0.976761	0.434506
C33	C	1.439462	0.065706	-0.077706
C34	C	1.939462	0.565706	0.422294
C35	C	1.435785	-0.078293	-0.057929
C36	C	1.935785	0.421707	0.442071
C37	C	1.659828	0.534512	-0.073424
C38	C	2.159828	1.034512	0.426576
C39	C	1.794816	0.567296	-0.077933
C40	C	2.294816	1.067296	0.422067
C41	C	1.430656	0.720285	-0.098946
C42	C	1.930656	1.220285	0.401054
C43	C	1.434213	0.859610	-0.118087
C44	C	1.934213	1.359610	0.381913
N45	N	1.437594	0.493682	0.138734
N46	N	1.937594	0.993682	0.638734
N47	N	1.437663	0.493726	-0.274370
N48	N	1.937663	0.993726	0.225630
C49	C	1.519563	0.427297	0.189572
C50	C	2.019563	0.927297	0.689572
C51	C	1.519570	0.427298	0.273024
C52	C	2.019570	0.927298	0.773024
C53	C	1.437612	0.493691	0.305636
C54	C	1.937612	0.993691	0.805636
C55	C	1.355634	0.560079	0.254792
C56	C	1.855634	1.060079	0.754792
C57	C	1.355622	0.560070	0.171342
C58	C	1.855622	1.060070	0.671342
C59	C	1.355678	0.560113	0.591334
C60	C	1.855678	1.060113	1.091334
C61	C	1.355698	0.560120	0.674790
C62	C	1.855698	1.060120	1.174790
C63	C	1.519626	0.427341	0.693016
C64	C	2.019626	0.927341	1.193016
C65	C	1.519614	0.427332	0.609567
C66	C	2.019614	0.927332	1.109567
C67	C	1.437632	0.493714	0.558731
C68	C	1.937632	0.993714	1.058731
C69	C	1.437624	0.493710	0.468243
C70	C	1.937624	0.993710	0.968243
C71	C	1.437625	0.493703	0.396121
C72	C	1.937625	0.993703	0.896121
H73	H	1.048129	0.613225	-0.084236
H74	H	1.548129	1.113225	0.415764
H75	H	1.439652	0.074365	0.048581
H76	H	1.939652	0.574365	0.548581
F77	F	1.027178	0.286033	-0.039284
F78	F	1.527178	0.786033	0.460716
F79	F	0.814616	0.342667	-0.047067
F80	F	1.314616	0.842667	0.452933
H81	H	1.440831	0.119147	-0.143842
H82	H	1.940831	0.619147	0.356158
H83	H	1.434403	-0.131730	0.008212
H84	H	1.934403	0.368270	0.508212
H85	H	1.586308	0.373238	0.163025
H86	H	2.086308	0.873238	0.663025
F87	F	1.435971	-0.070557	-0.204540
F88	F	1.935971	0.429443	0.295460
F89	F	1.606809	0.356642	0.327130
F90	F	2.106809	0.856642	0.827130
F91	F	1.606848	0.356673	0.574862
F92	F	2.106848	0.856673	1.074862
F93	F	1.606876	0.356686	0.747126
F94	F	2.106876	0.856686	1.247126
H95	H	1.288928	0.614166	0.549950
H96	H	1.788928	1.114166	1.049950
F97	F	1.268462	0.630787	0.709495
F98	F	1.768462	1.130787	1.209495
F99	F	1.268375	0.630722	0.117238
F100	F	1.768375	1.130722	0.617238
F101	F	0.848061	0.701391	-0.096345
F102	F	1.348061	1.201391	0.403655
F103	F	1.268401	0.630734	0.289501
F104	F	1.768401	1.130734	0.789501
