data_functionalizedCrystal
_audit_creation_method	'MofGen! by Chris Wilmer'
_symmetry_space_group_name_H-M	'P1'
_symmetry_Int_Tables_number	1
_symmetry_cell_setting	triclinic
loop_
_symmetry_equiv_pos_as_xyz
  x,y,z
_cell_length_a	19.805407
_cell_length_b	29.839125
_cell_length_c	19.805404
_cell_angle_alpha	89.982059
_cell_angle_beta	90.028597
_cell_angle_gamma	89.982174
loop_
_atom_site_label
_atom_site_type_symbol
_atom_site_fract_x
_atom_site_fract_y
_atom_site_fract_z
Zn1	Zn	1.034679	-0.254075	-0.269572
Zn2	Zn	1.368013	0.079259	0.063762
Zn3	Zn	1.701346	0.412592	0.397095
Zn4	Zn	1.034601	-0.178944	-0.382737
Zn5	Zn	1.367934	0.154389	-0.049403
Zn6	Zn	1.701268	0.487722	0.283930
Zn7	Zn	0.921506	-0.178950	-0.269565
Zn8	Zn	1.254840	0.154384	0.063768
Zn9	Zn	1.588173	0.487717	0.397101
Zn10	Zn	0.921452	-0.254038	-0.382723
Zn11	Zn	1.254785	0.079295	-0.049389
Zn12	Zn	1.588118	0.412629	0.283944
O13	O	0.978060	-0.216502	-0.326149
O14	O	1.311393	0.116832	0.007184
O15	O	1.644726	0.450165	0.340518
O16	O	1.129385	-0.244121	-0.284592
O17	O	1.462719	0.089212	0.048742
O18	O	1.796052	0.422545	0.382075
O19	O	1.019589	-0.116078	-0.367727
O20	O	1.352922	0.217256	-0.034394
O21	O	1.686256	0.550589	0.298939
O22	O	0.936575	-0.188933	-0.174850
O23	O	1.269908	0.144401	0.158484
O24	O	1.603242	0.477734	0.491817
O25	O	1.129328	-0.188923	-0.367734
O26	O	1.462661	0.144410	-0.034400
O27	O	1.795994	0.477743	0.298933
O28	O	1.019722	-0.244127	-0.174854
O29	O	1.353056	0.089207	0.158479
O30	O	1.686389	0.422540	0.491812
O31	O	0.936499	-0.116082	-0.284581
O32	O	1.269832	0.217252	0.048752
O33	O	1.603166	0.550585	0.382086
O34	O	0.826783	-0.188897	-0.284567
O35	O	1.160116	0.144436	0.048766
O36	O	1.493449	0.477770	0.382099
O37	O	0.936481	-0.316910	-0.367710
O38	O	1.269815	0.016423	-0.034376
O39	O	1.603148	0.349757	0.298957
O40	O	0.826742	-0.244064	-0.367704
O41	O	1.160076	0.089269	-0.034370
O42	O	1.493409	0.422602	0.298963
O43	O	1.019669	-0.316937	-0.284578
O44	O	1.353003	0.016396	0.048755
O45	O	1.686336	0.349730	0.382089
O46	O	1.019536	-0.188888	-0.477451
O47	O	1.352869	0.144445	-0.144118
O48	O	1.686202	0.477779	0.189215
O49	O	0.936405	-0.244059	-0.477441
O50	O	1.269739	0.089274	-0.144108
O51	O	1.603072	0.422608	0.189226
C52	C	0.802204	-0.216478	-0.326134
C53	C	1.135537	0.116856	0.007200
C54	C	1.468870	0.450189	0.340533
C55	C	0.726972	-0.216478	-0.326144
C56	C	1.060305	0.116855	0.007190
C57	C	1.393638	0.450189	0.340523
C58	C	0.265177	-0.245211	-0.369519
C59	C	0.598511	0.088123	-0.036186
C60	C	0.931844	0.421456	0.297147
C61	C	0.335866	-0.245201	-0.369518
C62	C	0.669199	0.088132	-0.036185
C63	C	1.002532	0.421465	0.297148
C64	C	0.371210	-0.216519	-0.326165
C65	C	0.704543	0.116814	0.007168
C66	C	1.037876	0.450148	0.340501
C67	C	0.335862	-0.187841	-0.282816
C68	C	0.669195	0.145492	0.050518
C69	C	1.002529	0.478825	0.383851
C70	C	0.265175	-0.187849	-0.282821
C71	C	0.598508	0.145484	0.050513
C72	C	0.931841	0.478818	0.383846
C73	C	0.620935	-0.187810	-0.282795
C74	C	0.954268	0.145524	0.050538
C75	C	1.287602	0.478857	0.383872
C76	C	0.691627	-0.187805	-0.282792
C77	C	1.024961	0.145528	0.050541
C78	C	1.358294	0.478861	0.383875
C79	C	0.691626	-0.245162	-0.369493
C80	C	1.024959	0.088171	-0.036159
C81	C	1.358293	0.421505	0.297174
C82	C	0.620939	-0.245170	-0.369498
C83	C	0.954272	0.088164	-0.036164
C84	C	1.287606	0.421497	0.297169
C85	C	0.585597	-0.216491	-0.326151
C86	C	0.918931	0.116843	0.007183
C87	C	1.252264	0.450176	0.340516
C88	C	0.508949	-0.216501	-0.326153
C89	C	0.842282	0.116833	0.007180
C90	C	1.175615	0.450166	0.340513
C91	C	0.447857	-0.216511	-0.326159
C92	C	0.781190	0.116822	0.007174
C93	C	1.114524	0.450156	0.340508
C94	C	0.978078	-0.333680	-0.326143
C95	C	1.311411	-0.000347	0.007190
C96	C	1.644745	0.332987	0.340524
C97	C	0.978086	-0.383614	-0.326140
C98	C	1.311419	-0.050281	0.007193
C99	C	1.644752	0.283052	0.340526
C100	C	1.021447	-0.693275	-0.282741
C101	C	1.354780	-0.359942	0.050593
C102	C	1.688114	-0.026608	0.383926
C103	C	1.021481	-0.880948	-0.282683
C104	C	1.354814	-0.547615	0.050651
C105	C	1.688147	-0.214281	0.383984
O106	O	1.058298	-0.905227	-0.245847
O107	O	1.391631	-0.571894	0.087487
O108	O	1.724965	-0.238561	0.420820
N109	N	0.978175	-0.904400	-0.325959
N110	N	1.311509	-0.571066	0.007374
N111	N	1.644842	-0.237733	0.340708
C112	C	0.934855	-0.880930	-0.369250
C113	C	1.268189	-0.547597	-0.035917
C114	C	1.601522	-0.214264	0.297417
O115	O	0.898018	-0.905184	-0.406053
O116	O	1.231351	-0.571850	-0.072720
O117	O	1.564684	-0.238517	0.260614
C118	C	0.934819	-0.693258	-0.369304
C119	C	1.268152	-0.359925	-0.035970
C120	C	1.601486	-0.026591	0.297363
C121	C	0.978132	-0.669809	-0.326029
C122	C	1.311465	-0.336475	0.007304
C123	C	1.644799	-0.003142	0.340637
C124	C	1.064756	-0.669826	-0.239469
C125	C	1.398089	-0.336492	0.093864
C126	C	1.731423	-0.003159	0.427198
C127	C	1.064750	-0.622910	-0.239487
C128	C	1.398083	-0.289577	0.093847
C129	C	1.731416	0.043757	0.427180
C130	C	1.021435	-0.599444	-0.282775
C131	C	1.354768	-0.266111	0.050558
C132	C	1.688101	0.067223	0.383891
C133	C	0.978126	-0.622893	-0.326047
C134	C	1.311459	-0.289560	0.007287
C135	C	1.644792	0.043773	0.340620
C136	C	0.891496	-0.669789	-0.412591
C137	C	1.224830	-0.336456	-0.079257
C138	C	1.558163	-0.003123	0.254076
C139	C	0.891490	-0.622868	-0.412599
C140	C	1.224823	-0.289535	-0.079266
C141	C	1.558156	0.043798	0.254068
C142	C	0.934803	-0.599419	-0.369325
C143	C	1.268136	-0.266086	-0.035991
C144	C	1.601469	0.067248	0.297342
C145	C	0.934804	-0.552512	-0.369353
C146	C	1.268138	-0.219178	-0.036020
C147	C	1.601471	0.114155	0.297314
N148	N	0.978110	-0.529060	-0.326077
N149	N	1.311443	-0.195727	0.007257
N150	N	1.644776	0.137607	0.340590
C151	C	1.021425	-0.552526	-0.282788
C152	C	1.354758	-0.219193	0.050545
C153	C	1.688092	0.114141	0.383879
C154	C	0.934879	-0.979461	-0.369220
C155	C	1.268212	-0.646128	-0.035886
C156	C	1.601545	-0.312794	0.297447
C157	C	0.934888	-1.026379	-0.369207
C158	C	1.268222	-0.693045	-0.035874
C159	C	1.601555	-0.359712	0.297460
C160	C	1.021513	-1.026393	-0.282639
C161	C	1.354846	-0.693060	0.050694
C162	C	1.688180	-0.359727	0.384028
C163	C	1.021506	-0.979475	-0.282655
C164	C	1.354839	-0.646141	0.050678
C165	C	1.688173	-0.312808	0.384011
C166	C	0.978184	-0.956009	-0.325943
C167	C	1.311517	-0.622676	0.007390
C168	C	1.644851	-0.289343	0.340724
C169	C	1.021409	-0.454000	-0.282828
C170	C	1.354742	-0.120667	0.050505
C171	C	1.688076	0.212666	0.383838
C172	C	1.021401	-0.407081	-0.282852
C173	C	1.354734	-0.073747	0.050482
C174	C	1.688067	0.259586	0.383815
C175	C	0.934774	-0.407070	-0.369417
C176	C	1.268107	-0.073737	-0.036084
C177	C	1.601441	0.259597	0.297250
C178	C	0.934784	-0.453986	-0.369396
C179	C	1.268118	-0.120652	-0.036063
C180	C	1.601451	0.212681	0.297270
C181	C	0.978104	-0.477450	-0.326097
C182	C	1.311437	-0.144116	0.007237
C183	C	1.644771	0.189217	0.340570
O184	O	0.898001	-0.528203	-0.406165
O185	O	1.231335	-0.194870	-0.072831
O186	O	1.564668	0.138463	0.260502
O187	O	1.058247	-0.528265	-0.245980
O188	O	1.391580	-0.194931	0.087353
O189	O	1.724913	0.138402	0.420687
C190	C	1.021453	-0.740190	-0.282723
C191	C	1.354787	-0.406857	0.050610
C192	C	1.688120	-0.073524	0.383944
C193	C	0.978144	-0.763640	-0.325994
C194	C	1.311478	-0.430306	0.007339
C195	C	1.644811	-0.096973	0.340672
C196	C	0.934829	-0.740173	-0.369283
C197	C	1.268163	-0.406840	-0.035950
C198	C	1.601496	-0.073507	0.297383
C199	C	0.978154	-0.810558	-0.325982
C200	C	1.311488	-0.477224	0.007351
C201	C	1.644821	-0.143891	0.340685
C202	C	1.021469	-0.834024	-0.282693
C203	C	1.354803	-0.500690	0.050640
C204	C	1.688136	-0.167357	0.383974
C205	C	1.064775	-0.810572	-0.239417
C206	C	1.398108	-0.477239	0.093917
C207	C	1.731441	-0.143905	0.427250
C208	C	1.064769	-0.763657	-0.239434
C209	C	1.398102	-0.430323	0.093899
C210	C	1.731435	-0.096990	0.427232
C211	C	0.891524	-0.763625	-0.412560
C212	C	1.224857	-0.430292	-0.079226
C213	C	1.558191	-0.096958	0.254107
C214	C	0.891534	-0.810541	-0.412539
C215	C	1.224868	-0.477207	-0.079206
C216	C	1.558201	-0.143874	0.254128
C217	C	0.934849	-0.834007	-0.369250
C218	C	1.268183	-0.500674	-0.035917
C219	C	1.601516	-0.167340	0.297416
C220	C	1.154602	-0.216526	-0.326165
C221	C	1.487936	0.116807	0.007168
C222	C	1.821269	0.450141	0.340502
C223	C	1.229834	-0.216536	-0.326172
C224	C	1.563168	0.116797	0.007162
C225	C	1.896501	0.450130	0.340495
C226	C	0.977974	-0.216479	-0.502005
C227	C	1.311308	0.116855	-0.168672
C228	C	1.644641	0.450188	0.164662
C229	C	0.978000	-0.216484	-0.577237
C230	C	1.311333	0.116849	-0.243904
C231	C	1.644667	0.450183	0.089430
C232	C	0.978080	-0.099779	-0.326106
C233	C	1.311414	0.233554	0.007227
C234	C	1.644747	0.566888	0.340560
C235	C	0.978204	-0.049845	-0.325918
C236	C	1.311537	0.283488	0.007415
C237	C	1.644870	0.616822	0.340748
C238	C	1.021446	-0.245304	-1.038972
C239	C	1.354780	0.088029	-0.705638
C240	C	1.688113	0.421362	-0.372305
C241	C	1.021420	-0.245294	-0.968283
C242	C	1.354753	0.088039	-0.634950
C243	C	1.688086	0.421373	-0.301616
C244	C	0.978150	-0.216529	-0.932999
C245	C	1.311484	0.116804	-0.599665
C246	C	1.644817	0.450137	-0.266332
C247	C	0.934910	-0.187770	-0.968407
C248	C	1.268243	0.145563	-0.635073
C249	C	1.601577	0.478897	-0.301740
C250	C	0.934941	-0.187779	-1.039094
C251	C	1.268274	0.145555	-0.705760
C252	C	1.601607	0.478888	-0.372427
C253	C	0.934786	-0.187735	-0.683333
C254	C	1.268119	0.145598	-0.350000
C255	C	1.601453	0.478932	-0.016667
C256	C	0.934757	-0.187730	-0.612641
C257	C	1.268091	0.145603	-0.279308
C258	C	1.601424	0.478937	0.054025
C259	C	1.021265	-0.245251	-0.612523
C260	C	1.354598	0.088083	-0.279189
C261	C	1.687932	0.421416	0.054144
C262	C	1.021296	-0.245259	-0.683210
C263	C	1.354629	0.088074	-0.349877
C264	C	1.687962	0.421408	-0.016543
C265	C	0.978058	-0.216498	-0.718611
C266	C	1.311391	0.116835	-0.385278
C267	C	1.644725	0.450168	-0.051945
C268	C	0.978089	-0.216509	-0.795260
C269	C	1.311422	0.116824	-0.461927
C270	C	1.644755	0.450157	-0.128593
C271	C	0.978116	-0.216520	-0.856352
C272	C	1.311449	0.116813	-0.523018
C273	C	1.644783	0.450146	-0.189685
C274	C	0.978164	-0.216534	-0.149606
C275	C	1.311497	0.116799	0.183727
C276	C	1.644830	0.450132	0.517060
C277	C	0.978208	-0.216548	-0.074374
C278	C	1.311541	0.116785	0.258959
C279	C	1.644874	0.450118	0.592292
H280	H	0.720410	-0.268513	-0.404789
H281	H	1.053743	0.064820	-0.071456
H282	H	1.387077	0.398154	0.261877
H283	H	0.236405	-0.268570	-0.404819
H284	H	0.569738	0.064764	-0.071485
H285	H	0.903072	0.398097	0.261848
H286	H	1.100018	-0.603822	-0.204247
H287	H	1.433352	-0.270489	0.129086
H288	H	1.766685	0.062845	0.462420
H289	H	0.364639	-0.268550	-0.404818
H290	H	0.697972	0.064783	-0.071485
H291	H	1.031306	0.398117	0.261849
H292	H	1.100046	-0.829686	-0.204172
H293	H	1.433379	-0.496353	0.129162
H294	H	1.766712	-0.163020	0.462495
H295	H	0.364645	-0.164486	-0.247520
H296	H	0.697978	0.168847	0.085813
H297	H	1.031311	0.502181	0.419147
H298	H	0.856265	-0.829629	-0.447785
H299	H	1.189598	-0.496296	-0.114451
H300	H	1.522931	-0.162962	0.218882
H301	H	0.856204	-0.603765	-0.447843
H302	H	1.189537	-0.270432	-0.114509
H303	H	1.522870	0.062901	0.218824
H304	H	0.720402	-0.164448	-0.247486
H305	H	1.053736	0.168885	0.085847
H306	H	1.387069	0.502219	0.419181
H307	H	0.899510	-0.387955	-0.404664
H308	H	1.232843	-0.054622	-0.071330
H309	H	1.566177	0.278711	0.262003
H310	H	1.056474	-0.268668	-0.583691
H311	H	1.389807	0.064665	-0.250358
H312	H	1.723141	0.397999	0.082975
H313	H	1.100038	-0.744568	-0.204195
H314	H	1.433371	-0.411235	0.129138
H315	H	1.766705	-0.077902	0.462471
H316	H	1.056628	-0.268709	-0.939458
H317	H	1.389961	0.064624	-0.606125
H318	H	1.723295	0.397958	-0.272792
H319	H	0.856226	-0.688874	-0.447829
H320	H	1.189559	-0.355540	-0.114496
H321	H	1.522893	-0.022207	0.218838
H322	H	0.592165	-0.268527	-0.404798
H323	H	0.925499	0.064806	-0.071464
H324	H	1.258832	0.398139	0.261869
H325	H	1.056527	-0.268684	-0.711935
H326	H	1.389861	0.064650	-0.378602
H327	H	1.723194	0.397983	-0.045268
H328	H	0.592168	-0.164456	-0.247502
H329	H	0.925502	0.168878	0.085831
H330	H	1.258835	0.502211	0.419165
H331	H	0.899521	-0.164305	-0.583914
H332	H	1.232855	0.169029	-0.250581
H333	H	1.566188	0.502362	0.082753
H334	H	0.899601	-0.960360	-0.404474
H335	H	1.232934	-0.627026	-0.071141
H336	H	1.566268	-0.293693	0.262192
H337	H	0.236399	-0.164500	-0.247521
H338	H	0.569733	0.168833	0.085813
H339	H	0.903066	0.502166	0.419146
H340	H	1.056674	-0.387990	-0.247612
H341	H	1.390007	-0.054657	0.085722
H342	H	1.723341	0.278676	0.419055
H343	H	0.856252	-0.744524	-0.447812
H344	H	1.189585	-0.411190	-0.114479
H345	H	1.522918	-0.077857	0.218854
H346	H	1.056682	-0.473099	-0.247567
H347	H	1.390015	-0.139766	0.085766
H348	H	1.723348	0.193568	0.419099
H349	H	1.100029	-0.688927	-0.204214
H350	H	1.433362	-0.355593	0.129119
H351	H	1.766695	-0.022260	0.462452
H352	H	1.056774	-0.960385	-0.247416
H353	H	1.390108	-0.627052	0.085917
H354	H	1.723441	-0.293719	0.419250
H355	H	0.899579	-0.164316	-0.712149
H356	H	1.232912	0.169017	-0.378815
H357	H	1.566246	0.502350	-0.045482
H358	H	1.056782	-1.045507	-0.247392
H359	H	1.390116	-0.712174	0.085942
H360	H	1.723449	-0.378841	0.419275
H361	H	0.899626	-1.045467	-0.404453
H362	H	1.232959	-0.712134	-0.071119
H363	H	1.566293	-0.378801	0.262214
H364	H	0.899522	-0.473079	-0.404640
H365	H	1.232855	-0.139746	-0.071307
H366	H	1.566188	0.193588	0.262026
H367	H	1.056675	-0.268732	-1.067695
H368	H	1.390008	0.064601	-0.734362
H369	H	1.723341	0.397934	-0.401028
H370	H	0.899682	-0.164347	-0.939674
H371	H	1.233015	0.168986	-0.606341
H372	H	1.566348	0.502320	-0.273007
H373	H	0.899731	-0.164362	-1.067918
H374	H	1.233065	0.168971	-0.734584
H375	H	1.566398	0.502304	-0.401251
