data_functionalizedCrystal
_audit_creation_method	'MofGen! by Chris Wilmer'
_symmetry_space_group_name_H-M	'P1'
_symmetry_Int_Tables_number	1
_symmetry_cell_setting	triclinic
loop_
_symmetry_equiv_pos_as_xyz
  x,y,z
_cell_length_a	19.288864
_cell_length_b	26.809956
_cell_length_c	19.288857
_cell_angle_alpha	89.997823
_cell_angle_beta	83.134677
_cell_angle_gamma	90.022644
loop_
_atom_site_label
_atom_site_type_symbol
_atom_site_fract_x
_atom_site_fract_y
_atom_site_fract_z
O1	O	0.921351	0.041642	0.086638
O2	O	1.254685	0.374975	0.419971
O3	O	1.588018	0.708309	0.753305
O4	O	0.719090	0.041608	0.098327
O5	O	1.052424	0.374941	0.431660
O6	O	1.385757	0.708275	0.764994
O7	O	0.826068	0.041620	-0.008648
O8	O	1.159401	0.374953	0.324685
O9	O	1.492735	0.708287	0.658019
O10	O	0.814374	0.041630	0.193613
O11	O	1.147707	0.374963	0.526947
O12	O	1.481040	0.708297	0.860280
O13	O	0.826048	-0.041339	-0.008632
O14	O	1.159381	0.291994	0.324702
O15	O	1.492715	0.625327	0.658035
O16	O	0.719070	-0.041351	0.098343
O17	O	1.052404	0.291982	0.431677
O18	O	1.385737	0.625316	0.765010
O19	O	0.921331	-0.041317	0.086654
O20	O	1.254665	0.292016	0.419988
O21	O	1.587998	0.625349	0.753321
Zn22	Zn	0.820198	-0.054506	0.092501
Zn23	Zn	1.153531	0.278827	0.425835
Zn24	Zn	1.486864	0.612161	0.759168
Zn25	Zn	0.820224	0.054797	0.092480
Zn26	Zn	1.153557	0.388130	0.425813
Zn27	Zn	1.486891	0.721463	0.759147
O28	O	0.814354	-0.041329	0.193630
O29	O	1.147687	0.292004	0.526963
O30	O	1.481020	0.625337	0.860296
C31	C	0.693204	0.000124	0.097959
C32	C	1.026537	0.333457	0.431292
C33	C	1.359871	0.666791	0.764626
C34	C	0.616100	0.000111	0.096830
C35	C	0.949434	0.333444	0.430163
C36	C	1.282767	0.666778	0.763497
N37	N	0.820184	-0.129102	0.092516
N38	N	1.153518	0.204232	0.425849
N39	N	1.486851	0.537565	0.759182
C40	C	0.571402	0.000122	0.159598
C41	C	0.904736	0.333455	0.492931
C42	C	1.238069	0.666789	0.826265
C43	C	0.498955	0.000127	0.158537
C44	C	0.832289	0.333461	0.491871
C45	C	1.165622	0.666794	0.825204
C46	C	0.471210	0.000132	0.094705
C47	C	0.804543	0.333465	0.428038
C48	C	1.137876	0.666799	0.761372
C49	C	0.515917	0.000118	0.031929
C50	C	0.849251	0.333451	0.365262
C51	C	1.182584	0.666785	0.698595
C52	C	0.588363	0.000108	0.032991
C53	C	0.921696	0.333441	0.366324
C54	C	1.255029	0.666774	0.699658
C55	C	0.362956	0.029210	0.044520
C56	C	0.696289	0.362544	0.377853
C57	C	1.029623	0.695877	0.711187
C58	C	0.290512	0.029224	0.043460
C59	C	0.623845	0.362557	0.376793
C60	C	0.957178	0.695891	0.710127
C61	C	0.247764	0.000162	0.091425
C62	C	0.581097	0.333495	0.424759
C63	C	0.914431	0.666829	0.758092
C64	C	0.277468	-0.028907	0.140462
C65	C	0.610802	0.304426	0.473796
C66	C	0.944135	0.637759	0.807129
C67	C	0.349914	-0.028918	0.141525
C68	C	0.683247	0.304416	0.474858
C69	C	1.016580	0.637749	0.808191
C70	C	0.392656	0.000143	0.093546
C71	C	0.725989	0.333476	0.426879
C72	C	1.059322	0.666810	0.760213
C73	C	0.124510	0.000178	0.153048
C74	C	0.457843	0.333511	0.486381
C75	C	0.791177	0.666845	0.819714
C76	C	0.052062	0.000180	0.151984
C77	C	0.385395	0.333514	0.485318
C78	C	0.718729	0.666847	0.818651
C79	C	0.069026	0.000176	0.025374
C80	C	0.402359	0.333510	0.358707
C81	C	0.735692	0.666843	0.692040
C82	C	0.141472	0.000169	0.026439
C83	C	0.474805	0.333502	0.359772
C84	C	0.808139	0.666835	0.693106
C85	C	0.169210	0.000172	0.090278
C86	C	0.502543	0.333505	0.423611
C87	C	0.835876	0.666839	0.756944
C88	C	0.867588	-0.473723	0.045123
C89	C	1.200921	-0.140389	0.378456
C90	C	1.534254	0.192944	0.711790
C91	C	0.867604	-0.682600	0.045112
C92	C	1.200938	-0.349267	0.378446
C93	C	1.534271	-0.015934	0.711779
O94	O	0.907880	-0.709600	0.004822
O95	O	1.241213	-0.376266	0.338155
O96	O	1.574547	-0.042933	0.671488
N97	N	0.820228	-0.708729	0.092465
N98	N	1.153561	-0.375396	0.425798
N99	N	1.486895	-0.042062	0.759131
C100	C	0.772841	-0.682635	0.139820
C101	C	1.106174	-0.349302	0.473153
C102	C	1.439508	-0.015968	0.806486
O103	O	0.732540	-0.709652	0.180091
O104	O	1.065874	-0.376318	0.513424
O105	O	1.399207	-0.042985	0.846757
C106	C	0.772822	-0.473758	0.139827
C107	C	1.106155	-0.140425	0.473160
C108	C	1.439489	0.192909	0.806493
C109	C	0.820206	-0.447632	0.092476
C110	C	1.153539	-0.114299	0.425809
C111	C	1.486873	0.219034	0.759143
C112	C	0.914967	-0.447597	-0.002224
C113	C	1.248301	-0.114263	0.331109
C114	C	1.581634	0.219070	0.664442
C115	C	0.914965	-0.395380	-0.002219
C116	C	1.248299	-0.062047	0.331115
C117	C	1.581632	0.271286	0.664448
C118	C	0.867584	-0.369290	0.045134
C119	C	1.200917	-0.035957	0.378468
C120	C	1.534250	0.297377	0.711801
C121	C	0.820204	-0.395416	0.092482
C122	C	1.153537	-0.062083	0.425815
C123	C	1.486871	0.271251	0.759148
C124	C	0.725432	-0.447665	0.187178
C125	C	1.058766	-0.114332	0.520511
C126	C	1.392099	0.219002	0.853845
C127	C	0.725431	-0.395443	0.187174
C128	C	1.058764	-0.062109	0.520508
C129	C	1.392097	0.271224	0.853841
C130	C	0.772815	-0.369317	0.139824
C131	C	1.106148	-0.035983	0.473157
C132	C	1.439481	0.297350	0.806490
C133	C	0.772820	-0.317109	0.139840
C134	C	1.106153	0.016224	0.473174
C135	C	1.439487	0.349557	0.806507
N136	N	0.820196	-0.290981	0.092488
N137	N	1.153530	0.042353	0.425821
N138	N	1.486863	0.375686	0.759155
C139	C	0.867578	-0.317071	0.045135
C140	C	1.200911	0.016262	0.378468
C141	C	1.534245	0.349596	0.711802
C142	C	0.772855	-0.792298	0.139814
C143	C	1.106189	-0.458965	0.473147
C144	C	1.439522	-0.125632	0.806481
C145	C	0.772861	-0.844517	0.139813
C146	C	1.106194	-0.511184	0.473146
C147	C	1.439528	-0.177850	0.806480
C148	C	0.867623	-0.844479	0.045105
C149	C	1.200957	-0.511146	0.378438
C150	C	1.534290	-0.177812	0.711771
C151	C	0.867621	-0.792259	0.045109
C152	C	1.200954	-0.458926	0.378443
C153	C	1.534287	-0.125592	0.711776
C154	C	0.820232	-0.766170	0.092462
C155	C	1.153565	-0.432836	0.425795
C156	C	1.486898	-0.099503	0.759128
C157	C	0.867571	-0.207413	0.045151
C158	C	1.200904	0.125920	0.378484
C159	C	1.534237	0.459254	0.711818
C160	C	0.867566	-0.155192	0.045163
C161	C	1.200900	0.178141	0.378496
C162	C	1.534233	0.511475	0.711829
C163	C	0.772802	-0.155235	0.139868
C164	C	1.106135	0.178098	0.473202
C165	C	1.439468	0.511432	0.806535
C166	C	0.772808	-0.207451	0.139859
C167	C	1.106141	0.125882	0.473193
C168	C	1.439475	0.459215	0.806526
C169	C	0.820195	-0.233539	0.092495
C170	C	1.153529	0.099794	0.425828
C171	C	1.486862	0.433128	0.759162
O172	O	0.732560	-0.290078	0.180105
O173	O	1.065894	0.043256	0.513438
O174	O	1.399227	0.376589	0.846771
O175	O	0.907863	-0.290045	0.004860
O176	O	1.241196	0.043288	0.338193
O177	O	1.574529	0.376621	0.671527
C178	C	0.867590	-0.525939	0.045117
C179	C	1.200923	-0.192606	0.378451
C180	C	1.534256	0.140728	0.711784
C181	C	0.820210	-0.552065	0.092465
C182	C	1.153543	-0.218732	0.425798
C183	C	1.486877	0.114602	0.759131
C184	C	0.772828	-0.525975	0.139818
C185	C	1.106162	-0.192641	0.473151
C186	C	1.439495	0.140692	0.806484
C187	C	0.820216	-0.604284	0.092464
C188	C	1.153549	-0.270950	0.425797
C189	C	1.486882	0.062383	0.759131
C190	C	0.867597	-0.630374	0.045111
C191	C	1.200931	-0.297041	0.378444
C192	C	1.534264	0.036293	0.711778
C193	C	0.914974	-0.604246	-0.002241
C194	C	1.248307	-0.270912	0.331092
C195	C	1.581640	0.062421	0.664426
C196	C	0.914972	-0.552029	-0.002235
C197	C	1.248305	-0.218696	0.331098
C198	C	1.581638	0.114637	0.664431
C199	C	0.725452	-0.552103	0.187170
C200	C	1.058785	-0.218770	0.520503
C201	C	1.392119	0.114564	0.853836
C202	C	0.725458	-0.604319	0.187161
C203	C	1.058792	-0.270986	0.520494
C204	C	1.392125	0.062347	0.853827
C205	C	0.772840	-0.630410	0.139808
C206	C	1.106174	-0.297076	0.473141
C207	C	1.439507	0.036257	0.806475
C208	C	0.947218	0.000168	0.087022
C209	C	1.280551	0.333501	0.420356
C210	C	1.613884	0.666834	0.753689
C211	C	1.024321	0.000184	0.088151
C212	C	1.357655	0.333517	0.421485
C213	C	1.690988	0.666851	0.754818
C214	C	0.825683	0.000140	-0.034517
C215	C	1.159016	0.333473	0.298817
C216	C	1.492349	0.666806	0.632150
C217	C	0.824556	0.000138	-0.111620
C218	C	1.157889	0.333472	0.221713
C219	C	1.491222	0.666805	0.555046
N220	N	0.820243	0.129393	0.092460
N221	N	1.153576	0.462726	0.425794
N222	N	1.486909	0.796059	0.759127
C223	C	0.824041	0.045359	-0.147840
C224	C	1.157374	0.378693	0.185493
C225	C	1.490708	0.712026	0.518827
C226	C	0.822972	0.045363	-0.220286
C227	C	1.156305	0.378696	0.113047
C228	C	1.489639	0.712029	0.446381
C229	C	0.822432	0.000143	-0.256512
C230	C	1.155766	0.333476	0.076822
C231	C	1.489099	0.666809	0.410155
C232	C	0.822943	-0.045084	-0.220283
C233	C	1.156277	0.288249	0.113051
C234	C	1.489610	0.621582	0.446384
C235	C	0.824005	-0.045087	-0.147837
C236	C	1.157338	0.288247	0.185496
C237	C	1.490672	0.621580	0.518829
C238	C	0.861426	-0.034492	-0.376736
C239	C	1.194759	0.298841	-0.043403
C240	C	1.528092	0.632175	0.289931
C241	C	0.860368	-0.034488	-0.449181
C242	C	1.193701	0.298845	-0.115848
C243	C	1.527035	0.632179	0.217486
C244	C	0.819155	0.000148	-0.479957
C245	C	1.152488	0.333481	-0.146624
C246	C	1.485821	0.666814	0.186709
C247	C	0.779008	0.034788	-0.438281
C248	C	1.112341	0.368121	-0.104948
C249	C	1.445674	0.701454	0.228385
C250	C	0.780069	0.034785	-0.365836
C251	C	1.113403	0.368119	-0.032502
C252	C	1.446736	0.701452	0.300831
C253	C	0.821281	0.000140	-0.335067
C254	C	1.154614	0.333473	-0.001733
C255	C	1.487947	0.666807	0.331600
C256	C	0.817480	0.045376	-0.594731
C257	C	1.150813	0.378709	-0.261398
C258	C	1.484147	0.712042	0.071936
C259	C	0.816407	0.045377	-0.667178
C260	C	1.149740	0.378711	-0.333844
C261	C	1.483073	0.712044	-0.000511
C262	C	0.816385	-0.045071	-0.667174
C263	C	1.149718	0.288262	-0.333841
C264	C	1.483052	0.621596	-0.000507
C265	C	0.817451	-0.045071	-0.594728
C266	C	1.150784	0.288262	-0.261394
C267	C	1.484118	0.621595	0.071939
C268	C	0.818002	0.000153	-0.558511
C269	C	1.151335	0.333487	-0.225178
C270	C	1.484668	0.666820	0.108156
C271	C	0.814739	0.000152	0.219498
C272	C	1.148072	0.333485	0.552831
C273	C	1.481406	0.666819	0.886165
C274	C	0.815866	0.000157	0.296602
C275	C	1.149199	0.333490	0.629935
C276	C	1.482533	0.666824	0.963268
H277	H	0.593981	0.000126	0.211581
H278	H	0.927314	0.333459	0.544914
H279	H	1.260648	0.666792	0.878247
Cl280	Cl	0.913261	-0.078027	-0.338057
Cl281	Cl	1.246594	0.255306	-0.004723
Cl282	Cl	1.579927	0.588639	0.328610
H283	H	0.745448	0.062992	-0.463337
H284	H	1.078781	0.396325	-0.130004
H285	H	1.412114	0.729658	0.203329
H286	H	0.747379	0.062990	-0.331906
H287	H	1.080712	0.396323	0.001428
H288	H	1.414045	0.729656	0.334761
H289	H	0.906157	-0.228648	0.006582
H290	H	1.239490	0.104685	0.339915
H291	H	1.572823	0.438019	0.673248
Cl292	Cl	0.974532	-0.362542	-0.061752
Cl293	Cl	1.307865	-0.029209	0.271582
Cl294	Cl	1.641198	0.304125	0.604915
H295	H	0.953556	-0.625497	-0.040796
H296	H	1.286890	-0.292163	0.292538
H297	H	1.620223	0.041170	0.625871
H298	H	0.624757	0.000099	-0.018124
H299	H	0.958090	0.333432	0.315209
H300	H	1.291423	0.666766	0.648543
Cl301	Cl	0.974542	-0.519192	-0.061766
Cl302	Cl	1.307875	-0.185859	0.271567
Cl303	Cl	1.641209	0.147474	0.604901
H304	H	0.462555	0.000135	0.209652
H305	H	0.795889	0.333468	0.542986
H306	H	1.129222	0.666802	0.876319
Cl307	Cl	0.818166	0.102228	-0.549197
Cl308	Cl	1.151500	0.435562	-0.215864
Cl309	Cl	1.484833	0.768895	0.117469
H310	H	0.734265	-0.771060	0.178376
H311	H	1.067598	-0.437726	0.511709
H312	H	1.400931	-0.104393	0.845042
H313	H	0.266332	0.052896	0.003534
H314	H	0.599665	0.386229	0.336867
H315	H	0.932999	0.719563	0.670201
H316	H	0.906154	-0.133922	0.006604
H317	H	1.239488	0.199411	0.339938
H318	H	1.572821	0.532745	0.673271
Cl319	Cl	0.974541	-0.480387	-0.061761
Cl320	Cl	1.307875	-0.147054	0.271572
Cl321	Cl	1.641208	0.186279	0.604905
Cl322	Cl	0.927190	-0.759421	-0.014421
Cl323	Cl	1.260523	-0.426087	0.318912
Cl324	Cl	1.593857	-0.092754	0.652246
H325	H	0.906205	-0.865730	0.006549
H326	H	1.239538	-0.532397	0.339882
H327	H	1.572871	-0.199064	0.673216
H328	H	0.822549	0.082188	-0.249781
H329	H	1.155882	0.415522	0.083552
H330	H	1.489215	0.748855	0.416886
H331	H	0.817876	-0.081895	-0.565238
H332	H	1.151210	0.251438	-0.231905
H333	H	1.484543	0.584771	0.101428
Cl334	Cl	0.416689	0.065749	-0.015786
Cl335	Cl	0.750022	0.399083	0.317548
Cl336	Cl	1.083356	0.732416	0.650881
H337	H	0.815984	0.082203	-0.696666
H338	H	1.149317	0.415537	-0.363333
H339	H	1.482651	0.748870	-0.029999
H340	H	0.374096	-0.052588	0.181450
H341	H	0.707429	0.280745	0.514784
H342	H	1.040763	0.614078	0.848117
Cl343	Cl	0.481038	0.000121	-0.048318
Cl344	Cl	0.814371	0.333454	0.285015
Cl345	Cl	1.147705	0.666788	0.618349
Cl346	Cl	0.713239	-0.122427	0.199396
Cl347	Cl	1.046572	0.210906	0.532729
Cl348	Cl	1.379905	0.544239	0.866063
Cl349	Cl	0.713299	-0.877355	0.199351
Cl350	Cl	1.046633	-0.544022	0.532684
Cl351	Cl	1.379966	-0.210689	0.866018
H352	H	0.686874	-0.625588	0.225725
H353	H	1.020207	-0.292254	0.559059
H354	H	1.353541	0.041079	0.892392
H355	H	0.822502	-0.081903	-0.249782
H356	H	1.155835	0.251430	0.083551
H357	H	1.489169	0.584764	0.416885
H358	H	0.177867	0.000163	-0.024674
H359	H	0.511200	0.333496	0.308660
H360	H	0.844533	0.666829	0.641993
Cl361	Cl	0.159384	0.000177	0.233300
Cl362	Cl	0.492717	0.333511	0.566634
Cl363	Cl	0.826050	0.666844	0.899967
H364	H	0.824421	-0.081912	-0.118347
H365	H	1.157755	0.251421	0.214986
H366	H	1.491088	0.584754	0.548319
H367	H	0.242664	-0.052573	0.179520
H368	H	0.575998	0.280760	0.512853
H369	H	0.909331	0.614094	0.846187
H370	H	0.815940	-0.081890	-0.696668
H371	H	1.149274	0.251443	-0.363334
H372	H	1.482607	0.584777	-0.030001
Cl373	Cl	0.665859	-0.480499	0.246705
Cl374	Cl	0.999193	-0.147165	0.580039
Cl375	Cl	1.332526	0.186168	0.913372
Cl376	Cl	0.910841	-0.078033	-0.501567
Cl377	Cl	1.244174	0.255300	-0.168233
Cl378	Cl	1.577507	0.588634	0.165100
Cl379	Cl	0.665882	-0.519310	0.246705
Cl380	Cl	0.999215	-0.185977	0.580039
Cl381	Cl	1.332548	0.147356	0.913372
Cl382	Cl	-0.004132	0.000192	0.230901
Cl383	Cl	0.329202	0.333525	0.564234
Cl384	Cl	0.662535	0.666858	0.897567
H385	H	0.046436	0.000211	-0.026600
H386	H	0.379769	0.333544	0.306734
H387	H	0.713103	0.666877	0.640067
Cl388	Cl	0.665850	-0.362648	0.246706
Cl389	Cl	0.999184	-0.029315	0.580039
Cl390	Cl	1.332517	0.304018	0.913373
Cl391	Cl	0.824728	0.102213	-0.102313
Cl392	Cl	1.158061	0.435547	0.231020
Cl393	Cl	1.491395	0.768880	0.564353
Cl394	Cl	0.713245	-0.240294	0.199395
Cl395	Cl	1.046578	0.093040	0.532728
Cl396	Cl	1.379912	0.426373	0.866062
