data_functionalizedCrystal
_audit_creation_method	'MofGen! by Chris Wilmer'
_symmetry_space_group_name_H-M	'P1'
_symmetry_Int_Tables_number	1
_symmetry_cell_setting	triclinic
loop_
_symmetry_equiv_pos_as_xyz
  x,y,z
_cell_length_a	10.654554
_cell_length_b	14.853559
_cell_length_c	9.730223
_cell_angle_alpha	90.000855
_cell_angle_beta	89.999646
_cell_angle_gamma	84.059099
loop_
_atom_site_label
_atom_site_type_symbol
_atom_site_fract_x
_atom_site_fract_y
_atom_site_fract_z
O1	O	1.666510	0.126642	-0.114287
O2	O	1.300906	0.138702	-0.114288
O3	O	1.493479	0.001494	-0.114286
O4	O	1.473936	0.263850	-0.114289
O5	O	1.493477	0.001497	0.114293
O6	O	1.300904	0.138705	0.114292
O7	O	1.666507	0.126645	0.114292
Zn8	Zn	1.483705	0.132676	0.150584
Zn9	Zn	1.483708	0.132671	-0.150580
O10	O	1.473934	0.263853	0.114291
C11	C	1.254116	0.137817	0.000001
C12	C	1.114701	0.135165	0.000001
C13	C	0.903376	0.213462	-0.000003
C14	C	1.034371	0.215955	-0.000003
C15	C	1.064030	0.051878	-0.000009
C16	C	0.933036	0.049387	-0.000019
C17	C	0.886254	0.308191	0.000006
C18	C	1.017249	0.310683	0.000006
C19	C	1.492595	-0.032098	0.000001
C20	C	1.489947	-0.132196	-0.000007
C21	C	1.478715	-0.555433	-0.124606
C22	C	1.478713	-0.555424	0.124601
C23	C	1.481211	-0.461378	0.124602
C24	C	1.482459	-0.414354	-0.000003
C25	C	1.481210	-0.461378	-0.124609
C26	C	1.482448	-0.414346	0.249206
C27	C	1.484945	-0.320294	0.249212
C28	C	1.486202	-0.273269	0.124606
C29	C	1.484954	-0.320299	-0.000005
C30	C	1.486203	-0.273275	-0.124610
C31	C	1.484963	-0.320304	-0.249222
C32	C	1.482467	-0.414354	-0.249215
C33	C	1.488698	-0.179220	0.124598
C34	C	1.488697	-0.179220	-0.124613
C35	C	1.713297	0.127530	-0.000000
C36	C	1.852712	0.130182	-0.000009
C37	C	1.474819	0.297445	0.000000
C38	C	1.477467	0.397543	-0.000001
N39	N	1.483712	0.132678	0.356120
N40	N	1.483711	0.132662	-0.356116
C41	C	1.569006	0.071944	0.428047
C42	C	1.569002	0.071933	0.571930
C43	C	1.398409	0.193399	0.571947
C44	C	1.398407	0.193405	0.428066
C45	C	1.667500	0.001818	0.428039
C46	C	1.667497	0.001807	0.571922
H47	H	1.052569	0.340850	-0.098691
H48	H	1.637667	-0.063677	0.616538
H49	H	1.763847	0.017255	0.610973
Cl50	Cl	1.165016	-0.049687	-0.000019
Cl51	Cl	1.635509	-0.105164	0.367732
H52	H	1.328954	0.242841	0.630541
H53	H	0.840304	0.336813	0.098698
Cl54	Cl	0.821219	0.363299	-0.147678
Cl55	Cl	1.807917	0.035732	0.359128
H56	H	1.485959	-0.282011	0.350679
Cl57	Cl	1.061991	0.367875	0.147696
Cl58	Cl	0.869350	-0.055313	-0.000077
Cl59	Cl	1.477170	-0.614553	-0.281253
Cl60	Cl	1.480849	-0.473462	0.405840
Cl61	Cl	1.490276	-0.120113	-0.281268
Cl62	Cl	1.486538	-0.261178	-0.405862
H63	H	1.481457	-0.452652	-0.350667
H64	H	1.489679	-0.140931	0.226055
Cl65	Cl	1.291162	0.269747	0.337643
Cl66	Cl	1.477121	-0.614538	0.281237
