data_functionalizedCrystal
_audit_creation_method	'MofGen! by Chris Wilmer'
_symmetry_space_group_name_H-M	'P1'
_symmetry_Int_Tables_number	1
_symmetry_cell_setting	triclinic
loop_
_symmetry_equiv_pos_as_xyz
  x,y,z
_cell_length_a	8.497374
_cell_length_b	8.497374
_cell_length_c	12.594517
_cell_angle_alpha	89.999107
_cell_angle_beta	90.003871
_cell_angle_gamma	90.005237
loop_
_atom_site_label
_atom_site_type_symbol
_atom_site_fract_x
_atom_site_fract_y
_atom_site_fract_z
Zn1	Zn	0.892197	0.628338	1.627194
Zn2	Zn	0.628462	0.892084	1.627186
Zn3	Zn	0.628414	0.628310	1.449252
Zn4	Zn	0.892184	0.892069	1.449227
O5	O	0.760314	0.760200	1.538215
O6	O	0.857237	0.663342	1.776139
O7	O	0.407694	0.857088	1.603590
O8	O	0.663391	0.407552	1.472871
O9	O	0.663473	0.857115	1.776133
O10	O	0.857190	0.407572	1.603604
O11	O	0.407658	0.663295	1.472863
O12	O	0.663378	0.663281	1.300303
O13	O	1.112948	0.857090	1.472827
O14	O	0.857169	0.857063	1.300284
O15	O	1.112957	0.663328	1.603579
O16	O	0.663460	1.112844	1.603565
O17	O	0.857215	1.112833	1.472819
C18	C	0.760268	0.760169	1.261674
C19	C	0.760285	0.760193	1.143368
C20	C	1.171794	0.760203	1.538207
C21	C	1.350439	0.760219	1.538209
C22	C	0.760337	1.170080	1.538201
C23	C	0.760311	1.348724	1.538230
C24	C	0.655084	0.654651	1.074095
C25	C	0.616313	0.798539	1.003317
C26	C	0.799083	0.616376	1.003347
C27	C	0.721439	0.904156	1.074149
C28	C	0.904276	0.721896	1.074185
C29	C	0.865560	0.865883	1.003440
C30	C	0.760362	0.760233	1.815836
C31	C	0.760382	0.760247	1.934141
H32	H	0.566008	0.565485	1.105118
H33	H	0.494584	0.830964	0.972189
C34	C	0.676958	1.068541	1.115976
C35	C	0.668617	1.098869	1.236390
C36	C	0.624130	1.263247	1.278219
C37	C	0.587982	1.397298	1.199635
C38	C	0.596321	1.366973	1.079214
C39	C	0.640809	1.202595	1.037385
H40	H	0.695377	0.999633	1.294569
H41	H	0.617957	1.285694	1.367363
H42	H	0.555050	1.518980	1.230600
H43	H	0.569562	1.466209	1.021035
H44	H	0.646982	1.180148	0.948241
H45	H	0.954567	0.955263	0.972611
C46	C	0.843376	0.452044	0.961333
C47	C	0.727879	0.361168	0.889779
C48	C	0.772157	0.196835	0.847768
C49	C	0.931931	0.123378	0.877311
C50	C	1.047438	0.214255	0.948868
C51	C	1.003161	0.378588	0.990879
H52	H	0.609595	0.415545	0.867906
H53	H	0.686650	0.129562	0.794797
H54	H	0.964708	0.001728	0.846212
H55	H	1.165722	0.159878	0.970741
H56	H	1.088667	0.445861	1.043851
H57	H	1.025969	0.689427	1.105339
