data_functionalizedCrystal
_audit_creation_method	'MofGen! by Chris Wilmer'
_symmetry_space_group_name_H-M	'P1'
_symmetry_Int_Tables_number	1
_symmetry_cell_setting	triclinic
loop_
_symmetry_equiv_pos_as_xyz
  x,y,z
_cell_length_a	8.965430
_cell_length_b	11.792241
_cell_length_c	11.792254
_cell_angle_alpha	95.803993
_cell_angle_beta	89.999752
_cell_angle_gamma	90.000368
loop_
_atom_site_label
_atom_site_type_symbol
_atom_site_fract_x
_atom_site_fract_y
_atom_site_fract_z
O1	O	0.123895	-1.506916	0.155558
O2	O	0.123930	-1.176575	0.171591
O3	O	0.123901	-1.349754	-0.001595
O4	O	0.123924	-1.333736	0.328744
O5	O	-0.124178	-1.349740	-0.001583
O6	O	-0.124149	-1.176561	0.171603
O7	O	-0.124184	-1.506901	0.155570
Cu8	Cu	-0.146818	-1.341729	0.163587
Cu9	Cu	0.146564	-1.341747	0.163574
O10	O	-0.124155	-1.333722	0.328756
C11	C	-0.000105	-1.134277	0.170590
C12	C	-0.000092	-1.008263	0.167576
N13	N	-0.353167	-1.341726	0.163596
C14	C	-0.000138	-1.348738	-0.043880
C15	C	-0.000136	-1.345718	-0.169893
C16	C	-0.450459	-1.261611	0.243663
C17	C	-0.549882	-1.364313	0.266318
C18	C	-0.549871	-1.239067	0.140951
C19	C	-0.450401	-1.444479	0.186303
C20	C	-0.450381	-1.319166	0.060891
C21	C	-0.549759	-1.421941	0.083503
N22	N	0.352913	-1.341760	0.163556
C23	C	-0.000145	-1.549199	0.156571
C24	C	-0.000149	-1.675213	0.159586
C25	C	-0.000135	-0.777551	0.162033
C26	C	-0.000111	-0.905936	0.165112
C27	C	-0.000130	-1.343264	-0.272229
C28	C	-0.000116	-1.340196	-0.400616
C29	C	-0.000113	-1.334738	0.371041
C30	C	-0.000105	-1.337758	0.497054
H31	H	-0.406860	-1.193924	0.311434
H32	H	-0.406642	-1.300029	-0.025919
H33	H	-0.593569	-1.152236	0.121816
H34	H	-0.593587	-1.383418	0.353155
O35	O	-0.607162	-1.511798	-0.006212
H36	H	-0.675287	-1.470638	-0.069131
H37	H	-0.406891	-1.531330	0.205543
