data_functionalizedCrystal
_audit_creation_method	'MofGen! by Chris Wilmer'
_symmetry_space_group_name_H-M	'P1'
_symmetry_Int_Tables_number	1
_symmetry_cell_setting	triclinic
loop_
_symmetry_equiv_pos_as_xyz
  x,y,z
_cell_length_a	19.377372
_cell_length_b	17.052862
_cell_length_c	17.052832
_cell_angle_alpha	45.842616
_cell_angle_beta	78.082108
_cell_angle_gamma	81.137717
loop_
_atom_site_label
_atom_site_type_symbol
_atom_site_fract_x
_atom_site_fract_y
_atom_site_fract_z
Zr1	Zr	0.794904	1.205780	-0.455084
O2	O	0.738113	1.349857	-0.593801
O3	O	0.794259	1.038061	-0.389770
O4	O	0.850520	1.228673	-0.598228
O5	O	0.658011	1.149430	-0.246831
O6	O	0.959726	1.273625	-0.627644
O7	O	0.681852	1.159244	-0.385343
O8	O	0.859086	0.932655	-0.254751
O9	O	0.758651	1.490400	-0.619725
O10	O	0.897297	1.149349	-0.411401
O11	O	0.798005	1.108478	-0.286079
O12	O	0.864244	1.332899	-0.531511
O13	O	0.764952	1.292027	-0.406189
Zr14	Zr	0.931052	1.261819	-0.281089
Zr15	Zr	0.969076	1.277473	-0.501999
Zr16	Zr	0.756880	1.190126	-0.234174
Zr17	Zr	0.827660	1.429930	-0.496429
Zr18	Zr	0.898296	1.037669	-0.239744
O19	O	0.931697	1.429538	-0.346403
O20	O	0.985762	1.451795	-0.660508
O21	O	0.684048	1.327600	-0.279695
O22	O	0.987843	1.117742	-0.142372
O23	O	1.041908	1.139999	-0.456478
O24	O	0.740194	1.015804	-0.075665
O25	O	1.067945	1.318169	-0.489342
O26	O	0.875436	1.238926	-0.137945
O27	O	0.766230	1.193974	-0.108529
O28	O	1.044104	1.308355	-0.350830
O29	O	0.897094	1.547387	-0.657016
O30	O	0.828862	0.920212	-0.079157
O31	O	0.967305	0.977199	-0.116448
O32	O	0.997529	0.989641	-0.292042
O33	O	0.728427	1.477958	-0.444131
O34	O	0.866870	1.534944	-0.481422
O35	O	0.861712	1.134700	-0.204662
O36	O	0.961004	1.175572	-0.329985
O37	O	0.927951	1.359121	-0.450094
O38	O	0.828659	1.318250	-0.324772
C39	C	0.822005	0.953421	-0.316370
C40	C	0.808100	0.858263	-0.298817
C41	C	0.976220	0.675376	-0.511024
C42	C	0.989285	0.764786	-0.527522
C43	C	0.943990	0.788160	-0.470348
C44	C	0.885628	0.722114	-0.396672
C45	C	0.872559	0.632701	-0.380178
C46	C	0.840328	0.745484	-0.339501
C47	C	0.781966	0.679439	-0.265826
C48	C	0.768900	0.590034	-0.249335
C49	C	0.814195	0.566661	-0.306510
C50	C	0.853397	0.834898	-0.355995
C51	C	0.749736	0.792223	-0.225149
C52	C	0.736671	0.702813	-0.208651
C53	C	0.645116	1.144122	-0.309403
C54	C	0.571176	1.113687	-0.289486
C55	C	0.241734	1.492632	-0.537462
C56	C	0.172260	1.464008	-0.518730
C57	C	0.206773	1.272396	-0.393344
C58	C	0.276251	1.301004	-0.412062
C59	C	0.293725	1.411124	-0.484123
C60	C	0.328242	1.219496	-0.358723
C61	C	0.397714	1.248102	-0.377444
C62	C	0.415195	1.358217	-0.449504
C63	C	0.363197	1.439730	-0.502844
C64	C	0.310768	1.109377	-0.286668
C65	C	0.362759	1.027869	-0.233329
C66	C	0.432232	1.056474	-0.252044
C67	C	0.449712	1.166589	-0.324104
C68	C	0.484230	0.974961	-0.198704
C69	C	0.553702	1.003567	-0.217425
C70	C	0.519184	1.195195	-0.342825
C71	C	1.080840	1.323477	-0.426771
C72	C	1.154780	1.353912	-0.446687
C73	C	0.910540	1.253379	-0.644411
C74	C	0.926683	1.260024	-0.738193
C75	C	0.903951	1.514178	-0.419803
C76	C	0.917856	1.609336	-0.437356
C77	C	0.731524	1.179684	-0.937714
C78	C	0.716358	1.173433	-0.849596
C79	C	0.768937	1.195081	-0.821741
C80	C	0.836687	1.222980	-0.882012
C81	C	0.851856	1.229223	-0.970133
C82	C	0.889269	1.244619	-0.854161
C83	C	0.957019	1.272518	-0.914432
C84	C	0.972185	1.278761	-1.002544
C85	C	0.919605	1.257113	-1.030399
C86	C	0.874100	1.238376	-0.766040
C87	C	0.994432	1.287915	-0.798459
C88	C	1.009598	1.294166	-0.886577
C89	C	0.815416	1.214220	-0.091762
C90	C	0.799274	1.207575	0.002020
C91	C	1.039867	1.043098	-0.375054
C92	C	1.099902	0.978376	-0.377418
C93	C	0.774443	0.933841	-0.040045
C94	C	0.744395	0.832038	0.071289
C95	C	0.992305	1.023518	-0.098729
C96	C	1.036198	0.952151	-0.007311
C97	C	0.733651	1.444081	-0.637444
C98	C	0.689758	1.515448	-0.728862
C99	C	0.686089	1.424501	-0.361119
C100	C	0.626054	1.489223	-0.358755
C101	C	0.951513	1.533758	-0.696128
C102	C	0.981561	1.635561	-0.807462
C103	C	1.094842	0.934294	-0.421037
C104	C	1.151250	0.873492	-0.423279
C105	C	1.212715	0.856766	-0.381896
C106	C	1.217774	0.900855	-0.338278
C107	C	1.161369	0.961663	-0.336042
C108	C	0.763537	0.797918	0.166081
C109	C	0.735301	0.702274	0.270698
C110	C	0.687927	0.640747	0.280521
C111	C	0.668783	0.674875	0.185719
C112	C	0.697015	0.770522	0.081104
C113	C	1.108647	0.939974	-0.029800
C114	C	1.149898	0.872932	0.056084
C115	C	1.118698	0.818063	0.164457
C116	C	1.046243	0.830246	0.186944
C117	C	1.004994	0.897292	0.101059
C118	C	0.617311	1.527636	-0.706375
C119	C	0.576064	1.594705	-0.792264
C120	C	0.607264	1.649580	-0.900638
C121	C	0.679719	1.637391	-0.923124
C122	C	0.720966	1.570329	-0.837237
C123	C	0.631117	1.533315	-0.315147
C124	C	0.574717	1.594143	-0.312933
C125	C	0.513253	1.610873	-0.354320
C126	C	0.508192	1.566779	-0.397934
C127	C	0.564594	1.505958	-0.400155
C128	C	1.028933	1.697060	-0.817249
C129	C	1.057179	1.792709	-0.921853
C130	C	1.038048	1.826861	-1.016669
C131	C	0.990673	1.765352	-1.006878
C132	C	0.962431	1.669701	-0.902275
H133	H	0.533407	1.284864	-0.401474
H134	H	1.267827	0.887228	-0.304586
Br135	Br	1.068484	0.854417	-0.627514
H136	H	1.165496	0.997547	-0.300517
Br137	Br	0.339038	0.878426	-0.135539
H138	H	0.517069	1.604614	-0.773934
H139	H	0.689152	0.649028	-0.148664
H140	H	0.802109	0.848003	0.158103
H141	H	1.152294	0.763472	0.234379
H142	H	0.591893	1.482956	-0.618137
H143	H	1.020848	0.785562	0.275192
H144	H	0.458141	1.580410	-0.431630
H145	H	0.688721	1.162053	-0.960395
Br146	Br	1.064133	1.316600	-1.084328
Br147	Br	0.761293	0.655978	0.399340
H148	H	0.946000	0.907194	0.119386
H149	H	0.573670	1.704182	-0.970562
Br150	Br	0.509480	1.397045	-0.474921
Br151	Br	0.216485	1.070554	-0.261274
Br152	Br	0.649618	0.510942	0.422509
H153	H	1.044517	1.669269	-0.740058
Br154	Br	0.722051	1.711868	-1.070209
H155	H	0.779956	1.560407	-0.855558
H156	H	0.681157	1.519698	-0.281438
Br157	Br	1.289259	0.774237	-0.384938
Br158	Br	0.671031	0.816811	-0.047535
H159	H	0.630208	0.624767	0.193734
Br160	Br	0.581600	1.653971	-0.253736
H161	H	1.064761	1.316881	-0.935660
Br162	Br	0.436714	1.693419	-0.351298
Br163	Br	1.037677	0.643661	-0.588624
H164	H	1.037247	1.305539	-0.775779
H165	H	0.560461	1.470056	-0.435661
Br166	Br	1.076381	1.956679	-1.158623
H167	H	1.095751	1.842779	-0.929804
H168	H	0.975101	1.793174	-1.084091
Br169	Br	0.898133	1.586255	-0.889012
H170	H	1.134063	0.984641	-0.118036
Br171	Br	0.460508	0.825520	-0.100926
H172	H	1.044803	0.947914	-0.454750
Br173	Br	1.248226	0.856412	0.025542
Br174	Br	0.932600	0.924521	-0.455982
H175	H	0.803563	0.493853	-0.293075
Br176	Br	0.689686	0.500416	-0.149363
H177	H	0.954631	0.860963	-0.483785
Br178	Br	0.386916	1.589179	-0.600626
Br179	Br	0.265453	1.642081	-0.635244
Br180	Br	0.688256	0.823943	-0.147559
H181	H	0.129928	1.530390	-0.562173
H182	H	0.192536	1.182737	-0.334675
H183	H	0.596032	0.937193	-0.173973
H184	H	0.818938	1.215661	-0.716974
H185	H	0.756586	1.189990	-0.749991
H186	H	0.661197	1.150717	-0.800526
H187	H	1.147117	0.837599	-0.458798
Br188	Br	0.940189	1.265608	-1.150000
