data_functionalizedCrystal
_audit_creation_method	'MofGen! by Chris Wilmer'
_symmetry_space_group_name_H-M	'P1'
_symmetry_Int_Tables_number	1
_symmetry_cell_setting	triclinic
loop_
_symmetry_equiv_pos_as_xyz
  x,y,z
_cell_length_a	27.732048
_cell_length_b	11.792241
_cell_length_c	10.868271
_cell_angle_alpha	89.999844
_cell_angle_beta	90.006357
_cell_angle_gamma	96.581964
loop_
_atom_site_label
_atom_site_type_symbol
_atom_site_fract_x
_atom_site_fract_y
_atom_site_fract_z
O1	O	0.066246	-1.504790	0.102217
O2	O	0.566246	-1.004790	0.602217
O3	O	0.073073	-1.174230	0.102248
O4	O	0.573073	-0.674230	0.602248
O5	O	-0.000678	-1.349777	0.102208
O6	O	0.499322	-0.849777	0.602208
O7	O	0.139996	-1.329244	0.102257
O8	O	0.639996	-0.829244	0.602257
O9	O	-0.000675	-1.349761	-0.102437
O10	O	0.499325	-0.849761	0.397563
O11	O	0.073075	-1.174215	-0.102397
O12	O	0.573075	-0.674215	0.397603
O13	O	0.066248	-1.504774	-0.102427
O14	O	0.566248	-1.004774	0.397573
Zn15	Zn	0.069662	-1.339492	-0.134904
Zn16	Zn	0.569662	-0.839492	0.365096
Zn17	Zn	0.069659	-1.339513	0.134724
Zn18	Zn	0.569659	-0.839513	0.634724
O19	O	0.139999	-1.329228	-0.102388
O20	O	0.639999	-0.829228	0.397612
C21	C	-0.018686	-1.349338	-0.000118
C22	C	0.481314	-0.849338	0.499882
C23	C	-0.072348	-1.348040	-0.000128
C24	C	0.427652	-0.848040	0.499872
C25	C	0.072645	-1.131945	-0.000071
C26	C	0.572645	-0.631945	0.499929
C27	C	0.071362	-1.005973	-0.000061
C28	C	0.571362	-0.505973	0.499939
C29	C	0.066676	-1.547059	-0.000106
C30	C	0.566676	-1.047059	0.499894
C31	C	0.067959	-1.673032	-0.000108
C32	C	0.567959	-1.173032	0.499892
C33	C	-0.410609	-1.443606	-0.000073
C34	C	0.089391	-0.943606	0.499927
C35	C	-0.612297	-1.438790	-0.000055
C36	C	-0.112297	-0.938790	0.499945
O37	O	-0.643045	-1.526178	-0.000010
O38	O	-0.143045	-1.026178	0.499990
N39	N	-0.632024	-1.334698	-0.000047
N40	N	-0.132024	-0.834698	0.499953
C41	C	-0.601327	-1.231803	-0.000035
C42	C	-0.101327	-0.731803	0.499965
O43	O	-0.622734	-1.143157	-0.000015
O44	O	-0.122734	-0.643157	0.499985
C45	C	-0.399640	-1.236620	-0.000044
C46	C	0.100360	-0.736620	0.499956
C47	C	-0.379915	-1.340718	-0.000065
C48	C	0.120085	-0.840718	0.499935
C49	C	-0.390884	-1.547695	-0.000093
C50	C	0.109116	-1.047695	0.499907
C51	C	-0.340465	-1.548898	-0.000104
C52	C	0.159535	-1.048898	0.499896
C53	C	-0.309771	-1.446011	-0.000095
C54	C	0.190229	-0.946011	0.499905
C55	C	-0.329496	-1.341921	-0.000076
C56	C	0.170504	-0.841921	0.499924
C57	C	-0.368943	-1.133726	-0.000023
C58	C	0.131057	-0.633726	0.499977
C59	C	-0.318519	-1.134940	-0.000022
C60	C	0.181481	-0.634940	0.499978
C61	C	-0.298794	-1.239038	-0.000043
C62	C	0.201206	-0.739038	0.499957
C63	C	-0.248384	-1.240237	-0.000079
C64	C	0.251616	-0.740237	0.499921
N65	N	-0.228656	-1.344328	-0.000087
N66	N	0.271344	-0.844328	0.499913
C67	C	-0.259350	-1.447215	-0.000095
C68	C	0.240650	-0.947215	0.499905
C69	C	-0.707215	-1.229282	-0.000033
C70	C	-0.207215	-0.729282	0.499967
C71	C	-0.757637	-1.228077	-0.000033
C72	C	-0.257637	-0.728077	0.499967
C73	C	-0.768603	-1.435065	-0.000051
C74	C	-0.268603	-0.935065	0.499949
C75	C	-0.718181	-1.436268	-0.000060
C76	C	-0.218181	-0.936268	0.499940
C77	C	-0.687488	-1.333374	-0.000041
C78	C	-0.187488	-0.833374	0.499959
C79	C	-0.153466	-1.449733	-0.000120
C80	C	0.346534	-0.949733	0.499880
C81	C	-0.103042	-1.450927	-0.000136
C82	C	0.396958	-0.950927	0.499864
C83	C	-0.092080	-1.243941	-0.000111
C84	C	0.407920	-0.743941	0.499889
C85	C	-0.142500	-1.242746	-0.000102
C86	C	0.357500	-0.742746	0.499898
C87	C	-0.173192	-1.345652	-0.000102
C88	C	0.326808	-0.845652	0.499898
O89	O	-0.217607	-1.152896	-0.000111
O90	O	0.282393	-0.652896	0.499889
O91	O	-0.237933	-1.535849	-0.000088
O92	O	0.262067	-1.035849	0.499912
C93	C	-0.461028	-1.442403	-0.000062
C94	C	0.038972	-0.942403	0.499938
C95	C	-0.480753	-1.338313	-0.000043
C96	C	0.019247	-0.838313	0.499957
C97	C	-0.450060	-1.235426	-0.000034
C98	C	0.049940	-0.735426	0.499966
C99	C	-0.531175	-1.337108	-0.000043
C100	C	-0.031175	-0.837108	0.499957
C101	C	-0.561868	-1.439996	-0.000051
C102	C	-0.061868	-0.939996	0.499949
C103	C	-0.542141	-1.544087	-0.000059
C104	C	-0.042141	-1.044087	0.499941
C105	C	-0.491722	-1.545290	-0.000070
C106	C	0.008278	-1.045290	0.499930
C107	C	-0.469787	-1.131334	-0.000026
C108	C	0.030213	-0.631334	0.499974
C109	C	-0.520207	-1.130140	-0.000016
C110	C	-0.020207	-0.630140	0.499984
C111	C	-0.550900	-1.233027	-0.000024
C112	C	-0.050900	-0.733027	0.499976
C113	C	0.158007	-1.329667	-0.000059
C114	C	0.658007	-0.829667	0.499941
C115	C	0.211669	-1.330965	-0.000041
C116	C	0.711669	-0.830965	0.499959
C117	C	0.069001	-0.775336	-0.000097
C118	C	0.569001	-0.275336	0.499903
C119	C	0.070313	-0.903679	-0.000077
C120	C	0.570313	-0.403679	0.499923
N121	N	0.069664	-1.339486	-0.318918
N122	N	0.569664	-0.839486	0.181082
C123	C	0.069664	-1.339495	-0.430256
C124	C	0.569664	-0.839495	0.069744
C125	C	0.069660	-1.339510	-0.569933
C126	C	0.569660	-0.839510	-0.069933
N127	N	0.069653	-1.339528	0.318738
N128	N	0.569653	-0.839528	0.818738
H129	H	-0.086985	-1.535700	-0.000156
H130	H	0.413015	-1.035700	0.499844
C131	C	-0.164197	-1.128234	-0.000087
C132	C	0.335803	-0.628234	0.499913
N133	N	-0.180537	-1.041980	-0.000062
N134	N	0.319463	-0.541980	0.499938
H135	H	-0.682229	-1.145488	-0.000018
H136	H	-0.182229	-0.645488	0.499982
C137	C	-0.058308	-1.130770	-0.000093
C138	C	0.441692	-0.630770	0.499907
N139	N	-0.032869	-1.045530	-0.000068
N140	N	0.467131	-0.545530	0.499932
H141	H	-0.793603	-1.518839	-0.000058
H142	H	-0.293603	-1.018839	0.499942
C143	C	-0.575913	-1.657263	-0.000066
C144	C	-0.075913	-1.157263	0.499934
N145	N	-0.601353	-1.742503	-0.000064
N146	N	-0.101353	-1.242503	0.499936
H147	H	-0.536261	-1.045364	-0.000010
H148	H	-0.036261	-0.545364	0.499990
H149	H	-0.178450	-1.533529	-0.000115
H150	H	0.321550	-1.033529	0.499885
C151	C	-0.318775	-1.663416	-0.000114
C152	C	0.181225	-1.163416	0.499886
N153	N	-0.302441	-1.749676	-0.000116
N154	N	0.197559	-1.249676	0.499884
C155	C	-0.779328	-1.113561	-0.000025
C156	C	-0.279328	-0.613561	0.499975
N157	N	-0.795664	-1.027304	-0.000012
N158	N	-0.295664	-0.527304	0.499988
H159	H	-0.444801	-1.047549	-0.000016
H160	H	0.055199	-0.547549	0.499984
C161	C	-0.424640	-1.660890	-0.000115
C162	C	0.075360	-1.160890	0.499885
N163	N	-0.450062	-1.746156	-0.000145
N164	N	0.049938	-1.246156	0.499855
C165	C	-0.696489	-1.550783	-0.000072
C166	C	-0.196489	-1.050783	0.499928
N167	N	-0.680153	-1.637041	-0.000077
N168	N	-0.180153	-1.137041	0.499923
H169	H	-0.384994	-1.048958	0.000001
H170	H	0.115006	-0.548958	0.500001
H171	H	-0.293530	-1.051148	-0.000005
H172	H	0.206470	-0.551148	0.499995
H173	H	-0.475667	-1.630058	-0.000087
H174	H	0.024333	-1.130058	0.499913
