data_functionalizedCrystal
_audit_creation_method	'MofGen! by Chris Wilmer'
_symmetry_space_group_name_H-M	'P1'
_symmetry_Int_Tables_number	1
_symmetry_cell_setting	triclinic
loop_
_symmetry_equiv_pos_as_xyz
  x,y,z
_cell_length_a	17.699083
_cell_length_b	10.654550
_cell_length_c	16.776229
_cell_angle_alpha	89.994543
_cell_angle_beta	89.998886
_cell_angle_gamma	83.883959
loop_
_atom_site_label
_atom_site_type_symbol
_atom_site_fract_x
_atom_site_fract_y
_atom_site_fract_z
O1	O	1.005088	0.158809	-0.066174
O2	O	1.505088	0.658809	0.433826
O3	O	0.784841	0.179470	-0.066200
O4	O	1.284841	0.679470	0.433800
O5	O	0.900029	-0.013689	-0.066184
O6	O	1.400029	0.486311	0.433816
O7	O	0.889901	0.351967	-0.066191
O8	O	1.389901	0.851967	0.433809
O9	O	0.900013	-0.013700	0.066393
O10	O	1.400013	0.486300	0.566393
O11	O	0.784826	0.179458	0.066376
O12	O	1.284826	0.679458	0.566376
O13	O	1.005073	0.158797	0.066402
O14	O	1.505073	0.658797	0.566402
Zn15	Zn	0.894947	0.169126	0.087439
Zn16	Zn	1.394947	0.669126	0.587439
Zn17	Zn	0.894967	0.169141	-0.087237
Zn18	Zn	1.394967	0.669141	0.412763
O19	O	0.889885	0.351955	0.066386
O20	O	1.389885	0.851955	0.566386
C21	C	0.756632	0.178724	0.000085
C22	C	1.256632	0.678724	0.500085
C23	C	0.672599	0.176503	0.000075
C24	C	1.172599	0.676503	0.500075
C25	C	0.899277	-0.060479	0.000103
C26	C	1.399277	0.439521	0.500103
C27	C	0.897052	-0.199884	0.000100
C28	C	1.397052	0.300116	0.500100
C29	C	0.624699	0.289883	0.000073
C30	C	1.124699	0.789883	0.500073
C31	C	0.545743	0.287788	0.000083
C32	C	1.045743	0.787788	0.500083
C33	C	0.514688	0.172313	0.000090
C34	C	1.014688	0.672313	0.500090
C35	C	0.562594	0.058924	0.000094
C36	C	1.062594	0.558924	0.500094
C37	C	0.641549	0.061020	0.000090
C38	C	1.141549	0.561020	0.500090
C39	C	0.244177	0.050470	0.000114
C40	C	0.744177	0.550470	0.500114
C41	C	0.165216	0.048383	0.000116
C42	C	0.665216	0.548383	0.500116
C43	C	0.148371	0.277239	0.000108
C44	C	0.648371	0.777239	0.500108
C45	C	0.227326	0.279334	0.000103
C46	C	0.727326	0.779334	0.500103
C47	C	0.275225	0.165946	0.000112
C48	C	0.775225	0.665946	0.500112
C49	C	0.360839	0.168219	0.000102
C50	C	0.860839	0.668219	0.500102
C51	C	0.429076	0.170039	0.000094
C52	C	0.929076	0.670039	0.500094
C53	C	0.964873	-0.280557	0.000111
C54	C	1.464873	0.219443	0.500111
C55	C	0.962778	-0.411541	0.000105
C56	C	1.462778	0.088459	0.500105
C57	C	0.825036	-0.381166	0.000082
C58	C	1.325036	0.118834	0.500082
C59	C	0.827132	-0.250185	0.000082
C60	C	1.327132	0.249815	0.500082
C61	C	1.034794	-0.230256	0.000129
C62	C	1.534794	0.269744	0.500129
C63	C	1.102620	-0.310930	0.000141
C64	C	1.602620	0.189070	0.500141
C65	C	1.100525	-0.441914	0.000135
C66	C	1.600525	0.058086	0.500135
C67	C	1.030603	-0.492224	0.000118
C68	C	1.530603	0.007776	0.500118
C69	C	1.033282	0.159543	0.000115
C70	C	1.533282	0.659543	0.500115
C71	C	1.117314	0.161764	0.000120
C72	C	1.617314	0.661764	0.500120
C73	C	0.890637	0.398746	0.000097
C74	C	1.390637	0.898746	0.500097
C75	C	0.892861	0.538151	0.000095
C76	C	1.392861	1.038151	0.500095
N77	N	0.894938	0.169114	0.206650
N78	N	1.394938	0.669114	0.706650
N79	N	0.894981	0.169143	-0.206448
N80	N	1.394981	0.669143	0.293552
C81	C	0.945959	0.083619	0.248374
C82	C	1.445959	0.583619	0.748374
C83	C	0.945963	0.083618	0.331826
C84	C	1.445963	0.583618	0.831826
C85	C	0.894950	0.169119	0.373553
C86	C	1.394950	0.669119	0.873553
C87	C	0.843923	0.254619	0.331822
C88	C	1.343923	0.754619	0.831822
C89	C	0.843916	0.254613	0.248372
C90	C	1.343916	0.754613	0.748372
C91	C	0.843951	0.254643	0.668370
C92	C	1.343951	0.754643	1.168370
C93	C	0.843964	0.254645	0.751826
C94	C	1.343964	0.754645	1.251826
C95	C	0.945998	0.083648	0.751824
C96	C	1.445998	0.583648	1.251824
C97	C	0.945991	0.083642	0.668374
C98	C	1.445991	0.583642	1.168374
C99	C	0.894962	0.169137	0.626651
C100	C	1.394962	0.669137	1.126651
C101	C	0.894957	0.169135	0.536162
C102	C	1.394957	0.669135	1.036162
C103	C	0.894958	0.169128	0.464040
C104	C	1.394958	0.669128	0.964040
H105	H	0.649978	0.383916	0.000067
H106	H	1.149978	0.883916	0.500067
H107	H	0.987546	0.014030	0.785804
H108	H	1.487546	0.514030	1.285804
F109	F	0.529541	-0.063975	0.000106
F110	F	1.029541	0.436025	0.500106
H111	H	0.771906	-0.184498	0.000074
H112	H	1.271906	0.315502	0.500074
H113	H	0.802419	0.324273	0.785798
H114	H	1.302419	0.824273	1.285798
H115	H	1.159547	-0.269958	0.000135
H116	H	1.659547	0.230042	0.500135
H117	H	0.987503	0.013999	0.214406
H118	H	1.487503	0.513999	0.714406
F119	F	0.789645	0.345635	0.623971
F120	F	1.289645	0.845635	1.123971
F121	F	1.037029	-0.090853	0.000138
F122	F	1.537029	0.409147	0.500138
H123	H	1.155752	-0.507596	0.000136
H124	H	1.655752	-0.007596	0.500136
H125	H	0.768109	-0.422140	0.000069
H126	H	1.268109	0.077860	0.500069
H127	H	0.139935	-0.045657	0.000123
H128	H	0.639935	0.454343	0.500123
H129	H	0.987508	0.014000	0.365798
H130	H	1.487508	0.514000	0.865798
F131	F	0.692528	-0.059655	0.000094
F132	F	1.192528	0.440345	0.500094
H133	H	1.028903	-0.598881	0.000104
H134	H	1.528903	-0.098881	0.500104
H135	H	0.987533	0.014023	0.634403
H136	H	1.487533	0.514023	1.134403
H137	H	0.802383	0.324232	0.365801
H138	H	1.302383	0.824232	0.865801
F139	F	0.789610	0.345606	0.203967
F140	F	1.289610	0.845606	0.703967
F141	F	0.295145	-0.070208	0.000123
F142	F	0.795145	0.429792	0.500123
H143	H	0.252606	0.373366	0.000094
H144	H	0.752606	0.873366	0.500094
F145	F	0.494767	0.408463	0.000078
F146	F	0.994767	0.908463	0.500078
H147	H	0.109361	0.369564	0.000105
H148	H	0.609361	0.869564	0.500105
