data_functionalizedCrystal
_audit_creation_method	'MofGen! by Chris Wilmer'
_symmetry_space_group_name_H-M	'P1'
_symmetry_Int_Tables_number	1
_symmetry_cell_setting	triclinic
loop_
_symmetry_equiv_pos_as_xyz
  x,y,z
_cell_length_a	13.897449
_cell_length_b	13.897447
_cell_length_c	13.032268
_cell_angle_alpha	82.850929
_cell_angle_beta	82.839289
_cell_angle_gamma	90.020357
loop_
_atom_site_label
_atom_site_type_symbol
_atom_site_fract_x
_atom_site_fract_y
_atom_site_fract_z
Zn1	Zn	1.405370	-0.453228	0.590912
Zn2	Zn	1.425757	-0.594068	0.416176
Zn3	Zn	1.264557	-0.432791	0.416182
Zn4	Zn	1.244042	-0.614479	0.590858
O5	O	1.334931	-0.523642	0.503532
O6	O	1.543053	-0.471922	0.567753
O7	O	1.421491	-0.555579	0.269947
O8	O	1.283289	-0.300524	0.439386
O9	O	1.558032	-0.575396	0.439375
O10	O	1.386744	-0.315539	0.567759
O11	O	1.303058	-0.437090	0.269952
O12	O	1.126856	-0.456882	0.439333
O13	O	1.248325	-0.610184	0.737095
O14	O	1.111784	-0.590367	0.567667
O15	O	1.366852	-0.491713	0.737135
O16	O	1.401599	-0.731754	0.439323
O17	O	1.268093	-0.746750	0.567661
C18	C	1.084321	-0.523622	0.503496
C19	C	0.977106	-0.523640	0.503505
C20	C	1.334856	-0.774253	0.503508
C21	C	1.334908	-0.881470	0.503532
C22	C	0.890034	-0.523646	0.503522
C23	C	0.780798	-0.523656	0.503554
C24	C	1.334951	-0.968542	0.503556
C25	C	1.335016	-1.077778	0.503583
C26	C	1.586520	-0.523662	0.503569
C27	C	1.693732	-0.523670	0.503585
C28	C	1.303026	-0.555505	0.776091
C29	C	1.289429	-0.569083	0.892239
C30	C	1.335031	-0.272054	0.503579
C31	C	1.335073	-0.164843	0.503599
C32	C	1.366768	-0.491832	0.232034
C33	C	1.380552	-0.477983	0.115886
C34	C	1.342012	-0.516520	0.944041
C35	C	1.327961	-0.530553	1.064087
H36	H	1.397430	-0.461127	0.899518
C37	C	1.214556	-0.643915	0.952375
C38	C	1.106637	-0.634306	0.937457
C39	C	1.031762	-0.709139	0.997591
C40	C	1.064805	-0.793582	1.072642
C41	C	1.172729	-0.803194	1.087563
C42	C	1.247605	-0.728361	1.027430
H43	H	1.082172	-0.571793	0.881897
H44	H	0.951869	-0.702023	0.986545
H45	H	1.009378	-0.848978	1.117156
H46	H	1.197195	-0.865707	1.143124
H47	H	1.327497	-0.735477	1.038476
C48	C	1.455429	-0.403147	1.055754
C49	C	1.563348	-0.412757	1.070672
C50	C	1.638223	-0.337923	1.010539
C51	C	1.605180	-0.253481	0.935488
C52	C	1.497256	-0.243868	0.920566
C53	C	1.422381	-0.318701	0.980699
H54	H	1.587813	-0.475269	1.126232
H55	H	1.718116	-0.345040	1.021585
H56	H	1.660608	-0.198085	0.890973
H57	H	1.472791	-0.181355	0.865005
H58	H	1.342488	-0.311584	0.969653
C59	C	1.253084	-0.605388	1.124219
C60	C	1.286127	-0.689831	1.199270
C61	C	1.211252	-0.764664	1.259403
C62	C	1.103333	-0.755055	1.244485
C63	C	1.070285	-0.670609	1.169431
C64	C	1.145160	-0.595776	1.109298
H65	H	1.366020	-0.696947	1.210316
H66	H	1.235718	-0.827177	1.314964
H67	H	1.047906	-0.810451	1.289000
H68	H	0.990392	-0.663493	1.158385
H69	H	1.120695	-0.533263	1.053737
