data_functionalizedCrystal
_audit_creation_method	'MofGen! by Chris Wilmer'
_symmetry_space_group_name_H-M	'P1'
_symmetry_Int_Tables_number	1
_symmetry_cell_setting	triclinic
loop_
_symmetry_equiv_pos_as_xyz
  x,y,z
_cell_length_a	15.298068
_cell_length_b	16.994748
_cell_length_c	15.296720
_cell_angle_alpha	80.336164
_cell_angle_beta	91.645182
_cell_angle_gamma	99.668667
loop_
_atom_site_label
_atom_site_type_symbol
_atom_site_fract_x
_atom_site_fract_y
_atom_site_fract_z
Zn1	Zn	1.253441	-0.234656	0.727450
Zn2	Zn	1.278731	-0.340595	0.581020
Zn3	Zn	1.132318	-0.226992	0.555614
Zn4	Zn	1.106972	-0.384816	0.702060
O5	O	1.192865	-0.296765	0.641536
O6	O	1.379367	-0.233410	0.729284
O7	O	1.280500	-0.303811	0.455080
O8	O	1.148409	-0.117623	0.578402
O9	O	1.397948	-0.311243	0.621703
O10	O	1.237397	-0.123254	0.704649
O11	O	1.172932	-0.220347	0.436415
O12	O	1.006384	-0.263226	0.553782
O13	O	1.105209	-0.386611	0.827997
O14	O	0.987762	-0.379179	0.661375
O15	O	1.212819	-0.276289	0.846652
O16	O	1.255923	-0.456847	0.597082
O17	O	1.129732	-0.489335	0.686010
C18	C	0.965292	-0.325170	0.602067
C19	C	0.867931	-0.337345	0.585202
C20	C	1.192832	-0.501711	0.641547
C21	C	1.192849	-0.591029	0.641537
Zn22	Zn	1.278785	-0.708673	0.581027
Zn23	Zn	1.253444	-0.866520	0.727441
Zn24	Zn	1.132387	-0.858860	0.555559
Zn25	Zn	1.106980	-0.752969	0.702002
O26	O	1.192899	-0.796755	0.641507
O27	O	1.397987	-0.714279	0.621754
O28	O	1.237412	-0.975879	0.704629
O29	O	1.173045	-0.817193	0.436376
O30	O	1.379369	-0.830248	0.729324
O31	O	1.280603	-0.706851	0.455087
O32	O	1.148472	-0.970251	0.578348
O33	O	1.006453	-0.860146	0.553680
O34	O	1.129743	-0.636718	0.685966
O35	O	0.987786	-0.782348	0.661271
O36	O	1.255967	-0.604173	0.597087
O37	O	1.212777	-0.873201	0.846628
O38	O	1.105170	-0.789776	0.827938
C39	C	0.554733	-0.209949	0.762069
C40	C	0.646208	-0.198513	0.777919
C41	C	0.701643	-0.233220	0.729741
C42	C	0.665595	-0.279364	0.665711
C43	C	0.574111	-0.290806	0.649864
C44	C	0.721020	-0.314077	0.617536
C45	C	0.684973	-0.360222	0.553506
C46	C	0.593497	-0.371662	0.537662
C47	C	0.538062	-0.336955	0.585840
C48	C	0.812505	-0.302635	0.633383
C49	C	0.831882	-0.383493	0.521178
C50	C	0.740408	-0.394929	0.505328
C51	C	1.421327	-0.268249	0.681160
C52	C	1.518684	-0.256097	0.698045
C53	C	1.153366	-0.337238	0.869994
C54	C	1.136534	-0.354485	0.967349
C55	C	1.192904	-0.091016	0.641520
C56	C	1.192923	-0.001690	0.641515
C57	C	1.232261	-0.256386	0.413975
C58	C	1.249263	-0.238895	0.316650
C59	C	1.313201	-0.173353	1.280628
C60	C	1.329021	-0.157149	1.189159
C61	C	1.280901	-0.206481	1.133702
C62	C	1.216957	-0.272021	1.169723
C63	C	1.201140	-0.288231	1.261202
C64	C	1.168840	-0.321359	1.114276
C65	C	1.104896	-0.386899	1.150297
C66	C	1.089082	-0.403105	1.241767
C67	C	1.137202	-0.353772	1.297224
C68	C	1.184657	-0.305149	1.022797
C69	C	1.072596	-0.420027	1.003371
C70	C	1.056776	-0.436231	1.094840
C71	C	0.965340	-0.825222	0.601952
C72	C	0.867986	-0.837385	0.585051
C73	C	1.153469	-0.837128	0.869062
C74	C	1.136626	-0.854419	0.966416
C75	C	1.421346	-0.768177	0.681218
C76	C	1.518697	-0.755998	0.698140
C77	C	1.232485	-0.756227	0.413064
C78	C	1.249354	-0.738956	0.315716
C79	C	0.812553	-0.802677	0.633221
C80	C	0.721079	-0.814090	0.617341
C81	C	0.685037	-0.860216	0.553294
C82	C	0.740477	-0.894924	0.505119
C83	C	0.831951	-0.883506	0.520995
C84	C	1.184798	-0.905923	1.021848
C85	C	1.168991	-0.922167	1.113325
C86	C	1.105006	-0.886913	1.149367
C87	C	1.056832	-0.835403	1.093927
C88	C	1.072645	-0.819155	1.002453
C89	C	1.574112	-0.689893	0.650082
C90	C	1.665583	-0.678434	0.665982
C91	C	1.701638	-0.733085	0.729937
C92	C	1.646215	-0.799194	0.778000
C93	C	1.554745	-0.810649	0.762104
C94	C	1.201270	-0.788295	0.260252
C95	C	1.217103	-0.772069	0.168779
C96	C	1.281025	-0.706508	0.132773
C97	C	1.329110	-0.657164	0.188244
C98	C	1.313272	-0.673387	0.279714
H99	H	0.841846	-0.265063	0.685516
O100	O	0.685092	-0.148734	0.846962
H101	H	0.631180	-0.126512	0.877792
O102	O	1.020678	-0.473218	0.943551
H103	H	0.948905	-0.471368	0.949194
O104	O	1.365076	-0.120132	1.340433
H105	H	1.343323	-0.142407	1.410089
H106	H	0.675951	-0.785824	0.656577
O107	O	0.586373	-0.872528	0.536184
H108	H	0.573672	-0.847788	0.465969
O109	O	1.397984	-0.086464	1.150313
H110	H	1.400905	-0.083486	1.077391
O111	O	1.253618	-0.234461	0.983956
H112	H	1.305384	-0.256822	0.950018
H113	H	1.037022	-0.456477	1.271093
H114	H	0.711119	-0.932479	0.452971
O115	O	1.087957	-0.904447	1.248031
H116	H	1.035376	-0.871278	1.263789
H117	H	1.124325	-0.366962	1.371707
O118	O	0.701525	-0.444702	0.436271
H119	H	0.628602	-0.446828	0.433353
O120	O	1.132313	-0.859001	0.299073
H121	H	1.150373	-0.915916	0.284114
O122	O	0.987820	-0.797386	1.132812
H123	H	0.956975	-0.758836	1.078905
O124	O	0.891737	-0.920949	0.469041
H125	H	0.851299	-0.954944	0.421848
O126	O	0.987810	-0.506920	1.133693
H127	H	0.984902	-0.509901	1.206617
O128	O	1.253823	-0.943941	0.982986
H129	H	1.284667	-0.982471	1.036913
O130	O	1.020683	-0.763604	0.942666
H131	H	0.973534	-0.741828	0.983103
H132	H	0.841885	-0.765115	0.685373
H133	H	1.208222	-0.964112	1.158452
H134	H	1.675585	-0.843687	0.830073
O135	O	1.535232	-0.630938	0.581107
H136	H	1.589143	-0.583044	0.550377
O137	O	1.365135	-0.620167	0.339536
H138	H	1.402485	-0.657284	0.388953
O139	O	0.494948	-0.172513	0.814024
H140	H	0.425283	-0.188217	0.792242
O141	O	1.725355	-0.607143	0.614121
H142	H	1.684913	-0.571083	0.566965
O143	O	1.494985	-0.881957	0.813940
H144	H	1.425319	-0.880749	0.792154
H145	H	0.564149	-0.409243	0.485531
O146	O	1.800299	-0.720733	0.747066
H147	H	1.821336	-0.661359	0.768953
O148	O	0.800308	-0.220872	0.746816
H149	H	0.816064	-0.182944	0.799423
H150	H	1.177941	-0.812255	0.123626
H151	H	1.381156	-0.603784	0.158914
O152	O	0.439398	-0.349284	0.568738
H153	H	0.403867	-0.380034	0.630595
O154	O	0.891661	-0.420926	0.469201
H155	H	0.961329	-0.405209	0.490969
O156	O	1.298113	-0.689035	0.034116
H157	H	1.236224	-0.677095	-0.001485
O158	O	1.297951	-0.189003	1.035043
H159	H	1.350491	-0.135137	1.019311
