data_functionalizedCrystal
_audit_creation_method	'MofGen! by Chris Wilmer'
_symmetry_space_group_name_H-M	'P1'
_symmetry_Int_Tables_number	1
_symmetry_cell_setting	triclinic
loop_
_symmetry_equiv_pos_as_xyz
  x,y,z
_cell_length_a	14.853568
_cell_length_b	10.723024
_cell_length_c	9.198806
_cell_angle_alpha	90.002012
_cell_angle_beta	90.001138
_cell_angle_gamma	84.051529
loop_
_atom_site_label
_atom_site_type_symbol
_atom_site_fract_x
_atom_site_fract_y
_atom_site_fract_z
O1	O	-1.197224	-0.162917	-0.120794
O2	O	-0.934867	-0.182324	-0.120817
O3	O	-1.072097	0.009017	-0.120800
O4	O	-1.059994	-0.354258	-0.120811
O5	O	-1.072086	0.009017	0.120985
O6	O	-0.934856	-0.182323	0.120968
O7	O	-1.197213	-0.162917	0.120991
Cu8	Cu	-1.066034	-0.172620	0.143056
Cu9	Cu	-1.066047	-0.172621	-0.142882
O10	O	-1.059983	-0.354258	0.120974
C11	C	-0.901268	-0.181444	0.000072
C12	C	-0.801171	-0.178809	0.000063
N13	N	-1.066031	-0.172619	0.344170
C14	C	-1.071211	0.055508	0.000091
C15	C	-1.068576	0.194035	0.000086
C16	C	-0.387978	-0.054008	0.000102
C17	C	-0.367897	-0.281325	0.000093
C18	C	-0.461944	-0.283803	0.000088
C19	C	-0.519012	-0.171382	0.000088
C20	C	-0.482034	-0.056482	0.000092
C21	C	-0.498930	-0.398700	0.000069
C22	C	-0.592982	-0.401183	0.000062
C23	C	-0.650052	-0.288760	0.000072
C24	C	-0.613068	-0.173856	0.000078
C25	C	-0.670136	-0.061435	0.000078
C26	C	-0.633154	0.053471	0.000095
C27	C	-0.539104	0.055941	0.000102
C28	C	-0.744102	-0.291230	0.000064
C29	C	-0.764192	-0.063909	0.000068
C30	C	-0.230812	-0.163796	0.000100
C31	C	-0.330910	-0.166429	0.000102
C32	C	-1.060869	-0.400748	0.000080
C33	C	-1.063505	-0.539276	0.000075
C34	C	-1.145363	0.269794	0.000091
C35	C	-1.142641	0.412970	0.000085
N36	N	-1.066056	-0.172612	-0.343996
C37	C	-1.123650	-0.091929	0.416375
C38	C	-1.123664	-0.091924	0.583787
H39	H	-0.810652	0.027639	0.000074
H40	H	-0.623084	-0.494746	0.000048
O41	O	-0.443592	-0.507984	0.000255
C42	C	-0.397615	-0.701490	0.125541
C43	C	-0.460356	-0.577781	0.125493
H44	H	-0.411133	-0.757944	0.226801
H45	H	-0.411161	-0.758106	0.024413
H46	H	-0.324049	-0.679957	0.125486
H47	H	-0.533944	-0.599200	0.125600
H48	H	-0.446732	-0.521201	0.226613
O49	O	-1.182476	-0.009333	0.657694
C50	C	-1.233475	0.207613	0.704614
C51	C	-1.166833	0.114211	0.620794
H52	H	-1.220838	0.307519	0.674835
H53	H	-1.305870	0.191589	0.674730
H54	H	-1.223012	0.192867	0.826426
H55	H	-1.177213	0.128902	0.498963
H56	H	-1.094462	0.130259	0.650799
O57	O	-1.007102	-0.255079	0.418044
C58	C	-0.886859	-0.423579	0.402341
C59	C	-0.953536	-0.330239	0.318505
H60	H	-0.843546	-0.484388	0.321901
H61	H	-0.841355	-0.369782	0.473571
H62	H	-0.926364	-0.485727	0.473635
H63	H	-0.914104	-0.268067	0.247132
H64	H	-0.999040	-0.384114	0.247367
H65	H	-0.679632	0.145004	0.000084
H66	H	-1.172967	-0.022845	0.354255
O67	O	-0.503134	0.167518	-0.000150
C68	C	-0.408552	0.302189	-0.125369
C69	C	-0.449250	0.175801	-0.125274
H70	H	-0.364962	0.308916	-0.226505
H71	H	-0.465455	0.382171	-0.125461
H72	H	-0.365058	0.309009	-0.024136
H73	H	-0.492734	0.168858	-0.226489
H74	H	-0.392304	0.095880	-0.125106
H75	H	-1.213118	0.228657	0.000105
H76	H	-0.997765	0.395634	0.000081
H77	H	-1.000821	0.235172	0.000070
H78	H	-0.321427	-0.372853	0.000081
O79	O	-0.779879	-0.402943	0.000108
C80	C	-0.750031	-0.628152	-0.000012
C81	C	-0.709396	-0.501719	-0.000030
H82	H	-0.693066	-0.708046	-0.000155
H83	H	-0.793528	-0.635088	0.101195
H84	H	-0.793592	-0.634917	-0.101178
H85	H	-0.665794	-0.494869	0.101067
H86	H	-0.665951	-0.494838	-0.101304
H87	H	-0.357863	0.039546	0.000121
H88	H	-1.016727	-0.241702	0.593920
H89	H	-1.208376	0.478068	0.000096
