data_functionalizedCrystal
_audit_creation_method	'MofGen! by Chris Wilmer'
_symmetry_space_group_name_H-M	'P1'
_symmetry_Int_Tables_number	1
_symmetry_cell_setting	triclinic
loop_
_symmetry_equiv_pos_as_xyz
  x,y,z
_cell_length_a	16.959454
_cell_length_b	16.959455
_cell_length_c	21.395355
_cell_angle_alpha	90.032743
_cell_angle_beta	89.987004
_cell_angle_gamma	89.984932
loop_
_atom_site_label
_atom_site_type_symbol
_atom_site_fract_x
_atom_site_fract_y
_atom_site_fract_z
Zn1	Zn	-0.314879	-1.208455	-0.354422
Zn2	Zn	0.018455	-0.875121	-0.021089
Zn3	Zn	0.351788	-0.541788	0.312244
Zn4	Zn	-0.447039	-1.208356	-0.249655
Zn5	Zn	-0.113706	-0.875023	0.083678
Zn6	Zn	0.219627	-0.541690	0.417012
Zn7	Zn	-0.314867	-1.076262	-0.249644
Zn8	Zn	0.018466	-0.742929	0.083689
Zn9	Zn	0.351799	-0.409596	0.417023
Zn10	Zn	-0.447007	-1.076248	-0.354380
Zn11	Zn	-0.113674	-0.742915	-0.021047
Zn12	Zn	0.219659	-0.409581	0.312286
O13	O	-0.380948	-1.142330	-0.302025
O14	O	-0.047615	-0.808997	0.031308
O15	O	0.285718	-0.475664	0.364641
O16	O	-0.332428	-1.319053	-0.340547
O17	O	0.000905	-0.985719	-0.007214
O18	O	0.334238	-0.652386	0.326120
O19	O	-0.429515	-1.190799	-0.161976
O20	O	-0.096182	-0.857465	0.171358
O21	O	0.237152	-0.524132	0.504691
O22	O	-0.204258	-1.093845	-0.263556
O23	O	0.129075	-0.760512	0.069777
O24	O	0.462409	-0.427178	0.403110
O25	O	-0.429526	-1.318980	-0.263575
O26	O	-0.096193	-0.985647	0.069759
O27	O	0.237141	-0.652314	0.403092
O28	O	-0.204266	-1.190966	-0.340536
O29	O	0.129067	-0.857633	-0.007203
O30	O	0.462400	-0.524300	0.326130
O31	O	-0.332409	-1.093750	-0.161968
O32	O	0.000925	-0.760416	0.171366
O33	O	0.334258	-0.427083	0.504699
O34	O	-0.332378	-0.965649	-0.263515
O35	O	0.000956	-0.632316	0.069818
O36	O	0.334289	-0.298983	0.403151
O37	O	-0.429472	-1.093821	-0.442064
O38	O	-0.096138	-0.760487	-0.108730
O39	O	0.237195	-0.427154	0.224603
O40	O	-0.429461	-0.965639	-0.340465
O41	O	-0.096127	-0.632306	-0.007131
O42	O	0.237206	-0.298972	0.326202
O43	O	-0.332397	-1.190952	-0.442095
O44	O	0.000936	-0.857619	-0.108761
O45	O	0.334269	-0.524286	0.224572
O46	O	-0.557646	-1.190785	-0.263534
O47	O	-0.224313	-0.857451	0.069799
O48	O	0.109021	-0.524118	0.403133
O49	O	-0.557623	-1.093725	-0.340475
O50	O	-0.224289	-0.760392	-0.007142
O51	O	0.109044	-0.427058	0.326192
C52	C	-0.380915	-0.936964	-0.301985
C53	C	-0.047582	-0.603631	0.031349
C54	C	0.285752	-0.270297	0.364682
C55	C	-0.380920	-0.849107	-0.301982
C56	C	-0.047587	-0.515774	0.031351
C57	C	0.285747	-0.182441	0.364685
C58	C	-0.431434	-0.477584	-0.261896
C59	C	-0.098100	-0.144250	0.071438
C60	C	0.235233	0.189083	0.404771
C61	C	-0.330482	-0.477680	-0.342171
C62	C	0.002852	-0.144347	-0.008838
C63	C	0.336185	0.188986	0.324495
C64	C	-0.330471	-0.560226	-0.342160
C65	C	0.002862	-0.226893	-0.008827
C66	C	0.336195	0.106441	0.324507
C67	C	-0.380944	-0.601455	-0.302016
C68	C	-0.047611	-0.268121	0.031317
C69	C	0.285723	0.065212	0.364650
C70	C	-0.431427	-0.560137	-0.261884
C71	C	-0.098093	-0.226804	0.071449
C72	C	0.235240	0.106530	0.404783
C73	C	-0.279995	-0.601550	-0.382296
C74	C	0.053338	-0.268216	-0.048963
C75	C	0.386671	0.065117	0.284371
C76	C	-0.279984	-0.684101	-0.382286
C77	C	0.053349	-0.350767	-0.048953
C78	C	0.386683	-0.017434	0.284380
C79	C	-0.330453	-0.725331	-0.342139
C80	C	0.002880	-0.391997	-0.008806
C81	C	0.336214	-0.058664	0.324528
C82	C	-0.380937	-0.684008	-0.302005
C83	C	-0.047604	-0.350675	0.031328
C84	C	0.285730	-0.017341	0.364662
C85	C	-0.431410	-0.725236	-0.261861
C86	C	-0.098076	-0.391903	0.071472
C87	C	0.235257	-0.058570	0.404805
C88	C	-0.481890	-0.683915	-0.221723
C89	C	-0.148557	-0.350582	0.111610
C90	C	0.184776	-0.017249	0.444943
C91	C	-0.481896	-0.601367	-0.221737
C92	C	-0.148562	-0.268034	0.111597
C93	C	0.184771	0.065300	0.444930
C94	C	-0.330448	-0.807879	-0.342126
C95	C	0.002886	-0.474546	-0.008792
C96	C	0.336219	-0.141212	0.324541
C97	C	-0.431403	-0.807790	-0.261850
C98	C	-0.098069	-0.474457	0.071484
C99	C	0.235264	-0.141123	0.404817
C100	C	-0.586314	-1.142264	-0.302015
C101	C	-0.252981	-0.808931	0.031319
C102	C	0.080352	-0.475597	0.364652
C103	C	-0.674171	-1.142308	-0.302031
C104	C	-0.340838	-0.808975	0.031302
C105	C	-0.007504	-0.475641	0.364636
C106	C	-1.045664	-1.091865	-0.342084
C107	C	-0.712331	-0.758531	-0.008751
C108	C	-0.378998	-0.425198	0.324582
C109	C	-1.045629	-1.193016	-0.262030
C110	C	-0.712296	-0.859683	0.071303
C111	C	-0.378962	-0.526349	0.404636
C112	C	-0.963083	-1.192988	-0.262025
C113	C	-0.629750	-0.859655	0.071309
C114	C	-0.296416	-0.526322	0.404642
C115	C	-0.921824	-1.142397	-0.302049
C116	C	-0.588491	-0.809064	0.031285
C117	C	-0.255157	-0.475731	0.364618
C118	C	-0.963111	-1.091834	-0.342079
C119	C	-0.629778	-0.758501	-0.008745
C120	C	-0.296444	-0.425167	0.324588
C121	C	-0.921790	-1.243545	-0.221991
C122	C	-0.588457	-0.910212	0.111342
C123	C	-0.255123	-0.576879	0.444676
C124	C	-0.839239	-1.243519	-0.221983
C125	C	-0.505906	-0.910186	0.111350
C126	C	-0.172572	-0.576852	0.444684
C127	C	-0.797979	-1.192931	-0.262011
C128	C	-0.464645	-0.859598	0.071323
C129	C	-0.131312	-0.526265	0.404656
C130	C	-0.839270	-1.142367	-0.302043
C131	C	-0.505937	-0.809033	0.031291
C132	C	-0.172604	-0.475700	0.364624
C133	C	-0.798011	-1.091776	-0.342067
C134	C	-0.464678	-0.758442	-0.008734
C135	C	-0.131345	-0.425109	0.324600
C136	C	-0.839302	-1.041214	-0.382103
C137	C	-0.505969	-0.707881	-0.048769
C138	C	-0.172635	-0.374547	0.284564
C139	C	-0.921850	-1.041246	-0.382106
C140	C	-0.588517	-0.707913	-0.048773
C141	C	-0.255184	-0.374580	0.284560
C142	C	-0.715430	-1.192899	-0.262007
C143	C	-0.382097	-0.859566	0.071326
C144	C	-0.048763	-0.526232	0.404660
C145	C	-0.715458	-1.091745	-0.342061
C146	C	-0.382125	-0.758411	-0.008728
C147	C	-0.048791	-0.425078	0.324606
C148	C	-0.174780	-1.142418	-0.302050
C149	C	0.158553	-0.809085	0.031283
C150	C	0.491887	-0.475752	0.364617
C151	C	-0.086923	-1.142456	-0.302060
C152	C	0.246410	-0.809123	0.031273
C153	C	0.579743	-0.475789	0.364606
C154	C	-0.380932	-1.142396	-0.465449
C155	C	-0.047599	-0.809063	-0.132115
C156	C	0.285734	-0.475729	0.201218
C157	C	-0.380925	-1.142424	-0.535090
C158	C	-0.047592	-0.809091	-0.201757
C159	C	0.285741	-0.475757	0.131577
C160	C	-0.380973	-0.348499	-0.302055
C161	C	-0.047640	-0.015165	0.031278
C162	C	0.285694	0.318168	0.364611
C163	C	-0.380961	-0.436355	-0.302039
C164	C	-0.047628	-0.103022	0.031294
C165	C	0.285706	0.230312	0.364627
C166	C	-0.330377	-1.192998	-0.567820
C167	C	0.002957	-0.859665	-0.234487
C168	C	0.336290	-0.526332	0.098846
C169	C	-0.330343	-1.192997	-0.633256
C170	C	0.002991	-0.859664	-0.299922
C171	C	0.336324	-0.526331	0.033411
C172	C	-0.380872	-1.142430	-0.665958
C173	C	-0.047538	-0.809097	-0.332625
C174	C	0.285795	-0.475763	0.000708
C175	C	-0.431424	-1.091846	-0.633220
C176	C	-0.098091	-0.758513	-0.299887
C177	C	0.235243	-0.425179	0.033446
C178	C	-0.431451	-1.091843	-0.567786
C179	C	-0.098117	-0.758509	-0.234453
C180	C	0.235216	-0.425176	0.098881
C181	C	-0.452042	-1.136166	-0.769629
C182	C	-0.118709	-0.802832	-0.436295
C183	C	0.214624	-0.469499	-0.102962
C184	C	-0.452017	-1.136174	-0.835062
C185	C	-0.118683	-0.802841	-0.501728
C186	C	0.214650	-0.469508	-0.168395
C187	C	-0.380788	-1.142435	-0.867779
C188	C	-0.047455	-0.809102	-0.534446
C189	C	0.285879	-0.475768	-0.201113
C190	C	-0.309583	-1.148703	-0.835056
C191	C	0.023751	-0.815370	-0.501723
C192	C	0.357084	-0.482037	-0.168389
C193	C	-0.309610	-1.148700	-0.769622
C194	C	0.023724	-0.815367	-0.436288
C195	C	0.357057	-0.482034	-0.102955
C196	C	-0.380848	-1.142427	-0.736911
C197	C	-0.047514	-0.809094	-0.403578
C198	C	0.285819	-0.475761	-0.070244
C199	C	-0.330198	-1.193011	-0.971462
C200	C	0.003135	-0.859678	-0.638129
C201	C	0.336469	-0.526344	-0.304795
C202	C	-0.330163	-1.193004	-1.036899
C203	C	0.003171	-0.859671	-0.703565
C204	C	0.336504	-0.526338	-0.370232
C205	C	-0.431251	-1.091857	-1.036862
C206	C	-0.097918	-0.758524	-0.703529
C207	C	0.235416	-0.425190	-0.370195
C208	C	-0.431279	-1.091859	-0.971427
C209	C	-0.097946	-0.758526	-0.638093
C210	C	0.235387	-0.425193	-0.304760
C211	C	-0.380754	-1.142441	-0.938731
C212	C	-0.047421	-0.809107	-0.605397
C213	C	0.285913	-0.475774	-0.272064
C214	C	-0.380907	-1.142310	-0.139238
C215	C	-0.047574	-0.808977	0.194095
C216	C	0.285760	-0.475644	0.527429
C217	C	-0.380691	-1.142436	-0.069597
C218	C	-0.047358	-0.809102	0.263736
C219	C	0.285975	-0.475769	0.597070
H220	H	-0.238879	-0.717737	-0.414969
H221	H	0.094454	-0.384404	-0.081636
H222	H	0.427788	-0.051071	0.251698
H223	H	-0.681870	-1.050550	-0.374656
H224	H	-0.348536	-0.717217	-0.041323
H225	H	-0.015203	-0.383883	0.292011
Cl226	Cl	-0.220099	-1.156574	-0.728486
Cl227	Cl	0.113234	-0.823241	-0.395152
Cl228	Cl	0.446568	-0.489908	-0.061819
H229	H	-0.289349	-0.841519	-0.374807
H230	H	0.043985	-0.508186	-0.041473
H231	H	0.377318	-0.174852	0.291860
Cl232	Cl	-0.787424	-0.977613	-0.432414
Cl233	Cl	-0.454090	-0.644280	-0.099080
Cl234	Cl	-0.120757	-0.310946	0.234253
H235	H	-0.955476	-1.000081	-0.414700
H236	H	-0.622143	-0.666748	-0.081367
H237	H	-0.288810	-0.333414	0.251966
Cl238	Cl	-1.097569	-1.028309	-0.392415
Cl239	Cl	-0.764236	-0.694975	-0.059082
Cl240	Cl	-0.430903	-0.361642	0.274252
H241	H	-0.522994	-0.567716	-0.189058
H242	H	-0.189661	-0.234383	0.144275
H243	H	0.143673	0.098951	0.477608
H244	H	-1.079227	-1.234200	-0.229441
H245	H	-0.745894	-0.900867	0.103893
H246	H	-0.412560	-0.567534	0.437226
H247	H	-0.472531	-0.443936	-0.229214
H248	H	-0.139198	-0.110603	0.104119
H249	H	0.194135	0.222730	0.437452
Cl250	Cl	-0.266775	-1.256565	-0.674411
Cl251	Cl	0.066559	-0.923232	-0.341078
Cl252	Cl	0.399892	-0.589899	-0.007744
H253	H	-0.472613	-1.050655	-0.541137
H254	H	-0.139279	-0.717322	-0.207804
H255	H	0.194054	-0.383989	0.125529
H256	H	-0.955389	-1.284728	-0.189401
H257	H	-0.622056	-0.951395	0.143933
H258	H	-0.288722	-0.618061	0.477266
Cl259	Cl	-0.494834	-1.028280	-0.930278
Cl260	Cl	-0.161500	-0.694946	-0.596944
Cl261	Cl	0.171833	-0.361613	-0.263611
H262	H	-0.805625	-1.284689	-0.189385
H263	H	-0.472292	-0.951356	0.143949
H264	H	-0.138959	-0.618023	0.477282
Cl265	Cl	-0.663526	-1.256448	-0.211674
Cl266	Cl	-0.330192	-0.923115	0.121659
Cl267	Cl	0.003141	-0.589781	0.454992
Cl268	Cl	-0.541531	-1.128302	-0.876193
Cl269	Cl	-0.208198	-0.794968	-0.542860
Cl270	Cl	0.125136	-0.461635	-0.209526
H271	H	-0.289234	-1.234184	-0.541203
H272	H	0.044100	-0.900851	-0.207870
H273	H	0.377433	-0.567518	0.125463
Cl274	Cl	-0.220032	-1.156578	-0.876179
Cl275	Cl	0.113301	-0.823244	-0.542846
Cl276	Cl	0.446635	-0.489911	-0.209512
Cl277	Cl	-0.267043	-0.425850	-0.392641
Cl278	Cl	0.066291	-0.092516	-0.059308
Cl279	Cl	0.399624	0.240817	0.274025
H280	H	-0.289053	-1.234193	-0.944840
H281	H	0.044280	-0.900859	-0.611506
H282	H	0.377614	-0.567526	-0.278173
H283	H	-0.238908	-0.567976	-0.414983
H284	H	0.094425	-0.234642	-0.081649
H285	H	0.427758	0.098691	0.251684
Cl286	Cl	-0.266622	-1.256602	-1.078046
Cl287	Cl	0.066711	-0.923269	-0.744713
Cl288	Cl	0.400045	-0.589935	-0.411379
H289	H	-0.472385	-1.050676	-1.063488
H290	H	-0.139051	-0.717343	-0.730155
H291	H	0.194282	-0.384010	-0.396821
Cl292	Cl	-0.541598	-1.128319	-0.728505
Cl293	Cl	-0.208265	-0.794985	-0.395172
Cl294	Cl	0.125069	-0.461652	-0.061838
Cl295	Cl	-0.494943	-1.028273	-0.674331
Cl296	Cl	-0.161610	-0.694939	-0.340998
Cl297	Cl	0.171724	-0.361606	-0.007665
H298	H	-0.472501	-0.841352	-0.229157
H299	H	-0.139168	-0.508019	0.104176
H300	H	0.194165	-0.174686	0.437509
Cl301	Cl	-0.545344	-0.735755	-0.171263
Cl302	Cl	-0.212011	-0.402422	0.162070
Cl303	Cl	0.121323	-0.069088	0.495403
