data_functionalizedCrystal
_audit_creation_method	'MofGen! by Chris Wilmer'
_symmetry_space_group_name_H-M	'P1'
_symmetry_Int_Tables_number	1
_symmetry_cell_setting	triclinic
loop_
_symmetry_equiv_pos_as_xyz
  x,y,z
_cell_length_a	10.654550
_cell_length_b	9.730217
_cell_length_c	10.654551
_cell_angle_alpha	90.000440
_cell_angle_beta	84.485132
_cell_angle_gamma	90.004938
loop_
_atom_site_label
_atom_site_type_symbol
_atom_site_fract_x
_atom_site_fract_y
_atom_site_fract_z
O1	O	1.667837	0.114394	0.176396
O2	O	1.302358	0.114371	0.193203
O3	O	1.493500	0.114383	0.002060
O4	O	1.476695	0.114381	0.367539
O5	O	1.493494	-0.114197	0.002059
O6	O	1.302352	-0.114209	0.193201
O7	O	1.667831	-0.114186	0.176395
Zn8	Zn	1.485090	-0.150490	0.184797
Zn9	Zn	1.485098	0.150674	0.184800
O10	O	1.476689	-0.114199	0.367537
C11	C	1.255557	0.000078	0.191968
C12	C	1.116114	0.000069	0.188276
N13	N	1.485094	-0.356026	0.184795
C14	C	1.036629	0.000089	0.300817
C15	C	0.905608	0.000113	0.297341
C16	C	0.933570	0.000104	0.068771
C17	C	1.064589	0.000070	0.072249
C18	C	1.088154	0.000088	0.416844
C19	C	1.008667	0.000109	0.529395
C20	C	0.877647	0.000133	0.525918
C21	C	0.826112	0.000136	0.409891
C22	C	1.654420	-0.356006	0.015588
C23	C	1.739091	-0.427935	-0.069011
C24	C	1.739104	-0.571815	-0.069012
C25	C	1.654434	-0.643769	0.015594
C26	C	1.569763	-0.571839	0.100193
C27	C	1.569762	-0.427956	0.100187
C28	C	1.400433	-0.571860	0.269392
C29	C	1.400424	-0.427980	0.269401
C30	C	1.315763	-0.643813	0.353997
C31	C	1.231096	-0.571884	0.438605
C32	C	1.231087	-0.427995	0.438603
C33	C	1.315753	-0.356050	0.354000
C34	C	1.714632	0.000109	0.177629
C35	C	1.854075	0.000127	0.181321
C36	C	1.492263	0.000096	-0.044739
C37	C	1.488570	0.000105	-0.184182
N38	N	1.485104	0.356211	0.184792
C39	C	1.486841	0.124702	-0.249693
C40	C	1.483361	0.124695	-0.380713
C41	C	1.483344	-0.124515	-0.380701
C42	C	1.486815	-0.124507	-0.249681
C43	C	1.488596	0.249315	-0.184193
C44	C	1.486868	0.373921	-0.249704
C45	C	1.483388	0.373915	-0.380725
C46	C	1.481635	0.249301	-0.446234
C47	C	1.477926	0.000091	0.414336
C48	C	1.481619	0.000091	0.553779
H49	H	1.050636	0.000095	0.623860
C50	C	1.137973	-0.651032	0.531659
H51	H	1.150109	-0.747022	0.519542
H52	H	1.054039	-0.627463	0.517240
H53	H	1.152341	-0.627456	0.615614
H54	H	0.812931	0.000136	0.617562
C55	C	1.152032	0.000049	-0.051540
H56	H	1.237440	0.000014	-0.032848
H57	H	1.136335	0.079762	-0.099074
H58	H	1.136281	-0.079670	-0.099060
H59	H	1.478783	0.249306	-0.552917
C60	C	0.681992	0.000166	0.406068
H61	H	0.642031	0.000185	0.489712
H62	H	0.657489	-0.079534	0.363072
H63	H	0.657544	0.079898	0.363078
H64	H	0.891600	0.000129	-0.025693
H65	H	1.654428	-0.238851	0.015591
H66	H	1.194836	0.000075	0.419687
H67	H	1.808027	-0.369338	-0.137899
C68	C	1.832237	-0.650941	-0.162071
H69	H	1.882665	-0.587488	-0.212455
H70	H	1.786613	-0.707081	-0.214770
H71	H	1.884907	-0.707055	-0.116388
H72	H	1.654439	-0.760923	0.015577
C73	C	1.137949	-0.348883	0.531667
H74	H	1.087537	-0.412347	0.582055
H75	H	1.085283	-0.292760	0.486000
H76	H	1.183577	-0.292754	0.584382
C77	C	1.315747	-0.197787	0.353993
H78	H	1.378291	-0.165242	0.291485
H79	H	1.333615	-0.165225	0.434426
H80	H	1.235329	-0.165255	0.336035
C81	C	1.488719	-0.261560	-0.177615
H82	H	1.487194	-0.335776	-0.235389
H83	H	1.416964	-0.266735	-0.117564
H84	H	1.563191	-0.266732	-0.135446
C85	C	1.492597	0.249327	-0.040097
H86	H	1.493439	0.341383	-0.010473
H87	H	1.566536	0.203304	-0.019536
H88	H	1.420316	0.203316	-0.001389
H89	H	1.315772	-0.760968	0.353988
C90	C	1.488795	0.510983	-0.177650
H91	H	1.491128	0.493146	-0.090239
H92	H	1.415121	0.562182	-0.190178
H93	H	1.561348	0.562175	-0.208073
H94	H	1.481918	-0.225969	-0.434049
H95	H	1.481969	0.475375	-0.434059
