data_functionalizedCrystal
_audit_creation_method	'MofGen! by Chris Wilmer'
_symmetry_space_group_name_H-M	'P1'
_symmetry_Int_Tables_number	1
_symmetry_cell_setting	triclinic
loop_
_symmetry_equiv_pos_as_xyz
  x,y,z
_cell_length_a	10.723023
_cell_length_b	10.723023
_cell_length_c	13.448316
_cell_angle_alpha	89.994428
_cell_angle_beta	89.993723
_cell_angle_gamma	84.467548
loop_
_atom_site_label
_atom_site_type_symbol
_atom_site_fract_x
_atom_site_fract_y
_atom_site_fract_z
O1	O	1.657192	0.175026	-0.082679
O2	O	1.294040	0.191780	-0.082683
O3	O	1.483993	0.001826	-0.082677
O4	O	1.467239	0.364979	-0.082686
O5	O	1.483969	0.001815	0.082707
O6	O	1.294016	0.191768	0.082700
O7	O	1.657168	0.175014	0.082704
Cu8	Cu	1.475590	0.183390	0.097803
Cu9	Cu	1.475618	0.183404	-0.097782
O10	O	1.467215	0.364967	0.082698
C11	C	1.247528	0.190555	0.000008
C12	C	1.108974	0.186908	0.000007
C13	C	1.482762	-0.044679	0.000014
C14	C	1.479115	-0.183233	0.000010
C15	C	1.477501	-0.244993	-0.085665
C16	C	1.473732	-0.388196	-0.085670
C17	C	1.047189	0.185275	0.085680
C18	C	0.903986	0.181506	0.085680
C19	C	1.703680	0.176239	0.000011
C20	C	1.842234	0.179886	0.000006
C21	C	1.468446	0.411473	0.000005
C22	C	1.472093	0.550027	0.000002
N23	N	1.475579	0.183379	0.235368
N24	N	1.475639	0.183405	-0.235346
C25	C	1.559717	0.099303	0.287411
C26	C	1.559725	0.099302	0.391514
C27	C	1.475599	0.183384	0.443572
C28	C	1.391452	0.267464	0.391522
C29	C	1.391440	0.267458	0.287420
C30	C	1.391487	0.267473	0.608502
C31	C	1.391501	0.267481	0.712610
C32	C	1.559772	0.099316	0.712595
C33	C	1.559759	0.099310	0.608494
C34	C	1.475613	0.183393	0.556451
H35	H	1.478905	-0.191849	-0.159010
O36	O	1.471849	-0.451582	-0.173152
C37	C	1.361993	-0.513711	-0.178452
H38	H	1.287616	-0.465167	-0.127332
H39	H	1.383786	-0.615323	-0.154127
C40	C	1.404374	-0.569511	-0.348943
C41	C	1.313019	-0.509882	-0.286163
H42	H	1.374167	-0.567155	-0.415385
H43	H	1.478389	-0.527658	-0.345372
H44	H	1.422527	-0.654182	-0.328660
H45	H	1.294879	-0.425208	-0.306439
H46	H	1.239000	-0.551721	-0.289740
O47	O	1.045696	0.185028	-0.087528
C48	C	1.090656	0.077998	-0.142418
H49	H	1.135753	0.003527	-0.089706
H50	H	1.163154	0.104385	-0.198708
C51	C	0.925529	0.117505	-0.262285
C52	C	0.980909	0.026034	-0.197542
H53	H	0.857834	0.085453	-0.296293
H54	H	0.895240	0.189616	-0.225308
H55	H	0.985955	0.139485	-0.309185
H56	H	0.920487	0.004067	-0.150637
H57	H	1.011185	-0.046082	-0.234514
O58	O	1.110365	0.186873	0.173277
C59	C	1.025110	0.184656	0.252936
H60	H	0.937097	0.142780	0.226602
H61	H	0.999075	0.284230	0.280670
C62	C	1.194141	0.155724	0.370403
C63	C	1.086046	0.104282	0.338061
H64	H	1.231730	0.106151	0.422915
H65	H	1.251580	0.157223	0.316736
H66	H	1.172430	0.238702	0.393508
H67	H	1.107761	0.021312	0.314946
H68	H	1.028612	0.102767	0.391726
H69	H	1.628226	0.030838	0.245032
H70	H	0.850852	0.180109	0.159028
H71	H	1.473487	-0.396870	0.073355
H72	H	1.628235	0.030840	0.433887
O73	O	1.477254	-0.246731	0.087455
C74	C	1.367361	-0.308801	0.092777
H75	H	1.330900	-0.323767	0.014479
H76	H	1.293124	-0.249450	0.137311
C77	C	1.441636	-0.418182	0.240363
C78	C	1.396859	-0.436572	0.144197
H79	H	1.459829	-0.496995	0.272085
H80	H	1.515671	-0.376361	0.236781
H81	H	1.379765	-0.368718	0.277462
H82	H	1.458736	-0.486021	0.107096
H83	H	1.322835	-0.478405	0.147774
O84	O	1.309665	0.349254	0.237017
C85	C	1.235396	0.423449	0.305285
H86	H	1.286579	0.425334	0.379482
H87	H	1.142355	0.382079	0.316378
C88	C	1.147948	0.555520	0.173511
C89	C	1.210817	0.557844	0.264640
H90	H	1.132781	0.638420	0.148439
H91	H	1.197981	0.505531	0.127516
H92	H	1.070422	0.521039	0.182768
H93	H	1.288348	0.592309	0.255379
H94	H	1.160796	0.607842	0.310632
H95	H	1.322950	0.335922	0.433914
H96	H	1.322996	0.335948	0.754991
H97	H	0.895358	0.181297	-0.073346
H98	H	1.628286	0.030854	0.754975
H99	H	1.628266	0.030851	0.566108
H100	H	1.322962	0.335938	0.566132
