data_functionalizedCrystal
_audit_creation_method	'MofGen! by Chris Wilmer'
_symmetry_space_group_name_H-M	'P1'
_symmetry_Int_Tables_number	1
_symmetry_cell_setting	triclinic
loop_
_symmetry_equiv_pos_as_xyz
  x,y,z
_cell_length_a	12.594517
_cell_length_b	16.625546
_cell_length_c	16.625539
_cell_angle_alpha	89.969603
_cell_angle_beta	90.020900
_cell_angle_gamma	89.977732
loop_
_atom_site_label
_atom_site_type_symbol
_atom_site_fract_x
_atom_site_fract_y
_atom_site_fract_z
Zn1	Zn	1.627215	0.321004	0.455905
Zn2	Zn	2.127215	0.821004	0.955905
Zn3	Zn	1.627087	0.455848	0.321067
Zn4	Zn	2.127087	0.955848	0.821067
Zn5	Zn	1.449220	0.321032	0.321084
Zn6	Zn	1.949220	0.821032	0.821084
Zn7	Zn	1.449181	0.455798	0.455856
Zn8	Zn	1.949181	0.955798	0.955856
O9	O	1.538176	0.388421	0.388478
O10	O	2.038176	0.888421	0.888478
O11	O	1.776144	0.338901	0.438031
O12	O	2.276144	0.838901	0.938031
O13	O	1.603456	0.437996	0.208237
O14	O	2.103456	0.937996	0.708237
O15	O	1.472901	0.208196	0.338996
O16	O	1.972901	0.708196	0.838996
O17	O	1.776050	0.437969	0.338967
O18	O	2.276050	0.937969	0.838967
O19	O	1.603673	0.208176	0.438048
O20	O	2.103673	0.708176	0.938048
O21	O	1.472778	0.338948	0.208250
O22	O	1.972778	0.838948	0.708250
O23	O	1.300269	0.338900	0.338949
O24	O	1.800269	0.838900	0.838949
O25	O	1.472835	0.437885	0.568695
O26	O	1.972835	0.937885	1.068695
O27	O	1.300241	0.437912	0.437965
O28	O	1.800241	0.937912	0.937965
O29	O	1.603636	0.338853	0.568731
O30	O	2.103636	0.838853	1.068731
O31	O	1.603418	0.568673	0.338919
O32	O	2.103418	1.068673	0.838919
O33	O	1.472711	0.568637	0.437948
O34	O	1.972711	1.068637	0.937948
C35	C	1.538075	0.597912	0.388444
C36	C	2.038075	1.097912	0.888444
C37	C	1.538129	0.687533	0.388457
C38	C	2.038129	1.187533	0.888457
C39	C	1.261635	0.388404	0.388454
C40	C	1.761635	0.888404	0.888454
C41	C	1.143329	0.388417	0.388463
C42	C	1.643329	0.888417	0.888463
C43	C	1.538245	0.388361	0.598787
C44	C	2.038245	0.888361	1.098787
C45	C	1.538275	0.388335	0.688408
C46	C	2.038275	0.888335	1.188408
C47	C	1.074061	0.334491	0.334711
C48	C	1.574061	0.834491	0.834711
C49	C	1.003239	0.408038	0.314872
C50	C	1.503239	0.908038	0.814872
C51	C	1.003352	0.314905	0.408316
C52	C	1.503352	0.814905	0.908316
C53	C	1.074066	0.462003	0.368586
C54	C	1.574066	0.962003	0.868586
C55	C	1.074185	0.368821	0.462064
C56	C	1.574185	0.868821	0.962064
C57	C	1.003395	0.442419	0.442253
C58	C	1.503395	0.942419	0.942253
C59	C	1.815797	0.388437	0.388502
C60	C	2.315797	0.888437	0.888502
C61	C	1.934102	0.388445	0.388513
C62	C	2.434102	0.888445	0.888513
C63	C	1.538306	0.178112	0.388530
C64	C	2.038306	0.678112	0.888530
C65	C	1.538361	0.088491	0.388552
C66	C	2.038361	0.588491	0.888552
C67	C	1.538315	1.015708	0.388541
C68	C	2.038315	1.515708	0.888541
C69	C	1.538260	0.924400	0.388520
C70	C	2.038260	1.424400	0.888520
C71	C	1.538221	0.851623	0.388498
C72	C	2.038221	1.351623	0.888498
C73	C	1.538168	0.760309	0.388478
C74	C	2.038168	1.260309	0.888478
C75	C	1.538168	0.388422	0.178987
C76	C	2.038168	0.888422	0.678987
C77	C	1.538345	0.388221	0.089367
C78	C	2.038345	0.888221	0.589367
C79	C	1.538324	0.388245	1.016584
C80	C	2.038324	0.888245	1.516584
C81	C	1.538307	0.388272	0.925276
C82	C	2.038307	0.888272	1.425276
C83	C	1.538300	0.388290	0.852499
C84	C	2.038300	0.888290	1.352499
C85	C	1.538282	0.388317	0.761185
C86	C	2.038282	0.888317	1.261185
H87	H	0.972079	0.424631	0.252651
H88	H	1.472079	0.924631	0.752651
C89	C	0.898644	0.201133	0.368184
C90	C	1.398644	0.701133	0.868184
C91	C	0.961421	0.230967	0.430960
C92	C	1.461421	0.730967	0.930960
H93	H	0.872767	0.149309	0.382159
H94	H	1.372767	0.649309	0.882159
H95	H	0.840491	0.236410	0.359211
H96	H	1.340491	0.736410	0.859211
H97	H	0.940109	0.197433	0.320612
H98	H	1.440109	0.697433	0.820612
H99	H	0.919953	0.234672	0.478532
H100	H	1.419953	0.734672	0.978532
H101	H	1.019582	0.195680	0.439943
H102	H	1.519582	0.695680	0.939943
H103	H	1.104999	0.524201	0.351746
H104	H	1.604999	1.024201	0.851746
C105	C	1.080138	0.293723	0.196265
C106	C	1.580138	0.793723	0.696265
C107	C	1.115959	0.272988	0.273276
C108	C	1.615959	0.772988	0.773276
H109	H	1.106010	0.255758	0.158339
H110	H	1.606010	0.755758	0.658339
H111	H	1.004729	0.293649	0.195526
H112	H	1.504729	0.793649	0.695526
H113	H	1.105399	0.345822	0.182699
H114	H	1.605399	0.845822	0.682699
H115	H	1.090691	0.220891	0.286845
H116	H	1.590691	0.720891	0.786845
H117	H	1.191384	0.273054	0.274017
H118	H	1.691384	0.773054	0.774017
C119	C	1.047684	0.542391	0.540876
C120	C	1.547684	1.042391	1.040876
C121	C	0.961762	0.504067	0.503644
C122	C	1.461762	1.004067	1.003644
H123	H	1.021977	0.580454	0.578769
H124	H	1.521977	1.080454	1.078769
H125	H	1.090177	0.503532	0.567714
H126	H	1.590177	1.003532	1.067714
H127	H	1.089160	0.569190	0.501393
H128	H	1.589160	1.069190	1.001393
H129	H	0.920290	0.477262	0.543127
H130	H	1.420290	0.977262	1.043127
H131	H	0.919251	0.542932	0.476805
H132	H	1.419251	1.042932	0.976805
C133	C	1.080667	0.269333	0.566679
C134	C	1.580667	0.769333	1.066679
C135	C	1.116297	0.346393	0.546034
C136	C	1.616297	0.846393	1.046034
H137	H	1.106674	0.255481	0.618517
H138	H	1.606674	0.755481	1.118517
H139	H	1.005260	0.268699	0.567192
H140	H	1.505260	0.768699	1.067192
H141	H	1.105920	0.231557	0.528336
H142	H	1.605920	0.731557	1.028336
H143	H	1.091037	0.384171	0.584374
H144	H	1.591037	0.884171	1.084374
H145	H	1.191720	0.347034	0.545527
H146	H	1.691720	0.847034	1.045527
