data_functionalizedCrystal
_audit_creation_method	'MofGen! by Chris Wilmer'
_symmetry_space_group_name_H-M	'P1'
_symmetry_Int_Tables_number	1
_symmetry_cell_setting	triclinic
loop_
_symmetry_equiv_pos_as_xyz
  x,y,z
_cell_length_a	19.805405
_cell_length_b	19.805407
_cell_length_c	21.395355
_cell_angle_alpha	89.974508
_cell_angle_beta	89.980090
_cell_angle_gamma	90.026410
loop_
_atom_site_label
_atom_site_type_symbol
_atom_site_fract_x
_atom_site_fract_y
_atom_site_fract_z
Zn1	Zn	-0.269542	1.034775	-0.354271
Zn2	Zn	-0.382711	1.034678	-0.249491
Zn3	Zn	-0.269542	0.921578	-0.249506
Zn4	Zn	-0.382694	0.921553	-0.354229
O5	O	-0.326122	0.978146	-0.301874
O6	O	-0.284561	1.129479	-0.340383
O7	O	-0.367707	1.019645	-0.161815
O8	O	-0.174825	0.936645	-0.263427
O9	O	-0.367706	1.129408	-0.263401
O10	O	-0.174825	1.019810	-0.340397
O11	O	-0.284561	0.936551	-0.161826
O12	O	-0.284544	0.826858	-0.263387
O13	O	-0.367677	0.936603	-0.441913
O14	O	-0.367677	0.826840	-0.340327
O15	O	-0.284544	1.019786	-0.441943
O16	O	-0.477426	1.019621	-0.263361
O17	O	-0.477413	0.936509	-0.340312
C18	C	-0.326109	0.802290	-0.301854
C19	C	-0.326120	0.727058	-0.301860
C20	C	-0.369472	0.691722	-0.341858
C21	C	-0.369473	0.621034	-0.341867
C22	C	-0.326125	0.585683	-0.301874
C23	C	-0.282768	0.621024	-0.261875
C24	C	-0.282764	0.691711	-0.261870
C25	C	-0.282783	0.335950	-0.261896
C26	C	-0.282792	0.265258	-0.261903
C27	C	-0.369492	0.265273	-0.341893
C28	C	-0.369488	0.335961	-0.341888
C29	C	-0.326129	0.371295	-0.301891
C30	C	-0.326127	0.447944	-0.301882
C31	C	-0.326130	0.509036	-0.301879
C32	C	-0.501978	0.978070	-0.301844
C33	C	-0.577210	0.978099	-0.301852
C34	C	-0.612539	1.021418	-0.261826
C35	C	-0.683227	1.021447	-0.261840
C36	C	-0.718586	0.978153	-0.301877
C37	C	-0.683252	0.934832	-0.341908
C38	C	-0.612565	0.934808	-0.341897
C39	C	-0.968326	0.934932	-0.341954
C40	C	-1.039018	0.934959	-0.341961
C41	C	-1.038987	1.021572	-0.261897
C42	C	-0.968300	1.021547	-0.261886
C43	C	-0.932973	0.978229	-0.301919
C44	C	-0.856325	0.978199	-0.301904
C45	C	-0.795233	0.978179	-0.301889
C46	C	-0.149579	0.978241	-0.301919
C47	C	-0.074347	0.978282	-0.301937
C48	C	-0.326108	0.978202	-0.465298
C49	C	-0.326103	0.978226	-0.534939
C50	C	-0.326136	1.154689	-0.301895
C51	C	-0.326141	1.229921	-0.301904
C52	C	-0.282814	1.021538	-0.567669
C53	C	-0.282785	1.021537	-0.633105
C54	C	-0.326057	0.978232	-0.665807
C55	C	-0.369348	0.934911	-0.633069
C56	C	-0.369372	0.934909	-0.567635
C57	C	-0.387001	0.972861	-0.769471
C58	C	-0.386979	0.972868	-0.834904
C59	C	-0.325985	0.978236	-0.867628
C60	C	-0.265011	0.983610	-0.834911
C61	C	-0.265034	0.983608	-0.769477
C62	C	-0.326036	0.978229	-0.736760
C63	C	-0.282661	1.021549	-0.971311
C64	C	-0.282631	1.021543	-1.036748
C65	C	-0.369201	0.934921	-1.036711
C66	C	-0.369225	0.934923	-0.971276
C67	C	-0.325956	0.978241	-0.938580
C68	C	-0.326087	0.978129	-0.139087
C69	C	-0.325902	0.978236	-0.069446
H70	H	-0.583754	1.056670	-0.229220
C71	C	-0.197911	0.989512	-0.870898
C72	C	-0.130845	0.995421	-0.834912
C73	C	-0.063748	1.001325	-0.870902
C74	C	-0.063716	1.001320	-0.942877
C75	C	-0.130784	0.995411	-0.978866
C76	C	-0.197882	0.989507	-0.942877
H77	H	-0.130867	0.995425	-0.781628
H78	H	-0.014100	1.005699	-0.844260
H79	H	-0.014047	1.005691	-0.969519
H80	H	-0.130763	0.995408	-1.032150
H81	H	-0.247530	0.985133	-0.969519
C82	C	-0.235102	0.226370	-0.217912
C83	C	-0.264354	0.177736	-0.168673
C84	C	-0.216668	0.138847	-0.124685
C85	C	-0.139730	0.148592	-0.129935
C86	C	-0.110474	0.197228	-0.179176
C87	C	-0.158160	0.236117	-0.223164
H88	H	-0.321312	0.170520	-0.164785
H89	H	-0.238326	0.102843	-0.088234
H90	H	-0.104430	0.119804	-0.097372
H91	H	-0.053516	0.204443	-0.183064
H92	H	-0.136503	0.272120	-0.259615
C93	C	-0.416845	0.887275	-0.935274
C94	C	-0.387520	0.834146	-0.890278
C95	C	-0.435139	0.786489	-0.854278
C96	C	-0.512082	0.791960	-0.863275
C97	C	-0.541411	0.845092	-0.908273
C98	C	-0.493793	0.892749	-0.944273
H99	H	-0.330559	0.830093	-0.883616
H100	H	-0.413427	0.747157	-0.820968
H101	H	-0.547332	0.756682	-0.836626
H102	H	-0.598373	0.849144	-0.914935
H103	H	-0.515504	0.932080	-0.977583
H104	H	-0.247425	1.056817	-0.944688
C105	C	-0.235212	1.069181	-0.531706
C106	C	-0.158264	1.063699	-0.540708
C107	C	-0.110660	1.111341	-0.504744
C108	C	-0.140005	1.164466	-0.459780
C109	C	-0.216957	1.169950	-0.450776
C110	C	-0.264560	1.122308	-0.486740
H111	H	-0.136538	1.024371	-0.573995
H112	H	-0.053695	1.107281	-0.511409
H113	H	-0.104766	1.199733	-0.433157
H114	H	-0.238683	1.209278	-0.417489
H115	H	-0.321526	1.126369	-0.480074
H116	H	-0.404622	0.899636	-0.540987
C117	C	-0.417171	0.374847	-0.385880
C118	C	-0.387914	0.423484	-0.435114
C119	C	-0.435596	0.462370	-0.479109
C120	C	-0.512534	0.452619	-0.473870
C121	C	-0.541795	0.403980	-0.424634
C122	C	-0.494113	0.365094	-0.380639
H123	H	-0.330957	0.430704	-0.438993
H124	H	-0.413935	0.498376	-0.515556
H125	H	-0.547831	0.481405	-0.506438
H126	H	-0.598752	0.396760	-0.420755
H127	H	-0.515774	0.329088	-0.344192
H128	H	-0.436627	0.968496	-0.861538
H129	H	-0.583802	0.899534	-0.374491
C130	C	-0.416800	0.887282	-1.072676
C131	C	-0.416777	0.887281	-1.144651
C132	C	-0.464376	0.839639	-1.180620
C133	C	-0.511998	0.791997	-1.144613
C134	C	-0.512023	0.791997	-1.072634
C135	C	-0.464424	0.839639	-1.036665
H136	H	-0.381523	0.922550	-1.171309
H137	H	-0.464357	0.839640	-1.233903
H138	H	-0.547233	0.756729	-1.171239
H139	H	-0.547277	0.756728	-1.045976
H140	H	-0.464443	0.839638	-0.983382
H141	H	-0.939568	0.899660	-0.374549
H142	H	-0.712047	0.899585	-0.374510
C143	C	-0.722088	1.069102	-0.217814
C144	C	-0.683196	1.116725	-0.173773
C145	C	-0.722057	1.164386	-0.129748
C146	C	-0.799810	1.164426	-0.129764
C147	C	-0.838707	1.116802	-0.173807
C148	C	-0.799846	1.069140	-0.217831
H149	H	-0.625635	1.116697	-0.173760
H150	H	-0.693263	1.199641	-0.097145
H151	H	-0.828577	1.199708	-0.097175
H152	H	-0.896268	1.116829	-0.173820
H153	H	-0.828640	1.033886	-0.250434
H154	H	-0.247459	0.720480	-0.229303
C155	C	-1.077914	0.887337	-0.386009
C156	C	-1.039058	0.839691	-0.430046
C157	C	-1.077955	0.792071	-0.474091
C158	C	-1.155708	0.792098	-0.474098
C159	C	-1.194569	0.839746	-0.430060
C160	C	-1.155672	0.887365	-0.386015
H161	H	-0.981497	0.839670	-0.430042
H162	H	-1.049187	0.756799	-0.506692
H163	H	-1.184502	0.756847	-0.506703
H164	H	-1.252130	0.839767	-0.430064
H165	H	-1.184439	0.922637	-0.353414
H166	H	-0.247376	1.056812	-1.063395
H167	H	-0.939513	1.056798	-0.229282
H168	H	-0.247530	1.056806	-0.659758
H169	H	-0.436657	0.968309	-0.742833
C170	C	-0.416949	0.887275	-0.669039
C171	C	-0.416930	0.887279	-0.741015
C172	C	-0.464530	0.839639	-0.776984
C173	C	-0.512150	0.791994	-0.740978
C174	C	-0.512171	0.791989	-0.668999
C175	C	-0.464571	0.839629	-0.633030
H176	H	-0.381677	0.922550	-0.767672
H177	H	-0.464514	0.839643	-0.830268
H178	H	-0.547386	0.756728	-0.767604
H179	H	-0.547424	0.756718	-0.642341
H180	H	-0.464587	0.839625	-0.579746
C181	C	-0.197966	0.989512	-0.733490
C182	C	-0.176126	0.932897	-0.688484
C183	C	-0.109056	0.938798	-0.652497
C184	C	-0.063827	1.001315	-0.661517
C185	C	-0.085667	1.057935	-0.706525
C186	C	-0.152736	1.052034	-0.742511
H187	H	-0.209608	0.886614	-0.681805
H188	H	-0.092890	0.896884	-0.619180
H189	H	-0.014179	1.005684	-0.634877
H190	H	-0.052185	1.104218	-0.713203
H191	H	-0.168903	1.093948	-0.775829
H192	H	-0.404774	0.720500	-0.374423
C193	C	-0.417183	0.226404	-0.385897
C194	C	-0.417190	0.148651	-0.385911
C195	C	-0.464881	0.109783	-0.429913
C196	C	-0.512566	0.148669	-0.473900
C197	C	-0.512561	0.226427	-0.473887
C198	C	-0.464870	0.265294	-0.429886
H199	H	-0.381890	0.119861	-0.353348
H200	H	-0.464885	0.052222	-0.429922
H201	H	-0.547869	0.119897	-0.506472
H202	H	-0.547861	0.255216	-0.506451
H203	H	-0.464866	0.322855	-0.429877
H204	H	-0.404776	0.592266	-0.374436
H205	H	-0.247483	0.364711	-0.229323
H206	H	-0.247471	0.592235	-0.229315
H207	H	-1.067759	1.056846	-0.229303
