data_functionalizedCrystal
_audit_creation_method	'MofGen! by Chris Wilmer'
_symmetry_space_group_name_H-M	'P1'
_symmetry_Int_Tables_number	1
_symmetry_cell_setting	triclinic
loop_
_symmetry_equiv_pos_as_xyz
  x,y,z
_cell_length_a	13.897449
_cell_length_b	13.897441
_cell_length_c	13.897448
_cell_angle_alpha	90.030599
_cell_angle_beta	89.982475
_cell_angle_gamma	89.977141
loop_
_atom_site_label
_atom_site_type_symbol
_atom_site_fract_x
_atom_site_fract_y
_atom_site_fract_z
Zn1	Zn	-1.474703	0.545436	-0.383988
Zn2	Zn	-1.474597	0.384137	-0.545310
Zn3	Zn	-1.313392	0.384148	-0.384030
Zn4	Zn	-1.313373	0.545384	-0.545243
O5	O	-1.394016	0.464776	-0.464643
O6	O	-1.609670	0.524056	-0.405399
O7	O	-1.453176	0.249157	-0.523962
O8	O	-1.334842	0.405570	-0.249043
O9	O	-1.609592	0.405551	-0.523921
O10	O	-1.453356	0.524067	-0.249012
O11	O	-1.334739	0.249165	-0.405470
O12	O	-1.178408	0.405519	-0.405405
O13	O	-1.334811	0.680372	-0.523806
O14	O	-1.178394	0.523978	-0.523847
O15	O	-1.453339	0.680411	-0.405333
O16	O	-1.453158	0.405501	-0.680283
O17	O	-1.334708	0.523968	-0.680233
C18	C	-1.143402	0.464745	-0.464624
C19	C	-1.036188	0.464755	-0.464639
C20	C	-0.839893	0.464773	-0.464637
C21	C	-0.949125	0.464760	-0.464635
C22	C	-1.393946	0.464748	-0.715257
C23	C	-1.394004	0.464769	-0.822471
C24	C	-1.394085	0.716369	-0.464558
C25	C	-1.394114	0.823583	-0.464521
C26	C	-0.645609	0.464799	-0.464656
C27	C	-0.752823	0.464785	-0.464646
C28	C	-1.394003	0.214162	-0.464658
C29	C	-1.394161	0.106949	-0.464423
C30	C	-1.394140	1.019879	-0.464456
C31	C	-1.394122	0.910646	-0.464495
C32	C	-1.394105	0.464829	-1.018766
C33	C	-1.394046	0.464798	-0.909534
C34	C	-1.394113	0.464825	-0.213050
C35	C	-1.394154	0.464846	-0.105836
