data_functionalizedCrystal
_audit_creation_method	'MofGen! by Chris Wilmer'
_symmetry_space_group_name_H-M	'P1'
_symmetry_Int_Tables_number	1
_symmetry_cell_setting	triclinic
loop_
_symmetry_equiv_pos_as_xyz
  x,y,z
_cell_length_a	21.295417
_cell_length_b	16.120530
_cell_length_c	16.120297
_cell_angle_alpha	90.128140
_cell_angle_beta	92.867002
_cell_angle_gamma	87.125778
loop_
_atom_site_label
_atom_site_type_symbol
_atom_site_fract_x
_atom_site_fract_y
_atom_site_fract_z
Zn1	Zn	-0.318915	1.247391	-0.534523
Zn2	Zn	0.181085	1.747391	-0.034523
Zn3	Zn	-0.419125	1.254326	-0.395453
Zn4	Zn	0.080875	1.754326	0.104547
Zn5	Zn	-0.308278	1.115383	-0.388443
Zn6	Zn	0.191722	1.615383	0.111557
Zn7	Zn	-0.418545	1.108282	-0.527422
Zn8	Zn	0.081455	1.608282	-0.027422
O9	O	-0.366216	1.181345	-0.461460
O10	O	0.133784	1.681345	0.038540
O11	O	-0.336903	1.364676	-0.521981
O12	O	0.163097	1.864676	-0.021981
O13	O	-0.400212	1.241769	-0.278158
O14	O	0.099788	1.741769	0.221842
O15	O	-0.221604	1.132963	-0.407859
O16	O	0.278396	1.632963	0.092141
O17	O	-0.410526	1.369771	-0.419806
O18	O	0.089474	1.869771	0.080194
O19	O	-0.229419	1.229949	-0.515184
O20	O	0.270581	1.729949	-0.015184
O21	O	-0.318773	1.139688	-0.273008
O22	O	0.181227	1.639688	0.226992
O23	O	-0.318211	0.998075	-0.400973
O24	O	0.181789	1.498075	0.099027
O25	O	-0.409538	1.120862	-0.644729
O26	O	0.090462	1.620862	-0.144729
O27	O	-0.399224	0.992859	-0.503081
O28	O	0.100776	1.492859	-0.003081
O29	O	-0.336340	1.223064	-0.649946
O30	O	0.163660	1.723064	-0.149946
O31	O	-0.507133	1.234884	-0.412921
O32	O	-0.007133	1.734884	0.087079
O33	O	-0.506707	1.127586	-0.509878
O34	O	-0.006707	1.627586	-0.009878
C35	C	-0.357501	0.965295	-0.450496
C36	C	0.142499	1.465295	0.049504
C37	C	-0.353788	0.872866	-0.445825
C38	C	0.146212	1.372866	0.054175
C39	C	-0.529761	1.181239	-0.461409
C40	C	-0.029761	1.681239	0.038591
C41	C	-0.599731	1.181268	-0.461418
C42	C	-0.099731	1.681268	0.038582
C43	C	-0.346996	0.703638	-0.437305
C44	C	0.153004	1.203638	0.062695
C45	C	-0.385485	0.659891	-0.485677
C46	C	0.114515	1.159891	0.014323
C47	C	-0.381705	0.565726	-0.480936
C48	C	0.118295	1.065726	0.019064
C49	C	-0.350774	0.797811	-0.442045
C50	C	0.149226	1.297811	0.057955
C51	C	-0.632802	1.237182	-0.410990
C52	C	-0.132802	1.737182	0.089010
C53	C	-0.698547	1.237220	-0.411010
C54	C	-0.198547	1.737220	0.088990
C55	C	-0.731217	1.181329	-0.461450
C56	C	-0.231217	1.681329	0.038550
C57	C	-0.698138	1.125411	-0.511889
C58	C	-0.198138	1.625411	-0.011889
C59	C	-0.632395	1.125380	-0.511873
C60	C	-0.132395	1.625380	-0.011873
N61	N	-0.831783	1.108264	-0.464098
N62	N	-0.331783	1.608264	0.035902
N63	N	-0.894236	1.108296	-0.464108
N64	N	-0.394236	1.608296	0.035892
C65	C	-0.929297	1.181420	-0.461503
C66	C	-0.429297	1.681420	0.038497
N67	N	-0.899546	1.254514	-0.458870
N68	N	-0.399546	1.754514	0.041130
N69	N	-0.837087	1.254481	-0.458855
N70	N	-0.337087	1.754481	0.041145
C71	C	-0.802504	1.181357	-0.461473
C72	C	-0.302504	1.681357	0.038527
C73	C	-1.033657	1.237380	-0.411094
C74	C	-0.533657	1.737380	0.088906
C75	C	-1.099403	1.237419	-0.411120
C76	C	-0.599403	1.737419	0.088880
C77	C	-1.098992	1.125603	-0.511994
C78	C	-0.598992	1.625603	-0.011994
C79	C	-1.033248	1.125571	-0.511973
C80	C	-0.533248	1.625571	-0.011973
C81	C	-1.000584	1.181459	-0.461518
C82	C	-0.500584	1.681459	0.038482
C83	C	-0.202033	1.181474	-0.461531
C84	C	0.297967	1.681474	0.038469
C85	C	-0.132068	1.181529	-0.461562
C86	C	0.367932	1.681529	0.038438
C87	C	-0.374061	1.170397	-0.678353
C88	C	0.125939	1.670397	-0.178353
C89	C	-0.377404	1.165731	-0.770780
C90	C	0.122596	1.665731	-0.270780
C91	C	-0.374966	1.398240	-0.472468
C92	C	0.125034	1.898240	0.027532
C93	C	-0.378694	1.490667	-0.477159
C94	C	0.121306	1.990667	0.022841
C95	C	-0.383493	1.157183	-0.940004
C96	C	0.116507	1.657183	-0.440004
C97	C	-0.348757	1.205672	-0.983777
C98	C	0.151243	1.705672	-0.483777
C99	C	-0.352144	1.200915	-1.077938
C100	C	0.147856	1.700915	-0.577938
C101	C	-0.380106	1.161938	-0.845834
C102	C	0.119894	1.661938	-0.345834
C103	C	-0.358358	1.192299	-0.245413
C104	C	0.141642	1.692299	0.254587
C105	C	-0.354844	1.197126	-0.152995
C106	C	0.145156	1.697126	0.347005
H107	H	-0.421274	0.693157	-0.530651
H108	H	0.078726	1.193157	-0.030651
H109	H	-0.311209	0.670373	-0.392335
H110	H	0.188791	1.170373	0.107665
H111	H	-1.006319	1.080037	-0.553033
H112	H	-0.506319	1.580037	-0.053033
C113	C	-0.639818	1.347715	-0.311288
C114	C	-0.139818	1.847715	0.188712
C115	C	-0.596900	1.298625	-0.355543
C116	C	-0.096900	1.798625	0.144457
H117	H	-0.617651	1.385651	-0.277064
H118	H	-0.117651	1.885651	0.222936
H119	H	-0.662881	1.313129	-0.277617
H120	H	-0.162881	1.813129	0.222383
H121	H	-0.668022	1.377668	-0.349173
H122	H	-0.168022	1.877668	0.150827
H123	H	-0.568699	1.268667	-0.317658
H124	H	-0.068699	1.768667	0.182342
H125	H	-0.573827	1.333215	-0.389216
H126	H	-0.073827	1.833215	0.110784
C127	C	-0.776522	1.349677	-0.405201
C128	C	-0.276522	1.849677	0.094799
C129	C	-0.734916	1.298663	-0.355559
C130	C	-0.234916	1.798663	0.144441
H131	H	-0.798972	1.387605	-0.370962
H132	H	-0.298972	1.887605	0.129038
H133	H	-0.805375	1.316396	-0.435251
H134	H	-0.305375	1.816396	0.064749
H135	H	-0.753433	1.379639	-0.443047
H136	H	-0.253433	1.879639	0.056953
H137	H	-0.758006	1.268697	-0.317717
H138	H	-0.258006	1.768697	0.182283
H139	H	-0.706059	1.331948	-0.325495
H140	H	-0.206059	1.831948	0.174505
H141	H	-0.724742	1.079906	-0.552959
H142	H	-0.224742	1.579906	-0.052959
H143	H	-0.415774	1.112102	-0.973246
H144	H	0.084226	1.612102	-0.473246
C145	C	-0.638594	1.014859	-0.611584
C146	C	-0.138594	1.514859	-0.111584
C147	C	-0.596039	1.063910	-0.567303
C148	C	-0.096039	1.563910	-0.067303
H149	H	-0.616146	0.976907	-0.645799
H150	H	-0.116146	1.476907	-0.145799
H151	H	-0.666807	1.049470	-0.645266
H152	H	-0.166807	1.549470	-0.145266
H153	H	-0.661682	0.984926	-0.573715
H154	H	-0.161682	1.484926	-0.073715
H155	H	-0.572953	1.093848	-0.605173
H156	H	-0.072953	1.593848	-0.105173
H157	H	-0.567815	1.029295	-0.533619
H158	H	-0.067815	1.529295	-0.033619
C159	C	-1.040664	1.347910	-0.311388
C160	C	-0.540664	1.847910	0.188612
C161	C	-0.997748	1.298815	-0.355641
C162	C	-0.497748	1.798815	0.144359
H163	H	-1.018495	1.385839	-0.277158
H164	H	-0.518495	1.885839	0.222842
H165	H	-1.063734	1.313326	-0.277724
H166	H	-0.563734	1.813326	0.222276
H167	H	-1.068862	1.377871	-0.349274
H168	H	-0.568862	1.877871	0.150726
H169	H	-0.969553	1.268849	-0.317755
H170	H	-0.469553	1.768849	0.182245
H171	H	-0.974668	1.333403	-0.389308
H172	H	-0.474668	1.833403	0.110692
C173	C	-0.273716	1.310459	-0.997644
C174	C	0.226284	1.810459	-0.497644
C175	C	-0.305178	1.266542	-0.938907
C176	C	0.194822	1.766542	-0.438907
H177	H	-0.246812	1.348033	-0.969939
H178	H	0.253188	1.848033	-0.469939
H179	H	-0.303621	1.340561	-1.033134
H180	H	0.196379	1.840561	-0.533134
H181	H	-0.249368	1.272564	-1.029684
H182	H	0.250632	1.772564	-0.529684
H183	H	-0.329529	1.304437	-0.906871
H184	H	0.170471	1.804437	-0.406871
H185	H	-0.275269	1.236438	-0.903403
H186	H	0.224731	1.736438	-0.403403
H187	H	-1.126329	1.282957	-0.370057
H188	H	-0.626329	1.782957	0.129943
H189	H	-1.125592	1.080099	-0.553068
H190	H	-0.625592	1.580099	-0.053068
