data_functionalizedCrystal
_audit_creation_method	'MofGen! by Chris Wilmer'
_symmetry_space_group_name_H-M	'P1'
_symmetry_Int_Tables_number	1
_symmetry_cell_setting	triclinic
loop_
_symmetry_equiv_pos_as_xyz
  x,y,z
_cell_length_a	16.959455
_cell_length_b	16.959454
_cell_length_c	16.959447
_cell_angle_alpha	89.981934
_cell_angle_beta	90.018890
_cell_angle_gamma	89.997445
loop_
_atom_site_label
_atom_site_type_symbol
_atom_site_fract_x
_atom_site_fract_y
_atom_site_fract_z
Zn1	Zn	-1.208497	-0.314723	-0.446986
Zn2	Zn	-1.208450	-0.446907	-0.314827
Zn3	Zn	-1.076318	-0.314743	-0.314820
Zn4	Zn	-1.076327	-0.446860	-0.446963
O5	O	-1.142398	-0.380808	-0.380899
O6	O	-1.319102	-0.332269	-0.429468
O7	O	-1.190898	-0.429404	-0.204216
O8	O	-1.093868	-0.204130	-0.332359
O9	O	-1.319067	-0.429384	-0.332371
O10	O	-1.190979	-0.204115	-0.429461
O11	O	-1.093822	-0.332303	-0.204210
O12	O	-0.965709	-0.332258	-0.332336
O13	O	-1.093884	-0.429304	-0.557577
O14	O	-0.965715	-0.429323	-0.429421
O15	O	-1.190988	-0.332223	-0.557594
O16	O	-1.190907	-0.557512	-0.332349
O17	O	-1.093838	-0.557477	-0.429428
C18	C	-0.937032	-0.380788	-0.380876
C19	C	-0.849175	-0.380799	-0.380885
C20	C	-0.807881	-0.431289	-0.330259
C21	C	-0.807916	-0.330313	-0.431516
C22	C	-0.725370	-0.330318	-0.431524
C23	C	-0.684076	-0.380809	-0.380898
C24	C	-0.725328	-0.431294	-0.330263
C25	C	-0.684112	-0.279828	-0.482151
C26	C	-0.601561	-0.279830	-0.482161
C27	C	-0.560265	-0.330325	-0.431538
C28	C	-0.601522	-0.380814	-0.380902
C29	C	-0.560228	-0.431304	-0.330276
C30	C	-0.601484	-0.481797	-0.279644
C31	C	-0.684032	-0.481790	-0.279640
C32	C	-0.477717	-0.330333	-0.431541
C33	C	-0.477675	-0.431309	-0.330281
C34	C	-1.142390	-0.586175	-0.380904
C35	C	-1.142458	-0.674031	-0.380932
C36	C	-1.142442	-0.380756	-0.587067
C37	C	-1.142461	-0.380733	-0.674924
C38	C	-0.348566	-0.380826	-0.380918
C39	C	-0.436423	-0.380824	-0.380915
C40	C	-1.142428	-0.174640	-0.380912
C41	C	-1.142441	-0.086784	-0.380917
C42	C	-1.192996	0.284680	-0.330386
C43	C	-1.091917	0.284704	-0.431475
C44	C	-1.091914	0.202158	-0.431474
C45	C	-1.142451	0.160869	-0.380927
C46	C	-1.192993	0.202127	-0.330381
C47	C	-1.041367	0.160894	-0.482013
C48	C	-1.041361	0.078343	-0.482013
C49	C	-1.091904	0.037053	-0.431470
C50	C	-1.142448	0.078316	-0.380922
C51	C	-1.192986	0.037027	-0.330376
C52	C	-1.243534	0.078289	-0.279832
C53	C	-1.243535	0.160837	-0.279838
C54	C	-1.091903	-0.045495	-0.431464
C55	C	-1.192982	-0.045526	-0.330371
C56	C	-1.091913	-0.431269	-0.716191
C57	C	-1.193022	-0.330172	-0.716211
C58	C	-1.193039	-0.330146	-0.798757
C59	C	-1.142491	-0.380681	-0.840024
C60	C	-1.091926	-0.431243	-0.798744
C61	C	-1.243597	-0.279579	-0.840042
C62	C	-1.243614	-0.279551	-0.922593
C63	C	-1.193070	-0.330091	-0.963861
C64	C	-1.142504	-0.380655	-0.922577
C65	C	-1.091956	-0.431191	-0.963844
C66	C	-1.041394	-0.481760	-0.922561
C67	C	-1.041382	-0.481783	-0.840012
C68	C	-1.193082	-0.330068	-1.046410
C69	C	-1.091969	-0.431165	-1.046397
C70	C	-1.142399	-0.380804	-0.175533
C71	C	-1.142534	-0.380603	-0.087677
H72	H	-0.841542	-0.289202	-0.472730
H73	H	-1.050809	-0.472321	-1.079991
H74	H	-1.234140	-0.079137	-0.289213
H75	H	-0.444131	-0.289217	-0.472760
H76	H	-1.284787	-0.238376	-0.956199
H77	H	-1.000233	-0.522902	-0.956171
H78	H	-1.234155	0.318277	-0.289236
H79	H	-1.284679	0.044661	-0.238673
H80	H	-1.000216	-0.522953	-0.806393
H81	H	-1.050749	-0.472443	-0.682575
H82	H	-0.841475	-0.472402	-0.289037
H83	H	-1.050750	-0.079086	-0.472619
H84	H	-0.717740	-0.238718	-0.523366
H85	H	-0.567978	-0.238717	-0.523390
H86	H	-1.234173	-0.289024	-0.682607
H87	H	-1.000217	0.194514	-0.523163
H88	H	-1.284689	0.194437	-0.238686
H89	H	-1.234243	-0.288889	-1.080019
H90	H	-0.444059	-0.472429	-0.289058
H91	H	-1.284747	-0.238433	-0.806437
H92	H	-1.000201	0.044755	-0.523168
H93	H	-0.567851	-0.522904	-0.238421
H94	H	-1.050766	0.318323	-0.472625
H95	H	-0.717630	-0.522897	-0.238417
