data_functionalizedCrystal
_audit_creation_method	'MofGen! by Chris Wilmer'
_symmetry_space_group_name_H-M	'P1'
_symmetry_Int_Tables_number	1
_symmetry_cell_setting	triclinic
loop_
_symmetry_equiv_pos_as_xyz
  x,y,z
_cell_length_a	14.628931
_cell_length_b	23.196402
_cell_length_c	23.196401
_cell_angle_alpha	60.008822
_cell_angle_beta	90.013263
_cell_angle_gamma	60.000556
loop_
_atom_site_label
_atom_site_type_symbol
_atom_site_fract_x
_atom_site_fract_y
_atom_site_fract_z
Zr1	Zr	0.880618	0.630997	-0.075627
O2	O	0.734627	0.751264	-0.167673
O3	O	0.925368	0.510732	-0.047413
O4	O	0.925328	0.630999	-0.167678
O5	O	0.734703	0.630996	0.047463
O6	O	1.075760	0.630998	-0.167678
O7	O	0.734667	0.630997	-0.047408
O8	O	1.075832	0.415863	0.047455
O9	O	0.734631	0.846132	-0.167669
O10	O	1.056724	0.560198	-0.035376
O11	O	0.944485	0.560197	0.035426
O12	O	0.944437	0.701796	-0.106171
O13	O	0.832198	0.701795	-0.035370
Zr14	Zr	1.120597	0.630995	0.075683
Zr15	Zr	1.120540	0.630997	-0.075626
Zr16	Zr	0.880675	0.630995	0.075682
Zr17	Zr	0.880624	0.782300	-0.075620
Zr18	Zr	1.120590	0.479692	0.075676
O19	O	1.075847	0.751260	0.047469
O20	O	1.075765	0.751264	-0.167673
O21	O	0.734709	0.751261	0.047469
O22	O	1.266588	0.510728	0.167729
O23	O	1.266506	0.510731	-0.047413
O24	O	0.925450	0.510728	0.167729
O25	O	1.266511	0.630996	-0.047407
O26	O	1.075887	0.630993	0.167734
O27	O	0.925455	0.630993	0.167734
O28	O	1.266547	0.630995	0.047464
O29	O	0.925337	0.846131	-0.167669
O30	O	1.075878	0.415861	0.167725
O31	O	1.266584	0.415860	0.167725
O32	O	1.266538	0.415862	0.047455
O33	O	0.734677	0.846130	-0.047399
O34	O	0.925383	0.846129	-0.047399
O35	O	1.056778	0.560196	0.106227
O36	O	1.169016	0.560197	0.035426
O37	O	1.056730	0.701795	-0.035370
O38	O	0.944491	0.701794	0.035432
C39	C	1.000599	0.441740	0.000020
C40	C	1.000596	0.377508	0.000017
C41	C	1.059176	0.347338	-0.036943
C42	C	1.059187	0.286977	-0.036937
C43	C	1.000596	0.256800	0.000019
C44	C	0.942014	0.286974	0.036987
C45	C	0.942014	0.347328	0.036986
C46	C	0.902435	0.194771	-0.005256
C47	C	0.902432	0.134421	-0.005260
C48	C	1.000598	0.070645	0.000026
C49	C	1.098766	0.067233	0.005302
C50	C	1.098766	0.127587	0.005301
C51	C	1.000590	0.191355	0.000025
C52	C	1.059194	-0.024976	-0.036930
C53	C	1.059208	-0.085342	-0.036919
C54	C	0.942024	-0.085338	0.037001
C55	C	0.942021	-0.024979	0.036995
C56	C	1.000604	0.005201	0.000026
C57	C	0.700502	0.630997	0.000028
C58	C	0.598649	0.630997	0.000028
C59	C	0.608941	0.560755	0.035147
C60	C	0.503672	0.560753	0.035148
C61	C	1.300713	0.630995	0.000028
C62	C	1.402566	0.630995	0.000028
C63	C	1.000536	0.630999	-0.189236
C64	C	1.000511	0.631000	-0.253471
C65	C	1.000616	0.820252	0.000036
C66	C	1.000618	0.884484	0.000039
C67	C	0.941904	0.704910	-0.320598
C68	C	0.941933	0.704911	-0.380954
C69	C	1.000553	0.630998	-0.374177
C70	C	1.059173	0.557078	-0.307038
C71	C	1.059152	0.557079	-0.246684
C72	C	0.992226	0.574370	-0.441497
C73	C	0.992239	0.574372	-0.501850
C74	C	1.000624	0.630992	-0.560325
C75	C	1.008973	0.687623	-0.558445
C76	C	1.008952	0.687624	-0.498092
C77	C	1.000583	0.630988	-0.439616
C78	C	0.942045	0.704908	-0.692899
C79	C	0.942081	0.704906	-0.753254
C80	C	1.059314	0.557070	-0.679336
C81	C	1.059285	0.557074	-0.618983
C82	C	1.000644	0.630996	-0.625769
C83	C	1.000679	0.630993	0.189292
C84	C	1.000704	0.630992	0.253527
C85	C	1.300705	0.441739	0.000020
C86	C	1.402555	0.377507	0.000017
C87	C	1.000671	0.441737	0.189284
C88	C	1.000693	0.377504	0.253516
C89	C	1.300777	0.441736	0.189285
C90	C	1.402651	0.377503	0.253516
C91	C	0.700438	0.820256	-0.189229
C92	C	0.598564	0.884489	-0.253460
C93	C	0.700510	0.820253	0.000036
C94	C	0.598660	0.884485	0.000039
C95	C	1.000544	0.820255	-0.189228
C96	C	1.000522	0.884488	-0.253460
C97	C	1.391770	0.347344	-0.036948
C98	C	1.487460	0.286999	-0.036964
C99	C	1.593934	0.256815	-0.000011
C100	C	1.604718	0.286985	0.036955
C101	C	1.509029	0.347332	0.036967
C102	C	1.059318	0.347339	0.320644
C103	C	1.059334	0.286994	0.381003
C104	C	1.000730	0.256811	0.374231
C105	C	0.942097	0.286982	0.307096
C106	C	0.942076	0.347330	0.246739
C107	C	1.509090	0.347339	0.246723
C108	C	1.604822	0.286994	0.307070
C109	C	1.594111	0.256809	0.374210
C110	C	1.487661	0.286979	0.381002
C111	C	1.391932	0.347328	0.320656
C112	C	0.492124	0.914660	-0.246667
C113	C	0.396393	0.975024	-0.307014
C114	C	0.407103	1.005212	-0.374154
C115	C	0.513554	0.975038	-0.380946
C116	C	0.609283	0.914679	-0.320600
C117	C	0.609445	0.914654	0.036997
C118	C	0.513755	0.975016	0.036997
C119	C	0.407281	1.005202	0.000042
C120	C	0.396497	0.975030	-0.036921
C121	C	0.492186	0.914674	-0.036925
C122	C	1.059138	0.914652	-0.246666
C123	C	1.059139	0.974997	-0.307013
C124	C	1.000518	1.005182	-0.374153
C125	C	0.941901	0.975012	-0.380946
C126	C	0.941907	0.914664	-0.320599
H127	H	1.106900	-0.000405	-0.067030
C128	C	1.699428	0.190418	0.440586
N129	N	1.778756	0.140409	0.490578
C130	C	0.877644	0.253767	0.299660
N131	N	0.829103	0.228744	0.294061
C132	C	0.877469	1.008195	-0.454806
N133	N	0.828951	1.033183	-0.510440
C134	C	1.123850	0.253809	0.454844
N135	N	1.172448	0.228814	0.510460
H136	H	1.106874	0.890085	-0.192003
H137	H	1.691489	0.262436	0.301527
H138	H	0.822496	0.137208	-0.009559
C139	C	1.000521	1.071569	-0.440529
N140	N	1.000525	1.121573	-0.490522
H141	H	0.329374	1.054347	0.000051
C142	C	1.274656	0.380539	-0.077607
N143	N	1.186448	0.405543	-0.108237
C144	C	0.279364	1.008232	-0.077558
N145	N	0.191137	1.033236	-0.108159
C146	C	1.475573	0.253817	-0.077625
N147	N	1.466616	0.228824	-0.108248
C148	C	0.525642	1.008187	0.077668
N149	N	0.534599	1.033169	0.108303
H150	H	0.894339	0.371882	0.192083
C151	C	1.123619	1.008177	-0.299526
N152	N	1.172184	1.033167	-0.293884
C153	C	1.520899	0.380535	0.172874
N154	N	1.529803	0.405539	0.117253
C155	C	1.123640	-0.118520	-0.077589
N156	N	1.172164	-0.143505	-0.108228
C157	C	1.475898	0.253761	0.454863
N158	N	1.467042	0.228734	0.510496
H159	H	1.106881	0.371907	-0.067044
C160	C	1.721851	0.253767	0.077607
N161	N	1.810078	0.228741	0.108230
H162	H	0.822485	0.246707	-0.009574
C163	C	0.877575	-0.118531	0.077655
N164	N	0.829032	-0.143535	0.108277
C165	C	1.123785	0.380533	0.328110
N166	N	1.172338	0.405536	0.333739
C167	C	1.018152	0.749910	-0.496023
N168	N	1.025088	0.796821	-0.494463
H169	H	0.894310	0.262399	0.067078
H170	H	0.696134	0.890081	0.067096
H171	H	1.000757	0.207671	0.423384
H172	H	1.015796	0.733731	-0.606058
C173	C	0.481461	0.712241	-0.040593
N174	N	0.393195	0.773436	-0.071192
H175	H	0.894170	0.890111	-0.326141
C176	C	0.480303	0.881484	-0.077576
N177	N	0.471344	0.856488	-0.108195
C178	C	0.301787	1.071602	-0.440530
N179	N	0.222459	1.121604	-0.490522
H180	H	0.695686	0.500619	0.065216
C181	C	1.206752	0.123827	0.011112
N182	N	1.288090	0.120992	0.015494
C183	C	1.206759	-0.002922	0.011120
N184	N	1.288096	-0.055764	0.015502
C185	C	1.123629	0.253785	-0.077600
N186	N	1.172165	0.228788	-0.108228
C187	C	0.525316	1.008246	-0.454807
N188	N	0.534172	1.033254	-0.510440
H189	H	1.305268	0.371880	0.326197
C190	C	0.726364	0.881487	-0.328085
N191	N	0.814548	0.856489	-0.333728
C192	C	0.877458	0.786222	-0.454805
N193	N	0.828894	0.847465	-0.510428
H194	H	0.483382	0.890085	-0.192004
H195	H	0.894314	-0.000412	0.067089
H196	H	0.894308	0.371893	0.067084
C197	C	1.123745	0.475766	-0.545138
N198	N	1.172300	0.414520	-0.489516
H199	H	0.512309	0.500616	0.065210
C200	C	0.877552	0.786222	-0.700363
N201	N	0.828978	0.847469	-0.705986
H202	H	0.985390	0.528264	-0.393889
H203	H	1.517826	0.371883	0.067073
C204	C	0.983048	0.512080	-0.503913
N205	N	0.976125	0.465159	-0.505465
H206	H	0.393920	0.691135	-0.030043
H207	H	0.894160	0.765103	-0.326131
H208	H	0.309726	0.999582	-0.301470
H209	H	0.894361	0.765096	-0.807914
H210	H	1.107045	0.496888	-0.673817
C211	C	1.123651	0.475772	-0.299584
N212	N	1.172220	0.414531	-0.293969
H213	H	1.671841	0.207676	-0.000026
H214	H	1.106878	0.496890	-0.192024
