data_functionalizedCrystal
_audit_creation_method	'MofGen! by Chris Wilmer'
_symmetry_space_group_name_H-M	'P1'
_symmetry_Int_Tables_number	1
_symmetry_cell_setting	triclinic
loop_
_symmetry_equiv_pos_as_xyz
  x,y,z
_cell_length_a	17.640112
_cell_length_b	18.101395
_cell_length_c	17.640968
_cell_angle_alpha	78.770922
_cell_angle_beta	92.139080
_cell_angle_gamma	101.255692
loop_
_atom_site_label
_atom_site_type_symbol
_atom_site_fract_x
_atom_site_fract_y
_atom_site_fract_z
Zn1	Zn	1.247775	-0.021279	-0.195081
Zn2	Zn	1.221983	-0.174071	-0.068105
Zn3	Zn	1.095100	-0.069453	-0.093729
Zn4	Zn	1.120725	-0.164323	-0.220687
O5	O	1.171396	-0.107282	-0.144400
O6	O	1.350625	-0.025466	-0.156797
O7	O	1.183633	-0.184434	0.034768
O8	O	1.115423	0.040585	-0.107181
O9	O	1.331676	-0.137722	-0.063509
O10	O	1.227592	0.075978	-0.181644
O11	O	1.090413	-0.107572	0.015942
O12	O	0.992228	-0.098119	-0.132010
O13	O	1.159097	-0.121107	-0.323562
O14	O	1.011054	-0.167820	-0.225285
O15	O	1.252440	-0.016013	-0.304750
O16	O	1.208481	-0.276426	-0.088338
O17	O	1.134087	-0.269264	-0.200439
C18	C	0.974086	-0.137139	-0.184207
C19	C	0.889679	-0.149927	-0.201255
C20	C	0.563038	-0.010125	-0.014899
C21	C	0.483727	-0.022153	-0.030928
C22	C	0.503352	-0.094901	-0.127887
C23	C	0.582666	-0.082876	-0.111869
C24	C	0.612502	-0.040488	-0.055373
C25	C	0.632131	-0.113239	-0.152344
C26	C	0.711437	-0.101218	-0.136324
C27	C	0.741280	-0.058834	-0.079829
C28	C	0.691809	-0.028467	-0.039353
C29	C	0.602292	-0.155631	-0.208836
C30	C	0.651757	-0.185994	-0.249311
C31	C	0.731066	-0.173968	-0.233295
C32	C	0.760908	-0.131585	-0.176800
C33	C	0.780536	-0.204335	-0.273771
C34	C	0.859843	-0.192314	-0.257751
C35	C	0.840215	-0.119564	-0.160780
C36	C	1.171290	-0.299713	-0.144399
C37	C	1.171319	-0.382019	-0.144409
C38	C	1.171494	-0.681075	-0.144416
C39	C	1.124853	-0.645221	-0.215066
C40	C	1.124537	-0.559687	-0.214938
C41	C	1.171407	-0.532710	-0.144413
C42	C	1.133552	-0.585373	-0.068746
C43	C	1.133246	-0.670995	-0.069175
C44	C	1.255975	-0.632588	-0.148704
C45	C	1.255858	-0.546609	-0.150555
C46	C	1.171358	-0.448861	-0.144407
C47	C	1.171539	-0.764926	-0.144418
C48	C	1.369476	-0.077307	-0.104439
C49	C	1.453886	-0.064534	-0.087409
C50	C	1.211504	-0.062099	-0.342481
C51	C	1.228596	-0.042845	-0.426892
C52	C	1.171526	0.085908	-0.144415
C53	C	1.171582	0.168234	-0.144421
C54	C	1.041843	-0.253106	-0.753474
C55	C	1.057920	-0.235002	-0.832787
C56	C	1.155109	-0.125577	-0.813189
C57	C	1.139039	-0.143670	-0.733873
C58	C	1.082405	-0.207436	-0.704022
C59	C	1.179601	-0.097999	-0.684421
C60	C	1.163534	-0.116093	-0.605112
C61	C	1.106905	-0.179858	-0.575254
C62	C	1.066339	-0.225530	-0.624712
C63	C	1.236238	-0.034237	-0.714273
C64	C	1.276800	0.011433	-0.664821
C65	C	1.260729	-0.006657	-0.585511
C66	C	1.204100	-0.070421	-0.555653
C67	C	1.301296	0.039015	-0.536052
C68	C	1.285229	0.020921	-0.456743
C69	C	1.188033	-0.088515	-0.476344
C70	C	1.131487	-0.152228	0.052919
C71	C	1.114543	-0.171252	0.137358
H72	H	0.716105	0.006063	0.006640
H73	H	0.587334	0.024405	0.031095
H74	H	1.284111	-0.510354	-0.206162
H75	H	0.627452	-0.220508	-0.295307
O76	O	0.435789	0.007428	0.008440
C77	C	0.424685	0.080814	0.106347
C78	C	0.479064	0.047376	0.061809
H79	H	0.459649	0.113106	0.149518
H80	H	0.394664	0.121875	0.063959
H81	H	0.379469	0.032162	0.138575
H82	H	0.524324	0.095977	0.029579
H83	H	0.509028	0.006296	0.104235
O84	O	0.474345	-0.135951	-0.182855
C85	C	0.405537	-0.136253	-0.303426
C86	C	0.438364	-0.089674	-0.241238
H87	H	0.376425	-0.098862	-0.350635
H88	H	0.454490	-0.155868	-0.329670
H89	H	0.361343	-0.188538	-0.275975
H90	H	0.482547	-0.037357	-0.268630
H91	H	0.389369	-0.070118	-0.214999
H92	H	1.165741	-0.569009	-0.015381
O93	O	1.293465	-0.639215	-0.212308
C94	C	1.402211	-0.677895	-0.261451
C95	C	1.359833	-0.670446	-0.189350
H96	H	1.455887	-0.703130	-0.242917
H97	H	1.362132	-0.717218	-0.295263
H98	H	1.420014	-0.618792	-0.299561
H99	H	1.342026	-0.729514	-0.151183
H100	H	1.399938	-0.631086	-0.155598
H101	H	1.024885	-0.272198	-0.873049
O102	O	0.751425	-0.245466	-0.328644
C103	C	0.637937	-0.296277	-0.396255
C104	C	0.670804	-0.249666	-0.334105
H105	H	0.572749	-0.299702	-0.400679
H106	H	0.665894	-0.267030	-0.454392
H107	H	0.650838	-0.356660	-0.379666
H108	H	0.657913	-0.189278	-0.350621
H109	H	0.642846	-0.278975	-0.275985
O110	O	0.525237	-0.167450	-0.224319
C111	C	0.407438	-0.260167	-0.227689
C112	C	0.494693	-0.246887	-0.210118
H113	H	0.382719	-0.324390	-0.216230
H114	H	0.377166	-0.231237	-0.189039
H115	H	0.397842	-0.234698	-0.290868
H116	H	0.504359	-0.272358	-0.146958
H117	H	0.524921	-0.275802	-0.248819
O118	O	0.907796	-0.221828	-0.297165
C119	C	0.918896	-0.295289	-0.395008
C120	C	0.864507	-0.261889	-0.350443
H121	H	0.883917	-0.327699	-0.438082
H122	H	0.964088	-0.246669	-0.427325
H123	H	0.948950	-0.336271	-0.352561
H124	H	0.834399	-0.220916	-0.392837
H125	H	0.819363	-0.310548	-0.318114
H126	H	1.290923	-0.655996	-0.097050
H127	H	0.805856	-0.049049	-0.066785
H128	H	1.293746	-0.527294	-0.101558
H129	H	1.150316	-0.650174	-0.271898
O130	O	1.133118	-0.150549	-0.447346
C131	C	1.091266	-0.287653	-0.430524
C132	C	1.153509	-0.217467	-0.463394
H133	H	1.107722	-0.341771	-0.443501
H134	H	1.086770	-0.292797	-0.365334
H135	H	1.033190	-0.280338	-0.458450
H136	H	1.211619	-0.224732	-0.435528
H137	H	1.157937	-0.212345	-0.528586
O138	O	1.059046	-0.710358	-0.062575
C139	C	0.973653	-0.832897	-0.055488
C140	C	1.057722	-0.788422	-0.062944
H141	H	0.972553	-0.896017	-0.055801
H142	H	0.947857	-0.827362	0.000973
H143	H	0.938300	-0.808219	-0.106179
H144	H	1.093137	-0.813069	-0.012296
H145	H	1.083456	-0.793956	-0.119436
H146	H	1.201222	-0.073661	-0.837504
H147	H	1.093827	-0.194591	-0.510674
H148	H	1.150097	-0.523052	-0.271551
O149	O	1.011337	-0.287530	-0.595828
C150	C	0.916623	-0.394167	-0.623629
C151	C	0.978889	-0.323980	-0.656443
H152	H	0.890360	-0.423648	-0.672623
H153	H	0.943933	-0.436128	-0.579495
H154	H	0.869437	-0.374650	-0.594475
H155	H	1.026093	-0.343427	-0.685636
H156	H	0.951522	-0.282036	-0.700539
O157	O	1.051040	-0.685360	-0.213430
C158	C	0.952405	-0.761116	-0.279513
C159	C	1.036016	-0.715694	-0.281459
H160	H	0.940227	-0.785640	-0.334515
H161	H	0.944441	-0.810006	-0.227123
H162	H	0.910627	-0.721276	-0.275478
H163	H	1.077846	-0.755473	-0.285522
H164	H	1.043916	-0.666796	-0.333840
H165	H	1.318258	0.058112	-0.416478
H166	H	0.864511	-0.085034	-0.114787
H167	H	1.062244	-0.551372	-0.213376
H168	H	1.164866	-0.695864	-0.015612
O169	O	1.059922	-0.575310	-0.061613
C170	C	0.924873	-0.634104	-0.052159
C171	C	1.008221	-0.645609	-0.060215
H172	H	0.883048	-0.690927	-0.051043
H173	H	0.919179	-0.613013	0.003805
H174	H	0.910684	-0.589830	-0.103337
H175	H	1.022465	-0.689893	-0.009079
H176	H	1.013871	-0.666660	-0.116210
O177	O	0.986842	-0.315107	-0.724589
C178	C	0.892127	-0.421744	-0.752390
C179	C	0.954394	-0.351557	-0.785205
H180	H	0.865864	-0.451224	-0.801384
H181	H	0.919438	-0.463704	-0.708257
H182	H	0.844942	-0.402227	-0.723236
H183	H	1.001598	-0.371003	-0.814398
H184	H	0.927027	-0.309612	-0.829300
O185	O	1.251851	-0.016793	-0.791313
C186	C	1.294415	-0.058860	-0.901178
C187	C	1.276743	-0.078722	-0.813930
H188	H	1.314559	-0.108911	-0.919488
H189	H	1.239987	-0.047510	-0.934625
H190	H	1.341837	-0.005422	-0.914002
H191	H	1.229345	-0.132169	-0.801034
H192	H	1.331209	-0.090023	-0.780529
H193	H	1.347412	0.090929	-0.560368
O194	O	1.331763	0.073365	-0.693954
C195	C	1.399625	0.149714	-0.807440
C196	C	1.337349	0.079563	-0.774554
H197	H	1.404174	0.154738	-0.872607
H198	H	1.383177	0.203890	-0.794600
H199	H	1.457675	0.142415	-0.779439
H200	H	1.279277	0.086787	-0.802535
H201	H	1.353864	0.025413	-0.787384
