data_functionalizedCrystal
_audit_creation_method	'MofGen! by Chris Wilmer'
_symmetry_space_group_name_H-M	'P1'
_symmetry_Int_Tables_number	1
_symmetry_cell_setting	triclinic
loop_
_symmetry_equiv_pos_as_xyz
  x,y,z
_cell_length_a	12.811438
_cell_length_b	17.019294
_cell_length_c	15.500237
_cell_angle_alpha	88.951865
_cell_angle_beta	92.565695
_cell_angle_gamma	84.089977
loop_
_atom_site_label
_atom_site_type_symbol
_atom_site_fract_x
_atom_site_fract_y
_atom_site_fract_z
O1	O	1.390519	0.107741	0.029144
O2	O	1.890519	0.607741	0.529144
O3	O	1.086594	0.118043	0.004526
O4	O	1.586594	0.618043	0.504526
O5	O	1.246461	-0.001449	0.025978
O6	O	1.746461	0.498551	0.525978
O7	O	1.230653	0.227233	0.007693
O8	O	1.730653	0.727233	0.507693
O9	O	1.236758	0.005774	0.168567
O10	O	1.736758	0.505774	0.668567
O11	O	1.076892	0.125266	0.147115
O12	O	1.576892	0.625266	0.647115
O13	O	1.380817	0.114964	0.171733
O14	O	1.880817	0.614964	0.671733
Cu15	Cu	1.227968	0.120775	0.172444
Cu16	Cu	1.727968	0.620775	0.672444
Cu17	Cu	1.239443	0.112233	0.003816
Cu18	Cu	1.739443	0.612233	0.503816
O19	O	1.220950	0.234456	0.150282
O20	O	1.720950	0.734456	0.650282
C21	C	1.042844	0.120855	0.072828
C22	C	1.542844	0.620855	0.572828
C23	C	0.926936	0.118464	0.063910
C24	C	1.426936	0.618464	0.563910
C25	C	1.240819	-0.027122	0.099391
C26	C	1.740819	0.472878	0.599391
C27	C	1.238450	-0.114379	0.105704
C28	C	1.738450	0.385621	0.605704
C29	C	0.768854	0.111156	-0.026374
C30	C	1.268854	0.611156	0.473626
C31	C	0.877761	0.113402	-0.018003
C32	C	1.377761	0.613402	0.481997
C33	C	0.867197	0.121277	0.137457
C34	C	1.367197	0.621277	0.637457
C35	C	0.758291	0.119030	0.129085
C36	C	1.258291	0.619030	0.629085
C37	C	0.709123	0.113971	0.047167
C38	C	1.209123	0.613971	0.547167
C39	C	0.600214	0.111730	0.038795
C40	C	1.100214	0.611730	0.538795
C41	C	0.589654	0.119599	0.194255
C42	C	1.089654	0.619599	0.694255
C43	C	0.698560	0.121846	0.202626
C44	C	1.198560	0.621846	0.702626
C45	C	1.242629	-0.159305	0.030945
C46	C	1.742629	0.340695	0.530945
C47	C	1.240396	-0.241291	0.036878
C48	C	1.740396	0.258709	0.536878
C49	C	1.233993	-0.278351	0.117571
C50	C	1.733993	0.221649	0.617571
C51	C	1.229811	-0.233418	0.192336
C52	C	1.729811	0.266582	0.692336
C53	C	1.232036	-0.151432	0.186401
C54	C	1.732036	0.348568	0.686401
C55	C	1.227004	-0.525697	0.139378
C56	C	1.727004	-0.025697	0.639378
C57	C	1.224783	-0.607688	0.145308
C58	C	1.724783	-0.107688	0.645308
C59	C	1.235366	-0.615556	-0.010151
C60	C	1.735366	-0.115556	0.489849
C61	C	1.237597	-0.533569	-0.016078
C62	C	1.737597	-0.033569	0.483922
C63	C	1.233409	-0.488643	0.058686
C64	C	1.733409	0.011357	0.558686
C65	C	1.231715	-0.362154	0.123638
C66	C	1.731715	0.137846	0.623638
C67	C	1.235680	-0.404840	0.052617
C68	C	1.735680	0.095160	0.552617
C69	C	1.424568	0.112152	0.103430
C70	C	1.924568	0.612152	0.603430
C71	C	1.540476	0.114543	0.112342
C72	C	2.040476	0.614543	0.612342
C73	C	1.226592	0.260129	0.076867
C74	C	1.726592	0.760129	0.576867
C75	C	1.228961	0.347385	0.070549
C76	C	1.728961	0.847385	0.570549
N77	N	1.219906	0.126782	0.291048
N78	N	1.719906	0.626782	0.791048
C79	C	1.287670	0.076168	0.345415
C80	C	1.787670	0.576168	0.845415
C81	C	1.281582	0.080719	0.435171
C82	C	1.781582	0.580719	0.935171
C83	C	1.207734	0.135888	0.470558
C84	C	1.707734	0.635888	0.970558
C85	C	1.139962	0.186504	0.416185
C86	C	1.639962	0.686504	0.916185
C87	C	1.146046	0.181949	0.326430
C88	C	1.646046	0.681949	0.826430
C89	C	1.185818	0.152284	0.741083
C90	C	1.685818	0.652284	1.241083
C91	C	1.179741	0.156837	0.830845
C92	C	1.679741	0.656837	1.330845
C93	C	1.321360	0.051050	0.849825
C94	C	1.821360	0.551050	1.349825
C95	C	1.327441	0.046503	0.760068
C96	C	1.827441	0.546503	1.260068
C97	C	1.259666	0.097117	0.705702
C98	C	1.759666	0.597117	1.205702
C99	C	1.201511	0.140543	0.562303
C100	C	1.701511	0.640543	1.062303
C101	C	1.265885	0.092458	0.613959
C102	C	1.765885	0.592458	1.113959
N103	N	1.247505	0.106223	0.885212
N104	N	1.747505	0.606223	1.385212
H105	H	0.560183	0.107614	-0.027907
H106	H	1.060183	0.607614	0.472093
H107	H	1.090864	0.223163	0.282165
H108	H	1.590864	0.723163	0.782165
H109	H	1.326008	0.047536	0.585144
H110	H	1.826008	0.547536	1.085144
H111	H	0.926390	0.111110	-0.077888
H112	H	1.426390	0.611110	0.422112
H113	H	0.907250	0.125387	0.204152
H114	H	1.407250	0.625387	0.704152
H115	H	0.738608	0.125962	0.269322
H116	H	1.238608	0.625962	0.769322
H117	H	1.243803	-0.277867	-0.023999
H118	H	1.743803	0.222133	0.476001
H119	H	1.141384	0.185464	0.591123
H120	H	1.641384	0.685464	1.091123
H121	H	0.541008	0.121895	0.254137
H122	H	1.041008	0.621895	0.754137
H123	H	0.728820	0.107045	-0.093076
H124	H	1.228820	0.607045	0.406924
N125	N	1.249545	-0.119337	-0.056089
N126	N	1.749545	0.380663	0.443911
H127	H	1.251851	-0.160242	-0.102547
H128	H	1.751851	0.339758	0.397453
H129	H	1.186040	-0.079591	-0.067453
H130	H	1.686040	0.420409	0.432547
N131	N	1.222501	-0.477248	0.220014
N132	N	1.722501	0.022752	0.720014
H133	H	1.218115	-0.513169	0.272031
H134	H	1.718115	-0.013169	0.772031
H135	H	1.287855	-0.448963	0.226448
H136	H	1.787855	0.051037	0.726448
H137	H	1.226504	-0.392337	0.189340
H138	H	1.726504	0.107663	0.689340
H139	H	1.242812	-0.503401	-0.081787
H140	H	1.742812	-0.003401	0.418213
H141	H	1.228619	-0.114853	0.247277
H142	H	1.728619	0.385147	0.747277
N143	N	1.060316	0.246008	0.454357
N144	N	1.560316	0.746008	0.954357
H145	H	1.073591	0.301084	0.435519
H146	H	1.573591	0.801084	0.935519
H147	H	0.987279	0.235525	0.433645
H148	H	1.487279	0.735525	0.933645
N149	N	1.239881	-0.664010	-0.090785
N150	N	1.739881	-0.164010	0.409215
H151	H	1.237500	-0.721571	-0.074785
H152	H	1.737500	-0.221571	0.425215
H153	H	1.177920	-0.645497	-0.131278
H154	H	1.677920	-0.145497	0.368722
H155	H	1.119602	0.201766	0.859651
H156	H	1.619602	0.701766	1.359651
H157	H	1.224591	-0.263598	0.258038
H158	H	1.724591	0.236402	0.758038
N159	N	1.217885	-0.647666	0.232344
N160	N	1.717885	-0.147666	0.732344
H161	H	1.151300	-0.625791	0.259785
H162	H	1.651300	-0.125791	0.759785
H163	H	1.217166	-0.706414	0.224679
H164	H	1.717166	-0.206414	0.724679
N165	N	1.242518	-0.364838	-0.034404
N166	N	1.742518	0.135162	0.465596
H167	H	1.308315	-0.336875	-0.034831
H168	H	1.808315	0.163125	0.465169
H169	H	1.244768	-0.405756	-0.080844
H170	H	1.744768	0.094244	0.419156
N171	N	1.367327	0.016669	0.307251
N172	N	1.867327	0.516669	0.807251
H173	H	1.409330	-0.014705	0.355315
H174	H	1.909330	0.485295	0.855315
H175	H	1.329763	-0.020272	0.269489
H176	H	1.829763	0.479728	0.769489
N177	N	1.354706	0.026156	0.493811
N178	N	1.854706	0.526156	0.993811
H179	H	1.402428	-0.009472	0.457775
H180	H	1.902428	0.490528	0.957775
H181	H	1.398421	0.058520	0.532379
H182	H	1.898421	0.558520	1.032379
H183	H	1.387574	0.001580	0.731258
H184	H	1.887574	0.501580	1.231258
H185	H	1.376538	0.009842	0.894098
H186	H	1.876538	0.509842	1.394098
N187	N	1.112715	0.206868	0.682453
N188	N	1.612715	0.706868	1.182453
H189	H	1.065013	0.242507	0.718493
H190	H	1.565013	0.742507	1.218493
H191	H	1.155318	0.240031	0.645728
H192	H	1.655318	0.740031	1.145728
