data_functionalizedCrystal
_audit_creation_method	'MofGen! by Chris Wilmer'
_symmetry_space_group_name_H-M	'P1'
_symmetry_Int_Tables_number	1
_symmetry_cell_setting	triclinic
loop_
_symmetry_equiv_pos_as_xyz
  x,y,z
_cell_length_a	21.295419
_cell_length_b	21.295417
_cell_length_c	18.050583
_cell_angle_alpha	89.963359
_cell_angle_beta	89.981783
_cell_angle_gamma	90.045308
loop_
_atom_site_label
_atom_site_type_symbol
_atom_site_fract_x
_atom_site_fract_y
_atom_site_fract_z
Zn1	Zn	0.962316	-0.250339	-0.419891
Zn2	Zn	1.295650	0.082994	-0.086558
Zn3	Zn	1.628983	0.416327	0.246776
Zn4	Zn	0.962230	-0.355619	-0.295692
Zn5	Zn	1.295564	-0.022285	0.037642
Zn6	Zn	1.628897	0.311048	0.370975
Zn7	Zn	0.857051	-0.250394	-0.295715
Zn8	Zn	1.190384	0.082939	0.037618
Zn9	Zn	1.523718	0.416272	0.370952
Zn10	Zn	0.857009	-0.355602	-0.419840
Zn11	Zn	1.190342	-0.022268	-0.086507
Zn12	Zn	1.523676	0.311065	0.246826
O13	O	0.909652	-0.302988	-0.357784
O14	O	1.242985	0.030345	-0.024451
O15	O	1.576318	0.363678	0.308882
O16	O	1.050394	-0.264289	-0.403427
O17	O	1.383728	0.069045	-0.070094
O18	O	1.717061	0.402378	0.263240
O19	O	0.948260	-0.341691	-0.191770
O20	O	1.281593	-0.008357	0.141563
O21	O	1.614926	0.324976	0.474896
O22	O	0.871068	-0.162298	-0.312218
O23	O	1.204402	0.171036	0.021115
O24	O	1.537735	0.504369	0.354449
O25	O	1.050331	-0.341637	-0.312178
O26	O	1.383664	-0.008304	0.021155
O27	O	1.716998	0.325030	0.354488
O28	O	0.948406	-0.162257	-0.403450
O29	O	1.281740	0.171076	-0.070116
O30	O	1.615073	0.504410	0.263217
O31	O	0.870985	-0.264383	-0.191787
O32	O	1.204318	0.068951	0.141546
O33	O	1.537652	0.402284	0.474879
O34	O	0.768956	-0.264366	-0.312169
O35	O	1.102289	0.068967	0.021164
O36	O	1.435623	0.402300	0.354498
O37	O	0.870997	-0.341608	-0.523772
O38	O	1.204330	-0.008275	-0.190438
O39	O	1.537663	0.325058	0.142895
O40	O	0.768925	-0.341662	-0.403363
O41	O	1.102258	-0.008328	-0.070030
O42	O	1.435592	0.325005	0.263303
O43	O	0.948365	-0.264272	-0.523809
O44	O	1.281699	0.069061	-0.190475
O45	O	1.615032	0.402394	0.142858
O46	O	0.948219	-0.443706	-0.312129
O47	O	1.281552	-0.110372	0.021204
O48	O	1.614885	0.222961	0.354537
O49	O	0.870913	-0.443693	-0.403341
O50	O	1.204246	-0.110360	-0.070008
O51	O	1.537580	0.222973	0.263326
C52	C	0.746100	-0.303019	-0.357764
C53	C	1.079433	0.030315	-0.024430
C54	C	1.412767	0.363648	0.308903
C55	C	0.676132	-0.303047	-0.357772
C56	C	1.009465	0.030287	-0.024439
C57	C	1.342799	0.363620	0.308894
C58	C	0.643321	-0.262837	-0.405359
C59	C	0.976654	0.070496	-0.072026
C60	C	1.309987	0.403829	0.261308
C61	C	0.577578	-0.262820	-0.405362
C62	C	0.910911	0.070513	-0.072028
C63	C	1.244245	0.403846	0.261305
C64	C	0.544649	-0.303024	-0.357786
C65	C	0.877983	0.030309	-0.024453
C66	C	1.211316	0.363642	0.308881
C67	C	0.577469	-0.343236	-0.310190
C68	C	0.910802	-0.009903	0.023143
C69	C	1.244135	0.323430	0.356477
C70	C	0.643210	-0.343248	-0.310183
C71	C	0.976543	-0.009914	0.023150
C72	C	1.309877	0.323419	0.356483
N73	N	0.441375	-0.358103	-0.351982
N74	N	0.774708	-0.024769	-0.018648
N75	N	1.108041	0.308564	0.314685
N76	N	0.378923	-0.358090	-0.351993
N77	N	0.712256	-0.024757	-0.018659
N78	N	1.045590	0.308576	0.314674
C79	C	0.346575	-0.302992	-0.357802
C80	C	0.679908	0.030342	-0.024469
C81	C	1.013241	0.363675	0.308864
N82	N	0.379037	-0.247905	-0.363615
N83	N	0.712370	0.085429	-0.030282
N84	N	1.045704	0.418762	0.303051
N85	N	0.441494	-0.247918	-0.363608
N86	N	0.774828	0.085415	-0.030275
N87	N	1.108161	0.418749	0.303058
C88	C	0.473364	-0.303016	-0.357788
C89	C	0.806697	0.030317	-0.024454
C90	C	1.140031	0.363651	0.308879
C91	C	0.242478	-0.262760	-0.405394
C92	C	0.575811	0.070573	-0.072061
C93	C	0.909145	0.403906	0.261272
C94	C	0.176734	-0.262742	-0.405392
C95	C	0.510068	0.070591	-0.072059
C96	C	0.843401	0.403924	0.261275
C97	C	0.176626	-0.343164	-0.310224
C98	C	0.509959	-0.009831	0.023109
C99	C	0.843293	0.323503	0.356442
C100	C	0.242368	-0.343176	-0.310223
C101	C	0.575702	-0.009843	0.023111
C102	C	0.909035	0.323490	0.356444
C103	C	0.275290	-0.302975	-0.357812
C104	C	0.608624	0.030358	-0.024478
C105	C	0.941957	0.363691	0.308855
C106	C	0.909569	-0.466540	-0.357743
C107	C	1.242902	-0.133207	-0.024410
C108	C	1.576236	0.200127	0.308923
C109	C	0.909591	-0.536508	-0.357751
C110	C	1.242925	-0.203175	-0.024417
C111	C	1.576258	0.130158	0.308916
C112	C	0.949880	-0.569360	-0.310305
C113	C	1.283214	-0.236027	0.023028
C114	C	1.616547	0.097306	0.356361
C115	C	0.949910	-0.635103	-0.310322
C116	C	1.283243	-0.301770	0.023011
C117	C	1.616576	0.031564	0.356344
C118	C	0.909639	-0.667991	-0.357776
C119	C	1.242973	-0.334657	-0.024443
C120	C	1.576306	-0.001324	0.308890
C121	C	0.869348	-0.635131	-0.405231
C122	C	1.202681	-0.301797	-0.071897
C123	C	1.536014	0.031536	0.261436
C124	C	0.869324	-0.569389	-0.405218
C125	C	1.202657	-0.236056	-0.071884
C126	C	1.535990	0.097277	0.261449
N127	N	0.854572	-0.771270	-0.363431
N128	N	1.187905	-0.437937	-0.030097
N129	N	1.521238	-0.104604	0.303236
N130	N	0.854596	-0.833722	-0.363439
N131	N	1.187929	-0.500388	-0.030105
N132	N	1.521263	-0.167055	0.303228
C133	C	0.909710	-0.866065	-0.357819
C134	C	1.243043	-0.532732	-0.024485
C135	C	1.576376	-0.199399	0.308848
N136	N	0.964799	-0.833598	-0.352176
N137	N	1.298132	-0.500265	-0.018843
N138	N	1.631466	-0.166932	0.314490
N139	N	0.964774	-0.771141	-0.352165
N140	N	1.298107	-0.437808	-0.018831
N141	N	1.631441	-0.104474	0.314502
C142	C	0.909661	-0.739276	-0.357796
C143	C	1.242994	-0.405943	-0.024462
C144	C	1.576328	-0.072609	0.308871
C145	C	0.950034	-0.970203	-0.310389
C146	C	1.283367	-0.636870	0.022944
C147	C	1.616701	-0.303536	0.356277
C148	C	0.950065	-1.035947	-0.310411
C149	C	1.283398	-0.702613	0.022922
C150	C	1.616731	-0.369280	0.356256
C151	C	0.869497	-1.035973	-0.405316
C152	C	1.202830	-0.702640	-0.071982
C153	C	1.536163	-0.369306	0.261351
C154	C	0.869472	-0.970231	-0.405298
C155	C	1.202805	-0.636897	-0.071964
C156	C	1.536138	-0.303564	0.261369
C157	C	0.909739	-0.937350	-0.357830
C158	C	1.243073	-0.604016	-0.024497
C159	C	1.576406	-0.270683	0.308836
C160	C	1.073842	-0.302959	-0.357806
C161	C	1.407175	0.030375	-0.024472
C162	C	1.740509	0.363708	0.308861
C163	C	1.143810	-0.302946	-0.357815
C164	C	1.477143	0.030387	-0.024482
C165	C	1.810477	0.363721	0.308852
C166	C	0.909686	-0.302932	-0.551490
C167	C	1.243019	0.030401	-0.218157
C168	C	1.576352	0.363734	0.115177
C169	C	0.909700	-0.302908	-0.634036
C170	C	1.243034	0.030425	-0.300703
C171	C	1.576367	0.363758	0.032631
C172	C	0.909752	-0.138798	-0.357842
C173	C	1.243085	0.194535	-0.024509
C174	C	1.576418	0.527869	0.308825
C175	C	0.909794	-0.068830	-0.357867
C176	C	1.243128	0.264503	-0.024533
C177	C	1.576461	0.597837	0.308800
C178	C	0.951813	-0.260810	-0.882882
C179	C	1.285146	0.072523	-0.549549
C180	C	1.618480	0.405856	-0.216215
C181	C	0.967171	-0.318245	-0.833463
C182	C	1.300504	0.015089	-0.500130
C183	C	1.633838	0.348422	-0.166796
C184	C	0.909741	-0.302868	-0.931157
C185	C	1.243074	0.030465	-0.597823
C186	C	1.576408	0.363798	-0.264490
C187	C	0.894392	-0.245457	-0.833494
C188	C	1.227726	0.087876	-0.500160
C189	C	1.561059	0.421209	-0.166827
C190	C	0.909723	-0.302885	-0.785171
C191	C	1.243056	0.030449	-0.451838
C192	C	1.576389	0.363782	-0.118505
C193	C	0.925129	-0.360333	-0.882825
C194	C	1.258462	-0.026999	-0.549491
C195	C	1.591796	0.306334	-0.216158
C196	C	0.852324	-0.287506	-0.882860
C197	C	1.185657	0.045827	-0.549527
C198	C	1.518990	0.379160	-0.216193
C199	C	0.867660	-0.344980	-0.833463
C200	C	1.200993	-0.011647	-0.500130
C201	C	1.534327	0.321686	-0.166797
C202	C	0.909753	-0.302858	-1.015255
C203	C	1.243087	0.030476	-0.681922
C204	C	1.576420	0.363809	-0.348588
C205	C	0.909710	-0.302902	-0.701075
C206	C	1.243044	0.030432	-0.367741
C207	C	1.576377	0.363765	-0.034408
C208	C	0.909654	-0.302999	-0.164832
C209	C	1.242987	0.030334	0.168501
C210	C	1.576321	0.363668	0.501834
C211	C	0.909761	-0.302846	-0.082287
C212	C	1.243095	0.030488	0.251046
C213	C	1.576428	0.363821	0.584380
H214	H	0.669925	-0.375992	-0.271431
H215	H	1.003258	-0.042659	0.061902
H216	H	1.336591	0.290674	0.395235
H217	H	0.982720	-0.661856	-0.271687
H218	H	1.316053	-0.328523	0.061646
H219	H	1.649387	0.004810	0.394980
F220	F	0.141585	-0.385949	-0.259585
F221	F	0.474919	-0.052615	0.073748
F222	F	0.808252	0.280718	0.407081
H223	H	0.836710	-1.062750	-0.443957
H224	H	1.170044	-0.729416	-0.110624
H225	H	1.503377	-0.396083	0.222710
H226	H	0.836662	-0.943481	-0.443929
H227	H	1.169995	-0.610147	-0.110595
H228	H	1.503329	-0.276814	0.222738
F229	F	0.998361	-0.214371	-0.911245
F230	F	1.331694	0.118963	-0.577912
F231	F	1.665027	0.452296	-0.244578
H232	H	1.015720	-0.331248	-0.811763
H233	H	1.349053	0.002085	-0.478430
H234	H	1.682386	0.335419	-0.145096
H235	H	0.938173	-0.408901	-0.904404
H236	H	1.271507	-0.075568	-0.571071
H237	H	1.604840	0.257765	-0.237737
F238	F	0.821144	-0.391529	-0.805281
F239	F	1.154477	-0.058196	-0.471948
F240	F	1.487811	0.275137	-0.138614
F241	F	0.788885	-0.270486	-0.911246
F242	F	1.122219	0.062847	-0.577912
F243	F	1.455552	0.396180	-0.244579
H244	H	0.881419	-0.196899	-0.811822
H245	H	1.214752	0.136434	-0.478488
H246	H	1.548086	0.469768	-0.145155
H247	H	0.982670	-0.542591	-0.271657
H248	H	1.316004	-0.209257	0.061677
H249	H	1.649337	0.124076	0.395010
F250	F	0.678355	-0.220051	-0.456007
F251	F	1.011688	0.113283	-0.122673
F252	F	1.345022	0.446616	0.210660
F253	F	0.826491	-0.670133	-0.455737
F254	F	1.159824	-0.336800	-0.122404
F255	F	1.493158	-0.003466	0.210929
F256	F	0.277518	-0.219972	-0.456038
F257	F	0.610852	0.113361	-0.122704
F258	F	0.944185	0.446695	0.210629
F259	F	0.826441	-0.534425	-0.455718
F260	F	1.159774	-0.201091	-0.122384
F261	F	1.493107	0.132242	0.210949
H262	H	0.550858	-0.230074	-0.444111
H263	H	0.884191	0.103259	-0.110778
H264	H	1.217525	0.436593	0.222555
F265	F	0.141814	-0.219941	-0.456040
F266	F	0.475147	0.113392	-0.122707
F267	F	0.808481	0.446726	0.210627
F268	F	0.992952	-1.070910	-0.259916
F269	F	1.326285	-0.737577	0.073418
F270	F	1.659619	-0.404244	0.406751
H271	H	0.269084	-0.375922	-0.271476
H272	H	0.602417	-0.042589	0.061858
H273	H	0.935750	0.290745	0.395191
H274	H	0.550654	-0.375970	-0.271453
H275	H	0.883987	-0.042637	0.061880
H276	H	1.217321	0.290697	0.395214
H277	H	0.982825	-0.943430	-0.271741
H278	H	1.316158	-0.610097	0.061593
H279	H	1.649491	-0.276764	0.394926
