data_functionalizedCrystal
_audit_creation_method	'MofGen! by Chris Wilmer'
_symmetry_space_group_name_H-M	'P1'
_symmetry_Int_Tables_number	1
_symmetry_cell_setting	triclinic
loop_
_symmetry_equiv_pos_as_xyz
  x,y,z
_cell_length_a	10.654562
_cell_length_b	15.944493
_cell_length_c	9.730223
_cell_angle_alpha	90.004543
_cell_angle_beta	89.996961
_cell_angle_gamma	83.982574
loop_
_atom_site_label
_atom_site_type_symbol
_atom_site_fract_x
_atom_site_fract_y
_atom_site_fract_z
O1	O	1.666261	0.118027	-0.114360
O2	O	1.300636	0.129256	-0.114342
O3	O	1.493471	0.001421	-0.114363
O4	O	1.473426	0.245861	-0.114339
O5	O	1.493468	0.001425	0.114217
O6	O	1.300633	0.129259	0.114238
O7	O	1.666259	0.118030	0.114219
Zn8	Zn	1.483446	0.123645	0.150521
Zn9	Zn	1.483449	0.123641	-0.150643
O10	O	1.473424	0.245864	0.114241
C11	C	1.253848	0.128431	-0.000049
C12	C	1.114438	0.125957	-0.000043
C13	C	1.048921	0.124805	0.124545
C14	C	0.917930	0.122488	0.124522
C15	C	0.917983	0.122478	-0.124689
C16	C	1.048973	0.124789	-0.124664
C17	C	1.114387	0.125973	0.249166
C18	C	1.048870	0.124822	0.373764
C19	C	0.917878	0.122505	0.373741
C20	C	0.852404	0.121338	0.249119
C21	C	1.492650	-0.029877	-0.000079
C22	C	1.490194	-0.123140	-0.000096
C23	C	1.603701	-0.358239	-0.000076
C24	C	1.542492	-0.409165	-0.112774
C25	C	1.485643	-0.293887	-0.000079
C26	C	1.542462	-0.409138	0.112588
C27	C	1.481256	-0.458822	-0.000057
C28	C	1.424466	-0.343584	-0.112870
C29	C	1.424453	-0.343554	0.112593
C30	C	1.363158	-0.394447	-0.000132
C31	C	1.488174	-0.198872	-0.000093
C32	C	1.478715	-0.553834	-0.000052
C33	C	1.713047	0.118855	-0.000076
C34	C	1.852456	0.121328	-0.000091
C35	C	1.474244	0.277162	-0.000046
C36	C	1.476700	0.370425	-0.000038
N37	N	1.483453	0.123647	0.356057
N38	N	1.483451	0.123632	-0.356179
C39	C	1.568862	0.067062	0.427974
C40	C	1.568859	0.067051	0.571857
C41	C	1.398033	0.180220	0.571894
C42	C	1.398032	0.180226	0.428014
C43	C	1.654283	0.010483	0.356018
C44	C	1.739700	-0.046106	0.427934
C45	C	1.739697	-0.046117	0.571817
C46	C	1.654277	0.010463	0.643783
H47	H	1.102189	0.125765	0.475226
O48	O	1.654418	0.010355	0.216251
C49	C	1.748146	-0.051699	0.168158
H50	H	1.770071	-0.101607	0.251055
H51	H	1.712788	-0.082519	0.071891
H52	H	1.837369	-0.021150	0.142638
O53	O	1.822545	-0.101197	0.358121
C54	C	1.802153	-0.184470	0.393318
H55	H	1.701604	-0.185494	0.432854
H56	H	1.816621	-0.226550	0.298707
H57	H	1.871742	-0.208702	0.476851
O58	O	0.854421	0.121423	0.494890
C59	C	0.940301	0.122927	0.604881
H60	H	1.028481	0.151121	0.568366
H61	H	0.894462	0.162971	0.692021
H62	H	0.967404	0.055906	0.643196
O63	O	1.822488	-0.101171	0.641740
C64	C	1.755261	-0.153410	0.724979
H65	H	1.656230	-0.155449	0.681624
H66	H	1.806524	-0.219854	0.726588
H67	H	1.748670	-0.127169	0.834032
H68	H	0.745742	0.119449	0.249111
O69	O	1.112743	0.126028	-0.245597
C70	C	1.174267	0.199994	-0.253039
H71	H	1.189115	0.224554	-0.144847
H72	H	1.269596	0.185285	-0.305747
H73	H	1.113845	0.249953	-0.314542
H74	H	1.654273	0.010444	0.760943
O75	O	1.315190	0.235151	0.642011
C76	C	1.333488	0.222999	0.784425
H77	H	1.433335	0.192227	0.804058
H78	H	1.319500	0.286523	0.839124
H79	H	1.262426	0.180422	0.825253
H80	H	0.864662	0.121530	-0.226149
H81	H	1.328482	0.226302	0.369459
H82	H	1.221046	0.127863	0.249199
O83	O	1.725018	-0.338890	-0.000483
C84	C	1.786815	-0.372460	-0.119539
H85	H	1.713883	-0.382225	-0.202148
H86	H	1.854061	-0.326795	-0.158908
H87	H	1.842471	-0.435503	-0.093834
H88	H	1.592344	-0.437777	0.207859
O89	O	1.364831	-0.309580	-0.226568
C90	C	1.238448	-0.328395	-0.226846
H91	H	1.208254	-0.341947	-0.117365
H92	H	1.175167	-0.272325	-0.269479
H93	H	1.229724	-0.386125	-0.293919
O94	O	1.602060	-0.443225	-0.226487
C95	C	1.647140	-0.378652	-0.305656
H96	H	1.658913	-0.322004	-0.237146
H97	H	1.742131	-0.402626	-0.352794
H98	H	1.576834	-0.359110	-0.391045
H99	H	1.261387	-0.410506	-0.000189
H100	H	1.374638	-0.314882	0.207881
