data_functionalizedCrystal
_audit_creation_method	'MofGen! by Chris Wilmer'
_symmetry_space_group_name_H-M	'P1'
_symmetry_Int_Tables_number	1
_symmetry_cell_setting	triclinic
loop_
_symmetry_equiv_pos_as_xyz
  x,y,z
_cell_length_a	12.759401
_cell_length_b	21.295417
_cell_length_c	12.759393
_cell_angle_alpha	89.963587
_cell_angle_beta	89.980804
_cell_angle_gamma	90.030129
loop_
_atom_site_label
_atom_site_type_symbol
_atom_site_fract_x
_atom_site_fract_y
_atom_site_fract_z
Zn1	Zn	1.606152	-0.250576	-0.593937
Zn2	Zn	1.605998	-0.355856	-0.418237
Zn3	Zn	1.430452	-0.250606	-0.418276
Zn4	Zn	1.430396	-0.355812	-0.593878
O5	O	1.518250	-0.303212	-0.506082
O6	O	1.753153	-0.264547	-0.570638
O7	O	1.582671	-0.341926	-0.271221
O8	O	1.453846	-0.162512	-0.441619
O9	O	1.753040	-0.341897	-0.441552
O10	O	1.582932	-0.162490	-0.570676
O11	O	1.453698	-0.264599	-0.271250
O12	O	1.283424	-0.264556	-0.441562
O13	O	1.453752	-0.341820	-0.740907
O14	O	1.283383	-0.341850	-0.570576
O15	O	1.582878	-0.264504	-0.740950
O16	O	1.582617	-0.443940	-0.441495
O17	O	1.453603	-0.443907	-0.570538
C18	C	1.245282	-0.303202	-0.506067
C19	C	1.128506	-0.303212	-0.506086
C20	C	1.073703	-0.263009	-0.573404
C21	C	0.963979	-0.263015	-0.573411
C22	C	0.963870	-0.343433	-0.438778
C23	C	1.073592	-0.343423	-0.438766
C24	C	1.518116	-0.466764	-0.506029
C25	C	1.518155	-0.536732	-0.506041
C26	C	1.585331	-0.569530	-0.573289
C27	C	1.585368	-0.635272	-0.573315
C28	C	1.518240	-0.668215	-0.506074
C29	C	1.451050	-0.635409	-0.438821
C30	C	1.451008	-0.569668	-0.438805
N31	N	1.510300	-0.771482	-0.414128
N32	N	1.510347	-0.833934	-0.414146
C33	C	1.518363	-0.866289	-0.506122
N34	N	1.526351	-0.833834	-0.598079
N35	N	1.526310	-0.771377	-0.598059
C36	C	1.518278	-0.739500	-0.506085
C37	C	1.585583	-0.970373	-0.573404
C38	C	1.585613	-1.036116	-0.573431
C39	C	1.451300	-1.036251	-0.438928
C40	C	1.451265	-0.970509	-0.438910
C41	C	1.518412	-0.937574	-0.506146
C42	C	1.792283	-0.303224	-0.506097
C43	C	1.909060	-0.303229	-0.506104
C44	C	1.518326	-0.303154	-0.780115
C45	C	1.518359	-0.303129	-0.896892
C46	C	1.518413	-0.139022	-0.506158
C47	C	1.518482	-0.069054	-0.506191
C48	C	1.585543	-0.343346	-1.061475
C49	C	1.585517	-0.343376	-0.951751
C50	C	1.451214	-0.262854	-0.951764
C51	C	1.451235	-0.262828	-1.061486
C52	C	1.518234	-0.303225	-0.233115
C53	C	1.518405	-0.303073	-0.116338
H54	H	1.118213	-0.376162	-0.383942
N55	N	0.907791	-0.384518	-0.370024
N56	N	0.956739	-0.420412	-0.309923
H57	H	0.917136	-0.449431	-0.261365
H58	H	1.640187	-0.376171	-0.907085
H59	H	1.396303	-0.542963	-0.384042
H60	H	1.640236	-0.376117	-1.106133
N61	N	0.907983	-0.221951	-0.642165
N62	N	0.846768	-0.181815	-0.605331
H63	H	0.807218	-0.152811	-0.653889
N64	N	1.382632	-0.937007	-0.370223
N65	N	1.285689	-0.944405	-0.377118
H66	H	1.237207	-0.920746	-0.328608
N67	N	1.382610	-0.221751	-0.895714
N68	N	1.382599	-0.221779	-0.797749
H69	H	1.334147	-0.192748	-0.758164
H70	H	1.396558	-0.230031	-1.106157
H71	H	1.118411	-0.230264	-0.628217
N72	N	1.654174	-0.936735	-0.642087
N73	N	1.714144	-0.966030	-0.702134
H74	H	1.762589	-0.942276	-0.750643
N75	N	1.653924	-0.535898	-0.641974
N76	N	1.713899	-0.565195	-0.702015
H77	H	1.762343	-0.541442	-0.750526
H78	H	1.640316	-1.062819	-0.628198
N79	N	1.653996	-0.668774	-0.642018
N80	N	1.713940	-0.639360	-0.702045
H81	H	1.762410	-0.663019	-0.750566
H82	H	1.396391	-0.662234	-0.384076
H83	H	1.396636	-1.063072	-0.384186
