data_functionalizedCrystal
_audit_creation_method	'MofGen! by Chris Wilmer'
_symmetry_space_group_name_H-M	'P1'
_symmetry_Int_Tables_number	1
_symmetry_cell_setting	triclinic
loop_
_symmetry_equiv_pos_as_xyz
  x,y,z
_cell_length_a	13.262390
_cell_length_b	15.538191
_cell_length_c	11.804783
_cell_angle_alpha	73.601377
_cell_angle_beta	92.341250
_cell_angle_gamma	66.622425
loop_
_atom_site_label
_atom_site_type_symbol
_atom_site_fract_x
_atom_site_fract_y
_atom_site_fract_z
O1	O	1.280035	0.038341	0.513568
O2	O	0.981327	0.068759	0.416828
O3	O	1.188826	-0.086582	0.484035
O4	O	1.072536	0.193683	0.446362
O5	O	1.212678	-0.053845	0.293717
O6	O	1.005179	0.101497	0.226511
O7	O	1.303887	0.071079	0.323251
Cu8	Cu	1.156711	0.089277	0.257503
Cu9	Cu	1.128503	0.050561	0.482576
O10	O	1.096388	0.226421	0.256044
C11	C	0.955957	0.086434	0.309591
C12	C	0.844831	0.090314	0.273602
C13	C	0.479587	0.029852	0.587142
C14	C	0.583998	0.026202	0.620958
C15	C	0.649211	0.042230	0.534122
C16	C	0.610003	0.061908	0.413464
C17	C	0.505586	0.065551	0.379645
C18	C	0.675210	0.077929	0.326625
C19	C	0.636002	0.097607	0.205967
C20	C	0.531594	0.101250	0.172155
C21	C	0.466381	0.085222	0.258991
C22	C	0.779627	0.074286	0.360444
C23	C	0.805626	0.109985	0.152947
C24	C	0.701215	0.113635	0.119131
C25	C	1.212919	-0.105938	0.392820
C26	C	1.249160	-0.212385	0.404569
C27	C	0.889107	-0.481580	0.287936
C28	C	0.923188	-0.581605	0.298971
C29	C	1.114882	-0.613946	0.361054
C30	C	1.080817	-0.513923	0.350030
C31	C	0.967928	-0.447746	0.313470
C32	C	1.159637	-0.480089	0.375563
C33	C	1.125575	-0.380074	0.364534
C34	C	1.012692	-0.313891	0.327972
C35	C	0.933866	-0.347731	0.302440
C36	C	1.272526	-0.546266	0.412116
C37	C	1.351347	-0.512433	0.437649
C38	C	1.317284	-0.412416	0.426628
C39	C	1.204401	-0.346234	0.390065
C40	C	1.396110	-0.378577	0.452159
C41	C	1.362048	-0.278561	0.441130
C42	C	1.170339	-0.246218	0.379036
C43	C	1.329257	0.053404	0.430491
C44	C	1.440382	0.049523	0.466487
C45	C	1.072295	0.245776	0.347261
C46	C	1.036053	0.352222	0.335520
N47	N	1.176559	0.116507	0.099202
C48	C	1.060971	-0.042071	-0.312247
C49	C	1.045939	-0.062676	-0.192462
C50	C	1.078592	-0.017881	-0.119541
C51	C	1.126281	0.047520	-0.166415
C52	C	1.141322	0.068120	-0.286209
C53	C	1.158944	0.092311	-0.093502
C54	C	1.206632	0.157712	-0.140377
C55	C	1.221671	0.178309	-0.260159
C56	C	1.189017	0.133515	-0.333081
C57	C	1.143902	0.071710	0.026291
C58	C	1.224254	0.181902	0.052330
C59	C	1.239286	0.202506	-0.067455
N60	N	1.108666	0.023323	0.640881
H61	H	0.381358	0.088196	0.231463
H62	H	0.984961	-0.232451	0.318986
H63	H	0.499684	0.117255	0.073910
H64	H	0.811538	0.058266	0.458684
H65	H	1.250844	0.218377	0.111704
O66	O	1.285791	0.265888	-0.112990
C67	C	1.436692	0.287753	-0.204895
C68	C	1.384159	0.215864	-0.153337
H69	H	1.516218	0.247342	-0.237552
H70	H	1.457540	0.316218	-0.132235
H71	H	1.375150	0.352950	-0.283152
H72	H	1.445644	0.150617	-0.075096
H73	H	1.363286	0.187478	-0.226069
H74	H	1.078413	-0.192334	0.349273
O75	O	1.063860	-0.037964	-0.003225
C76	C	0.998248	-0.128030	0.154404
C77	C	1.014854	-0.105358	0.022647
H78	H	0.958647	-0.182536	0.175370
H79	H	0.941369	-0.056445	0.169875
H80	H	1.082520	-0.161944	0.215539
H81	H	0.930636	-0.071471	-0.038572
H82	H	1.071785	-0.176971	0.007275
H83	H	1.105073	0.018461	0.064444
H84	H	0.858724	0.123034	0.082238
H85	H	0.615915	0.010175	0.719198
H86	H	0.734226	0.039258	0.561662
H87	H	1.260514	0.231554	-0.298316
O88	O	0.416275	0.014400	0.671567
C89	C	0.320796	0.068733	0.825148
C90	C	0.392519	0.086331	0.729591
H91	H	0.301548	0.126889	0.872069
H92	H	0.368197	-0.008355	0.893825
H93	H	0.239471	0.074675	0.780225
H94	H	0.473853	0.080441	0.774409
H95	H	0.345034	0.163410	0.660923
H96	H	0.858996	-0.609142	0.278160
H97	H	0.841940	-0.293847	0.272678
O98	O	0.663163	0.132567	0.001971
C99	C	0.601521	0.073735	-0.143257
C100	C	0.644632	0.052160	-0.010541
H101	H	0.586504	0.008750	-0.153412
H102	H	0.666049	0.084512	-0.199570
H103	H	0.520012	0.143962	-0.175032
H104	H	0.726122	-0.018074	0.021345
H105	H	0.580032	0.041445	0.045692
O106	O	0.779407	-0.417413	0.252369
C107	C	0.592834	-0.395892	0.192044
C108	C	0.717029	-0.468660	0.232279
H109	H	0.542363	-0.437301	0.175814
H110	H	0.582008	-0.334563	0.105641
H111	H	0.562179	-0.361948	0.264980
H112	H	0.747766	-0.502678	0.159425
H113	H	0.727784	-0.529930	0.318713
O114	O	1.224548	-0.678166	0.396735
C115	C	1.386438	-0.753426	0.551821
C116	C	1.262248	-0.680652	0.511543
H117	H	1.416950	-0.755475	0.644658
H118	H	1.437058	-0.728037	0.485398
H119	H	1.397223	-0.830703	0.555253
H120	H	1.251357	-0.603353	0.508120
H121	H	1.211688	-0.706125	0.577979
H122	H	1.007115	-0.115928	-0.154305
H123	H	1.300254	-0.627706	0.421105
H124	H	1.443261	-0.566325	0.467412
H125	H	1.488025	-0.432470	0.481915
H126	H	1.426232	-0.251014	0.461920
H127	H	1.034399	-0.078542	-0.371627
H128	H	1.201248	0.150293	-0.430623
