data_functionalizedCrystal
_audit_creation_method	'MofGen! by Chris Wilmer'
_symmetry_space_group_name_H-M	'P1'
_symmetry_Int_Tables_number	1
_symmetry_cell_setting	triclinic
loop_
_symmetry_equiv_pos_as_xyz
  x,y,z
_cell_length_a	12.759395
_cell_length_b	12.759394
_cell_length_c	12.759393
_cell_angle_alpha	89.967655
_cell_angle_beta	89.980225
_cell_angle_gamma	90.015598
loop_
_atom_site_label
_atom_site_type_symbol
_atom_site_fract_x
_atom_site_fract_y
_atom_site_fract_z
Zn1	Zn	1.606255	-0.418183	-0.594013
Zn2	Zn	1.606149	-0.593902	-0.418331
Zn3	Zn	1.430557	-0.418240	-0.418348
Zn4	Zn	1.430545	-0.593823	-0.593968
O5	O	1.518376	-0.506037	-0.506165
O6	O	1.753262	-0.441501	-0.570720
O7	O	1.582817	-0.570657	-0.271312
O8	O	1.453913	-0.271211	-0.441677
O9	O	1.753184	-0.570602	-0.441647
O10	O	1.582997	-0.271169	-0.570737
O11	O	1.453810	-0.441599	-0.271325
O12	O	1.283534	-0.441522	-0.441633
O13	O	1.453892	-0.570467	-0.740995
O14	O	1.283525	-0.570522	-0.570661
O15	O	1.582986	-0.441425	-0.741028
O16	O	1.582805	-0.740912	-0.441604
O17	O	1.453790	-0.740854	-0.570644
C18	C	1.245409	-0.506020	-0.506145
C19	C	1.128632	-0.506038	-0.506161
C20	C	0.909278	-0.371847	-0.640816
C21	C	0.964185	-0.304729	-0.708114
C22	C	1.073907	-0.304711	-0.708096
C23	C	1.128724	-0.371820	-0.640775
C24	C	1.073817	-0.438938	-0.573477
C25	C	0.964093	-0.438947	-0.573500
C26	C	1.073725	-0.573157	-0.438863
C27	C	0.964004	-0.573171	-0.438874
C28	C	1.128543	-0.640266	-0.371542
C29	C	1.073636	-0.707381	-0.304237
C30	C	0.963908	-0.707395	-0.304257
C31	C	0.909097	-0.640289	-0.371576
C32	C	1.518313	-0.779004	-0.506140
C33	C	1.518382	-0.895781	-0.506164
C34	C	1.652827	-0.895788	-0.371895
C35	C	1.720077	-0.950652	-0.304773
C36	C	1.720138	-1.060374	-0.304802
C37	C	1.652945	-1.115234	-0.371962
C38	C	1.585695	-1.060369	-0.439084
C39	C	1.585639	-0.950645	-0.439046
C40	C	1.451258	-1.060362	-0.573356
C41	C	1.451189	-0.950641	-0.573324
C42	C	1.384065	-1.115222	-0.640516
C43	C	1.316808	-1.060357	-0.707635
C44	C	1.316748	-0.950629	-0.707602
C45	C	1.383940	-0.895776	-0.640446
C46	C	1.792410	-0.506054	-0.506186
C47	C	1.909186	-0.506061	-0.506196
C48	C	1.518450	-0.505930	-0.780199
C49	C	1.518481	-0.505885	-0.896975
C50	C	1.518468	-0.232003	-0.506214
C51	C	1.518507	-0.115227	-0.506234
C52	C	1.451331	-0.438672	-0.951844
C53	C	1.451356	-0.438640	-1.061568
C54	C	1.585689	-0.573036	-1.061546
C55	C	1.585658	-0.573073	-0.951824
C56	C	1.327505	-0.401041	-1.211518
C57	C	1.260365	-0.333812	-1.266390
C58	C	1.244261	-0.231308	-1.230802
C59	C	1.295313	-0.196013	-1.140343
C60	C	1.362461	-0.263237	-1.085477
C61	C	1.378545	-0.365755	-1.121064
C62	C	1.709510	-0.610661	-0.801871
C63	C	1.776664	-0.677880	-0.747003
C64	C	1.792779	-0.780386	-0.782589
C65	C	1.741746	-0.815677	-0.873051
C66	C	1.674591	-0.748458	-0.927920
C67	C	1.658475	-0.645954	-0.892326
C68	C	1.518364	-0.506067	-0.233198
C69	C	1.518536	-0.505816	-0.116422
H70	H	1.118277	-0.762021	-0.249435
O71	O	1.785288	-0.897475	-0.239387
C72	C	1.836292	-0.863965	-0.060698
C73	C	1.762393	-0.924268	-0.134628
H74	H	1.817793	-0.885588	0.024016
H75	H	1.921031	-0.885470	-0.079128
H76	H	1.824712	-0.776126	-0.072257
H77	H	1.773878	-1.012121	-0.123110
H78	H	1.677680	-0.902676	-0.116179
O79	O	1.235307	-0.371813	-0.640959
C80	C	1.392801	-0.398976	-0.741604
C81	C	1.272097	-0.398997	-0.741547
H82	H	1.422583	-0.420973	-0.822915
H83	H	1.422654	-0.317582	-0.720017
H84	H	1.422527	-0.458433	-0.681888
H85	H	1.242282	-0.339591	-0.801263
H86	H	1.242316	-0.480428	-0.763088
H87	H	0.919541	-0.250092	-0.762928
H88	H	1.189593	-0.176570	-1.275487
O89	O	1.127086	-0.239418	-0.773505
C90	C	1.115611	-0.106343	-0.907085
C91	C	1.055255	-0.180212	-0.833045
H92	H	1.057562	-0.058471	-0.955258
H93	H	1.166934	-0.051273	-0.858988
H94	H	1.167031	-0.154661	-0.961874
H95	H	1.003778	-0.131978	-0.778241
H96	H	1.003998	-0.235285	-0.881207
H97	H	1.652770	-0.806447	-0.371852
H98	H	1.396631	-0.383964	-0.907189
H99	H	1.774904	-1.105044	-0.250150
H100	H	1.653010	-1.204575	-0.371988
H101	H	1.633039	-0.777200	-1.001580
O102	O	1.251326	-0.897500	-0.772844
C103	C	1.118043	-0.909086	-0.906091
C104	C	1.192061	-0.969380	-0.832237
H105	H	1.070124	-0.967175	-0.954145
H106	H	1.063024	-0.857832	-0.857856
H107	H	1.166248	-0.857603	-0.961001
H108	H	1.143942	-1.020920	-0.777312
H109	H	1.247084	-1.020568	-0.880537
O110	O	1.826409	-0.643584	-0.659228
C111	C	1.991955	-0.611144	-0.574385
C112	C	1.935757	-0.649987	-0.673861
H113	H	2.080372	-0.616328	-0.586173
H114	H	1.968985	-0.526312	-0.558358
H115	H	1.968102	-0.662110	-0.504943
H116	H	1.959581	-0.599098	-0.743365
H117	H	1.958729	-0.734834	-0.689796
H118	H	1.384124	-1.204563	-0.640539
O119	O	1.693884	-0.511016	-0.767479
C120	C	1.707867	-0.326747	-0.806538
C121	C	1.725585	-0.439539	-0.845626
H122	H	1.733510	-0.268927	-0.869691
H123	H	1.621189	-0.314703	-0.788502
H124	H	1.755858	-0.313112	-0.732439
H125	H	1.677658	-0.453252	-0.919747
H126	H	1.812285	-0.451529	-0.863589
H127	H	1.217884	-0.640253	-0.371538
O128	O	1.411930	-0.228812	-0.997602
C129	C	1.439553	-0.085025	-0.878401
C130	C	1.383454	-0.123884	-0.977926
H131	H	1.416569	-0.000180	-0.862474
H132	H	1.415721	-0.135928	-0.808903
H133	H	1.527971	-0.090185	-0.890189
H134	H	1.295026	-0.118725	-0.966241
H135	H	1.407372	-0.072975	-1.047389
O136	O	1.210888	-0.367991	-1.354363
C137	C	1.184209	-0.343636	-1.539734
C138	C	1.240323	-0.304844	-1.440190
H139	H	1.207969	-0.292586	-1.609147
H140	H	1.207255	-0.428434	-1.555829
H141	H	1.095792	-0.338565	-1.527898
H142	H	1.328750	-0.309847	-1.451951
H143	H	1.217191	-0.220065	-1.424126
O144	O	1.279523	-0.096417	-1.105897
C145	C	1.191614	0.068234	-1.134600
C146	C	1.209386	-0.044540	-1.173717
H147	H	1.134925	0.110216	-1.189427
H148	H	1.157261	0.066109	-1.052133
H149	H	1.269571	0.111889	-1.133317
H150	H	1.131471	-0.088261	-1.175068
H151	H	1.243787	-0.042339	-1.256161
O152	O	1.343033	-0.500687	-1.245940
C153	C	1.329151	-0.684954	-1.206836
C154	C	1.311487	-0.572160	-1.167727
H155	H	1.303676	-0.742771	-1.143613
H156	H	1.281108	-0.698706	-1.280881
H157	H	1.415829	-0.696884	-1.224947
H158	H	1.224838	-0.560152	-1.149556
H159	H	1.359598	-0.558463	-1.093717
O160	O	1.650912	-0.638195	-1.114990
C161	C	1.710451	-0.697747	-1.284013
C162	C	1.636547	-0.623884	-1.223622
H163	H	1.698847	-0.686217	-1.371852
H164	H	1.795191	-0.679312	-1.262527
H165	H	1.691975	-0.782457	-1.262356
H166	H	1.654929	-0.539149	-1.245246
H167	H	1.551829	-0.642409	-1.245113
O168	O	1.757476	-0.915298	-0.907458
C169	C	1.845501	-1.079900	-0.878831
C170	C	1.827754	-0.967114	-0.839737
H171	H	1.902338	-1.121819	-0.824110
H172	H	1.767608	-1.123674	-0.880046
H173	H	1.879752	-1.077677	-0.961337
H174	H	1.793538	-0.969241	-0.757219
H175	H	1.905673	-0.923386	-0.838600
O176	O	1.857886	-0.845704	-0.729157
C177	C	1.894423	-0.932727	-0.565546
C178	C	1.820596	-0.858758	-0.625934
H179	H	1.864314	-0.943287	-0.482073
H180	H	1.897152	-1.012095	-0.606446
H181	H	1.976511	-0.897496	-0.563399
H182	H	1.738471	-0.893893	-0.628099
H183	H	1.817957	-0.779399	-0.585013
H184	H	0.819937	-0.371832	-0.640815
H185	H	0.919209	-0.762056	-0.249459
H186	H	0.819756	-0.640281	-0.371586
H187	H	1.262110	-1.105033	-0.762316
H188	H	1.383891	-0.806435	-0.640407
