data_functionalizedCrystal
_audit_creation_method	'MofGen! by Chris Wilmer'
_symmetry_space_group_name_H-M	'P1'
_symmetry_Int_Tables_number	1
_symmetry_cell_setting	triclinic
loop_
_symmetry_equiv_pos_as_xyz
  x,y,z
_cell_length_a	14.519709
_cell_length_b	10.868271
_cell_length_c	11.792241
_cell_angle_alpha	89.994719
_cell_angle_beta	83.936780
_cell_angle_gamma	90.001824
loop_
_atom_site_label
_atom_site_type_symbol
_atom_site_fract_x
_atom_site_fract_y
_atom_site_fract_z
O1	O	-1.224412	0.102147	-0.148781
O2	O	-0.955999	0.102188	-0.166302
O3	O	-1.096719	0.102158	0.007665
O4	O	-1.083692	0.102178	-0.322748
O5	O	-1.096707	-0.102486	0.007672
O6	O	-0.955987	-0.102456	-0.166295
O7	O	-1.224400	-0.102497	-0.148774
Zn8	Zn	-1.090192	-0.134968	-0.157533
Zn9	Zn	-1.090207	0.134660	-0.157542
O10	O	-1.083680	-0.102467	-0.322741
C11	C	-0.921630	-0.000129	-0.165482
C12	C	-0.819240	-0.000113	-0.163035
N13	N	-1.090188	-0.318983	-0.157527
C14	C	-1.095895	-0.000163	0.049955
C15	C	-1.093446	-0.000162	0.175955
C16	C	-0.444311	-0.000165	-0.154027
C17	C	-0.548628	-0.000150	-0.156528
C18	C	-0.631772	-0.000138	-0.158531
C19	C	-0.736096	-0.000126	-0.161033
C20	C	-0.258769	-0.000174	-0.149594
C21	C	-0.361159	-0.000172	-0.152041
C22	C	-1.090202	-0.569989	-0.157540
C23	C	-1.090191	-0.430311	-0.157536
N24	N	-1.090218	0.318674	-0.157540
C25	C	-1.084504	-0.000143	-0.365031
C26	C	-1.086954	-0.000136	-0.491031
C27	C	-1.088942	-0.000141	0.406642
C28	C	-1.091444	-0.000152	0.278271
