data_functionalizedCrystal
_audit_creation_method	'MofGen! by Chris Wilmer'
_symmetry_space_group_name_H-M	'P1'
_symmetry_Int_Tables_number	1
_symmetry_cell_setting	triclinic
loop_
_symmetry_equiv_pos_as_xyz
  x,y,z
_cell_length_a	12.759400
_cell_length_b	12.759401
_cell_length_c	12.759393
_cell_angle_alpha	90.020086
_cell_angle_beta	89.970145
_cell_angle_gamma	89.987107
loop_
_atom_site_label
_atom_site_type_symbol
_atom_site_fract_x
_atom_site_fract_y
_atom_site_fract_z
Zn1	Zn	-0.418272	-1.606261	-0.594010
Zn2	Zn	-0.593986	-1.606154	-0.418330
Zn3	Zn	-0.418316	-1.430562	-0.418346
Zn4	Zn	-0.593904	-1.430552	-0.593968
O5	O	-0.506120	-1.518382	-0.506163
O6	O	-0.441597	-1.753268	-0.570716
O7	O	-0.570735	-1.582820	-0.271311
O8	O	-0.271289	-1.453918	-0.441672
O9	O	-0.570693	-1.753189	-0.441645
O10	O	-0.271257	-1.583003	-0.570732
O11	O	-0.441672	-1.453813	-0.271323
O12	O	-0.441592	-1.283539	-0.441632
O13	O	-0.570554	-1.453901	-0.740995
O14	O	-0.570596	-1.283532	-0.570661
O15	O	-0.441518	-1.582994	-0.741025
O16	O	-0.740996	-1.582811	-0.441604
O17	O	-0.740936	-1.453797	-0.570645
C18	C	-0.506091	-1.245415	-0.506144
C19	C	-0.506104	-1.128638	-0.506161
C20	C	-0.439003	-1.073818	-0.573471
C21	C	-0.439010	-0.964094	-0.573477
C22	C	-0.573227	-0.964020	-0.438858
C23	C	-0.573214	-1.073742	-0.438849
C24	C	-0.315167	-0.814174	-0.611243
C25	C	-0.248075	-0.759350	-0.678569
C26	C	-0.232065	-0.795008	-0.781108
C27	C	-0.283162	-0.885488	-0.816342
C28	C	-0.350261	-0.940306	-0.749021
C29	C	-0.366251	-0.904650	-0.646467
C30	C	-0.697059	-1.223664	-0.401093
C31	C	-0.764164	-1.278484	-0.333777
C32	C	-0.780185	-1.242829	-0.231236
C33	C	-0.729107	-1.152345	-0.196007
C34	C	-0.662001	-1.097525	-0.263323
C35	C	-0.645979	-1.133188	-0.365863
C36	C	-0.779087	-1.518320	-0.506142
C37	C	-0.895864	-1.518389	-0.506167
C38	C	-0.950722	-1.585642	-0.439050
C39	C	-1.060446	-1.585706	-0.439082
C40	C	-1.060444	-1.451257	-0.573352
C41	C	-0.950722	-1.451199	-0.573324
C42	C	-0.895864	-1.652832	-0.371893
C43	C	-0.950722	-1.720089	-0.304769
C44	C	-1.060446	-1.720153	-0.304802
C45	C	-1.115312	-1.652961	-0.371958
C46	C	-0.232086	-1.518474	-0.506208
C47	C	-0.115310	-1.518512	-0.506228
C48	C	-0.506022	-1.518459	-0.780197
C49	C	-0.505980	-1.518491	-0.896974
C50	C	-0.506139	-0.792416	-0.506179
C51	C	-0.506123	-0.909192	-0.506176
C52	C	-0.573106	-1.585693	-1.061565
C53	C	-0.573155	-1.585667	-0.951841
C54	C	-0.438758	-1.451329	-0.951836
C55	C	-0.438715	-1.451350	-1.061558
C56	C	-0.697125	-1.623133	-0.801881
C57	C	-0.764334	-1.690305	-0.747022
C58	C	-0.780463	-1.792820	-0.782648
C59	C	-0.729367	-1.828185	-0.873130
C60	C	-0.662150	-1.761020	-0.927983
C61	C	-0.646041	-1.658489	-0.892359
C62	C	-0.314744	-1.413894	-1.211520
C63	C	-0.247521	-1.346733	-1.266375
C64	C	-0.231381	-1.244216	-1.230752
C65	C	-0.282459	-1.208855	-1.140267
C66	C	-0.349682	-1.276016	-1.085412
C67	C	-0.365823	-1.378532	-1.121042
C68	C	-0.506141	-1.518367	-0.233196
C69	C	-0.505887	-1.518538	-0.116420
H70	H	-0.328185	-0.785141	-0.527743
H71	H	-0.627803	-1.640400	-1.106230
H72	H	-0.391858	-1.013977	-0.777705
H73	H	-1.105124	-1.396552	-0.628026
C74	C	-0.265531	-0.924716	-0.929138
N75	N	-0.252239	-0.954272	-1.014094
C76	C	-1.120788	-1.794138	-0.230968
N77	N	-1.166234	-1.849861	-0.175348
H78	H	-1.204657	-1.653027	-0.371987
H79	H	-0.205924	-1.375536	-1.340048
H80	H	-0.835187	-1.847512	-0.737974
H81	H	-0.805741	-1.352171	-0.362464
H82	H	-0.834858	-1.287454	-0.176440
C83	C	-0.264707	-1.096079	-1.101078
N84	N	-0.251332	-1.011135	-1.071564
C85	C	-0.890374	-1.377202	-0.647141
N86	N	-0.844920	-1.321463	-0.702739
H87	H	-0.806521	-1.652784	-0.371856
H88	H	-0.906045	-1.774801	-0.250099
H89	H	-0.620545	-1.789814	-1.001649
C90	C	-0.747106	-1.940966	-0.912305
N91	N	-0.760470	-2.025913	-0.941816
H92	H	-0.805937	-1.661501	-0.673352
H93	H	-0.684010	-1.539654	-0.772873
H94	H	-0.627867	-0.919310	-0.384056
C95	C	-0.364856	-1.377443	-0.891478
N96	N	-0.309185	-1.321797	-0.846018
H97	H	-0.177436	-0.750363	-0.835926
C98	C	-0.605809	-0.997993	-0.224564
N99	N	-0.563484	-0.923027	-0.195371
C100	C	-0.405875	-1.237112	-0.985878
N101	N	-0.448201	-1.207809	-0.910912
C102	C	-0.157428	-1.170340	-1.291097
N103	N	-0.101731	-1.114696	-1.336547
C104	C	-0.746728	-1.113122	-0.083205
N105	N	-0.760004	-1.083581	0.001759
C106	C	-0.191858	-0.659834	-0.639803
N107	N	-0.149514	-0.584880	-0.610609
C108	C	-0.332499	-1.526669	-1.250718
N109	N	-0.345868	-1.611611	-1.280242
H110	H	-0.384354	-1.118511	-0.628278
H111	H	-0.684011	-1.252710	-0.484588
