data_functionalizedCrystal
_audit_creation_method	'MofGen! by Chris Wilmer'
_symmetry_space_group_name_H-M	'P1'
_symmetry_Int_Tables_number	1
_symmetry_cell_setting	triclinic
loop_
_symmetry_equiv_pos_as_xyz
  x,y,z
_cell_length_a	6.817900
_cell_length_b	15.300992
_cell_length_c	16.418042
_cell_angle_alpha	95.179282
_cell_angle_beta	103.389568
_cell_angle_gamma	104.175078
loop_
_atom_site_label
_atom_site_type_symbol
_atom_site_fract_x
_atom_site_fract_y
_atom_site_fract_z
V1	V	-4.029037	-0.125492	-0.261407
O2	O	-4.012948	0.005276	-0.256172
O3	O	-3.983961	-0.248104	-0.259869
O4	O	-3.980067	-0.123892	-0.375302
O5	O	-4.016869	-0.119795	-0.139940
V6	V	-4.512308	-0.109811	-0.246849
O7	O	-4.290848	-0.159888	-0.293343
O8	O	-4.700694	-0.075415	-0.214912
O9	O	-4.334177	0.012801	-0.248387
O10	O	-4.645794	-0.240579	-0.252084
O11	O	-4.641873	-0.115508	-0.368316
O12	O	-4.338071	-0.111411	-0.132954
C13	C	-3.829789	-0.277983	-0.255810
C14	C	-3.874217	-0.378222	-0.255311
C15	C	-3.854833	-0.412222	-0.178347
C16	C	-3.896598	-0.506408	-0.177882
C17	C	-3.957733	-0.566593	-0.254381
C18	C	-3.977124	-0.532587	-0.331351
C19	C	-3.935373	-0.438403	-0.331816
C20	C	-4.064137	-0.728896	-0.330377
C21	C	-4.105886	-0.823086	-0.329912
C22	C	-4.025361	-0.796901	-0.176442
C23	C	-3.983611	-0.702717	-0.176907
C24	C	-4.003001	-0.668718	-0.253878
C25	C	-3.824821	-0.119538	-0.403055
C26	C	-3.866088	-0.119042	-0.496166
C27	C	-4.143202	-0.122396	-0.714659
C28	C	-4.181957	-0.121922	-0.802146
C29	C	-3.817499	-0.112902	-0.793585
C30	C	-3.778743	-0.113370	-0.706099
C31	C	-3.941604	-0.118122	-0.666639
C32	C	-4.019115	-0.117180	-0.841612
C33	C	-4.061135	-0.116665	-0.936468
C34	C	-3.899582	-0.118634	-0.571776
C35	C	-4.151691	0.042676	-0.252444
C36	C	-4.086501	0.142914	-0.252948
C37	C	-4.156660	-0.115767	-0.105196
C38	C	-4.094631	-0.116259	-0.012084
H39	H	-3.805037	-0.363225	-0.116052
F40	F	-3.564163	-0.108818	-0.654989
F41	F	-4.316532	-0.127450	-0.672666
H42	H	-3.951181	-0.410724	-0.394489
F43	F	-3.875981	-0.542589	-0.095966
H44	H	-3.684911	-0.109035	-0.825724
H45	H	-4.026917	-0.581598	-0.393639
H46	H	-3.933820	-0.653716	-0.114614
H47	H	-4.346115	-0.125402	-0.841240
H48	H	-4.009566	-0.824586	-0.113770
H49	H	-4.079962	-0.701219	-0.393055
F50	F	-4.171107	-0.887142	-0.411335
