data_functionalizedCrystal
_audit_creation_method	'MofGen! by Chris Wilmer'
_symmetry_space_group_name_H-M	'P1'
_symmetry_Int_Tables_number	1
_symmetry_cell_setting	triclinic
loop_
_symmetry_equiv_pos_as_xyz
  x,y,z
_cell_length_a	8.559649
_cell_length_b	8.559649
_cell_length_c	7.681481
_cell_angle_alpha	85.069100
_cell_angle_beta	94.913240
_cell_angle_gamma	69.778664
loop_
_atom_site_label
_atom_site_type_symbol
_atom_site_fract_x
_atom_site_fract_y
_atom_site_fract_z
O1	O	2.109661	-0.037797	-0.146402
O2	O	1.634175	0.045985	-0.146408
O3	O	1.913809	-0.233649	-0.146402
O4	O	1.830027	0.241837	-0.146407
O5	O	1.948236	-0.268136	0.146456
O6	O	1.668602	0.011497	0.146450
O7	O	2.144088	-0.072285	0.146457
Zn8	Zn	1.911811	-0.035869	0.192951
Zn9	Zn	1.866452	0.009570	-0.192902
O10	O	1.864454	0.207349	0.146451
C11	C	1.591080	0.035090	0.000020
C12	C	1.411380	0.053990	0.000017
C13	C	1.937371	-0.311201	0.000024
C14	C	1.956269	-0.490899	0.000014
C15	C	2.187183	-0.061390	0.000025
C16	C	2.366881	-0.080288	0.000016
C17	C	1.840891	0.284902	0.000021
C18	C	1.821992	0.464601	0.000019
N19	N	1.942779	-0.066883	0.456286
N20	N	1.835499	0.040569	-0.456237
H21	H	1.311991	0.183419	0.000006
H22	H	1.725988	0.150245	0.468564
O23	O	2.073375	-0.197925	0.545803
C24	C	2.061211	-0.349961	0.500925
H25	H	1.983011	-0.326395	0.367034
H26	H	2.192153	-0.444183	0.494785
H27	H	1.998635	-0.402248	0.604661
O28	O	2.110813	-0.609253	0.000099
C29	C	2.231854	-0.531795	0.000041
H30	H	2.181839	-0.406960	0.055474
H31	H	2.351956	-0.616905	0.085069
H32	H	2.259646	-0.508885	-0.140461
O33	O	1.485552	-0.234576	-0.000216
C34	C	1.567581	-0.235859	-0.151912
H35	H	1.554225	-0.102139	-0.202480
H36	H	1.706222	-0.315769	-0.117798
H37	H	1.508629	-0.290705	-0.258119
O38	O	1.667474	-0.417072	0.000084
C39	C	1.546418	-0.494514	0.000042
H40	H	1.609463	-0.632399	0.055499
H41	H	1.446305	-0.429413	0.085057
H42	H	1.485595	-0.484350	-0.140458
