data_functionalizedCrystal
_audit_creation_method	'MofGen! by Chris Wilmer'
_symmetry_space_group_name_H-M	'P1'
_symmetry_Int_Tables_number	1
_symmetry_cell_setting	triclinic
loop_
_symmetry_equiv_pos_as_xyz
  x,y,z
_cell_length_a	12.759401
_cell_length_b	12.759400
_cell_length_c	12.759393
_cell_angle_alpha	90.030452
_cell_angle_beta	89.979434
_cell_angle_gamma	89.987219
loop_
_atom_site_label
_atom_site_type_symbol
_atom_site_fract_x
_atom_site_fract_y
_atom_site_fract_z
Zn1	Zn	-1.606267	-0.418266	0.594010
Zn2	Zn	-1.606159	-0.593981	0.418330
Zn3	Zn	-1.430566	-0.418311	0.418346
Zn4	Zn	-1.430558	-0.593898	0.593969
O5	O	-1.518388	-0.506114	0.506164
O6	O	-1.753274	-0.441591	0.570716
O7	O	-1.582824	-0.570732	0.271311
O8	O	-1.453922	-0.271284	0.441672
O9	O	-1.753194	-0.570688	0.441645
O10	O	-1.583009	-0.271251	0.570732
O11	O	-1.453817	-0.441669	0.271323
O12	O	-1.283544	-0.441587	0.441632
O13	O	-1.453909	-0.570546	0.740995
O14	O	-1.283538	-0.570590	0.570661
O15	O	-1.583001	-0.441510	0.741026
O16	O	-1.582816	-0.740991	0.441605
O17	O	-1.453803	-0.740930	0.570646
C18	C	-1.245420	-0.506085	0.506145
C19	C	-1.128644	-0.506098	0.506161
C20	C	-1.073824	-0.438997	0.573472
C21	C	-0.964100	-0.439003	0.573477
C22	C	-0.964025	-0.573222	0.438859
C23	C	-1.073747	-0.573210	0.438849
C24	C	-1.518326	-0.779081	0.506142
C25	C	-1.518395	-0.895858	0.506168
C26	C	-0.792421	-0.506134	0.506180
C27	C	-0.909197	-0.506117	0.506176
C28	C	-1.585711	-1.060448	0.439084
C29	C	-1.585648	-0.950724	0.439051
C30	C	-1.451194	-0.950722	0.573314
C31	C	-1.451252	-1.060444	0.573341
C32	C	-1.518466	-0.506013	0.780197
C33	C	-1.518500	-0.505970	0.896974
C34	C	-1.518478	-0.232081	0.506209
C35	C	-1.518517	-0.115304	0.506228
C36	C	-1.518370	-0.506139	0.233196
C37	C	-1.518540	-0.505886	0.116420
C38	C	-1.585723	-0.438770	0.951853
C39	C	-1.585741	-0.438725	1.061578
C40	C	-1.451309	-0.573088	1.061533
C41	C	-1.451287	-0.573128	0.951811
H42	H	-0.919470	-0.384361	0.628286
H43	H	-1.640450	-0.384083	0.907208
C44	C	-1.659697	-0.364819	1.121946
H45	H	-1.650082	-0.374406	1.195147
H46	H	-1.730275	-0.380221	1.103969
H47	H	-1.644346	-0.294226	1.103974
H48	H	-1.396589	-0.627768	1.106195
H49	H	-1.396530	-1.105109	0.628020
H50	H	-0.919315	-0.627863	0.384057
H51	H	-1.118517	-0.384347	0.628278
H52	H	-1.396538	-0.627849	0.907127
C53	C	-1.134053	-0.647029	0.364808
H54	H	-1.085646	-0.687010	0.324732
H55	H	-1.176841	-0.606779	0.319099
H56	H	-1.176867	-0.692851	0.404924
H57	H	-1.640482	-1.105112	0.384435
C58	C	-1.659567	-0.890387	0.365198
H59	H	-1.699638	-0.938778	0.325240
H60	H	-1.619383	-0.847651	0.319372
H61	H	-1.705301	-0.847519	0.405426
H62	H	-1.396430	-0.906043	0.627958
