data_functionalizedCrystal
_audit_creation_method	'MofGen! by Chris Wilmer'
_symmetry_space_group_name_H-M	'P1'
_symmetry_Int_Tables_number	1
_symmetry_cell_setting	triclinic
loop_
_symmetry_equiv_pos_as_xyz
  x,y,z
_cell_length_a	12.594517
_cell_length_b	12.594516
_cell_length_c	13.897441
_cell_angle_alpha	90.028053
_cell_angle_beta	90.023088
_cell_angle_gamma	90.011248
loop_
_atom_site_label
_atom_site_type_symbol
_atom_site_fract_x
_atom_site_fract_y
_atom_site_fract_z
Zn1	Zn	1.627308	-0.423724	0.545459
Zn2	Zn	2.127308	0.076276	1.045459
Zn3	Zn	1.627209	-0.601735	0.384167
Zn4	Zn	2.127209	-0.101735	0.884167
Zn5	Zn	1.449309	-0.423769	0.384171
Zn6	Zn	1.949309	0.076231	0.884171
Zn7	Zn	1.449307	-0.601659	0.545413
Zn8	Zn	1.949307	-0.101659	1.045413
O9	O	1.538283	-0.512722	0.464803
O10	O	2.038283	-0.012722	0.964803
O11	O	1.776240	-0.447351	0.524081
O12	O	2.276240	0.052649	1.024081
O13	O	1.603569	-0.578178	0.249186
O14	O	2.103569	-0.078178	0.749186
O15	O	1.472963	-0.274817	0.405586
O16	O	1.972963	0.225183	0.905586
O17	O	1.776168	-0.578134	0.405581
O18	O	2.276168	-0.078134	0.905581
O19	O	1.603738	-0.274784	0.524084
O20	O	2.103738	0.225216	1.024084
O21	O	1.472867	-0.447427	0.249188
O22	O	1.972867	0.052573	0.749188
O23	O	1.300363	-0.447354	0.405542
O24	O	1.800363	0.052646	0.905542
O25	O	1.472959	-0.578005	0.680401
O26	O	1.972959	-0.078005	1.180401
O27	O	1.300361	-0.578049	0.524006
O28	O	1.800361	-0.078049	1.024006
O29	O	1.603736	-0.447277	0.680435
O30	O	2.103736	0.052723	1.180435
O31	O	1.603568	-0.750671	0.405537
O32	O	2.103568	-0.250671	0.905537
O33	O	1.472864	-0.750615	0.524003
O34	O	1.972864	-0.250615	1.024003
C35	C	1.261742	-0.512699	0.464770
C36	C	1.761742	-0.012699	0.964770
C37	C	1.143437	-0.512715	0.464779
C38	C	1.643437	-0.012715	0.964779
C39	C	1.003390	-0.441551	0.400494
C40	C	1.503390	0.058449	0.900494
C41	C	1.074248	-0.415618	0.488514
C42	C	1.574248	0.084382	0.988514
C43	C	1.074150	-0.538600	0.376769
C44	C	1.574150	-0.038600	0.876769
C45	C	1.003509	-0.486773	0.552917
C46	C	1.503509	0.013227	1.052917
C47	C	1.003405	-0.609800	0.441112
C48	C	1.503405	-0.109800	0.941112
C49	C	1.074231	-0.583904	0.529193
C50	C	1.574231	-0.083904	1.029193
C51	C	1.538234	-0.789263	0.464786
C52	C	2.038234	-0.289263	0.964786
C53	C	1.538310	-0.907568	0.464811
C54	C	2.038310	-0.407568	0.964811
C55	C	1.609482	-0.976813	0.400446
C56	C	2.109482	-0.476813	0.900446
C57	C	1.635494	-1.047509	0.488487
C58	C	2.135494	-0.547509	0.988487
C59	C	1.512431	-1.047671	0.376825
C60	C	2.012431	-0.547671	0.876825
C61	C	1.564372	-0.976706	0.552899
C62	C	2.064372	-0.476706	1.052899
C63	C	1.441263	-0.976862	0.441177
C64	C	1.941263	-0.476862	0.941177
C65	C	1.467238	-1.047526	0.529280
C66	C	1.967238	-0.547526	1.029280
C67	C	1.815904	-0.512746	0.464836
C68	C	2.315904	-0.012746	0.964836
C69	C	1.934209	-0.512756	0.464850
C70	C	2.434209	-0.012756	0.964850
C71	C	1.538358	-0.512628	0.716396
C72	C	2.038358	-0.012628	1.216396
C73	C	1.538391	-0.512588	0.823610
C74	C	2.038391	-0.012588	1.323610
C75	C	1.538361	-0.235101	0.464841
C76	C	2.038361	0.264899	0.964841
C77	C	1.538395	-0.116796	0.464857
C78	C	2.038395	0.383204	0.964857
C79	C	1.538269	-0.512739	0.214188
C80	C	2.038269	-0.012739	0.714188
C81	C	1.538443	-0.512479	0.106975
C82	C	2.038443	-0.012479	0.606975
C83	C	1.538419	-0.512516	1.019905
C84	C	2.038419	-0.012516	1.519905
C85	C	1.538400	-0.512559	0.910672
C86	C	2.038400	-0.012559	1.410672
H87	H	1.105138	-0.644102	0.583649
H88	H	1.605138	-0.144102	1.083649
N89	N	0.964346	-0.712747	0.415915
N90	N	1.464346	-0.212747	0.915915
N91	N	0.986917	-0.752271	0.335980
N92	N	1.486917	-0.252271	0.835980
H93	H	0.959331	-0.824978	0.318174
H94	H	1.459331	-0.324978	0.818174
N95	N	1.592016	-0.937764	0.646286
N96	N	2.092016	-0.437764	1.146286
N97	N	1.672184	-0.880381	0.656760
N98	N	2.172184	-0.380381	1.156760
H99	H	1.691714	-0.852875	0.722712
H100	H	2.191714	-0.352875	1.222712
H101	H	1.669680	-0.945763	0.346063
H102	H	2.169680	-0.445763	0.846063
H103	H	1.490507	-1.078841	0.302398
H104	H	1.990507	-0.578841	0.802398
N105	N	1.391781	-1.086224	0.597672
N106	N	1.891781	-0.586224	1.097672
N107	N	1.401464	-1.063238	0.684742
N108	N	1.901464	-0.563238	1.184742
H109	H	1.348176	-1.090569	0.733047
H110	H	1.848176	-0.590569	1.233047
H111	H	1.105347	-0.333528	0.508579
H112	H	1.605347	0.166472	1.008579
H113	H	0.972608	-0.464800	0.627397
H114	H	1.472608	0.035200	1.127397
H115	H	1.717601	-1.078545	0.508503
H116	H	2.217601	-0.578545	1.008503
H117	H	1.359180	-0.945803	0.421136
H118	H	1.859180	-0.445803	0.921136
H119	H	0.972288	-0.381308	0.346167
H120	H	1.472288	0.118692	0.846167
H121	H	1.105183	-0.560476	0.302309
H122	H	1.605183	-0.060476	0.802309
