data_functionalizedCrystal
_audit_creation_method	'MofGen! by Chris Wilmer'
_symmetry_space_group_name_H-M	'P1'
_symmetry_Int_Tables_number	1
_symmetry_cell_setting	triclinic
loop_
_symmetry_equiv_pos_as_xyz
  x,y,z
_cell_length_a	13.262533
_cell_length_b	12.376457
_cell_length_c	19.188937
_cell_angle_alpha	78.763181
_cell_angle_beta	83.818276
_cell_angle_gamma	85.820148
loop_
_atom_site_label
_atom_site_type_symbol
_atom_site_fract_x
_atom_site_fract_y
_atom_site_fract_z
O1	O	-1.324899	0.313335	-0.138461
O2	O	-1.038210	0.225190	-0.136191
O3	O	-1.189822	0.271815	-0.036076
O4	O	-1.173287	0.266710	-0.238576
O5	O	-1.151933	0.448175	-0.061069
O6	O	-1.000321	0.401550	-0.161184
O7	O	-1.287009	0.489695	-0.163454
Zn8	Zn	-1.137649	0.473624	-0.166287
Zn9	Zn	-1.187570	0.241262	-0.133358
O10	O	-1.135397	0.443070	-0.263569
C11	C	-0.982587	0.302093	-0.146516
C12	C	-0.873298	0.268491	-0.140037
C13	C	-1.170341	0.359830	-0.022536
C14	C	-1.168730	0.359336	0.055047
C15	C	-1.342633	0.412790	-0.153129
C16	C	-1.451923	0.446385	-0.159607
C17	C	-0.482608	0.558310	-0.176277
C18	C	-0.585288	0.589885	-0.182368
C19	C	-0.657296	0.509539	-0.171786
C20	C	-0.626613	0.397613	-0.155111
C21	C	-0.523921	0.366034	-0.149024
C22	C	-0.698609	0.317263	-0.144533
C23	C	-0.667926	0.205337	-0.127858
C24	C	-0.565244	0.173763	-0.121772
C25	C	-0.493236	0.254109	-0.132355
C26	C	-0.801301	0.348842	-0.150620
C27	C	-0.842614	0.156566	-0.123367
C28	C	-0.739933	0.124991	-0.117275
N29	N	-1.103587	0.632207	-0.188760
N30	N	-1.221641	0.082681	-0.110880
C31	C	-1.300711	1.047813	-0.058698
C32	C	-1.324545	0.936803	-0.042969
C33	C	-1.269308	0.860649	-0.079415
C34	C	-1.190231	0.895515	-0.131594
C35	C	-1.166399	1.006537	-0.147329
C36	C	-1.134996	0.819373	-0.168046
C37	C	-1.055920	0.854239	-0.220225
C38	C	-1.032091	0.965251	-0.235957
C39	C	-1.087329	1.041405	-0.199510
C40	C	-1.158828	0.708350	-0.152311
C41	C	-1.024517	0.667075	-0.240942
C42	C	-1.000682	0.778084	-0.256671
C43	C	-1.136618	0.451930	0.595246
C44	C	-1.138120	0.452397	0.522347
C45	C	-1.159529	0.356496	0.499514
C46	C	-1.179413	0.260113	0.549586
C47	C	-1.177900	0.259646	0.622482
N48	N	-1.233301	0.302896	0.397778
N49	N	-1.234739	0.303347	0.328529
C50	C	-1.164085	0.357897	0.279882
N51	N	-1.091949	0.411999	0.303100
N52	N	-1.090515	0.411552	0.372355
C53	C	-1.161171	0.356991	0.420472
C54	C	-1.145825	0.454777	0.150775
C55	C	-1.147322	0.455238	0.077875
C56	C	-1.188625	0.262955	0.105116
C57	C	-1.187118	0.262494	0.178013
C58	C	-1.165722	0.358409	0.200838
C59	C	-1.154882	0.355058	0.722890
C60	C	-1.156504	0.355562	0.645307
H61	H	-0.826272	0.439974	-0.164198
H62	H	-0.901243	0.091142	-0.114752
H63	H	-1.288717	0.770260	-0.066606
H64	H	-0.936296	0.806487	-0.299156
H65	H	-1.196841	0.182029	0.530990
N66	N	-0.533921	0.059429	-0.104738
N67	N	-0.568507	0.001449	-0.047545
H68	H	-0.546389	-0.079301	-0.035514
H69	H	-1.067921	1.131799	-0.212315
H70	H	-1.388929	0.908420	-0.000486
H71	H	-1.206046	0.184867	0.086526
N72	N	-0.762170	0.541806	-0.178048
N73	N	-0.789548	0.641740	-0.192959
H74	H	-0.863617	0.664534	-0.197394
N75	N	-0.409054	0.640368	-0.187101
N76	N	-0.337867	0.641329	-0.235497
H77	H	-0.285916	0.699289	-0.243144
H78	H	-1.194094	0.181169	0.663244
N79	N	-0.951331	1.000854	-0.289269
N80	N	-0.902022	0.932856	-0.321809
H81	H	-0.844986	0.957998	-0.359463
N82	N	-1.239549	0.672716	-0.098982
N83	N	-1.235762	0.684789	-0.036159
H84	H	-1.292759	0.659609	0.001518
N85	N	-1.123959	0.552753	0.174084
N86	N	-1.106190	0.638789	0.129373
H87	H	-1.090744	0.707986	0.145832
H88	H	-0.714936	0.033858	-0.103699
N89	N	-1.126984	0.553675	0.026735
N90	N	-1.043608	0.596669	0.022565
H91	H	-1.029242	0.666193	-0.013554
H92	H	-0.610263	0.681016	-0.195944
N93	N	-1.357132	1.125583	-0.021463
N94	N	-1.427726	1.094443	0.025127
H95	H	-1.467579	1.149370	0.051428
H96	H	-1.203318	0.184022	0.218775
H97	H	-1.119194	0.530031	0.613824
N98	N	-0.388341	0.221878	-0.126141
N99	N	-0.324000	0.247854	-0.178254
H100	H	-0.249915	0.225096	-0.173866
H101	H	-0.979539	0.605069	-0.270621
H102	H	-1.121907	0.530868	0.481579
