data_functionalizedCrystal
_audit_creation_method	'MofGen! by Chris Wilmer'
_symmetry_space_group_name_H-M	'P1'
_symmetry_Int_Tables_number	1
_symmetry_cell_setting	triclinic
loop_
_symmetry_equiv_pos_as_xyz
  x,y,z
_cell_length_a	6.817900
_cell_length_b	15.300992
_cell_length_c	9.514088
_cell_angle_alpha	90.960074
_cell_angle_beta	118.843545
_cell_angle_gamma	104.175078
loop_
_atom_site_label
_atom_site_type_symbol
_atom_site_fract_x
_atom_site_fract_y
_atom_site_fract_z
V1	V	-4.221170	-0.126358	-0.501233
O2	O	-4.201233	0.004427	-0.491194
O3	O	-4.174963	-0.248965	-0.498283
O4	O	-4.255912	-0.125136	-0.719619
O5	O	-4.119724	-0.120259	-0.268326
V6	V	-4.693740	-0.110630	-0.473317
O7	O	-4.506454	-0.160860	-0.562468
O8	O	-4.858653	-0.076127	-0.412082
O9	O	-4.516740	0.011977	-0.476267
O10	O	-4.831074	-0.241415	-0.483356
O11	O	-4.912583	-0.116729	-0.706224
O12	O	-4.435791	-0.111851	-0.254931
C13	C	-4.017808	-0.278831	-0.490500
C14	C	-4.061870	-0.379069	-0.489544
C15	C	-3.985917	-0.412813	-0.341970
C16	C	-4.027339	-0.506998	-0.341077
C17	C	-4.144701	-0.567436	-0.487760
C18	C	-4.220664	-0.533686	-0.635346
C19	C	-4.179256	-0.439503	-0.636238
C20	C	-4.306961	-0.729991	-0.633477
C21	C	-4.348369	-0.824180	-0.632586
C22	C	-4.155045	-0.797486	-0.338317
C23	C	-4.113636	-0.703303	-0.339208
C24	C	-4.189599	-0.669560	-0.486795
C25	C	-4.121064	-0.120874	-0.772834
C26	C	-4.230767	-0.120687	-0.951369
C27	C	-4.337236	0.041839	-0.484046
C28	C	-4.272416	0.142075	-0.485012
C29	C	-4.233979	-0.116116	-0.201708
C30	C	-4.103513	-0.116299	-0.023171
H31	H	-3.965493	-0.534468	-0.220908
C32	C	-3.984551	-0.636831	-0.177846
C33	C	-4.087056	-0.643182	-0.064011
C34	C	-3.957983	-0.576714	0.097358
C35	C	-3.726405	-0.503896	0.144892
C36	C	-3.623887	-0.497542	0.031054
C37	C	-3.752960	-0.564009	-0.130315
H38	H	-4.258495	-0.697089	-0.099196
H39	H	-4.033874	-0.581418	0.181628
H40	H	-3.630857	-0.454693	0.264347
H41	H	-3.452448	-0.443635	0.066239
H42	H	-3.677069	-0.559305	-0.214585
H43	H	-3.910644	-0.112695	-0.948061
H44	H	-4.316239	-0.582902	-0.754778
C45	C	-3.856818	-0.346336	-0.180613
C46	C	-3.773287	-0.383459	-0.018285
C47	C	-3.644194	-0.316984	0.143077
C48	C	-3.598632	-0.213385	0.142110
C49	C	-3.682164	-0.176257	-0.020224
C50	C	-3.811257	-0.242732	-0.181586
H51	H	-3.807013	-0.460154	-0.017563
H52	H	-3.582358	-0.344470	0.263247
H53	H	-3.503070	-0.164177	0.261560
H54	H	-3.648438	-0.099562	-0.020945
H55	H	-3.873093	-0.215246	-0.301756
C56	C	-4.071490	-0.834596	-0.175965
C57	C	-4.249885	-0.900062	-0.142520
C58	C	-4.166323	-0.937176	0.019827
C59	C	-3.904366	-0.908822	0.148729
C60	C	-3.725954	-0.843352	0.115287
C61	C	-3.809516	-0.806239	-0.047060
H62	H	-4.443816	-0.921055	-0.237943
H63	H	-4.298396	-0.985641	0.044583
H64	H	-3.842508	-0.936295	0.268908
H65	H	-3.532023	-0.822360	0.210710
H66	H	-3.677443	-0.757773	-0.071816
H67	H	-4.368855	-0.702522	-0.753659
H68	H	-4.443930	-0.873387	-0.752029
H69	H	-4.241128	-0.412031	-0.756409
H70	H	-4.423657	-0.124301	-1.026490
