data_functionalizedCrystal
_audit_creation_method	'MofGen! by Chris Wilmer'
_symmetry_space_group_name_H-M	'P1'
_symmetry_Int_Tables_number	1
_symmetry_cell_setting	triclinic
loop_
_symmetry_equiv_pos_as_xyz
  x,y,z
_cell_length_a	14.044220
_cell_length_b	14.421503
_cell_length_c	14.044209
_cell_angle_alpha	90.001982
_cell_angle_beta	86.811584
_cell_angle_gamma	90.003446
loop_
_atom_site_label
_atom_site_type_symbol
_atom_site_fract_x
_atom_site_fract_y
_atom_site_fract_z
O1	O	1.277171	0.077023	-0.230155
O2	O	1.000499	0.077047	-0.221849
O3	O	1.134683	0.077022	-0.087666
O4	O	1.142987	0.077048	-0.364338
O5	O	1.134661	-0.077201	-0.087686
O6	O	1.000477	-0.077177	-0.221869
O7	O	1.277148	-0.077200	-0.230175
Cu8	Cu	1.138811	-0.091270	-0.226024
Cu9	Cu	1.138837	0.091117	-0.226000
O10	O	1.142964	-0.077176	-0.364358
C11	C	0.964866	-0.000062	-0.218223
C12	C	0.858724	-0.000054	-0.207379
N13	N	1.138799	-0.219552	-0.226040
C14	C	0.664386	-0.000074	-0.187553
C15	C	0.613256	-0.000071	-0.264467
C16	C	0.505120	-0.000082	-0.253435
C17	C	0.772532	-0.000063	-0.198583
C18	C	1.076738	-0.469194	-0.288055
C19	C	1.164571	-0.531002	-0.313879
C20	C	1.138820	-0.408713	-0.226019
C21	C	1.051011	-0.530999	-0.200219
C22	C	1.138833	-0.591434	-0.226001
C23	C	1.226701	-0.469160	-0.251890
C24	C	1.113080	-0.469152	-0.138188
C25	C	1.200973	-0.530932	-0.163981
C26	C	1.138811	-0.303452	-0.226032
C27	C	1.138852	-0.696693	-0.225988
C28	C	1.312781	-0.000089	-0.233800
C29	C	1.418924	-0.000091	-0.244645
C30	C	1.131037	-0.000091	-0.052054
C31	C	1.120193	-0.000094	0.054088
N32	N	1.138856	0.219398	-0.225977
C33	C	1.100368	-0.000085	0.248426
C34	C	1.177283	-0.000090	0.299556
C35	C	1.166252	-0.000085	0.407692
C36	C	1.111398	-0.000090	0.140280
C37	C	1.146613	-0.000068	0.600030
C38	C	1.157463	-0.000080	0.493888
H39	H	0.650694	-0.000060	-0.338601
H40	H	1.186354	-0.558169	-0.388149
H41	H	1.253542	-0.557869	-0.111513
N42	N	1.002173	-0.000090	0.298005
H43	H	0.966309	0.057079	0.278952
H44	H	1.008191	-0.000127	0.369331
H45	H	1.091272	-0.441963	-0.063940
H46	H	0.626950	-0.000086	-0.113425
H47	H	0.976746	-0.558165	-0.178407
H48	H	1.024299	-0.442087	-0.340567
N49	N	1.275487	-0.000108	0.249980
H50	H	1.283502	0.057058	0.208769
H51	H	1.283410	-0.057321	0.208829
N52	N	1.325108	-0.433342	-0.280896
H53	H	1.324490	-0.363311	-0.280751
H54	H	1.344636	-0.456454	-0.347006
