data_functionalizedCrystal
_audit_creation_method	'MofGen! by Chris Wilmer'
_symmetry_space_group_name_H-M	'P1'
_symmetry_Int_Tables_number	1
_symmetry_cell_setting	triclinic
loop_
_symmetry_equiv_pos_as_xyz
  x,y,z
_cell_length_a	19.188930
_cell_length_b	17.666332
_cell_length_c	19.188930
_cell_angle_alpha	89.988482
_cell_angle_beta	83.144779
_cell_angle_gamma	89.976436
loop_
_atom_site_label
_atom_site_type_symbol
_atom_site_fract_x
_atom_site_fract_y
_atom_site_fract_z
O1	O	0.926150	-0.063200	0.087169
O2	O	1.426150	0.436800	0.587169
O3	O	0.722839	-0.063149	0.098903
O4	O	1.222839	0.436851	0.598903
O5	O	0.830361	-0.063161	-0.008620
O6	O	1.330361	0.436839	0.491380
O7	O	0.818627	-0.063188	0.194691
O8	O	1.318627	0.436812	0.694691
O9	O	0.830342	0.062735	-0.008625
O10	O	1.330342	0.562735	0.491375
O11	O	0.722819	0.062747	0.098898
O12	O	1.222819	0.562747	0.598898
O13	O	0.926130	0.062697	0.087163
O14	O	1.426130	0.562697	0.587163
Cu15	Cu	0.824473	0.074217	0.093030
Cu16	Cu	1.324473	0.574217	0.593030
Cu17	Cu	0.824496	-0.074670	0.093036
Cu18	Cu	1.324496	0.425330	0.593036
O19	O	0.818608	0.062709	0.194686
O20	O	1.318608	0.562709	0.694686
C21	C	0.696818	-0.000194	0.098520
C22	C	1.196818	0.499806	0.598520
C23	C	0.619313	-0.000174	0.097380
C24	C	1.119313	0.499826	0.597380
C25	C	0.574389	-0.000194	0.160470
C26	C	1.074389	0.499806	0.660470
C27	C	0.501566	-0.000203	0.159399
C28	C	1.001566	0.499797	0.659399
C29	C	0.473669	-0.000206	0.095233
C30	C	0.973669	0.499794	0.595233
C31	C	0.518603	-0.000181	0.032133
C32	C	1.018603	0.499819	0.532133
C33	C	0.591425	-0.000166	0.033207
C34	C	1.091425	0.499834	0.533207
N35	N	0.365696	-0.043078	0.046187
N36	N	0.865696	0.456922	0.546187
N37	N	0.296517	-0.043095	0.045172
N38	N	0.796517	0.456905	0.545172
C39	C	0.254260	-0.000252	0.091994
C40	C	0.754260	0.499748	0.591994
N41	N	0.283795	0.042599	0.139881
N42	N	0.783795	0.542599	0.639881
N43	N	0.352979	0.042612	0.140899
N44	N	0.852979	0.542612	0.640899
C45	C	0.394707	-0.000222	0.094062
C46	C	0.894707	0.499778	0.594062
C47	C	0.130372	-0.000280	0.153928
C48	C	0.630372	0.499720	0.653928
C49	C	0.057547	-0.000283	0.152853
C50	C	0.557547	0.499717	0.652853
C51	C	0.074586	-0.000270	0.025586
C52	C	0.574586	0.499730	0.525586
C53	C	0.147409	-0.000258	0.026662
C54	C	0.647409	0.499742	0.526662
C55	C	0.175298	-0.000267	0.090835
C56	C	0.675298	0.499733	0.590835
N57	N	0.824462	0.178937	0.093025
N58	N	1.324462	0.678937	0.593025
C59	C	0.872088	0.218541	0.045437
C60	C	1.372088	0.718541	0.545437
C61	C	0.872092	0.297789	0.045434
C62	C	1.372092	0.797789	0.545434
C63	C	0.824476	0.337429	0.093031
C64	C	1.324476	0.837429	0.593031
C65	C	0.776841	0.297815	0.140622
C66	C	1.276841	0.797815	0.640622
C67	C	0.776834	0.218569	0.140619
C68	C	1.276834	0.718569	0.640619
N69	N	0.815399	0.461841	0.154838
N70	N	1.315399	0.961841	0.654838
N71	N	0.815410	0.537121	0.154839
N72	N	1.315410	1.037121	0.654839
C73	C	0.824493	0.576193	0.093041
C74	C	1.324493	1.076193	0.593041
N75	N	0.833579	0.537140	0.031240
N76	N	1.333579	1.037140	0.531240
N77	N	0.833571	0.461853	0.031241
N78	N	1.333571	0.961853	0.531241
C79	C	0.824478	0.423358	0.093039
C80	C	1.324478	0.923358	0.593039
C81	C	0.872126	0.701727	0.045446
C82	C	1.372126	1.201727	0.545446
C83	C	0.872124	0.780976	0.045441
C84	C	1.372124	1.280976	0.545441
C85	C	0.776877	0.781000	0.140636
C86	C	1.276877	1.281000	0.640636
C87	C	0.776875	0.701753	0.140634
C88	C	1.276875	1.201753	0.640634
C89	C	0.824503	0.662121	0.093039
C90	C	1.324503	1.162121	0.593039
C91	C	0.952151	-0.000260	0.087546
C92	C	1.452151	0.499740	0.587546
C93	C	1.029656	-0.000285	0.088687
C94	C	1.529656	0.499715	0.588687
C95	C	0.829972	-0.000211	-0.034634
C96	C	1.329972	0.499789	0.465366
C97	C	0.828831	-0.000204	-0.112138
C98	C	1.328831	0.499796	0.387862
N99	N	0.824507	0.820610	0.093038
N100	N	1.324507	1.320610	0.593038
C101	C	0.891922	-0.000216	-0.157062
C102	C	1.391922	0.499784	0.342938
C103	C	0.890850	-0.000228	-0.229886
C104	C	1.390850	0.499772	0.270114
C105	C	0.826684	-0.000212	-0.257782
C106	C	1.326684	0.499788	0.242218
C107	C	0.763585	-0.000205	-0.212849
C108	C	1.263585	0.499795	0.287151
C109	C	0.764658	-0.000200	-0.140026
C110	C	1.264658	0.499800	0.359974
N111	N	0.777630	0.042645	-0.365789
N112	N	1.277630	0.542645	0.134211
N113	N	0.776615	0.042642	-0.434968
N114	N	1.276615	0.542642	0.065032
C115	C	0.823446	-0.000227	-0.477191
C116	C	1.323446	0.499773	0.022809
N117	N	0.871342	-0.043084	-0.447624
N118	N	1.371342	0.456916	0.052376
N119	N	0.872359	-0.043079	-0.378439
N120	N	1.372359	0.456921	0.121561
C121	C	0.825513	-0.000218	-0.336745
C122	C	1.325513	0.499782	0.163255
C123	C	0.885379	-0.000253	-0.601079
C124	C	1.385379	0.499747	-0.101079
C125	C	0.884305	-0.000270	-0.673904
C126	C	1.384305	0.499730	-0.173904
C127	C	0.757038	-0.000239	-0.656865
C128	C	1.257038	0.499761	-0.156865
C129	C	0.758114	-0.000230	-0.584042
C130	C	1.258114	0.499770	-0.084042
C131	C	0.822287	-0.000233	-0.556154
C132	C	1.322287	0.499767	-0.056154
C133	C	0.818997	-0.000244	0.220700
C134	C	1.318997	0.499756	0.720700
C135	C	0.820138	-0.000255	0.298204
C136	C	1.320138	0.499745	0.798204
H137	H	0.464982	-0.000217	0.210776
H138	H	0.964982	0.499783	0.710776
O139	O	0.191082	-0.000116	-0.034606
O140	O	0.691082	0.499884	0.465394
C141	C	0.233693	0.065085	-0.037790
C142	C	0.733693	0.565085	0.462210
H143	H	0.206889	0.110653	-0.002009
H144	H	0.706889	0.610653	0.497991
H145	H	0.242044	0.086975	-0.094058
H146	H	0.742044	0.586975	0.405942
H147	H	0.286602	0.050352	-0.019878
H148	H	0.786602	0.550352	0.480122
O149	O	0.918374	0.180161	-0.000867
O150	O	1.418374	0.680161	0.499133
C151	C	0.960423	0.232118	-0.042859
C152	C	1.460423	0.732118	0.457141
H153	H	0.931806	0.288623	-0.043573
H154	H	1.431806	0.788623	0.456427
H155	H	0.971246	0.209233	-0.098647
H156	H	1.471246	0.709233	0.401353
H157	H	1.012217	0.240509	-0.020314
H158	H	1.512217	0.740509	0.479686
O159	O	0.047380	-0.000308	-0.036684
O160	O	0.547380	0.499692	0.463316
C161	C	-0.026529	-0.000305	-0.024105
C162	C	0.473471	0.499695	0.475895
H163	H	-0.043783	-0.024146	0.030436
H164	H	0.456217	0.475854	0.530436
H165	H	-0.048745	-0.036858	-0.065148
H166	H	0.451255	0.463142	0.434852
H167	H	-0.046823	0.060090	-0.027430
H168	H	0.453177	0.560090	0.472570
O169	O	0.635139	-0.000253	-0.028037
O170	O	1.135139	0.499747	0.471963
C171	C	0.677791	-0.065459	-0.031227
C172	C	1.177791	0.434541	0.468773
H173	H	0.681314	-0.087202	0.024182
H174	H	1.181314	0.412798	0.524182
H175	H	0.732598	-0.050785	-0.057403
H176	H	1.232598	0.449215	0.442597
H177	H	0.653953	-0.111118	-0.063040
H178	H	1.153953	0.388882	0.436960
H179	H	0.910876	0.330041	0.006681
H180	H	1.410876	0.830041	0.506681
H181	H	0.495885	-0.000194	-0.020111
H182	H	0.995885	0.499806	0.479889
O183	O	0.013836	-0.000405	0.214098
O184	O	0.513836	0.499595	0.714098
C185	C	-0.028750	-0.065626	0.217290
C186	C	0.471250	0.434374	0.717290
H187	H	-0.032254	-0.087352	0.161880
H188	H	0.467746	0.412648	0.661880
H189	H	-0.083571	-0.050978	0.243468
H190	H	0.416429	0.449022	0.743468
H191	H	-0.004862	-0.111287	0.249100
H192	H	0.495138	0.388713	0.749100
H193	H	0.935683	-0.000284	-0.710481
H194	H	1.435683	0.499716	-0.210481
O195	O	0.730592	0.819580	0.186775
O196	O	1.230592	1.319580	0.686775
C197	C	0.687627	0.865436	0.149489
C198	C	1.187627	1.365436	0.649489
H199	H	0.715606	0.877308	0.094786
H200	H	1.215606	1.377308	0.594786
H201	H	0.676494	0.921160	0.178661
H202	H	1.176494	1.421160	0.678661
H203	H	0.636042	0.834922	0.144871
H204	H	1.136042	1.334922	0.644871
O205	O	0.696762	-0.000175	-0.540498
O206	O	1.196762	0.499825	-0.040498
C207	C	0.639896	-0.000182	-0.580733
C208	C	1.139896	0.499818	-0.080733
H209	H	0.657781	0.023643	-0.635146
H210	H	1.157781	0.523643	-0.135146
H211	H	0.595698	0.036382	-0.553743
H212	H	1.095698	0.536382	-0.053743
H213	H	0.620225	-0.060577	-0.585844
H214	H	1.120225	0.439423	-0.085844
H215	H	0.597091	-0.000203	0.212725
H216	H	1.097091	0.499797	0.712725
H217	H	0.738070	0.330094	0.179375
H218	H	1.238070	0.830094	0.679375
O219	O	0.701210	-0.000088	-0.239861
O220	O	1.201210	0.499912	0.260139
C221	C	0.662756	0.065132	-0.216911
C222	C	1.162756	0.565132	0.283089
H223	H	0.681625	0.086869	-0.166463
H224	H	1.181625	0.586869	0.333537
H225	H	0.604585	0.050478	-0.206623
H226	H	1.104585	0.550478	0.293377
H227	H	0.670963	0.110786	-0.259086
H228	H	1.170963	0.610786	0.240914
O229	O	0.947774	-0.000304	-0.574099
O230	O	1.447774	0.499696	-0.074099
C231	C	1.003232	-0.000309	-0.629371
C232	C	1.503232	0.499691	-0.129371
H233	H	0.983814	-0.024140	-0.678778
H234	H	1.483814	0.475860	-0.178778
H235	H	1.048047	-0.036875	-0.614279
H236	H	1.548047	0.463125	-0.114279
H237	H	1.022681	0.060083	-0.639749
H238	H	1.522681	0.560083	-0.139749
H239	H	0.153080	-0.000276	0.206181
H240	H	0.653080	0.499724	0.706181
O241	O	0.730544	0.180211	0.186919
O242	O	1.230544	0.680211	0.686919
C243	C	0.688501	0.232187	0.228916
C244	C	1.188501	0.732187	0.728916
H245	H	0.717124	0.288662	0.229635
H246	H	1.217124	0.788662	0.729635
H247	H	0.677676	0.209282	0.284702
H248	H	1.177676	0.709282	0.784702
H249	H	0.636708	0.240645	0.206372
H250	H	1.136708	0.740645	0.706372
O251	O	0.918410	0.663340	-0.000858
O252	O	1.418410	1.163340	0.499142
C253	C	0.960455	0.715294	-0.042856
C254	C	1.460455	1.215294	0.457144
H255	H	0.931837	0.771798	-0.043573
H256	H	1.431837	1.271798	0.456427
H257	H	0.971277	0.692404	-0.098642
H258	H	1.471277	1.192404	0.401358
H259	H	1.012250	0.723690	-0.020314
H260	H	1.512250	1.223690	0.479686
H261	H	0.910905	0.813222	0.006686
H262	H	1.410905	1.313222	0.506686
H263	H	0.738096	0.669505	0.179387
H264	H	1.238096	1.169505	0.679387
O265	O	0.694767	-0.000194	-0.684071
O266	O	1.194767	0.499806	-0.184071
C267	C	0.707347	-0.000224	-0.757980
C268	C	1.207347	0.499776	-0.257980
H269	H	0.761881	0.023600	-0.775254
H270	H	1.261881	0.523600	-0.275254
H271	H	0.666293	0.036330	-0.780226
H272	H	1.166293	0.536330	-0.280226
H273	H	0.704039	-0.060626	-0.778225
H274	H	1.204039	0.439374	-0.278225
H275	H	0.944176	-0.000222	-0.134360
H276	H	1.444176	0.499778	0.365640
H277	H	0.942228	-0.000241	-0.266470
H278	H	1.442228	0.499759	0.233530
O279	O	0.703415	-0.000084	-0.096312
O280	O	1.203415	0.499916	0.403688
C281	C	0.700209	0.065134	-0.053709
C282	C	1.200209	0.565134	0.446291
H283	H	0.755613	0.086862	-0.050203
H284	H	1.255613	0.586862	0.449797
H285	H	0.674038	0.050481	0.001110
H286	H	1.174038	0.550481	0.501110
H287	H	0.668385	0.110795	-0.077581
H288	H	1.168385	0.610795	0.422419
