data_functionalizedCrystal
_audit_creation_method	'MofGen! by Chris Wilmer'
_symmetry_space_group_name_H-M	'P1'
_symmetry_Int_Tables_number	1
_symmetry_cell_setting	triclinic
loop_
_symmetry_equiv_pos_as_xyz
  x,y,z
_cell_length_a	16.959455
_cell_length_b	16.120484
_cell_length_c	16.959447
_cell_angle_alpha	92.866589
_cell_angle_beta	89.983056
_cell_angle_gamma	92.922454
loop_
_atom_site_label
_atom_site_type_symbol
_atom_site_fract_x
_atom_site_fract_y
_atom_site_fract_z
Zn1	Zn	1.192415	-0.331957	-0.462851
Zn2	Zn	1.185616	-0.471385	-0.337369
Zn3	Zn	1.060236	-0.331983	-0.330690
Zn4	Zn	1.053495	-0.471323	-0.469504
O5	O	1.122941	-0.401662	-0.400103
O6	O	1.302123	-0.350467	-0.446216
O7	O	1.168959	-0.452930	-0.225873
O8	O	1.083437	-0.215314	-0.342642
O9	O	1.297128	-0.452905	-0.354025
O10	O	1.180548	-0.215295	-0.439740
O11	O	1.076844	-0.350512	-0.220967
O12	O	0.948732	-0.350452	-0.349093
O13	O	1.071948	-0.452798	-0.579231
O14	O	0.943780	-0.452824	-0.451079
O15	O	1.174012	-0.350407	-0.574343
O16	O	1.162423	-0.588042	-0.360476
O17	O	1.065355	-0.587996	-0.457556
C18	C	0.917576	-0.401634	-0.400084
C19	C	0.829719	-0.401643	-0.400095
C20	C	1.112441	-0.618269	-0.410480
C21	C	1.108022	-0.710935	-0.414945
C22	C	0.460799	-0.348313	-0.347103
C23	C	0.455682	-0.455079	-0.453153
C24	C	0.538229	-0.455067	-0.453147
C25	C	0.582064	-0.401678	-0.400118
C26	C	0.543353	-0.348301	-0.347094
C27	C	0.576946	-0.508449	-0.506165
C28	C	0.659498	-0.508440	-0.506161
C29	C	0.703334	-0.455046	-0.453135
C30	C	0.664618	-0.401666	-0.400109
C31	C	0.708453	-0.348277	-0.347080
C32	C	0.669739	-0.294893	-0.294058
C33	C	0.587190	-0.294907	-0.294068
C34	C	0.785884	-0.455032	-0.453125
C35	C	0.791007	-0.348266	-0.347071
C36	C	1.099958	-0.880595	-0.423114
C37	C	1.146065	-0.921888	-0.377106
C38	C	1.141578	-1.016293	-0.381651
C39	C	1.104444	-0.786182	-0.418570
C40	C	1.329107	-0.401690	-0.400123
C41	C	1.416963	-0.401702	-0.400132
C42	C	1.122986	-0.401593	-0.606268
C43	C	1.123006	-0.401563	-0.694124
C44	C	1.133503	-0.184209	-0.389704
C45	C	1.138003	-0.091543	-0.385272
C46	C	1.075119	-0.348151	-1.063047
C47	C	1.171040	-0.454800	-1.068144
C48	C	1.171025	-0.454819	-0.985599
C49	C	1.123056	-0.401504	-0.941774
C50	C	1.075101	-0.348170	-0.980494
C51	C	1.218973	-0.508158	-0.946873
C52	C	1.218960	-0.508180	-0.864323
C53	C	1.170994	-0.454861	-0.820496
C54	C	1.123038	-0.401524	-0.859221
C55	C	1.075069	-0.348209	-0.815396
C56	C	1.027116	-0.294868	-0.854120
C57	C	1.027136	-0.294851	-0.936667
C58	C	1.170975	-0.454878	-0.737948
C59	C	1.075051	-0.348229	-0.732844
C60	C	1.122944	-0.401671	-0.194738
C61	C	1.123089	-0.401465	-0.106872
H62	H	0.826693	-0.304784	-0.303892
C63	C	1.223218	-0.512546	-1.115760
C64	C	1.276193	-0.465338	-1.160893
C65	C	1.324279	-0.518507	-1.204763
H66	H	1.191310	-0.548875	-1.149755
H67	H	1.251823	-0.544299	-1.080902
H68	H	1.247590	-0.433599	-1.195748
H69	H	1.308117	-0.429011	-1.126918
H70	H	1.352884	-0.550260	-1.169905
H71	H	1.292365	-0.554833	-1.238754
H72	H	1.360232	-0.486484	-1.235386
C73	C	1.270975	-0.566220	-0.822392
C74	C	1.249778	-0.648701	-0.846419
C75	C	1.297687	-0.702187	-0.807817
H76	H	1.264145	-0.558710	-0.766946
H77	H	1.324688	-0.554070	-0.835368
H78	H	1.196078	-0.660847	-0.833437
H79	H	1.256612	-0.656238	-0.901859
H80	H	1.351400	-0.690036	-0.820793
H81	H	1.290853	-0.694669	-0.752372
H82	H	1.283316	-0.758155	-0.824119
C83	C	0.975085	-0.236851	-0.806630
C84	C	0.996293	-0.154359	-0.822777
C85	C	0.948373	-0.100896	-0.779049
H86	H	0.981897	-0.244395	-0.751905
H87	H	0.921377	-0.248991	-0.820752
H88	H	1.049989	-0.142224	-0.808649
H89	H	0.989478	-0.146789	-0.877493
H90	H	0.894664	-0.113036	-0.793171
H91	H	0.955188	-0.108447	-0.724327
H92	H	0.962750	-0.044920	-0.790004
H93	H	1.036080	-0.304719	-1.094579
H94	H	1.057117	-0.916142	-0.465913
C95	C	1.203107	-0.874344	-0.320046
C96	C	1.196251	-0.788803	-0.326800
C97	C	1.248772	-0.744976	-0.274242
H98	H	1.255589	-0.888403	-0.332268
H99	H	1.190893	-0.888573	-0.267584
H100	H	1.208471	-0.774579	-0.379251
H101	H	1.143781	-0.774719	-0.314572
H102	H	1.236558	-0.759206	-0.221780
H103	H	1.301250	-0.759042	-0.286468
H104	H	1.244122	-0.686932	-0.278812
C105	C	1.222974	-0.512923	-0.696011
C106	C	1.201763	-0.595400	-0.720039
C107	C	1.249656	-0.648896	-0.681431
H108	H	1.216138	-0.505411	-0.640565
H109	H	1.276691	-0.500784	-0.708981
H110	H	1.148060	-0.607534	-0.707064
H111	H	1.208603	-0.602938	-0.775479
H112	H	1.303372	-0.636758	-0.694401
H113	H	1.242816	-0.641377	-0.625987
H114	H	1.235276	-0.704862	-0.697734
C115	C	1.022830	-0.290447	-0.685311
C116	C	0.943746	-0.308597	-0.706240
C117	C	0.895617	-0.255394	-0.662463
H118	H	1.037019	-0.234399	-0.696129
H119	H	1.029630	-0.298105	-0.630595
H120	H	0.936950	-0.300932	-0.760943
H121	H	0.929533	-0.364635	-0.695420
H122	H	0.902417	-0.263052	-0.607747
H123	H	0.909813	-0.199349	-0.673283
H124	H	0.841953	-0.267707	-0.676651
H125	H	0.988094	-0.251424	-0.968204
H126	H	0.691012	-0.551909	-0.549336
C127	C	0.407955	-0.512952	-0.510689
C128	C	0.327376	-0.501526	-0.499359
C129	C	0.283383	-0.554818	-0.552357
H130	H	0.418677	-0.568985	-0.501770
H131	H	0.422042	-0.500808	-0.563252
H132	H	0.313294	-0.513676	-0.446809
H133	H	0.316630	-0.445504	-0.508284
H134	H	0.297471	-0.542673	-0.604920
H135	H	0.294112	-0.610847	-0.543434
H136	H	0.228706	-0.547067	-0.544682
C137	C	0.717477	-0.236961	-0.236571
C138	C	0.798055	-0.248372	-0.247927
C139	C	0.842058	-0.195015	-0.194993
H140	H	0.703439	-0.249038	-0.183990
H141	H	0.706713	-0.180943	-0.245552
H142	H	0.808814	-0.304378	-0.238939
H143	H	0.812116	-0.236289	-0.300496
H144	H	0.831294	-0.138996	-0.203975
H145	H	0.828014	-0.207097	-0.142415
H146	H	0.896735	-0.202744	-0.202695
H147	H	0.555661	-0.251445	-0.250899
C148	C	1.271144	-0.565907	-0.994494
C149	C	1.324124	-0.518702	-1.039624
C150	C	1.372201	-0.571874	-1.083502
H151	H	1.239231	-0.602227	-1.028491
H152	H	1.299745	-0.597669	-0.959641
H153	H	1.295526	-0.486953	-1.074474
H154	H	1.356055	-0.482384	-1.005647
H155	H	1.400803	-0.603637	-1.048648
H156	H	1.340281	-0.608192	-1.117494
H157	H	1.408159	-0.539853	-1.114122
H158	H	0.541249	-0.551922	-0.549333
C159	C	0.418624	-0.290445	-0.289572
C160	C	0.336948	-0.301889	-0.300914
C161	C	0.298071	-0.248602	-0.247925
H162	H	0.434774	-0.234410	-0.298492
H163	H	0.431498	-0.302583	-0.237007
H164	H	0.324079	-0.289745	-0.353467
H165	H	0.320775	-0.357913	-0.291988
H166	H	0.310945	-0.260741	-0.195360
H167	H	0.314227	-0.192571	-0.256850
H168	H	0.242650	-0.256365	-0.255609
H169	H	0.817401	-0.498499	-0.496292
