data_functionalizedCrystal
_audit_creation_method	'MofGen! by Chris Wilmer'
_symmetry_space_group_name_H-M	'P1'
_symmetry_Int_Tables_number	1
_symmetry_cell_setting	triclinic
loop_
_symmetry_equiv_pos_as_xyz
  x,y,z
_cell_length_a	9.065215
_cell_length_b	9.065215
_cell_length_c	7.540329
_cell_angle_alpha	90.002218
_cell_angle_beta	89.997358
_cell_angle_gamma	94.985269
loop_
_atom_site_label
_atom_site_type_symbol
_atom_site_fract_x
_atom_site_fract_y
_atom_site_fract_z
O1	O	0.216336	-1.960398	-0.147449
O2	O	0.716336	-1.460398	0.352551
O3	O	0.234086	-1.531113	-0.147459
O4	O	0.734086	-1.031113	0.352541
O5	O	0.010568	-1.754631	-0.147446
O6	O	0.510568	-1.254631	0.352554
O7	O	0.439854	-1.736880	-0.147462
O8	O	0.939854	-1.236880	0.352538
O9	O	0.010565	-1.754618	0.147519
O10	O	0.510565	-1.254618	0.647519
O11	O	0.234083	-1.531099	0.147506
O12	O	0.734083	-1.031099	0.647506
O13	O	0.216333	-1.960385	0.147516
O14	O	0.716333	-1.460385	0.647516
Cu15	Cu	0.225208	-1.745741	0.174444
Cu16	Cu	0.725208	-1.245741	0.674444
Cu17	Cu	0.225211	-1.745757	-0.174387
Cu18	Cu	0.725211	-1.245757	0.325613
O19	O	0.439851	-1.736867	0.147503
O20	O	0.939851	-1.236867	0.647503
C21	C	0.232380	-1.476120	0.000022
C22	C	0.732380	-0.976120	0.500022
C23	C	0.227282	-1.312277	0.000019
C24	C	0.727282	-0.812277	0.500019
C25	C	-0.044420	-1.752919	0.000034
C26	C	0.455580	-1.252919	0.500034
C27	C	-0.208263	-1.747821	0.000029
C28	C	0.291737	-1.247821	0.500029
C29	C	0.494839	-1.738578	0.000019
C30	C	0.994839	-1.238578	0.500019
C31	C	0.658682	-1.743676	0.000013
C32	C	1.158682	-1.243676	0.500013
C33	C	0.218039	-1.015378	0.000029
C34	C	0.718039	-0.515378	0.500029
C35	C	0.223137	-1.179221	0.000018
C36	C	0.723137	-0.679221	0.500018
N37	N	0.225205	-1.745741	0.419792
N38	N	0.725205	-1.245741	0.919792
N39	N	0.225203	-1.745769	-0.419735
N40	N	0.725203	-1.245769	0.080265
