data_functionalizedCrystal
_audit_creation_method	'MofGen! by Chris Wilmer'
_symmetry_space_group_name_H-M	'P1'
_symmetry_Int_Tables_number	1
_symmetry_cell_setting	triclinic
loop_
_symmetry_equiv_pos_as_xyz
  x,y,z
_cell_length_a	17.699097
_cell_length_b	17.699104
_cell_length_c	16.776229
_cell_angle_alpha	89.992410
_cell_angle_beta	89.989262
_cell_angle_gamma	83.289974
loop_
_atom_site_label
_atom_site_type_symbol
_atom_site_fract_x
_atom_site_fract_y
_atom_site_fract_z
O1	O	1.004079	0.095760	-0.066356
O2	O	1.504079	0.595760	0.433644
O3	O	0.783703	0.108202	-0.066343
O4	O	1.283703	0.608202	0.433657
O5	O	0.900109	-0.008207	-0.066343
O6	O	1.400109	0.491793	0.433657
O7	O	0.887673	0.212169	-0.066356
O8	O	1.387673	0.712169	0.433644
O9	O	0.900094	-0.008214	0.066234
O10	O	1.400094	0.491786	0.566234
O11	O	0.783688	0.108195	0.066233
O12	O	1.283688	0.608195	0.566233
O13	O	1.004064	0.095753	0.066220
O14	O	1.504064	0.595753	0.566220
Zn15	Zn	0.893873	0.101972	0.087276
Zn16	Zn	1.393873	0.601972	0.587276
Zn17	Zn	0.893894	0.101982	-0.087399
Zn18	Zn	1.393894	0.601982	0.412601
O19	O	0.887658	0.212161	0.066220
O20	O	1.387658	0.712161	0.566220
C21	C	0.755499	0.107751	-0.000053
C22	C	1.255499	0.607751	0.499947
C23	C	0.671481	0.106408	-0.000048
C24	C	1.171481	0.606408	0.499952
C25	C	0.155771	0.098183	-0.072347
C26	C	0.655771	0.598183	0.427653
C27	C	0.234715	0.099439	-0.072344
C28	C	0.734715	0.599439	0.427656
C29	C	0.274172	0.100064	-0.000073
C30	C	0.774172	0.600064	0.499927
C31	C	0.234683	0.099426	0.072199
C32	C	0.734683	0.599426	0.572199
C33	C	0.155741	0.098164	0.072194
C34	C	0.655741	0.598164	0.572194
C35	C	0.553047	0.104513	0.072219
C36	C	1.053047	0.604513	0.572219
C37	C	0.631994	0.105777	0.072218
C38	C	1.131994	0.605777	0.572218
C39	C	0.632021	0.105788	-0.072318
C40	C	1.132021	0.605788	0.427682
C41	C	0.553079	0.104526	-0.072323
C42	C	1.053079	0.604526	0.427677
C43	C	0.513597	0.103884	-0.000052
C44	C	1.013597	0.603884	0.499948
C45	C	0.427997	0.102520	-0.000057
C46	C	0.927997	0.602520	0.499943
C47	C	0.359770	0.101433	-0.000067
C48	C	0.859770	0.601433	0.499933
C49	C	0.899653	-0.036407	-0.000055
C50	C	1.399653	0.463593	0.499945
C51	C	0.898308	-0.120425	-0.000054
C52	C	1.398308	0.379575	0.499946
C53	C	0.959052	-0.645293	-0.000080
C54	C	1.459052	-0.145293	0.499920
C55	C	0.960311	-0.566349	-0.000073
C56	C	1.460311	-0.066349	0.499927
C57	C	0.891976	-0.517735	-0.000067
C58	C	1.391976	-0.017735	0.499933
C59	C	0.822378	-0.548068	-0.000061
C60	C	1.322378	-0.048068	0.499939
C61	C	0.821119	-0.627010	-0.000062
C62	C	1.321119	-0.127010	0.499938
C63	C	0.827451	-0.229702	-0.000054
C64	C	1.327451	0.270298	0.499946
C65	C	0.828715	-0.150754	-0.000055
C66	C	1.328715	0.349246	0.499945
C67	C	0.966642	-0.169040	-0.000066
C68	C	1.466642	0.330960	0.499934
C69	C	0.965384	-0.247983	-0.000067
C70	C	1.465384	0.252017	0.499933
C71	C	0.895786	-0.278309	-0.000056
C72	C	1.395786	0.221691	0.499944
C73	C	0.894422	-0.363909	-0.000062
C74	C	1.394422	0.136091	0.499938
C75	C	0.893340	-0.432136	-0.000067
C76	C	1.393340	0.067864	0.499933
C77	C	1.032268	0.096204	-0.000071
C78	C	1.532268	0.596204	0.499929
C79	C	1.116286	0.097546	-0.000082
C80	C	1.616286	0.597546	0.499918
C81	C	0.888114	0.240362	-0.000070
C82	C	1.388114	0.740362	0.499930
C83	C	0.889459	0.324379	-0.000076
C84	C	1.389459	0.824379	0.499924
N85	N	0.893865	0.101966	0.206487
N86	N	1.393865	0.601966	0.706487
N87	N	0.893908	0.101983	-0.206610
N88	N	1.393908	0.601983	0.293390
C89	C	0.945425	0.050441	0.248205
C90	C	1.445425	0.550441	0.748205
C91	C	0.945430	0.050440	0.331657
C92	C	1.445430	0.550440	0.831657
C93	C	0.893877	0.101969	0.373390
C94	C	1.393877	0.601969	0.873390
C95	C	0.842311	0.153496	0.331667
C96	C	1.342311	0.653496	0.831667
C97	C	0.842304	0.153492	0.248217
C98	C	1.342304	0.653492	0.748217
C99	C	0.842338	0.153511	0.668214
C100	C	1.342338	0.653511	1.168214
C101	C	0.842351	0.153512	0.751671
C102	C	1.342351	0.653512	1.251671
C103	C	0.945464	0.050459	0.751655
C104	C	1.445464	0.550459	1.251655
C105	C	0.945457	0.050455	0.668204
C106	C	1.445457	0.550455	1.168204
C107	C	0.893889	0.101979	0.626488
C108	C	1.393889	0.601979	1.126488
C109	C	0.893884	0.101978	0.536000
C110	C	1.393884	0.601978	1.036000
C111	C	0.893884	0.101974	0.463877
C112	C	1.393884	0.601974	0.963877
H113	H	0.123649	0.097679	-0.131199
H114	H	0.623649	0.597679	0.368801
H115	H	0.987413	0.008485	0.365623
H116	H	1.487413	0.508485	0.865623
N117	N	1.041712	-0.136333	-0.000063
N118	N	1.541712	0.363667	0.499937
H119	H	1.045317	-0.103977	-0.049204
H120	H	1.545317	0.396023	0.450796
H121	H	1.045257	-0.104036	0.049120
H122	H	1.545257	0.395964	0.549120
H123	H	0.987451	0.008502	0.785629
H124	H	1.487451	0.508502	1.285629
H125	H	0.664119	0.106286	0.131074
H126	H	1.164119	0.606286	0.631074
N127	N	0.674602	0.106472	-0.150274
N128	N	1.174602	0.606472	0.349726
H129	H	0.701141	0.153893	-0.153497
H130	H	1.201141	0.653893	0.346503
H131	H	0.713532	0.060063	-0.153449
H132	H	1.213532	0.560063	0.346551
H133	H	0.764450	-0.651702	-0.000052
H134	H	1.264450	-0.151702	0.499948
H135	H	0.987439	0.008499	0.634227
H136	H	1.487439	0.508499	1.134227
H137	H	0.266860	0.099952	-0.131190
H138	H	0.766860	0.599952	0.368810
N139	N	0.786724	0.209092	0.623239
N140	N	1.286724	0.709092	1.123239
H141	H	0.815577	0.242570	0.588599
H142	H	1.315577	0.742570	1.088599
H143	H	0.753269	0.180160	0.588678
H144	H	1.253269	0.680160	1.088678
H145	H	0.520912	0.103979	0.131067
H146	H	1.020912	0.603979	0.631067
H147	H	0.520956	0.104021	-0.131173
H148	H	1.020956	0.604021	0.368827
N149	N	0.277236	0.100098	0.150150
N150	N	0.777236	0.600098	0.650150
H151	H	0.333237	0.100997	0.139188
H152	H	0.833237	0.600997	0.639188
H153	H	0.257210	0.146776	0.181703
H154	H	0.757210	0.646776	0.681703
N155	N	0.786740	0.209086	0.796686
N156	N	1.286740	0.709086	1.296686
H157	H	0.754068	0.241724	0.757598
H158	H	1.254068	0.741724	1.257598
H159	H	0.753347	0.180142	0.831326
H160	H	1.253347	0.680142	1.331326
N161	N	0.113153	0.097473	0.150139
N162	N	0.613153	0.597473	0.650139
H163	H	0.150196	0.097530	0.195920
H164	H	0.650196	0.597530	0.695920
H165	H	0.074540	0.144118	0.153528
H166	H	0.574540	0.644118	0.653528
H167	H	1.014698	-0.684870	-0.000092
H168	H	1.514698	-0.184870	0.499908
N169	N	0.786701	0.209069	0.376675
N170	N	1.286701	0.709069	0.876675
H171	H	0.794529	0.201255	0.435871
H172	H	1.294529	0.701255	0.935871
H173	H	0.795342	0.262751	0.362074
H174	H	1.295342	0.762751	0.862074
H175	H	1.016980	-0.541660	-0.000076
H176	H	1.516980	-0.041660	0.499924
H177	H	1.021029	-0.287561	-0.000076
H178	H	1.521029	0.212439	0.499924
N179	N	0.755008	-0.098317	-0.000049
N180	N	1.255008	0.401683	0.499951
H181	H	0.710726	-0.129507	-0.000040
H182	H	1.210726	0.370493	0.499960
H183	H	0.752527	-0.065170	0.049098
H184	H	1.252527	0.434830	0.549098
N185	N	0.752388	-0.262405	-0.000031
N186	N	1.252388	0.237595	0.499969
H187	H	0.709292	-0.219628	-0.000026
H188	H	1.209292	0.280372	0.499974
H189	H	0.748857	-0.294760	-0.049173
H190	H	1.248857	0.205240	0.450827
N191	N	0.748672	-0.495638	-0.000031
N192	N	1.248672	0.004362	0.499969
H193	H	0.760028	-0.441026	-0.000028
H194	H	1.260028	0.058974	0.499972
H195	H	0.718329	-0.505432	-0.049171
H196	H	1.218329	-0.005432	0.450829
H197	H	0.987409	0.008484	0.214231
H198	H	1.487409	0.508484	0.714231
H199	H	0.800317	0.195448	0.214251
H200	H	1.300317	0.695448	0.714251
