data_functionalizedCrystal
_audit_creation_method	'MofGen! by Chris Wilmer'
_symmetry_space_group_name_H-M	'P1'
_symmetry_Int_Tables_number	1
_symmetry_cell_setting	triclinic
loop_
_symmetry_equiv_pos_as_xyz
  x,y,z
_cell_length_a	10.540539
_cell_length_b	27.732048
_cell_length_c	9.616153
_cell_angle_alpha	89.992780
_cell_angle_beta	89.995174
_cell_angle_gamma	83.584073
loop_
_atom_site_label
_atom_site_type_symbol
_atom_site_fract_x
_atom_site_fract_y
_atom_site_fract_z
O1	O	1.682934	0.068112	-0.115597
O2	O	1.313243	0.074530	-0.115616
O3	O	1.509570	0.000996	-0.115579
O4	O	1.486607	0.141645	-0.115634
O5	O	1.509544	0.000998	0.115712
O6	O	1.313216	0.074531	0.115676
O7	O	1.682908	0.068113	0.115694
Zn8	Zn	1.498058	0.071323	0.152407
Zn9	Zn	1.498093	0.071320	-0.152329
O10	O	1.486580	0.141647	0.115658
C11	C	1.265947	0.074049	0.000028
C12	C	1.125062	0.072609	0.000022
C13	C	0.944031	0.017434	0.000583
C14	C	1.090586	0.018894	0.000047
C15	C	1.062282	0.098458	-0.132062
C16	C	0.915817	0.096625	-0.132157
C17	C	0.915251	0.097720	0.130864
C18	C	1.062211	0.098214	0.132595
C19	C	1.509075	-0.017013	0.000070
C20	C	1.507623	-0.070677	0.000081
C21	C	1.614502	-0.408819	0.000015
C22	C	1.609117	-0.610513	-0.000004
O23	O	1.706850	-0.641153	-0.000060
N24	N	1.492703	-0.630369	-0.000009
C25	C	1.377627	-0.599799	-0.000018
O26	O	1.278486	-0.621317	-0.000036
C27	C	1.383013	-0.398107	-0.000008
C28	C	1.499435	-0.378253	0.000011
C29	C	1.730915	-0.388965	0.000033
C30	C	1.732260	-0.338544	0.000045
C31	C	1.617193	-0.307978	0.000040
C32	C	1.500780	-0.327832	0.000023
C33	C	1.267939	-0.367538	-0.000027
C34	C	1.269296	-0.317112	-0.000028
C35	C	1.385718	-0.297258	-0.000009
C36	C	1.387058	-0.246846	0.000031
N37	N	1.503472	-0.226989	0.000036
C38	C	1.618540	-0.257555	0.000040
C39	C	1.374807	-0.705691	-0.000020
C40	C	1.373460	-0.756114	-0.000020
C41	C	1.604950	-0.766824	-0.000009
C42	C	1.606296	-0.716400	0.000001
C43	C	1.491221	-0.685834	-0.000015
C44	C	1.621356	-0.151668	0.000068
C45	C	1.622691	-0.101243	0.000086
C46	C	1.391201	-0.090538	0.000068
C47	C	1.389865	-0.140959	0.000057
C48	C	1.504953	-0.171523	0.000052
O49	O	1.289377	-0.216177	0.000071
O50	O	1.717666	-0.236029	0.000028
C51	C	1.613157	-0.459239	0.000003
C52	C	1.496745	-0.479094	-0.000014
C53	C	1.381678	-0.448528	-0.000019
C54	C	1.495398	-0.529517	-0.000014
C55	C	1.610465	-0.560083	-0.000009
C56	C	1.726879	-0.540226	-0.000005
C57	C	1.728224	-0.489806	0.000008
C58	C	1.265264	-0.468384	-0.000023
C59	C	1.263928	-0.518805	-0.000034
C60	C	1.378995	-0.549371	-0.000030
C61	C	1.730203	0.068594	0.000048
C62	C	1.871089	0.070034	0.000044
C63	C	1.487075	0.159656	0.000005
C64	C	1.488527	0.213320	-0.000015
N65	N	1.498043	0.071324	0.360382
N66	N	1.498118	0.071316	-0.360303
C67	C	1.392711	0.110527	0.580733
C68	C	1.392932	0.110674	0.419565
C69	C	1.630268	0.082797	0.418833
C70	C	1.629691	0.083074	0.580051
C71	C	1.472477	0.020519	0.580311
C72	C	1.469416	0.020848	0.419084
H73	H	1.103982	0.079331	0.230310
H74	H	1.084736	0.137377	0.140555
C75	C	1.259469	0.101352	0.633173
H76	H	1.266924	0.073528	0.691505
H77	H	1.206372	0.096117	0.556064
H78	H	1.222915	0.128751	0.684338
H79	H	0.914752	-0.003698	-0.093599
C80	C	1.860324	-0.316711	0.000039
H81	H	1.928652	-0.342143	0.000024
H82	H	1.865674	-0.297267	0.080691
H83	H	1.865668	-0.297263	-0.080632
H84	H	1.717499	-0.085081	0.000105
C85	C	1.345113	0.005774	0.635287
H86	H	1.331468	-0.024977	0.598206
H87	H	1.277297	0.029284	0.607681
H88	H	1.348009	0.003912	0.733902
C89	C	0.873642	0.074239	0.266115
H90	H	0.828946	0.047327	0.244061
H91	H	0.819407	0.097376	0.317672
H92	H	0.946913	0.063515	0.320040
H93	H	0.866339	0.136518	0.131741
H94	H	1.082922	0.137906	-0.136991
C95	C	1.149347	-0.008587	0.127942
H96	H	1.239198	-0.007729	0.127786
H97	H	1.131048	-0.041340	0.124682
H98	H	1.114053	0.006360	0.210267
C99	C	1.747949	-0.185282	0.000074
H100	H	1.817464	-0.166230	0.000099
H101	H	1.752263	-0.205172	-0.080582
H102	H	1.752227	-0.205178	0.080741
C103	C	1.857500	-0.422580	0.000049
H104	H	1.927012	-0.403527	0.000070
H105	H	1.861819	-0.442473	-0.080601
H106	H	1.861778	-0.442473	0.080722
C107	C	1.734358	-0.694565	0.000008
H108	H	1.802689	-0.719995	0.000004
H109	H	1.739694	-0.675120	0.080661
H110	H	1.739709	-0.675117	-0.080662
H111	H	1.698643	-0.791720	-0.000005
H112	H	0.916356	-0.003786	0.095309
H113	H	1.175585	-0.292227	-0.000043
C114	C	1.148204	-0.008772	-0.128069
H115	H	1.082028	-0.020944	-0.179998
H116	H	1.207798	-0.035018	-0.098615
H117	H	1.190315	0.012583	-0.184657
H118	H	1.278658	-0.772274	-0.000011
H119	H	0.888448	0.077519	-0.230876
C120	C	1.248215	-0.672075	-0.000019
H121	H	1.178701	-0.691127	-0.000006
H122	H	1.243919	-0.652176	-0.080671
H123	H	1.243920	-0.652188	0.080652
H124	H	0.866171	0.135257	-0.138167
H125	H	1.408751	0.148000	0.621218
H126	H	1.173136	-0.383693	-0.000050
H127	H	1.409195	0.148361	0.380972
H128	H	1.541271	-0.009733	0.378804
C129	C	1.660401	0.133139	0.630819
H130	H	1.673105	0.153118	0.552915
H131	H	1.735717	0.129326	0.685814
H132	H	1.591304	0.147866	0.685029
H133	H	1.372155	0.012152	0.380883
H134	H	1.710524	0.055665	0.619053
H135	H	1.549356	-0.008666	0.618442
H136	H	1.710529	0.055017	0.380494
H137	H	1.653575	0.119438	0.378430
C138	C	1.261805	-0.162799	0.000033
H139	H	1.193470	-0.137371	0.000023
H140	H	1.256446	-0.182256	0.080674
H141	H	1.256488	-0.182236	-0.080649
C142	C	1.120867	0.074198	-0.264840
H143	H	1.183569	0.048320	-0.240065
H144	H	1.159432	0.097416	-0.318290
H145	H	1.055736	0.061881	-0.318069
C146	C	1.853450	-0.573855	-0.000010
H147	H	1.835962	-0.606727	-0.000032
H148	H	1.901232	-0.567802	0.080644
H149	H	1.901228	-0.567788	-0.080679
H150	H	1.297516	-0.065642	0.000069
C151	C	1.135855	-0.540639	-0.000059
H152	H	1.067525	-0.515209	-0.000075
H153	H	1.130490	-0.560093	0.080585
H154	H	1.130534	-0.560077	-0.080738
H155	H	1.171560	-0.443502	-0.000030
C156	C	1.260112	0.101358	0.366173
H157	H	1.205530	0.097451	0.443015
H158	H	1.267634	0.072744	0.311110
H159	H	1.225213	0.128141	0.311477
H160	H	1.823027	-0.473646	0.000022
