data_functionalizedCrystal
_audit_creation_method	'MofGen! by Chris Wilmer'
_symmetry_space_group_name_H-M	'P1'
_symmetry_Int_Tables_number	1
_symmetry_cell_setting	triclinic
loop_
_symmetry_equiv_pos_as_xyz
  x,y,z
_cell_length_a	19.188929
_cell_length_b	8.559649
_cell_length_c	7.088929
_cell_angle_alpha	95.324505
_cell_angle_beta	96.224189
_cell_angle_gamma	103.538276
loop_
_atom_site_label
_atom_site_type_symbol
_atom_site_fract_x
_atom_site_fract_y
_atom_site_fract_z
O1	O	0.015636	2.103837	-0.158963
O2	O	-0.020437	1.638377	-0.159007
O3	O	0.099964	1.884551	-0.158865
O4	O	-0.104764	1.857662	-0.159104
O5	O	0.116086	1.917450	0.159129
O6	O	-0.004314	1.671276	0.158987
O7	O	0.031759	2.136736	0.159031
Cu8	Cu	0.015194	1.907010	0.188045
Cu9	Cu	-0.003873	1.868103	-0.188020
O10	O	-0.088642	1.890561	0.158890
C11	C	-0.015110	1.595277	-0.000013
C12	C	-0.023247	1.417839	-0.000024
C13	C	-0.122670	1.874979	-0.000138
C14	C	-0.200043	1.877581	-0.000228
C15	C	-0.252518	1.733145	-0.000203
C16	C	-0.325211	1.735603	-0.000160
C17	C	-0.345424	1.882509	-0.000103
C18	C	-0.292939	2.026963	-0.000139
C19	C	-0.220248	2.024499	-0.000202
N20	N	-0.442028	2.006005	0.108248
N21	N	-0.511081	2.008336	0.108312
C22	C	-0.564435	1.889941	0.000081
N23	N	-0.546128	1.769105	-0.108191
N24	N	-0.477068	1.766769	-0.108246
C25	C	-0.424243	1.885197	-0.000037
C26	C	-0.695734	1.748160	0.000151
C27	C	-0.768428	1.750623	0.000182
C28	C	-0.736153	2.041989	0.000222
C29	C	-0.663462	2.039520	0.000172
C30	C	-0.643256	1.892602	0.000145
C31	C	0.133992	1.900133	0.000158
C32	C	0.211364	1.897530	0.000236
C33	C	0.026431	2.179835	0.000033
C34	C	0.034568	2.357272	0.000031
N35	N	0.028606	1.934386	0.452548
N36	N	-0.017278	1.840739	-0.452524
H37	H	-0.078972	1.333944	-0.000107
O38	O	0.101005	1.457590	0.000203
C39	C	0.094616	1.618365	0.000169
H40	H	0.043128	1.630439	0.060313
H41	H	0.143465	1.703831	0.092550
H42	H	0.092090	1.650831	-0.152377
H43	H	-0.367944	1.617982	-0.000135
O44	O	-0.233020	1.590283	-0.000329
C45	C	-0.294927	1.463331	-0.000248
H46	H	-0.345081	1.501569	-0.060401
H47	H	-0.289918	1.351178	-0.092598
H48	H	-0.299842	1.434589	0.152313
O49	O	-0.312672	2.169541	-0.000336
C50	C	-0.362136	2.162655	-0.165011
H51	H	-0.389833	2.030860	-0.219920
H52	H	-0.404535	2.229874	-0.127916
H53	H	-0.332039	2.221664	-0.280354
O54	O	-0.169357	2.164968	-0.000131
C55	C	-0.202783	2.295159	-0.000131
H56	H	-0.256263	2.260440	0.060104
H57	H	-0.165790	2.405884	0.092188
H58	H	-0.213324	2.324429	-0.152678
O59	O	-0.676230	1.605300	0.000010
C60	C	-0.738137	1.478341	0.000064
H61	H	-0.788291	1.516581	-0.060087
H62	H	-0.733124	1.366199	-0.092299
H63	H	-0.743056	1.449580	0.152618
O64	O	-0.755898	2.184564	0.000355
C65	C	-0.831313	2.155764	0.000355
H66	H	-0.852041	2.037134	0.060556
H67	H	-0.843930	2.259292	0.092704
H68	H	-0.858950	2.147581	-0.152188
O69	O	-0.074088	1.725110	0.450106
C70	C	-0.139355	1.755810	0.498835
H71	H	-0.130013	1.889466	0.553972
H72	H	-0.182021	1.723739	0.367063
H73	H	-0.158806	1.679050	0.614871
O74	O	0.085418	2.050097	0.549807
C75	C	0.150685	2.019343	0.501154
H76	H	0.139955	1.942775	0.355769
H77	H	0.191227	2.138957	0.494533
H78	H	0.173648	1.951432	0.613815
H79	H	-0.620734	2.157137	0.000163
H80	H	-0.811155	1.632999	0.000190
