data_functionalizedCrystal
_audit_creation_method	'MofGen! by Chris Wilmer'
_symmetry_space_group_name_H-M	'P1'
_symmetry_Int_Tables_number	1
_symmetry_cell_setting	triclinic
loop_
_symmetry_equiv_pos_as_xyz
  x,y,z
_cell_length_a	6.817900
_cell_length_b	7.190339
_cell_length_c	16.015572
_cell_angle_alpha	105.330841
_cell_angle_beta	75.514446
_cell_angle_gamma	119.388276
loop_
_atom_site_label
_atom_site_type_symbol
_atom_site_fract_x
_atom_site_fract_y
_atom_site_fract_z
V1	V	4.017076	0.086165	-0.269215
O2	O	3.914879	-0.219621	-0.264719
O3	O	4.055117	0.378093	-0.266768
O4	O	3.925007	-0.009710	-0.386905
O5	O	4.045890	0.170865	-0.143751
V6	V	4.495162	0.060761	-0.254282
O7	O	4.290262	0.141891	-0.301971
O8	O	4.672174	0.005036	-0.221525
O9	O	4.233915	-0.231166	-0.256728
O10	O	4.714756	0.366548	-0.258777
O11	O	4.583745	-0.023939	-0.379745
O12	O	4.364025	0.156636	-0.136592
C13	C	3.756590	-0.042470	-0.415610
C14	C	3.763169	-0.118926	-0.511818
C15	C	3.922575	0.452212	-0.262369
C16	C	4.036781	0.694731	-0.261132
C17	C	4.252747	0.559701	-0.888047
C18	C	4.258913	0.487789	-0.978445
C19	C	4.071760	0.115741	-0.954508
C20	C	4.065568	0.187622	-0.864105
C21	C	4.156068	0.409604	-0.830883
C22	C	3.968889	0.037525	-0.806941
C23	C	3.962709	0.109401	-0.716547
C24	C	4.053208	0.331374	-0.683317
C25	C	4.149888	0.481480	-0.740488
C26	C	3.878404	-0.184456	-0.840167
C27	C	3.781725	-0.334553	-0.783003
C28	C	3.775529	-0.262679	-0.692606
C29	C	3.866028	-0.040705	-0.659376
C30	C	3.678849	-0.412785	-0.635435
C31	C	3.672668	-0.340908	-0.545041
C32	C	3.859848	0.031171	-0.568982
C33	C	4.195788	0.189407	-0.107882
C34	C	4.168445	0.265853	-0.011673
H35	H	4.048177	0.389892	-0.609712
H36	H	3.708052	-0.515292	-0.810066
H37	H	4.326414	0.740460	-0.860994
O38	O	3.947038	0.246779	-0.536686
C39	C	3.830473	0.335046	-0.561874
H40	H	3.750658	0.227756	-0.622821
H41	H	3.955113	0.504576	-0.576676
H42	H	3.691395	0.344183	-0.506494
H43	H	4.337637	0.610033	-1.024986
O44	O	3.983861	-0.099810	-0.986928
C45	C	4.010102	-0.131068	-1.078972
H46	H	4.027596	0.016486	-1.100086
H47	H	3.854850	-0.281049	-1.103351
H48	H	4.169071	-0.153919	-1.107907
H49	H	4.223555	0.662239	-0.713436
O50	O	3.591303	-0.628341	-0.667827
C51	C	3.763827	-0.674151	-0.723534
H52	H	3.904188	-0.521090	-0.748848
H53	H	3.689340	-0.804971	-0.781104
H54	H	3.837458	-0.733438	-0.685699
H55	H	3.883410	-0.242972	-0.913771
H56	H	3.593944	-0.463133	-0.498496
