data_functionalizedCrystal
_audit_creation_method	'MofGen! by Chris Wilmer'
_symmetry_space_group_name_H-M	'P1'
_symmetry_Int_Tables_number	1
_symmetry_cell_setting	triclinic
loop_
_symmetry_equiv_pos_as_xyz
  x,y,z
_cell_length_a	12.827893
_cell_length_b	16.625545
_cell_length_c	12.827885
_cell_angle_alpha	90.032834
_cell_angle_beta	90.019272
_cell_angle_gamma	90.025528
loop_
_atom_site_label
_atom_site_type_symbol
_atom_site_fract_x
_atom_site_fract_y
_atom_site_fract_z
Zn1	Zn	1.597596	-0.320963	0.590827
Zn2	Zn	2.097596	0.179037	1.090827
Zn3	Zn	1.597459	-0.455817	0.416078
Zn4	Zn	2.097459	0.044183	0.916078
Zn5	Zn	1.422837	-0.321002	0.416100
Zn6	Zn	1.922837	0.178998	0.916100
Zn7	Zn	1.422791	-0.455757	0.590777
Zn8	Zn	1.922791	0.044243	1.090777
O9	O	1.510171	-0.388385	0.503445
O10	O	2.010171	0.111615	1.003445
O11	O	1.743814	-0.338861	0.567657
O12	O	2.243814	0.161139	1.067657
O13	O	1.574257	-0.437976	0.269844
O14	O	2.074257	0.062024	0.769844
O15	O	1.446096	-0.208165	0.439308
O16	O	1.946096	0.291835	0.939308
O17	O	1.743713	-0.437937	0.439269
O18	O	2.243713	0.062063	0.939269
O19	O	1.574490	-0.208136	0.567679
O20	O	2.074490	0.291864	1.067679
O21	O	1.445963	-0.338928	0.269861
O22	O	1.945963	0.161072	0.769861
O23	O	1.276595	-0.338869	0.439260
O24	O	1.776595	0.161131	0.939260
O25	O	1.446018	-0.437835	0.737020
O26	O	1.946018	0.062165	1.237020
O27	O	1.276562	-0.437873	0.567595
O28	O	1.776562	0.062127	1.067595
O29	O	1.574446	-0.338802	0.737056
O30	O	2.074446	0.161198	1.237056
O31	O	1.574212	-0.568642	0.439222
O32	O	2.074212	-0.068642	0.939222
O33	O	1.445885	-0.568598	0.567573
O34	O	1.945885	-0.068598	1.067573
C35	C	1.238661	-0.388370	0.503426
C36	C	1.738661	0.111630	1.003426
C37	C	1.122508	-0.388382	0.503442
C38	C	1.622508	0.111618	1.003442
C39	C	1.070734	-0.437449	0.566848
C40	C	1.570734	0.062551	1.066848
C41	C	0.950684	-0.437464	0.566866
C42	C	1.450684	0.062536	1.066866
C43	C	1.510057	-0.597876	0.503413
C44	C	2.010057	-0.097876	1.003413
C45	C	1.510104	-0.687497	0.503433
C46	C	2.010104	-0.187497	1.003433
C47	C	1.510145	-0.760280	0.503454
C48	C	2.010145	-0.260280	1.003454
C49	C	1.510206	-0.851588	0.503477
C50	C	2.010206	-0.351588	1.003477
C51	C	1.510260	-0.924364	0.503490
C52	C	2.010260	-0.424364	1.003490
C53	C	1.510320	-1.015679	0.503512
C54	C	2.010320	-0.515679	1.003512
C55	C	1.782741	-0.388401	0.503466
C56	C	2.282741	0.111599	1.003466
C57	C	1.898894	-0.388408	0.503475
C58	C	2.398894	0.111592	1.003475
C59	C	1.510242	-0.388308	0.776016
C60	C	2.010242	0.111692	1.276016
C61	C	1.510272	-0.388275	0.892169
C62	C	2.010272	0.111725	1.392169
C63	C	1.510313	-0.178076	0.503501
C64	C	2.010313	0.321924	1.003501
C65	C	1.510374	-0.088455	0.503525
C66	C	2.010374	0.411545	1.003525
C67	C	1.510160	-0.388404	0.231935
C68	C	2.010160	0.111596	0.731935
C69	C	1.510332	-0.388210	0.115783
C70	C	2.010332	0.111790	0.615783
C71	C	1.573829	-0.339261	0.943972
C72	C	2.073829	0.160739	1.443972
C73	C	1.573862	-0.339225	1.064022
C74	C	2.073862	0.160775	1.564022
H75	H	0.943412	-0.346401	0.449184
H76	H	1.443412	0.153599	0.949184
C77	C	1.646528	-0.283385	0.884748
C78	C	2.146528	0.216615	1.384748
C79	C	1.749940	-0.300910	0.911245
C80	C	2.249940	0.199090	1.411245
C81	C	1.816940	-0.249446	0.856724
C82	C	2.316940	0.250554	1.356724
H83	H	1.637010	-0.290788	0.811933
H84	H	2.137010	0.209212	1.311933
H85	H	1.631355	-0.229178	0.902621
H86	H	2.131355	0.270822	1.402621
H87	H	1.765107	-0.355105	0.893364
H88	H	2.265107	0.144895	1.393364
H89	H	1.759490	-0.293503	0.984050
H90	H	2.259490	0.206497	1.484050
H91	H	1.801767	-0.195238	0.874597
H92	H	2.301767	0.304762	1.374597
H93	H	1.807414	-0.256852	0.783912
H94	H	2.307414	0.243148	1.283912
H95	H	1.887112	-0.261324	0.874702
H96	H	2.387112	0.238676	1.374702
C97	C	1.437631	-0.444228	0.951341
C98	C	1.937631	0.055772	1.451341
C99	C	1.378972	-0.489440	0.880284
C100	C	1.878972	0.010560	1.380284
C101	C	1.312032	-0.540986	0.934751
C102	C	1.812032	-0.040986	1.434751
H103	H	1.477516	-0.479390	0.993919
H104	H	1.977516	0.020610	1.493919
H105	H	1.392112	-0.413356	0.993901
H106	H	1.892112	0.086644	1.493901
H107	H	1.424485	-0.520309	0.837742
H108	H	1.924485	-0.020309	1.337742
H109	H	1.339065	-0.454299	0.837703
H110	H	1.839065	0.045701	1.337703
H111	H	1.266513	-0.510115	0.977311
H112	H	1.766513	-0.010115	1.477311
H113	H	1.351926	-0.576143	0.977328
H114	H	1.851926	-0.076143	1.477328
H115	H	1.272217	-0.571663	0.886548
H116	H	1.772217	-0.071663	1.386548
H117	H	0.906159	-0.479474	0.621147
H118	H	1.406159	0.020526	1.121147
H119	H	1.077956	-0.346382	0.449175
H120	H	1.577956	0.153618	0.949175
C121	C	1.129939	-0.493481	0.639334
C122	C	1.629939	0.006519	1.139334
C123	C	1.058908	-0.538737	0.697852
C124	C	1.558908	-0.038737	1.197852
C125	C	1.113406	-0.590355	0.764650
C126	C	1.613406	-0.090355	1.264650
H127	H	1.172492	-0.528613	0.599353
H128	H	1.672492	-0.028613	1.099353
H129	H	1.172526	-0.462659	0.684948
H130	H	1.672526	0.037341	1.184948
H131	H	1.016338	-0.569556	0.652244
H132	H	1.516338	-0.069556	1.152244
H133	H	1.016353	-0.503626	0.737855
H134	H	1.516353	-0.003626	1.237855
H135	H	1.155994	-0.559533	0.810264
H136	H	1.655994	-0.059533	1.310264
H137	H	1.155957	-0.625481	0.724660
H138	H	1.655957	-0.125481	1.224660
H139	H	1.065221	-0.621061	0.804369
H140	H	1.565221	-0.121061	1.304369
H141	H	1.628279	-0.297265	1.108571
H142	H	2.128279	0.202735	1.608571
H143	H	1.455920	-0.430178	1.071241
H144	H	1.955920	0.069822	1.571241
