data_functionalizedCrystal
_audit_creation_method	'MofGen! by Chris Wilmer'
_symmetry_space_group_name_H-M	'P1'
_symmetry_Int_Tables_number	1
_symmetry_cell_setting	triclinic
loop_
_symmetry_equiv_pos_as_xyz
  x,y,z
_cell_length_a	12.594517
_cell_length_b	11.169416
_cell_length_c	11.169409
_cell_angle_alpha	89.969126
_cell_angle_beta	90.023484
_cell_angle_gamma	89.989860
loop_
_atom_site_label
_atom_site_type_symbol
_atom_site_fract_x
_atom_site_fract_y
_atom_site_fract_z
Zn1	Zn	1.627332	0.477716	0.678672
Zn2	Zn	2.127332	0.977716	1.178672
Zn3	Zn	1.627234	0.678457	0.477994
Zn4	Zn	2.127234	1.178457	0.977994
Zn5	Zn	1.449329	0.477786	0.477994
Zn6	Zn	1.949329	0.977786	0.977994
Zn7	Zn	1.449336	0.678355	0.678626
Zn8	Zn	1.949336	1.178355	1.178626
O9	O	1.538308	0.578079	0.578322
O10	O	2.038308	1.078079	1.078322
O11	O	1.776265	0.504358	0.652071
O12	O	2.276265	1.004358	1.152071
O13	O	1.603590	0.651909	0.310044
O14	O	2.103590	1.151909	0.810044
O15	O	1.472980	0.309827	0.504633
O16	O	1.972980	0.809827	1.004633
O17	O	1.776193	0.651842	0.504634
O18	O	2.276193	1.151842	1.004634
O19	O	1.603758	0.309776	0.652071
O20	O	2.103758	0.809776	1.152071
O21	O	1.472885	0.504477	0.310044
O22	O	1.972885	1.004477	0.810044
O23	O	1.300384	0.504378	0.504589
O24	O	1.800384	1.004378	1.004589
O25	O	1.472991	0.651669	0.846582
O26	O	1.972991	1.151669	1.346582
O27	O	1.300389	0.651736	0.651992
O28	O	1.800389	1.151736	1.151992
O29	O	1.603764	0.504260	0.846616
O30	O	2.103764	1.004260	1.346616
O31	O	1.603597	0.846393	0.504589
O32	O	2.103597	1.346393	1.004589
O33	O	1.472896	0.846319	0.651993
O34	O	1.972896	1.346319	1.151993
C35	C	1.261767	0.578054	0.578286
C36	C	1.761767	1.078054	1.078286
C37	C	1.143461	0.578073	0.578300
C38	C	1.643461	1.078073	1.078300
C39	C	1.538265	0.889903	0.578312
C40	C	2.038265	1.389903	1.078312
C41	C	1.538345	1.023303	0.578349
C42	C	2.038345	1.523303	1.078349
C43	C	1.538389	0.577945	0.891364
C44	C	2.038389	1.077945	1.391364
C45	C	1.538424	0.577888	1.024764
C46	C	2.038424	1.077888	1.524764
C47	C	1.074175	0.497816	0.498279
C48	C	1.574175	0.997816	0.998279
C49	C	1.003372	0.607295	0.468764
C50	C	1.503372	1.107295	0.968764
C51	C	1.003465	0.468648	0.607835
C52	C	1.503465	0.968648	1.107835
C53	C	1.074217	0.687609	0.548727
C54	C	1.574217	1.187609	1.048727
C55	C	1.074316	0.548889	0.687849
C56	C	1.574316	1.048889	1.187849
C57	C	1.003545	0.658443	0.658375
C58	C	1.503545	1.158443	1.158375
C59	C	1.815928	0.578104	0.578358
C60	C	2.315928	1.078104	1.078358
C61	C	1.934234	0.578114	0.578373
C62	C	2.434234	1.078114	1.078373
C63	C	1.538379	0.265036	0.578357
C64	C	2.038379	0.765036	1.078357
C65	C	1.538409	0.131636	0.578372
C66	C	2.038409	0.631636	1.078372
C67	C	1.538287	0.578125	0.266497
C68	C	2.038287	1.078125	0.766497
C69	C	1.538459	0.577843	0.133097
C70	C	2.038459	1.077843	0.633097
H71	H	1.105187	0.430011	0.430526
H72	H	1.605187	0.930011	0.930526
H73	H	1.105501	0.524145	0.780434
H74	H	1.605501	1.024145	1.280434
C75	C	0.961483	0.343607	0.641549
C76	C	1.461483	0.843607	1.141549
N77	N	0.929867	0.249424	0.666934
N78	N	1.429867	0.749424	1.166934
C79	C	0.961900	0.750262	0.749832
C80	C	1.461900	1.250262	1.249832
N81	N	0.930528	0.819424	0.818710
N82	N	1.430528	1.319424	1.318710
H83	H	0.972212	0.632005	0.376152
H84	H	1.472212	1.132005	0.876152
H85	H	1.105166	0.780194	0.523673
H86	H	1.605166	1.280194	1.023673
