data_functionalizedCrystal
_audit_creation_method	'MofGen! by Chris Wilmer'
_symmetry_space_group_name_H-M	'P1'
_symmetry_Int_Tables_number	1
_symmetry_cell_setting	triclinic
loop_
_symmetry_equiv_pos_as_xyz
  x,y,z
_cell_length_a	9.065215
_cell_length_b	19.188924
_cell_length_c	8.140239
_cell_angle_alpha	89.994423
_cell_angle_beta	89.997810
_cell_angle_gamma	84.078331
loop_
_atom_site_label
_atom_site_type_symbol
_atom_site_fract_x
_atom_site_fract_y
_atom_site_fract_z
O1	O	1.956844	0.102360	-0.136603
O2	O	1.527267	0.110759	-0.136611
O3	O	1.754457	0.005000	-0.136588
O4	O	1.729653	0.208119	-0.136627
O5	O	1.754445	0.004999	0.136639
O6	O	1.527254	0.110758	0.136616
O7	O	1.956831	0.102359	0.136624
Zn8	Zn	1.742041	0.106558	0.180000
Zn9	Zn	1.742057	0.106560	-0.179988
O10	O	1.729641	0.208118	0.136600
C11	C	1.472302	0.109952	0.000001
C12	C	1.308542	0.107540	-0.000001
C13	C	1.753649	-0.021018	0.000027
C14	C	1.751243	-0.098542	0.000032
C15	C	1.750127	-0.134948	-0.148905
C16	C	1.747845	-0.207789	-0.148917
C17	C	1.746710	-0.244221	0.000015
C18	C	1.747818	-0.207805	0.148971
C19	C	1.750084	-0.134965	0.148979
N20	N	1.827096	-0.363261	0.110863
N21	N	1.824945	-0.432456	0.110845
C22	C	1.739876	-0.463683	-0.000001
N23	N	1.657057	-0.423103	-0.110854
N24	N	1.659214	-0.353902	-0.110840
C25	C	1.744251	-0.323204	0.000023
C26	C	1.736284	-0.579072	-0.148961
C27	C	1.733993	-0.651913	-0.148968
C28	C	1.733980	-0.651929	0.148925
C29	C	1.736256	-0.579088	0.148927
C30	C	1.737415	-0.542665	-0.000020
C31	C	2.011796	0.103166	0.000007
C32	C	2.175556	0.105578	-0.000001
C33	C	1.730449	0.234136	-0.000018
C34	C	1.732855	0.311659	-0.000034
N35	N	1.742040	0.106557	0.425683
N36	N	1.742069	0.106556	-0.425671
H37	H	1.751066	-0.105296	-0.270190
H38	H	1.746927	-0.237437	-0.270203
C39	C	1.737230	-0.539530	-0.310705
C40	C	1.609775	-0.550158	-0.400567
C41	C	1.610591	-0.513734	-0.549557
H42	H	1.822770	-0.556210	-0.372098
H43	H	1.738673	-0.490926	-0.289415
H44	H	1.608346	-0.598752	-0.421861
H45	H	1.524215	-0.533476	-0.339224
H46	H	1.612035	-0.465130	-0.528267
H47	H	1.696137	-0.530417	-0.610935
H48	H	1.524109	-0.520935	-0.610540
C49	C	1.746650	-0.247486	0.310500
C50	C	1.744466	-0.319072	0.278618
C51	C	1.743399	-0.355647	0.427383
H52	H	1.661027	-0.230856	0.371812
H53	H	1.833056	-0.240376	0.371722
H54	H	1.658069	-0.326177	0.217422
H55	H	1.830082	-0.335722	0.217330
H56	H	1.829805	-0.348537	0.488605
H57	H	1.657774	-0.339011	0.488683
H58	H	1.741930	-0.404222	0.405771
C59	C	1.751070	-0.095509	0.310812
C60	C	1.623639	-0.106187	0.400679
C61	C	1.624507	-0.069857	0.549776
H62	H	1.752512	-0.046897	0.289716
H63	H	1.836656	-0.112245	0.372104
H64	H	1.538075	-0.089447	0.339400
H65	H	1.622170	-0.154792	0.421819
H66	H	1.710093	-0.086593	0.611068
H67	H	1.625953	-0.021247	0.528664
H68	H	1.538055	-0.077102	0.610776
C69	C	1.732967	-0.691406	0.310739
C70	C	1.860379	-0.680744	0.400641
C71	C	1.859475	-0.717097	0.549721
H72	H	1.731525	-0.740014	0.289621
H73	H	1.647368	-0.674677	0.372020
H74	H	1.945955	-0.697476	0.339374
H75	H	1.861847	-0.632143	0.421804
H76	H	1.773876	-0.700369	0.611001
H77	H	1.858029	-0.765704	0.528586
H78	H	1.945915	-0.709863	0.610744
H79	H	1.733077	-0.681554	-0.270255
H80	H	1.737177	-0.549446	0.270208
