data_functionalizedCrystal
_audit_creation_method	'MofGen! by Chris Wilmer'
_symmetry_space_group_name_H-M	'P1'
_symmetry_Int_Tables_number	1
_symmetry_cell_setting	triclinic
loop_
_symmetry_equiv_pos_as_xyz
  x,y,z
_cell_length_a	12.759401
_cell_length_b	19.120786
_cell_length_c	12.759393
_cell_angle_alpha	92.477119
_cell_angle_beta	90.018567
_cell_angle_gamma	92.464298
loop_
_atom_site_label
_atom_site_type_symbol
_atom_site_fract_x
_atom_site_fract_y
_atom_site_fract_z
Zn1	Zn	1.588334	-0.279608	0.576098
Zn2	Zn	1.580698	-0.397085	0.392904
Zn3	Zn	1.412634	-0.279643	0.400435
Zn4	Zn	1.405098	-0.397028	0.568549
O5	O	1.496691	-0.338341	0.484496
O6	O	1.734341	-0.295201	0.551805
O7	O	1.558362	-0.381544	0.246879
O8	O	1.442290	-0.181347	0.430048
O9	O	1.728732	-0.381510	0.417213
O10	O	1.571376	-0.181322	0.559107
O11	O	1.434886	-0.295259	0.252412
O12	O	1.264614	-0.295205	0.422728
O13	O	1.429447	-0.381414	0.716574
O14	O	1.259077	-0.381448	0.546240
O15	O	1.564069	-0.295146	0.722120
O16	O	1.551056	-0.495368	0.409892
O17	O	1.422043	-0.495327	0.538938
C18	C	1.223725	-0.338324	0.484483
C19	C	1.106947	-0.338334	0.484501
C20	C	1.054994	-0.293478	0.554682
C21	C	0.945269	-0.293491	0.554687
C22	C	0.939460	-0.383224	0.414328
C23	C	1.049183	-0.383206	0.414318
C24	C	1.058347	-0.241673	0.635720
C25	C	0.948622	-0.241687	0.635726
C26	C	1.484932	-0.520833	0.472801
C27	C	1.479997	-0.598904	0.467833
C28	C	1.544837	-0.635508	0.532748
C29	C	1.540196	-0.708864	0.528082
C30	C	1.470720	-0.745614	0.458495
C31	C	1.405873	-0.709005	0.393578
C32	C	1.410509	-0.635650	0.398250
C33	C	1.453357	-0.967101	0.441028
C34	C	1.448728	-1.040461	0.436359
C35	C	1.583050	-1.040315	0.570865
C36	C	1.587685	-0.966959	0.575526
C37	C	1.522834	-0.930356	0.510613
C38	C	1.465977	-0.820596	0.453721
C39	C	1.527572	-0.855376	0.515393
C40	C	1.770723	-0.338358	0.484511
C41	C	1.887499	-0.338365	0.484517
C42	C	1.496769	-0.338270	0.758534
C43	C	1.496802	-0.338240	0.875313
C44	C	1.508525	-0.155136	0.496260
C45	C	1.513568	-0.077065	0.501273
C46	C	1.496677	-0.338361	0.211528
C47	C	1.496860	-0.338193	0.094762
C48	C	1.566910	-0.293316	0.933065
C49	C	1.566936	-0.293290	1.042791
C50	C	1.426745	-0.383119	1.037002
C51	C	1.426714	-0.383141	0.927279
C52	C	1.647851	-0.241456	0.936408
C53	C	1.647878	-0.241430	1.046134
H54	H	1.091480	-0.419726	0.357161
H55	H	1.629569	-0.187060	0.910131
Cl56	Cl	1.109698	-0.157652	0.607667
Cl57	Cl	1.632189	-0.589315	0.620228
Cl58	Cl	0.866836	-0.439631	0.326103
Cl59	Cl	1.318520	-0.755205	0.306107
Cl60	Cl	1.621699	-0.754878	0.609707
H61	H	1.644258	-0.937038	0.632189
H62	H	1.091159	-0.261217	0.711708
Cl63	Cl	1.328991	-0.589633	0.316641
Cl64	Cl	0.901170	-0.161874	0.596055
H65	H	1.723873	-0.260957	0.901125
Cl66	Cl	1.664567	-1.086334	0.652469
H67	H	0.917938	-0.256325	0.716125
H68	H	1.622077	-0.189745	1.083488
H69	H	1.584136	-0.825452	0.572054
H70	H	1.392147	-1.070381	0.379692
H71	H	1.400555	-0.937305	0.388171
H72	H	1.409412	-0.850526	0.397060
Cl73	Cl	1.338559	-0.439608	0.854680
Cl74	Cl	1.338639	-0.439563	1.102339
H75	H	1.728315	-0.256001	1.074980
