data_functionalizedCrystal
_audit_creation_method	'MofGen! by Chris Wilmer'
_symmetry_space_group_name_H-M	'P1'
_symmetry_Int_Tables_number	1
_symmetry_cell_setting	triclinic
loop_
_symmetry_equiv_pos_as_xyz
  x,y,z
_cell_length_a	10.065875
_cell_length_b	16.992694
_cell_length_c	16.974813
_cell_angle_alpha	92.975366
_cell_angle_beta	95.178525
_cell_angle_gamma	99.345951
loop_
_atom_site_label
_atom_site_type_symbol
_atom_site_fract_x
_atom_site_fract_y
_atom_site_fract_z
O1	O	-0.130450	-1.053411	0.155124
O2	O	0.369550	-0.553411	0.655124
O3	O	-0.130289	-0.825111	0.153301
O4	O	0.369711	-0.325111	0.653301
O5	O	-0.117827	-0.944356	0.040715
O6	O	0.382173	-0.444356	0.540715
O7	O	-0.142912	-0.934166	0.267710
O8	O	0.357088	-0.434166	0.767710
O9	O	0.106776	-0.921618	0.062276
O10	O	0.606776	-0.421618	0.562276
O11	O	0.094313	-0.802374	0.174861
O12	O	0.594313	-0.302374	0.674861
O13	O	0.094152	-1.030673	0.176685
O14	O	0.594152	-0.530673	0.676685
Zn15	Zn	0.129893	-0.912913	0.179196
Zn16	Zn	0.629893	-0.412913	0.679196
Zn17	Zn	-0.166030	-0.942871	0.150789
Zn18	Zn	0.333970	-0.442871	0.650789
O19	O	0.081690	-0.911429	0.289270
O20	O	0.581690	-0.411429	0.789270
C21	C	-0.017734	-0.784507	0.161739
C22	C	0.482266	-0.284507	0.661739
C23	C	-0.016978	-0.697394	0.154752
C24	C	0.483022	-0.197394	0.654752
N25	N	0.331853	-0.892474	0.198583
N26	N	0.831853	-0.392474	0.698583
N27	N	-0.367989	-0.963317	0.131397
N28	N	0.132011	-0.463317	0.631397
C29	C	0.404176	-0.935754	0.157529
C30	C	0.904176	-0.435754	0.657529
C31	C	0.559691	-0.920030	0.172456
C32	C	1.059691	-0.420030	0.672456
C33	C	-0.002304	-0.932177	0.022316
C34	C	0.497696	-0.432177	0.522316
C35	C	0.007295	-0.929753	-0.064631
C36	C	0.507295	-0.429753	0.435369
C37	C	-0.018405	-1.071278	0.168246
C38	C	0.481595	-0.571278	0.668246
C39	C	-0.019171	-1.158392	0.175232
C40	C	0.480829	-0.658392	0.675232
C41	C	-0.024425	-0.647833	0.222153
C42	C	0.475575	-0.147833	0.722153
C43	C	-0.023681	-0.565979	0.215586
C44	C	0.476319	-0.065979	0.715586
C45	C	-0.015498	-0.533687	0.141617
C46	C	0.484502	-0.033687	0.641617
C47	C	-0.008046	-0.583253	0.074212
C48	C	0.491954	-0.083253	0.574212
C49	C	-0.008781	-0.665105	0.080780
C50	C	0.491219	-0.165105	0.580780
C51	C	-0.012453	-0.289810	0.114395
C52	C	0.487547	0.210190	0.614395
C53	C	-0.011723	-0.207952	0.107832
C54	C	0.488277	0.292048	0.607832
C55	C	-0.027355	-0.190683	0.249207
C56	C	0.472645	0.309317	0.749207
C57	C	-0.028097	-0.272539	0.255767
C58	C	0.471903	0.227461	0.755767
C59	C	-0.020638	-0.322097	0.188363
C60	C	0.479362	0.177903	0.688363
N61	N	-0.014741	-0.450018	0.134903
N62	N	0.485259	0.049982	0.634903
N63	N	-0.021386	-0.405763	0.195079
N64	N	0.478614	0.094237	0.695079
C65	C	-0.110626	-0.941011	-0.117227
C66	C	0.389374	-0.441011	0.382773
C67	C	-0.101602	-0.938728	-0.198922
C68	C	0.398398	-0.438728	0.301078
C69	C	0.025343	-0.925194	-0.228020
C70	C	0.525343	-0.425194	0.271980
C71	C	0.143272	-0.913933	-0.175418
C72	C	0.643272	-0.413933	0.324582
C73	C	0.134247	-0.916210	-0.093724
C74	C	0.634247	-0.416210	0.406276
C75	C	0.065462	-0.917049	-0.471088
C76	C	0.565462	-0.417049	0.028912
C77	C	0.074477	-0.914775	-0.552789
C78	C	0.574477	-0.414775	-0.052789
C79	C	-0.170398	-0.939569	-0.576287
C80	C	0.329602	-0.439569	-0.076287
C81	C	-0.179411	-0.941849	-0.494591
C82	C	0.320589	-0.441849	0.005409
C83	C	-0.061482	-0.930585	-0.441995
C84	C	0.438518	-0.430585	0.058005
N85	N	0.034569	-0.922863	-0.311526
N86	N	0.534569	-0.422863	0.188474
N87	N	-0.070710	-0.932910	-0.358491
N88	N	0.429290	-0.432910	0.141509
C89	C	-0.033835	-0.923608	0.307669
C90	C	0.466165	-0.423608	0.807669
C91	C	-0.043443	-0.926032	0.394615
C92	C	0.456557	-0.426032	0.894615
H93	H	0.350966	-0.984447	0.111328
H94	H	0.850966	-0.484447	0.611328
H95	H	-0.029747	-0.525630	0.270471
H96	H	0.470253	-0.025630	0.770471
Cl97	Cl	-0.249853	-0.952882	-0.265040
Cl98	Cl	0.250147	-0.452882	0.234960
H99	H	0.612898	-0.871328	0.218655
H100	H	1.112898	-0.371328	0.718655
H101	H	0.578805	-1.012012	0.085192
H102	H	1.078805	-0.512012	0.585192
H103	H	-0.001365	-0.556952	0.013987
H104	H	0.498635	-0.056952	0.513987
Cl105	Cl	-0.038393	-0.313129	0.348760
Cl106	Cl	0.461607	0.186871	0.848760
H107	H	0.385066	-0.843776	0.244778
H108	H	0.885066	-0.343776	0.744778
Cl109	Cl	-0.034721	-0.688421	0.315146
Cl110	Cl	0.465279	-0.188421	0.815146
H111	H	-0.033425	-0.150324	0.304084
H112	H	0.466575	0.349676	0.804084
H113	H	-0.005061	-0.181664	0.047594
H114	H	0.494939	0.318336	0.547594
H115	H	-0.282783	-0.952871	-0.470906
H116	H	0.217217	-0.452871	0.029094
Cl117	Cl	-0.003077	-0.352102	0.029657
Cl118	Cl	0.496923	0.147898	0.529657
H119	H	-0.002717	-0.705457	0.025895
H120	H	0.497283	-0.205457	0.525895
Cl121	Cl	-0.270222	-0.958031	-0.080656
Cl122	Cl	0.229778	-0.458031	0.419344
Cl123	Cl	-0.318641	-0.953727	-0.642411
Cl124	Cl	0.181359	-0.453727	-0.142411
H125	H	0.246633	-0.902908	-0.199116
H126	H	0.746633	-0.402908	0.300884
Cl127	Cl	0.213717	-0.902875	-0.404978
Cl128	Cl	0.713717	-0.402875	0.095022
H129	H	0.230270	-0.907032	-0.050899
H130	H	0.730270	-0.407032	0.449101
Cl131	Cl	0.234077	-0.897764	-0.589368
Cl132	Cl	0.734077	-0.397764	-0.089368
