data_functionalizedCrystal
_audit_creation_method	'MofGen! by Chris Wilmer'
_symmetry_space_group_name_H-M	'P1'
_symmetry_Int_Tables_number	1
_symmetry_cell_setting	triclinic
loop_
_symmetry_equiv_pos_as_xyz
  x,y,z
_cell_length_a	23.532361
_cell_length_b	23.532407
_cell_length_c	11.892095
_cell_angle_alpha	93.859970
_cell_angle_beta	86.130527
_cell_angle_gamma	82.839173
loop_
_atom_site_label
_atom_site_type_symbol
_atom_site_fract_x
_atom_site_fract_y
_atom_site_fract_z
O1	O	0.758935	0.065350	-0.093900
O2	O	0.593069	0.075380	-0.093929
O3	O	0.681003	-0.012566	-0.093893
O4	O	0.671001	0.153297	-0.093936
O5	O	0.673671	-0.005245	0.094111
O6	O	0.585737	0.082702	0.094076
O7	O	0.751603	0.072672	0.094104
Zn8	Zn	0.667506	0.078849	0.123940
Zn9	Zn	0.677166	0.069203	-0.123764
O10	O	0.663669	0.160619	0.094068
C11	C	0.568187	0.078790	0.000070
C12	C	0.504968	0.078034	0.000060
C13	C	0.235721	0.070740	-0.102414
C14	C	0.295121	0.071455	-0.102417
O15	O	0.329246	0.068411	-0.189571
N16	N	0.320830	0.075807	0.000065
C17	C	0.287137	0.079439	0.102556
O18	O	0.314459	0.083206	0.189724
C19	C	0.227738	0.078720	0.102558
C20	C	0.202032	0.074373	0.000070
C21	C	0.210014	0.066393	-0.204894
C22	C	0.150618	0.065679	-0.204890
C23	C	0.116929	0.069312	-0.102407
C24	C	0.142636	0.073659	0.000073
C25	C	0.194047	0.082347	0.205048
C26	C	0.134645	0.081628	0.205041
C27	C	0.108938	0.077281	0.102553
C28	C	0.049551	0.076579	0.102560
N29	N	0.023842	0.072227	0.000078
C30	C	0.057531	0.068594	-0.102405
C31	C	0.411877	0.080947	0.102545
C32	C	0.471274	0.081670	0.102544
C33	C	0.479254	0.073685	-0.102429
C34	C	0.419856	0.072966	-0.102428
C35	C	0.386168	0.076595	0.000063
C36	C	-0.067205	0.067096	-0.102390
C37	C	-0.126607	0.066385	-0.102378
C38	C	-0.134582	0.074367	0.102595
C39	C	-0.075185	0.075081	0.102583
C40	C	-0.041498	0.071443	0.000081
O41	O	0.015391	0.079618	0.189670
O42	O	0.030202	0.064820	-0.189559
C43	C	0.677082	-0.030121	0.000112
C44	C	0.676316	-0.093338	0.000121
C45	C	0.723552	-0.492451	0.000067
C46	C	0.722841	-0.551852	0.000058
O47	O	0.766629	-0.588605	0.000024
N48	N	0.670564	-0.574469	0.000050
C49	C	0.618995	-0.537684	0.000039
O50	O	0.574464	-0.562376	0.000030
C51	C	0.619707	-0.478285	0.000040
C52	C	0.671987	-0.455670	0.000059
C53	C	0.775828	-0.469836	0.000085
C54	C	0.776539	-0.410439	0.000096
C55	C	0.724974	-0.373658	0.000088
C56	C	0.672698	-0.396273	0.000070
C57	C	0.568139	-0.441500	0.000020
C58	C	0.568856	-0.382098	0.000020
C59	C	0.621136	-0.359483	0.000040
C60	C	0.621844	-0.300096	0.000073
N61	N	0.674121	-0.277478	0.000081
C62	C	0.725686	-0.314259	0.000089
C63	C	0.617504	-0.662426	0.000036
C64	C	0.616791	-0.721823	0.000043
C65	C	0.720637	-0.735988	0.000060
C66	C	0.721349	-0.676589	0.000061
C67	C	0.669781	-0.639808	0.000044
C68	C	0.727175	-0.189522	0.000113
C69	C	0.727881	-0.130119	0.000128
C70	C	0.624035	-0.115961	0.000105
C71	C	0.623328	-0.175358	0.000096
C72	C	0.674903	-0.212138	0.000096
O73	O	0.578079	-0.263308	0.000103
O74	O	0.770210	-0.289559	0.000083
C75	C	0.776485	0.069262	0.000103
C76	C	0.839704	0.070018	0.000106
C77	C	0.667590	0.178174	0.000061
C78	C	0.668357	0.241390	0.000045
N79	N	0.660918	0.085432	0.292991
N80	N	0.683759	0.062615	-0.292816
C81	C	0.729604	0.016774	0.529667
C82	C	0.725003	0.021380	0.648007
C83	C	0.647112	0.099246	0.648013
C84	C	0.651713	0.094641	0.529673
C85	C	0.692961	0.053404	0.470504
C86	C	0.697565	0.048801	0.352162
C87	C	0.619671	0.126665	0.352171
C88	C	0.615070	0.131270	0.470511
H89	H	0.506695	0.070726	-0.185877
Br90	Br	0.255725	0.061459	-0.343998
H91	H	0.526861	-0.352153	0.000005
Br92	Br	0.552375	-0.206049	0.000095
H93	H	0.770455	-0.111710	0.000147
Br94	Br	0.559090	0.187230	0.550818
H95	H	0.762625	-0.765946	0.000062
H96	H	-0.039784	0.064134	-0.185857
Br97	Br	0.554057	-0.066032	0.000095
Br98	Br	0.797170	-0.239428	0.000111
Br99	Br	-0.040298	0.080989	0.241675
H100	H	-0.147534	0.062847	-0.185840
Br101	Br	0.753546	-0.007160	0.271863
H102	H	0.384451	0.083910	0.186010
H103	H	0.817821	-0.499778	0.000087
H104	H	0.129694	0.062137	-0.288347
Br105	Br	0.384975	0.067067	-0.241523
H106	H	0.214967	0.085885	0.288505
H107	H	0.492197	0.085219	0.186000
H108	H	0.107218	0.084588	0.288503
Br109	Br	-0.180314	0.079300	0.241673
H110	H	0.574218	-0.740230	0.000047
Br111	Br	0.785590	-0.039181	0.449363
Br112	Br	0.847496	-0.379759	0.000091
Br113	Br	0.774732	-0.028337	0.728297
H114	H	0.763920	-0.658180	0.000076
Br115	Br	0.547511	-0.612514	0.000022
H116	H	0.613525	0.132817	0.696204
Br117	Br	0.569944	0.176384	0.271868
H118	H	0.525567	-0.459902	-0.000002
