data_functionalizedCrystal
_audit_creation_method	'MofGen! by Chris Wilmer'
_symmetry_space_group_name_H-M	'P1'
_symmetry_Int_Tables_number	1
_symmetry_cell_setting	triclinic
loop_
_symmetry_equiv_pos_as_xyz
  x,y,z
_cell_length_a	10.654549
_cell_length_b	15.944493
_cell_length_c	9.130313
_cell_angle_alpha	90.001356
_cell_angle_beta	89.997498
_cell_angle_gamma	83.979910
loop_
_atom_site_label
_atom_site_type_symbol
_atom_site_fract_x
_atom_site_fract_y
_atom_site_fract_z
O1	O	1.666277	0.117978	-0.121745
O2	O	1.300649	0.129219	-0.121753
O3	O	1.493485	0.001378	-0.121761
O4	O	1.473440	0.245818	-0.121737
O5	O	1.493472	0.001374	0.121838
O6	O	1.300636	0.129215	0.121846
O7	O	1.666263	0.117974	0.121854
Cu8	Cu	1.483448	0.123594	0.144093
Cu9	Cu	1.483464	0.123599	-0.143991
O10	O	1.473427	0.245815	0.121862
C11	C	1.253855	0.128391	0.000045
C12	C	1.114445	0.125922	0.000041
C13	C	1.492659	-0.029923	0.000032
C14	C	1.490203	-0.123186	0.000014
C15	C	0.902964	0.198866	0.000054
C16	C	1.033953	0.201193	0.000045
C17	C	1.063941	0.048320	0.000030
C18	C	0.932953	0.045995	0.000028
C19	C	1.603711	-0.358289	0.000044
C20	C	1.542507	-0.409209	-0.120063
C21	C	1.485652	-0.293933	0.000032
C22	C	1.542467	-0.409189	0.120106
C23	C	1.481265	-0.458868	0.000055
C24	C	1.424480	-0.343625	-0.120175
C25	C	1.424457	-0.343602	0.120102
C26	C	1.363166	-0.394490	-0.000035
C27	C	1.488183	-0.198919	0.000017
C28	C	1.478725	-0.553880	0.000060
C29	C	1.713057	0.118801	0.000053
C30	C	1.852468	0.121271	0.000048
C31	C	1.474253	0.277116	0.000066
C32	C	1.476709	0.370379	0.000075
N33	N	1.483447	0.123591	0.346715
N34	N	1.483476	0.123596	-0.346614
C35	C	1.568863	0.067007	0.423364
C36	C	1.568875	0.067007	0.576700
C37	C	1.398050	0.180182	0.576727
C38	C	1.398033	0.180177	0.423393
H39	H	0.837435	0.260161	0.000069
H40	H	1.638427	0.020931	0.639103
Br41	Br	1.102479	0.306506	0.000042
Br42	Br	1.173178	-0.053834	0.000016
Br43	Br	1.282139	0.256977	0.680794
H44	H	1.328471	0.226255	0.360982
H45	H	0.891840	-0.017197	0.000018
H46	H	1.592370	-0.437865	-0.221605
Br47	Br	1.773202	-0.331257	-0.000143
H48	H	1.638410	0.020929	0.360936
H49	H	1.374656	-0.315092	-0.221825
H50	H	1.374636	-0.314931	0.221647
Br51	Br	1.193542	-0.421253	-0.000138
H52	H	1.592344	-0.437833	0.221641
