data_functionalizedCrystal
_audit_creation_method	'MofGen! by Chris Wilmer'
_symmetry_space_group_name_H-M	'P1'
_symmetry_Int_Tables_number	1
_symmetry_cell_setting	triclinic
loop_
_symmetry_equiv_pos_as_xyz
  x,y,z
_cell_length_a	12.759401
_cell_length_b	16.625546
_cell_length_c	16.625539
_cell_angle_alpha	90.030397
_cell_angle_beta	90.017468
_cell_angle_gamma	90.021512
loop_
_atom_site_label
_atom_site_type_symbol
_atom_site_fract_x
_atom_site_fract_y
_atom_site_fract_z
Zn1	Zn	1.606187	-0.321021	0.455831
Zn2	Zn	1.606061	-0.455864	0.320993
Zn3	Zn	1.430493	-0.321047	0.321019
Zn4	Zn	1.430454	-0.455813	0.455790
O5	O	1.518299	-0.388436	0.388408
O6	O	1.753192	-0.338919	0.437951
O7	O	1.582735	-0.438012	0.208164
O8	O	1.453868	-0.208211	0.338930
O9	O	1.753099	-0.437987	0.338886
O10	O	1.582950	-0.208192	0.437975
O11	O	1.453745	-0.338963	0.208183
O12	O	1.283466	-0.338913	0.338890
O13	O	1.453802	-0.437900	0.568628
O14	O	1.283438	-0.437925	0.437906
O15	O	1.582913	-0.338869	0.568658
O16	O	1.582698	-0.568690	0.338847
O17	O	1.453680	-0.568652	0.437882
C18	C	1.245331	-0.388417	0.388397
C19	C	1.128555	-0.388428	0.388411
C20	C	1.073734	-0.336941	0.440074
C21	C	0.964010	-0.336956	0.440079
C22	C	0.963937	-0.439954	0.336756
C23	C	1.073659	-0.439934	0.336748
C24	C	1.128630	-0.285435	0.491738
C25	C	1.073809	-0.233944	0.543406
C26	C	0.964085	-0.233960	0.543411
C27	C	0.909182	-0.285466	0.491748
C28	C	1.518199	-0.597927	0.388375
C29	C	1.518253	-0.687548	0.388387
C30	C	1.518436	-1.015724	0.388471
C31	C	1.518382	-0.924415	0.388450
C32	C	1.518344	-0.851639	0.388429
C33	C	1.518291	-0.760324	0.388408
C34	C	1.792332	-0.388456	0.388420
C35	C	1.909109	-0.388464	0.388425
C36	C	1.518367	-0.388376	0.598717
C37	C	1.518396	-0.388350	0.688338
C38	C	1.518427	-0.178127	0.388460
C39	C	1.518482	-0.088506	0.388482
C40	C	1.518291	-0.388438	0.178917
C41	C	1.518466	-0.388236	0.089297
C42	C	1.518445	-0.388260	1.016514
C43	C	1.518428	-0.388288	0.925206
C44	C	1.518421	-0.388306	0.852429
C45	C	1.518403	-0.388332	0.761115
H46	H	0.919453	-0.192027	0.585475
Cl47	Cl	1.266568	-0.285416	0.491738
H48	H	1.118295	-0.481860	0.294680
H49	H	0.819837	-0.285457	0.491739
H50	H	0.919226	-0.481890	0.294697
H51	H	1.118518	-0.192004	0.585462
