data_functionalizedCrystal
_audit_creation_method	'MofGen! by Chris Wilmer'
_symmetry_space_group_name_H-M	'P1'
_symmetry_Int_Tables_number	1
_symmetry_cell_setting	triclinic
loop_
_symmetry_equiv_pos_as_xyz
  x,y,z
_cell_length_a	29.839134
_cell_length_b	12.759400
_cell_length_c	29.839104
_cell_angle_alpha	90.122233
_cell_angle_beta	89.924472
_cell_angle_gamma	89.996161
loop_
_atom_site_label
_atom_site_type_symbol
_atom_site_fract_x
_atom_site_fract_y
_atom_site_fract_z
Zn1	Zn	0.687097	0.417568	-0.253992
Zn2	Zn	0.686977	0.593565	-0.178870
Zn3	Zn	0.611893	0.417868	-0.178879
Zn4	Zn	0.611963	0.593173	-0.253976
O5	O	0.649483	0.505543	-0.216429
O6	O	0.749948	0.440954	-0.244031
O7	O	0.676938	0.570548	-0.116004
O8	O	0.621890	0.270807	-0.188853
O9	O	0.749860	0.570258	-0.188839
O10	O	0.677142	0.270587	-0.244039
O11	O	0.621774	0.441464	-0.116010
O12	O	0.549035	0.441083	-0.188837
O13	O	0.622009	0.569589	-0.316845
O14	O	0.549086	0.569879	-0.244011
O15	O	0.677210	0.440573	-0.316858
O16	O	0.677006	0.740534	-0.188823
O17	O	0.621893	0.740246	-0.244003
C18	C	0.532760	0.505472	-0.216423
C19	C	0.482826	0.505466	-0.216431
C20	C	0.766661	0.505616	-0.216436
C21	C	0.816595	0.505647	-0.216439
C22	C	0.649456	0.778511	-0.216420
C23	C	0.649486	0.895287	-0.216431
C24	C	1.173213	0.572602	-0.245169
C25	C	0.985540	0.572654	-0.245168
O26	O	0.961301	0.629658	-0.269610
N27	N	0.962040	0.505604	-0.216442
C28	C	0.985462	0.438531	-0.187716
O29	O	0.961168	0.381495	-0.163286
C30	C	1.173134	0.438475	-0.187720
C31	C	1.196631	0.505537	-0.216445
C32	C	1.196710	0.639658	-0.273892
C33	C	1.243626	0.639649	-0.273890
C34	C	1.267044	0.572583	-0.245166
C35	C	1.243547	0.505528	-0.216443
C36	C	1.196555	0.371398	-0.158997
C37	C	1.243476	0.371388	-0.159001
C38	C	1.266973	0.438450	-0.187726
C39	C	1.313881	0.438453	-0.187717
N40	N	1.337380	0.505503	-0.216443
C41	C	1.313962	0.572568	-0.245167
C42	C	0.886932	0.438567	-0.187716
C43	C	0.840014	0.438582	-0.187714
C44	C	0.840095	0.572704	-0.245167
C45	C	0.887013	0.572693	-0.245166
C46	C	0.910431	0.505617	-0.216442
C47	C	1.412488	0.572544	-0.245161
C48	C	1.459407	0.572532	-0.245155
C49	C	1.459322	0.438406	-0.187705
C50	C	1.412407	0.438422	-0.187709
C51	C	1.388991	0.505495	-0.216440
O52	O	1.338148	0.381470	-0.163291
O53	O	1.338264	0.629580	-0.269601
C54	C	1.126298	0.572612	-0.245171
C55	C	1.102800	0.505556	-0.216448
C56	C	1.126219	0.438491	-0.187724
C57	C	1.055883	0.505571	-0.216447
C58	C	1.032464	0.572637	-0.245171
C59	C	1.055964	0.639687	-0.273897
C60	C	1.102879	0.639677	-0.273895
C61	C	1.102719	0.371441	-0.158998
C62	C	1.055804	0.371457	-0.159001
C63	C	1.032386	0.438522	-0.187726
C64	C	0.649630	0.505004	-0.333608
C65	C	0.649693	0.504774	-0.383543
C66	C	0.649522	0.231510	-0.216449
C67	C	0.649538	0.114733	-0.216457
C68	C	0.678215	0.950265	-0.187731
C69	C	0.678242	1.059989	-0.187745
C70	C	0.620808	1.059749	-0.245160
C71	C	0.620783	0.950027	-0.245148
C72	C	0.706918	0.895526	-0.159013
C73	C	0.735649	0.950503	-0.130310
C74	C	0.735676	1.060227	-0.130324
C75	C	0.706973	1.114974	-0.159041
C76	C	0.649361	0.506005	-0.099706
C77	C	0.649385	0.505939	-0.049772
C78	C	0.620603	0.438657	0.259849
C79	C	0.620689	0.438336	0.447522
O80	O	0.596112	0.381525	0.471768
N81	N	0.649628	0.505016	0.471012
C82	C	0.678549	0.571777	0.447582
O83	O	0.703168	0.628477	0.471868
C84	C	0.678464	0.572091	0.259910
C85	C	0.649520	0.505414	0.236422
C86	C	0.591662	0.371985	0.236361
C87	C	0.591639	0.372070	0.189445
C88	C	0.620556	0.438827	0.166018
C89	C	0.649497	0.505499	0.189506
C90	C	0.707387	0.638845	0.236480
C91	C	0.707364	0.638916	0.189559
C92	C	0.678420	0.572239	0.166071
C93	C	0.678392	0.572341	0.119164
N94	N	0.649454	0.505661	0.095673
C95	C	0.620536	0.438904	0.119100
C96	C	0.678590	0.571608	0.546112
C97	C	0.678611	0.571531	0.593030
C98	C	0.620752	0.438089	0.592967
C99	C	0.620730	0.438172	0.546048
C100	C	0.649652	0.504928	0.522622
C101	C	0.620489	0.439088	0.020575
C102	C	0.620467	0.439182	-0.026345
C103	C	0.678328	0.572619	-0.026277
C104	C	0.678348	0.572530	0.020638
C105	C	0.649427	0.505756	0.044063
O106	O	0.702960	0.629115	0.094889
O107	O	0.595927	0.382196	0.094806
C108	C	0.620626	0.438572	0.306764
C109	C	0.649567	0.505245	0.330252
C110	C	0.678484	0.572002	0.306825
C111	C	0.649587	0.505167	0.377170
C112	C	0.620669	0.438410	0.400597
C113	C	0.591731	0.371730	0.377107
C114	C	0.591708	0.371815	0.330192
C115	C	0.707423	0.638682	0.330316
C116	C	0.707443	0.638592	0.377231
C117	C	0.678525	0.571835	0.400658
H118	H	1.478536	0.627145	-0.268547
C119	C	0.588628	0.365824	-0.052179
N120	N	0.564649	0.310568	-0.071636
H121	H	1.121782	0.316827	-0.135606
H122	H	0.596940	0.384712	0.039642
H123	H	0.597389	0.905264	-0.268519
H124	H	0.568113	0.317618	0.255430
C125	C	1.029962	0.297675	-0.127401
N126	N	1.010500	0.242096	-0.103603
H127	H	0.597162	0.383876	0.526927
H128	H	1.177432	0.316792	-0.135605
H129	H	0.706897	0.806183	-0.158998
C130	C	0.767222	0.890280	-0.098725
N131	N	0.791003	0.844921	-0.074933
H132	H	1.478398	0.383807	-0.164317
C133	C	0.814172	0.364815	-0.156112
N134	N	0.794710	0.309245	-0.132311
H135	H	1.122006	0.694286	-0.297286
H136	H	0.759074	1.104986	-0.106956
C137	C	0.912685	0.364780	-0.156112
N138	N	0.932080	0.309207	-0.132306
H139	H	0.597206	0.383733	0.612049
H140	H	1.393274	0.383817	-0.164318
C141	C	0.559924	0.298291	0.402886
N142	N	0.535971	0.242973	0.422305
H143	H	0.568070	0.317773	0.170326
C144	C	0.707007	1.235674	-0.159056
N145	N	0.707031	1.326584	-0.159065
H146	H	0.702176	0.625835	0.612150
H147	H	1.036888	0.694297	-0.297284
C148	C	1.269466	0.713418	-0.305492
N149	N	1.288927	0.768982	-0.329297
H150	H	0.702144	0.625972	0.527043
H151	H	0.730953	0.693148	0.255596
C152	C	1.386737	0.646334	-0.276764
N153	N	1.367342	0.701920	-0.300565
H154	H	0.597438	1.104332	-0.268540
C155	C	1.170957	0.713453	-0.305489
N156	N	1.151563	0.769050	-0.329286
H157	H	0.730918	0.693275	0.170488
H158	H	1.262540	0.316759	-0.135613
H159	H	0.701920	0.626816	0.039763
H160	H	0.701870	0.626976	-0.045360
C161	C	0.559871	0.298455	0.304361
N162	N	0.535892	0.243193	0.284908
H163	H	0.730972	0.693043	0.311246
H164	H	0.731012	0.692897	0.396351
H165	H	0.821020	0.627311	-0.268555
C166	C	0.912856	0.646460	-0.276767
N167	N	0.932318	0.702022	-0.300572
