data_functionalizedCrystal
_audit_creation_method	'MofGen! by Chris Wilmer'
_symmetry_space_group_name_H-M	'P1'
_symmetry_Int_Tables_number	1
_symmetry_cell_setting	triclinic
loop_
_symmetry_equiv_pos_as_xyz
  x,y,z
_cell_length_a	15.944551
_cell_length_b	15.944551
_cell_length_c	15.021413
_cell_angle_alpha	90.003065
_cell_angle_beta	89.997174
_cell_angle_gamma	83.498738
loop_
_atom_site_label
_atom_site_type_symbol
_atom_site_fract_x
_atom_site_fract_y
_atom_site_fract_z
O1	O	1.114529	0.108321	-0.073941
O2	O	0.869979	0.121677	-0.073964
O3	O	0.998932	-0.007276	-0.073944
O4	O	0.985576	0.237274	-0.073961
O5	O	0.998912	-0.007257	0.074121
O6	O	0.869959	0.121695	0.074101
O7	O	1.114508	0.108339	0.074123
Zn8	Zn	0.992230	0.115020	0.097620
Zn9	Zn	0.992257	0.114996	-0.097461
O10	O	0.985555	0.237292	0.074103
C11	C	0.838675	0.121132	0.000066
C12	C	0.745429	0.119470	0.000057
C13	C	0.530572	0.035565	0.000081
C14	C	0.469562	0.074518	-0.072926
C15	C	0.574703	0.116462	0.000068
C16	C	0.469564	0.074556	0.073054
C17	C	0.409790	0.113551	0.000083
C18	C	0.514921	0.155438	-0.072998
C19	C	0.514930	0.155464	0.073047
C20	C	0.453937	0.194476	0.000023
C21	C	0.669705	0.118137	0.000059
C22	C	0.314789	0.111883	0.000085
C23	C	0.998367	-0.038561	0.000089
C24	C	0.996705	-0.131807	0.000089
C25	C	0.912801	-0.346663	0.000069
C26	C	0.951753	-0.407672	0.073077
C27	C	0.993698	-0.302533	0.000082
C28	C	0.951792	-0.407673	-0.072903
C29	C	0.990787	-0.467445	0.000071
C30	C	1.032672	-0.362313	0.073150
C31	C	1.032700	-0.362308	-0.072895
C32	C	1.071711	-0.423298	0.000131
C33	C	0.995372	-0.207530	0.000089
C34	C	0.989119	-0.562446	0.000070
C35	C	1.145813	0.108885	0.000092
C36	C	1.239059	0.110547	0.000094
C37	C	0.986120	0.268577	0.000069
C38	C	0.987782	0.361823	0.000063
N39	N	0.992218	0.115036	0.230758
N40	N	0.992276	0.114973	-0.230598
C41	C	0.932581	0.174636	0.470432
C42	C	1.008481	0.190943	0.529772
C43	C	0.992239	0.115015	0.412365
C44	C	0.916360	0.098727	0.529766
C45	C	0.992253	0.114997	0.587789
C46	C	1.068178	0.131360	0.470398
C47	C	0.976006	0.039111	0.470387
C48	C	1.051962	0.055386	0.529701
C49	C	0.992230	0.115028	0.311307
C50	C	0.992271	0.114984	0.688844
H51	H	0.420779	0.261683	-0.000023
H52	H	0.917574	-0.427758	-0.134630
C53	C	0.541638	0.201191	0.155312
C54	C	0.501279	0.283880	0.155872
C55	C	0.525857	0.326017	0.231654
H56	H	0.601052	0.202453	0.154494
H57	H	0.526258	0.172425	0.207161
H58	H	0.516665	0.312639	0.104036
H59	H	0.441866	0.282643	0.156703
H60	H	0.510476	0.297251	0.283503
H61	H	0.585270	0.327273	0.230829
H62	H	0.498471	0.382124	0.232048
C63	C	0.865484	0.242042	0.435769
C64	C	0.882893	0.321368	0.465842
C65	C	0.821114	0.383484	0.433917
H66	H	0.811643	0.231124	0.456947
H67	H	0.865618	0.241296	0.372527
H68	H	0.882750	0.322113	0.529071
H69	H	0.936723	0.332314	0.444667
H70	H	0.821248	0.382738	0.370675
H71	H	0.767277	0.372557	0.455097
H72	H	0.832922	0.437314	0.454310
C73	C	1.026832	0.276449	0.564739
C74	C	1.027367	0.275045	0.657935
C75	C	1.044271	0.353795	0.690176
H76	H	0.984427	0.318826	0.544548
H77	H	1.080354	0.288436	0.543592
H78	H	0.973853	0.263068	0.679074
H79	H	1.069772	0.232684	0.678151
H80	H	1.097792	0.365783	0.669029
H81	H	1.001863	0.396167	0.669978
H82	H	1.044644	0.352851	0.753411
C83	C	1.153678	0.149921	0.435607
C84	C	1.152645	0.149800	0.342405
C85	C	1.231375	0.166938	0.310323
H86	H	1.196187	0.107872	0.456261
H87	H	1.165269	0.203690	0.456403
H88	H	1.141063	0.096038	0.321618
H89	H	1.110153	0.191849	0.321728
H90	H	1.242967	0.220707	0.331119
H91	H	1.273878	0.124887	0.330983
H92	H	1.230682	0.166866	0.247083
C93	C	0.442900	0.028795	0.155321
C94	C	0.482091	-0.054349	0.154980
C95	C	0.457559	-0.096531	0.230749
H96	H	0.383369	0.028425	0.155090
H97	H	0.459223	0.056946	0.207186
H98	H	0.465763	-0.082492	0.103129
H99	H	0.541621	-0.054004	0.155224
H100	H	0.473882	-0.068381	0.282614
H101	H	0.398028	-0.096895	0.230511
H102	H	0.484152	-0.152946	0.230532
H103	H	0.852184	0.084959	0.555847
C104	C	0.823252	-0.302288	0.000336
C105	C	0.781273	-0.325133	0.076951
C106	C	0.698786	-0.284262	0.077237
H107	H	0.794129	-0.318435	-0.050942
H108	H	0.824898	-0.242914	-0.000146
H109	H	0.779622	-0.384495	0.077425
H110	H	0.810370	-0.308986	0.128241
H111	H	0.700432	-0.224888	0.076755
H112	H	0.669672	-0.300412	0.025956
H113	H	0.670296	-0.299750	0.129223
H114	H	0.917528	-0.427772	0.134794
H115	H	1.102474	0.004956	0.555561
H116	H	1.066851	-0.342314	0.134941
H117	H	1.138919	-0.456457	0.000178
H118	H	1.066896	-0.342185	-0.134615
C119	C	0.957479	-0.046402	0.435619
C120	C	0.877910	-0.063116	0.465628
C121	C	0.860799	-0.141877	0.433605
H122	H	0.999235	-0.088953	0.456773
H123	H	0.958077	-0.045933	0.372378
H124	H	0.877319	-0.063592	0.528856
H125	H	0.836137	-0.020586	0.444476
H126	H	0.861397	-0.141408	0.370364
H127	H	0.902559	-0.184421	0.454762
H128	H	0.806807	-0.153224	0.453955
H129	H	0.563905	-0.031573	-0.000005
C130	C	0.541403	0.201075	-0.155426
C131	C	0.469958	0.227876	-0.206567
C132	C	0.494322	0.269925	-0.282499
H133	H	0.579416	0.163856	-0.189649
H134	H	0.568371	0.248652	-0.138014
H135	H	0.443004	0.180305	-0.223980
H136	H	0.431938	0.265105	-0.172371
H137	H	0.521289	0.317502	-0.265087
H138	H	0.532335	0.232701	-0.316715
H139	H	0.445850	0.288121	-0.317204
C140	C	0.442817	0.028730	-0.155140
C141	C	0.481967	-0.054428	-0.154790
C142	C	0.457345	-0.096641	-0.230501
H143	H	0.459098	0.056817	-0.207049
H144	H	0.383270	0.028406	-0.154817
H145	H	0.541501	-0.054100	-0.155121
H146	H	0.465691	-0.082537	-0.102898
H147	H	0.397798	-0.096965	-0.230178
H148	H	0.473627	-0.068548	-0.282405
H149	H	0.483898	-0.153071	-0.230270
