data_functionalizedCrystal
_audit_creation_method	'MofGen! by Chris Wilmer'
_symmetry_space_group_name_H-M	'P1'
_symmetry_Int_Tables_number	1
_symmetry_cell_setting	triclinic
loop_
_symmetry_equiv_pos_as_xyz
  x,y,z
_cell_length_a	14.519709
_cell_length_b	10.654550
_cell_length_c	13.596369
_cell_angle_alpha	90.009829
_cell_angle_beta	89.999047
_cell_angle_gamma	95.917476
loop_
_atom_site_label
_atom_site_type_symbol
_atom_site_fract_x
_atom_site_fract_y
_atom_site_fract_z
O1	O	0.129526	-1.666600	-0.081875
O2	O	0.141867	-1.301003	-0.081859
O3	O	0.001508	-1.493495	-0.081858
O4	O	0.269884	-1.474108	-0.081875
O5	O	0.001517	-1.493470	0.081725
O6	O	0.141875	-1.300978	0.081724
O7	O	0.129534	-1.666575	0.081708
Zn8	Zn	0.135706	-1.483772	0.107688
Zn9	Zn	0.135695	-1.483805	-0.107839
O10	O	0.269893	-1.474083	0.081708
C11	C	-0.032852	-1.492579	-0.000067
C12	C	-0.135247	-1.489871	-0.000066
C13	C	0.140965	-1.254201	-0.000066
C14	C	0.138254	-1.114784	-0.000059
C15	C	0.130436	-1.713377	-0.000087
C16	C	0.133147	-1.852794	-0.000100
C17	C	-0.510195	-1.479904	-0.000091
C18	C	-0.405873	-1.482672	-0.000084
C19	C	-0.322725	-1.484887	-0.000078
C20	C	-0.218396	-1.487656	-0.000072
C21	C	0.304253	-1.474999	-0.000086
C22	C	0.406648	-1.477707	-0.000093
N23	N	0.135714	-1.483759	0.254780
C24	C	0.220895	-1.034504	-0.000079
C25	C	0.218342	-0.903507	-0.000096
C26	C	0.050500	-0.933085	-0.000078
C27	C	0.053054	-1.064078	-0.000054
C28	C	0.306095	-1.085209	-0.000084
C29	C	0.388743	-1.004928	-0.000105
C30	C	0.386190	-0.873931	-0.000122
C31	C	0.300989	-0.823217	-0.000118
C32	C	0.135716	-1.483764	0.343778
C33	C	0.135711	-1.483776	0.455429
C34	C	0.135701	-1.483791	0.544420
C35	C	0.135697	-1.483805	0.656078
N36	N	0.135687	-1.483820	0.745069
H37	H	0.308183	-1.191871	-0.000075
H38	H	0.458110	-1.046229	-0.000100
H39	H	-0.014240	-1.129445	-0.000040
H40	H	-0.018867	-0.891782	-0.000091
N41	N	0.470615	-0.791943	-0.000128
N42	N	0.546676	-0.837238	-0.000127
H43	H	0.606305	-0.779336	-0.000133
N44	N	0.298374	-0.689408	-0.000101
N45	N	0.334699	-0.624320	0.068853
H46	H	0.332850	-0.529818	0.068868
