data_functionalizedCrystal
_audit_creation_method	'MofGen! by Chris Wilmer'
_symmetry_space_group_name_H-M	'P1'
_symmetry_Int_Tables_number	1
_symmetry_cell_setting	triclinic
loop_
_symmetry_equiv_pos_as_xyz
  x,y,z
_cell_length_a	10.723024
_cell_length_b	9.798715
_cell_length_c	10.723024
_cell_angle_alpha	90.001312
_cell_angle_beta	95.532131
_cell_angle_gamma	89.996219
loop_
_atom_site_label
_atom_site_type_symbol
_atom_site_fract_x
_atom_site_fract_y
_atom_site_fract_z
O1	O	-1.657187	0.113495	0.175025
O2	O	-1.294034	0.113495	0.191778
O3	O	-1.483987	0.113493	0.001825
O4	O	-1.467234	0.113497	0.364978
O5	O	-1.483974	-0.113489	0.001824
O6	O	-1.294021	-0.113487	0.191777
O7	O	-1.657174	-0.113487	0.175023
Zn8	Zn	-1.475595	-0.149525	0.183400
Zn9	Zn	-1.475613	0.149533	0.183402
O10	O	-1.467221	-0.113485	0.364976
C11	C	-1.247528	0.000004	0.190558
C12	C	-1.108974	0.000004	0.186911
C13	C	-1.033991	0.000005	0.293198
C14	C	-0.890788	0.000005	0.289431
N15	N	-1.475592	-0.353625	0.183398
C16	C	-1.555546	-0.578558	0.103469
C17	C	-1.555529	-0.421395	0.103471
C18	C	-0.703680	0.000004	0.176243
C19	C	-0.842234	0.000004	0.179891
C20	C	-1.468447	0.000006	0.411477
C21	C	-1.472094	0.000008	0.550031
N22	N	-1.475625	0.353633	0.183394
C23	C	-1.482762	0.000004	-0.044675
C24	C	-1.479114	0.000012	-0.183229
C25	C	-1.365807	0.000009	0.625014
C26	C	-1.369574	0.000011	0.768217
H27	H	-0.826355	0.000012	0.380421
N28	N	-1.589765	-0.000008	0.602462
N29	N	-1.689695	-0.000017	0.532039
H30	H	-1.772805	-0.000031	0.569064
N31	N	-1.086422	0.000016	0.410869
N32	N	-1.016000	0.000019	0.510799
H33	H	-1.053025	0.000026	0.593909
N34	N	-0.923047	-0.000028	0.065733
N35	N	-0.917909	-0.095715	-0.010694
H36	H	-0.974992	-0.095741	-0.091319
H37	H	-1.278584	0.000002	0.832650
H38	H	-1.570109	0.000005	0.752346
H39	H	-1.067152	0.000037	0.093125
N40	N	-1.248133	0.000014	0.572587
N41	N	-1.172460	0.095688	0.596347
H42	H	-1.089347	0.095690	0.559327
H43	H	-1.623987	-0.636852	0.035045
N44	N	-1.641352	-0.348231	0.017623
N45	N	-1.641213	-0.220666	0.017741
H46	H	-1.701827	-0.168990	-0.042892
H47	H	-1.407194	-0.588070	0.251827
N48	N	-1.389729	-0.426759	0.269228
N49	N	-1.311996	-0.506529	0.228874
H50	H	-1.251352	-0.558189	0.289490
