data_functionalizedCrystal
_audit_creation_method	'MofGen! by Chris Wilmer'
_symmetry_space_group_name_H-M	'P1'
_symmetry_Int_Tables_number	1
_symmetry_cell_setting	triclinic
loop_
_symmetry_equiv_pos_as_xyz
  x,y,z
_cell_length_a	19.077442
_cell_length_b	12.759401
_cell_length_c	12.759386
_cell_angle_alpha	89.956491
_cell_angle_beta	87.636484
_cell_angle_gamma	87.726198
loop_
_atom_site_label
_atom_site_type_symbol
_atom_site_fract_x
_atom_site_fract_y
_atom_site_fract_z
Zn1	Zn	-0.279950	1.623206	-0.577213
Zn2	Zn	-0.397731	1.630053	-0.394467
Zn3	Zn	-0.280050	1.447440	-0.401544
Zn4	Zn	-0.397613	1.454516	-0.570113
O5	O	-0.338836	1.538804	-0.485834
O6	O	-0.295582	1.771136	-0.552981
O7	O	-0.382211	1.605733	-0.248379
O8	O	-0.181545	1.464929	-0.430779
O9	O	-0.382115	1.776166	-0.418719
O10	O	-0.181471	1.594064	-0.559843
O11	O	-0.295751	1.471568	-0.253578
O12	O	-0.295637	1.301357	-0.423895
O13	O	-0.381914	1.476989	-0.718082
O14	O	-0.382010	1.306556	-0.547742
O15	O	-0.295467	1.600925	-0.723298
O16	O	-0.496207	1.612594	-0.411834
O17	O	-0.496120	1.483628	-0.540881
C18	C	-0.338822	1.265836	-0.485817
C19	C	-0.338833	1.149060	-0.485833
C20	C	-0.293813	0.981732	-0.421480
C21	C	-0.293799	1.091456	-0.421468
C22	C	-0.383879	1.096935	-0.550221
C23	C	-0.383888	0.987213	-0.550237
C24	C	-0.241809	0.978570	-0.347142
C25	C	-0.241795	1.088293	-0.347131
C26	C	-0.521702	1.549650	-0.474842
C27	C	-0.599932	1.554387	-0.470175
C28	C	-1.040291	1.588283	-0.436668
C29	C	-0.966785	1.583824	-0.441056
C30	C	-0.930014	1.514401	-0.510386
C31	C	-0.966754	1.449426	-0.575325
C32	C	-1.040259	1.453881	-0.570932
C33	C	-0.710177	1.493867	-0.530720
C34	C	-0.636667	1.489419	-0.535111
C35	C	-0.636702	1.623816	-0.400840
C36	C	-0.710209	1.628269	-0.396457
C37	C	-0.746942	1.563290	-0.461392
N38	N	-0.854879	1.509843	-0.514875
N39	N	-0.822076	1.567844	-0.456897
C40	C	-0.155256	1.527943	-0.496892
C41	C	-0.077025	1.523315	-0.501605
C42	C	-0.338666	1.538983	-0.759878
C43	C	-0.338594	1.539059	-0.876660
C44	C	-0.338850	1.812838	-0.485853
C45	C	-0.338856	1.929615	-0.485861
C46	C	-0.338954	1.538683	-0.212860
C47	C	-0.338828	1.538799	-0.096091
C48	C	-0.293321	1.603013	0.065452
C49	C	-0.293436	1.602881	-0.044265
C50	C	-0.384103	1.474837	-0.038194
C51	C	-0.383984	1.474965	0.071520
C52	C	-0.240977	1.676942	0.061946
C53	C	-0.241092	1.676809	-0.047771
H54	H	-1.070224	1.644821	-0.380218
H55	H	-0.420561	0.944783	-0.602671
H56	H	-0.421056	1.422651	-0.080400
C57	C	-0.433414	1.160296	-0.621028
C58	C	-0.488646	1.238974	-0.572041
C59	C	-0.538184	1.302333	-0.642849
C60	C	-0.532489	1.287015	-0.762643
C61	C	-0.477255	1.208334	-0.811636
C62	C	-0.427718	1.144974	-0.740828
H63	H	-0.492864	1.250316	-0.483357
H64	H	-0.579072	1.360578	-0.606580
H65	H	-0.569160	1.333917	-0.815059
H66	H	-0.473038	1.196991	-0.900320
H67	H	-0.386830	1.086729	-0.777097
C68	C	-0.926381	1.655296	-0.369624
C69	C	-0.936601	1.647358	-0.249571
C70	C	-0.896200	1.718834	-0.178133
C71	C	-0.845578	1.798247	-0.226748
C72	C	-0.835356	1.806187	-0.346808
C73	C	-0.875757	1.734712	-0.418246
H74	H	-0.974076	1.588569	-0.213578
H75	H	-0.903768	1.712955	-0.089257
H76	H	-0.815671	1.851157	-0.173866
H77	H	-0.797880	1.864977	-0.382801
H78	H	-0.868189	1.740591	-0.507122
H79	H	-0.187308	0.945573	-0.372344
C80	C	-0.260341	1.788029	-0.086988
C81	C	-0.208396	1.845880	-0.159814
C82	C	-0.227647	1.957095	-0.199026
C83	C	-0.298843	2.010459	-0.165412
C84	C	-0.350792	1.952608	-0.092582
C85	C	-0.331541	1.841393	-0.053370
H86	H	-0.155688	1.806377	-0.184701
H87	H	-0.189190	1.999920	-0.252940
H88	H	-0.313094	2.092788	-0.194439
H89	H	-0.403500	1.992111	-0.067696
H90	H	-0.369998	1.798568	0.000544
C91	C	-0.171853	1.130153	-0.390861
C92	C	-0.111934	1.052979	-0.428346
C93	C	-0.041995	1.094841	-0.472079
C94	C	-0.031975	1.213879	-0.478327
C95	C	-0.091896	1.291061	-0.440840
C96	C	-0.161835	1.249198	-0.397107
H97	H	-0.119349	0.964853	-0.423722
H98	H	0.002362	1.037705	-0.499829
H99	H	0.019798	1.244868	-0.510700
H100	H	-0.084481	1.379186	-0.445464
H101	H	-0.206192	1.306334	-0.369358
H102	H	-0.261306	0.945626	-0.268635
H103	H	-0.256360	1.118865	-0.264845
H104	H	-1.070167	1.400982	-0.623815
C105	C	-0.596294	1.695282	-0.329409
C106	C	-0.545858	1.646705	-0.249900
C107	C	-0.505450	1.718172	-0.178463
C108	C	-0.515477	1.838216	-0.186535
C109	C	-0.565915	1.886799	-0.266047
C110	C	-0.606324	1.815332	-0.337484
H111	H	-0.538433	1.557837	-0.243921
H112	H	-0.468112	1.682207	-0.119602
H113	H	-0.485565	1.891120	-0.133653
H114	H	-0.573340	1.975668	-0.272025
H115	H	-0.643661	1.851297	-0.396345
C116	C	-0.750573	1.422396	-0.602158
C117	C	-0.740532	1.302354	-0.594089
C118	C	-0.780929	1.230878	-0.665532
C119	C	-0.831367	1.279445	-0.745045
C120	C	-0.841409	1.399493	-0.753118
C121	C	-0.801012	1.470968	-0.681674
H122	H	-0.703194	1.266396	-0.535226
H123	H	-0.773495	1.142010	-0.659556
H124	H	-0.861271	1.226534	-0.797932
H125	H	-0.878748	1.435450	-0.811981
H126	H	-0.808447	1.559836	-0.687650
H127	H	-0.936812	1.392895	-0.631772
C128	C	-0.167440	1.642400	0.097534
C129	C	-0.108277	1.614418	0.015373
C130	C	-0.034743	1.579876	0.050962
C131	C	-0.020372	1.573316	0.168712
C132	C	-0.079537	1.601299	0.250880
C133	C	-0.153071	1.635841	0.215292
H134	H	-0.118914	1.619273	-0.071799
H135	H	0.009055	1.559161	-0.009866
H136	H	0.034063	1.547746	0.195057
H137	H	-0.068900	1.596444	0.338053
H138	H	-0.196869	1.656556	0.276119
H139	H	-0.740142	1.684799	-0.339999
H140	H	-0.606732	1.432883	-0.591573
H141	H	-0.420847	1.422883	0.118649
H142	H	-0.260097	1.755615	0.097049
H143	H	-0.189489	1.644004	-0.085046
