data_functionalizedCrystal
_audit_creation_method	'MofGen! by Chris Wilmer'
_symmetry_space_group_name_H-M	'P1'
_symmetry_Int_Tables_number	1
_symmetry_cell_setting	triclinic
loop_
_symmetry_equiv_pos_as_xyz
  x,y,z
_cell_length_a	14.519731
_cell_length_b	14.519709
_cell_length_c	11.804365
_cell_angle_alpha	101.851959
_cell_angle_beta	78.128556
_cell_angle_gamma	83.684499
loop_
_atom_site_label
_atom_site_type_symbol
_atom_site_fract_x
_atom_site_fract_y
_atom_site_fract_z
O1	O	1.242457	0.102395	-0.099032
O2	O	0.973983	0.116611	-0.099034
O3	O	1.115336	-0.024733	-0.099022
O4	O	1.101104	0.243739	-0.099043
O5	O	1.078123	0.012440	0.099031
O6	O	0.936770	0.153784	0.099019
O7	O	1.205244	0.139568	0.099021
Cu8	Cu	1.067609	0.150070	0.117104
Cu9	Cu	1.111618	0.106109	-0.117116
O10	O	1.063891	0.280912	0.099009
C11	C	0.921017	0.134531	-0.000007
C12	C	0.818637	0.132535	-0.000008
C13	C	1.096066	-0.040506	0.000005
C14	C	1.094078	-0.142888	0.000005
C15	C	0.735494	0.130912	-0.000013
C16	C	0.631185	0.128886	-0.000013
C17	C	0.548046	0.127277	-0.000013
C18	C	0.443731	0.125250	-0.000015
C19	C	1.086764	-0.517790	-0.000026
C20	C	1.088795	-0.413480	-0.000017
C21	C	1.090420	-0.330342	-0.000009
C22	C	1.092452	-0.226026	-0.000002
C23	C	1.258210	0.121647	-0.000008
C24	C	1.360592	0.123642	-0.000015
C25	C	1.083161	0.296685	-0.000020
C26	C	1.085151	0.399064	-0.000028
N27	N	1.036662	0.180989	0.281842
N28	N	1.142571	0.075182	-0.281854
C29	C	1.216885	0.000916	0.655806
C30	C	1.240295	-0.022479	0.531146
C31	C	1.189389	0.028386	0.468814
C32	C	1.115069	0.102650	0.531154
C33	C	1.091662	0.126051	0.655826
C34	C	1.064165	0.153522	0.468834
C35	C	0.989845	0.227785	0.531174
C36	C	0.966441	0.251183	0.655833
C37	C	1.017348	0.200318	0.718166
C38	C	1.087572	0.130120	0.344162
C39	C	0.962349	0.255256	0.344182
C40	C	0.938939	0.278650	0.468842
H41	H	1.208453	0.009335	0.367310
O42	O	0.994454	0.223139	0.839264
C43	C	0.917964	0.299613	0.880925
H44	H	0.876545	0.302095	0.809092
H45	H	0.946831	0.369376	0.903040
C46	C	0.902235	0.282508	1.081821
C47	C	0.851359	0.285551	0.993598
H48	H	0.861152	0.273838	1.151326
H49	H	0.953771	0.230989	1.053754
H50	H	0.926289	0.340646	1.100236
H51	H	0.827317	0.227410	0.975174
H52	H	0.799818	0.337061	1.021664
O53	O	1.312354	-0.094669	0.470348
C54	C	1.382934	-0.058986	0.397921
H55	H	1.377985	0.020741	0.435478
H56	H	1.371519	-0.071765	0.303588
C57	C	1.488219	-0.208365	0.349370
C58	C	1.482145	-0.110444	0.395505
H59	H	1.549417	-0.240109	0.347875
H60	H	1.440667	-0.232407	0.398162
H61	H	1.478701	-0.219001	0.270764
H62	H	1.491651	-0.099808	0.474114
H63	H	1.529702	-0.086401	0.346726
O64	O	0.894136	0.323225	0.716336
C65	C	0.808545	0.302318	0.685875
H66	H	0.814409	0.222048	0.651617
H67	H	0.795127	0.339789	0.613511
C68	C	0.718051	0.435884	0.838709
C69	C	0.725251	0.337294	0.796641
H70	H	0.666670	0.457463	0.907031
H71	H	0.775716	0.449973	0.859228
H72	H	0.706873	0.467097	0.778394
H73	H	0.736440	0.306083	0.856949
H74	H	0.667586	0.323202	0.776134
O75	O	0.912971	0.304810	0.283701
C76	C	0.922371	0.401858	0.314171
H77	H	0.989773	0.408910	0.348423
H78	H	0.857713	0.442412	0.386542
C79	C	0.846150	0.434900	0.161353
C80	C	0.928938	0.443560	0.203413
H81	H	0.850197	0.460626	0.093035
H82	H	0.839813	0.369517	0.140827
H83	H	0.792277	0.468695	0.221673
H84	H	0.982808	0.409756	0.143099
H85	H	0.935284	0.508939	0.223925
O86	O	1.266308	-0.048639	0.716229
C87	C	1.256865	-0.145679	0.685812
H88	H	1.238323	-0.162643	0.595299
H89	H	1.197731	-0.161124	0.755985
C90	C	1.374250	-0.187067	0.791231
C91	C	1.351485	-0.207904	0.680057
H92	H	1.432614	-0.225452	0.787686
H93	H	1.380610	-0.121689	0.811728
H94	H	1.324965	-0.199938	0.849697
H95	H	1.400764	-0.195022	0.621597
H96	H	1.345136	-0.273282	0.659550
O97	O	0.866632	0.350688	0.529353
C98	C	0.781040	0.329779	0.498895
H99	H	0.786910	0.249510	0.464623
H100	H	0.767614	0.367258	0.426541
C101	C	0.690543	0.463329	0.651750
C102	C	0.697749	0.364740	0.609666
H103	H	0.639164	0.484898	0.720076
H104	H	0.748207	0.477419	0.672268
H105	H	0.679358	0.494549	0.591445
H106	H	0.708945	0.333521	0.669966
H107	H	0.640084	0.350646	0.589161
H108	H	1.148084	0.069655	0.293416
