data_functionalizedCrystal
_audit_creation_method	'MofGen! by Chris Wilmer'
_symmetry_space_group_name_H-M	'P1'
_symmetry_Int_Tables_number	1
_symmetry_cell_setting	triclinic
loop_
_symmetry_equiv_pos_as_xyz
  x,y,z
_cell_length_a	17.699083
_cell_length_b	15.072220
_cell_length_c	17.699083
_cell_angle_alpha	89.991014
_cell_angle_beta	96.717152
_cell_angle_gamma	90.004144
loop_
_atom_site_label
_atom_site_type_symbol
_atom_site_fract_x
_atom_site_fract_y
_atom_site_fract_z
O1	O	-1.004076	-0.073769	0.095712
O2	O	-0.783698	-0.073775	0.108165
O3	O	-0.900113	-0.073764	-0.008251
O4	O	-0.887661	-0.073780	0.212128
O5	O	-0.900103	0.073801	-0.008262
O6	O	-0.783688	0.073791	0.108154
O7	O	-1.004066	0.073796	0.095701
Zn8	Zn	-0.893875	0.097222	0.101926
Zn9	Zn	-0.893889	-0.097201	0.101940
O10	O	-0.887651	0.073785	0.212117
C11	C	-0.755496	0.000007	0.107713
C12	C	-0.671478	0.000006	0.106375
N13	N	-0.893872	0.229911	0.101916
C14	C	-0.632005	0.080444	0.105739
C15	C	-0.553063	0.080445	0.104469
C16	C	-0.513594	0.000006	0.103841
C17	C	-0.553072	-0.080439	0.104476
C18	C	-0.632014	-0.080438	0.105740
C19	C	-0.234710	-0.080441	0.099376
C20	C	-0.155762	-0.080435	0.098114
C21	C	-0.155758	0.080443	0.098105
C22	C	-0.234700	0.080443	0.099370
C23	C	-0.274172	-0.000002	0.100000
C24	C	-0.359771	-0.000001	0.101375
C25	C	-0.427996	0.000005	0.102472
C26	C	-0.893881	0.410909	0.101925
C27	C	-0.956187	0.448556	0.039655
C28	C	-0.956412	0.551381	0.039820
C29	C	-0.893890	0.589113	0.101934
C30	C	-0.910666	0.551762	0.180972
C31	C	-0.911108	0.448904	0.180602
C32	C	-0.814611	0.448827	0.085870
C33	C	-0.815151	0.551692	0.084080
C34	C	-0.893893	0.689826	0.101944
C35	C	-0.893879	0.310195	0.101921
C36	C	-0.032269	0.000011	0.096148
C37	C	-0.116289	0.000005	0.097472
C38	C	-0.899662	0.000019	-0.036453
C39	C	-0.898323	0.000019	-0.120471
N40	N	-0.893899	0.770110	0.101944
C41	C	-0.966657	0.000022	-0.169092
C42	C	-0.965395	0.000014	-0.248036
C43	C	-0.895798	0.000010	-0.278356
C44	C	-0.827459	0.000004	-0.229729
C45	C	-0.828722	0.000006	-0.150787
C46	C	-0.822364	-0.000003	-0.548092
C47	C	-0.821106	-0.000002	-0.627040
C48	C	-0.959036	0.000005	-0.645341
C49	C	-0.960299	0.000007	-0.566399
C50	C	-0.891961	-0.000003	-0.517778
C51	C	-0.893331	0.000003	-0.432179
C52	C	-0.894428	0.000009	-0.363954
C53	C	-0.888102	0.000001	0.240319
C54	C	-0.889441	-0.000006	0.324337
H55	H	-0.520929	0.145946	0.103938
C56	C	-0.277420	0.167870	0.100009
C57	C	-0.225957	0.238317	0.099158
C58	C	-0.265284	0.318869	0.099733
H59	H	-0.302365	0.171338	0.144608
H60	H	-0.314056	0.171262	0.056364
H61	H	-0.189335	0.234927	0.142799
H62	H	-0.201011	0.234878	0.054562
H63	H	-0.301920	0.322261	0.056088
H64	H	-0.290227	0.322328	0.144333
H65	H	-0.230373	0.366677	0.099149
C66	C	-0.986814	0.586032	0.200420
C67	C	-1.000839	0.552070	0.271086
C68	C	-1.070977	0.583627	0.289025
H69	H	-1.026037	0.567512	0.162453
H70	H	-0.985650	0.649004	0.202634
H71	H	-1.002010	0.489112	0.268866
H72	H	-0.961635	0.570587	0.309068
H73	H	-1.069812	0.646598	0.291239
H74	H	-1.110193	0.565105	0.251054
H75	H	-1.080498	0.560595	0.336976
H76	H	-0.664151	-0.145940	0.106260
H77	H	-0.123611	0.145944	0.097589
C78	C	-0.277634	-0.167715	0.100190
C79	C	-0.314332	-0.172415	0.165995
C80	C	-0.353891	-0.252798	0.166767
H81	H	-0.242898	-0.215690	0.099679
H82	H	-0.314325	-0.171071	0.056587
H83	H	-0.277645	-0.169068	0.209587
H84	H	-0.349081	-0.124458	0.166520
H85	H	-0.390582	-0.256154	0.123164
H86	H	-0.319150	-0.300767	0.166254
H87	H	-0.378801	-0.255994	0.211412
H88	H	-0.520931	-0.145933	0.103959
H89	H	-0.946445	0.423815	-0.019287
H90	H	-0.766719	-0.000011	-0.508514
C91	C	-0.750370	0.585839	0.140544
C92	C	-0.681439	0.550849	0.122468
C93	C	-0.621749	0.582280	0.174475
H94	H	-0.758292	0.567971	0.190482
H95	H	-0.748708	0.648769	0.138136
H96	H	-0.683102	0.487933	0.124883
H97	H	-0.673492	0.568714	0.072539
H98	H	-0.620087	0.645210	0.172067
H99	H	-0.629679	0.564410	0.224409
H100	H	-0.574973	0.558551	0.162213
C101	C	-1.034260	0.414152	0.053007
C102	C	-1.089096	0.448244	-0.002899
C103	C	-1.161022	0.416560	0.009373
H104	H	-1.045561	0.432489	0.101788
H105	H	-1.034554	0.351188	0.050460
H106	H	-1.088803	0.511194	-0.000345
H107	H	-1.077820	0.429910	-0.051685
H108	H	-1.161316	0.353597	0.006826
H109	H	-1.172315	0.434899	0.058156
H110	H	-1.198236	0.439681	-0.028560
H111	H	-0.798373	0.422898	0.029458
C112	C	-0.674872	0.167754	0.106576
C113	C	-0.711537	0.172464	0.172400
C114	C	-0.751022	0.252888	0.173200
H115	H	-0.711578	0.171187	0.063002
H116	H	-0.640073	0.215685	0.106054
H117	H	-0.746333	0.124546	0.172915
H118	H	-0.674848	0.169047	0.215985
H119	H	-0.716223	0.300819	0.172678
H120	H	-0.787724	0.256314	0.129623
H121	H	-0.775898	0.256098	0.217864
C122	C	-0.112848	-0.167747	0.097584
C123	C	-0.058904	-0.172465	0.161960
C124	C	-0.019364	-0.252883	0.161503
H125	H	-0.087838	-0.171165	0.053023
H126	H	-0.147632	-0.215683	0.098179
H127	H	-0.024125	-0.124541	0.161357
H128	H	-0.083894	-0.169062	0.206530
H129	H	-0.054149	-0.300819	0.162098
H130	H	0.005641	-0.256294	0.116940
H131	H	0.017236	-0.256098	0.205184
C132	C	-0.851677	0.584174	0.244274
C133	C	-0.814034	0.511218	0.280314
C134	C	-0.759682	0.541043	0.338623
H135	H	-0.876141	0.616974	0.280264
H136	H	-0.815867	0.621084	0.223385
H137	H	-0.849839	0.474322	0.301204
H138	H	-0.789555	0.478410	0.244345
H139	H	-0.723871	0.577953	0.317734
H140	H	-0.784152	0.573843	0.374607
H141	H	-0.734130	0.491548	0.363078
H142	H	-0.946493	0.576636	-0.018927
H143	H	-1.015248	0.575982	0.050097
H144	H	-0.968905	0.424907	0.194726
H145	H	-1.014680	0.000009	-0.684937
C146	C	-0.798194	0.584068	0.006488
C147	C	-0.790318	0.511060	-0.040864
C148	C	-0.774714	0.540854	-0.112352
H149	H	-0.752333	0.617406	0.011976
H150	H	-0.838825	0.620456	-0.015380
H151	H	-0.749691	0.474687	-0.019001
H152	H	-0.836171	0.477714	-0.046375
H153	H	-0.815344	0.577242	-0.134220
H154	H	-0.728854	0.574193	-0.106856
H155	H	-0.769375	0.491324	-0.144492
C156	C	-0.751973	0.000045	-0.262793
C157	C	-0.765490	0.000070	-0.342333
C158	C	-0.695969	0.000123	-0.372815
H159	H	-0.723788	-0.051401	-0.246173
H160	H	-0.723833	0.051524	-0.246142
H161	H	-0.793618	-0.051403	-0.358977
H162	H	-0.793664	0.051513	-0.358974
H163	H	-0.667829	0.051602	-0.356165
H164	H	-0.667789	-0.051324	-0.356190
H165	H	-0.705131	0.000149	-0.426786
H166	H	-0.768250	0.424480	0.131280
H167	H	-0.773078	0.000003	-0.111200
C168	C	-1.042298	-0.000021	-0.136324
C169	C	-1.101871	-0.000047	-0.195805
C170	C	-1.171564	-0.000104	-0.165650
H171	H	-1.045767	0.051423	-0.105927
H172	H	-1.045700	-0.051502	-0.105925
H173	H	-1.098470	0.051428	-0.226191
H174	H	-1.098428	-0.051488	-0.226206
H175	H	-1.174966	-0.051584	-0.135251
H176	H	-1.175024	0.051342	-0.135254
H177	H	-1.211992	-0.000129	-0.206003
H178	H	-0.867304	0.423998	0.228229
H179	H	-1.021039	0.000018	-0.287620
H180	H	-1.016972	0.000015	-0.541717
H181	H	-0.764429	-0.000004	-0.651723
