data_functionalizedCrystal
_audit_creation_method	'MofGen! by Chris Wilmer'
_symmetry_space_group_name_H-M	'P1'
_symmetry_Int_Tables_number	1
_symmetry_cell_setting	triclinic
loop_
_symmetry_equiv_pos_as_xyz
  x,y,z
_cell_length_a	11.792254
_cell_length_b	10.489741
_cell_length_c	10.268362
_cell_angle_alpha	89.995004
_cell_angle_beta	89.995475
_cell_angle_gamma	84.368886
loop_
_atom_site_label
_atom_site_type_symbol
_atom_site_fract_x
_atom_site_fract_y
_atom_site_fract_z
O1	O	1.507372	0.174910	-0.108298
O2	O	1.177082	0.192911	-0.108301
O3	O	1.349742	-0.001713	-0.108292
O4	O	1.334711	0.369533	-0.108308
O5	O	1.349727	-0.001721	0.108309
O6	O	1.177066	0.192903	0.108299
O7	O	1.507357	0.174902	0.108302
Cu8	Cu	1.342210	0.183901	0.128078
Cu9	Cu	1.342228	0.183911	-0.128077
O10	O	1.334696	0.369525	0.108293
C11	C	1.134780	0.191773	-0.000001
C12	C	1.008758	0.188379	-0.000002
C13	C	0.906414	0.185621	-0.000008
C14	C	0.778018	0.182173	-0.000008
C15	C	1.348600	-0.049245	0.000008
C16	C	1.345203	-0.190863	0.000005
C17	C	1.235344	-0.258634	-0.000005
C18	C	1.287233	-0.350935	0.106791
C19	C	1.287274	-0.350901	-0.106761
C20	C	1.397137	-0.281298	0.106889
C21	C	1.397163	-0.281255	-0.106758
C22	C	1.449132	-0.373529	0.000064
C23	C	1.549658	0.176040	-0.000001
C24	C	1.675680	0.179434	-0.000008
C25	C	1.335839	0.417057	-0.000009
C26	C	1.339235	0.558675	-0.000016
N27	N	1.342206	0.183894	0.308244
N28	N	1.342241	0.183909	-0.308243
C29	C	1.342222	0.183908	0.573915
C30	C	1.342210	0.183904	0.426077
H31	H	1.145019	-0.208680	0.000102
H32	H	1.240782	-0.381706	-0.197057
H33	H	1.240743	-0.381794	0.197078
C34	C	1.571255	-0.440721	0.000143
H35	H	1.610084	-0.416900	0.076076
H36	H	1.610580	-0.415810	-0.075000
H37	H	1.568438	-0.530917	-0.000567
H38	H	1.443574	-0.250625	0.197278
C39	C	1.459910	-0.239507	-0.228730
H40	H	1.420776	-0.263073	-0.304543
H41	H	1.535428	-0.280434	-0.229499
H42	H	1.462212	-0.149242	-0.227414
