data_functionalizedCrystal
_audit_creation_method	'MofGen! by Chris Wilmer'
_symmetry_space_group_name_H-M	'P1'
_symmetry_Int_Tables_number	1
_symmetry_cell_setting	triclinic
loop_
_symmetry_equiv_pos_as_xyz
  x,y,z
_cell_length_a	17.038278
_cell_length_b	17.038272
_cell_length_c	13.930277
_cell_angle_alpha	89.995405
_cell_angle_beta	89.992706
_cell_angle_gamma	91.111028
loop_
_atom_site_label
_atom_site_type_symbol
_atom_site_fract_x
_atom_site_fract_y
_atom_site_fract_z
O1	O	1.048757	0.170527	-0.079840
O2	O	1.548757	0.670527	0.420160
O3	O	0.820946	0.167821	-0.079840
O4	O	1.320946	0.667821	0.420160
O5	O	0.933497	0.055268	-0.079833
O6	O	1.433497	0.555268	0.420167
O7	O	0.936205	0.283080	-0.079848
O8	O	1.436205	0.783080	0.420152
O9	O	0.933481	0.055264	0.079829
O10	O	1.433481	0.555264	0.579829
O11	O	0.820929	0.167817	0.079821
O12	O	1.320929	0.667817	0.579821
O13	O	1.048740	0.170523	0.079822
O14	O	1.548740	0.670523	0.579822
Zn15	Zn	0.934832	0.169170	0.105171
Zn16	Zn	1.434832	0.669170	0.605171
Zn17	Zn	0.934854	0.169174	-0.105190
Zn18	Zn	1.434854	0.669174	0.394810
O19	O	0.936188	0.283076	0.079814
O20	O	1.436188	0.783076	0.579814
C21	C	0.791645	0.165356	-0.000010
C22	C	1.291645	0.665356	0.499990
C23	C	0.704361	0.158009	-0.000009
C24	C	1.204361	0.658009	0.499991
C25	C	0.210935	0.112872	-0.000010
C26	C	0.710935	0.612872	0.499990
C27	C	0.292947	0.119781	-0.000005
C28	C	0.792947	0.619781	0.499995
C29	C	0.329347	0.194155	-0.000014
C30	C	0.829347	0.694155	0.499986
C31	C	0.283730	0.261623	-0.000019
C32	C	0.783730	0.761623	0.499981
C33	C	0.201720	0.254713	-0.000017
C34	C	0.701720	0.754713	0.499983
C35	C	0.576734	0.218567	-0.000013
C36	C	1.076734	0.718567	0.499987
C37	C	0.658751	0.225473	-0.000017
C38	C	1.158751	0.725473	0.499983
C39	C	0.667962	0.083630	-0.000001
C40	C	1.167962	0.583630	0.499999
C41	C	0.585949	0.076726	-0.000005
C42	C	1.085949	0.576726	0.499995
C43	C	0.540340	0.144194	-0.000005
C44	C	1.040340	0.644194	0.499995
C45	C	0.413176	0.201219	-0.000012
C46	C	0.913176	0.701219	0.499988
C47	C	0.456513	0.137129	-0.000001
C48	C	0.956513	0.637129	0.499999
C49	C	0.931026	0.025974	-0.000002
C50	C	1.431026	0.525974	0.499998
C51	C	0.923678	-0.061310	-0.000002
C52	C	1.423678	0.438690	0.499998
C53	C	0.991142	-0.106920	-0.000001
C54	C	1.491142	0.393080	0.499999
C55	C	0.984233	-0.188932	-0.000010
C56	C	1.484233	0.311068	0.499990
C57	C	0.909859	-0.225332	-0.000014
C58	C	1.409859	0.274668	0.499986
C59	C	0.842391	-0.179716	-0.000018
C60	C	1.342391	0.320284	0.499982
C61	C	0.849300	-0.097706	-0.000015
C62	C	1.349300	0.402294	0.499985
C63	C	0.885449	-0.472720	-0.000027
C64	C	1.385449	0.027280	0.499973
C65	C	0.878544	-0.554736	-0.000026
C66	C	1.378544	-0.054736	0.499974
C67	C	1.020387	-0.563946	-0.000021
C68	C	1.520387	-0.063946	0.499979
C69	C	1.027290	-0.481934	-0.000013
C70	C	1.527290	0.018066	0.499987
C71	C	0.959821	-0.436325	-0.000022
C72	C	1.459821	0.063675	0.499978
C73	C	0.902796	-0.309161	-0.000020
C74	C	1.402796	0.190839	0.499980
C75	C	0.966886	-0.352497	-0.000022
C76	C	1.466886	0.147503	0.499978
C77	C	1.078041	0.172988	-0.000011
C78	C	1.578041	0.672988	0.499989
C79	C	1.165325	0.180335	-0.000018
C80	C	1.665325	0.680335	0.499982
C81	C	0.938660	0.312370	-0.000019
C82	C	1.438660	0.812370	0.499981
C83	C	0.946008	0.399654	-0.000025
C84	C	1.446008	0.899654	0.499975
N85	N	0.934822	0.169166	0.248737
N86	N	1.434822	0.669166	0.748737
N87	N	0.934869	0.169172	-0.248756
N88	N	1.434869	0.669172	0.251244
C89	C	0.885013	0.218992	0.701003
C90	C	1.385013	0.718992	1.201003
C91	C	0.984717	0.119352	0.700979
C92	C	1.484717	0.619352	1.200979
C93	C	0.984707	0.119349	0.600484
C94	C	1.484707	0.619349	1.100484
C95	C	0.934851	0.169169	0.550243
C96	C	1.434851	0.669169	1.050243
C97	C	0.885003	0.218992	0.600498
C98	C	1.385003	0.718992	1.100498
C99	C	1.034559	0.069533	0.550221
C100	C	1.534559	0.569533	1.050221
C101	C	1.034552	0.069529	0.449719
C102	C	1.534552	0.569529	0.949719
C103	C	0.984691	0.119345	0.399477
C104	C	1.484691	0.619345	0.899477
C105	C	0.934841	0.169169	0.449738
C106	C	1.434841	0.669169	0.949738
C107	C	0.884985	0.218989	0.399497
C108	C	1.384985	0.718989	0.899497
C109	C	0.835130	0.268810	0.449757
C110	C	1.335130	0.768810	0.949757
C111	C	0.835142	0.268808	0.550256
C112	C	1.335142	0.768808	1.050256
C113	C	0.984679	0.119346	0.298978
C114	C	1.484679	0.619346	0.798978
C115	C	0.884975	0.218989	0.298992
C116	C	1.384975	0.718989	0.798992
H117	H	1.051704	-0.077289	0.000007
H118	H	1.551704	0.422711	0.500007
H119	H	0.842240	-0.338808	-0.000020
H120	H	1.342240	0.161192	0.499980
H121	H	0.794540	0.309377	0.408839
H122	H	1.294540	0.809377	0.908839
N123	N	0.698013	0.305693	-0.000027
N124	N	1.198013	0.805693	0.499973
H125	H	0.656676	0.347386	-0.000024
H126	H	1.156676	0.847386	0.499976
H127	H	0.731836	0.311644	0.059159
H128	H	1.231836	0.811644	0.559159
N129	N	1.056997	-0.238126	-0.000004
N130	N	1.556997	0.261874	0.499996
H131	H	1.105160	-0.202622	0.000008
H132	H	1.605160	0.297378	0.500008
H133	H	1.057206	-0.272358	0.059185
H134	H	1.557206	0.227642	0.559185
H135	H	0.181305	0.052309	-0.000009
H136	H	0.681305	0.552309	0.499991
N137	N	0.546694	-0.003492	0.000012
N138	N	1.046694	0.496508	0.500012
H139	H	0.487820	0.002367	0.000009
H140	H	0.987820	0.502367	0.500009
H141	H	0.563048	-0.033254	-0.059174
H142	H	1.063048	0.466746	0.440826
N143	N	0.527512	0.291309	-0.000002
N144	N	1.027512	0.791309	0.499998
H145	H	0.493285	0.291572	0.059194
H146	H	0.993285	0.791572	0.559194
H147	H	0.563036	0.339454	-0.000042
H148	H	1.063036	0.839454	0.499958
N149	N	0.452442	0.281432	-0.000033
N150	N	0.952442	0.781432	0.499967
H151	H	0.436165	0.311232	-0.059227
H152	H	0.936165	0.811232	0.440773
H153	H	0.436140	0.311179	0.059186
H154	H	0.936140	0.811179	0.559186
N155	N	1.093156	-0.613133	-0.000026
N156	N	1.593156	-0.113133	0.499974
H157	H	1.125357	-0.600879	0.059161
H158	H	1.625357	-0.100879	0.559161
H159	H	1.077436	-0.670593	-0.000066
H160	H	1.577436	-0.170593	0.499934
N161	N	1.088314	0.015794	0.395509
N162	N	1.588314	0.515794	0.895509
H163	H	1.144654	0.028576	0.412977
H164	H	1.644654	0.528576	0.912977
H165	H	1.075499	-0.040529	0.413033
H166	H	1.575499	0.459471	0.913033
N167	N	0.781374	0.322539	0.604462
N168	N	1.281374	0.822539	1.104462
H169	H	0.788949	0.314981	0.675751
H170	H	1.288949	0.814981	1.175751
H171	H	0.794146	0.378860	0.586885
H172	H	1.294146	0.878860	1.086885
N173	N	0.322986	0.341842	-0.000023
N174	N	0.822986	0.841842	0.499977
H175	H	0.381860	0.335984	-0.000026
H176	H	0.881860	0.835984	0.499974
H177	H	0.306642	0.371601	-0.059215
H178	H	0.806642	0.871601	0.440785
H179	H	0.844373	0.259556	0.258093
H180	H	1.344373	0.759556	0.758093
N181	N	0.717153	0.010864	0.000004
N182	N	1.217153	0.510864	0.500004
H183	H	0.774630	0.026524	0.000003
H184	H	1.274630	0.526524	0.500003
H185	H	0.704822	-0.021309	0.059198
H186	H	1.204822	0.478691	0.559198
H187	H	0.330080	0.064845	0.000006
H188	H	0.830080	0.564845	0.500006
H189	H	1.075155	0.028975	0.591130
H190	H	1.575155	0.528975	1.091130
N191	N	0.152522	0.327476	-0.000004
N192	N	0.652522	0.827476	0.499996
H193	H	0.188024	0.375640	-0.000005
H194	H	0.688024	0.875640	0.499995
H195	H	0.118292	0.327708	-0.059185
H196	H	0.618292	0.827708	0.440815
N197	N	1.038449	0.065625	0.244768
N198	N	1.538449	0.565625	0.744768
H199	H	1.070037	0.034068	0.291846
H200	H	1.570037	0.534068	0.791846
H201	H	1.006076	0.028885	0.203085
H202	H	1.506076	0.528885	0.703085
H203	H	0.426872	0.076575	-0.000004
H204	H	0.926872	0.576575	0.499996
N205	N	1.107507	-0.442675	-0.000003
N206	N	1.607507	0.057325	0.499997
H207	H	1.149198	-0.484014	-0.000004
H208	H	1.649198	0.015986	0.499996
H209	H	1.113472	-0.408842	-0.059189
H210	H	1.613472	0.091158	0.440811
N211	N	0.798324	-0.593999	-0.000031
N212	N	1.298324	-0.093999	0.499969
H213	H	0.756630	-0.552663	-0.000039
H214	H	1.256630	-0.052663	0.499961
H215	H	0.792382	-0.627823	-0.059219
H216	H	1.292382	-0.127823	0.440781
N217	N	0.812682	-0.423534	-0.000033
N218	N	1.312682	0.076466	0.499967
H219	H	0.764521	-0.459040	-0.000030
H220	H	1.264521	0.040960	0.499970
H221	H	0.812452	-0.389310	0.059156
H222	H	1.312452	0.110690	0.559156
N223	N	1.047099	-0.313239	-0.000008
N224	N	1.547099	0.186761	0.499992
H225	H	1.088794	-0.354574	-0.000003
H226	H	1.588794	0.145426	0.499997
H227	H	1.053065	-0.279407	-0.059194
H228	H	1.553065	0.220593	0.440806
H229	H	0.781834	-0.209360	-0.000026
H230	H	1.281834	0.290640	0.499974
H231	H	0.794364	-0.060571	-0.000016
H232	H	1.294364	0.439429	0.499984
N233	N	0.831238	0.272721	0.755202
N234	N	1.331238	0.772721	1.255202
H235	H	0.838804	0.265162	0.826493
H236	H	1.338804	0.765162	1.326493
H237	H	0.844010	0.329042	0.737629
H238	H	1.344010	0.829042	1.237629
H239	H	1.025313	0.078795	0.741889
H240	H	1.525313	0.578795	1.241889
