data_functionalizedCrystal
_audit_creation_method	'MofGen! by Chris Wilmer'
_symmetry_space_group_name_H-M	'P1'
_symmetry_Int_Tables_number	1
_symmetry_cell_setting	triclinic
loop_
_symmetry_equiv_pos_as_xyz
  x,y,z
_cell_length_a	17.699083
_cell_length_b	23.532357
_cell_length_c	16.776229
_cell_angle_alpha	89.987808
_cell_angle_beta	89.998886
_cell_angle_gamma	83.055654
loop_
_atom_site_label
_atom_site_type_symbol
_atom_site_fract_x
_atom_site_fract_y
_atom_site_fract_z
O1	O	1.003696	0.072022	-0.066186
O2	O	1.503696	0.572022	0.433814
O3	O	0.783268	0.081392	-0.066214
O4	O	1.283268	0.581392	0.433786
O5	O	0.900149	-0.006208	-0.066183
O6	O	1.400149	0.493792	0.433817
O7	O	0.886815	0.159621	-0.066217
O8	O	1.386815	0.659621	0.433783
O9	O	0.900133	-0.006213	0.066394
O10	O	1.400133	0.493787	0.566394
O11	O	0.783252	0.081386	0.066363
O12	O	1.283252	0.581386	0.566363
O13	O	1.003680	0.072016	0.066390
O14	O	1.503680	0.572016	0.566390
Zn15	Zn	0.893464	0.076700	0.087426
Zn16	Zn	1.393464	0.576700	0.587426
Zn17	Zn	0.893484	0.076708	-0.087249
Zn18	Zn	1.393484	0.576708	0.412751
O19	O	0.886800	0.159616	0.066359
O20	O	1.386800	0.659616	0.566359
C21	C	0.755065	0.081053	0.000071
C22	C	1.255065	0.581053	0.500071
C23	C	0.671052	0.080046	0.000062
C24	C	1.171052	0.580046	0.500062
C25	C	0.899807	-0.027428	0.000108
C26	C	1.399807	0.472572	0.500108
C27	C	0.898805	-0.090650	0.000115
C28	C	1.398805	0.409350	0.500115
C29	C	0.622158	0.131465	0.000051
C30	C	1.122158	0.631465	0.500051
C31	C	0.543220	0.130515	0.000062
C32	C	1.043220	0.630515	0.500062
C33	C	0.513177	0.078146	0.000077
C34	C	1.013177	0.578146	0.500077
C35	C	0.562077	0.026723	0.000090
C36	C	1.062077	0.526723	0.500090
C37	C	0.641014	0.027673	0.000085
C38	C	1.141014	0.527673	0.500085
C39	C	0.243735	0.022889	0.000110
C40	C	0.743735	0.522889	0.500110
C41	C	0.164792	0.021942	0.000113
C42	C	0.664792	0.521942	0.500113
C43	C	0.145940	0.125731	0.000087
C44	C	0.645940	0.625731	0.500087
C45	C	0.224877	0.126681	0.000082
C46	C	0.724877	0.626681	0.500082
C47	C	0.273770	0.075259	0.000099
C48	C	0.773770	0.575259	0.500099
C49	C	0.359364	0.076289	0.000089
C50	C	0.859364	0.576289	0.500089
C51	C	0.427585	0.077115	0.000081
C52	C	0.927585	0.577115	0.500081
C53	C	0.892518	-0.482676	-0.072196
C54	C	1.392518	0.017324	0.427804
C55	C	0.891565	-0.542078	-0.072201
C56	C	1.391565	-0.042078	0.427799
O57	O	0.891053	-0.572794	-0.133661
O58	O	1.391053	-0.072794	0.366339
N59	N	0.891084	-0.571794	0.000066
N60	N	1.391084	-0.071794	0.500066
C61	C	0.891548	-0.542103	0.072342
C62	C	1.391548	-0.042103	0.572342
O63	O	0.891051	-0.572833	0.133809
O64	O	1.391051	-0.072833	0.633809
C65	C	0.892496	-0.482701	0.072345
C66	C	1.392496	0.017299	0.572345
C67	C	0.892985	-0.452990	0.000074
C68	C	1.392985	0.047010	0.500074
C69	C	0.893006	-0.452964	-0.144461
C70	C	1.393006	0.047036	0.355539
C71	C	0.893960	-0.393566	-0.144456
C72	C	1.393960	0.106434	0.355544
C73	C	0.894427	-0.363880	-0.072186
C74	C	1.394427	0.136120	0.427814
C75	C	0.893939	-0.393592	0.000079
C76	C	1.393939	0.106408	0.500079
C77	C	0.892955	-0.453011	0.144620
C78	C	1.392955	0.046989	0.644620
C79	C	0.893902	-0.393606	0.144618
C80	C	1.393902	0.106394	0.644618
C81	C	0.894391	-0.363894	0.072347
C82	C	1.394391	0.136106	0.572347
C83	C	0.895360	-0.304508	0.072354
C84	C	1.395360	0.195492	0.572354
N85	N	0.895842	-0.274792	0.000088
N86	N	1.395842	0.225208	0.500088
C87	C	0.895375	-0.304479	-0.072182
C88	C	1.395375	0.195521	0.427818
C89	C	0.889557	-0.666850	0.072328
C90	C	1.389557	-0.166850	0.572328
C91	C	0.888614	-0.726252	0.072325
C92	C	1.388614	-0.226252	0.572325
C93	C	0.888630	-0.726222	-0.072217
C94	C	1.388630	-0.226222	0.427783
C95	C	0.889577	-0.666821	-0.072214
C96	C	1.389577	-0.166821	0.427786
C97	C	0.890038	-0.637135	0.000062
C98	C	1.390038	-0.137135	0.500062
C99	C	0.897380	-0.179739	-0.072166
C100	C	1.397380	0.320261	0.427834
C101	C	0.898338	-0.120336	-0.072155
C102	C	1.398338	0.379664	0.427845
C103	C	0.898319	-0.120370	0.072387
C104	C	1.398319	0.379630	0.572387
C105	C	0.897365	-0.179768	0.072376
C106	C	1.397365	0.320232	0.572376
C107	C	0.896893	-0.209451	0.000093
C108	C	1.396893	0.290549	0.500093
O109	O	0.895869	-0.273754	0.133784
O110	O	1.395869	0.226246	0.633784
O111	O	0.895862	-0.273740	-0.133640
O112	O	1.395862	0.226260	0.366360
C113	C	1.031883	0.072355	0.000104
C114	C	1.531883	0.572355	0.500104
C115	C	1.115896	0.073362	0.000108
C116	C	1.615896	0.573362	0.500108
C117	C	0.887141	0.180836	0.000067
C118	C	1.387141	0.680836	0.500067
C119	C	0.888144	0.244058	0.000054
C120	C	1.388144	0.744058	0.500054
N121	N	0.893456	0.076695	0.206637
N122	N	1.393456	0.576695	0.706637
N123	N	0.893499	0.076708	-0.206461
N124	N	1.393499	0.576708	0.293539
C125	C	0.945226	0.037922	0.248368
C126	C	1.445226	0.537922	0.748368
C127	C	0.945230	0.037922	0.331820
C128	C	1.445230	0.537922	0.831820
C129	C	0.893467	0.076697	0.373540
C130	C	1.393467	0.576697	0.873540
C131	C	0.841691	0.115473	0.331803
C132	C	1.341691	0.615473	0.831803
C133	C	0.841684	0.115470	0.248353
C134	C	1.341684	0.615470	0.748353
C135	C	0.841718	0.115484	0.668351
C136	C	1.341718	0.615484	1.168351
C137	C	0.841731	0.115485	0.751807
C138	C	1.341731	0.615485	1.251807
C139	C	0.945265	0.037935	0.751818
C140	C	1.445265	0.537935	1.251818
C141	C	0.945258	0.037933	0.668367
C142	C	1.445258	0.537933	1.168367
C143	C	0.893479	0.076706	0.626638
C144	C	1.393479	0.576706	1.126638
C145	C	0.893474	0.076705	0.536150
C146	C	1.393474	0.576705	1.036150
C147	C	0.893475	0.076701	0.464027
C148	C	1.393475	0.576701	0.964027
H149	H	0.646612	0.174111	0.000038
H150	H	1.146612	0.674111	0.500038
H151	H	0.987381	0.006349	0.214405
H152	H	1.487381	0.506349	0.714405
N153	N	0.785889	0.157305	0.796803
N154	N	1.285889	0.657305	1.296803
H155	H	0.752562	0.135568	0.831441
H156	H	1.252562	0.635568	1.331441
H157	H	0.814667	0.182489	0.831367
H158	H	1.314667	0.682489	1.331367
N159	N	0.896855	-0.211816	0.150326
N160	N	1.396855	0.288184	0.650326
H161	H	0.943385	-0.241147	0.153548
H162	H	1.443385	0.258853	0.653548
H163	H	0.897274	-0.183953	0.196059
H164	H	1.397274	0.316047	0.696059
H165	H	0.503413	0.172386	0.000052
H166	H	1.003413	0.672386	0.500052
H167	H	0.987423	0.006363	0.785803
H168	H	1.487423	0.506363	1.285803
N169	N	1.001079	-0.003893	0.623365
N170	N	1.501079	0.496107	1.123365
H171	H	1.034416	0.017837	0.588727
H172	H	1.534416	0.517837	1.088727
H173	H	1.033825	-0.028449	0.662512
H174	H	1.533825	0.471551	1.162512
H175	H	0.249333	0.169326	0.000066
H176	H	0.749333	0.669326	0.500066
H177	H	0.106121	0.167602	0.000077
H178	H	0.606121	0.667602	0.500077
H179	H	0.892623	-0.477128	-0.203316
H180	H	1.392623	0.022872	0.296684
N181	N	0.890070	-0.634841	0.150291
N182	N	1.390070	-0.134841	0.650291
H183	H	0.937389	-0.614881	0.153521
H184	H	1.437389	-0.114881	0.653521
H185	H	0.843508	-0.605540	0.153473
H186	H	1.343508	-0.105540	0.653473
H187	H	0.987385	0.006349	0.365797
H188	H	1.487385	0.506349	0.865797
N189	N	0.785871	0.157298	0.623349
N190	N	1.285871	0.657298	1.123349
H191	H	0.753083	0.181862	0.662443
H192	H	1.253083	0.681862	1.162443
H193	H	0.814637	0.182450	0.588706
H194	H	1.314637	0.682450	1.088706
N195	N	0.693749	-0.027788	0.000101
N196	N	1.193749	0.472212	0.500101
H197	H	0.684135	-0.050641	-0.049039
H198	H	1.184135	0.449359	0.450961
H199	H	0.748292	-0.019194	0.000129
H200	H	1.248292	0.480806	0.500129
H201	H	0.889974	-0.642633	-0.131063
H202	H	1.389974	-0.142633	0.368937
N203	N	0.898829	-0.088346	0.150333
N204	N	1.398829	0.411654	0.650333
H205	H	0.899505	-0.046208	0.139363
H206	H	1.399505	0.453792	0.639363
H207	H	0.851732	-0.094046	0.181885
H208	H	1.351732	0.405954	0.681885
H209	H	0.140335	-0.020706	0.000126
H210	H	0.640335	0.479294	0.500126
N211	N	0.785854	0.157292	0.376797
N212	N	1.285854	0.657292	0.876797
H213	H	0.793715	0.151412	0.435995
H214	H	1.293715	0.651412	0.935995
H215	H	0.794277	0.197687	0.362193
H216	H	1.294277	0.697687	0.862193
N217	N	0.785842	0.157286	0.203339
N218	N	1.285842	0.657286	0.703339
H219	H	0.753052	0.181852	0.242430
H220	H	1.253052	0.681852	0.742430
H221	H	0.814613	0.182437	0.168699
H222	H	1.314613	0.682437	0.668699
H223	H	0.283535	-0.018983	0.000125
H224	H	0.783535	0.481017	0.500125
H225	H	0.894266	-0.369438	0.203475
H226	H	1.394266	0.130562	0.703475
N227	N	0.892429	-0.485048	0.222571
N228	N	1.392429	0.014952	0.722571
H229	H	0.892864	-0.457219	0.268347
H230	H	1.392864	0.042781	0.768347
H231	H	0.845107	-0.505008	0.225713
H232	H	1.345107	-0.005008	0.725713
H233	H	0.537611	-0.015918	0.000114
H234	H	1.037611	0.484082	0.500114
N235	N	0.898857	-0.088278	-0.150098
N236	N	1.398857	0.411722	0.349902
H237	H	0.945616	-0.103291	-0.181696
H238	H	1.445616	0.396709	0.318304
H239	H	0.851736	-0.093930	-0.181634
H240	H	1.351736	0.406070	0.318366
N241	N	0.896893	-0.211751	-0.150126
N242	N	1.396893	0.288249	0.349874
H243	H	0.897355	-0.183909	-0.195899
H244	H	1.397355	0.316091	0.304101
H245	H	0.943431	-0.241076	-0.153257
H246	H	1.443431	0.258924	0.346743
H247	H	0.894356	-0.369380	-0.203307
H248	H	1.394356	0.130620	0.296693
H249	H	0.888228	-0.750439	0.131176
H250	H	1.388228	-0.250439	0.631176
N251	N	0.888126	-0.758247	-0.150169
N252	N	1.388126	-0.258247	0.349831
H253	H	0.887449	-0.800385	-0.139199
H254	H	1.387449	-0.300385	0.360801
H255	H	0.841369	-0.743175	-0.181734
H256	H	1.341369	-0.243175	0.318266
