data_functionalizedCrystal
_audit_creation_method	'MofGen! by Chris Wilmer'
_symmetry_space_group_name_H-M	'P1'
_symmetry_Int_Tables_number	1
_symmetry_cell_setting	triclinic
loop_
_symmetry_equiv_pos_as_xyz
  x,y,z
_cell_length_a	9.065218
_cell_length_b	10.489741
_cell_length_c	9.565339
_cell_angle_alpha	89.999484
_cell_angle_beta	90.003684
_cell_angle_gamma	84.777530
loop_
_atom_site_label
_atom_site_type_symbol
_atom_site_fract_x
_atom_site_fract_y
_atom_site_fract_z
O1	O	1.959497	0.187036	0.116263
O2	O	1.530138	0.202378	0.116265
O3	O	1.754587	0.009144	0.116255
O4	O	1.735047	0.380269	0.116272
O5	O	1.754569	0.009156	-0.116265
O6	O	1.530120	0.202390	-0.116255
O7	O	1.959479	0.187048	-0.116257
Zn8	Zn	1.744797	0.194721	-0.153174
Zn9	Zn	1.744820	0.194705	0.153181
O10	O	1.735030	0.380281	-0.116248
C11	C	1.475149	0.200909	0.000005
C12	C	1.311328	0.196501	0.000005
C13	C	1.753102	-0.038387	-0.000004
C14	C	1.748687	-0.180032	-0.000001
C15	C	1.605877	-0.248688	0.000010
C16	C	1.673330	-0.340561	-0.114635
C17	C	1.673382	-0.340547	0.114611
C18	C	1.816200	-0.270040	-0.114741
C19	C	1.816231	-0.270017	0.114609
C20	C	1.883788	-0.361862	-0.000064
C21	C	2.014467	0.188516	0.000006
C22	C	2.178289	0.192925	0.000014
C23	C	1.736514	0.427812	0.000014
C24	C	1.740930	0.569458	0.000021
N25	N	1.744791	0.194731	-0.362253
C26	C	1.640959	0.284065	-0.453452
C27	C	1.774554	0.310357	-0.546630
C28	C	1.611255	0.168448	-0.546630
C29	C	1.878454	0.221082	-0.453380
C30	C	1.715067	0.079122	-0.453372
C31	C	1.848757	0.105367	-0.546508
N32	N	1.744837	0.194685	0.362261
H33	H	1.612896	-0.371786	-0.211558
H34	H	1.498307	0.146239	-0.587595
H35	H	1.553233	0.359682	-0.412594
C36	C	1.425689	-0.106548	0.119989
C37	C	1.447369	-0.182232	-0.000129
H38	H	1.327832	-0.065530	0.119901
H39	H	1.494806	-0.043720	0.120869
H40	H	1.439704	-0.159075	0.200659
H41	H	1.433365	-0.129703	-0.080800
H42	H	1.378232	-0.245068	-0.001022
H43	H	1.876614	-0.238759	0.211537
C44	C	1.665208	-0.345347	0.365443
C45	C	1.591802	-0.382674	0.245459
H46	H	1.614840	-0.371359	0.446215
H47	H	1.666635	-0.254921	0.365922
H48	H	1.763927	-0.384465	0.365571
H49	H	1.493085	-0.343548	0.245324
H50	H	1.590358	-0.473118	0.244980
H51	H	1.799726	0.408106	-0.587593
H52	H	1.936681	0.029797	-0.587110
H53	H	1.876566	-0.238984	-0.211773
H54	H	1.991428	0.243409	-0.412591
C55	C	1.541039	-0.080097	-0.444999
C56	C	1.681031	-0.052790	-0.398011
H57	H	1.520014	-0.161530	-0.410810
H58	H	1.539913	-0.080854	-0.544287
H59	H	1.468247	-0.016434	-0.411744
H60	H	1.753824	-0.116448	-0.431275
H61	H	1.682169	-0.052043	-0.298702
H62	H	2.001312	-0.410861	-0.000128
