data_functionalizedCrystal
_audit_creation_method	'MofGen! by Chris Wilmer'
_symmetry_space_group_name_H-M	'P1'
_symmetry_Int_Tables_number	1
_symmetry_cell_setting	triclinic
loop_
_symmetry_equiv_pos_as_xyz
  x,y,z
_cell_length_a	14.044220
_cell_length_b	17.038272
_cell_length_c	13.101039
_cell_angle_alpha	93.604737
_cell_angle_beta	86.340132
_cell_angle_gamma	92.150217
loop_
_atom_site_label
_atom_site_type_symbol
_atom_site_fract_x
_atom_site_fract_y
_atom_site_fract_z
O1	O	1.277881	0.185592	-0.085106
O2	O	1.001361	0.178751	-0.085132
O3	O	1.137977	0.068241	-0.085111
O4	O	1.141265	0.296101	-0.085127
O5	O	1.128176	0.076185	0.085317
O6	O	0.991560	0.186694	0.085296
O7	O	1.268080	0.193535	0.085322
Zn8	Zn	1.128264	0.191376	0.112368
Zn9	Zn	1.141177	0.180910	-0.112178
O10	O	1.131464	0.304045	0.085301
C11	C	0.960905	0.179728	0.000079
C12	C	0.854960	0.170796	0.000069
C13	C	0.660980	0.154468	0.000091
C14	C	0.608455	0.217813	0.000090
C15	C	0.500518	0.208729	0.000102
C16	C	0.768927	0.163552	0.000079
C17	C	1.130087	0.042876	0.000103
C18	C	1.121168	-0.044541	0.000101
C19	C	1.203056	-0.088926	0.000110
C20	C	1.194670	-0.171064	0.000100
C21	C	1.104396	-0.208815	0.000088
C22	C	1.022502	-0.164424	0.000076
C23	C	1.030889	-0.082288	0.000079
C24	C	1.074767	-0.456646	0.000071
C25	C	1.066386	-0.538788	0.000071
C26	C	1.238555	-0.545423	0.000093
C27	C	1.246934	-0.463285	0.000102
C28	C	1.165040	-0.418901	0.000085
C29	C	1.095822	-0.292773	0.000080
C30	C	1.173615	-0.334945	0.000085
C31	C	1.308536	0.192558	0.000109
C32	C	1.414482	0.201490	0.000112
C33	C	1.139354	0.329410	0.000085
C34	C	1.148273	0.416827	0.000080
N35	N	1.119458	0.198518	0.265616
N36	N	1.149990	0.173762	-0.265426
C37	C	1.107478	0.208243	0.474656
C38	C	1.161967	0.164040	0.525540
C39	C	1.155301	0.169451	0.641858
C40	C	1.114143	0.202833	0.358328
H41	H	1.276567	-0.058196	0.000126
N42	N	0.656251	0.298691	0.000056
H43	H	0.632923	0.331181	0.063227
H44	H	0.727691	0.293741	0.000004
H45	H	1.213624	0.122133	0.481746
H46	H	1.055826	0.250148	0.518445
H47	H	0.624887	0.093419	0.000100
H48	H	1.261352	-0.207199	0.000109
N49	N	1.344309	-0.422582	0.000113
H50	H	1.384113	-0.441272	-0.063063
H51	H	1.337125	-0.363822	0.000154
N52	N	1.326873	-0.593299	0.000110
H53	H	1.330866	-0.630466	-0.063069
H54	H	1.385284	-0.556869	0.000157
N55	N	0.969014	-0.579508	0.000057
H56	H	0.918406	-0.538929	0.000043
H57	H	0.965427	-0.616386	-0.063124
N58	N	1.270981	-0.294234	0.000107
H59	H	1.281936	-0.263241	-0.063066
H60	H	1.274584	-0.257406	0.063331
N61	N	0.998453	-0.333487	0.000076
H62	H	0.994770	-0.370358	-0.063103
H63	H	0.987569	-0.364432	0.063295
N64	N	0.986442	-0.408782	0.000059
H65	H	0.950983	-0.424573	-0.063122
H66	H	0.943788	-0.418704	0.063275
N67	N	0.925133	-0.205137	0.000056
H68	H	0.932243	-0.263905	0.000059
H69	H	0.885374	-0.186387	0.063232
N70	N	0.942568	-0.034412	0.000064
H71	H	0.884106	-0.070789	0.000057
H72	H	0.938662	0.002755	0.063242
