data_functionalizedCrystal
_audit_creation_method	'MofGen! by Chris Wilmer'
_symmetry_space_group_name_H-M	'P1'
_symmetry_Int_Tables_number	1
_symmetry_cell_setting	triclinic
loop_
_symmetry_equiv_pos_as_xyz
  x,y,z
_cell_length_a	11.792241
_cell_length_b	11.792241
_cell_length_c	9.198806
_cell_angle_alpha	89.996670
_cell_angle_beta	90.000255
_cell_angle_gamma	84.193416
loop_
_atom_site_label
_atom_site_type_symbol
_atom_site_fract_x
_atom_site_fract_y
_atom_site_fract_z
O1	O	1.506908	0.155565	-0.120752
O2	O	2.006908	0.655565	0.379248
O3	O	1.176567	0.171598	-0.120786
O4	O	1.676567	0.671598	0.379214
O5	O	1.349754	-0.001589	-0.120758
O6	O	1.849754	0.498411	0.379242
O7	O	1.333721	0.328752	-0.120780
O8	O	1.833721	0.828752	0.379220
O9	O	1.349740	-0.001589	0.121027
O10	O	1.849740	0.498411	0.621027
O11	O	1.176553	0.171598	0.120999
O12	O	1.676553	0.671598	0.620999
O13	O	1.506894	0.155565	0.121033
O14	O	2.006894	0.655565	0.621033
Cu15	Cu	1.341723	0.163581	0.143093
Cu16	Cu	1.841723	0.663581	0.643093
Cu17	Cu	1.341739	0.163582	-0.142846
Cu18	Cu	1.841739	0.663582	0.357154
O19	O	1.333707	0.328752	0.121005
O20	O	1.833707	0.828752	0.621005
C21	C	1.134269	0.170591	0.000102
C22	C	1.634269	0.670591	0.500102
C23	C	1.008255	0.167576	0.000090
C24	C	1.508255	0.667576	0.500090
C25	C	1.348740	-0.043880	0.000134
C26	C	1.848740	0.456120	0.500134
C27	C	1.345726	-0.169894	0.000132
C28	C	1.845726	0.330106	0.500132
C29	C	0.777543	0.162034	0.000132
C30	C	1.277543	0.662034	0.500132
C31	C	0.905928	0.165113	0.000109
C32	C	1.405928	0.665113	0.500109
C33	C	1.340183	-0.400606	0.000108
C34	C	1.840183	0.099394	0.500108
C35	C	1.343262	-0.272221	0.000121
C36	C	1.843262	0.227779	0.500121
C37	C	1.549192	0.156572	0.000142
C38	C	2.049192	0.656572	0.500142
C39	C	1.675206	0.159587	0.000145
C40	C	2.175206	0.659587	0.500145
C41	C	1.334721	0.371043	0.000110
C42	C	1.834721	0.871043	0.500110
C43	C	1.337736	0.497057	0.000102
C44	C	1.837736	0.997057	0.500102
N45	N	1.341719	0.163580	0.344207
N46	N	1.841719	0.663580	0.844207
N47	N	1.341751	0.163574	-0.343960
N48	N	1.841751	0.663574	0.156040
C49	C	1.414436	0.090544	0.416416
C50	C	1.914436	0.590544	0.916416
C51	C	1.414454	0.090540	0.583828
C52	C	1.914454	0.590540	1.083828
H53	H	1.476676	0.028013	0.354300
H54	H	1.976676	0.528013	0.854300
N55	N	1.259270	0.246399	0.573805
N56	N	1.759270	0.746399	1.073805
H57	H	1.210753	0.295135	0.645005
H58	H	1.710753	0.795135	1.145005
H59	H	1.303216	0.296690	0.510641
H60	H	1.803216	0.796690	1.010641
N61	N	1.496932	0.007717	0.666070
N62	N	1.996932	0.507717	1.166070
H63	H	1.453068	-0.042652	0.729235
H64	H	1.953068	0.457348	1.229235
H65	H	1.545428	-0.040941	0.594775
H66	H	2.045428	0.459059	1.094775
N67	N	1.259266	0.246402	0.426482
N68	N	1.759266	0.746402	0.926482
H69	H	1.273032	0.327009	0.400066
H70	H	1.773032	0.827009	0.900066
H71	H	1.178589	0.232935	0.400048
H72	H	1.678589	0.732935	0.900048
