data_functionalizedCrystal
_audit_creation_method	'MofGen! by Chris Wilmer'
_symmetry_space_group_name_H-M	'P1'
_symmetry_Int_Tables_number	1
_symmetry_cell_setting	triclinic
loop_
_symmetry_equiv_pos_as_xyz
  x,y,z
_cell_length_a	10.723024
_cell_length_b	10.723023
_cell_length_c	7.681481
_cell_angle_alpha	84.204195
_cell_angle_beta	95.778575
_cell_angle_gamma	84.467709
loop_
_atom_site_label
_atom_site_type_symbol
_atom_site_fract_x
_atom_site_fract_y
_atom_site_fract_z
O1	O	1.645491	0.186740	-0.146414
O2	O	1.282338	0.203494	-0.146419
O3	O	1.472292	0.013540	-0.146409
O4	O	1.455537	0.376693	-0.146424
O5	O	1.495672	-0.009894	0.146450
O6	O	1.305718	0.180060	0.146440
O7	O	1.668871	0.163306	0.146445
Zn8	Zn	1.491006	0.167963	0.192940
Zn9	Zn	1.460203	0.198837	-0.192914
O10	O	1.478917	0.353260	0.146435
C11	C	1.247528	0.190558	0.000009
C12	C	1.108974	0.186910	0.000007
C13	C	0.917217	0.073603	0.000009
C14	C	1.060421	0.077370	0.000011
C15	C	1.482763	-0.044676	0.000018
C16	C	1.479115	-0.183230	0.000013
C17	C	1.465378	-0.232857	-0.151700
C18	C	1.461607	-0.376059	-0.151709
C19	C	1.703680	0.176242	0.000013
C20	C	1.842234	0.179891	0.000003
C21	C	1.468446	0.411477	0.000004
C22	C	1.472092	0.550031	-0.000002
N23	N	1.512038	0.146891	0.456275
N24	N	1.439181	0.219899	-0.456250
H25	H	1.124853	-0.013620	0.000004
H26	H	1.456402	-0.169326	-0.281579
H27	H	1.449846	-0.418784	-0.281595
H28	H	0.884056	0.273676	0.000010
O29	O	1.340635	0.318591	0.444157
H30	H	1.343349	0.315833	0.300520
H31	H	1.044548	0.277907	-0.000004
O32	O	1.487689	-0.393405	0.172071
H33	H	1.404944	-0.324301	0.179618
O34	O	0.861840	-0.050639	0.000020
H35	H	0.758052	-0.034101	0.000009
O36	O	1.491004	-0.267381	0.172056
H37	H	1.412865	-0.238215	0.248654
O38	O	1.610569	0.048174	0.555877
H39	H	1.607839	0.050911	0.699514
