data_functionalizedCrystal
_audit_creation_method	'MofGen! by Chris Wilmer'
_symmetry_space_group_name_H-M	'P1'
_symmetry_Int_Tables_number	1
_symmetry_cell_setting	triclinic
loop_
_symmetry_equiv_pos_as_xyz
  x,y,z
_cell_length_a	15.944499
_cell_length_b	17.699083
_cell_length_c	16.776229
_cell_angle_alpha	89.992455
_cell_angle_beta	90.009732
_cell_angle_gamma	96.619688
loop_
_atom_site_label
_atom_site_type_symbol
_atom_site_fract_x
_atom_site_fract_y
_atom_site_fract_z
O1	O	1.114349	-0.097430	0.066338
O2	O	1.614349	0.402570	0.566338
O3	O	0.869768	-0.109505	0.066329
O4	O	1.369768	0.390495	0.566329
O5	O	0.998969	0.006711	0.066326
O6	O	1.498969	0.506711	0.566326
O7	O	0.985149	-0.213646	0.066340
O8	O	1.485149	0.286354	0.566340
O9	O	0.998952	0.006718	-0.066250
O10	O	1.498952	0.506718	0.433750
O11	O	0.869751	-0.109498	-0.066248
O12	O	1.369751	0.390502	0.433752
O13	O	1.114332	-0.097422	-0.066239
O14	O	1.614332	0.402578	0.433761
Zn15	Zn	0.992039	-0.103459	-0.087293
Zn16	Zn	1.492039	0.396541	0.412707
Zn17	Zn	0.992062	-0.103469	0.087383
Zn18	Zn	1.492062	0.396531	0.587383
O19	O	0.985132	-0.213639	-0.066237
O20	O	1.485132	0.286361	0.433763
C21	C	0.838466	-0.109007	0.000039
C22	C	1.338466	0.390993	0.500039
C23	C	0.745221	-0.107525	0.000036
C24	C	1.245221	0.392475	0.500036
C25	C	0.453543	-0.175044	0.000052
C26	C	0.953543	0.324956	0.500052
C27	C	0.514654	-0.139949	0.065418
C28	C	1.014654	0.360051	0.565418
C29	C	0.409596	-0.102140	0.000054
C30	C	0.909596	0.397860	0.500054
C31	C	0.514623	-0.139923	-0.065292
C32	C	1.014623	0.360077	0.434708
C33	C	0.574499	-0.104790	0.000044
C34	C	1.074499	0.395210	0.500044
C35	C	0.469479	-0.067025	0.065474
C36	C	0.969479	0.432975	0.565474
C37	C	0.469442	-0.067009	-0.065294
C38	C	0.969442	0.432991	0.434706
C39	C	0.530536	-0.031862	0.000088
C40	C	1.030536	0.468138	0.500088
C41	C	0.314599	-0.100616	0.000061
C42	C	0.814599	0.399384	0.500061
C43	C	0.669495	-0.106309	0.000043
C44	C	1.169495	0.393691	0.500043
C45	C	0.998465	0.034913	0.000038
C46	C	1.498465	0.534913	0.500038
C47	C	0.996979	0.118933	0.000038
C48	C	1.496979	0.618933	0.500038
C49	C	1.145634	-0.097920	0.000052
C50	C	1.645634	0.402080	0.500052
C51	C	1.238880	-0.099403	0.000061
C52	C	1.738880	0.400597	0.500061
C53	C	0.985635	-0.241840	0.000054
C54	C	1.485635	0.258160	0.500054
C55	C	0.987121	-0.325860	0.000059
C56	C	1.487121	0.174140	0.500059
N57	N	0.992030	-0.103452	-0.206504
N58	N	1.492030	0.396548	0.293496
C59	C	1.072817	0.167437	0.000039
C60	C	1.572817	0.667437	0.500039
C61	C	1.071417	0.246382	0.000046
C62	C	1.571417	0.746382	0.500046
C63	C	0.994177	0.276822	0.000046
C64	C	1.494177	0.776822	0.500046
C65	C	0.918333	0.228312	0.000047
C66	C	1.418333	0.728312	0.500047
C67	C	0.919735	0.149368	0.000046
C68	C	1.419735	0.649368	0.500046
C69	C	0.912678	0.546684	0.000053
C70	C	1.412678	1.046684	0.500053
C71	C	0.911282	0.625634	0.000052
C72	C	1.411282	1.125634	0.500052
C73	C	1.064360	0.643698	0.000054
C74	C	1.564360	1.143698	0.500054
C75	C	1.065762	0.564754	0.000053
C76	C	1.565762	1.064754	0.500053
C77	C	0.989918	0.516251	0.000058
C78	C	1.489918	1.016251	0.500058
C79	C	0.991438	0.430649	0.000051
C80	C	1.491438	0.930649	0.500051
C81	C	0.992656	0.362422	0.000046
C82	C	1.492656	0.862422	0.500046
C83	C	1.049257	-0.052013	-0.248222
C84	C	1.549257	0.447987	0.251778
C85	C	1.049262	-0.052012	-0.331674
C86	C	1.549262	0.447988	0.168326
C87	C	0.992042	-0.103455	-0.373407
C88	C	1.492042	0.396545	0.126593
C89	C	0.934809	-0.154897	-0.331683
C90	C	1.434809	0.345103	0.168317
C91	C	0.934801	-0.154893	-0.248232
C92	C	1.434801	0.345107	0.251768
C93	C	0.934839	-0.154912	-0.668230
C94	C	1.434839	0.345088	-0.168230
C95	C	0.934853	-0.154913	-0.751686
C96	C	1.434853	0.345087	-0.251686
C97	C	1.049300	-0.052031	-0.751672
C98	C	1.549300	0.447969	-0.251672
C99	C	1.049292	-0.052027	-0.668221
C100	C	1.549292	0.447973	-0.168221
C101	C	0.992056	-0.103466	-0.626505
C102	C	1.492056	0.396534	-0.126505
C103	C	0.992051	-0.103465	-0.536016
C104	C	1.492051	0.396535	-0.036016
C105	C	0.992051	-0.103460	-0.463894
C106	C	1.492051	0.396540	0.036106
N107	N	0.992077	-0.103469	0.206594
N108	N	1.492077	0.396531	0.706594
H109	H	0.534695	-0.170790	0.120681
H110	H	1.034695	0.329210	0.620681
N111	N	0.409210	-0.255179	0.000143
N112	N	0.909210	0.244821	0.500143
H113	H	0.373096	-0.263529	-0.049243
H114	H	0.873096	0.236471	0.450757
H115	H	0.452573	-0.292510	0.000719
H116	H	0.952573	0.207490	0.500719
H117	H	1.095860	-0.010126	-0.365641
H118	H	1.595860	0.489874	0.134359
N119	N	0.574674	0.048344	0.000119
N120	N	1.074674	0.548344	0.500119
H121	H	0.557503	0.076102	-0.048779
H122	H	1.057503	0.576102	0.451221
H123	H	0.558265	0.075715	0.049542
H124	H	1.058265	0.575715	0.549542
N125	N	0.443113	-0.026223	0.138757
N126	N	0.943113	0.473777	0.638757
H127	H	0.459938	-0.053553	0.188070
H128	H	0.959938	0.446447	0.688070
H129	H	0.471872	0.027694	0.138908
H130	H	0.971872	0.527694	0.638908
H131	H	1.126115	0.683200	0.000054
H132	H	1.626115	1.183200	0.500054
N133	N	0.827970	0.658468	0.000047
N134	N	1.327970	1.158468	0.500047
H135	H	0.780135	0.615763	0.000051
H136	H	1.280135	1.115763	0.500051
H137	H	0.824065	0.690827	0.049192
H138	H	1.324065	1.190827	0.549192
N139	N	0.830880	0.494375	0.000055
N140	N	1.330880	0.994375	0.500055
H141	H	0.781739	0.525641	0.000051
H142	H	1.281739	1.025641	0.500051
H143	H	0.828119	0.461233	-0.049092
H144	H	1.328119	0.961233	0.450908
H145	H	0.888255	-0.196806	-0.785664
H146	H	1.388255	0.303194	-0.285664
N147	N	1.149071	0.531926	0.000060
N148	N	1.649071	1.031926	0.500060
H149	H	1.138451	0.474555	0.000058
H150	H	1.638451	0.974555	0.500058
H151	H	1.182246	0.549675	-0.049086
H152	H	1.682246	1.049675	0.450914
N153	N	0.442869	-0.026188	-0.138498
N154	N	0.942869	0.473812	0.361502
H155	H	0.459096	-0.053772	-0.187850
H156	H	0.959096	0.446228	0.312150
H157	H	0.379693	-0.025048	-0.137600
H158	H	0.879693	0.474952	0.362400
N159	N	0.541129	-0.180774	-0.138489
N160	N	1.041129	0.319226	0.361511
H161	H	0.512828	-0.234850	-0.138424
H162	H	1.012828	0.265150	0.361576
H163	H	0.523878	-0.153724	-0.187822
H164	H	1.023878	0.346276	0.312178
N165	N	0.835027	0.261146	0.000044
N166	N	1.335027	0.761146	0.500044
H167	H	0.801802	0.243461	-0.049103
H168	H	1.301802	0.743461	0.450897
H169	H	0.801881	0.243446	0.049222
H170	H	1.301881	0.743446	0.549222
N171	N	1.156127	0.134608	0.000032
N172	N	1.656127	0.634608	0.500032
H173	H	1.203957	0.177318	0.000035
H174	H	1.703957	0.677318	0.500035
H175	H	1.160051	0.102240	0.049178
H176	H	1.660051	0.602240	0.549178
H177	H	0.888200	-0.196780	-0.214266
H178	H	1.388200	0.303220	0.285734
H179	H	1.133172	0.285872	0.000046
H180	H	1.633172	0.785872	0.500046
N181	N	1.111010	0.003454	-0.623210
N182	N	1.611010	0.503454	-0.123210
H183	H	1.147264	0.036043	-0.662302
H184	H	1.647264	0.536043	-0.162302
H185	H	1.078919	0.036928	-0.588600
H186	H	1.578919	0.536928	-0.088600
N187	N	0.837939	0.097049	0.000049
N188	N	1.337939	0.597049	0.500049
H189	H	0.788794	0.128310	0.000048
H190	H	1.288794	0.628310	0.500048
H191	H	0.835177	0.063905	-0.049098
H192	H	1.335177	0.563905	0.450902
H193	H	1.095855	-0.010125	-0.214249
H194	H	1.595855	0.489875	0.285751
H195	H	1.095902	-0.010144	-0.785647
H196	H	1.595902	0.489856	-0.285647
H197	H	0.888237	-0.196797	-0.634271
H198	H	1.388237	0.303203	-0.134271
H199	H	0.888216	-0.196781	-0.365666
H200	H	1.388216	0.303219	0.134334
