data_functionalizedCrystal
_audit_creation_method	'MofGen! by Chris Wilmer'
_symmetry_space_group_name_H-M	'P1'
_symmetry_Int_Tables_number	1
_symmetry_cell_setting	triclinic
loop_
_symmetry_equiv_pos_as_xyz
  x,y,z
_cell_length_a	15.297475
_cell_length_b	16.120484
_cell_length_c	16.120256
_cell_angle_alpha	84.383827
_cell_angle_beta	96.324650
_cell_angle_gamma	83.687474
loop_
_atom_site_label
_atom_site_type_symbol
_atom_site_fract_x
_atom_site_fract_y
_atom_site_fract_z
Zn1	Zn	1.308574	-0.577536	0.709550
Zn2	Zn	1.808574	-0.077536	1.209550
Zn3	Zn	1.308462	-0.710202	0.576841
Zn4	Zn	1.808462	-0.210202	1.076841
Zn5	Zn	1.168357	-0.546811	0.546212
Zn6	Zn	1.668357	-0.046811	1.046212
Zn7	Zn	1.152497	-0.690934	0.690332
Zn8	Zn	1.652497	-0.190934	1.190332
O9	O	1.234472	-0.631371	0.630734
O10	O	1.734472	-0.131371	1.130734
O11	O	1.432512	-0.616056	0.712807
O12	O	1.932512	-0.116056	1.212807
O13	O	1.296468	-0.683733	0.456924
O14	O	1.796468	-0.183733	0.956924
O15	O	1.193641	-0.435049	0.563103
O16	O	1.693641	0.064951	1.063103
O17	O	1.432431	-0.713526	0.615306
O18	O	1.932431	-0.213526	1.115306
O19	O	1.296658	-0.457622	0.683107
O20	O	1.796658	0.042378	1.183107
O21	O	1.193533	-0.563690	0.434421
O22	O	1.693533	-0.063690	0.934421
O23	O	1.042299	-0.545007	0.544468
O24	O	1.542299	-0.045007	1.044468
O25	O	1.166610	-0.680687	0.808735
O26	O	1.666610	-0.180687	1.308735
O27	O	1.030647	-0.650894	0.650353
O28	O	1.530647	-0.150894	1.150353
O29	O	1.281279	-0.597373	0.822855
O30	O	1.781279	-0.097373	1.322855
O31	O	1.281089	-0.823484	0.596671
O32	O	1.781089	-0.323484	1.096671
O33	O	1.166502	-0.809328	0.680053
O34	O	1.666502	-0.309328	1.180053
C35	C	1.004333	-0.592526	0.592002
C36	C	1.504333	-0.092526	1.092002
C37	C	0.905876	-0.575929	0.575453
C38	C	1.405876	-0.075929	1.075453
C39	C	0.604175	-0.749999	0.749015
C40	C	1.104175	-0.249999	1.249015
C41	C	0.696679	-0.765599	0.764562
C42	C	1.196679	-0.265599	1.264562
C43	C	0.748983	-0.718182	0.717286
C44	C	1.248983	-0.218182	1.217286
C45	C	0.708773	-0.655164	0.654461
C46	C	1.208773	-0.155164	1.154461
C47	C	0.616259	-0.639567	0.638908
C48	C	1.116259	-0.139567	1.138908
C49	C	0.761068	-0.607751	0.607179
C50	C	1.261068	-0.107751	1.107179
C51	C	0.720858	-0.544733	0.544353
C52	C	1.220858	-0.044733	1.044353
C53	C	0.628353	-0.529138	0.528804
C54	C	1.128353	-0.029138	1.028804
C55	C	0.576049	-0.576554	0.576080
C56	C	1.076049	-0.076554	1.076080
C57	C	0.853582	-0.623348	0.622732
C58	C	1.353582	-0.123348	1.122732
C59	C	0.865666	-0.512916	0.512624
C60	C	1.365666	-0.012916	1.012624
C61	C	0.773162	-0.497316	0.497078
C62	C	1.273162	0.002684	0.997078
C63	C	1.222085	-0.846446	0.639622
C64	C	1.722085	-0.346446	1.139622
C65	C	1.216866	-0.938471	0.643466
C66	C	1.716866	-0.438471	1.143466
C67	C	1.207340	-1.106965	0.650502
C68	C	1.707340	-0.606965	1.150502
C69	C	1.261763	-1.154964	0.611005
C70	C	1.761763	-0.654964	1.111005
C71	C	1.256462	-1.248719	0.614920
C72	C	1.756462	-0.748719	1.114920
C73	C	1.212639	-1.013201	0.646588
C74	C	1.712639	-0.513201	1.146588
C75	C	1.465510	-0.670368	0.669617
C76	C	1.965510	-0.170368	1.169617
C77	C	1.563964	-0.686986	0.686187
C78	C	2.063964	-0.186986	1.186187
C79	C	1.222188	-0.640308	0.846675
C80	C	1.722188	-0.140308	1.346675
C81	C	1.216953	-0.644116	0.938696
C82	C	1.716953	-0.144116	1.438696
C83	C	1.246931	-0.415460	0.621832
C84	C	1.746931	0.084540	1.121832
C85	C	1.252240	-0.323452	0.618039
C86	C	1.752240	0.176548	1.118039
C87	C	1.246764	-0.622418	0.415639
C88	C	1.746764	-0.122418	0.915639
C89	C	1.252184	-0.618405	0.323638
C90	C	1.752184	-0.118405	0.823638
C91	C	1.261772	-0.611489	1.155160
C92	C	1.761772	-0.111489	1.655160
C93	C	1.207367	-0.651030	1.107168
C94	C	1.707367	-0.151030	1.607168
C95	C	1.212702	-0.647182	1.013422
C96	C	1.712702	-0.147182	1.513422
C97	C	1.256438	-0.615336	1.248915
C98	C	1.756438	-0.115336	1.748915
H99	H	0.729412	-0.816910	0.815713
H100	H	1.229412	-0.316910	1.315713
N101	N	1.143931	-0.697147	1.143950
N102	N	1.643931	-0.197147	1.643950
N103	N	1.145951	-0.774139	1.138528
N104	N	1.645951	-0.274139	1.638528
H105	H	1.101156	-0.806714	1.164511
H106	H	1.601156	-0.306714	1.664511
H107	H	0.500724	-0.563855	0.563427
H108	H	1.000724	-0.063855	1.063427
H109	H	0.740409	-0.446006	0.445924
H110	H	1.240409	0.053994	0.945924
H111	H	1.312353	-0.574751	1.125842
H112	H	1.812353	-0.074751	1.625842
N113	N	1.143894	-1.143751	0.696592
N114	N	1.643894	-0.643751	1.196592
N115	N	1.086465	-1.181370	0.659891
N116	N	1.586465	-0.681370	1.159891
H117	H	1.041654	-1.207360	0.692438
H118	H	1.541654	-0.707360	1.192438
N119	N	0.919097	-0.464478	0.464344
N120	N	1.419097	0.035522	0.964344
N121	N	0.972091	-0.421688	0.500064
N122	N	1.472091	0.078312	1.000064
H123	H	1.009833	-0.387483	0.465969
H124	H	1.509833	0.112517	0.965969
N125	N	0.894649	-0.687724	0.686893
N126	N	1.394649	-0.187724	1.186893
N127	N	0.880243	-0.762125	0.682691
N128	N	1.380243	-0.262125	1.182691
H129	H	0.909246	-0.807595	0.728008
H130	H	1.409246	-0.307595	1.228008
N131	N	0.843473	-0.734128	0.733174
N132	N	1.343473	-0.234128	1.233174
N133	N	0.879363	-0.790394	0.789269
N134	N	1.379363	-0.290394	1.289269
H135	H	0.946101	-0.801657	0.800495
H136	H	1.446101	-0.301657	1.300495
N137	N	0.550736	-0.798426	0.797285
N138	N	1.050736	-0.298426	1.297285
N139	N	0.468141	-0.784493	0.783386
N140	N	0.968141	-0.284493	1.283386
H141	H	0.430398	-0.818699	0.817479
H142	H	0.930398	-0.318699	1.317479
N143	N	0.587292	-0.464776	0.464616
N144	N	1.087292	0.035224	0.964616
N145	N	0.633997	-0.422448	0.422408
N146	N	1.133997	0.077552	0.922408
H147	H	0.605000	-0.376993	0.377073
H148	H	1.105000	0.123007	0.877073
N149	N	1.325188	-1.118174	0.564882
N150	N	1.825188	-0.618174	1.064882
N151	N	1.329447	-1.040957	0.561713
N152	N	1.829447	-0.540957	1.061713
H153	H	1.374232	-1.014967	0.529131
H154	H	1.874232	-0.514967	1.029131
