data_functionalizedCrystal
_audit_creation_method	'MofGen! by Chris Wilmer'
_symmetry_space_group_name_H-M	'P1'
_symmetry_Int_Tables_number	1
_symmetry_cell_setting	triclinic
loop_
_symmetry_equiv_pos_as_xyz
  x,y,z
_cell_length_a	21.395364
_cell_length_b	15.299816
_cell_length_c	21.395355
_cell_angle_alpha	99.667094
_cell_angle_beta	89.975273
_cell_angle_gamma	80.349247
loop_
_atom_site_label
_atom_site_type_symbol
_atom_site_fract_x
_atom_site_fract_y
_atom_site_fract_z
Zn1	Zn	1.001068	-0.359220	-0.397499
Zn2	Zn	1.019110	-0.510026	-0.310873
Zn3	Zn	0.896282	-0.359216	-0.292735
Zn4	Zn	0.914388	-0.509998	-0.415609
O5	O	0.957712	-0.434615	-0.354179
O6	O	1.091141	-0.379238	-0.386020
O7	O	1.002790	-0.490030	-0.220790
O8	O	0.895054	-0.233001	-0.291463
O9	O	1.104396	-0.490034	-0.322375
O10	O	0.972040	-0.233004	-0.368433
O11	O	0.912549	-0.379231	-0.207465
O12	O	0.811005	-0.379204	-0.309023
O13	O	0.925913	-0.489987	-0.500884
O14	O	0.824307	-0.489983	-0.399298
O15	O	0.989596	-0.379211	-0.487578
O16	O	1.020346	-0.636238	-0.339936
O17	O	0.943408	-0.636217	-0.416885
C18	C	0.794922	-0.434591	-0.354158
C19	C	0.725282	-0.434602	-0.354167
C20	C	0.230443	-0.492403	-0.401159
C21	C	0.295878	-0.492403	-0.401153
C22	C	0.321647	-0.434635	-0.354201
C23	C	0.281977	-0.376878	-0.307244
C24	C	0.216544	-0.376886	-0.307248
C25	C	0.415559	-0.353351	-0.339567
C26	C	0.480991	-0.353342	-0.339567
C27	C	0.523465	-0.434611	-0.354185
C28	C	0.500500	-0.515892	-0.368816
C29	C	0.435067	-0.515900	-0.368820
C30	C	0.392598	-0.434620	-0.354191
C31	C	0.634080	-0.492369	-0.401130
C32	C	0.699517	-0.492371	-0.401119
C33	C	0.685614	-0.376837	-0.307212
C34	C	0.620179	-0.376843	-0.307221
C35	C	0.594416	-0.434608	-0.354183
C36	C	0.985817	-0.668954	-0.382357
C37	C	0.997897	-0.769205	-0.394433
C38	C	0.871781	-1.052088	-0.268085
C39	C	0.860427	-0.957897	-0.256741
C40	C	0.894794	-0.910719	-0.291163
C41	C	0.940516	-0.957742	-0.336931
C42	C	0.951867	-1.051942	-0.348280
C43	C	0.974880	-0.910573	-0.371358
C44	C	1.020602	-0.957596	-0.417126
C45	C	1.031951	-1.051786	-0.428473
C46	C	0.997585	-1.098964	-0.394051
C47	C	0.963529	-0.816373	-0.360009
C48	C	1.043615	-0.816227	-0.440204
C49	C	1.054969	-0.910418	-0.451548
C50	C	1.121138	-0.434640	-0.354201
C51	C	1.190781	-0.434650	-0.354210
C52	C	0.957762	-0.434597	-0.517600
C53	C	0.957783	-0.434589	-0.587241
C54	C	0.929515	-0.199361	-0.325905
C55	C	0.917499	-0.099110	-0.313856
C56	C	0.990941	-0.376906	-0.613027
C57	C	0.990935	-0.376867	-0.678457
C58	C	0.957781	-0.434528	-0.718102
C59	C	0.924615	-0.492215	-0.692308
C60	C	0.924617	-0.492246	-0.626878
C61	C	0.962573	-0.515739	-0.831542
C62	C	0.962576	-0.515710	-0.896971
C63	C	0.957773	-0.434432	-0.919911
C64	C	0.952979	-0.353181	-0.877413
C65	C	0.952980	-0.353212	-0.811983
C66	C	0.957775	-0.434500	-0.789051
C67	C	0.990926	-0.376702	-1.016644
C68	C	0.990916	-0.376662	-1.082076
C69	C	0.924601	-0.492018	-1.095926
C70	C	0.924606	-0.492050	-1.030495
C71	C	0.957773	-0.434393	-0.990858
C72	C	0.957691	-0.434568	-0.191386
C73	C	0.957760	-0.434322	-0.121715
H74	H	0.209471	-0.539443	-0.439398
F75	F	0.835203	-1.102303	-0.231464
H76	H	0.897610	-0.539028	-1.009501
F77	F	0.967684	-0.602184	-0.942195
F78	F	0.914870	-0.766339	-0.311300
H79	H	0.535082	-0.582069	-0.380724
F80	F	0.967701	-0.602254	-0.807135
F81	F	0.309403	-0.315399	-0.257273
F82	F	0.606659	-0.553850	-0.451108
F83	F	0.882537	-0.810474	-0.279261
F84	F	1.009769	-1.199214	-0.406019
H85	H	0.823200	-0.919615	-0.219477
F86	F	1.080603	-1.101829	-0.477194
H87	H	0.897613	-0.539217	-0.605884
H88	H	0.184250	-0.329854	-0.269015
H89	H	1.092196	-0.948717	-0.488813
H90	H	0.731810	-0.539406	-0.439350
F91	F	0.505426	-0.266835	-0.324003
H92	H	0.380980	-0.287168	-0.327652
F93	F	0.338097	-0.553874	-0.451125
F94	F	0.889328	-0.553579	-0.734501
H95	H	1.017934	-0.329889	-0.699456
F96	F	1.080192	-0.766022	-0.476842
H97	H	1.017916	-0.329684	-1.103068
F98	F	0.410628	-0.602403	-0.384389
F99	F	1.026237	-0.315538	-0.570845
F100	F	0.947875	-0.266741	-0.766756
F101	F	0.577965	-0.315368	-0.257254
H102	H	0.706594	-0.329804	-0.268982
F103	F	0.947869	-0.266673	-0.901821
F104	F	0.889309	-0.553379	-1.138114
H105	H	1.017928	-0.329749	-0.984369
