data_functionalizedCrystal
_audit_creation_method	'MofGen! by Chris Wilmer'
_symmetry_space_group_name_H-M	'P1'
_symmetry_Int_Tables_number	1
_symmetry_cell_setting	triclinic
loop_
_symmetry_equiv_pos_as_xyz
  x,y,z
_cell_length_a	12.759401
_cell_length_b	12.759399
_cell_length_c	12.759393
_cell_angle_alpha	89.969730
_cell_angle_beta	89.979541
_cell_angle_gamma	90.016641
loop_
_atom_site_label
_atom_site_type_symbol
_atom_site_fract_x
_atom_site_fract_y
_atom_site_fract_z
Zn1	Zn	1.606258	-0.418179	-0.594017
Zn2	Zn	1.606150	-0.593893	-0.418336
Zn3	Zn	1.430559	-0.418233	-0.418352
Zn4	Zn	1.430548	-0.593821	-0.593973
O5	O	1.518379	-0.506032	-0.506170
O6	O	1.753265	-0.441495	-0.570724
O7	O	1.582816	-0.570644	-0.271317
O8	O	1.453916	-0.271205	-0.441680
O9	O	1.753185	-0.570591	-0.441652
O10	O	1.583001	-0.271165	-0.570740
O11	O	1.453810	-0.441587	-0.271329
O12	O	1.283536	-0.441518	-0.441637
O13	O	1.453897	-0.570470	-0.741000
O14	O	1.283528	-0.570522	-0.570665
O15	O	1.582991	-0.441426	-0.741032
O16	O	1.582806	-0.740904	-0.441609
O17	O	1.453792	-0.740852	-0.570649
C18	C	1.245411	-0.506019	-0.506149
C19	C	1.128635	-0.506039	-0.506165
C20	C	1.518314	-0.778999	-0.506146
C21	C	1.518383	-0.895776	-0.506171
C22	C	1.073796	-0.573313	-0.573244
C23	C	0.964072	-0.573317	-0.573265
C24	C	0.964035	-0.438769	-0.439118
C25	C	1.073757	-0.438761	-0.439104
C26	C	1.585637	-0.950630	-0.439056
C27	C	1.585704	-1.060354	-0.439091
C28	C	1.451254	-1.060360	-0.573359
C29	C	1.451193	-0.950638	-0.573328
C30	C	1.709713	-1.210229	-0.401704
C31	C	1.776958	-1.265087	-0.334573
C32	C	1.793122	-1.229546	-0.232062
C33	C	1.742025	-1.139147	-0.196662
C34	C	1.674772	-1.084295	-0.263788
C35	C	1.658629	-1.119835	-0.366313
C36	C	1.327183	-0.800761	-0.610705
C37	C	1.259924	-0.745906	-0.677826
C38	C	1.243750	-0.781446	-0.780338
C39	C	1.294828	-0.871847	-0.815734
C40	C	1.362087	-0.926702	-0.748613
C41	C	1.378263	-0.891155	-0.646102
C42	C	1.792412	-0.506045	-0.506191
C43	C	1.909188	-0.506051	-0.506200
C44	C	1.518455	-0.505934	-0.780203
C45	C	1.518487	-0.505892	-0.896980
C46	C	1.518472	-0.231998	-0.506217
C47	C	1.518512	-0.115222	-0.506237
C48	C	1.585689	-0.573014	-1.061571
C49	C	1.585663	-0.573064	-0.951847
C50	C	1.451325	-0.438674	-0.951843
C51	C	1.451346	-0.438631	-1.061565
C52	C	1.518363	-0.506053	-0.233202
C53	C	1.518534	-0.505799	-0.116426
H54	H	1.118474	-0.628093	-0.627852
C55	C	0.840760	-0.588099	-0.714586
C56	C	0.903795	-0.647269	-0.647000
H57	H	0.803554	-0.633757	-0.760113
H58	H	0.792375	-0.548048	-0.674651
H59	H	0.883608	-0.542375	-0.754842
H60	H	0.860946	-0.692988	-0.606738
H61	H	0.952185	-0.687338	-0.686939
H62	H	1.118408	-0.383971	-0.384480
H63	H	1.396656	-0.383895	-1.106229
H64	H	1.640347	-0.627796	-0.907189
H65	H	1.396625	-0.383987	-0.907161
H66	H	1.218339	-0.672292	-0.649000
H67	H	1.340355	-0.771810	-0.527233
H68	H	0.919340	-0.383996	-0.384518
C69	C	1.718463	-0.705864	-1.050551
C70	C	1.659530	-0.646854	-1.121876
H71	H	1.764043	-0.751457	-1.087780
H72	H	1.758658	-0.660110	-1.007771
H73	H	1.672651	-0.746060	-1.007740
H74	H	1.705341	-0.606652	-1.164682
H75	H	1.619331	-0.692614	-1.164674
H76	H	1.818562	-1.338689	-0.363405
C77	C	1.391640	-1.228559	-0.633015
C78	C	1.377391	-1.120668	-0.647165
H79	H	1.346031	-1.265787	-0.678575
H80	H	1.462222	-1.246466	-0.648462
H81	H	1.376311	-1.246597	-0.562411
H82	H	1.392727	-1.102629	-0.717767
H83	H	1.306792	-1.102755	-0.631724
C84	C	1.787652	-1.250729	-0.568125
C85	C	1.691958	-1.249299	-0.514391
H86	H	1.776688	-1.274860	-0.637691
H87	H	1.816158	-1.181977	-0.569935
H88	H	1.835003	-1.296336	-0.533196
H89	H	1.644609	-1.203685	-0.549315
H90	H	1.663437	-1.318062	-0.512586
H91	H	1.640348	-0.905964	-0.384374
C92	C	1.646995	-0.965317	-0.120732
C93	C	1.618613	-0.984931	-0.224891
H94	H	1.612333	-0.903966	-0.096723
H95	H	1.627232	-1.023220	-0.078283
H96	H	1.720672	-0.955446	-0.116557
H97	H	1.544937	-0.994810	-0.229064
H98	H	1.638370	-0.927014	-0.267352
C99	C	1.728534	-1.177756	-0.012957
C100	C	1.759787	-1.100089	-0.083972
H101	H	1.739508	-1.153641	0.056613
H102	H	1.656319	-1.192860	-0.022871
H103	H	1.768594	-1.239436	-0.024442
H104	H	1.719722	-1.038412	-0.072492
H105	H	1.832015	-1.084972	-0.074053
C106	C	1.908474	-1.376688	-0.210989
C107	C	1.867043	-1.289841	-0.158272
H108	H	1.954117	-1.413908	-0.165438
H109	H	1.853000	-1.421422	-0.232493
H110	H	1.946420	-1.353627	-0.270778
H111	H	1.829090	-1.312903	-0.098487
H112	H	1.922526	-1.245099	-0.136752
C113	C	1.481431	-1.000963	-0.873708
C114	C	1.418255	-1.026064	-0.787517
H115	H	1.516114	-1.062302	-0.897718
H116	H	1.439059	-0.973398	-0.928348
H117	H	1.531979	-0.950175	-0.853505
H118	H	1.367702	-1.076846	-0.807722
H119	H	1.460630	-1.053644	-0.732866
H120	H	1.281659	-0.900784	-0.899208
C121	C	1.128385	-0.634300	-0.801407
C122	C	1.169814	-0.721149	-0.854119
H123	H	1.082749	-0.597076	-0.846962
H124	H	1.090442	-0.657351	-0.741625
H125	H	1.183870	-0.589562	-0.779902
H126	H	1.114330	-0.765891	-0.875618
H127	H	1.207758	-0.698098	-0.913921
