data_functionalizedCrystal
_audit_creation_method	'MofGen! by Chris Wilmer'
_symmetry_space_group_name_H-M	'P1'
_symmetry_Int_Tables_number	1
_symmetry_cell_setting	triclinic
loop_
_symmetry_equiv_pos_as_xyz
  x,y,z
_cell_length_a	16.120490
_cell_length_b	19.121063
_cell_length_c	16.120297
_cell_angle_alpha	84.820568
_cell_angle_beta	89.870317
_cell_angle_gamma	89.683840
loop_
_atom_site_label
_atom_site_type_symbol
_atom_site_fract_x
_atom_site_fract_y
_atom_site_fract_z
Zn1	Zn	1.228536	-0.355804	0.551560
Zn2	Zn	1.728536	0.144196	1.051560
Zn3	Zn	1.229545	-0.467588	0.417851
Zn4	Zn	1.729545	0.032412	0.917851
Zn5	Zn	1.097156	-0.343933	0.404913
Zn6	Zn	1.597156	0.156067	0.904913
Zn7	Zn	1.083536	-0.466935	0.549792
Zn8	Zn	1.583536	0.033065	1.049792
O9	O	1.159693	-0.408565	0.481029
O10	O	1.659693	0.091435	0.981029
O11	O	1.344758	-0.375875	0.539977
O12	O	1.844758	0.124125	1.039977
O13	O	1.218106	-0.446490	0.299544
O14	O	1.718106	0.053510	0.799544
O15	O	1.119862	-0.247249	0.419691
O16	O	1.619862	0.252751	0.919691
O17	O	1.345500	-0.458001	0.441742
O18	O	1.845500	0.041999	0.941742
O19	O	1.216386	-0.255971	0.527432
O20	O	1.716386	0.244029	1.027432
O21	O	1.120841	-0.355641	0.290039
O22	O	1.620841	0.144359	0.790039
O23	O	0.979261	-0.355007	0.417977
O24	O	1.479261	0.144993	0.917977
O25	O	1.096647	-0.456888	0.666617
O26	O	1.596647	0.043112	1.166617
O27	O	0.969254	-0.445376	0.524419
O28	O	1.469254	0.054624	1.024419
O29	O	1.203178	-0.375241	0.667915
O30	O	1.703178	0.124759	1.167915
O31	O	1.204899	-0.565760	0.440028
O32	O	1.704899	-0.065760	0.940028
O33	O	1.097626	-0.565280	0.536965
O34	O	1.597626	-0.065280	1.036965
C35	C	0.944157	-0.398833	0.469603
C36	C	1.444157	0.101167	0.969603
C37	C	0.851948	-0.394688	0.464736
C38	C	1.351948	0.105312	0.964736
C39	C	0.637106	-0.430063	0.506278
C40	C	1.137106	0.069937	1.006278
C41	C	0.683125	-0.387125	0.455848
C42	C	1.183125	0.112875	0.955848
C43	C	0.777067	-0.391334	0.460795
C44	C	1.277067	0.108666	0.960795
C45	C	0.543156	-0.425855	0.501333
C46	C	1.043156	0.074145	1.001333
C47	C	1.149916	-0.590999	0.489728
C48	C	1.649916	-0.090999	0.989728
C49	C	1.145807	-0.669049	0.493481
C50	C	1.645807	-0.169049	0.993481
C51	C	1.199767	-0.705948	0.444821
C52	C	1.699767	-0.205948	0.944821
C53	C	1.195908	-0.779285	0.448356
C54	C	1.695908	-0.279285	0.948356
C55	C	1.138084	-0.815722	0.500548
C56	C	1.638084	-0.315722	1.000548
C57	C	1.084121	-0.778818	0.549213
C58	C	1.584121	-0.278818	1.049213
C59	C	1.087985	-0.705483	0.545682
C60	C	1.587985	-0.205483	1.045682
C61	C	1.123625	-1.037136	0.513736
C62	C	1.623625	-0.537136	1.013736
C63	C	1.119763	-1.110477	0.517262
C64	C	1.619763	-0.610477	1.017262
C65	C	1.231551	-1.110938	0.416406
C66	C	1.731551	-0.610938	0.916406
C67	C	1.235406	-1.037601	0.412875
C68	C	1.735406	-0.537601	0.912875
C69	C	1.181447	-1.000704	0.461544
C70	C	1.681447	-0.500704	0.961544
C71	C	1.134136	-0.890684	0.504160
C72	C	1.634136	-0.390684	1.004160
C73	C	1.185399	-0.925744	0.457935
C74	C	1.685399	-0.425744	0.957935
C75	C	1.376071	-0.418335	0.492500
C76	C	1.876071	0.081665	0.992500
C77	C	1.468278	-0.422499	0.497388
C78	C	1.968278	0.077501	0.997388
C79	C	1.148281	-0.417316	0.698342
C80	C	1.648281	0.082684	1.198342
C81	C	1.143418	-0.421045	0.790948
C82	C	1.643418	0.078955	1.290948
C83	C	1.169531	-0.225420	0.472315
C84	C	1.669531	0.274580	0.972315
C85	C	1.173723	-0.147375	0.468602
C86	C	1.673723	0.352625	0.968602
C87	C	1.171112	-0.399800	0.264561
C88	C	1.671112	0.100200	0.764561
C89	C	1.176146	-0.395880	0.171955
C90	C	1.676146	0.104120	0.671955
C91	C	1.134509	-0.427836	0.960498
C92	C	1.634509	0.072164	1.460498
C93	C	1.185052	-0.389090	1.002410
C94	C	1.685052	0.110910	1.502410
C95	C	1.180095	-0.392869	1.096754
C96	C	1.680095	0.107131	1.596754
C97	C	1.139465	-0.424058	0.866146
C98	C	1.639465	0.075942	1.366146
H99	H	0.651971	-0.347205	0.408959
H100	H	1.151971	0.152795	0.908959
C101	C	0.728302	-0.448772	0.623830
C102	C	1.228302	0.051228	1.123830
C103	C	0.679159	-0.483957	0.569567
C104	C	1.179159	0.016043	1.069567
H105	H	0.754274	-0.482046	0.662896
H106	H	1.254274	0.017954	1.162896
H107	H	0.694456	-0.418034	0.652565
H108	H	1.194456	0.081966	1.152565
H109	H	0.769513	-0.422382	0.592829
H110	H	1.269513	0.077618	1.092829
H111	H	0.637944	-0.510343	0.600568
H112	H	1.137944	-0.010343	1.100568
H113	H	0.713007	-0.514707	0.540830
H114	H	1.213007	-0.014707	1.040830
H115	H	1.037043	-0.808491	0.591713
H116	H	1.537043	-0.308491	1.091713
H117	H	1.246850	-0.676285	0.402317
H118	H	1.746850	-0.176285	0.902317
H119	H	1.232046	-0.353080	0.967439
H120	H	1.732046	0.146920	1.467439
H121	H	1.087519	-0.463843	0.995467
H122	H	1.587519	0.036157	1.495467
H123	H	1.239847	-0.809324	0.408731
H124	H	1.739847	-0.309324	0.908731
H125	H	1.087054	-0.920359	0.546653
H126	H	1.587054	-0.420359	1.046653
C127	C	1.345531	-1.045428	0.313555
C128	C	1.845531	-0.545428	0.813555
C129	C	1.298978	-0.997553	0.355515
C130	C	1.798978	-0.497553	0.855515
H131	H	1.384781	-1.020703	0.278148
H132	H	1.884781	-0.520703	0.778148
H133	H	1.309583	-1.071151	0.281115
H134	H	1.809583	-0.571151	0.781115
H135	H	1.373814	-1.076893	0.352948
H136	H	1.873814	-0.576893	0.852948
H137	H	1.270690	-0.966091	0.316122
H138	H	1.770690	-0.466091	0.816122
H139	H	1.334931	-0.971818	0.387957
H140	H	1.834931	-0.471818	0.887957
C141	C	1.275280	-1.223562	0.377050
C142	C	1.775280	-0.723562	0.877050
C143	C	1.290874	-1.151498	0.362927
C144	C	1.790874	-0.651498	0.862927
H145	H	1.311914	-1.248601	0.344040
H146	H	1.811914	-0.748601	0.844040
H147	H	1.219570	-1.232619	0.362427
H148	H	1.719570	-0.732619	0.862427
H149	H	1.283797	-1.238341	0.434263
H150	H	1.783797	-0.738341	0.934263
H151	H	1.282351	-1.136718	0.305715
H152	H	1.782351	-0.636718	0.805715
H153	H	1.346598	-1.142437	0.377545
H154	H	1.846598	-0.642437	0.877545
C155	C	1.009664	-1.102660	0.616623
C156	C	1.509664	-0.602660	1.116623
C157	C	1.056206	-1.150531	0.574644
C158	C	1.556206	-0.650531	1.074644
H159	H	0.970434	-1.127389	0.652049
H160	H	1.470434	-0.627389	1.152049
H161	H	0.981367	-1.071201	0.577248
H162	H	1.481367	-0.571201	1.077248
H163	H	1.045629	-1.076931	0.649052
H164	H	1.545629	-0.576931	1.149052
H165	H	1.020242	-1.176255	0.542210
H166	H	1.520242	-0.676255	1.042210
H167	H	1.084505	-1.182002	0.614025
H168	H	1.584505	-0.682002	1.114025
H169	H	1.079687	-1.007100	0.553363
H170	H	1.579687	-0.507100	1.053363
H171	H	1.044047	-0.675441	0.585307
H172	H	1.544047	-0.175441	1.085307
H173	H	1.232483	-0.896075	0.415444
H174	H	1.732483	-0.396075	0.915444
