data_functionalizedCrystal
_audit_creation_method	'MofGen! by Chris Wilmer'
_symmetry_space_group_name_H-M	'P1'
_symmetry_Int_Tables_number	1
_symmetry_cell_setting	triclinic
loop_
_symmetry_equiv_pos_as_xyz
  x,y,z
_cell_length_a	19.120786
_cell_length_b	12.759395
_cell_length_c	19.120904
_cell_angle_alpha	87.576626
_cell_angle_beta	89.866497
_cell_angle_gamma	87.534291
loop_
_atom_site_label
_atom_site_type_symbol
_atom_site_fract_x
_atom_site_fract_y
_atom_site_fract_z
Zn1	Zn	-0.296037	-1.562702	-0.384462
Zn2	Zn	-0.408281	-1.563217	-0.262221
Zn3	Zn	-0.291057	-1.394817	-0.267241
Zn4	Zn	-0.413245	-1.379803	-0.379419
O5	O	-0.352155	-1.475135	-0.323336
O6	O	-0.310934	-1.709791	-0.368256
O7	O	-0.388570	-1.547378	-0.164782
O8	O	-0.193607	-1.423156	-0.287003
O9	O	-0.393399	-1.710169	-0.278446
O10	O	-0.197266	-1.546500	-0.373124
O11	O	-0.302446	-1.423655	-0.168471
O12	O	-0.307259	-1.245806	-0.282113
O13	O	-0.401859	-1.397565	-0.478192
O14	O	-0.397030	-1.234774	-0.364529
O15	O	-0.315747	-1.531941	-0.481898
O16	O	-0.507050	-1.532819	-0.273556
O17	O	-0.510697	-1.398065	-0.359661
C18	C	-0.352143	-1.202169	-0.323319
C19	C	-0.352155	-1.085391	-0.323327
C20	C	-0.534313	-1.463896	-0.315532
C21	C	-0.612243	-1.459182	-0.312216
C22	C	-0.445772	-1.073944	-0.408996
C23	C	-0.492586	-1.013359	-0.451831
C24	C	-0.492594	-0.903636	-0.451837
C25	C	-0.445781	-0.854497	-0.409005
C26	C	-0.398967	-0.915082	-0.366170
C27	C	-0.398966	-1.024806	-0.366167
C28	C	-0.305348	-0.926529	-0.280506
C29	C	-0.305343	-1.036252	-0.280495
C30	C	-0.258535	-0.877390	-0.237674
C31	C	-0.211724	-0.937975	-0.194834
C32	C	-0.211719	-1.047704	-0.194829
C33	C	-0.258529	-1.096837	-0.237660
C34	C	-0.650700	-1.521134	-0.355534
C35	C	-0.723923	-1.516701	-0.352420
C36	C	-0.758686	-1.450321	-0.305985
C37	C	-0.720224	-1.388362	-0.262665
C38	C	-0.647003	-1.392790	-0.265783
C39	C	-0.979675	-1.433735	-0.294329
C40	C	-1.052901	-1.429313	-0.291213
C41	C	-1.056595	-1.557652	-0.380969
C42	C	-0.983372	-1.562079	-0.384080
C43	C	-0.944916	-1.500116	-0.340763
C44	C	-0.833532	-1.445790	-0.302799
C45	C	-0.870072	-1.504642	-0.343953
C46	C	-0.169286	-1.486445	-0.331186
C47	C	-0.091359	-1.491265	-0.334531
C48	C	-0.359912	-1.463021	-0.506194
C49	C	-0.363217	-1.457859	-0.584117
C50	C	-0.352165	-0.749167	-0.323348
C51	C	-0.352161	-0.865944	-0.323341
C52	C	-0.319938	-1.525392	-0.622655
C53	C	-0.323041	-1.520529	-0.695873
C54	C	-0.369428	-1.448137	-0.730550
C55	C	-0.412708	-1.380596	-0.692006
C56	C	-0.409601	-1.385455	-0.618790
C57	C	-0.381049	-1.429962	-0.951517
C58	C	-0.384154	-1.425110	-1.024738
C59	C	-0.294486	-1.565042	-1.028600
C60	C	-0.291386	-1.569898	-0.955383
C61	C	-0.334664	-1.502354	-0.916845
C62	C	-0.372602	-1.443166	-0.805389
C63	C	-0.331485	-1.507320	-0.842007
C64	C	-0.344378	-1.487265	-0.141191
C65	C	-0.340875	-1.492643	-0.063277
H66	H	-0.530699	-1.053380	-0.486705
O67	O	-0.417758	-1.372904	-0.838997
C68	C	-0.537968	-1.313094	-0.856325
C69	C	-0.486908	-1.392714	-0.818201
H70	H	-0.593888	-1.329097	-0.839537
H71	H	-0.525104	-1.230072	-0.842436
H72	H	-0.532710	-1.321215	-0.915271
H73	H	-0.492138	-1.384689	-0.759248
H74	H	-0.499787	-1.475705	-0.832148
H75	H	-0.622400	-1.575193	-0.393344
H76	H	-1.087914	-1.608097	-0.416236
H77	H	-1.081204	-1.375254	-0.253399
H78	H	-0.445786	-0.765155	-0.409020
O79	O	-0.252517	-1.630790	-1.066001
C80	C	-0.219406	-1.810118	-1.089851
C81	C	-0.266994	-1.735778	-1.047462
H82	H	-0.231083	-1.895017	-1.074868
H83	H	-0.229594	-1.794304	-1.148146
H84	H	-0.162267	-1.796061	-1.077887
H85	H	-0.324149	-1.749793	-1.059367
H86	H	-0.256746	-1.751609	-0.989181
H87	H	-0.530710	-0.854308	-0.486721
H88	H	-0.755231	-1.567157	-0.387689
H89	H	-0.173610	-0.897956	-0.159967
H90	H	-0.173593	-1.097026	-0.159953
O91	O	-0.609748	-1.332573	-0.223635
C92	C	-0.613809	-1.204756	-0.134317
C93	C	-0.656083	-1.272922	-0.181995
H94	H	-0.651253	-1.156494	-0.100649
H95	H	-0.577974	-1.257480	-0.099100
H96	H	-0.580898	-1.149771	-0.167946
H97	H	-0.689034	-1.327916	-0.148420
H98	H	-0.691874	-1.220135	-0.217216
H99	H	-0.416299	-1.374977	-0.920149
H100	H	-0.948369	-1.383284	-0.259058
H101	H	-0.421929	-1.366156	-1.052970
H102	H	-0.748534	-1.334309	-0.224859
O103	O	-0.949716	-1.626588	-0.429247
C104	C	-0.961107	-1.753477	-0.517903
C105	C	-0.999312	-1.680439	-0.466801
H106	H	-1.001189	-1.797052	-0.548269
H107	H	-0.928413	-1.704900	-0.556038
H108	H	-0.925427	-1.812608	-0.487191
H109	H	-1.035028	-1.621295	-0.497455
H110	H	-1.031963	-1.729085	-0.428666
O111	O	-0.286465	-1.577778	-0.808400
C112	C	-0.251527	-1.760083	-0.787428
C113	C	-0.302544	-1.680401	-0.825552
H114	H	-0.264518	-1.843073	-0.801270
H115	H	-0.195591	-1.744270	-0.804260
H116	H	-0.256733	-1.751892	-0.728484
H117	H	-0.297401	-1.688546	-0.884502
H118	H	-0.358460	-1.696237	-0.808663
O119	O	-0.457862	-1.310325	-0.725609
C120	C	-0.578072	-1.250504	-0.742915
C121	C	-0.527010	-1.330132	-0.704803
H122	H	-0.633991	-1.266503	-0.726120
H123	H	-0.565202	-1.167484	-0.729025
H124	H	-0.572824	-1.258618	-0.801863
H125	H	-0.532230	-1.322113	-0.645848
H126	H	-0.539895	-1.413119	-0.718751
O127	O	-0.451573	-1.319901	-0.581246
C128	C	-0.486555	-1.265410	-0.466738
C129	C	-0.438972	-1.339701	-0.509170
H130	H	-0.476394	-1.281408	-0.408457
H131	H	-0.474845	-1.180482	-0.481602
H132	H	-0.543694	-1.279392	-0.478749
H133	H	-0.381817	-1.325813	-0.497182
H134	H	-0.450742	-1.424604	-0.494301
O135	O	-0.258433	-0.770809	-0.237746
C136	C	-0.192018	-0.616293	-0.258713
C137	C	-0.192041	-0.736998	-0.258682
H138	H	-0.138342	-0.588921	-0.275624
H139	H	-0.233480	-0.581375	-0.296708
H140	H	-0.204209	-0.589226	-0.203776
H141	H	-0.179832	-0.764157	-0.313590
H142	H	-0.150593	-0.771846	-0.220649
O143	O	-0.836230	-1.568977	-0.389096
C144	C	-0.757559	-1.581717	-0.487297
C145	C	-0.795840	-1.508738	-0.436211
H146	H	-0.724906	-1.533041	-0.525412
H147	H	-0.721847	-1.640871	-0.456639
H148	H	-0.797630	-1.625270	-0.517692
H149	H	-0.755818	-1.465115	-0.405804
H150	H	-0.831564	-1.449650	-0.466909
H151	H	-0.258531	-1.186178	-0.237658
H152	H	-0.861844	-1.391746	-0.264989
H153	H	-0.282168	-1.584345	-0.594427
H154	H	-0.287801	-1.575524	-0.727248
H155	H	-0.253615	-1.628851	-0.927154
H156	H	-0.445776	-1.163285	-0.408990
