data_functionalizedCrystal
_audit_creation_method	'MofGen! by Chris Wilmer'
_symmetry_space_group_name_H-M	'P1'
_symmetry_Int_Tables_number	1
_symmetry_cell_setting	triclinic
loop_
_symmetry_equiv_pos_as_xyz
  x,y,z
_cell_length_a	10.654541
_cell_length_b	16.109301
_cell_length_c	14.586319
_cell_angle_alpha	90.000787
_cell_angle_beta	89.996435
_cell_angle_gamma	96.027295
loop_
_atom_site_label
_atom_site_type_symbol
_atom_site_fract_x
_atom_site_fract_y
_atom_site_fract_z
O1	O	0.161419	-1.104090	-0.076182
O2	O	0.181508	-0.862147	-0.076196
O3	O	-0.011352	-0.988682	-0.076183
O4	O	0.354278	-0.977554	-0.076195
O5	O	-0.011354	-0.988673	0.076298
O6	O	0.181505	-0.862138	0.076284
O7	O	0.161416	-1.104081	0.076299
Cu8	Cu	0.171460	-0.983109	0.090214
Cu9	Cu	0.171464	-0.983119	-0.090112
O10	O	0.354276	-0.977546	0.076286
C11	C	0.180692	-0.831163	0.000042
C12	C	0.178253	-0.738853	0.000037
C13	C	-0.058140	-0.987861	0.000057
C14	C	-0.197550	-0.985418	0.000055
N15	N	0.171457	-0.983107	0.217046
C16	C	-0.227574	-1.136725	0.000076
C17	C	-0.308079	-1.211227	0.000088
C18	C	-0.439066	-1.208926	0.000085
C19	C	-0.489549	-1.132115	0.000067
C20	C	-0.409044	-1.057613	0.000055
C21	C	-0.278056	-1.059922	0.000060
C22	C	-0.379021	-0.906308	0.000027
C23	C	-0.248034	-0.908607	0.000037
C24	C	-0.429504	-0.829496	0.000010
C25	C	-0.348998	-0.754992	0.000004
C26	C	-0.218004	-0.757296	0.000008
C27	C	-0.167529	-0.834104	0.000025
C28	C	0.401064	-0.978367	0.000044
C29	C	0.540474	-0.980810	0.000040
C30	C	0.162231	-1.135065	0.000058
C31	C	0.164671	-1.227375	0.000058
C32	C	0.287019	-0.517227	0.000044
C33	C	0.284717	-0.430493	0.000050
C34	C	0.055896	-0.449008	0.000053
C35	C	0.058200	-0.535740	0.000054
C36	C	0.173765	-0.569847	0.000045
C37	C	0.169159	-0.396381	0.000050
C38	C	0.166662	-0.302340	0.000056
C39	C	0.176262	-0.663894	0.000040
N40	N	0.171457	-0.983127	-0.216944
C41	C	0.086088	-1.039156	0.452058
C42	C	0.086085	-1.039158	0.548040
C43	C	0.256830	-0.927072	0.548037
C44	C	0.256826	-0.927067	0.452058
C45	C	0.171457	-0.983113	0.404071
C46	C	0.171457	-0.983121	0.596032
C47	C	0.171455	-0.983123	0.700099
C48	C	0.171457	-0.983110	0.299997
H49	H	-0.120919	-1.138606	0.000090
H50	H	-0.034032	-0.578586	0.000057
O51	O	-0.259096	-1.285858	-0.000059
C52	C	-0.300251	-1.331339	-0.079012
H53	H	-0.327474	-1.286447	-0.134216
H54	H	-0.220914	-1.367172	-0.105513
H55	H	-0.385643	-1.377173	-0.061152
H56	H	0.016573	-1.084791	0.412990
O57	O	0.003207	-1.093520	0.594796
C58	C	0.021529	-1.081523	0.689801
H59	H	0.068434	-1.015696	0.702913
H60	H	-0.073573	-1.090230	0.726281
H61	H	0.084539	-1.128941	0.717032
O62	O	0.399243	-0.550398	-0.000121
C63	C	0.407420	-0.600029	-0.079082
H64	H	0.341805	-0.579146	-0.134278
H65	H	0.508636	-0.592822	-0.105589
H66	H	0.378432	-0.668249	-0.061229
O67	O	0.339715	-0.872717	0.594796
C68	C	0.321397	-0.884726	0.689801
H69	H	0.274486	-0.950553	0.702906
H70	H	0.416501	-0.876027	0.726270
H71	H	0.258394	-0.837308	0.717049
O72	O	0.339881	-0.872593	0.405579
C73	C	0.415218	-0.823117	0.468512
H74	H	0.416661	-0.857213	0.536928
H75	H	0.515501	-0.811008	0.440770
H76	H	0.374414	-0.761125	0.478729
O77	O	0.394698	-0.379342	0.000205
C78	C	0.400203	-0.328604	0.079165
H79	H	0.335975	-0.359994	0.134366
H80	H	0.501366	-0.319432	0.105666
H81	H	0.367720	-0.265358	0.061314
H82	H	-0.504614	-1.269593	0.000087
H83	H	-0.596207	-1.130248	0.000053
O84	O	-0.139678	-0.684978	0.000117
C85	C	-0.063044	-0.681754	0.079102
H86	H	-0.056451	-0.747779	0.105447
H87	H	0.035419	-0.651355	0.061338
H88	H	-0.106130	-0.643523	0.134389
H89	H	-0.038193	-0.421227	0.000067
H90	H	-0.390113	-0.692459	-0.000017
O91	O	-0.556713	-0.827109	-0.000038
C92	C	-0.584004	-0.743342	-0.000033
H93	H	-0.500014	-0.701835	-0.028907
H94	H	-0.670717	-0.737211	-0.044307
H95	H	-0.603350	-0.723243	0.073115
O96	O	-0.040311	-0.836450	0.000151
C97	C	-0.004789	-0.878687	0.079143
H98	H	-0.089044	-0.921526	0.105481
H99	H	0.075460	-0.917428	0.061391
H100	H	0.027942	-0.831263	0.134431
