data_functionalizedCrystal
_audit_creation_method	'MofGen! by Chris Wilmer'
_symmetry_space_group_name_H-M	'P1'
_symmetry_Int_Tables_number	1
_symmetry_cell_setting	triclinic
loop_
_symmetry_equiv_pos_as_xyz
  x,y,z
_cell_length_a	8.597340
_cell_length_b	17.019294
_cell_length_c	7.088929
_cell_angle_alpha	79.934307
_cell_angle_beta	103.954719
_cell_angle_gamma	84.889715
loop_
_atom_site_label
_atom_site_type_symbol
_atom_site_fract_x
_atom_site_fract_y
_atom_site_fract_z
O1	O	2.099265	0.109255	0.168841
O2	O	1.634332	0.122242	0.090111
O3	O	1.881731	-0.000067	0.151012
O4	O	1.851867	0.231565	0.107940
O5	O	1.914794	-0.016450	0.477132
O6	O	1.667395	0.105860	0.416231
O7	O	2.132328	0.092873	0.494961
Cu8	Cu	1.902881	0.097870	0.485373
Cu9	Cu	1.863780	0.117245	0.099699
O10	O	1.884930	0.215182	0.434060
C11	C	1.591410	0.113569	0.243456
C12	C	1.414256	0.112123	0.214510
C13	C	1.897782	-0.037896	0.318871
C14	C	1.896332	-0.126207	0.333165
C15	C	1.877632	-0.158761	0.162115
C16	C	1.876260	-0.241738	0.175551
C17	C	1.893600	-0.292160	0.360041
C18	C	1.912296	-0.259601	0.531104
C19	C	1.913657	-0.176624	0.517664
C20	C	1.890384	-0.543141	0.409512
C21	C	1.889027	-0.626123	0.422940
C22	C	1.852987	-0.608254	0.067385
C23	C	1.854359	-0.525278	0.053963
C24	C	1.873047	-0.492725	0.225024
C25	C	1.892203	-0.376977	0.373780
C26	C	1.874432	-0.407909	0.211281
C27	C	2.175250	0.101546	0.341612
C28	C	2.352402	0.102993	0.370545
C29	C	1.868878	0.253011	0.266197
C30	C	1.870327	0.341323	0.251889
N31	N	1.930394	0.084243	0.756638
N32	N	1.836279	0.130865	-0.171563
H33	H	1.331675	0.118834	0.058760
H34	H	1.738741	0.179179	0.722765
H35	H	1.905633	-0.516649	0.548808
O36	O	1.858916	-0.104377	-0.036874
H37	H	1.845663	-0.140956	-0.153560
H38	H	1.903139	-0.667175	0.573180
H39	H	2.027950	0.035932	0.862323
O40	O	1.931030	-0.313981	0.730103
H41	H	1.926971	-0.377151	0.710721
H42	H	1.837769	-0.634768	-0.071883
H43	H	1.840241	-0.484229	-0.096268
O44	O	1.461761	0.094105	0.576853
H45	H	1.588409	0.096678	0.567985
H46	H	1.861039	-0.268240	0.036264
O47	O	1.933843	-0.141507	0.702154
H48	H	1.945691	-0.190508	0.832704
O49	O	1.855716	-0.353529	0.012297
H50	H	1.955661	-0.372335	-0.051266
O51	O	1.910950	-0.431371	0.572764
H52	H	1.802354	-0.462448	0.568286
