data_functionalizedCrystal
_audit_creation_method	'MofGen! by Chris Wilmer'
_symmetry_space_group_name_H-M	'P1'
_symmetry_Int_Tables_number	1
_symmetry_cell_setting	triclinic
loop_
_symmetry_equiv_pos_as_xyz
  x,y,z
_cell_length_a	10.723024
_cell_length_b	10.723024
_cell_length_c	16.776229
_cell_angle_alpha	89.993181
_cell_angle_beta	89.994545
_cell_angle_gamma	84.467869
loop_
_atom_site_label
_atom_site_type_symbol
_atom_site_fract_x
_atom_site_fract_y
_atom_site_fract_z
O1	O	0.175030	1.657193	-0.066281
O2	O	0.675030	2.157193	0.433719
O3	O	0.191784	1.294041	-0.066283
O4	O	0.691784	1.794041	0.433717
O5	O	0.001831	1.483993	-0.066279
O6	O	0.501831	1.983993	0.433721
O7	O	0.364983	1.467240	-0.066285
O8	O	0.864983	1.967240	0.433715
O9	O	0.001819	1.483968	0.066297
O10	O	0.501819	1.983968	0.566297
O11	O	0.191772	1.294015	0.066293
O12	O	0.691772	1.794015	0.566293
O13	O	0.175018	1.657167	0.066296
O14	O	0.675018	2.157167	0.566296
Zn15	Zn	0.183393	1.475587	0.087344
Zn16	Zn	0.683393	1.975587	0.587344
Zn17	Zn	0.183409	1.475621	-0.087331
Zn18	Zn	0.683409	1.975621	0.412669
O19	O	0.364971	1.467215	0.066291
O20	O	0.864971	1.967215	0.566291
C21	C	0.190558	1.247528	0.000005
C22	C	0.690558	1.747528	0.500005
C23	C	0.186911	1.108974	0.000004
C24	C	0.686911	1.608974	0.500004
C25	C	-0.044675	1.482762	0.000008
C26	C	0.455325	1.982762	0.500008
C27	C	-0.183229	1.479114	0.000005
C28	C	0.316771	1.979114	0.500005
C29	C	0.293198	1.033991	0.000001
C30	C	0.793198	1.533991	0.500001
C31	C	0.289431	0.890788	0.000000
C32	C	0.789431	1.390788	0.500000
C33	C	-0.258212	1.585401	0.000005
C34	C	0.241788	2.085401	0.500005
C35	C	-0.401415	1.581634	0.000002
C36	C	0.098585	2.081634	0.500002
C37	C	0.411477	1.468447	0.000002
C38	C	0.911477	1.968447	0.500002
C39	C	0.550031	1.472094	-0.000000
C40	C	1.050031	1.972094	0.500000
C41	C	0.176243	1.703680	0.000006
C42	C	0.676243	2.203680	0.500006
C43	C	0.179891	1.842234	0.000002
C44	C	0.679891	2.342234	0.500002
N45	N	0.183381	1.475573	0.206555
N46	N	0.683381	1.975573	0.706555
N47	N	0.183410	1.475645	-0.206543
N48	N	0.683410	1.975645	0.293457
C49	C	0.099305	1.559711	0.248274
C50	C	0.599305	2.059711	0.748274
C51	C	0.099304	1.559718	0.331726
C52	C	0.599304	2.059718	0.831726
C53	C	0.183386	1.475592	0.373458
C54	C	0.683386	1.975592	0.873458
C55	C	0.267467	1.391446	0.331733
C56	C	0.767467	1.891446	0.831733
C57	C	0.267460	1.391434	0.248282
C58	C	0.767460	1.891434	0.748282
C59	C	0.267491	1.391491	0.668280
C60	C	0.767491	1.891491	1.168280
C61	C	0.267494	1.391512	0.751737
C62	C	0.767494	1.891512	1.251737
C63	C	0.099335	1.559775	0.751724
C64	C	0.599335	2.059775	1.251724
C65	C	0.099329	1.559763	0.668273
C66	C	0.599329	2.059763	1.168273
C67	C	0.183404	1.475613	0.626556
C68	C	0.683404	1.975613	1.126556
C69	C	0.183403	1.475605	0.536068
C70	C	0.683403	1.975605	1.036068
C71	C	0.183395	1.475605	0.463945
C72	C	0.683395	1.975605	0.963945
H73	H	0.386984	1.075814	0.000004
H74	H	0.886984	1.575814	0.500004
H75	H	0.030843	1.628228	0.365693
H76	H	0.530843	2.128228	0.865693
Cl77	Cl	0.042105	1.044415	0.000012
Cl78	Cl	0.542105	1.544415	0.500012
H79	H	0.030866	1.628270	0.634298
H80	H	0.530866	2.128270	1.134298
Cl81	Cl	0.429921	0.791315	-0.000009
Cl82	Cl	0.929921	1.291315	0.499991
Cl83	Cl	-0.193653	1.730207	0.000001
Cl84	Cl	0.306347	2.230207	0.500001
H85	H	-0.465848	1.672624	0.000005
H86	H	0.034152	2.172624	0.500005
H87	H	-0.385544	1.381099	0.000006
H88	H	0.114456	1.881099	0.500006
H89	H	-0.225051	1.385328	-0.000000
H90	H	0.274949	1.885328	0.500000
Cl91	Cl	-0.006399	1.665481	0.195820
Cl92	Cl	0.493601	2.165481	0.695820
H93	H	0.088896	0.906659	-0.000001
H94	H	0.588896	1.406659	0.499999
Cl95	Cl	0.373166	1.285680	0.384194
Cl96	Cl	0.873166	1.785680	0.884194
Cl97	Cl	0.373187	1.285711	0.615841
Cl98	Cl	0.873187	1.785711	1.115841
H99	H	0.030873	1.628291	0.785699
H100	H	0.530873	2.128291	1.285699
H101	H	0.335966	1.323003	0.785713
H102	H	0.835966	1.823003	1.285713
H103	H	0.335922	1.322919	0.214316
H104	H	0.835922	1.822919	0.714316
