data_functionalizedCrystal
_audit_creation_method	'MofGen! by Chris Wilmer'
_symmetry_space_group_name_H-M	'P1'
_symmetry_Int_Tables_number	1
_symmetry_cell_setting	triclinic
loop_
_symmetry_equiv_pos_as_xyz
  x,y,z
_cell_length_a	10.654550
_cell_length_b	14.519731
_cell_length_c	9.730223
_cell_angle_alpha	89.997677
_cell_angle_beta	89.996251
_cell_angle_gamma	84.086878
loop_
_atom_site_label
_atom_site_type_symbol
_atom_site_fract_x
_atom_site_fract_y
_atom_site_fract_z
O1	O	1.666602	0.129527	-0.114406
O2	O	1.301006	0.141868	-0.114385
O3	O	1.493483	0.001510	-0.114384
O4	O	1.474125	0.269884	-0.114407
O5	O	1.493481	0.001514	0.114196
O6	O	1.301004	0.141871	0.114195
O7	O	1.666600	0.129531	0.114174
Zn8	Zn	1.483802	0.135702	0.150476
Zn9	Zn	1.483804	0.135697	-0.150687
O10	O	1.474123	0.269888	0.114173
C11	C	1.254216	0.140964	-0.000092
C12	C	1.114798	0.138253	-0.000083
C13	C	1.492575	-0.032852	-0.000093
C14	C	1.489857	-0.135246	-0.000092
C15	C	1.034527	0.220893	-0.000110
C16	C	0.903530	0.218340	-0.000134
C17	C	0.933090	0.050499	-0.000108
C18	C	1.064084	0.053053	-0.000075
C19	C	1.017459	0.317794	-0.000131
C20	C	0.886463	0.315241	-0.000155
C21	C	1.487649	-0.218402	-0.000095
C22	C	1.484889	-0.322725	-0.000106
C23	C	1.482699	-0.405875	-0.000114
C24	C	1.479939	-0.510205	-0.000122
C25	C	1.713390	0.130435	-0.000122
C26	C	1.852808	0.133146	-0.000140
C27	C	1.475031	0.304250	-0.000121
C28	C	1.477749	0.406645	-0.000131
N29	N	1.483809	0.135704	0.356013
N30	N	1.483807	0.135687	-0.356224
C31	C	1.569059	0.073575	0.427939
C32	C	1.569056	0.073564	0.571822
C33	C	1.398547	0.197819	0.571840
C34	C	1.398546	0.197825	0.427959
C35	C	1.667505	0.001840	0.427931
C36	C	1.667502	0.001829	0.571814
H37	H	0.891782	-0.018867	-0.000123
C38	C	1.790397	0.032173	0.367623
H39	H	1.845127	0.045672	0.440330
H40	H	1.771375	0.085875	0.312672
H41	H	1.830519	-0.016328	0.312675
H42	H	1.129437	-0.014241	-0.000033
C43	C	1.627166	-0.088664	0.632107
H44	H	1.609210	-0.128957	0.559395
H45	H	1.553898	-0.075121	0.687068
H46	H	1.693526	-0.117750	0.687044
H47	H	0.844384	0.351751	-0.095825
H48	H	1.052822	0.348648	-0.098821
C49	C	1.797668	0.023177	0.624568
H50	H	1.851198	0.031974	0.548627
H51	H	1.833886	-0.027108	0.678798
H52	H	1.788218	0.077853	0.678811
H53	H	1.329117	0.248407	0.369398
C54	C	1.304773	0.266151	0.650985
H55	H	1.316987	0.257254	0.746977
H56	H	1.220941	0.255566	0.627408
H57	H	1.318560	0.327799	0.627408
H58	H	0.840512	0.344528	0.098527
H59	H	1.046429	0.355694	0.095531
H60	H	1.646736	-0.069044	0.388884
