data_functionalizedCrystal
_audit_creation_method	'MofGen! by Chris Wilmer'
_symmetry_space_group_name_H-M	'P1'
_symmetry_Int_Tables_number	1
_symmetry_cell_setting	triclinic
loop_
_symmetry_equiv_pos_as_xyz
  x,y,z
_cell_length_a	19.805407
_cell_length_b	15.297510
_cell_length_c	19.805399
_cell_angle_alpha	80.348499
_cell_angle_beta	89.982197
_cell_angle_gamma	80.294055
loop_
_atom_site_label
_atom_site_type_symbol
_atom_site_fract_x
_atom_site_fract_y
_atom_site_fract_z
Zn1	Zn	0.988081	0.359251	-0.429324
Zn2	Zn	0.968403	0.510119	-0.335721
Zn3	Zn	0.874893	0.359269	-0.316155
Zn4	Zn	0.855273	0.510064	-0.448864
O5	O	0.921662	0.434676	-0.382516
O6	O	1.080185	0.379279	-0.416919
O7	O	0.955974	0.490139	-0.238413
O8	O	0.906354	0.233019	-0.314801
O9	O	1.065727	0.490121	-0.348149
O10	O	0.989512	0.233006	-0.397946
O11	O	0.887273	0.379310	-0.224037
O12	O	0.777576	0.379257	-0.333748
O13	O	0.872915	0.490028	-0.540985
O14	O	0.763161	0.490045	-0.431249
O15	O	0.970488	0.379226	-0.526629
O16	O	0.936949	0.636359	-0.367096
O17	O	0.853834	0.636318	-0.450222
C18	C	0.745810	0.434647	-0.382496
C19	C	0.670577	0.434657	-0.382506
C20	C	0.642748	0.377044	-0.418394
C21	C	0.572059	0.377048	-0.418397
C22	C	0.529199	0.434672	-0.382516
C23	C	0.557033	0.492288	-0.346624
C24	C	0.627721	0.492278	-0.346617
C25	C	0.271954	0.492328	-0.346650
C26	C	0.201261	0.492336	-0.346661
C27	C	0.216292	0.377099	-0.418430
C28	C	0.286980	0.377089	-0.418423
C29	C	0.314808	0.434701	-0.382528
C30	C	0.391457	0.434694	-0.382524
C31	C	0.452550	0.434684	-0.382524
C32	C	0.891146	0.669073	-0.412917
C33	C	0.878152	0.769349	-0.425945
C34	C	1.014772	1.051969	-0.289670
C35	C	1.026980	0.957755	-0.277426
C36	C	0.989774	0.910649	-0.314555
C37	C	0.940359	0.957766	-0.363930
C38	C	0.928146	1.051990	-0.376172
C39	C	0.903148	0.910669	-0.401056
C40	C	0.853732	0.957787	-0.450431
C41	C	0.841523	1.052001	-0.462671
C42	C	0.878728	1.099108	-0.425542
C43	C	0.915360	0.816446	-0.388815
C44	C	0.828734	0.816466	-0.475316
C45	C	0.816527	0.910681	-0.487560
C46	C	1.098201	0.434705	-0.382537
C47	C	1.173432	0.434717	-0.382545
C48	C	0.921708	0.434619	-0.559051
C49	C	0.921727	0.434595	-0.634280
C50	C	0.952310	1.199363	-0.352018
C51	C	0.965354	1.099087	-0.339041
C52	C	0.972535	0.376897	-0.662150
C53	C	0.972545	0.376871	-0.732835
C54	C	0.921750	0.434547	-0.775650
C55	C	0.870937	0.492247	-0.747775
C56	C	0.870925	0.492268	-0.677091
C57	C	0.870986	0.492163	-1.032838
C58	C	0.871004	0.492140	-1.103527
C59	C	0.972607	0.376766	-1.088582
C60	C	0.972594	0.376787	-1.017898
C61	C	0.921780	0.434483	-0.990029
C62	C	0.921768	0.434510	-0.913384
C63	C	0.921763	0.434526	-0.852294
C64	C	0.921665	0.434667	-0.206659
C65	C	0.921809	0.434437	-0.131397
H66	H	0.522131	0.539201	-0.317406
H67	H	0.650378	0.539192	-0.317393
H68	H	0.294602	0.539240	-0.317423
H69	H	0.829618	0.539156	-1.010158
Cl70	Cl	0.807142	0.564652	-1.157351
Cl71	Cl	0.977481	0.757224	-0.326746
H72	H	0.999716	0.833935	-0.304582
Cl73	Cl	1.036487	0.304229	-1.123621
Cl74	Cl	1.036398	0.304390	-0.608333
H75	H	1.067213	0.919395	-0.237225
Cl76	Cl	0.807078	0.564752	-0.801599
H77	H	0.868793	1.175825	-0.435510
Cl78	Cl	0.807048	0.564802	-0.642054
Cl79	Cl	1.061537	1.111192	-0.242999
H80	H	0.801277	1.090362	-0.502867
Cl81	Cl	1.036455	0.304280	-0.964077
H82	H	0.677640	0.330122	-0.447614
Cl83	Cl	0.754406	0.969925	-0.549629
Cl84	Cl	0.781954	0.757254	-0.521990
H85	H	0.549404	0.330136	-0.447622
Cl86	Cl	0.181305	0.304668	-0.463553
Cl87	Cl	0.147381	0.564780	-0.301549
H88	H	0.321873	0.330169	-0.447643
H89	H	1.013919	0.329890	-0.755523
