data_functionalizedCrystal
_audit_creation_method	'MofGen! by Chris Wilmer'
_symmetry_space_group_name_H-M	'P1'
_symmetry_Int_Tables_number	1
_symmetry_cell_setting	triclinic
loop_
_symmetry_equiv_pos_as_xyz
  x,y,z
_cell_length_a	21.395364
_cell_length_b	16.625546
_cell_length_c	21.395355
_cell_angle_alpha	90.018476
_cell_angle_beta	90.024552
_cell_angle_gamma	90.037419
loop_
_atom_site_label
_atom_site_type_symbol
_atom_site_fract_x
_atom_site_fract_y
_atom_site_fract_z
Zn1	Zn	0.957895	-0.320773	0.354262
Zn2	Zn	1.457895	0.179227	0.854262
Zn3	Zn	0.957813	-0.455588	0.249484
Zn4	Zn	1.457813	0.044412	0.749484
Zn5	Zn	0.853110	-0.320809	0.249498
Zn6	Zn	1.353110	0.179191	0.749498
Zn7	Zn	0.853094	-0.455603	0.354224
Zn8	Zn	1.353094	0.044397	0.854224
O9	O	0.905478	-0.388193	0.301867
O10	O	1.405478	0.111807	0.801867
O11	O	1.045562	-0.338636	0.340372
O12	O	1.545562	0.161364	0.840372
O13	O	0.943896	-0.437718	0.161808
O14	O	1.443896	0.062282	0.661808
O15	O	0.867051	-0.207972	0.263417
O16	O	1.367051	0.292028	0.763417
O17	O	1.045501	-0.437684	0.263393
O18	O	1.545501	0.062316	0.763393
O19	O	0.944036	-0.207946	0.340386
O20	O	1.444036	0.292054	0.840386
O21	O	0.866971	-0.338696	0.161819
O22	O	1.366971	0.161304	0.661819
O23	O	0.765430	-0.338710	0.263381
O24	O	1.265430	0.161290	0.763381
O25	O	0.867024	-0.437709	0.441907
O26	O	1.367024	0.062291	0.941907
O27	O	0.765418	-0.437743	0.340323
O28	O	1.265418	0.062257	0.840323
O29	O	0.944021	-0.338650	0.441935
O30	O	1.444021	0.161350	0.941935
O31	O	0.943880	-0.568423	0.263357
O32	O	1.443880	-0.068423	0.763357
O33	O	0.866944	-0.568433	0.340309
O34	O	1.366944	-0.068433	0.840309
C35	C	0.742690	-0.388233	0.301850
C36	C	1.242690	0.111767	0.801850
C37	C	0.673049	-0.388269	0.301857
C38	C	1.173049	0.111731	0.801857
C39	C	0.640390	-0.336779	0.342002
C40	C	1.140390	0.163221	0.842002
C41	C	0.574954	-0.336757	0.342005
C42	C	1.074954	0.163243	0.842005
C43	C	0.542181	-0.388240	0.301868
C44	C	1.042181	0.111760	0.801868
C45	C	0.574848	-0.439734	0.261715
C46	C	1.074848	0.060266	0.761715
C47	C	0.640282	-0.439748	0.261710
C48	C	1.140282	0.060252	0.761710
C49	C	0.438465	-0.460853	0.296831
C50	C	0.938465	0.039147	0.796831
C51	C	0.373032	-0.460840	0.296841
C52	C	0.873032	0.039160	0.796841
C53	C	0.340360	-0.388196	0.301882
C54	C	0.840360	0.111804	0.801882
C55	C	0.373130	-0.315562	0.306927
C56	C	0.873130	0.184438	0.806927
C57	C	0.438564	-0.315577	0.306921
C58	C	0.938564	0.184423	0.806921
C59	C	0.471228	-0.388230	0.301870
C60	C	0.971228	0.111770	0.801870
C61	C	0.236748	-0.336678	0.342032
C62	C	0.736748	0.163322	0.842032
C63	C	0.171312	-0.336656	0.342030
C64	C	0.671312	0.163344	0.842030
C65	C	0.171206	-0.439639	0.261744
C66	C	0.671206	0.060361	0.761744
C67	C	0.236642	-0.439655	0.261743
C68	C	0.736642	0.060345	0.761743
C69	C	0.269409	-0.388175	0.301890
C70	C	0.769409	0.111825	0.801890
C71	C	0.905419	-0.597684	0.301841
C72	C	1.405419	-0.097684	0.801841
C73	C	0.905451	-0.687305	0.301851
C74	C	1.405451	-0.187305	0.801851
C75	C	0.905560	-1.015481	0.301916
C76	C	1.405560	-0.515481	0.801916
C77	C	0.905528	-0.924172	0.301900
C78	C	1.405528	-0.424172	0.801900
C79	C	0.905505	-0.851396	0.301883
C80	C	1.405505	-0.351396	0.801883
C81	C	0.905473	-0.760082	0.301867
C82	C	1.405473	-0.260082	0.801867
C83	C	1.068901	-0.388155	0.301885
C84	C	1.568901	0.111845	0.801885
C85	C	1.138543	-0.388138	0.301893
C86	C	1.638543	0.111862	0.801893
C87	C	0.905530	-0.388177	0.465291
C88	C	1.405530	0.111823	0.965291
C89	C	0.905552	-0.388170	0.534932
C90	C	1.405552	0.111830	1.034932
C91	C	0.905555	-0.177884	0.301907
C92	C	1.405555	0.322116	0.801907
C93	C	0.905587	-0.088263	0.301924
C94	C	1.405587	0.411737	0.801924
C95	C	0.905462	-0.388151	0.139080
C96	C	1.405462	0.111849	0.639080
C97	C	0.905561	-0.387931	0.069439
C98	C	1.405561	0.112069	0.569439
C99	C	0.945643	-0.336588	0.567660
C100	C	1.445643	0.163412	1.067660
C101	C	0.945642	-0.336553	0.633096
C102	C	1.445642	0.163447	1.133096
C103	C	0.905557	-0.388115	0.665800
C104	C	1.405557	0.111885	1.165800
C105	C	0.865459	-0.439701	0.633064
C106	C	1.365459	0.060299	1.133064
C107	C	0.865456	-0.439728	0.567630
C108	C	1.365456	0.060272	1.067630
C109	C	0.900589	-0.460717	0.769466
C110	C	1.400589	0.039283	1.269466
C111	C	0.900596	-0.460691	0.834899
C112	C	1.400596	0.039309	1.334899
C113	C	0.905561	-0.388030	0.867621
C114	C	1.405561	0.111970	1.367621
C115	C	0.910532	-0.315392	0.834902
C116	C	1.410532	0.184608	1.334902
C117	C	0.910530	-0.315420	0.769468
C118	C	1.410530	0.184580	1.269468
C119	C	0.905555	-0.388091	0.736753
C120	C	1.405555	0.111909	1.236753
C121	C	0.945653	-0.336406	0.971302
C122	C	1.445653	0.163594	1.471302
C123	C	0.945647	-0.336370	1.036739
C124	C	1.445647	0.163630	1.536739
C125	C	0.865468	-0.439524	1.036706
C126	C	1.365468	0.060476	1.536706
C127	C	0.865470	-0.439553	0.971270
C128	C	1.365470	0.060447	1.471270
C129	C	0.905565	-0.387995	0.938572
C130	C	1.405565	0.112005	1.438572
H131	H	0.667065	-0.294860	0.374693
H132	H	1.167065	0.205140	0.874693
H133	H	0.263429	-0.294756	0.374719
H134	H	0.763429	0.205244	0.874719
N135	N	0.471846	-0.535053	0.291678
N136	N	0.971846	-0.035053	0.791678
N137	N	0.508332	-0.546269	0.246906
N138	N	1.008332	-0.046269	0.746906
H139	H	0.531909	-0.598670	0.243266
H140	H	1.031909	-0.098670	0.743266
N141	N	0.339756	-0.241359	0.312084
N142	N	0.839756	0.258641	0.812084
N143	N	0.281333	-0.241353	0.312087
N144	N	0.781333	0.258647	0.812087
H145	H	0.257760	-0.188950	0.315732
H146	H	0.757760	0.311050	0.815732
N147	N	0.137959	-0.284039	0.383034
N148	N	0.637959	0.215961	0.883034
N149	N	0.167226	-0.238077	0.418869
N150	N	0.667226	0.261923	0.918869
H151	H	0.143670	-0.200912	0.447827
H152	H	0.643670	0.299088	0.947827
H153	H	0.914576	-0.256224	0.861543
H154	H	1.414576	0.243776	1.361543
N155	N	0.137728	-0.492214	0.220742
N156	N	0.637728	0.007786	0.720742
N157	N	0.079305	-0.492190	0.220747
N158	N	0.579305	0.007810	0.720747
H159	H	0.055657	-0.529318	0.191785
H160	H	0.555657	-0.029318	0.691785
N161	N	0.824513	-0.492423	0.534186
N162	N	1.324513	0.007577	1.034186
N163	N	0.824519	-0.492443	0.475763
N164	N	1.324519	0.007557	0.975763
H165	H	0.795603	-0.529659	0.452140
H166	H	1.295603	-0.029659	0.952140
H167	H	0.548358	-0.294824	0.374695
H168	H	1.048358	0.205176	0.874695
N169	N	0.824525	-0.492209	1.070095
N170	N	1.324525	0.007791	1.570095
N171	N	0.788738	-0.538271	1.040861
N172	N	1.288738	-0.038271	1.540861
H173	H	0.759820	-0.575482	1.064444
H174	H	1.259820	-0.075482	1.564444
H175	H	0.978297	-0.294420	0.944678
H176	H	1.478297	0.205580	1.444678
H177	H	0.832827	-0.481562	0.944623
H178	H	1.332827	0.018438	1.444623
N179	N	0.895477	-0.534887	0.868307
N180	N	1.395477	-0.034887	1.368307
N181	N	0.891005	-0.599754	0.839086
N182	N	1.391005	-0.099754	1.339086
H183	H	0.887372	-0.652155	0.862679
H184	H	1.387372	-0.152155	1.362679
N185	N	0.269996	-0.492258	0.220732
N186	N	0.769996	0.007742	0.720732
N187	N	0.240730	-0.538220	0.184897
N188	N	0.740730	-0.038220	0.684897
H189	H	0.264286	-0.575372	0.155929
H190	H	0.764286	-0.075372	0.655929
H191	H	0.548159	-0.481651	0.229036
H192	H	1.048159	0.018349	0.729036
H193	H	0.896379	-0.519872	0.742829
H194	H	1.396379	-0.019872	1.242829
N195	N	0.339571	-0.535037	0.291697
N196	N	0.839571	-0.035037	0.791697
N197	N	0.368747	-0.599892	0.287189
N198	N	0.868747	-0.099892	0.787189
H199	H	0.345118	-0.652297	0.283557
H200	H	0.845118	-0.152297	0.783557
H201	H	0.465242	-0.256436	0.311026
H202	H	0.965242	0.243564	0.811026
N203	N	0.824507	-0.492373	0.666458
N204	N	1.324507	0.007627	1.166458
N205	N	0.788711	-0.538423	0.637225
N206	N	1.288711	-0.038423	1.137225
H207	H	0.759783	-0.575620	0.660808
H208	H	1.259783	-0.075620	1.160808
H209	H	0.666873	-0.481679	0.229018
H210	H	1.166873	0.018321	0.729018
H211	H	0.978293	-0.294361	1.063385
H212	H	1.478293	0.205639	1.563385
H213	H	0.978291	-0.294604	0.541042
H214	H	1.478291	0.205396	1.041042
H215	H	0.914576	-0.256276	0.742831
H216	H	1.414576	0.243724	1.242831
H217	H	0.978287	-0.294545	0.659748
H218	H	1.478287	0.205455	1.159748
