data_functionalizedCrystal
_audit_creation_method	'MofGen! by Chris Wilmer'
_symmetry_space_group_name_H-M	'P1'
_symmetry_Int_Tables_number	1
_symmetry_cell_setting	triclinic
loop_
_symmetry_equiv_pos_as_xyz
  x,y,z
_cell_length_a	10.540554
_cell_length_b	9.616153
_cell_length_c	14.519709
_cell_angle_alpha	90.003203
_cell_angle_beta	95.894283
_cell_angle_gamma	89.995272
loop_
_atom_site_label
_atom_site_type_symbol
_atom_site_fract_x
_atom_site_fract_y
_atom_site_fract_z
O1	O	-1.684554	0.115580	0.130026
O2	O	-1.315019	0.115598	0.142258
O3	O	-1.509584	0.115576	0.001957
O4	O	-1.489989	0.115602	0.270327
O5	O	-1.509558	-0.115715	0.001960
O6	O	-1.314992	-0.115693	0.142261
O7	O	-1.684528	-0.115711	0.130029
Zn8	Zn	-1.499756	-0.152425	0.136145
Zn9	Zn	-1.499791	0.152312	0.136142
O10	O	-1.489962	-0.115689	0.270330
C11	C	-1.267712	-0.000045	0.141339
C12	C	-1.126793	-0.000039	0.138587
C13	C	-1.091169	-0.000054	0.036141
C14	C	-0.944599	-0.000594	0.033244
C15	C	-0.916966	-0.131873	0.185342
C16	C	-1.063708	-0.131969	0.187529
C17	C	-1.063607	0.131062	0.189016
C18	C	-0.917311	0.132779	0.184271
N19	N	-1.499741	-0.360399	0.136148
C20	C	-1.395348	-0.580757	0.210947
C21	C	-1.395574	-0.419590	0.211228
C22	C	-1.632240	-0.418853	0.158044
C23	C	-1.631670	-0.580070	0.158573
C24	C	-1.472959	-0.580318	0.039206
C25	C	-1.469906	-0.419091	0.039834
C26	C	-0.731837	-0.000066	0.130935
C27	C	-0.872762	-0.000066	0.133652
C28	C	-1.508658	-0.000070	-0.032406
C29	C	-1.505921	-0.000070	-0.134803
N30	N	-1.499816	0.360286	0.136132
C31	C	-1.495846	-0.000034	-0.509753
C32	C	-1.498644	-0.000044	-0.405430
C33	C	-1.500883	-0.000053	-0.322281
C34	C	-1.503682	-0.000061	-0.217951
C35	C	-1.490889	-0.000040	0.304694
C36	C	-1.493625	-0.000030	0.407090
H37	H	-1.085972	-0.137594	0.262629
N38	N	-1.264482	-0.632161	0.193771
H39	H	-1.226256	-0.686561	0.249333
H40	H	-1.207971	-0.550127	0.183120
N41	N	-0.906285	0.124522	-0.020310
H42	H	-0.932450	0.212251	0.011001
H43	H	-0.949969	0.120610	-0.085506
H44	H	-1.711835	-0.380509	0.105040
N45	N	-1.147323	0.125113	-0.015982
H46	H	-1.196402	0.183047	0.026303
H47	H	-1.206672	0.093168	-0.070943
N48	N	-0.876526	-0.262324	0.138367
H49	H	-0.780582	-0.263831	0.139384
H50	H	-0.916577	-0.263888	0.072130
H51	H	-1.412739	-0.381004	0.283138
N52	N	-1.737737	-0.631775	0.089211
H53	H	-1.700560	-0.690169	0.040770
H54	H	-1.784642	-0.549771	0.058482
H55	H	-1.656424	-0.378457	0.227959
N56	N	-0.853228	-0.137875	0.283264
H57	H	-0.801704	-0.226296	0.292149
H58	H	-0.920396	-0.136280	0.328104
N59	N	-1.120254	0.263460	0.146670
H60	H	-1.160337	0.318595	0.195334
H61	H	-1.187418	0.239689	0.094354
H62	H	-1.412285	-0.621250	0.282451
N63	N	-0.879953	0.261955	0.134451
H64	H	-0.834359	0.234552	0.079323
H65	H	-0.821527	0.320788	0.178050
H66	H	-0.867516	0.141155	0.257551
H67	H	-1.378435	-0.621053	0.018367
N68	N	-1.662974	-0.629867	0.252239
H69	H	-1.677011	-0.547092	0.292797
H70	H	-1.589895	-0.687550	0.282066
H71	H	-1.372437	-0.380888	0.023237
H72	H	-1.541028	-0.378805	-0.018515
N73	N	-1.573847	-0.630814	-0.034569
H74	H	-1.660473	-0.598185	-0.019602
H75	H	-1.572459	-0.735771	-0.036812
N76	N	-1.091970	0.132774	0.288857
H77	H	-1.145479	0.049087	0.301401
H78	H	-1.140057	0.220519	0.301271
N79	N	-1.265113	-0.367250	0.193798
H80	H	-1.228650	-0.309090	0.248108
H81	H	-1.272422	-0.308756	0.135725
N82	N	-1.149236	-0.125077	-0.015101
H83	H	-1.198517	-0.181705	0.027758
H84	H	-1.079252	-0.184069	-0.037423
N85	N	-1.117388	-0.262989	0.141303
H86	H	-1.045694	-0.320137	0.119698
H87	H	-1.179770	-0.237572	0.086395
N88	N	-0.907418	-0.126499	-0.020029
H89	H	-0.951205	-0.122777	-0.085203
H90	H	-0.934198	-0.213646	0.011632
