data_functionalizedCrystal
_audit_creation_method	'MofGen! by Chris Wilmer'
_symmetry_space_group_name_H-M	'P1'
_symmetry_Int_Tables_number	1
_symmetry_cell_setting	triclinic
loop_
_symmetry_equiv_pos_as_xyz
  x,y,z
_cell_length_a	16.959455
_cell_length_b	17.637651
_cell_length_c	16.959447
_cell_angle_alpha	78.752498
_cell_angle_beta	89.983277
_cell_angle_gamma	101.217467
loop_
_atom_site_label
_atom_site_type_symbol
_atom_site_fract_x
_atom_site_fract_y
_atom_site_fract_z
Zn1	Zn	1.144788	-0.314770	-0.383257
Zn2	Zn	1.117995	-0.446998	-0.224319
Zn3	Zn	1.012610	-0.314800	-0.251083
Zn4	Zn	0.985877	-0.446943	-0.356463
O5	O	1.065317	-0.380878	-0.303780
O6	O	1.251842	-0.332321	-0.362186
O7	O	1.103991	-0.429496	-0.117251
O8	O	1.052545	-0.204156	-0.291031
O9	O	1.232158	-0.429468	-0.245415
O10	O	1.149655	-0.204135	-0.388138
O11	O	1.026565	-0.332371	-0.136915
O12	O	0.898455	-0.332318	-0.265049
O13	O	1.006981	-0.429375	-0.470635
O14	O	0.878814	-0.429403	-0.342471
O15	O	1.123732	-0.332268	-0.490321
O16	O	1.078068	-0.557630	-0.219433
O17	O	0.981002	-0.557590	-0.316519
C18	C	0.859955	-0.380859	-0.303757
C19	C	0.772096	-0.380870	-0.303762
C20	C	1.023748	-0.586298	-0.262182
C21	C	1.006037	-0.674177	-0.244412
C22	C	0.741039	-0.330250	-0.263548
C23	C	0.720598	-0.431495	-0.343987
C24	C	0.638050	-0.431505	-0.343997
C25	C	0.606994	-0.380885	-0.303783
C26	C	0.658485	-0.330256	-0.263558
C27	C	0.586555	-0.482127	-0.384228
C28	C	0.504001	-0.482137	-0.384240
C29	C	0.472943	-0.431521	-0.344020
C30	C	0.524439	-0.380891	-0.303793
C31	C	0.493382	-0.330271	-0.263579
C32	C	0.544876	-0.279644	-0.223347
C33	C	0.627426	-0.279639	-0.223339
C34	C	0.390393	-0.431525	-0.344028
C35	C	0.410827	-0.330277	-0.263589
C36	C	1.200381	-0.962851	-0.439023
C37	C	1.183713	-1.045428	-0.422312
C38	C	1.082660	-1.045557	-0.321096
C39	C	1.099322	-0.962980	-0.337796
C40	C	1.158182	-0.921633	-0.396761
C41	C	1.057123	-0.921761	-0.295534
C42	C	1.073781	-0.839191	-0.312236
C43	C	1.132637	-0.797838	-0.371200
C44	C	1.174840	-0.839062	-0.413463
C45	C	0.998259	-0.963109	-0.236573
C46	C	0.956060	-0.921891	-0.194311
C47	C	0.972721	-0.839319	-0.211009
C48	C	1.031578	-0.797966	-0.269972
C49	C	0.930518	-0.798095	-0.168745
C50	C	0.947176	-0.715524	-0.185447
C51	C	1.048236	-0.715396	-0.286674
C52	C	1.271482	-0.380897	-0.303804
C53	C	1.359336	-0.380906	-0.303814
C54	C	1.065363	-0.380812	-0.509962
C55	C	1.065383	-0.380784	-0.597824
C56	C	1.107070	-0.174656	-0.345559
C57	C	1.124863	-0.086776	-0.363362
C58	C	1.004707	-0.431260	-0.959070
C59	C	1.126281	-0.330142	-0.979564
C60	C	1.126257	-0.330159	-0.897014
C61	C	1.065458	-0.380728	-0.845489
C62	C	1.004682	-0.431280	-0.876512
C63	C	1.187036	-0.279613	-0.865983
C64	C	1.187014	-0.279629	-0.783429
C65	C	1.126211	-0.330194	-0.731903
C66	C	1.065433	-0.380748	-0.762931
C67	C	1.004633	-0.431317	-0.711405
C68	C	0.943851	-0.481867	-0.742433
C69	C	0.943879	-0.481845	-0.824986
C70	C	1.126183	-0.330216	-0.649350
C71	C	1.004608	-0.431337	-0.628848
C72	C	1.065328	-0.380886	-0.098412
C73	C	1.065507	-0.380691	-0.010596
H74	H	0.385548	-0.289056	-0.230840
H75	H	1.236506	-0.238467	-0.758174
H76	H	1.146199	-0.730604	-0.384797
H77	H	0.519580	-0.238425	-0.190609
C78	C	0.684077	-0.223941	-0.179104
N79	N	0.726751	-0.181985	-0.145793
C80	C	1.193039	-0.274615	-0.615223
N81	N	1.243398	-0.232731	-0.589520
C82	C	0.891365	-0.967381	-0.129402
N83	N	0.842655	-1.001644	-0.080492
H84	H	0.782969	-0.289033	-0.230789
H85	H	0.745891	-0.472704	-0.376732
C86	C	0.620722	-0.537807	-0.428458
N87	N	0.646460	-0.579750	-0.461770
H88	H	0.462081	-0.523362	-0.416998
H89	H	0.894396	-0.523003	-0.850256
H90	H	1.175785	-0.288976	-1.021520
H91	H	0.912813	-0.681964	-0.151033
C92	C	0.333755	-0.487210	-0.388282
N93	N	0.291094	-0.529156	-0.421615
C94	C	0.876974	-0.537491	-0.685744
N95	N	0.826602	-0.579385	-0.643044
C96	C	1.112984	-0.669910	-0.351540
N97	N	1.161748	-0.635650	-0.400398
C98	C	0.937721	-0.486966	-0.572175
N99	N	0.887341	-0.528867	-0.529490
H100	H	1.222776	-0.805396	-0.461472
C101	C	1.265130	-0.917366	-0.503889
N102	N	1.313894	-0.883106	-0.552747
H103	H	0.955218	-0.472414	-0.984337
C104	C	0.865814	-0.843587	-0.103846
N105	N	0.817095	-0.877852	-0.054946
C106	C	1.230140	-1.090765	-0.468809
N107	N	1.265107	-1.124913	-0.503832
H108	H	1.236539	-0.238448	-0.907940
C109	C	1.017964	-1.091048	-0.256187
N110	N	0.969255	-1.125311	-0.207277
H111	H	0.984690	-1.030344	-0.222984
