data_functionalizedCrystal
_audit_creation_method	'MofGen! by Chris Wilmer'
_symmetry_space_group_name_H-M	'P1'
_symmetry_Int_Tables_number	1
_symmetry_cell_setting	triclinic
loop_
_symmetry_equiv_pos_as_xyz
  x,y,z
_cell_length_a	9.065218
_cell_length_b	19.288865
_cell_length_c	17.766277
_cell_angle_alpha	89.988397
_cell_angle_beta	89.990588
_cell_angle_gamma	84.076066
loop_
_atom_site_label
_atom_site_type_symbol
_atom_site_fract_x
_atom_site_fract_y
_atom_site_fract_z
O1	O	1.956844	0.101842	-0.062606
O2	O	1.527266	0.110195	-0.062608
O3	O	1.754468	0.004985	-0.062592
O4	O	1.729642	0.207053	-0.062622
O5	O	1.754428	0.004979	0.062596
O6	O	1.527227	0.110190	0.062580
O7	O	1.956804	0.101836	0.062582
Cu8	Cu	1.742012	0.106013	0.074012
Cu9	Cu	1.742059	0.106019	-0.074038
O10	O	1.729603	0.207047	0.062566
C11	C	1.753649	-0.020901	0.000004
C12	C	1.751251	-0.098023	0.000011
C13	C	1.472288	0.109390	-0.000014
C14	C	1.308529	0.106989	-0.000014
C15	C	1.884563	-0.141684	0.000015
C16	C	1.882310	-0.214149	0.000003
C17	C	1.746738	-0.242949	0.000002
C18	C	1.613409	-0.199278	-0.000006
C19	C	1.615666	-0.126815	-0.000002
C20	C	1.640149	-0.352066	0.043852
C21	C	1.637898	-0.424528	0.043853
C22	C	1.739773	-0.466448	-0.000015
C23	C	1.843923	-0.435900	-0.043873
C24	C	1.846180	-0.363437	-0.043868
C25	C	1.744276	-0.321522	-0.000003
C26	C	1.870651	-0.588685	-0.000025
C27	C	1.868392	-0.661150	-0.000041
C28	C	1.599488	-0.646278	-0.000043
C29	C	1.601750	-0.573814	-0.000034
C30	C	1.737335	-0.545022	-0.000021
C31	C	2.011782	0.102642	-0.000014
C32	C	2.175541	0.105043	-0.000019
C33	C	1.730421	0.232933	-0.000032
C34	C	1.732819	0.310055	-0.000043
N35	N	1.741989	0.106007	0.178142
N36	N	1.742093	0.106019	-0.178168
C37	C	1.842627	0.059444	0.217536
C38	C	1.842635	0.059440	0.296338
C39	C	1.742020	0.106013	0.335743
C40	C	1.641364	0.152581	0.296339
C41	C	1.641349	0.152578	0.217539
C42	C	1.722271	0.169148	0.460571
C43	C	1.722297	0.169151	0.539370
C44	C	1.742060	0.106022	0.578789
C45	C	1.761829	0.042886	0.539400
C46	C	1.761813	0.042883	0.460599
C47	C	1.742026	0.106021	0.421189
C48	C	1.842712	0.059451	0.703629
C49	C	1.842710	0.059447	0.782432
C50	C	1.641446	0.152593	0.782432
C51	C	1.641441	0.152591	0.703630
C52	C	1.742082	0.106021	0.664234
H53	H	1.990872	-0.249704	0.000004
C54	C	1.373267	-0.538819	-0.064382
C55	C	1.455204	-0.525819	-0.000028
H56	H	1.282787	-0.509191	-0.064376
H57	H	1.428888	-0.529983	-0.108029
H58	H	1.352535	-0.586099	-0.064378
H59	H	1.475946	-0.478540	-0.000035
H60	H	1.399571	-0.534649	0.043630
C61	C	1.930094	-0.060229	0.320633
C62	C	1.953257	0.008254	0.339655
H63	H	1.998391	-0.091828	0.347372
H64	H	1.831706	-0.068413	0.333562
H65	H	1.944499	-0.066891	0.268064
H66	H	1.938841	0.014917	0.392224
H67	H	2.051668	0.016441	0.326731
H68	H	1.994967	-0.118247	0.000023
C69	C	1.387183	-0.091816	-0.064358
C70	C	1.469117	-0.078819	-0.000001
H71	H	1.296705	-0.062186	-0.064352
H72	H	1.442808	-0.082979	-0.108003
H73	H	1.366447	-0.139095	-0.064356
H74	H	1.489862	-0.031541	-0.000006
H75	H	1.413479	-0.087650	0.043655
C76	C	1.553911	0.272249	0.193259
C77	C	1.530732	0.203770	0.174232
H78	H	1.485627	0.303853	0.166518
H79	H	1.539509	0.278909	0.245822
H80	H	1.652315	0.280429	0.180329
H81	H	1.432331	0.195588	0.187167
H82	H	1.545123	0.197107	0.121658
H83	H	1.706209	0.220560	0.571435
H84	H	1.706152	0.220558	0.428483
H85	H	1.924655	0.021528	0.671551
C86	C	1.984332	-0.778832	-0.000060
C87	C	2.014940	-0.709147	-0.000044
H88	H	2.074808	-0.808462	-0.000067
H89	H	1.928716	-0.787663	0.043590
H90	H	1.928735	-0.787631	-0.043722
H91	H	2.070528	-0.700347	0.043621
H92	H	2.070580	-0.700313	-0.043699
C93	C	1.380116	-0.432627	0.069307
C94	C	1.523415	-0.458101	0.092059
H95	H	1.309439	-0.453356	0.099066
H96	H	1.366891	-0.383478	0.075586
H97	H	1.366830	-0.443783	0.017838
H98	H	1.536705	-0.446941	0.143526
H99	H	1.536645	-0.507261	0.085786
C100	C	1.369571	-0.655923	0.064306
C101	C	1.450461	-0.677925	-0.000047
H102	H	1.277562	-0.675461	0.064298
H103	H	1.424425	-0.670869	0.107954
H104	H	1.351847	-0.606517	0.064303
H105	H	1.468195	-0.727331	-0.000040
H106	H	1.395594	-0.662984	-0.043706
C107	C	1.385728	0.191684	0.320633
C108	C	1.530764	0.203772	0.339652
H109	H	1.317444	0.223284	0.347377
H110	H	1.371321	0.198350	0.268071
H111	H	1.370051	0.145221	0.333566
H112	H	1.546445	0.250234	0.326714
H113	H	1.545177	0.197112	0.392226
H114	H	1.926879	-0.470031	-0.079594
C115	C	2.049587	-0.381947	-0.130592
C116	C	1.960640	-0.329856	-0.092083
H117	H	2.120240	-0.361213	-0.160363
H118	H	2.099704	-0.413035	-0.095331
H119	H	1.989138	-0.406912	-0.162210
H120	H	2.021089	-0.304894	-0.060461
H121	H	1.910520	-0.298756	-0.127349
C122	C	1.670037	-0.067358	0.436392
C123	C	1.783508	-0.026517	0.417310
H124	H	1.683421	-0.110202	0.409666
H125	H	1.672892	-0.076384	0.488958
H126	H	1.576845	-0.043188	0.423481
H127	H	1.876701	-0.050684	0.430226
H128	H	1.780667	-0.017492	0.364733
C129	C	2.136222	-0.610661	-0.000041
C130	C	2.019682	-0.557030	-0.000029
H131	H	2.228226	-0.591119	-0.000051
H132	H	2.129749	-0.638623	0.043611
H133	H	2.129740	-0.638605	-0.043702
H134	H	2.026158	-0.529089	0.043635
H135	H	2.026158	-0.529056	-0.043685
H136	H	1.559519	0.190510	0.814515
C137	C	1.442522	0.244665	0.711548
C138	C	1.530832	0.203784	0.660323
H139	H	1.374238	0.276272	0.684810
H140	H	1.389660	0.215406	0.742295
H141	H	1.503780	0.270050	0.742270
H142	H	1.469575	0.178394	0.629604
H143	H	1.583698	0.233046	0.629563
H144	H	1.777921	-0.008520	0.571493
C145	C	1.604640	-0.268495	0.144057
C146	C	1.528156	-0.305991	0.092077
H147	H	1.535499	-0.240050	0.173823
H148	H	1.663303	-0.300064	0.175669
H149	H	1.666973	-0.239933	0.117927
H150	H	1.465831	-0.334558	0.118206
H151	H	1.469467	-0.274418	0.060460
C152	C	1.383490	-0.208922	0.064342
C153	C	1.464382	-0.230929	-0.000008
H154	H	1.291480	-0.228459	0.064334
H155	H	1.438341	-0.223866	0.107992
H156	H	1.365768	-0.159516	0.064335
H157	H	1.482114	-0.280335	0.000002
H158	H	1.409519	-0.215990	-0.043669
C159	C	2.041678	-0.032608	0.774512
C160	C	1.953346	0.008262	0.825737
H161	H	2.109987	-0.064203	0.801250
H162	H	1.980448	-0.058000	0.743794
H163	H	2.094524	-0.003336	0.743761
H164	H	1.900491	-0.021010	0.856485
H165	H	2.014583	0.033656	0.856469
H166	H	1.924570	0.021522	0.185462
