data_functionalizedCrystal
_audit_creation_method	'MofGen! by Chris Wilmer'
_symmetry_space_group_name_H-M	'P1'
_symmetry_Int_Tables_number	1
_symmetry_cell_setting	triclinic
loop_
_symmetry_equiv_pos_as_xyz
  x,y,z
_cell_length_a	10.489741
_cell_length_b	15.995350
_cell_length_c	14.472310
_cell_angle_alpha	89.998838
_cell_angle_beta	90.010370
_cell_angle_gamma	84.015774
loop_
_atom_site_label
_atom_site_type_symbol
_atom_site_fract_x
_atom_site_fract_y
_atom_site_fract_z
O1	O	-1.692417	-0.118125	-0.076779
O2	O	-1.321067	-0.129214	-0.076793
O3	O	-1.516893	-0.001843	-0.076785
O4	O	-1.496591	-0.245496	-0.076787
O5	O	-1.516843	-0.001850	0.076897
O6	O	-1.321016	-0.129221	0.076889
O7	O	-1.692367	-0.118132	0.076903
Cu8	Cu	-1.506687	-0.123677	0.090929
Cu9	Cu	-1.506747	-0.123669	-0.090818
O10	O	-1.496540	-0.245503	0.076895
C11	C	-1.273521	-0.128380	0.000046
C12	C	-1.131927	-0.125874	0.000041
C13	C	-1.739912	-0.118966	0.000062
C14	C	-1.881507	-0.121472	0.000061
C15	C	-1.516029	0.029353	0.000055
C16	C	-1.513512	0.122319	0.000049
C17	C	-1.064921	-0.044832	0.000051
C18	C	-0.972283	-0.083112	-0.075721
C19	C	-0.972267	-0.083138	0.075797
C20	C	-1.041154	-0.164188	-0.075793
C21	C	-1.041148	-0.164203	0.075793
C22	C	-0.948537	-0.202542	0.000003
C23	C	-1.497405	-0.276699	0.000054
C24	C	-1.499921	-0.369665	0.000053
N25	N	-1.506654	-0.123683	0.218760
C26	C	-1.504476	0.460121	0.000052
C27	C	-1.365012	0.413528	-0.000298
C28	C	-1.367528	0.316822	0.000049
C29	C	-1.508958	0.292533	0.000050
C30	C	-1.577718	0.333192	0.087811
C31	C	-1.574214	0.429849	0.087885
C32	C	-1.577153	0.430197	-0.086881
C33	C	-1.577120	0.333252	-0.088040
C34	C	-1.511499	0.197820	0.000052
C35	C	-1.501939	0.554834	0.000056
N36	N	-1.506789	-0.123657	-0.218649
C37	C	-1.506745	-0.123666	0.592851
C38	C	-1.401611	-0.191586	0.553681
C39	C	-1.401853	-0.191838	0.446592
C40	C	-1.506699	-0.123674	0.407260
C41	C	-1.639784	-0.143558	0.446102
C42	C	-1.639193	-0.144042	0.553223
C43	C	-1.479981	-0.035665	0.553380
C44	C	-1.476929	-0.036232	0.446252
C45	C	-1.506681	-0.123677	0.302372
C46	C	-1.506771	-0.123664	0.697739
H47	H	-1.115543	0.021790	-0.000044
H48	H	-0.898180	-0.269234	-0.000039
H49	H	-1.071694	-0.198468	0.139856
H50	H	-1.385043	-0.016744	0.580444
H51	H	-0.941748	-0.048836	0.139856
H52	H	-0.941770	-0.048818	-0.139781
H53	H	-1.313477	0.288729	-0.062862
H54	H	-1.418465	-0.256505	0.580590
H55	H	-1.548530	0.016742	0.419481
H56	H	-1.309290	0.432398	-0.063233
H57	H	-1.719887	-0.095438	0.420622
H58	H	-1.524032	0.448449	0.153486
H59	H	-1.556651	0.014889	0.578709
H60	H	-1.071524	-0.198449	-0.139925
H61	H	-1.309496	0.433453	0.062283
H62	H	-1.719870	-0.096566	0.579132
H63	H	-1.418944	-0.257125	0.420958
H64	H	-1.313072	0.289283	0.063063
H65	H	-1.676606	0.461479	0.091867
H66	H	-1.663933	-0.207034	0.419265
H67	H	-1.662778	-0.208245	0.578199
H68	H	-1.531577	0.451015	-0.153398
H69	H	-1.681621	0.318439	0.091076
H70	H	-1.529919	0.305095	0.153119
H71	H	-1.680258	0.317269	-0.093338
H72	H	-1.526848	0.306310	-0.152964
H73	H	-1.302928	-0.179872	0.420333
H74	H	-1.679979	0.461338	-0.087469
H75	H	-1.302365	-0.179806	0.579465
H76	H	-1.379030	-0.021160	0.420866
