data_functionalizedCrystal
_audit_creation_method	'MofGen! by Chris Wilmer'
_symmetry_space_group_name_H-M	'P1'
_symmetry_Int_Tables_number	1
_symmetry_cell_setting	triclinic
loop_
_symmetry_equiv_pos_as_xyz
  x,y,z
_cell_length_a	14.908993
_cell_length_b	29.839131
_cell_length_c	14.908308
_cell_angle_alpha	93.253999
_cell_angle_beta	96.370715
_cell_angle_gamma	93.337460
loop_
_atom_site_label
_atom_site_type_symbol
_atom_site_fract_x
_atom_site_fract_y
_atom_site_fract_z
Zn1	Zn	1.354163	-0.152313	-0.431987
Zn2	Zn	1.362765	-0.222848	-0.280607
Zn3	Zn	1.211536	-0.152334	-0.289366
Zn4	Zn	1.202732	-0.232020	-0.440634
O5	O	1.282799	-0.189879	-0.360648
O6	O	1.481968	-0.157822	-0.404622
O7	O	1.349989	-0.209664	-0.155109
O8	O	1.230541	-0.089463	-0.308331
O9	O	1.488289	-0.209644	-0.293404
O10	O	1.335328	-0.089447	-0.413115
O11	O	1.238882	-0.157858	-0.161544
O12	O	1.083704	-0.166752	-0.316716
O13	O	1.215535	-0.225276	-0.566147
O14	O	1.077235	-0.225297	-0.427852
O15	O	1.326790	-0.166716	-0.559794
O16	O	1.341452	-0.286933	-0.301788
O17	O	1.223876	-0.293672	-0.419360
C18	C	1.047627	-0.197022	-0.374173
C19	C	0.947018	-0.200090	-0.379981
C20	C	0.764638	-0.144810	-0.275329
C21	C	0.670107	-0.147691	-0.280783
C22	C	0.663424	-0.208734	-0.396337
C23	C	0.757955	-0.205853	-0.390883
C24	C	0.808559	-0.173890	-0.330378
C25	C	0.903091	-0.171007	-0.324930
C26	C	0.896406	-0.232052	-0.440478
C27	C	0.801876	-0.234933	-0.445932
C28	C	1.282665	-0.306603	-0.360580
C29	C	1.282689	-0.356537	-0.360576
C30	C	1.337344	-0.666139	-0.415292
C31	C	1.337439	-0.853810	-0.415341
O32	O	1.383777	-0.878043	-0.461814
N33	N	1.282947	-0.877319	-0.360740
C34	C	1.228422	-0.853907	-0.306127
O35	O	1.182068	-0.878209	-0.259694
C36	C	1.228323	-0.666236	-0.306084
C37	C	1.282826	-0.642730	-0.360682
C38	C	1.391842	-0.642632	-0.469887
C39	C	1.391821	-0.595717	-0.469870
C40	C	1.337303	-0.572308	-0.415260
C41	C	1.282805	-0.595815	-0.360665
C42	C	1.173794	-0.642826	-0.251477
C43	C	1.173773	-0.595905	-0.251472
C44	C	1.228276	-0.572399	-0.306070
C45	C	1.228266	-0.525490	-0.306038
N46	N	1.282759	-0.501982	-0.360640
C47	C	1.337277	-0.525391	-0.415250
C48	C	1.228480	-0.952437	-0.306153
C49	C	1.228506	-0.999354	-0.306162
C50	C	1.337522	-0.999254	-0.415377
C51	C	1.337500	-0.952336	-0.415362
C52	C	1.282972	-0.928928	-0.360754
C53	C	1.337230	-0.426865	-0.415211
C54	C	1.337208	-0.379946	-0.415187
C55	C	1.228188	-0.380050	-0.305976
C56	C	1.228214	-0.426965	-0.305996
C57	C	1.282738	-0.450372	-0.360621
O58	O	1.181945	-0.501230	-0.259598
O59	O	1.383609	-0.501081	-0.461692
C60	C	1.337365	-0.713054	-0.415309
C61	C	1.282867	-0.736561	-0.360715
C62	C	1.228349	-0.713152	-0.306104
C63	C	1.282893	-0.783478	-0.360724
C64	C	1.337411	-0.806887	-0.415335
C65	C	1.391904	-0.783378	-0.469936
C66	C	1.391883	-0.736463	-0.469919
C67	C	1.173857	-0.736660	-0.251503
C68	C	1.173882	-0.783576	-0.251523
C69	C	1.228401	-0.806984	-0.306134
C70	C	1.518889	-0.182707	-0.347071
C71	C	1.619497	-0.179651	-0.341285
C72	C	1.269221	-0.197017	-0.596730
C73	C	1.263434	-0.200058	-0.697334
C74	C	1.282957	-0.072698	-0.360735
C75	C	1.283024	-0.022763	-0.360773
C76	C	1.368410	-0.144785	-0.879766
C77	C	1.362976	-0.147641	-0.974292
C78	C	1.247129	-0.208625	-0.980914
C79	C	1.252563	-0.205769	-0.886388
C80	C	1.313206	-0.173848	-0.835817
C81	C	1.318644	-0.170994	-0.741289
C82	C	1.202793	-0.231976	-0.747913
C83	C	1.197359	-0.234832	-0.842439
C84	C	1.296377	-0.182734	-0.125482
C85	C	1.302338	-0.179561	-0.024869
H86	H	0.760662	-0.260958	-0.495191
H87	H	1.197756	-0.234613	-1.022105
H88	H	1.129460	-0.717604	-0.207034
N89	N	1.380585	-0.138393	-0.689616
N90	N	1.441278	-0.150851	-0.633539
H91	H	1.485024	-0.127825	-0.597045
H92	H	1.417792	-0.118795	-0.838590
H93	H	0.622207	-0.234761	-0.445588
H94	H	1.381594	-0.360808	-0.459647
N95	N	1.118203	-0.807591	-0.195761
N96	N	1.118214	-0.849482	-0.195781
H97	H	1.078886	-0.866443	-0.156406
H98	H	1.381914	-1.018322	-0.459842
N99	N	0.625257	-0.117978	-0.224554
N100	N	0.635509	-0.076392	-0.230106
H101	H	0.603835	-0.055406	-0.190392
N102	N	0.954798	-0.138366	-0.263124
N103	N	1.039199	-0.135797	-0.258259
H104	H	1.075717	-0.112745	-0.214605
N105	N	0.816319	-0.112152	-0.213540
N106	N	0.777092	-0.086185	-0.164403
H107	H	0.813590	-0.063119	-0.120765
N108	N	1.135397	-0.267429	-0.894096
N109	N	1.052487	-0.266662	-0.888342
H110	H	1.008721	-0.289683	-0.924826
H111	H	0.932176	-0.255729	-0.485308
N112	N	1.392927	-0.450763	-0.471015
N113	N	1.441578	-0.429762	-0.519752
H114	H	1.480918	-0.446639	-0.559160
N115	N	1.419365	-0.117948	-1.019171
N116	N	1.473500	-0.089449	-0.974004
H117	H	1.513326	-0.068475	-1.005699
N118	N	1.447499	-0.571716	-0.525648
N119	N	1.496166	-0.592631	-0.574401
H120	H	1.535491	-0.575683	-0.613799
N121	N	1.447537	-0.666532	-0.525685
N122	N	1.496184	-0.645530	-0.574423
H123	H	1.535527	-0.662406	-0.613831
N124	N	1.393180	-0.928334	-0.471135
N125	N	1.441855	-0.949245	-0.519883
H126	H	1.481182	-0.932296	-0.559277
H127	H	1.184134	-1.018488	-0.261693
H128	H	1.184076	-0.933381	-0.261681
N129	N	1.118103	-0.666823	-0.195712
N130	N	1.069421	-0.645908	-0.146976
H131	H	1.030079	-0.662855	-0.107594
N132	N	1.447576	-0.712460	-0.525680
N133	N	1.531444	-0.714957	-0.514930
H134	H	1.570785	-0.698009	-0.554313
N135	N	1.118061	-0.572003	-0.195689
N136	N	1.069405	-0.593000	-0.146952
H137	H	1.030059	-0.576120	-0.107554
N138	N	1.146406	-0.261662	-0.703006
N139	N	1.151265	-0.259109	-0.618608
H140	H	1.111443	-0.280074	-0.586890
H141	H	1.183803	-0.360983	-0.261509
N142	N	1.172589	-0.450984	-0.250192
N143	N	1.183493	-0.443057	-0.166326
H144	H	1.144213	-0.460021	-0.126912
N145	N	1.447596	-0.807301	-0.525707
N146	N	1.447600	-0.849192	-0.525703
H147	H	1.486928	-0.866090	-0.565091
