data_functionalizedCrystal
_audit_creation_method	'MofGen! by Chris Wilmer'
_symmetry_space_group_name_H-M	'P1'
_symmetry_Int_Tables_number	1
_symmetry_cell_setting	triclinic
loop_
_symmetry_equiv_pos_as_xyz
  x,y,z
_cell_length_a	10.489741
_cell_length_b	10.489741
_cell_length_c	9.482900
_cell_angle_alpha	99.430409
_cell_angle_beta	80.617053
_cell_angle_gamma	84.539174
loop_
_atom_site_label
_atom_site_type_symbol
_atom_site_fract_x
_atom_site_fract_y
_atom_site_fract_z
O1	O	1.713737	0.160193	-0.120803
O2	O	1.342545	0.177082	-0.120826
O3	O	1.536586	-0.016959	-0.120805
O4	O	1.519696	0.354234	-0.120824
O5	O	1.497173	0.022615	0.120983
O6	O	1.303132	0.216656	0.120962
O7	O	1.674324	0.199767	0.120985
Cu8	Cu	1.485129	0.211825	0.143051
Cu9	Cu	1.531739	0.165024	-0.142892
O10	O	1.480283	0.393807	0.120965
C11	C	1.275307	0.195592	0.000065
C12	C	1.133679	0.191774	0.000057
C13	C	1.065536	0.068312	0.000077
C14	C	0.992841	0.107124	-0.119137
C15	C	0.954018	0.146170	0.119247
C16	C	1.062866	0.230620	-0.119256
C17	C	1.024034	0.269667	0.119236
C18	C	0.951372	0.308563	-0.000007
C19	C	1.515604	-0.044704	0.000088
C20	C	1.511787	-0.186334	0.000085
C21	C	1.388325	-0.254477	0.000067
C22	C	1.427216	-0.327087	0.119285
C23	C	1.466103	-0.366078	-0.119100
C24	C	1.550712	-0.257062	0.119401
C25	C	1.589599	-0.296062	-0.119090
C26	C	1.628575	-0.368639	0.000156
C27	C	1.741562	0.181256	0.000090
C28	C	1.883192	0.185073	0.000089
C29	C	1.501266	0.421552	0.000068
C30	C	1.505084	0.563180	0.000061
N31	N	1.452356	0.244741	0.344168
N32	N	1.564523	0.132098	-0.344008
C33	C	1.522064	0.174726	0.416374
C34	C	1.494805	0.202123	0.583789
H35	H	0.906611	0.110403	0.220034
Cl36	Cl	1.645075	0.050573	0.320474
Cl37	Cl	1.321200	-0.349500	0.274888
H38	H	1.644384	0.051863	0.593876
Cl39	Cl	1.371491	0.325986	0.679684
Cl40	Cl	0.875074	0.465410	-0.000110
H41	H	1.730166	-0.418052	0.000229
Cl42	Cl	1.329047	0.368599	0.440068
H43	H	0.978255	0.038388	-0.219921
Cl44	Cl	1.142223	-0.088439	-0.000094
Cl45	Cl	1.695553	-0.273594	-0.274702
Cl46	Cl	1.231574	-0.177791	0.000233
Cl47	Cl	1.135848	0.285714	-0.275041
Cl48	Cl	1.605908	-0.183971	0.275187
H49	H	1.430277	-0.413540	-0.219899
H50	H	1.038651	0.338361	0.220024
