data_functionalizedCrystal
_audit_creation_method	'MofGen! by Chris Wilmer'
_symmetry_space_group_name_H-M	'P1'
_symmetry_Int_Tables_number	1
_symmetry_cell_setting	triclinic
loop_
_symmetry_equiv_pos_as_xyz
  x,y,z
_cell_length_a	9.130313
_cell_length_b	15.537862
_cell_length_c	15.624803
_cell_angle_alpha	113.268849
_cell_angle_beta	71.913787
_cell_angle_gamma	90.002071
loop_
_atom_site_label
_atom_site_type_symbol
_atom_site_fract_x
_atom_site_fract_y
_atom_site_fract_z
O1	O	0.735988	0.122836	-1.156080
O2	O	0.593987	0.137504	-0.888786
O3	O	0.692622	-0.006903	-1.074474
O4	O	0.637353	0.267243	-0.970392
O5	O	0.449022	-0.006899	-1.074471
O6	O	0.350387	0.137508	-0.888783
O7	O	0.492388	0.122840	-1.156077
Cu8	Cu	0.399145	0.130174	-1.022430
Cu9	Cu	0.687230	0.130170	-1.022433
O10	O	0.393753	0.267247	-0.970389
C11	C	0.454457	0.136846	-0.855410
C12	C	0.401629	0.134866	-0.755971
N13	N	0.196524	0.130177	-1.022434
C14	C	0.163552	0.066255	-1.104665
C15	C	0.010216	0.066244	-1.104667
C16	C	-0.077166	0.194085	-0.940200
C17	C	0.076167	0.194091	-0.940196
C18	C	0.214001	-0.007550	-1.199621
C19	C	0.060665	-0.007561	-1.199622
C20	C	0.576607	-0.041985	-1.085363
C21	C	0.593840	-0.146524	-1.117802
N22	N	0.889856	0.130160	-1.022439
C23	C	0.663694	-0.304993	-1.249289
C24	C	0.647495	-0.206761	-1.218798
C25	C	0.556370	-0.184504	-1.047256
C26	C	0.572569	-0.282736	-1.077733
C27	C	0.626230	-0.342973	-1.178751
C28	C	0.535104	-0.320717	-1.007194
C29	C	0.551294	-0.418941	-1.037669
C30	C	0.604948	-0.479184	-1.138682
C31	C	0.642419	-0.441197	-1.209225
C32	C	0.481433	-0.260478	-0.906176
C33	C	0.443968	-0.298459	-0.835638
C34	C	0.460168	-0.396684	-0.866112
C35	C	0.513822	-0.456927	-0.967125
C36	C	0.422697	-0.434671	-0.795569
C37	C	0.438887	-0.532894	-0.826043
C38	C	0.530012	-0.555151	-0.997600
C39	C	0.509771	0.302329	-0.959500
C40	C	0.492547	0.406869	-0.927061
C41	C	0.631921	0.123498	-1.189452
C42	C	0.684759	0.125478	-1.288892
C43	C	0.891973	0.128292	-0.429046
C44	C	0.842335	0.126413	-0.335616
C45	C	0.576759	0.126417	-0.335590
C46	C	0.626376	0.128291	-0.429024
C47	C	0.783985	0.129230	-0.475744
C48	C	0.518388	0.129229	-0.475722
C49	C	0.568001	0.131108	-0.569146
C50	C	0.725601	0.132050	-0.615871
C51	C	0.833597	0.131109	-0.569168
C52	C	0.360779	0.128297	-0.428997
C53	C	0.252791	0.129235	-0.475695
C54	C	0.302404	0.131107	-0.569124
C55	C	0.460005	0.132049	-0.615849
C56	C	0.194408	0.132048	-0.615827
C57	C	0.244021	0.133927	-0.709251
C58	C	0.509617	0.133928	-0.709273
H59	H	0.103005	0.246133	-0.873232
Br60	Br	0.048006	0.018410	-1.306381
Br61	Br	0.483542	-0.102747	-0.910165
Br62	Br	0.038899	0.127969	-0.412278
H63	H	0.468244	-0.180499	-0.881367
H64	H	0.930284	0.125653	-0.297596
Br65	Br	0.626907	-0.612489	-1.180045
Br66	Br	0.792938	0.134608	-0.742659
Br67	Br	0.362868	0.125151	-0.272173
Br68	Br	1.047501	0.132366	-0.632590
H69	H	0.573730	-0.604200	-1.079859
Br70	Br	0.715280	-0.522956	-1.346323
Br71	Br	-0.019485	0.130794	-0.552402
Br72	Br	0.349849	-0.352911	-0.658478
H73	H	0.707412	-0.354042	-1.331548
Br74	Br	0.698303	-0.155219	-1.314542
H75	H	0.408362	-0.563818	-0.768603
Br76	Br	-0.240514	0.280818	-0.828595
H77	H	0.013642	-0.075791	-1.200619
Br78	Br	0.371140	-0.216702	-0.698546
Br79	Br	1.105877	0.129549	-0.492468
Br80	Br	0.097464	0.135206	-0.772630
H81	H	0.637958	0.134689	-0.747317
H82	H	0.292340	0.014871	-1.257555
Br83	Br	0.291222	-0.127989	-1.214392
H84	H	0.320388	0.126773	-0.352923
