data_functionalizedCrystal
_audit_creation_method	'MofGen! by Chris Wilmer'
_symmetry_space_group_name_H-M	'P1'
_symmetry_Int_Tables_number	1
_symmetry_cell_setting	triclinic
loop_
_symmetry_equiv_pos_as_xyz
  x,y,z
_cell_length_a	20.875641
_cell_length_b	20.875650
_cell_length_c	14.560438
_cell_angle_alpha	57.600010
_cell_angle_beta	89.998529
_cell_angle_gamma	60.097266
loop_
_atom_site_label
_atom_site_type_symbol
_atom_site_fract_x
_atom_site_fract_y
_atom_site_fract_z
Zr1	Zr	0.666557	0.652995	-0.119536
O2	O	0.565656	0.794178	-0.278838
O3	O	0.693935	0.517207	-0.066070
O4	O	0.699059	0.650612	-0.264354
O5	O	0.560532	0.660771	0.070587
O6	O	0.808331	0.642595	-0.258198
O7	O	0.560532	0.660773	-0.080554
O8	O	0.799166	0.403958	0.096497
O9	O	0.569697	0.899408	-0.284107
O10	O	0.791453	0.565077	-0.044269
O11	O	0.709904	0.571059	0.063932
O12	O	0.715937	0.728126	-0.169523
O13	O	0.634388	0.734107	-0.061322
Zr14	Zr	0.840834	0.640205	0.131334
Zr15	Zr	0.840834	0.640208	-0.109718
Zr16	Zr	0.666557	0.652992	0.121516
Zr17	Zr	0.673003	0.820825	-0.127940
Zr18	Zr	0.834388	0.472375	0.139738
O19	O	0.813455	0.775993	0.077867
O20	O	0.813455	0.775997	-0.264878
O21	O	0.565656	0.794174	0.063907
O22	O	0.941735	0.499022	0.290636
O23	O	0.941735	0.499026	-0.052109
O24	O	0.693935	0.517203	0.276676
O25	O	0.946858	0.632429	-0.058789
O26	O	0.808331	0.642588	0.276152
O27	O	0.699059	0.650605	0.269996
O28	O	0.946858	0.632427	0.092352
O29	O	0.708224	0.889244	-0.276303
O30	O	0.799166	0.403956	0.288101
O31	O	0.937693	0.393792	0.295905
O32	O	0.937693	0.393794	0.104301
O33	O	0.569697	0.899406	-0.092503
O34	O	0.708224	0.889242	-0.084699
O35	O	0.791453	0.565074	0.181321
O36	O	0.873002	0.559093	0.073120
O37	O	0.797486	0.722141	-0.052134
O38	O	0.715937	0.728123	0.056067
C39	C	0.745632	0.436670	0.016411
C40	C	0.742895	0.365422	0.019978
C41	C	0.723192	-0.035602	0.046587
C42	C	0.725723	0.031391	0.043161
C43	C	0.769552	0.061767	-0.015039
C44	C	0.810859	0.025140	-0.069808
C45	C	0.808333	-0.041857	-0.066375
C46	C	0.781676	0.261798	-0.031357
C47	C	0.784198	0.328802	-0.034789
C48	C	0.699062	0.335047	0.078183
C49	C	0.696536	0.268054	0.081605
C50	C	0.737847	0.231428	0.026841
N51	N	0.772137	0.130246	-0.018545
N52	N	0.735265	0.162945	0.030355
C53	C	0.535701	0.662594	-0.006382
C54	C	0.461716	0.668022	-0.010550
C55	C	0.466374	0.585465	0.052867
C56	C	0.396855	0.590571	0.048947
C57	C	0.322678	0.678235	-0.018396
C58	C	0.318021	0.760798	-0.081815
C59	C	0.387540	0.755692	-0.077889
C60	C	0.110536	0.702635	-0.037144
C61	C	0.041016	0.707735	-0.041069
C62	C	0.119854	0.537507	0.089696
C63	C	0.189371	0.532408	0.093611
C64	C	0.184708	0.614971	0.030197
N65	N	0.251617	0.683456	-0.022407
N66	N	0.255769	0.609749	0.034215
C67	C	0.971689	0.630606	0.018180
C68	C	1.045674	0.625178	0.022348
C69	C	0.753695	0.646604	-0.295621
C70	C	0.753695	0.646605	-0.397954
C71	C	0.761758	0.856530	-0.004613
C72	C	0.764495	0.927778	-0.008181
C73	C	0.714273	0.731713	-0.511411
C74	C	0.714275	0.731709	-0.607560
C75	C	0.793122	0.561480	-0.476779
C76	C	0.793124	0.561485	-0.380633
C77	C	0.668748	0.829994	-0.586918
C78	C	0.668750	0.829989	-0.683066
C79	C	0.753695	0.646596	0.307419
C80	C	0.753695	0.646595	0.409752
C81	C	0.963626	0.420676	0.028692
C82	C	1.034875	0.344000	0.036428
C83	C	0.745632	0.436667	0.317931
C84	C	0.742896	0.365417	0.423831
C85	C	0.963626	0.420673	0.330212
C86	C	1.034875	0.343995	0.440281
C87	C	0.543764	0.872527	-0.318414
C88	C	0.472515	0.949205	-0.428483
C89	C	0.543764	0.872524	-0.016894
C90	C	0.472515	0.949200	-0.024630
C91	C	0.761758	0.856533	-0.306133
C92	C	0.764495	0.927783	-0.412033
C93	C	1.025766	0.311116	-0.021225
C94	C	1.092705	0.239080	-0.013980
C95	C	1.168752	0.199925	0.050926
C96	C	1.177860	0.232816	0.108580
C97	C	1.110921	0.304855	0.101328
C98	C	0.784178	0.328834	0.534849
C99	C	0.781604	0.261897	0.634363
C100	C	0.737752	0.231540	0.622856
C101	C	0.696464	0.268130	0.511826
C102	C	0.699034	0.335071	0.412315
C103	C	1.110909	0.304864	0.435491
C104	C	1.177862	0.232826	0.538903
C105	C	1.168778	0.199916	0.647104
C106	C	1.092736	0.239055	0.651890
C107	C	1.025785	0.311096	0.548479
C108	C	0.396482	0.988345	-0.423693
C109	C	0.329530	1.060403	-0.527107
C110	C	0.338613	1.093316	-0.635307
C111	C	0.414655	1.054173	-0.640094
C112	C	0.481605	0.982121	-0.536682
C113	C	0.481624	0.982091	0.033013
C114	C	0.414686	1.054146	0.025740
C115	C	0.338639	1.093303	-0.039169
C116	C	0.329531	1.060409	-0.096819
C117	C	0.396469	0.988360	-0.089553
C118	C	0.808354	0.958118	-0.400489
C119	C	0.810941	1.025055	-0.499984
C120	C	0.769663	1.061659	-0.611022
C121	C	0.725802	1.031317	-0.622563
C122	C	0.723220	0.964377	-0.523069
H123	H	0.665431	0.364874	0.122769
O124	O	0.831479	0.361560	-0.097554
H125	H	0.859789	0.324830	-0.135047
H126	H	1.118349	0.331620	0.148283
O127	O	0.831481	0.361564	0.547285
H128	H	0.826346	0.414253	0.459446
O129	O	0.247523	1.102596	-0.521914
H130	H	0.216646	1.178913	-0.568465
O131	O	0.386675	0.952858	-0.306998
H132	H	0.322552	0.992198	-0.321061
O133	O	0.858133	0.057901	-0.132579
H134	H	0.886435	0.021172	-0.170076
O135	O	0.386641	0.952878	-0.151715
H136	H	0.322513	0.992209	-0.198057
O137	O	0.563638	0.939881	0.103018
H138	H	0.594515	0.863561	0.173710
H139	H	0.660847	0.243325	0.128999
H140	H	0.815311	0.231985	-0.075950
O141	O	0.943749	0.353350	-0.091252
H142	H	0.934516	0.297677	-0.054835
H143	H	1.239786	0.200926	0.161425
O144	O	0.835656	0.469684	-0.258263
H145	H	0.882558	0.462317	-0.208813
H146	H	0.841967	-0.071674	-0.110970
O147	O	1.082874	0.203605	-0.076157
H148	H	1.018747	0.242926	-0.122486
O149	O	0.424516	1.089606	0.087939
H150	H	0.488643	1.050254	0.134313
O151	O	0.706820	0.875479	-0.587293
H152	H	0.725466	0.897735	-0.663722
H153	H	0.526769	0.514079	0.107710
O154	O	0.247505	1.102652	-0.166826
H155	H	0.238267	1.046982	-0.130389
H156	H	0.606940	0.863990	-0.583207
O157	O	0.401876	0.501528	0.117329
H158	H	0.465135	0.439712	0.164799
H159	H	0.825224	0.492179	-0.462690
O160	O	0.269376	0.437856	0.166241
H161	H	0.260937	0.381305	0.209686
H162	H	0.687501	0.939686	-0.532486
H163	H	0.815229	0.232113	0.724758
O164	O	0.734997	0.159323	0.730193
H165	H	0.771084	0.138978	0.809321
H166	H	0.284140	1.151969	-0.045076
H167	H	0.771772	1.116166	-0.692026
H168	H	1.085352	0.212249	0.740001
H169	H	0.660760	0.243403	0.502475
H170	H	0.123641	0.470288	0.141325
H171	H	1.223251	0.141266	0.056823
H172	H	-0.019384	0.779126	-0.095913
O173	O	0.654632	0.374391	0.292587
H174	H	0.623760	0.341977	0.301322
O175	O	0.713186	0.865774	-0.750071
H176	H	0.775808	0.820298	-0.691556
O177	O	1.120716	0.340362	0.318795
H178	H	1.184840	0.301050	0.332856
O179	O	0.852889	0.918633	-0.280731
H180	H	0.883828	0.950971	-0.289437
H181	H	0.846657	1.049752	-0.490564
H182	H	0.422041	1.080981	-0.728203
O183	O	0.584386	0.884454	-0.759483
H184	H	0.556443	0.850977	-0.708335
H185	H	1.239772	0.200966	0.534985
H186	H	0.106730	0.769864	-0.088801
H187	H	0.284091	1.151987	-0.719503
O188	O	0.681272	1.070811	-0.742329
H189	H	0.690432	1.122463	-0.809564
O190	O	0.943776	0.353282	0.553652
H191	H	0.948716	0.318279	0.646267
H192	H	0.257620	0.832176	-0.136641
H193	H	0.543514	0.950253	-0.540595
O194	O	0.675903	-0.068345	0.109335
H195	H	0.647608	-0.031623	0.146842
H196	H	0.692095	0.061200	0.087767
H197	H	0.383742	0.822919	-0.129516
H198	H	1.223301	0.141255	0.731299
