data_functionalizedCrystal
_audit_creation_method	'MofGen! by Chris Wilmer'
_symmetry_space_group_name_H-M	'P1'
_symmetry_Int_Tables_number	1
_symmetry_cell_setting	triclinic
loop_
_symmetry_equiv_pos_as_xyz
  x,y,z
_cell_length_a	11.792241
_cell_length_b	10.723024
_cell_length_c	9.798715
_cell_angle_alpha	89.996597
_cell_angle_beta	90.003545
_cell_angle_gamma	95.669357
loop_
_atom_site_label
_atom_site_type_symbol
_atom_site_fract_x
_atom_site_fract_y
_atom_site_fract_z
O1	O	0.159193	-1.656766	0.113483
O2	O	0.659193	-1.156766	0.613483
O3	O	0.174430	-1.293573	0.113488
O4	O	0.674430	-0.793573	0.613488
O5	O	0.001660	-1.483983	0.113475
O6	O	0.501660	-0.983983	0.613475
O7	O	0.331963	-1.466356	0.113495
O8	O	0.831963	-0.966356	0.613495
O9	O	0.001659	-1.483969	-0.113507
O10	O	0.501659	-0.983969	0.386493
O11	O	0.174429	-1.293559	-0.113495
O12	O	0.674429	-0.793559	0.386505
O13	O	0.159191	-1.656752	-0.113499
O14	O	0.659191	-1.156752	0.386501
Zn15	Zn	0.166810	-1.475153	-0.149535
Zn16	Zn	0.666810	-0.975153	0.350465
Zn17	Zn	0.166812	-1.475172	0.149523
Zn18	Zn	0.666812	-0.975172	0.649523
O19	O	0.331961	-1.466342	-0.113487
O20	O	0.831961	-0.966342	0.386513
C21	C	0.173321	-1.247070	-0.000003
C22	C	0.673321	-0.747070	0.499997
C23	C	0.170003	-1.108524	-0.000001
C24	C	0.670003	-0.608524	0.499999
C25	C	-0.040634	-1.482869	-0.000015
C26	C	0.459366	-0.982869	0.499985
C27	C	-0.166655	-1.479555	-0.000014
C28	C	0.333345	-0.979555	0.499986
N29	N	0.166808	-1.475150	-0.353635
N30	N	0.666808	-0.975150	0.146365
C31	C	-0.397380	-1.473461	0.000009
C32	C	0.102620	-0.973461	0.500009
C33	C	-0.268988	-1.476847	-0.000003
C34	C	0.231012	-0.976847	0.499997
C35	C	0.374255	-1.467456	0.000006
C36	C	0.874255	-0.967456	0.500006
C37	C	0.500276	-1.470770	0.000014
C38	C	1.000276	-0.970770	0.500014
C39	C	0.160301	-1.703256	-0.000006
C40	C	0.660301	-1.203256	0.499994
C41	C	0.163619	-1.841801	0.000002
C42	C	0.663619	-1.341801	0.500002
C43	C	0.266676	-1.033286	0.000005
C44	C	0.766676	-0.533286	0.500005
C45	C	0.263249	-0.890091	0.000007
C46	C	0.763249	-0.390091	0.500007
C47	C	0.232624	-1.547740	-0.421410
C48	C	0.732624	-1.047740	0.078590
C49	C	0.232622	-1.547760	-0.578572
C50	C	0.732622	-1.047760	-0.078572
N51	N	0.166805	-1.475185	0.353623
N52	N	0.666805	-0.975185	0.853623
H53	H	0.351978	-1.074882	0.000002
H54	H	0.851978	-0.574882	0.500002
C55	C	0.307614	-1.630810	-0.343725
C56	C	0.807614	-1.130810	0.156275
C57	C	0.277045	-1.756317	-0.378335
C58	C	0.777045	-1.256317	0.121665
C59	C	0.346093	-1.832879	-0.306790
C60	C	0.846093	-1.332879	0.193210
H61	H	0.385168	-1.608562	-0.367014
H62	H	0.885168	-1.108562	0.132986
H63	H	0.297615	-1.619872	-0.248415
H64	H	0.797615	-1.119872	0.251585
H65	H	0.287053	-1.767249	-0.473623
H66	H	0.787053	-1.267249	0.026377
H67	H	0.199502	-1.778603	-0.355042
H68	H	0.699502	-1.278603	0.144958
H69	H	0.336095	-1.821941	-0.211480
H70	H	0.836095	-1.321941	0.288520
H71	H	0.423644	-1.810620	-0.330085
H72	H	0.923644	-1.310620	0.169915
H73	H	0.325355	-1.918044	-0.330253
H74	H	0.825355	-1.418044	0.169747
H75	H	0.288976	-1.609901	-0.636857
H76	H	0.788976	-1.109901	-0.136857
H77	H	0.084701	-1.066928	0.000028
H78	H	0.584701	-0.566928	0.500028
H79	H	0.080854	-0.906445	0.000005
H80	H	0.580854	-0.406445	0.500005
C81	C	0.373645	-0.803957	0.000297
C82	C	0.873645	-0.303957	0.500297
C83	C	0.436737	-0.826967	0.117095
C84	C	0.936737	-0.326967	0.617095
C85	C	0.538436	-0.747630	0.117419
C86	C	1.038436	-0.247630	0.617419
H87	H	0.416752	-0.819325	-0.078762
H88	H	0.916752	-0.319325	0.421238
H89	H	0.356722	-0.719153	0.000372
H90	H	0.856722	-0.219153	0.500372
H91	H	0.453663	-0.911752	0.117007
H92	H	0.953663	-0.411752	0.617007
H93	H	0.393665	-0.811591	0.196172
H94	H	0.893665	-0.311591	0.696172
H95	H	0.521513	-0.662826	0.117494
H96	H	1.021513	-0.162826	0.617494
H97	H	0.581532	-0.763005	0.038355
H98	H	1.081532	-0.263005	0.538355
H99	H	0.581251	-0.763224	0.196670
H100	H	1.081251	-0.263224	0.696670
H101	H	0.110457	-1.413020	-0.411963
H102	H	0.610457	-0.913020	0.088037
H103	H	0.110460	-1.413029	-0.588101
H104	H	0.610460	-0.913029	-0.088101
