data_functionalizedCrystal
_audit_creation_method	'MofGen! by Chris Wilmer'
_symmetry_space_group_name_H-M	'P1'
_symmetry_Int_Tables_number	1
_symmetry_cell_setting	triclinic
loop_
_symmetry_equiv_pos_as_xyz
  x,y,z
_cell_length_a	8.965430
_cell_length_b	8.559649
_cell_length_c	8.559649
_cell_angle_alpha	110.221336
_cell_angle_beta	89.997936
_cell_angle_gamma	89.997030
loop_
_atom_site_label
_atom_site_type_symbol
_atom_site_fract_x
_atom_site_fract_y
_atom_site_fract_z
O1	O	0.124016	-2.126883	-0.055047
O2	O	0.124022	-1.651398	0.028734
O3	O	0.124017	-1.931031	-0.250899
O4	O	0.124021	-1.847250	0.224586
O5	O	-0.124062	-1.931008	-0.250880
O6	O	-0.124057	-1.651375	0.028753
O7	O	-0.124063	-2.126860	-0.055028
Cu8	Cu	-0.146712	-1.889115	-0.013136
Cu9	Cu	0.146670	-1.889142	-0.013158
O10	O	-0.124058	-1.847227	0.224605
C11	C	-0.000017	-1.591077	0.035093
C12	C	-0.000015	-1.411378	0.053992
N13	N	-0.353061	-1.889108	-0.013122
C14	C	-0.000020	-1.937369	-0.311198
C15	C	-0.000012	-1.956268	-0.490898
C16	C	-0.450364	-1.759756	0.116165
C17	C	-0.549780	-1.902490	0.129655
C18	C	-0.549773	-1.746434	-0.026606
C19	C	-0.450287	-2.031907	0.000432
C20	C	-0.450272	-1.875762	-0.155881
C21	C	-0.549642	-2.018610	-0.142467
N22	N	0.353019	-1.889164	-0.013186
C23	C	-0.000021	-2.187180	-0.061387
C24	C	-0.000014	-2.366879	-0.080286
C25	C	-0.000018	-1.840889	0.284904
C26	C	-0.000016	-1.821990	0.464604
H27	H	-0.406774	-1.650446	0.225577
H28	H	-0.592959	-2.128129	-0.251848
Br29	Br	-0.622629	-1.921379	0.330822
H30	H	-0.000025	-2.085696	-0.590286
Br31	Br	-0.377770	-2.233071	0.019630
H32	H	-0.000005	-1.311990	0.183420
H33	H	-0.593477	-1.625754	-0.037985
Br34	Br	-0.377359	-1.856801	-0.356983
Br35	Br	-0.000001	-1.532513	-0.296003
H36	H	-0.000019	-1.692570	-0.436018
