data_functionalizedCrystal
_audit_creation_method	'MofGen! by Chris Wilmer'
_symmetry_space_group_name_H-M	'P1'
_symmetry_Int_Tables_number	1
_symmetry_cell_setting	triclinic
loop_
_symmetry_equiv_pos_as_xyz
  x,y,z
_cell_length_a	16.625548
_cell_length_b	19.805404
_cell_length_c	19.805399
_cell_angle_alpha	90.027110
_cell_angle_beta	90.018609
_cell_angle_gamma	90.030661
loop_
_atom_site_label
_atom_site_type_symbol
_atom_site_fract_x
_atom_site_fract_y
_atom_site_fract_z
Zn1	Zn	1.232625	-0.269460	0.382704
Zn2	Zn	1.232516	-0.382648	0.269517
Zn3	Zn	1.097791	-0.269480	0.269531
Zn4	Zn	1.097740	-0.382614	0.382666
O5	O	1.165168	-0.326051	0.326105
O6	O	1.345443	-0.284480	0.367700
O7	O	1.214620	-0.367659	0.174802
O8	O	1.115744	-0.174761	0.284566
O9	O	1.345363	-0.367639	0.284542
O10	O	1.214806	-0.174746	0.367714
O11	O	1.115639	-0.284515	0.174812
O12	O	0.984952	-0.284482	0.284528
O13	O	1.115657	-0.367581	0.477388
O14	O	0.984915	-0.367601	0.367648
O15	O	1.214756	-0.284447	0.477416
O16	O	1.214571	-0.477360	0.284505
O17	O	1.115552	-0.477335	0.367634
C18	C	1.165066	-0.501907	0.326079
C19	C	1.165096	-0.577139	0.326090
C20	C	0.955677	-0.326041	0.326086
C21	C	0.866056	-0.326053	0.326094
C22	C	1.216925	-1.038920	0.282914
C23	C	1.216888	-0.968231	0.282900
C24	C	1.165274	-0.932900	0.326140
C25	C	1.113689	-0.968261	0.369392
C26	C	1.113723	-1.038948	0.369401
C27	C	1.113548	-0.683188	0.369354
C28	C	1.113520	-0.612496	0.369343
C29	C	1.216713	-0.612471	0.282854
C30	C	1.216747	-0.683158	0.282863
C31	C	1.165160	-0.718513	0.326112
C32	C	1.165200	-0.795161	0.326125
C33	C	1.165237	-0.856253	0.326131
C34	C	0.537881	-0.326057	0.326123
C35	C	0.629189	-0.326054	0.326112
C36	C	0.701965	-0.326056	0.326108
C37	C	0.793280	-0.326052	0.326098
C38	C	1.375477	-0.326061	0.326124
C39	C	1.465098	-0.326065	0.326132
C40	C	1.165213	-0.326008	0.502647
C41	C	1.165233	-0.325990	0.577879
C42	C	1.165293	-0.149508	0.326146
C43	C	1.165346	-0.074276	0.326163
C44	C	1.165170	-0.326044	0.150249
C45	C	1.165307	-0.325872	0.075017
C46	C	1.216835	-0.282700	0.613239
C47	C	1.216843	-0.282680	0.683928
C48	C	1.165253	-0.325954	0.719255
C49	C	1.113645	-0.369246	0.683890
C50	C	1.113633	-0.369262	0.613203
C51	C	1.113690	-0.369183	0.968964
C52	C	1.113708	-0.369166	1.039656
C53	C	1.216900	-0.282601	1.039689
C54	C	1.216889	-0.282617	0.969001
C55	C	1.165278	-0.325906	0.933643
C56	C	1.165269	-0.325926	0.856994
C57	C	1.165266	-0.325938	0.795902
H58	H	1.258960	-1.067682	0.247706
H59	H	1.071693	-0.404406	1.068417
H60	H	1.258921	-0.247351	1.068486
H61	H	1.071678	-0.404442	0.940183
H62	H	1.071537	-0.711965	0.404565
C63	C	1.056983	-1.077839	0.416980
N64	N	1.014244	-1.107131	0.452817
C65	C	1.056868	-0.416886	0.574307
N66	N	1.014110	-0.452756	0.545012
H67	H	1.071636	-0.404479	0.712659
H68	H	1.258779	-0.711922	0.247655
H69	H	1.258848	-0.247463	0.584481
C70	C	1.273612	-0.929343	0.235309
N71	N	1.316334	-0.900053	0.199455
H72	H	1.258901	-0.247381	0.940241
C73	C	1.056744	-0.573633	0.416918
N74	N	1.013986	-0.544361	0.452752
C75	C	1.056914	-0.929394	0.416957
N76	N	1.014152	-0.900120	0.452786
C77	C	1.273611	-0.235059	0.722821
N78	N	1.316371	-0.199188	0.752114
C79	C	1.273454	-0.573575	0.235273
N80	N	1.316190	-0.544279	0.199437
