data_functionalizedCrystal
_audit_creation_method	'MofGen! by Chris Wilmer'
_symmetry_space_group_name_H-M	'P1'
_symmetry_Int_Tables_number	1
_symmetry_cell_setting	triclinic
loop_
_symmetry_equiv_pos_as_xyz
  x,y,z
_cell_length_a	17.699112
_cell_length_b	17.699083
_cell_length_c	16.776229
_cell_angle_alpha	89.989561
_cell_angle_beta	90.010857
_cell_angle_gamma	96.711213
loop_
_atom_site_label
_atom_site_type_symbol
_atom_site_fract_x
_atom_site_fract_y
_atom_site_fract_z
O1	O	1.004064	-0.095811	0.066395
O2	O	0.783688	-0.108242	0.066377
O3	O	0.900102	0.008162	0.066367
O4	O	0.887650	-0.212215	0.066405
O5	O	0.900089	0.008162	-0.066210
O6	O	0.783675	-0.108241	-0.066199
O7	O	1.004051	-0.095811	-0.066182
Zn8	Zn	0.893861	-0.102026	-0.087240
Zn9	Zn	0.893878	-0.102027	0.087435
O10	O	0.887637	-0.212215	-0.066172
C11	C	0.755485	-0.107792	0.000086
C12	C	0.671468	-0.106445	0.000079
C13	C	0.899650	0.036359	0.000075
C14	C	0.898311	0.120377	0.000065
C15	C	1.032254	-0.096260	0.000111
C16	C	1.116271	-0.097607	0.000123
C17	C	1.631981	-0.105819	-0.072186
C18	C	1.553038	-0.104558	-0.072181
C19	C	1.513582	-0.103930	0.000091
C20	C	1.553075	-0.104554	0.072361
C21	C	1.632018	-0.105809	0.072355
C22	C	1.234707	-0.099492	0.072389
C23	C	1.155759	-0.098239	0.072389
C24	C	1.155727	-0.098241	-0.072147
C25	C	1.234670	-0.099496	-0.072154
C26	C	1.274157	-0.100116	0.000117
C27	C	1.359757	-0.101482	0.000110
C28	C	1.427983	-0.102570	0.000098
N29	N	0.893855	-0.102025	-0.206451
C30	C	0.966643	0.168992	0.000065
C31	C	0.965381	0.247935	0.000063
C32	C	0.895786	0.278263	0.000056
C33	C	0.827448	0.229643	0.000059
C34	C	0.828711	0.150701	0.000067
C35	C	0.822353	0.548006	0.000029
C36	C	0.821095	0.626954	0.000019
C37	C	0.959023	0.645240	0.000025
C38	C	0.960286	0.566299	0.000033
C39	C	0.891949	0.517685	0.000040
C40	C	0.893318	0.432086	0.000044
C41	C	0.894415	0.363861	0.000046
C42	C	0.888090	0.759588	0.000093
C43	C	0.889428	0.675570	0.000024
C44	C	0.939669	-0.147879	-0.248153
C45	C	0.939677	-0.147876	-0.331605
C46	C	0.893867	-0.102023	-0.373354
C47	C	0.848051	-0.056165	-0.331647
C48	C	0.848047	-0.056164	-0.248196
C49	C	0.848066	-0.056166	-0.668194
C50	C	0.848072	-0.056171	-0.751651
C51	C	0.939697	-0.147877	-0.751603
C52	C	0.939693	-0.147877	-0.668152
C53	C	0.893880	-0.102016	-0.626452
C54	C	0.893872	-0.102018	-0.535964
C55	C	0.893870	-0.102024	-0.463841
N56	N	0.893891	-0.102021	0.206647
H57	H	1.664099	-0.106337	-0.131038
H58	H	1.014666	0.684831	0.000023
H59	H	1.123568	-0.097733	-0.130993
C60	C	1.041725	0.488124	0.068200
C61	C	1.036786	0.532961	0.000043
H62	H	1.088953	0.467541	0.068204
H63	H	1.038373	0.518538	0.114419
H64	H	1.001205	0.447875	0.068190
H65	H	1.077304	0.573214	0.000055
H66	H	1.040146	0.502545	-0.046189
C67	C	1.560933	-0.104704	-0.215053
C68	C	1.509632	-0.103877	-0.151617
H69	H	1.534135	-0.104288	-0.264095
H70	H	1.597569	-0.061077	-0.212061
H71	H	1.585879	-0.149315	-0.212029
H72	H	1.484691	-0.059263	-0.154637
H73	H	1.472983	-0.147508	-0.154610
C74	C	1.455703	-0.168185	0.156231
C75	C	1.509706	-0.103866	0.151805
H76	H	1.428934	-0.167763	0.205279
H77	H	1.420892	-0.167626	0.113198
H78	H	1.480664	-0.212786	0.153231
H79	H	1.484745	-0.059265	0.154799
H80	H	1.544523	-0.104418	0.194849
H81	H	1.266848	-0.099995	0.131235
H82	H	0.773068	0.111119	0.000067
H83	H	0.810763	-0.018822	-0.634252
H84	H	0.764419	0.651644	0.000012
C85	C	1.624123	-0.105695	0.215229
C86	C	1.675424	-0.106506	0.151791
H87	H	1.650921	-0.106129	0.264270
H88	H	1.599181	-0.061089	0.212220
H89	H	1.587482	-0.149327	0.212224
H90	H	1.712061	-0.062871	0.154793
H91	H	1.700379	-0.151117	0.154801
H92	H	0.976986	-0.185213	-0.365554
C93	C	1.226709	-0.099363	-0.215027
C94	C	1.278039	-0.100184	-0.151596
H95	H	1.253485	-0.099780	-0.264071
H96	H	1.190076	-0.142991	-0.212015
H97	H	1.201763	-0.054753	-0.212018
H98	H	1.302982	-0.144797	-0.154602
H99	H	1.314686	-0.056552	-0.154610
C100	C	1.030245	-0.238524	-0.256496
C101	C	0.990027	-0.198281	-0.202266
H102	H	1.061339	-0.269636	-0.228168
H103	H	0.995359	-0.269578	-0.289045
H104	H	1.061321	-0.203647	-0.289046
H105	H	0.958946	-0.233158	-0.169720
H106	H	1.024918	-0.167225	-0.169703
H107	H	0.810765	-0.018830	-0.785640
C108	C	1.048086	0.090817	0.068229
C109	C	1.043145	0.135656	0.000073
H110	H	1.095314	0.070235	0.068232
H111	H	1.044734	0.121231	0.114449
H112	H	1.007566	0.050568	0.068219
H113	H	1.083661	0.175909	0.000085
H114	H	1.046504	0.105241	-0.046159
H115	H	1.021024	0.287514	0.000060
C116	C	1.163717	-0.098346	0.215270
C117	C	1.112388	-0.097541	0.151836
H118	H	1.136941	-0.097912	0.264313
H119	H	1.188661	-0.142951	0.212277
H120	H	1.200354	-0.054713	0.212246
H121	H	1.075754	-0.141178	0.154857
H122	H	1.087432	-0.052932	0.154831
C123	C	0.685888	0.537871	0.000004
C124	C	0.747237	0.494577	0.000022
H125	H	0.639513	0.504882	-0.000007
H126	H	0.688266	0.569035	0.046232
H127	H	0.688272	0.569050	-0.046233
H128	H	0.744856	0.463403	0.046262
H129	H	0.744858	0.463401	-0.046211
H130	H	0.976993	-0.185218	-0.634164
C131	C	0.969175	-0.274638	-0.777264
C132	C	0.990063	-0.198284	-0.797443
H133	H	1.000265	-0.305756	-0.805567
H134	H	0.975728	-0.281195	-0.721596
H135	H	0.917366	-0.288749	-0.790959
H136	H	1.041870	-0.184171	-0.783743
H137	H	0.983516	-0.191723	-0.853123
H138	H	0.770782	0.254342	0.000058
H139	H	0.810755	-0.018827	-0.365646
C140	C	0.843509	0.045631	-0.154375
C141	C	0.797684	-0.005762	-0.202355
H142	H	0.812417	0.076751	-0.126080
H143	H	0.870784	0.018322	-0.117573
H144	H	0.878395	0.076681	-0.186937
H145	H	0.762802	-0.036817	-0.169792
H146	H	0.770396	0.021549	-0.239161
