data_functionalizedCrystal
_audit_creation_method	'MofGen! by Chris Wilmer'
_symmetry_space_group_name_H-M	'P1'
_symmetry_Int_Tables_number	1
_symmetry_cell_setting	triclinic
loop_
_symmetry_equiv_pos_as_xyz
  x,y,z
_cell_length_a	14.560438
_cell_length_b	23.196402
_cell_length_c	23.196401
_cell_angle_alpha	59.998963
_cell_angle_beta	90.006032
_cell_angle_gamma	59.998534
loop_
_atom_site_label
_atom_site_type_symbol
_atom_site_fract_x
_atom_site_fract_y
_atom_site_fract_z
Zr1	Zr	0.884721	0.631028	-0.075641
O2	O	0.738042	0.751314	-0.167698
O3	O	0.929689	0.510753	-0.047422
O4	O	0.929650	0.631043	-0.167700
O5	O	0.738110	0.631007	0.047458
O6	O	1.080790	0.631042	-0.167699
O7	O	0.738082	0.631024	-0.047421
O8	O	1.080860	0.415865	0.047456
O9	O	0.738039	0.846184	-0.167696
O10	O	1.061658	0.560219	-0.035384
O11	O	0.948885	0.560207	0.035422
O12	O	0.948839	0.701833	-0.106189
O13	O	0.836065	0.701822	-0.035383
Zr14	Zr	1.125817	0.631000	0.075681
Zr15	Zr	1.125773	0.631026	-0.075639
Zr16	Zr	0.884766	0.631002	0.075680
Zr17	Zr	0.884716	0.782335	-0.075638
Zr18	Zr	1.125822	0.479692	0.075678
O19	O	1.080850	0.751275	0.047463
O20	O	1.080786	0.751312	-0.167696
O21	O	0.738106	0.751277	0.047460
O22	O	1.272496	0.510714	0.167739
O23	O	1.272433	0.510751	-0.047420
O24	O	0.929753	0.510716	0.167736
O25	O	1.272429	0.631021	-0.047417
O26	O	1.080889	0.630985	0.167740
O27	O	0.929749	0.630986	0.167739
O28	O	1.272457	0.631004	0.047461
O29	O	0.929643	0.846183	-0.167695
O30	O	1.080896	0.415845	0.167735
O31	O	1.272499	0.415843	0.167737
O32	O	1.272464	0.415864	0.047457
O33	O	0.738075	0.846164	-0.047417
O34	O	0.929678	0.846163	-0.047415
O35	O	1.061700	0.560194	0.106230
O36	O	1.174473	0.560206	0.035423
O37	O	1.061654	0.701821	-0.035382
O38	O	0.948880	0.701809	0.035425
C39	C	1.005276	0.441751	0.000016
C40	C	1.005278	0.377517	0.000015
C41	C	1.064138	-0.085320	-0.036928
C42	C	1.064135	-0.024961	-0.036934
C43	C	1.005271	0.005215	0.000026
C44	C	0.946380	-0.024958	0.036981
C45	C	0.946376	-0.085310	0.036980
C46	C	1.013701	0.067231	0.061936
C47	C	1.013714	0.127578	0.061939
C48	C	1.005279	0.191363	0.000027
C49	C	0.996853	0.194785	-0.061887
C50	C	0.996849	0.134433	-0.061888
C51	C	1.005269	0.070657	0.000031
C52	C	1.064156	0.286981	-0.036937
C53	C	1.064145	0.347344	-0.036945
C54	C	0.946397	0.347340	0.036977
C55	C	0.946401	0.286984	0.036978
C56	C	1.005286	0.256805	0.000023
C57	C	0.703751	0.631016	0.000018
C58	C	0.601418	0.631016	0.000017
C59	C	0.553327	0.631027	-0.052253
C60	C	0.457179	0.631022	-0.052249
C61	C	0.457221	0.630998	0.052299
C62	C	0.553371	0.630998	0.052297
C63	C	0.363604	0.583523	-0.091293
C64	C	0.315497	0.583548	-0.143573
C65	C	0.308828	0.631078	-0.213484
C66	C	0.350247	0.678603	-0.231127
C67	C	0.398343	0.678585	-0.178849
C68	C	0.405029	0.631036	-0.108931
C69	C	0.646943	0.678503	0.091333
C70	C	0.695036	0.678491	0.143609
C71	C	0.701703	0.630967	0.213522
C72	C	0.660271	0.583454	0.231164
C73	C	0.612178	0.583466	0.178889
C74	C	0.605519	0.630989	0.108976
C75	C	1.306788	0.631012	0.000022
C76	C	1.409120	0.631012	0.000023
C77	C	1.005214	0.631046	-0.189259
C78	C	1.005195	0.631058	-0.253499
C79	C	1.005263	0.820277	0.000024
C80	C	1.005261	0.884511	0.000025
C81	C	1.088462	0.631058	-0.283661
C82	C	1.088487	0.631042	-0.344008
C83	C	1.005227	0.631041	-0.374198
C84	C	0.921953	0.631036	-0.344026
C85	C	0.921937	0.631044	-0.283676
C86	C	0.903612	0.678538	-0.493579
C87	C	0.903628	0.678535	-0.553930
C88	C	1.005277	0.631012	-0.560334
C89	C	1.106917	0.583503	-0.506385
C90	C	1.106901	0.583511	-0.446035
C91	C	1.005236	0.631032	-0.439637
C92	C	1.088578	0.630994	-0.655931
C93	C	1.088603	0.630973	-0.716276
C94	C	0.922061	0.630974	-0.716297
C95	C	0.922044	0.630988	-0.655949
C96	C	1.005302	0.631001	-0.625771
C97	C	1.005325	0.630981	0.189299
C98	C	1.005344	0.630970	0.253539
C99	C	1.306794	0.441749	0.000018
C100	C	1.409129	0.377515	0.000018
C101	C	1.005331	0.441719	0.189295
C102	C	1.005352	0.377473	0.253534
C103	C	1.306850	0.441717	0.189297
C104	C	1.409203	0.377471	0.253536
C105	C	0.703689	0.820311	-0.189257
C106	C	0.601335	0.884557	-0.253496
C107	C	0.703745	0.820279	0.000022
C108	C	0.601410	0.884513	0.000023
C109	C	1.005207	0.820309	-0.189255
C110	C	1.005186	0.884554	-0.253493
C111	C	1.398298	0.347356	-0.036950
C112	C	1.494443	0.287009	-0.036965
C113	C	1.601418	0.256818	-0.000007
C114	C	1.612246	0.286982	0.036961
C115	C	1.516102	0.347332	0.036972
C116	C	1.064250	0.347297	0.320668
C117	C	1.064266	0.286940	0.381032
C118	C	1.005389	0.256757	0.374261
C119	C	0.946484	0.286940	0.307120
C120	C	0.946462	0.347300	0.246757
C121	C	1.516146	0.347307	0.246744
C122	C	1.612328	0.286949	0.307097
C123	C	1.601563	0.256753	0.374243
C124	C	1.494609	0.286924	0.381034
C125	C	1.398430	0.347284	0.320681
C126	C	0.494392	0.914729	-0.246703
C127	C	0.398211	0.975105	-0.307057
C128	C	0.408975	1.005304	-0.374203
C129	C	0.515930	0.975129	-0.380994
C130	C	0.612108	0.914759	-0.320641
C131	C	0.612241	0.914678	0.036984
C132	C	0.516096	0.975042	0.036982
C133	C	0.409121	1.005235	0.000022
C134	C	0.398292	0.975068	-0.036943
C135	C	0.494436	0.914710	-0.036945
C136	C	1.064075	0.914718	-0.246699
C137	C	1.064077	0.975075	-0.307052
C138	C	1.005184	1.005272	-0.374199
C139	C	0.946294	0.975102	-0.380991
C140	C	0.946299	0.914742	-0.320639
H141	H	0.989982	0.246721	-0.112303
H142	H	0.369048	0.544807	-0.034365
H143	H	0.578443	0.544776	0.193258
Cl144	Cl	0.872418	0.385224	0.162362
Cl145	Cl	1.746738	0.249015	0.083423
Cl146	Cl	0.263769	1.013022	-0.298503
Cl147	Cl	1.529708	0.385260	0.162339
H148	H	1.020564	0.015299	0.112355
H149	H	0.344795	0.717312	-0.288058
H150	H	0.898462	0.262416	0.067073
Cl151	Cl	0.529443	1.013099	-0.465411
H152	H	0.330651	1.054461	-0.423340
Cl153	Cl	1.263826	0.385302	-0.083420
H154	H	1.112083	-0.109888	-0.067021
H155	H	1.485604	0.262456	-0.067069
H156	H	1.524937	0.371880	0.067079
Cl157	Cl	1.234670	0.523781	-0.378213
H158	H	1.112195	0.371865	0.326195
Cl159	Cl	0.746547	0.876830	-0.329193
H160	H	0.281778	0.544848	-0.129202
Cl161	Cl	1.746770	0.249030	0.298543
Cl162	Cl	1.138329	0.249005	0.465430
Cl163	Cl	0.263801	1.013031	-0.083400
Cl164	Cl	1.005430	0.180874	0.450154
Cl165	Cl	0.746712	0.876737	0.083449
H166	H	0.898548	0.262356	0.301617
Cl167	Cl	1.722487	0.180869	0.450109
H168	H	0.854129	0.631043	-0.259117
H169	H	1.189690	0.544805	-0.511595
H170	H	1.156375	0.631002	-0.631358
Cl171	Cl	1.481096	0.248953	0.465452
H172	H	0.820829	0.717229	-0.488369
H173	H	1.311356	0.371836	0.326222
Cl174	Cl	1.005184	1.081157	-0.450064
Cl175	Cl	1.722275	0.180946	-0.000025
H176	H	0.485606	0.890144	-0.192035
H177	H	0.898344	0.999697	-0.435670
H178	H	0.524935	0.999594	0.067087
H179	H	0.330844	1.054383	0.000030
H180	H	0.485602	0.890151	-0.067041
Cl181	Cl	1.138123	0.876768	-0.162294
Cl182	Cl	1.138108	1.012995	-0.298497
H183	H	0.898340	0.890189	-0.326181
H184	H	1.112082	-0.000393	-0.067027
H185	H	0.418090	0.630985	0.094863
H186	H	0.989986	0.137224	-0.112301
H187	H	0.898462	0.371913	0.067067
H188	H	1.112085	0.371912	-0.067041
Cl189	Cl	1.138188	0.249034	-0.083389
H190	H	1.020584	0.124781	0.112354
H191	H	0.898450	-0.000384	0.067073
H192	H	0.898429	-0.109873	0.067073
H193	H	0.592446	0.631040	-0.094822
Cl194	Cl	0.248349	0.631109	-0.279207
Cl195	Cl	0.450412	0.738323	-0.201022
H196	H	0.665696	0.544759	0.288093
H197	H	0.728760	0.717188	0.129238
Cl198	Cl	0.762150	0.630962	0.279238
H199	H	0.641523	0.717201	0.034405
H200	H	1.156257	0.631067	-0.259091
Cl201	Cl	0.817398	0.630964	-0.754241
H202	H	1.156415	0.630968	-0.740832
Cl203	Cl	1.193174	0.631044	-0.381934
H204	H	0.854236	0.630992	-0.631391
H205	H	0.820867	0.717223	-0.597854
H206	H	0.854163	0.631033	-0.368608
