data_functionalizedCrystal
_audit_creation_method	'MofGen! by Chris Wilmer'
_symmetry_space_group_name_H-M	'P1'
_symmetry_Int_Tables_number	1
_symmetry_cell_setting	triclinic
loop_
_symmetry_equiv_pos_as_xyz
  x,y,z
_cell_length_a	10.654549
_cell_length_b	17.000371
_cell_length_c	9.730223
_cell_angle_alpha	89.995203
_cell_angle_beta	89.997731
_cell_angle_gamma	80.042013
loop_
_atom_site_label
_atom_site_type_symbol
_atom_site_fract_x
_atom_site_fract_y
_atom_site_fract_z
O1	O	1.653966	0.111723	-0.114259
O2	O	1.287165	0.122368	-0.114269
O3	O	1.493341	0.001305	-0.114254
O4	O	1.447790	0.232786	-0.114274
O5	O	1.493329	0.001302	0.114326
O6	O	1.287154	0.122365	0.114311
O7	O	1.653954	0.111720	0.114321
Zn8	Zn	1.470552	0.117042	0.150608
Zn9	Zn	1.470568	0.117046	-0.150556
O10	O	1.447778	0.232783	0.114305
C11	C	1.240459	0.121585	0.000020
C12	C	1.101306	0.119247	0.000016
C13	C	0.882213	0.188324	0.000016
C14	C	1.012960	0.190527	0.000007
C15	C	1.058899	0.045759	0.000020
C16	C	0.928154	0.043557	0.000018
C17	C	1.495782	-0.028337	0.000036
C18	C	1.503057	-0.116655	0.000035
C19	C	1.391100	-0.149299	0.000026
C20	C	1.397943	-0.232284	0.000030
C21	C	1.516745	-0.282624	0.000033
C22	C	1.628710	-0.249976	0.000046
C23	C	1.621866	-0.166992	0.000052
C24	C	1.543183	-0.533624	0.000024
C25	C	1.550020	-0.616613	0.000014
C26	C	1.319251	-0.598916	0.000000
C27	C	1.312417	-0.515931	-0.000002
C28	C	1.424383	-0.483290	0.000018
C29	C	1.523743	-0.367449	0.000032
C30	C	1.417384	-0.398467	0.000028
C31	C	1.700661	0.112503	0.000029
C32	C	1.839814	0.114841	0.000023
C33	C	1.445338	0.262425	0.000013
C34	C	1.438062	0.350743	0.000005
N35	N	1.470550	0.117038	0.356144
N36	N	1.470580	0.117043	-0.356093
C37	C	1.561871	0.063454	0.428077
C38	C	1.561884	0.063455	0.571960
C39	C	1.379250	0.170630	0.571965
C40	C	1.379233	0.170625	0.428084
H41	H	1.047474	0.250363	-0.000000
O42	O	1.665398	-0.665551	-0.000216
C43	C	1.676257	-0.714086	-0.118588
H44	H	1.608736	-0.684046	-0.201338
H45	H	1.778390	-0.722857	-0.158310
H46	H	1.650427	-0.774599	-0.091836
O47	O	1.210372	-0.630493	-0.000071
C48	C	1.104049	-0.568266	-0.000034
H49	H	1.133001	-0.511704	-0.043304
H50	H	1.025330	-0.586050	-0.066401
H51	H	1.067840	-0.556728	0.109627
O52	O	1.290427	0.222712	0.641637
C53	C	1.209837	0.270017	0.547289
H54	H	1.212016	0.237392	0.444734
H55	H	1.108280	0.281558	0.588876
H56	H	1.244044	0.329352	0.531964
H57	H	1.306776	-0.258858	0.000012
H58	H	0.810289	0.246368	0.000019
O59	O	1.650455	0.011272	0.358285
C60	C	1.638745	-0.067579	0.393541
H61	H	1.538305	-0.068536	0.433091
H62	H	1.657591	-0.107442	0.298956
H63	H	1.710869	-0.090521	0.477080
O64	O	1.650431	0.011325	0.641896
C65	C	1.588662	-0.038136	0.725169
H66	H	1.489838	-0.040066	0.681828
H67	H	1.646857	-0.101059	0.726803
H68	H	1.579344	-0.013278	0.834210
H69	H	1.304862	0.214260	0.369513
H70	H	1.130841	-0.012279	0.000019
H71	H	0.893635	-0.016285	0.000020
O72	O	1.652066	-0.502055	-0.000021
C73	C	1.758385	-0.564284	0.000012
H74	H	1.729436	-0.620837	-0.043278
H75	H	1.837115	-0.546491	-0.066338
H76	H	1.794579	-0.575842	0.109675
O77	O	1.275590	-0.100516	0.000079
C78	C	1.178243	-0.147127	0.000039
H79	H	1.216948	-0.208876	0.043313
H80	H	1.095563	-0.116969	0.066399
H81	H	1.143501	-0.153227	-0.109625
O82	O	1.197039	-0.467004	-0.000246
C83	C	1.186195	-0.418454	-0.118612
H84	H	1.253744	-0.448476	-0.201351
H85	H	1.084073	-0.409690	-0.158358
H86	H	1.211999	-0.357938	-0.091844
H87	H	1.725441	-0.290970	0.000057
H88	H	1.713033	-0.140416	0.000061
O89	O	1.301953	-0.349604	0.000265
C90	C	1.233396	-0.364516	0.118618
H91	H	1.302771	-0.392512	0.201372
H92	H	1.176561	-0.305929	0.158350
H93	H	1.165421	-0.407161	0.091838
O94	O	1.639113	-0.416385	-0.000219
C95	C	1.649952	-0.464923	-0.118585
H96	H	1.582420	-0.434885	-0.201327
H97	H	1.752080	-0.473697	-0.158325
H98	H	1.624125	-0.525436	-0.091820
