data_functionalizedCrystal
_audit_creation_method	'MofGen! by Chris Wilmer'
_symmetry_space_group_name_H-M	'P1'
_symmetry_Int_Tables_number	1
_symmetry_cell_setting	triclinic
loop_
_symmetry_equiv_pos_as_xyz
  x,y,z
_cell_length_a	18.215407
_cell_length_b	12.759394
_cell_length_c	12.759387
_cell_angle_alpha	89.968340
_cell_angle_beta	89.976959
_cell_angle_gamma	90.015285
loop_
_atom_site_label
_atom_site_type_symbol
_atom_site_fract_x
_atom_site_fract_y
_atom_site_fract_z
Zn1	Zn	1.125147	-0.418198	-0.594070
Zn2	Zn	1.125070	-0.593916	-0.418388
Zn3	Zn	1.002072	-0.418252	-0.418399
Zn4	Zn	1.002067	-0.593837	-0.594019
O5	O	1.063589	-0.506051	-0.506219
O6	O	1.228121	-0.441518	-0.570782
O7	O	1.108724	-0.570669	-0.271368
O8	O	1.018433	-0.271224	-0.441728
O9	O	1.228064	-0.570616	-0.441709
O10	O	1.108855	-0.271185	-0.570793
O11	O	1.018358	-0.441610	-0.271376
O12	O	0.899087	-0.441534	-0.441679
O13	O	1.018423	-0.570483	-0.741047
O14	O	0.899083	-0.570536	-0.570706
O15	O	1.108850	-0.441442	-0.741084
O16	O	1.108719	-0.740926	-0.441659
O17	O	1.018349	-0.740869	-0.570695
C18	C	0.872383	-0.506033	-0.506189
C19	C	0.790584	-0.506051	-0.506201
C20	C	0.602407	-0.573327	-0.573301
C21	C	0.525548	-0.573331	-0.573314
C22	C	0.525523	-0.438794	-0.439160
C23	C	0.602380	-0.438786	-0.439153
C24	C	0.640820	-0.506059	-0.506222
C25	C	0.487104	-0.506070	-0.506242
C26	C	0.403770	-0.506073	-0.506256
C27	C	0.724159	-0.506054	-0.506210
C28	C	1.063545	-0.779018	-0.506193
C29	C	1.063593	-0.895795	-0.506218
C30	C	1.157766	-0.895802	-0.371954
C31	C	1.204871	-0.950665	-0.304834
C32	C	1.204915	-1.060387	-0.304862
C33	C	1.157849	-1.115247	-0.372020
C34	C	1.110743	-1.060383	-0.439140
C35	C	1.110703	-0.950659	-0.439102
C36	C	1.016575	-1.060377	-0.573408
C37	C	1.016527	-0.950655	-0.573375
C38	C	0.969509	-1.115237	-0.640565
C39	C	0.922399	-1.060373	-0.707681
C40	C	0.922357	-0.950645	-0.707649
C41	C	0.969422	-0.895791	-0.640495
C42	C	1.255542	-0.506070	-0.506250
C43	C	1.337341	-0.506078	-0.506263
C44	C	1.063644	-0.505948	-0.780252
C45	C	1.063668	-0.505904	-0.897029
C46	C	1.063653	-0.232018	-0.506267
C47	C	1.063681	-0.115241	-0.506288
C48	C	1.157835	-0.371542	-0.897088
C49	C	1.204929	-0.304346	-0.951978
C50	C	1.204947	-0.304307	-1.061700
C51	C	1.157865	-0.371471	-1.116534
C52	C	1.110771	-0.438667	-1.061644
C53	C	1.110759	-0.438701	-0.951919
C54	C	1.016601	-0.573022	-1.061585
C55	C	1.016585	-0.573067	-0.951863
C56	C	0.969518	-0.640186	-1.116419
C57	C	0.922427	-0.707389	-1.061529
C58	C	0.922411	-0.707425	-0.951800
C59	C	0.969492	-0.640264	-0.896973
C60	C	1.063576	-0.506078	-0.233251
C61	C	1.063695	-0.505826	-0.116475
H62	H	0.494275	-0.628106	-0.627938
H63	H	0.633657	-0.384001	-0.384529
H64	H	1.243291	-0.249584	-1.106391
H65	H	0.494216	-0.384024	-0.384553
Cl66	Cl	1.264137	-1.129362	-0.220488
Cl67	Cl	1.157922	-0.757865	-0.372208
H68	H	0.633702	-0.628103	-0.627915
H69	H	1.243194	-0.905989	-0.250157
Cl70	Cl	0.969479	-0.640308	-0.759036
H71	H	1.157894	-1.204588	-0.372046
Cl72	Cl	0.969252	-1.253172	-0.640157
H73	H	0.884085	-1.105049	-0.762360
Cl74	Cl	1.264098	-0.219891	-0.883039
H75	H	1.157877	-0.371425	-1.205875
Cl76	Cl	0.863139	-0.881682	-0.792039
H77	H	0.969387	-0.806450	-0.640455
Cl78	Cl	1.157827	-0.371600	-0.759151
Cl79	Cl	0.863240	-0.791807	-1.130467
H80	H	0.969533	-0.640146	-1.205760
Cl81	Cl	0.863200	-0.791901	-0.882805
