data_functionalizedCrystal
_audit_creation_method	'MofGen! by Chris Wilmer'
_symmetry_space_group_name_H-M	'P1'
_symmetry_Int_Tables_number	1
_symmetry_cell_setting	triclinic
loop_
_symmetry_equiv_pos_as_xyz
  x,y,z
_cell_length_a	10.489741
_cell_length_b	10.968094
_cell_length_c	8.965430
_cell_angle_alpha	77.875722
_cell_angle_beta	89.995683
_cell_angle_gamma	95.374755
loop_
_atom_site_label
_atom_site_type_symbol
_atom_site_fract_x
_atom_site_fract_y
_atom_site_fract_z
O1	O	-0.178850	1.657236	-0.301908
O2	O	-0.195989	1.294107	-0.208577
O3	O	-0.001816	1.483935	-0.257363
O4	O	-0.373023	1.467409	-0.253122
O5	O	-0.001797	1.483924	-0.505439
O6	O	-0.195970	1.294097	-0.456653
O7	O	-0.178831	1.657226	-0.549984
Cu8	Cu	-0.187399	1.475660	-0.525970
Cu9	Cu	-0.187421	1.475673	-0.232591
O10	O	-0.373004	1.467398	-0.501198
C11	C	-0.194735	1.247603	-0.320663
C12	C	-0.191012	1.109051	-0.285052
C13	C	-0.185481	0.904068	-0.360872
C14	C	-0.189339	1.047268	-0.397692
C15	C	-0.420544	1.468652	-0.377482
C16	C	-0.562171	1.472386	-0.378444
C17	C	-0.630229	1.593168	-0.409476
C18	C	-0.722380	1.536106	-0.517124
C19	C	-0.722376	1.536088	-0.272533
C20	C	-0.652456	1.415275	-0.486181
C21	C	-0.652443	1.415274	-0.241484
C22	C	-0.744566	1.358124	-0.349140
C23	C	0.045724	1.482681	-0.381076
C24	C	0.187351	1.478947	-0.380104
C25	C	-0.180085	1.703730	-0.437894
C26	C	-0.183808	1.842281	-0.473495
N27	N	-0.187383	1.475660	-0.732319
C28	C	-0.096878	1.562761	-0.951374
C29	C	-0.212007	1.589012	-0.858646
C30	C	-0.072263	1.449465	-0.822854
C31	C	-0.302615	1.501990	-0.935720
C32	C	-0.162795	1.362393	-0.899923
C33	C	-0.278008	1.388597	-0.807228
N34	N	-0.187427	1.475682	-0.026244
H35	H	-0.184051	0.850953	-0.237191
H36	H	-0.753332	1.587220	-0.182271
C37	C	-0.656251	1.645158	-0.770220
C38	C	-0.764196	1.605090	-0.674447
H39	H	-0.682065	1.687757	-0.867337
H40	H	-0.613958	1.574654	-0.781504
H41	H	-0.599532	1.700254	-0.726778
H42	H	-0.820911	1.549986	-0.717883
H43	H	-0.806509	1.675603	-0.663168
H44	H	-0.185225	0.895398	-0.597176
C45	C	-0.776107	1.161023	-0.426745
C46	C	-0.811395	1.223952	-0.314743
H47	H	-0.817374	1.078195	-0.405517
H48	H	-0.685920	1.157931	-0.426764
H49	H	-0.801117	1.204257	-0.523912
H50	H	-0.786376	1.180723	-0.217576
H51	H	-0.901602	1.227037	-0.314708
H52	H	-0.580514	1.692474	-0.435121
C53	C	-0.083811	1.206865	-0.595410
C54	C	-0.191257	1.118957	-0.564670
H55	H	-0.085002	1.251128	-0.698491
H56	H	-0.008203	1.164922	-0.579088
H57	H	-0.085374	1.264178	-0.529512
H58	H	-0.189690	1.061639	-0.630561
H59	H	-0.266885	1.160902	-0.581008
C60	C	-0.645490	1.409777	0.027500
C61	C	-0.610577	1.346348	-0.084168
H62	H	-0.619633	1.367234	0.124624
H63	H	-0.735744	1.412309	0.028350
H64	H	-0.604751	1.492800	0.005267
H65	H	-0.651324	1.263327	-0.061942
H66	H	-0.520306	1.343801	-0.085014
C67	C	-0.185653	0.909383	-0.113910
C68	C	-0.189098	1.037366	-0.118072
H69	H	-0.184481	0.865129	-0.010824
H70	H	-0.110822	0.896959	-0.166294
H71	H	-0.259334	0.879261	-0.161770
H72	H	-0.115412	1.067490	-0.070222
H73	H	-0.263937	1.049798	-0.065666
C74	C	0.006025	1.660476	-1.191582
C75	C	0.006354	1.662242	-1.035868
H76	H	0.069758	1.721887	-1.243741
H77	H	-0.075594	1.678310	-1.231637
H78	H	0.023712	1.580035	-1.204969
H79	H	-0.011342	1.742681	-1.022480
H80	H	0.087992	1.644416	-0.995800
H81	H	-0.232832	1.684808	-0.839553
H82	H	-0.621650	1.364206	-0.576578
C83	C	-0.418996	1.641008	-1.116995
C84	C	-0.434093	1.532100	-1.002102
H85	H	-0.500164	1.659609	-1.157967
H86	H	-0.364115	1.628472	-1.195579
H87	H	-0.382489	1.708810	-1.075348
H88	H	-0.470592	1.464296	-1.043752
H89	H	-0.488995	1.544629	-0.923504
H90	H	-0.354647	1.314944	-0.744936
H91	H	-0.141934	1.266626	-0.919057
C92	C	0.153822	1.510859	-0.829889
C93	C	0.059185	1.419530	-0.756239
H94	H	0.234973	1.492379	-0.788773
H95	H	0.135717	1.590720	-0.814869
H96	H	0.154969	1.511398	-0.935975
H97	H	0.058032	1.418997	-0.650154
H98	H	0.077295	1.339648	-0.771246
