data_functionalizedCrystal
_audit_creation_method	'MofGen! by Chris Wilmer'
_symmetry_space_group_name_H-M	'P1'
_symmetry_Int_Tables_number	1
_symmetry_cell_setting	triclinic
loop_
_symmetry_equiv_pos_as_xyz
  x,y,z
_cell_length_a	9.065218
_cell_length_b	13.596369
_cell_length_c	9.065218
_cell_angle_alpha	90.001486
_cell_angle_beta	94.984115
_cell_angle_gamma	90.006051
loop_
_atom_site_label
_atom_site_type_symbol
_atom_site_fract_x
_atom_site_fract_y
_atom_site_fract_z
O1	O	1.960406	0.081790	-0.216347
O2	O	2.460406	0.581790	0.283653
O3	O	1.531121	0.081791	-0.234094
O4	O	2.031121	0.581791	0.265906
O5	O	1.754636	0.081788	-0.010578
O6	O	2.254636	0.581788	0.489422
O7	O	1.736890	0.081792	-0.439863
O8	O	2.236890	0.581792	0.060137
O9	O	1.754609	-0.081795	-0.010590
O10	O	2.254609	0.418205	0.489410
O11	O	1.531093	-0.081792	-0.234106
O12	O	2.031093	0.418208	0.265894
O13	O	1.960378	-0.081793	-0.216359
O14	O	2.460378	0.418207	0.283641
Zn15	Zn	1.745731	-0.107765	-0.225234
Zn16	Zn	2.245731	0.392235	0.274766
Zn17	Zn	1.745768	0.107762	-0.225218
Zn18	Zn	2.245768	0.607762	0.274782
O19	O	1.736862	-0.081791	-0.439875
O20	O	2.236862	0.418209	0.060125
C21	C	1.476120	-0.000001	-0.232394
C22	C	1.976120	0.499999	0.267606
C23	C	1.312277	-0.000000	-0.227294
C24	C	1.812277	0.500000	0.272706
N25	N	1.745717	-0.254857	-0.225245
N26	N	2.245717	0.245143	0.274755
C27	C	1.745724	-0.343855	-0.225248
C28	C	2.245724	0.156145	0.274752
C29	C	1.745739	-0.455506	-0.225238
C30	C	2.245739	0.044494	0.274762
C31	C	1.745758	-0.544497	-0.225222
C32	C	2.245758	-0.044497	0.274778
C33	C	1.745774	-0.656155	-0.225213
C34	C	2.245774	-0.156155	0.274787
C35	C	2.015378	0.000000	-0.218059
C36	C	2.515378	0.500000	0.281941
C37	C	2.179221	0.000006	-0.223158
C38	C	2.679221	0.500006	0.276842
C39	C	1.752917	-0.000002	0.044403
C40	C	2.252917	0.499998	0.544403
C41	C	1.747817	0.000003	0.208245
C42	C	2.247817	0.500003	0.708245
N43	N	1.745793	0.254854	-0.225197
N44	N	2.245793	0.754854	0.274803
C45	C	1.738582	0.000001	-0.494855
C46	C	2.238582	0.500001	0.005145
C47	C	1.743681	0.000003	-0.658698
C48	C	2.243681	0.500003	-0.158698
