data_functionalizedCrystal
_audit_creation_method	'MofGen! by Chris Wilmer'
_symmetry_space_group_name_H-M	'P1'
_symmetry_Int_Tables_number	1
_symmetry_cell_setting	triclinic
loop_
_symmetry_equiv_pos_as_xyz
  x,y,z
_cell_length_a	16.992697
_cell_length_b	13.596369
_cell_length_c	16.974755
_cell_angle_alpha	86.337125
_cell_angle_beta	87.020742
_cell_angle_gamma	90.001277
loop_
_atom_site_label
_atom_site_type_symbol
_atom_site_fract_x
_atom_site_fract_y
_atom_site_fract_z
O1	O	-1.040200	0.095000	-0.167655
O2	O	-0.706866	0.428333	0.165679
O3	O	-0.373533	0.761666	0.499012
O4	O	-0.811916	0.094886	-0.165815
O5	O	-0.478583	0.428220	0.167518
O6	O	-0.145250	0.761553	0.500852
O7	O	-0.932430	0.085802	-0.052032
O8	O	-0.599097	0.419135	0.281301
O9	O	-0.265763	0.752469	0.614634
O10	O	-0.919686	0.104084	-0.281437
O11	O	-0.586353	0.437417	0.051896
O12	O	-0.253019	0.770751	0.385229
O13	O	-0.932418	-0.077782	-0.052025
O14	O	-0.599085	0.255552	0.281308
O15	O	-0.265751	0.588885	0.614642
O16	O	-0.811904	-0.068697	-0.165808
O17	O	-0.478571	0.264636	0.167526
O18	O	-0.145238	0.597969	0.500859
O19	O	-1.040188	-0.068584	-0.167647
O20	O	-0.706854	0.264749	0.165686
O21	O	-0.373521	0.598083	0.499019
Zn22	Zn	-0.926044	-0.094613	-0.166726
Zn23	Zn	-0.592711	0.238720	0.166607
Zn24	Zn	-0.259377	0.572054	0.499940
Zn25	Zn	-0.926060	0.120915	-0.166736
Zn26	Zn	-0.592727	0.454249	0.166597
Zn27	Zn	-0.259393	0.787582	0.499931
O28	O	-0.919674	-0.059499	-0.281430
O29	O	-0.586341	0.273834	0.051903
O30	O	-0.253007	0.607167	0.385236
C31	C	-0.782701	0.012910	-0.163445
C32	C	-0.449367	0.346244	0.169888
C33	C	-0.116034	0.679577	0.503221
C34	C	-0.695665	0.012361	-0.156385
C35	C	-0.362331	0.345694	0.176948
C36	C	-0.028998	0.679027	0.510281
N37	N	-0.926039	-0.241705	-0.166720
N38	N	-0.592706	0.091628	0.166613
N39	N	-0.259372	0.424961	0.499947
C40	C	-0.645346	0.017789	-0.224502
C41	C	-0.312013	0.351123	0.108832
C42	C	0.021321	0.684456	0.442165
C43	C	-0.563567	0.017248	-0.217863
C44	C	-0.230234	0.350581	0.115470
C45	C	0.103100	0.683915	0.448803
C46	C	-0.532108	0.011285	-0.143108
C47	C	-0.198775	0.344619	0.190225
C48	C	0.134558	0.677952	0.523558
C49	C	-0.582433	0.005854	-0.074987
C50	C	-0.249100	0.339187	0.258347
C51	C	0.084233	0.672520	0.591680
C52	C	-0.664211	0.006388	-0.081626
C53	C	-0.330877	0.339721	0.251708
C54	C	0.002456	0.673054	0.585041
C55	C	-0.288542	0.009071	-0.115593
C56	C	0.044791	0.342404	0.217741
C57	C	0.378125	0.675737	0.551074
C58	C	-0.206758	0.008540	-0.108959
C59	C	0.126575	0.341873	0.224375
C60	C	0.459908	0.675207	0.557708
C61	C	-0.187898	0.019933	-0.251836
C62	C	0.145436	0.353266	0.081497
C63	C	0.478769	0.686599	0.414830
C64	C	-0.269677	0.020472	-0.258469
C65	C	0.063656	0.353806	0.074865
C66	C	0.396989	0.687139	0.408198
C67	C	-0.319995	0.015035	-0.190347
C68	C	0.013338	0.348369	0.142986
C69	C	0.346671	0.681702	0.476320
N70	N	-0.448517	0.010735	-0.136321
N71	N	-0.115184	0.344069	0.197012
N72	N	0.218150	0.677402	0.530346
N73	N	-0.403585	0.015578	-0.197135
N74	N	-0.070251	0.348912	0.136198
N75	N	0.263082	0.682245	0.469532
C76	C	-0.926059	-0.642995	-0.166737
C77	C	-0.592725	-0.309662	0.166597
C78	C	-0.259392	0.023672	0.499930
C79	C	-0.926051	-0.531344	-0.166735
C80	C	-0.592718	-0.198010	0.166599
C81	C	-0.259384	0.135323	0.499932
C82	C	-0.926049	-0.442354	-0.166729
C83	C	-0.592716	-0.109020	0.166604
C84	C	-0.259383	0.224313	0.499938
C85	C	-0.926041	-0.330695	-0.166726
C86	C	-0.592707	0.002638	0.166608
C87	C	-0.259374	0.335971	0.499941
C88	C	-0.069403	0.013399	-0.170017
C89	C	0.263930	0.346732	0.163317
C90	C	0.597263	0.680066	0.496650
C91	C	-0.156440	0.013969	-0.177075
C92	C	0.176894	0.347302	0.156258
C93	C	0.510227	0.680635	0.489592
C94	C	-0.931942	0.001662	-0.022539
C95	C	-0.598608	0.334996	0.310794
C96	C	-0.265275	0.668329	0.644127
C97	C	-0.930496	-0.005333	0.065330
C98	C	-0.597162	0.328000	0.398664
C99	C	-0.263829	0.661334	0.731997
N100	N	-0.926071	0.268007	-0.166737
N101	N	-0.592738	0.601341	0.166597
N102	N	-0.259404	0.934674	0.499930
C103	C	-0.920162	0.024642	-0.310923
C104	C	-0.586829	0.357976	0.022410
C105	C	-0.253496	0.691309	0.355743
C106	C	-0.921608	0.031644	-0.398793
C107	C	-0.588275	0.364978	-0.065459
C108	C	-0.254942	0.698311	0.267874
C109	C	-0.922284	-0.054242	0.559940
C110	C	-0.588951	0.279091	0.893273
C111	C	-0.255618	0.612424	1.226607
C112	C	-0.923651	-0.047674	0.477378
C113	C	-0.590317	0.285659	0.810711
C114	C	-0.256984	0.618993	1.144044
C115	C	-0.924346	0.044782	0.436084
C116	C	-0.591013	0.378115	0.769418
C117	C	-0.257680	0.711448	1.102751
C118	C	-0.923668	0.130675	0.477357
C119	C	-0.590334	0.464008	0.810690
C120	C	-0.257001	0.797341	1.144024
C121	C	-0.922296	0.124105	0.559918
C122	C	-0.588963	0.457439	0.893251
C123	C	-0.255629	0.790772	1.226584
C124	C	-0.928445	0.073991	0.189164
C125	C	-0.595112	0.407324	0.522497
C126	C	-0.261779	0.740657	0.855830
C127	C	-0.929820	0.080553	0.106597
C128	C	-0.596486	0.413887	0.439931
C129	C	-0.263153	0.747220	0.773264
C130	C	-0.929801	-0.097796	0.106624
C131	C	-0.596468	0.235537	0.439957
C132	C	-0.263134	0.568871	0.773290
C133	C	-0.928434	-0.104357	0.189186
C134	C	-0.595100	0.228976	0.522519
C135	C	-0.261767	0.562309	0.855853
C136	C	-0.927751	-0.018464	0.230451
C137	C	-0.594418	0.314869	0.563785
C138	C	-0.261084	0.648202	0.897118
N139	N	-0.925745	0.051498	0.351693
N140	N	-0.592412	0.384831	0.685026
N141	N	-0.259079	0.718164	1.018359
N142	N	-0.926346	-0.025181	0.314841
N143	N	-0.593013	0.308152	0.648174
N144	N	-0.259680	0.641485	0.981508
H145	H	-0.670953	0.022645	-0.285375
H146	H	-0.337619	0.355979	0.047958
H147	H	-0.004286	0.689312	0.381291
H148	H	-0.927871	-0.179644	0.222802
H149	H	-0.594538	0.153689	0.556135
H150	H	-0.261204	0.487022	0.889468
C151	C	-0.304275	0.027016	-0.340705
C152	C	0.029058	0.360349	-0.007372
C153	C	0.362391	0.693683	0.325962
N154	N	-0.330334	0.031943	-0.402647
N155	N	0.002999	0.365276	-0.069313
N156	N	0.336333	0.698610	0.264020
C157	C	-0.930540	-0.192272	0.061225
C158	C	-0.597207	0.141062	0.394558
C159	C	-0.263874	0.474395	0.727891
N160	N	-0.931092	-0.263435	0.027029
N161	N	-0.597759	0.069899	0.360363
N162	N	-0.264426	0.403232	0.693696
H163	H	-0.930385	0.155846	0.072979
H164	H	-0.597052	0.489179	0.406312
H165	H	-0.263718	0.822512	0.739645
C166	C	-0.508219	0.023202	-0.292798
C167	C	-0.174886	0.356536	0.040536
C168	C	0.158447	0.689869	0.373869
N169	N	-0.466532	0.027680	-0.349241
N170	N	-0.133198	0.361014	-0.015908
N171	N	0.200135	0.694347	0.317425
H172	H	-0.924213	-0.117612	0.443783
H173	H	-0.590879	0.215721	0.777116
H174	H	-0.257546	0.549055	1.110449
H175	H	-0.927896	0.143931	0.222752
H176	H	-0.594563	0.477264	0.556086
H177	H	-0.261229	0.810598	0.889419
H178	H	-0.146920	0.024357	-0.307297
H179	H	0.186413	0.357691	0.026037
H180	H	0.519746	0.691024	0.359370
C181	C	-0.172156	0.001981	-0.026719
C182	C	0.161177	0.335315	0.306615
C183	C	0.494510	0.668648	0.639948
N184	N	-0.146094	-0.002956	0.035221
N185	N	0.187239	0.330377	0.368555
N186	N	0.520573	0.663711	0.701888
H187	H	-0.924230	0.205954	0.443729
H188	H	-0.590897	0.539288	0.777063
H189	H	-0.257563	0.872621	1.110396
H190	H	-0.921741	0.194044	0.593516
H191	H	-0.588408	0.527377	0.926849
H192	H	-0.255074	0.860710	1.260183
H193	H	-0.556813	0.000985	-0.014119
H194	H	-0.223480	0.334318	0.319214
H195	H	0.109854	0.667651	0.652547
H196	H	-0.705180	0.001968	-0.026158
H197	H	-0.371847	0.335301	0.307175
H198	H	-0.038513	0.668634	0.640509
C199	C	-0.921518	-0.155952	0.605355
C200	C	-0.588185	0.177381	0.938688
C201	C	-0.254852	0.510715	1.272022
N202	N	-0.920938	-0.232562	0.639559
N203	N	-0.587604	0.100771	0.972893
N204	N	-0.254271	0.434104	1.306226
H205	H	-0.329502	0.004643	-0.060123
H206	H	0.003832	0.337976	0.273210
H207	H	0.337165	0.671309	0.606544
