data_functionalizedCrystal
_audit_creation_method	'MofGen! by Chris Wilmer'
_symmetry_space_group_name_H-M	'P1'
_symmetry_Int_Tables_number	1
_symmetry_cell_setting	triclinic
loop_
_symmetry_equiv_pos_as_xyz
  x,y,z
_cell_length_a	15.298206
_cell_length_b	15.296720
_cell_length_c	15.297327
_cell_angle_alpha	107.319222
_cell_angle_beta	88.422996
_cell_angle_gamma	110.778255
loop_
_atom_site_label
_atom_site_type_symbol
_atom_site_fract_x
_atom_site_fract_y
_atom_site_fract_z
Zn1	Zn	1.197171	-0.412757	-0.637538
Zn2	Zn	1.197068	-0.284166	-0.766145
Zn3	Zn	1.077888	-0.274918	-0.593099
Zn4	Zn	1.014713	-0.466583	-0.766131
O5	O	1.121710	-0.359606	-0.690728
O6	O	1.323393	-0.377043	-0.673202
O7	O	1.207655	-0.148911	-0.724598
O8	O	1.120193	-0.266805	-0.472757
O9	O	1.323318	-0.282568	-0.767689
O10	O	1.207829	-0.368075	-0.505406
O11	O	1.120094	-0.142116	-0.597462
O12	O	0.943272	-0.318998	-0.597448
O13	O	1.012521	-0.593471	-0.767665
O14	O	0.896858	-0.459814	-0.724574
O15	O	1.146571	-0.553925	-0.673188
O16	O	1.146397	-0.334761	-0.892380
O17	O	1.012421	-0.468782	-0.892369
C18	C	0.887333	-0.394244	-0.656188
C19	C	0.787056	-0.409090	-0.641436
C20	C	0.739953	-0.465371	-0.585415
C21	C	0.645740	-0.479320	-0.571547
C22	C	0.598618	-0.436995	-0.613704
C23	C	0.645718	-0.380718	-0.669732
C24	C	0.739943	-0.366762	-0.683596
C25	C	0.598608	-0.338386	-0.711885
C26	C	0.645708	-0.282109	-0.767913
C27	C	0.739924	-0.268156	-0.781775
C28	C	0.787046	-0.310480	-0.739617
C29	C	0.504383	-0.352342	-0.698021
C30	C	0.504373	-0.253733	-0.796202
C31	C	0.598586	-0.239784	-0.810070
C32	C	1.072511	-0.609422	-0.725382
C33	C	1.051545	-0.715878	-0.740150
C34	C	1.271623	-0.933605	-0.585029
C35	C	1.291327	-0.833583	-0.571157
C36	C	1.231383	-0.804151	-0.613404
C37	C	1.151732	-0.874752	-0.669526
C38	C	1.132030	-0.974784	-0.683405
C39	C	1.091790	-0.845331	-0.711780
C40	C	1.012139	-0.915932	-0.767902
C41	C	0.992440	-1.015954	-0.781778
C42	C	1.052384	-1.045385	-0.739532
C43	C	1.111492	-0.745299	-0.697900
C44	C	0.971899	-0.786479	-0.796276
C45	C	0.952195	-0.886501	-0.810148
C46	C	1.357002	-0.324833	-0.725404
C47	C	1.457270	-0.310014	-0.740181
C48	C	1.072563	-0.408633	-0.925113
C49	C	1.051614	-0.429627	-1.025400
C50	C	1.170784	-0.110740	-0.656151
C51	C	1.191977	-0.004205	-0.641156
C52	C	1.271744	-0.209831	-1.308042
C53	C	1.291427	-0.190101	-1.213816
C54	C	1.231476	-0.249981	-1.166708
C55	C	1.151837	-0.329594	-1.213834
C56	C	1.132148	-0.349321	-1.308067
C57	C	1.091880	-0.389471	-1.166733
C58	C	1.012241	-0.469083	-1.213859
C59	C	0.992556	-0.488807	-1.308084
C60	C	1.052508	-0.428927	-1.355192
C61	C	1.111569	-0.369744	-1.072500
C62	C	0.971973	-0.509234	-1.072525
C63	C	0.952290	-0.528963	-1.166751
C64	C	1.171069	-0.310404	-0.455435
C65	C	1.192104	-0.289438	-0.355167
H66	H	0.778331	-0.499820	-0.551091
H67	H	1.036488	-0.444989	-1.431919
F68	F	0.867427	-0.961650	-0.869877
H69	H	0.466043	-0.398162	-0.652401
H70	H	0.887447	-0.593784	-1.205134
F71	F	1.376094	-0.758452	-0.511431
H72	H	0.607397	-0.525142	-0.525930
H73	H	0.923089	-0.762518	-0.830678
F74	F	1.376186	-0.105381	-1.163670
F75	F	1.335537	-0.146110	-1.358183
F76	F	1.335416	-0.964936	-0.540083
F77	F	1.031420	-1.151840	-0.754297
H78	H	0.521906	-0.448352	-0.602406
H79	H	0.863758	-0.299141	-0.750919
H80	H	1.247431	-0.722708	-0.602105
H81	H	0.778274	-0.222322	-0.827387
H82	H	0.927701	-0.553623	-1.346448
H83	H	0.636949	-0.193963	-0.855689
F84	F	0.907679	-1.091091	-0.841523
F85	F	1.252580	-0.229158	-1.066481
F86	F	1.196260	-0.670172	-0.638172
F87	F	0.908160	-0.572962	-1.022392
H88	H	0.466006	-0.219270	-0.830531
F89	F	1.196324	-0.285016	-1.022355
