data_functionalizedCrystal
_audit_creation_method	'MofGen! by Chris Wilmer'
_symmetry_space_group_name_H-M	'P1'
_symmetry_Int_Tables_number	1
_symmetry_cell_setting	triclinic
loop_
_symmetry_equiv_pos_as_xyz
  x,y,z
_cell_length_a	21.295417
_cell_length_b	21.395362
_cell_length_c	21.395355
_cell_angle_alpha	90.048039
_cell_angle_beta	89.978549
_cell_angle_gamma	89.951233
loop_
_atom_site_label
_atom_site_type_symbol
_atom_site_fract_x
_atom_site_fract_y
_atom_site_fract_z
Zn1	Zn	-0.250375	-0.957860	-0.354641
Zn2	Zn	-0.000375	-0.707860	-0.104641
Zn3	Zn	0.249625	-0.457860	0.145359
Zn4	Zn	0.499625	-0.207860	0.395359
Zn5	Zn	-0.355627	-0.957763	-0.249859
Zn6	Zn	-0.105627	-0.707763	0.000141
Zn7	Zn	0.144373	-0.457763	0.250141
Zn8	Zn	0.394373	-0.207763	0.500141
Zn9	Zn	-0.250409	-0.853075	-0.249835
Zn10	Zn	-0.000409	-0.603075	0.000165
Zn11	Zn	0.249591	-0.353075	0.250165
Zn12	Zn	0.499591	-0.103075	0.500165
Zn13	Zn	-0.355644	-0.853045	-0.354556
Zn14	Zn	-0.105644	-0.603045	-0.104556
Zn15	Zn	0.144356	-0.353045	0.145444
Zn16	Zn	0.394356	-0.103045	0.395444
O17	O	-0.303014	-0.905436	-0.302223
O18	O	-0.053014	-0.655436	-0.052223
O19	O	0.196986	-0.405436	0.197777
O20	O	0.446986	-0.155436	0.447777
O21	O	-0.264316	-1.045525	-0.340787
O22	O	-0.014316	-0.795525	-0.090787
O23	O	0.235684	-0.545525	0.159213
O24	O	0.485684	-0.295525	0.409213
O25	O	-0.341676	-0.943848	-0.162177
O26	O	-0.091676	-0.693848	0.087823
O27	O	0.158324	-0.443848	0.337823
O28	O	0.408324	-0.193848	0.587823
O29	O	-0.162315	-0.867029	-0.263764
O30	O	0.087685	-0.617029	-0.013764
O31	O	0.337685	-0.367029	0.236236
O32	O	0.587685	-0.117029	0.486236
O33	O	-0.341644	-1.045454	-0.263804
O34	O	-0.091644	-0.795454	-0.013804
O35	O	0.158356	-0.545454	0.236196
O36	O	0.408356	-0.295454	0.486196
O37	O	-0.162290	-0.944014	-0.340765
O38	O	0.087710	-0.694014	-0.090765
O39	O	0.337710	-0.444014	0.159235
O40	O	0.587710	-0.194014	0.409235
O41	O	-0.264373	-0.866935	-0.162160
O42	O	-0.014373	-0.616935	0.087840
O43	O	0.235627	-0.366935	0.337840
O44	O	0.485627	-0.116935	0.587840
O45	O	-0.264390	-0.765393	-0.263681
O46	O	-0.014390	-0.515393	-0.013681
O47	O	0.235610	-0.265393	0.236319
O48	O	0.485610	-0.015393	0.486319
O49	O	-0.341673	-0.866977	-0.442245
O50	O	-0.091673	-0.616977	-0.192245
O51	O	0.158327	-0.366977	0.057755
O52	O	0.408327	-0.116977	0.307755
O53	O	-0.341706	-0.765371	-0.340619
O54	O	-0.091706	-0.515371	-0.090619
O55	O	0.158294	-0.265371	0.159381
O56	O	0.408294	-0.015371	0.409381
O57	O	-0.264333	-0.943984	-0.442308
O58	O	-0.014333	-0.693984	-0.192308
O59	O	0.235667	-0.443984	0.057692
O60	O	0.485667	-0.193984	0.307692
O61	O	-0.443718	-0.943819	-0.263721
O62	O	-0.193718	-0.693819	-0.013721
O63	O	0.056282	-0.443819	0.236279
O64	O	0.306282	-0.193819	0.486279
O65	O	-0.443731	-0.866883	-0.340641
O66	O	-0.193731	-0.616883	-0.090641
O67	O	0.056269	-0.366883	0.159359
O68	O	0.306269	-0.116883	0.409359
C69	C	-0.303054	-0.742648	-0.302138
C70	C	-0.053054	-0.492648	-0.052138
C71	C	0.196946	-0.242648	0.197862
C72	C	0.446946	0.007352	0.447862
C73	C	-0.303086	-0.673007	-0.302117
C74	C	-0.053086	-0.423007	-0.052117
C75	C	0.196914	-0.173007	0.197883
C76	C	0.446914	0.076993	0.447883
C77	C	-0.343399	-0.640299	-0.342116
C78	C	-0.093399	-0.390299	-0.092116
C79	C	0.156601	-0.140299	0.157884
C80	C	0.406601	0.109701	0.407884
C81	C	-0.343387	-0.574863	-0.342140
C82	C	-0.093387	-0.324863	-0.092140
C83	C	0.156613	-0.074863	0.157860
C84	C	0.406613	0.175137	0.407860
C85	C	-0.303067	-0.542139	-0.302152
C86	C	-0.053067	-0.292139	-0.052152
C87	C	0.196933	-0.042139	0.197848
C88	C	0.446933	0.207861	0.447848
C89	C	-0.262747	-0.574855	-0.262150
C90	C	-0.012747	-0.324855	-0.012150
C91	C	0.237253	-0.074855	0.237850
C92	C	0.487253	0.175145	0.487850
C93	C	-0.262756	-0.640289	-0.262133
C94	C	-0.012756	-0.390289	-0.012133
C95	C	0.237244	-0.140289	0.237867
C96	C	0.487244	0.109711	0.487867
C97	C	-0.298001	-0.438414	-0.245740
C98	C	-0.048001	-0.188414	0.004260
C99	C	0.201999	0.061586	0.254260
C100	C	0.451999	0.311586	0.504260
C101	C	-0.297996	-0.372981	-0.245757
C102	C	-0.047996	-0.122981	0.004243
C103	C	0.202004	0.127019	0.254243
C104	C	0.452004	0.377019	0.504243
C105	C	-0.303035	-0.340318	-0.302207
C106	C	-0.053035	-0.090318	-0.052207
C107	C	0.196965	0.159682	0.197793
C108	C	0.446965	0.409682	0.447793
C109	C	-0.308092	-0.373096	-0.358643
C110	C	-0.058092	-0.123096	-0.108643
C111	C	0.191908	0.126904	0.141357
C112	C	0.441908	0.376904	0.391357
C113	C	-0.308102	-0.438530	-0.358625
C114	C	-0.058102	-0.188530	-0.108625
C115	C	0.191898	0.061470	0.141375
C116	C	0.441898	0.311470	0.391375
C117	C	-0.303052	-0.471186	-0.302167
C118	C	-0.053052	-0.221186	-0.052167
C119	C	0.196948	0.028814	0.197833
C120	C	0.446948	0.278814	0.447833
C121	C	-0.343336	-0.236657	-0.342235
C122	C	-0.093336	0.013343	-0.092235
C123	C	0.156664	0.263343	0.157765
C124	C	0.406664	0.513343	0.407765
C125	C	-0.343319	-0.171221	-0.342259
C126	C	-0.093319	0.078779	-0.092259
C127	C	0.156681	0.328779	0.157741
C128	C	0.406681	0.578779	0.407741
C129	C	-0.262682	-0.171214	-0.262265
C130	C	-0.012682	0.078786	-0.012265
C131	C	0.237318	0.328786	0.237735
C132	C	0.487318	0.578786	0.487735
C133	C	-0.262696	-0.236649	-0.262246
C134	C	-0.012696	0.013351	-0.012246
C135	C	0.237304	0.263351	0.237754
C136	C	0.487304	0.513351	0.487754
C137	C	-0.303026	-0.269367	-0.302230
C138	C	-0.053026	-0.019367	-0.052230
C139	C	0.196974	0.230633	0.197770
C140	C	0.446974	0.480633	0.447770
C141	C	-0.466565	-0.905354	-0.302188
C142	C	-0.216565	-0.655354	-0.052188
C143	C	0.033435	-0.405354	0.197812
C144	C	0.283435	-0.155354	0.447812
C145	C	-0.536534	-0.905376	-0.302194
C146	C	-0.286534	-0.655376	-0.052194
C147	C	-0.036534	-0.405376	0.197806
C148	C	0.213466	-0.155376	0.447806
C149	C	-0.569373	-0.945472	-0.262183
C150	C	-0.319373	-0.695472	-0.012183
C151	C	-0.069373	-0.445472	0.237817
C152	C	0.180627	-0.195472	0.487817
C153	C	-0.635115	-0.945502	-0.262197
C154	C	-0.385115	-0.695502	-0.012197
C155	C	-0.135115	-0.445502	0.237803
C156	C	0.114885	-0.195502	0.487803
C157	C	-0.668016	-0.905424	-0.302216
C158	C	-0.418016	-0.655424	-0.052216
C159	C	-0.168016	-0.405424	0.197784
C160	C	0.081984	-0.155424	0.447784
C161	C	-0.635169	-0.865325	-0.342235
C162	C	-0.385169	-0.615325	-0.092235
C163	C	-0.135169	-0.365325	0.157765
C164	C	0.114831	-0.115325	0.407765
C165	C	-0.569428	-0.865301	-0.342224
C166	C	-0.319428	-0.615301	-0.092224
C167	C	-0.069428	-0.365301	0.157776
C168	C	0.180572	-0.115301	0.407776
N169	N	-0.771300	-0.850614	-0.306964
N170	N	-0.521300	-0.600614	-0.056964
N171	N	-0.271300	-0.350614	0.193036
N172	N	-0.021300	-0.100614	0.443036
N173	N	-0.833752	-0.850638	-0.306970
N174	N	-0.583752	-0.600638	-0.056970
N175	N	-0.333752	-0.350638	0.193030
N176	N	-0.083752	-0.100638	0.443030
C177	C	-0.866091	-0.905494	-0.302252
C178	C	-0.616091	-0.655494	-0.052252
C179	C	-0.366091	-0.405494	0.197748
C180	C	-0.116091	-0.155494	0.447748
N181	N	-0.833619	-0.960325	-0.297514
N182	N	-0.583619	-0.710325	-0.047514
N183	N	-0.333619	-0.460325	0.202486
N184	N	-0.083619	-0.210325	0.452486
N185	N	-0.771162	-0.960300	-0.297504
N186	N	-0.521162	-0.710300	-0.047504
N187	N	-0.271162	-0.460300	0.202496
N188	N	-0.021162	-0.210300	0.452496
C189	C	-0.739301	-0.905445	-0.302232
C190	C	-0.489301	-0.655445	-0.052232
C191	C	-0.239301	-0.405445	0.197768
C192	C	0.010699	-0.155445	0.447768
C193	C	-0.970215	-0.945625	-0.262253
C194	C	-0.720215	-0.695625	-0.012253
C195	C	-0.470215	-0.445625	0.237747
C196	C	-0.220215	-0.195625	0.487747
C197	C	-1.035959	-0.945656	-0.262272
C198	C	-0.785959	-0.695656	-0.012272
C199	C	-0.535959	-0.445656	0.237728
C200	C	-0.285959	-0.195656	0.487728
C201	C	-1.036012	-0.865473	-0.342307
C202	C	-0.786012	-0.615473	-0.092307
C203	C	-0.536012	-0.365473	0.157693
C204	C	-0.286012	-0.115473	0.407693
C205	C	-0.970269	-0.865448	-0.342292
C206	C	-0.720269	-0.615448	-0.092292
C207	C	-0.470269	-0.365448	0.157708
C208	C	-0.220269	-0.115448	0.407708
C209	C	-0.937375	-0.905523	-0.302262
C210	C	-0.687375	-0.655523	-0.052262
C211	C	-0.437375	-0.405523	0.197738
C212	C	-0.187375	-0.155523	0.447738
C213	C	-0.138823	-0.905536	-0.302271
C214	C	0.111177	-0.655536	-0.052271
C215	C	0.361177	-0.405536	0.197729
C216	C	0.611177	-0.155536	0.447729
C217	C	-0.068855	-0.905578	-0.302292
C218	C	0.181145	-0.655578	-0.052292
C219	C	0.431145	-0.405578	0.197708
C220	C	0.681145	-0.155578	0.447708
C221	C	-0.303001	-0.905488	-0.465646
C222	C	-0.053001	-0.655488	-0.215646
C223	C	0.196999	-0.405488	0.034354
C224	C	0.446999	-0.155488	0.284354
C225	C	-0.302996	-0.905510	-0.535287
C226	C	-0.052996	-0.655510	-0.285287
C227	C	0.197004	-0.405510	-0.035287
C228	C	0.447004	-0.155510	0.214713
C229	C	-0.302984	-0.068859	-0.302290
C230	C	-0.052984	0.181141	-0.052290
C231	C	0.197016	0.431141	0.197710
C232	C	0.447016	0.681141	0.447710
C233	C	-0.302999	-0.138501	-0.302272
C234	C	-0.052999	0.111499	-0.052272
C235	C	0.197001	0.361499	0.197728
C236	C	0.447001	0.611499	0.447728
C237	C	-0.262723	-0.945606	-0.568034
C238	C	-0.012723	-0.695606	-0.318034
C239	C	0.237277	-0.445606	-0.068034
C240	C	0.487277	-0.195606	0.181966
C241	C	-0.262696	-0.945605	-0.633470
C242	C	-0.012696	-0.695605	-0.383470
C243	C	0.237304	-0.445605	-0.133470
C244	C	0.487304	-0.195605	0.116530
C245	C	-0.302953	-0.905515	-0.666156
C246	C	-0.052953	-0.655515	-0.416156
C247	C	0.197047	-0.405515	-0.166156
C248	C	0.447047	-0.155515	0.083844
C249	C	-0.343228	-0.865411	-0.633401
C250	C	-0.093228	-0.615411	-0.383401
C251	C	0.156772	-0.365411	-0.133401
C252	C	0.406772	-0.115411	0.116599
C253	C	-0.343250	-0.865409	-0.567967
C254	C	-0.093250	-0.615409	-0.317967
C255	C	0.156750	-0.365409	-0.067967
C256	C	0.406750	-0.115409	0.182033
C257	C	-0.359634	-0.900539	-0.769816
C258	C	-0.109634	-0.650539	-0.519816
C259	C	0.140366	-0.400539	-0.269816
C260	C	0.390366	-0.150539	-0.019816
C261	C	-0.359614	-0.900546	-0.835249
C262	C	-0.109614	-0.650546	-0.585249
C263	C	0.140386	-0.400546	-0.335249
C264	C	0.390386	-0.150546	-0.085249
C265	C	-0.302886	-0.905519	-0.867977
C266	C	-0.052886	-0.655519	-0.617977
C267	C	0.197114	-0.405519	-0.367977
C268	C	0.447114	-0.155519	-0.117977
C269	C	-0.246177	-0.910498	-0.835263
C270	C	0.003823	-0.660498	-0.585263
C271	C	0.253823	-0.410498	-0.335263
C272	C	0.503823	-0.160498	-0.085263
C273	C	-0.246198	-0.910496	-0.769829
C274	C	0.003802	-0.660496	-0.519829
C275	C	0.253802	-0.410496	-0.269829
C276	C	0.503802	-0.160496	-0.019829
C277	C	-0.302934	-0.905513	-0.737108
C278	C	-0.052934	-0.655513	-0.487108
C279	C	0.197066	-0.405513	-0.237108
C280	C	0.447066	-0.155513	0.012892
C281	C	-0.262580	-0.945616	-0.971676
C282	C	-0.012580	-0.695616	-0.721676
C283	C	0.237420	-0.445616	-0.471676
C284	C	0.487420	-0.195616	-0.221676
C285	C	-0.262552	-0.945611	-1.037113
C286	C	-0.012552	-0.695611	-0.787113
C287	C	0.237448	-0.445611	-0.537113
C288	C	0.487448	-0.195611	-0.287113
C289	C	-0.343091	-0.865420	-1.037043
C290	C	-0.093091	-0.615420	-0.787043
C291	C	0.156909	-0.365420	-0.537043
C292	C	0.406909	-0.115420	-0.287043
C293	C	-0.343113	-0.865422	-0.971607
C294	C	-0.093113	-0.615422	-0.721607
C295	C	0.156887	-0.365422	-0.471607
C296	C	0.406887	-0.115422	-0.221607
C297	C	-0.302859	-0.905523	-0.938928
C298	C	-0.052859	-0.655523	-0.688928
C299	C	0.197141	-0.405523	-0.438928
C300	C	0.447141	-0.155523	-0.188928
C301	C	-0.302981	-0.905420	-0.139435
C302	C	-0.052981	-0.655420	0.110565
C303	C	0.197019	-0.405420	0.360565
C304	C	0.447019	-0.155420	0.610565
C305	C	-0.302809	-0.905520	-0.069794
C306	C	-0.052809	-0.655520	0.180206
C307	C	0.197191	-0.405520	0.430206
C308	C	0.447191	-0.155520	0.680206
H309	H	-0.312218	-0.465215	-0.404577
H310	H	-0.062218	-0.215215	-0.154577
H311	H	0.187782	0.034785	0.095423
H312	H	0.437782	0.284785	0.345423
F313	F	-0.670185	-0.822673	-0.384828
F314	F	-0.420185	-0.572673	-0.134828
F315	F	-0.170185	-0.322673	0.115172
F316	F	0.079815	-0.072673	0.365172
F317	F	-0.292613	-0.338102	-0.185694
F318	F	-0.042613	-0.088102	0.064306
F319	F	0.207387	0.161898	0.314306
F320	F	0.457387	0.411898	0.564306
F321	F	-0.385980	-0.822748	-0.936754
F322	F	-0.135980	-0.572748	-0.686754
F323	F	0.114020	-0.322748	-0.436754
F324	F	0.364020	-0.072748	-0.186754
H325	H	-0.375863	-0.832771	-1.063655
H326	H	-0.125863	-0.582771	-0.813655
H327	H	0.124137	-0.332771	-0.563655
H328	H	0.374137	-0.082771	-0.313655
F329	F	-0.670072	-0.988179	-0.219609
F330	F	-0.420072	-0.738179	0.030391
F331	F	-0.170072	-0.488179	0.280391
F332	F	0.079928	-0.238179	0.530391
H333	H	-0.229800	-0.978266	-0.945067
H334	H	0.020200	-0.728266	-0.695067
H335	H	0.270200	-0.478266	-0.445067
H336	H	0.520200	-0.228266	-0.195067
H337	H	-0.943432	-0.978259	-0.229660
H338	H	-0.693432	-0.728259	0.020340
H339	H	-0.443432	-0.478259	0.270340
H340	H	-0.193432	-0.228259	0.520340
H341	H	-0.542592	-0.978105	-0.229589
H342	H	-0.292592	-0.728105	0.020411
H343	H	-0.042592	-0.478105	0.270411
H344	H	0.207408	-0.228105	0.520411
H345	H	-0.943530	-0.832795	-0.374870
H346	H	-0.693530	-0.582795	-0.124870
H347	H	-0.443530	-0.332795	0.125130
H348	H	-0.193530	-0.082795	0.375130
F349	F	-0.534477	-0.822623	-0.384812
F350	F	-0.284477	-0.572623	-0.134812
F351	F	-0.034477	-0.322623	0.115188
F352	F	0.215523	-0.072623	0.365188
F353	F	-1.070909	-0.988338	-0.219688
F354	F	-0.820909	-0.738338	0.030312
F355	F	-0.570909	-0.488338	0.280312
F356	F	-0.320909	-0.238338	0.530312
H357	H	-0.229926	-0.666920	-0.229561
H358	H	0.020074	-0.416920	0.020439
H359	H	0.270074	-0.166920	0.270439
H360	H	0.520074	0.083080	0.520439
F361	F	-0.386321	-0.675116	-0.384673
F362	F	-0.136321	-0.425116	-0.134673
F363	F	0.113679	-0.175116	0.115327
F364	F	0.363679	0.074884	0.365327
F365	F	-0.313453	-0.338339	-0.418727
F366	F	-0.063453	-0.088339	-0.168727
F367	F	0.186547	0.161661	0.081273
F368	F	0.436547	0.411661	0.331273
H369	H	-1.062799	-0.832843	-0.374894
H370	H	-0.812799	-0.582843	-0.124894
H371	H	-0.562799	-0.332843	0.125106
H372	H	-0.312799	-0.082843	0.375106
F373	F	-0.219878	-0.988283	-0.533258
F374	F	0.030122	-0.738283	-0.283258
F375	F	0.280122	-0.488283	-0.033258
F376	F	0.530122	-0.238283	0.216742
F377	F	-0.386116	-0.822731	-0.533114
F378	F	-0.136116	-0.572731	-0.283114
F379	F	0.113884	-0.322731	-0.033114
F380	F	0.363884	-0.072731	0.216886
F381	F	-0.219693	-0.988296	-1.071964
F382	F	0.030307	-0.738296	-0.821964
F383	F	0.280307	-0.488296	-0.571964
F384	F	0.530307	-0.238296	-0.321964
H385	H	-0.229851	-0.144570	-0.229709
H386	H	0.020149	0.105430	0.020291
H387	H	0.270149	0.355430	0.270291
H388	H	0.520149	0.605430	0.520291
F389	F	-0.219820	-0.988273	-0.668328
F390	F	0.030180	-0.738273	-0.418328
F391	F	0.280180	-0.488273	-0.168328
F392	F	0.530180	-0.238273	0.081672
H393	H	-0.200024	-0.914548	-0.743196
H394	H	0.049976	-0.664548	-0.493196
H395	H	0.299976	-0.414548	-0.243196
H396	H	0.549976	-0.164548	0.006804
F397	F	-0.386256	-0.271480	-0.384792
F398	F	-0.136256	-0.021480	-0.134792
F399	F	0.113744	0.228520	0.115208
F400	F	0.363744	0.478520	0.365208
F401	F	-0.419968	-0.895252	-0.870060
F402	F	-0.169968	-0.645252	-0.620060
F403	F	0.080032	-0.395252	-0.370060
F404	F	0.330032	-0.145252	-0.120060
F405	F	-0.185798	-0.915793	-0.870088
F406	F	0.064202	-0.665793	-0.620088
F407	F	0.314202	-0.415793	-0.370088
F408	F	0.564202	-0.165793	-0.120088
H409	H	-0.405817	-0.896322	-0.743175
H410	H	-0.155817	-0.646322	-0.493175
H411	H	0.094183	-0.396322	-0.243175
H412	H	0.344183	-0.146322	0.006825
F413	F	-0.219791	-0.271461	-0.219671
F414	F	0.030209	-0.021461	0.030329
F415	F	0.280209	0.228539	0.280329
F416	F	0.530209	0.478539	0.530329
H417	H	-0.376214	-0.548227	-0.374714
H418	H	-0.126214	-0.298227	-0.124714
H419	H	0.123786	-0.048227	0.125286
H420	H	0.373786	0.201773	0.375286
F421	F	-0.386225	-0.136410	-0.384838
F422	F	-0.136225	0.113590	-0.134838
F423	F	0.113775	0.363590	0.115162
F424	F	0.363775	0.613590	0.365162
F425	F	-0.386071	-0.822742	-0.668189
F426	F	-0.136071	-0.572742	-0.418189
F427	F	0.113929	-0.322742	-0.168189
F428	F	0.363929	-0.072742	0.081811
H429	H	-0.293894	-0.465003	-0.199768
H430	H	-0.043894	-0.215003	0.050232
H431	H	0.206106	0.034997	0.300232
H432	H	0.456106	0.284997	0.550232
H433	H	-0.229917	-0.548207	-0.229594
H434	H	0.020083	-0.298207	0.020406
H435	H	0.270083	-0.048207	0.270406
H436	H	0.520083	0.201793	0.520406
