data_functionalizedCrystal
_audit_creation_method	'MofGen! by Chris Wilmer'
_symmetry_space_group_name_H-M	'P1'
_symmetry_Int_Tables_number	1
_symmetry_cell_setting	triclinic
loop_
_symmetry_equiv_pos_as_xyz
  x,y,z
_cell_length_a	19.377372
_cell_length_b	23.196402
_cell_length_c	23.196401
_cell_angle_alpha	59.999265
_cell_angle_beta	90.006886
_cell_angle_gamma	72.113939
loop_
_atom_site_label
_atom_site_type_symbol
_atom_site_fract_x
_atom_site_fract_y
_atom_site_fract_z
Zr1	Zr	0.580554	0.802654	-0.161453
O2	O	0.484314	0.894481	-0.239281
O3	O	0.610054	0.691106	-0.137599
O4	O	0.610034	0.811386	-0.257870
O5	O	0.484353	0.774190	-0.024133
O6	O	0.709207	0.840707	-0.272530
O7	O	0.484334	0.774201	-0.119009
O8	O	0.709243	0.625548	-0.057386
O9	O	0.484317	0.989350	-0.239277
O10	O	0.696650	0.766173	-0.138361
O11	O	0.622652	0.744283	-0.056616
O12	O	0.622629	0.885897	-0.198220
O13	O	0.548631	0.864007	-0.116475
Zr14	Zr	0.738752	0.849400	-0.033518
Zr15	Zr	0.738723	0.849417	-0.184835
Zr16	Zr	0.580583	0.802637	-0.010137
Zr17	Zr	0.580558	0.953958	-0.161448
Zr18	Zr	0.738748	0.698096	-0.033524
O19	O	0.709252	0.960948	-0.057373
O20	O	0.709211	0.960973	-0.272526
O21	O	0.484356	0.894457	-0.024128
O22	O	0.834992	0.757573	0.044309
O23	O	0.834950	0.757597	-0.170844
O24	O	0.610096	0.691081	0.077554
O25	O	0.834954	0.877863	-0.170839
O26	O	0.709272	0.840668	0.062898
O27	O	0.610099	0.811347	0.077559
O28	O	0.834972	0.877853	-0.075963
O29	O	0.610040	1.026520	-0.257862
O30	O	0.709266	0.625534	0.062890
O31	O	0.834989	0.662704	0.044305
O32	O	0.834966	0.662718	-0.075971
O33	O	0.484340	0.989336	-0.119001
O34	O	0.610064	1.026506	-0.137586
O35	O	0.696677	0.766157	0.003248
O36	O	0.770675	0.788047	-0.078497
O37	O	0.696654	0.907771	-0.138356
O38	O	0.622656	0.885881	-0.056610
C39	C	0.659648	0.636769	-0.097493
C40	C	0.659646	0.572537	-0.097496
C41	C	0.698267	0.553791	-0.140168
C42	C	0.698274	0.493432	-0.140163
C43	C	0.659646	0.451828	-0.097494
C44	C	0.621023	0.470578	-0.054813
C45	C	0.621023	0.530932	-0.054814
C46	C	0.594933	0.370668	-0.093203
C47	C	0.594931	0.310317	-0.093206
C48	C	0.659647	0.265674	-0.097487
C49	C	0.724364	0.281395	-0.101778
C50	C	0.724364	0.341749	-0.101779
C51	C	0.659642	0.386383	-0.097488
C52	C	0.698279	0.181481	-0.140156
C53	C	0.698288	0.121118	-0.140147
C54	C	0.621030	0.098268	-0.054800
C55	C	0.621028	0.158626	-0.054806
C56	C	0.659651	0.200231	-0.097488
C57	C	0.461808	0.767533	-0.068239
C58	C	0.394661	0.747681	-0.058313
C59	C	-0.019364	0.994856	-0.181897
C60	C	-0.082448	0.976185	-0.172562
C61	C	-0.005167	0.851203	-0.110074
C62	C	0.057926	0.869863	-0.119401
C63	C	0.050821	0.941691	-0.155315
C64	C	0.128111	0.816697	-0.092819
C65	C	0.191197	0.835356	-0.102149
C66	C	0.184099	0.907181	-0.138062
C67	C	0.113907	0.960350	-0.164645
C68	C	0.135214	0.744870	-0.056910
C69	C	0.205399	0.691704	-0.030327
C70	C	0.268487	0.710363	-0.039653
C71	C	0.261389	0.782187	-0.075566
C72	C	0.338679	0.657194	-0.013070
C73	C	0.401766	0.675853	-0.022400
C74	C	0.324476	0.800846	-0.084896
C75	C	0.857499	0.884521	-0.126732
C76	C	0.924646	0.904373	-0.136658
C77	C	0.659617	0.826049	-0.286760
C78	C	0.659604	0.826056	-0.350997
C79	C	0.659659	1.015285	-0.097479
C80	C	0.659660	1.079517	-0.097476
C81	C	0.714241	0.842211	-0.389237
C82	C	0.714257	0.842200	-0.449586
C83	C	0.659625	0.826046	-0.471700
C84	C	0.604984	0.809885	-0.433450
C85	C	0.604973	0.809890	-0.373098
C86	C	0.592952	0.853828	-0.581223
C87	C	0.592962	0.853828	-0.641576
C88	C	0.659658	0.826027	-0.657841
C89	C	0.726348	0.798237	-0.613752
C90	C	0.726338	0.798242	-0.553401
C91	C	0.659631	0.826038	-0.537139
C92	C	0.714317	0.842169	-0.761518
C93	C	0.714334	0.842153	-0.821866
C94	C	0.605054	0.809845	-0.805731
C95	C	0.605043	0.809855	-0.745381
C96	C	0.659674	0.826021	-0.723280
C97	C	0.659690	0.826005	0.091788
C98	C	0.659702	0.825998	0.156026
C99	C	0.857493	0.695263	-0.126740
C100	C	0.924638	0.650883	-0.136668
C101	C	0.659684	0.636747	0.091781
C102	C	0.659695	0.572508	0.156016
C103	C	0.857530	0.695241	0.062534
C104	C	0.924687	0.650854	0.116843
C105	C	0.461776	0.956813	-0.257506
C106	C	0.394619	1.001200	-0.311815
C107	C	0.461813	0.956791	-0.068232
C108	C	0.394668	1.001171	-0.058304
C109	C	0.659622	1.015307	-0.286752
C110	C	0.659611	1.079546	-0.350988
C111	C	0.917530	0.618624	-0.172585
C112	C	0.980614	0.576930	-0.181928
C113	C	1.050805	0.567493	-0.155348
C114	C	1.057912	0.599758	-0.119429
C115	C	0.994829	0.641454	-0.110092
C116	C	0.698340	0.553758	0.217436
C117	C	0.698347	0.493405	0.277798
C118	C	0.659713	0.451801	0.276738
C119	C	0.621063	0.470555	0.215311
C120	C	0.621052	0.530910	0.154951
C121	C	0.994858	0.641437	0.099676
C122	C	1.057966	0.599741	0.150699
C123	C	1.050901	0.567457	0.218888
C124	C	0.980723	0.576877	0.236055
C125	C	0.917617	0.618577	0.185033
C126	C	0.324448	1.010624	-0.294648
C127	C	0.261341	1.052339	-0.345671
C128	C	0.268405	1.084626	-0.413860
C129	C	0.338583	1.075202	-0.431027
C130	C	0.401689	1.033491	-0.380005
C131	C	0.401776	1.033437	-0.022393
C132	C	0.338692	1.075147	-0.013067
C133	C	0.268501	1.084586	-0.039649
C134	C	0.261394	1.052318	-0.075565
C135	C	0.324477	1.010613	-0.084894
C136	C	0.698253	1.121134	-0.349906
C137	C	0.698258	1.181490	-0.410258
C138	C	0.659616	1.200261	-0.471691
C139	C	0.620973	1.158667	-0.472771
C140	C	0.620973	1.098309	-0.412420
H141	H	0.729731	0.215355	-0.174908
N142	N	0.972943	0.542125	-0.220659
H143	H	0.997378	0.559864	-0.261475
H144	H	0.918891	0.554435	-0.236025
H145	H	0.344493	1.101413	0.016180
H146	H	0.458914	0.632560	-0.000742
H147	H	0.729801	0.587627	0.218313
H148	H	0.729823	0.478145	0.327808
N149	N	0.200464	1.129569	-0.029584
H150	H	0.215625	1.148572	-0.002798
H151	H	0.170128	1.099548	-0.004080
N152	N	0.579402	0.425675	0.214169
H153	H	0.540531	0.424677	0.243314
H154	H	0.614900	0.375593	0.232314
H155	H	0.217014	1.118587	-0.455399
N156	N	0.346197	1.110027	-0.504575
H157	H	0.295568	1.137875	-0.534286
H158	H	0.374085	1.072185	-0.514297
H159	H	1.000627	0.667715	-0.080841
H160	H	0.589503	1.064452	-0.413310
H161	H	0.318679	0.984341	-0.114134
N162	N	0.185686	1.062489	-0.104220
H163	H	0.146807	1.093798	-0.092850
H164	H	0.179851	1.014662	-0.083938
N165	N	0.316809	0.975813	-0.221107
H166	H	0.341273	0.993540	-0.198031
H167	H	0.341248	0.922463	-0.198086
N168	N	0.477373	1.023326	-0.398526
H169	H	0.472265	1.050109	-0.449466
H170	H	0.505231	0.970977	-0.379222
N171	N	1.118842	0.522521	-0.165423
H172	H	1.103681	0.503518	-0.192209
H173	H	1.149191	0.481443	-0.119835
N174	N	0.773185	0.859626	-0.490846
H175	H	0.823350	0.824194	-0.462619
H176	H	0.770723	0.909206	-0.505124
N177	N	1.133621	0.589577	-0.090763
H178	H	1.172499	0.558264	-0.102130
H179	H	1.139480	0.566296	-0.039940
N180	N	-0.027019	1.072328	-0.220621
H181	H	-0.081054	1.103180	-0.236043
H182	H	-0.002535	1.082799	-0.261401
H183	H	0.729742	0.105854	-0.174893
N184	N	0.659729	0.386704	0.341843
H185	H	0.690078	0.381143	0.380911
H186	H	0.681701	0.343160	0.338563
N187	N	0.659629	1.265361	-0.536777
H188	H	0.637650	1.308937	-0.533545
H189	H	0.629302	1.270885	-0.575832
N190	N	0.841828	0.628795	-0.201256
H191	H	0.846909	0.602031	-0.225428
H192	H	0.813963	0.681147	-0.234289
H193	H	0.589511	1.173959	-0.522798
N194	N	0.798262	0.768271	-0.505849
H195	H	0.797476	0.727418	-0.460378
H196	H	0.804934	0.806703	-0.500059
H197	H	0.589585	0.546167	0.104942
N198	N	0.002482	0.773737	-0.071340
H199	H	0.030360	0.749659	-0.023756
H200	H	0.030329	0.749720	-0.094898
H201	H	1.000624	0.667718	0.044156
N202	N	0.579372	0.053399	-0.008771
H203	H	0.585234	0.012318	-0.015243
H204	H	0.525341	0.083518	-0.020189
H205	H	1.115102	0.592076	0.136709
N206	N	1.118969	0.522482	0.273916
H207	H	1.164491	0.521417	0.252688
H208	H	1.118943	0.472428	0.302944
N209	N	0.973109	0.542055	0.309603
H210	H	1.023738	0.514208	0.339314
H211	H	0.945218	0.508804	0.319321
H212	H	0.458924	1.025755	-0.000740
N213	N	0.739923	0.598664	-0.186200
H214	H	0.764391	0.577626	-0.213232
H215	H	0.778771	0.599642	-0.158009
H216	H	0.729725	0.478167	-0.174913
N217	N	0.739933	1.100898	-0.283651
H218	H	0.764413	1.136406	-0.292134
H219	H	0.778774	1.051792	-0.262743
N220	N	0.185653	1.062488	-0.327152
H221	H	0.157746	1.114822	-0.346406
H222	H	0.190818	1.035657	-0.276208
H223	H	0.860483	0.626236	0.199021
H224	H	0.729724	1.215351	-0.409365
N225	N	0.346334	0.579727	0.025664
H226	H	0.400370	0.548877	0.041090
H227	H	0.321838	0.569267	-0.004653
H228	H	0.777064	0.245042	-0.105255
N229	N	0.794159	0.358708	-0.106405
H230	H	0.835159	0.321273	-0.109118
H231	H	0.808559	0.359311	-0.064917
H232	H	0.758726	0.855372	-0.371244
H233	H	0.589575	0.173890	-0.020060
H234	H	0.542226	0.407022	-0.089730
N235	N	0.525143	0.293342	-0.088543
H236	H	0.484152	0.330767	-0.085809
H237	H	0.533947	0.245118	-0.046670
H238	H	0.589572	0.436699	-0.020071
H239	H	-0.139597	1.019485	-0.194213
H240	H	0.780659	0.775598	-0.626992
H241	H	0.589571	0.546193	-0.020065
H242	H	0.318689	0.859336	-0.114120
H243	H	0.235471	0.922371	-0.145659
H244	H	0.108120	1.018839	-0.193868
H245	H	0.538635	0.876459	-0.567983
H246	H	0.083842	0.729680	-0.049319
N247	N	0.546063	0.792458	-0.457298
H248	H	0.517353	0.834236	-0.503233
H249	H	0.511498	0.782207	-0.423868
H250	H	0.560575	0.796688	-0.823733
N251	N	0.213059	0.614236	0.008397
H252	H	0.162444	0.610481	0.010272
H253	H	0.240967	0.590199	0.055959
H254	H	0.758803	0.855330	-0.743521
H255	H	0.560550	0.796704	-0.714246
N256	N	0.773256	0.859595	-0.863122
H257	H	0.807854	0.869845	-0.839965
H258	H	0.749342	0.902799	-0.909766
H259	H	0.538659	0.876460	-0.677471
H260	H	0.560480	0.796734	-0.341962
