data_functionalizedCrystal
_audit_creation_method	'MofGen! by Chris Wilmer'
_symmetry_space_group_name_H-M	'P1'
_symmetry_Int_Tables_number	1
_symmetry_cell_setting	triclinic
loop_
_symmetry_equiv_pos_as_xyz
  x,y,z
_cell_length_a	17.077402
_cell_length_b	16.120530
_cell_length_c	17.077396
_cell_angle_alpha	92.916610
_cell_angle_beta	90.029784
_cell_angle_gamma	87.118337
loop_
_atom_site_label
_atom_site_type_symbol
_atom_site_fract_x
_atom_site_fract_y
_atom_site_fract_z
Zn1	Zn	-0.373441	1.274550	0.504614
Zn2	Zn	-0.504712	1.274451	0.373340
Zn3	Zn	-0.366803	1.135133	0.366714
Zn4	Zn	-0.498002	1.135099	0.497919
O5	O	-0.435740	1.204808	0.435647
O6	O	-0.396441	1.391202	0.492775
O7	O	-0.486447	1.255943	0.262613
O8	O	-0.257840	1.153682	0.385035
O9	O	-0.492884	1.391130	0.396329
O10	O	-0.262717	1.256111	0.486350
O11	O	-0.385127	1.153587	0.257744
O12	O	-0.378621	1.018463	0.378543
O13	O	-0.481449	1.153624	0.608655
O14	O	-0.475013	1.018438	0.474939
O15	O	-0.389935	1.256078	0.613574
O16	O	-0.613666	1.255910	0.389837
O17	O	-0.608737	1.153529	0.481364
C18	C	-0.639684	1.204728	0.435611
C19	C	-0.726935	1.204769	0.435626
C20	C	-0.425369	0.988200	0.425296
C21	C	-0.420951	0.895534	0.420886
C22	C	-0.770469	1.258134	0.388025
C23	C	-0.852451	1.258175	0.388047
C24	C	-0.890898	1.204846	0.435667
C25	C	-0.847359	1.151479	0.483274
C26	C	-0.765379	1.151443	0.483255
C27	C	-1.018233	1.151557	0.483307
C28	C	-1.100219	1.151591	0.483325
C29	C	-1.105305	1.258288	0.388098
C30	C	-1.023325	1.258252	0.388080
C31	C	-0.979791	1.204884	0.435686
C32	C	-0.412868	0.725872	0.412842
C33	C	-0.458669	0.684584	0.458508
C34	C	-0.454172	0.590179	0.454033
C35	C	-0.417364	0.820286	0.417317
C36	C	-0.231000	1.204912	0.435700
C37	C	-0.143753	1.204956	0.435723
C38	C	-0.435684	1.204859	0.640393
C39	C	-0.435661	1.204880	0.727644
C40	C	-0.446151	1.422262	0.446038
C41	C	-0.450588	1.514928	0.450467
C42	C	-0.435740	1.204806	0.231699
C43	C	-0.435551	1.204946	0.144456
C44	C	-0.388005	1.258230	0.771197
C45	C	-0.387979	1.258240	0.853178
C46	C	-0.435614	1.204904	0.891605
C47	C	-0.483272	1.151548	0.848046
C48	C	-0.483292	1.151534	0.766066
C49	C	-0.483226	1.151582	1.018918
C50	C	-0.483206	1.151596	1.100903
C51	C	-0.387913	1.258287	1.106030
C52	C	-0.387934	1.258273	1.024050
C53	C	-0.435593	1.204919	0.980497
H54	H	-0.739170	1.301556	0.349243
Br55	Br	-0.547915	1.079157	0.900195
H56	H	-0.501259	0.720138	0.500966
H57	H	-0.887893	1.301629	0.349284
Br58	Br	-0.971146	1.330625	0.323450
H59	H	-0.370281	0.690321	0.370388
Br60	Br	-0.323361	1.330625	0.719055
H61	H	-0.349175	1.301684	0.888636
Br62	Br	-1.164385	1.330705	0.323479
Br63	Br	-1.152397	1.079204	0.547940
Br64	Br	-0.547846	1.079203	1.153054
H65	H	-0.522090	1.108083	0.730606
H66	H	-0.982791	1.108101	0.522076
Br67	Br	-0.899537	1.079111	0.547909
H68	H	-0.349106	1.301729	1.141494
Br69	Br	-0.706297	1.079023	0.547866
H70	H	-0.349150	1.301709	0.992765
H71	H	-0.522022	1.108122	0.983458
