data_functionalizedCrystal
_audit_creation_method	'MofGen! by Chris Wilmer'
_symmetry_space_group_name_H-M	'P1'
_symmetry_Int_Tables_number	1
_symmetry_cell_setting	triclinic
loop_
_symmetry_equiv_pos_as_xyz
  x,y,z
_cell_length_a	13.185408
_cell_length_b	9.065218
_cell_length_c	8.140239
_cell_angle_alpha	89.998449
_cell_angle_beta	90.003687
_cell_angle_gamma	111.505308
loop_
_atom_site_label
_atom_site_type_symbol
_atom_site_fract_x
_atom_site_fract_y
_atom_site_fract_z
O1	O	0.159273	-1.894267	0.136619
O2	O	0.172337	-1.459558	0.136622
O3	O	0.007792	-1.751391	0.136608
O4	O	0.323818	-1.602434	0.136633
O5	O	0.007791	-1.751384	-0.136619
O6	O	0.172336	-1.459551	-0.136605
O7	O	0.159272	-1.894260	-0.136608
Zn8	Zn	0.165804	-1.676905	-0.179987
Zn9	Zn	0.165805	-1.676914	0.180001
O10	O	0.323817	-1.602428	-0.136594
C11	C	0.171081	-1.405089	0.000008
C12	C	0.167327	-1.242805	0.000009
C13	C	-0.032688	-1.766489	-0.000005
C14	C	-0.153304	-1.811467	-0.000004
N15	N	0.165802	-1.676910	-0.425670
C16	C	-0.221592	-1.971614	-0.000008
C17	C	-0.334917	-2.013879	0.000006
C18	C	-0.379965	-1.896001	0.000012
C19	C	-0.311677	-1.735850	0.000005
C20	C	-0.198341	-1.693582	0.000003
C21	C	-0.356714	-1.617968	0.000024
C22	C	-0.288425	-1.457818	0.000016
C23	C	-0.175101	-1.415557	0.000013
C24	C	-0.130052	-1.533435	0.000008
C25	C	-0.470050	-1.660237	0.000025
C26	C	-0.446799	-1.382205	0.000037
C27	C	-0.333474	-1.339940	0.000022
C28	C	0.364297	-1.587330	0.000023
C29	C	0.484913	-1.542351	0.000032
C30	C	0.160528	-1.948729	0.000009
C31	C	0.164282	-2.111013	0.000019
N32	N	0.165799	-1.676924	0.425684
H33	H	-0.525640	-1.790633	0.000035
H34	H	-0.390510	-2.144273	0.000011
C35	C	-0.101089	-1.241618	0.000273
C36	C	-0.121659	-1.168027	0.140824
C37	C	-0.053514	-1.007792	0.141108
H38	H	-0.027107	-1.233100	0.000358
H39	H	-0.114908	-1.191351	-0.094956
H40	H	-0.107832	-1.218279	0.236029
H41	H	-0.195627	-1.176501	0.140769
H42	H	-0.067333	-0.957525	0.045878
H43	H	0.020463	-0.999290	0.141187
H44	H	-0.067468	-0.957837	0.236461
C45	C	-0.503031	-1.942203	-0.000069
C46	C	-0.553194	-2.107683	-0.000110
C47	C	-0.666565	-2.150309	-0.000216
H48	H	-0.524520	-1.900577	0.095182
H49	H	-0.524422	-1.900511	-0.095391
H50	H	-0.531812	-2.149358	0.095203
H51	H	-0.531737	-2.149348	-0.095353
H52	H	-0.687957	-2.108617	-0.095538
H53	H	-0.688043	-2.108674	0.095037
H54	H	-0.700615	-2.262590	-0.000258
H55	H	-0.184902	-2.067573	-0.000034
H56	H	-0.037775	-1.499031	-0.000010
H57	H	-0.277857	-1.209544	0.000016
H58	H	-0.483476	-1.286218	0.000045
