data_functionalizedCrystal
_audit_creation_method	'MofGen! by Chris Wilmer'
_symmetry_space_group_name_H-M	'P1'
_symmetry_Int_Tables_number	1
_symmetry_cell_setting	triclinic
loop_
_symmetry_equiv_pos_as_xyz
  x,y,z
_cell_length_a	27.440280
_cell_length_b	27.440280
_cell_length_c	14.560438
_cell_angle_alpha	59.993237
_cell_angle_beta	89.996099
_cell_angle_gamma	60.002656
loop_
_atom_site_label
_atom_site_type_symbol
_atom_site_fract_x
_atom_site_fract_y
_atom_site_fract_z
Zr1	Zr	0.469573	0.533367	-0.120646
O2	O	0.391768	0.635042	-0.267307
O3	O	0.493414	0.431699	-0.075676
O4	O	0.493427	0.533366	-0.267297
O5	O	0.391757	0.533373	0.075455
O6	O	0.573628	0.533358	-0.267302
O7	O	0.391755	0.533374	-0.075685
O8	O	0.573607	0.351494	0.075473
O9	O	0.391779	0.715237	-0.267320
O10	O	0.563449	0.473508	-0.056514
O11	O	0.503596	0.473513	0.056285
O12	O	0.503611	0.593213	-0.169325
O13	O	0.443758	0.593218	-0.056526
Zr14	Zr	0.597489	0.533352	0.120397
Zr15	Zr	0.597486	0.533355	-0.120655
Zr16	Zr	0.469576	0.533365	0.120406
Zr17	Zr	0.469592	0.661270	-0.120668
Zr18	Zr	0.597471	0.405449	0.120418
O19	O	0.573648	0.635021	0.075426
O20	O	0.573643	0.635024	-0.267319
O21	O	0.391772	0.635039	0.075439
O22	O	0.675295	0.431678	0.267057
O23	O	0.675290	0.431681	-0.075688
O24	O	0.493419	0.431695	0.267069
O25	O	0.675305	0.533347	-0.075705
O26	O	0.573636	0.533353	0.267047
O27	O	0.493434	0.533361	0.267053
O28	O	0.675307	0.533345	0.075436
O29	O	0.493453	0.715228	-0.267327
O30	O	0.573609	0.351492	0.267077
O31	O	0.675283	0.351482	0.267070
O32	O	0.675280	0.351484	0.075466
O33	O	0.391782	0.715236	-0.075716
O34	O	0.493456	0.715226	-0.075722
O35	O	0.563452	0.473506	0.169075
O36	O	0.623304	0.473501	0.056276
O37	O	0.563466	0.593207	-0.056534
O38	O	0.503614	0.593211	0.056265
C39	C	0.533508	0.373373	-0.000098
C40	C	0.533500	0.319074	-0.000089
C41	C	0.577716	0.040186	0.083149
C42	C	0.577710	0.091208	0.083153
O43	O	0.615290	0.080027	0.153948
N44	N	0.533525	0.160904	-0.000112
C45	C	0.489347	0.179578	-0.083393
O46	O	0.451764	0.243545	-0.154217
C47	C	0.489355	0.128557	-0.083401
C48	C	0.533539	0.058861	-0.000124
C49	C	0.621897	-0.029507	0.166419
C50	C	0.621901	-0.080525	0.166415
C51	C	0.577725	-0.061850	0.083142
C52	C	0.533544	0.007842	-0.000128
C53	C	0.445179	0.147232	-0.166687
C54	C	0.445192	0.096203	-0.166688
C55	C	0.489376	0.026507	-0.083411
C56	C	0.489372	-0.024501	-0.083404
N57	N	0.533557	-0.094197	-0.000139
C58	C	0.577733	-0.112872	0.083134
C59	C	0.489333	0.286724	-0.083371
C60	C	0.489321	0.337745	-0.083360
C61	C	0.577686	0.249371	0.083186
C62	C	0.577694	0.198349	0.083178
C63	C	0.533518	0.217028	-0.000106
C64	C	0.577739	-0.220011	0.083121
C65	C	0.577739	-0.271029	0.083113
C66	C	0.489376	-0.182651	-0.083436
C67	C	0.489375	-0.131637	-0.083425
C68	C	0.533562	-0.150321	-0.000141
O69	O	0.451812	-0.013372	-0.154166
O70	O	0.615314	-0.176839	0.153937
C71	C	0.373532	0.533375	-0.000114
C72	C	0.319229	0.533381	-0.000110
C73	C	-0.017470	0.533345	-0.083391
C74	C	-0.068488	0.533340	-0.083392
O75	O	-0.094863	0.533315	-0.154182
N76	N	-0.094004	0.533341	-0.000128
C77	C	-0.068497	0.533339	0.083148
O78	O	-0.094885	0.533339	0.153970
C79	C	-0.017477	0.533339	0.083152
C80	C	0.008033	0.533346	-0.000124
C81	C	0.008041	0.533351	-0.166659
C82	C	0.059055	0.533357	-0.166659
C83	C	0.084558	0.533358	-0.083392
C84	C	0.059047	0.533352	-0.000124
C85	C	0.008031	0.533333	0.166432
C86	C	0.059055	0.533332	0.166429
C87	C	0.084565	0.533339	0.083154
C88	C	0.135563	0.533359	0.083144
N89	N	0.161080	0.533358	-0.000120
C90	C	0.135577	0.533357	-0.083387
C91	C	-0.175641	0.533338	0.083133
C92	C	-0.226662	0.533343	0.083125
C93	C	-0.226648	0.533343	-0.083413
C94	C	-0.175629	0.533343	-0.083409
C95	C	-0.150124	0.533338	-0.000130
C96	C	0.242710	0.533371	-0.083382
C97	C	0.293726	0.533380	-0.083378
C98	C	0.293710	0.533377	0.083164
C99	C	0.242696	0.533371	0.083156
C100	C	0.217198	0.533366	-0.000122
O101	O	0.161973	0.533381	0.153900
O102	O	0.161976	0.533349	-0.154190
C103	C	0.693531	0.533344	-0.000136
C104	C	0.747833	0.533339	-0.000139
C105	C	0.533527	0.533362	-0.301644
C106	C	0.533526	0.533363	-0.403977
C107	C	0.533554	0.693347	-0.000151
C108	C	0.533562	0.747645	-0.000160
C109	C	0.502292	0.595847	-0.510939
C110	C	0.502299	0.595844	-0.607088
C111	C	0.564775	0.470868	-0.489299
C112	C	0.564771	0.470872	-0.393153
C113	C	0.493175	0.670908	-0.809239
C114	C	0.461930	0.733395	-0.916208
C115	C	0.405947	0.788568	-0.937000
C116	C	0.381194	0.781257	-0.850828
C117	C	0.412434	0.718769	-0.743864
C118	C	0.468428	0.663598	-0.723072
C119	C	0.573888	0.395812	-0.191004
C120	C	0.605126	0.333323	-0.084037
C121	C	0.661109	0.278144	-0.063237
C122	C	0.685858	0.285449	-0.149406
C123	C	0.654621	0.347937	-0.256373
C124	C	0.598638	0.403117	-0.277166
C125	C	0.533535	0.533357	0.301395
C126	C	0.533537	0.533356	0.403728
C127	C	0.693507	0.373357	-0.000109
C128	C	0.747802	0.319054	-0.000104
C129	C	0.533512	0.373370	0.301421
C130	C	0.533505	0.319071	0.403763
C131	C	0.693511	0.373354	0.301410
C132	C	0.747807	0.319050	0.403748
C133	C	0.373551	0.693365	-0.301660
C134	C	0.319255	0.747670	-0.403998
C135	C	0.373555	0.693362	-0.000140
C136	C	0.319260	0.747666	-0.000146
C137	C	0.533550	0.693350	-0.301671
C138	C	0.533557	0.747649	-0.404013
C139	C	0.742055	0.293556	-0.058987
C140	C	0.793066	0.242539	-0.059005
C141	C	0.849822	0.217017	-0.000132
C142	C	0.855568	0.242520	0.058753
C143	C	0.804558	0.293540	0.058763
C144	C	0.564746	0.293568	0.510710
C145	C	0.564738	0.242555	0.606880
C146	C	0.533492	0.217043	0.596101
C147	C	0.502247	0.242551	0.489144
C148	C	0.502252	0.293566	0.392976
C149	C	0.804553	0.293546	0.392928
C150	C	0.855574	0.242528	0.489076
C151	C	0.849849	0.217012	0.596044
C152	C	0.793098	0.242522	0.606863
C153	C	0.742077	0.293542	0.510715
C154	C	0.262509	0.773180	-0.393177
C155	C	0.211488	0.824214	-0.489326
C156	C	0.217213	0.849732	-0.596294
C157	C	0.273965	0.824219	-0.607112
C158	C	0.324985	0.773190	-0.510965
C159	C	0.325007	0.773169	0.058728
C160	C	0.273997	0.824200	0.058719
C161	C	0.217240	0.849723	-0.000158
C162	C	0.211494	0.824218	-0.059038
C163	C	0.262504	0.773191	-0.059035
C164	C	0.564809	0.773145	-0.393198
C165	C	0.564827	0.824158	-0.489350
C166	C	0.533589	0.849677	-0.596315
C167	C	0.502336	0.824176	-0.607128
C168	C	0.502322	0.773161	-0.510977
H169	H	0.409204	0.203974	-0.234508
C170	C	0.387404	0.745126	-0.522887
N171	N	0.434418	0.723989	-0.531875
H172	H	0.590191	0.314334	0.519507
C173	C	0.786810	0.214441	0.724538
N174	N	0.782076	0.193285	0.813175
H175	H	0.371217	0.752392	0.106679
C176	C	0.161133	0.905851	-0.000144
N177	N	0.118875	0.948124	-0.000125
C178	C	0.599180	0.745079	-0.275544
N179	N	0.625073	0.723940	-0.186930
H180	H	0.695874	0.314301	0.519541
C181	C	0.467882	0.214476	0.477306
N182	N	0.442001	0.193326	0.468393
H183	H	0.809226	0.314313	0.305838
C184	C	0.440712	0.414408	-0.174965
N185	N	0.404100	0.472152	-0.243970
H186	H	0.590276	0.844915	-0.480524
C187	C	0.396590	0.116757	-0.258306
N188	N	0.359983	0.132240	-0.327310
C189	C	0.087116	0.533353	-0.258259
N190	N	0.108250	0.533346	-0.327253
C191	C	0.905979	0.160883	0.701799
N192	N	0.948259	0.118604	0.781450
C193	C	-0.020001	0.533345	-0.258264
N194	N	-0.041121	0.533343	-0.327269
H195	H	0.809245	0.314294	0.106720
C196	C	0.533609	0.905797	-0.702074
N197	N	0.533625	0.948068	-0.781727
H198	H	0.891353	0.175474	-0.000148
C199	C	0.533498	0.160918	0.701901
N200	N	0.533508	0.118642	0.781593
H201	H	0.584966	0.327376	-0.013881
C202	C	0.280330	0.852241	0.123504
N203	N	0.285102	0.873358	0.172304
H204	H	0.165276	0.845007	-0.106973
H205	H	0.590183	0.221793	0.693960
H206	H	0.257817	0.752428	-0.106973
H207	H	0.657873	-0.044724	0.234232
H208	H	0.335603	0.826184	-0.867775
C209	C	0.161083	0.905860	-0.702048
N210	N	0.118804	0.948133	-0.781699
H211	H	0.221920	0.533376	0.150957
H212	H	0.674777	0.353882	-0.326533
C213	C	0.468000	0.852231	-0.724801
N214	N	0.442146	0.873356	-0.813435
H215	H	0.613719	-0.327781	0.150932
H216	H	0.613720	-0.235234	0.150939
H217	H	0.613657	0.234173	0.150992
H218	H	0.476870	0.752407	-0.519798
H219	H	0.788376	0.221781	-0.106956
C220	C	0.256197	0.745124	-0.275521
N221	N	0.251437	0.723999	-0.186905
H222	H	0.901786	0.221733	0.106685
H223	H	0.165283	0.844977	-0.480495
C224	C	0.695469	0.209404	0.054433
N225	N	0.721350	0.157631	0.143060
H226	H	0.657882	-0.137272	0.234225
H227	H	0.278619	0.845003	-0.694217
H228	H	0.476814	0.314324	0.305899
H229	H	0.613673	0.141602	0.150990
H230	H	0.453354	0.301942	-0.151191
H231	H	0.731442	0.240515	-0.132471
H232	H	0.453407	-0.167457	-0.151231
C233	C	0.321787	0.533384	-0.174988
N234	N	0.342922	0.533384	-0.243984
C235	C	0.440767	-0.054968	-0.175027
N236	N	0.404158	0.002776	-0.244031
C237	C	0.385211	0.710726	-0.649075
N238	N	0.364707	0.704672	-0.577678
H239	H	0.221955	0.533366	-0.151194
C240	C	0.917995	0.214471	0.477150
N241	N	0.965009	0.193338	0.468165
H242	H	-0.154861	0.533347	-0.151218
H243	H	-0.247434	0.533349	0.150926
C244	C	-0.254707	0.533335	-0.175003
N245	N	-0.275843	0.533329	-0.243984
H246	H	-0.154880	0.533339	0.150947
H247	H	-0.012732	0.533327	0.234242
H248	H	0.528302	0.440742	-0.207932
H249	H	0.314481	0.533380	0.150957
C250	C	0.371580	0.857305	-1.054668
N251	N	0.345700	0.909077	-1.143297
C252	C	0.087106	0.533327	0.258044
N253	N	0.108233	0.533326	0.327047
H254	H	0.482090	0.739343	-0.986365
C255	C	0.554763	0.610219	-0.786373
N256	N	0.601150	0.564506	-0.769155
H257	H	0.476850	0.646732	-0.519759
H258	H	0.590212	0.419989	-0.480499
H259	H	0.695846	0.314335	-0.106942
