data_functionalizedCrystal
_audit_creation_method	'MofGen! by Chris Wilmer'
_symmetry_space_group_name_H-M	'P1'
_symmetry_Int_Tables_number	1
_symmetry_cell_setting	triclinic
loop_
_symmetry_equiv_pos_as_xyz
  x,y,z
_cell_length_a	31.640172
_cell_length_b	31.640171
_cell_length_c	31.640172
_cell_angle_alpha	59.979319
_cell_angle_beta	90.009241
_cell_angle_gamma	59.993592
loop_
_atom_site_label
_atom_site_type_symbol
_atom_site_fract_x
_atom_site_fract_y
_atom_site_fract_z
Zr1	Zr	-0.055541	0.462748	0.406956
O2	O	-0.123063	0.550970	0.339415
O3	O	-0.034825	0.374537	0.427689
O4	O	-0.123027	0.462753	0.427635
O5	O	0.034696	0.462747	0.339479
O6	O	-0.123018	0.462744	0.497192
O7	O	-0.034861	0.462755	0.339469
O8	O	0.034760	0.304942	0.497289
O9	O	-0.123082	0.620549	0.339382
O10	O	-0.026003	0.410809	0.488407
O11	O	0.025899	0.410810	0.436505
O12	O	-0.077948	0.514673	0.436441
O13	O	-0.026046	0.514674	0.384539
Zr14	Zr	0.055408	0.462722	0.517907
Zr15	Zr	-0.055526	0.462734	0.517891
Zr16	Zr	0.055394	0.462736	0.406972
Zr17	Zr	-0.055571	0.573718	0.406903
Zr18	Zr	0.055439	0.351753	0.517959
O19	O	0.034692	0.550934	0.497173
O20	O	-0.123042	0.550950	0.497151
O21	O	0.034671	0.550954	0.339437
O22	O	0.122931	0.374500	0.585448
O23	O	-0.034804	0.374517	0.585425
O24	O	0.122910	0.374520	0.427712
O25	O	-0.034828	0.462724	0.585384
O26	O	0.122895	0.462718	0.497228
O27	O	0.122885	0.462727	0.427671
O28	O	0.034728	0.462716	0.585394
O29	O	-0.123071	0.620538	0.427561
O30	O	0.122938	0.304933	0.497302
O31	O	0.122950	0.304922	0.585481
O32	O	0.034772	0.304931	0.585468
O33	O	-0.034904	0.620540	0.339395
O34	O	-0.034893	0.620528	0.427573
O35	O	0.077815	0.410798	0.488422
O36	O	0.025913	0.410797	0.540324
O37	O	-0.026032	0.514661	0.488358
O38	O	0.025871	0.514662	0.436456
C39	C	-0.000028	0.323929	0.462497
C40	C	-0.000015	0.276819	0.462519
C41	C	-0.138828	0.462750	0.462411
C42	C	-0.185923	0.462755	0.462405
C43	C	0.038266	-0.097756	0.500779
C44	C	0.038294	0.079197	0.500825
O45	O	0.070888	0.069457	0.533452
N46	N	-0.000038	0.139681	0.462486
C47	C	-0.038382	0.155927	0.424135
O48	O	-0.070989	0.211433	0.391530
C49	C	-0.038413	-0.021026	0.424092
C50	C	-0.000075	-0.081510	0.462430
C51	C	0.076600	-0.158237	0.539114
C52	C	0.076594	-0.202472	0.539101
C53	C	0.038254	-0.186226	0.500752
C54	C	-0.000081	-0.125745	0.462417
C55	C	-0.076758	-0.004779	0.385744
C56	C	-0.076763	-0.049024	0.385737
C57	C	-0.038425	-0.109508	0.424075
C58	C	-0.038427	-0.153734	0.424055
N59	N	-0.000095	-0.214218	0.462393
C60	C	0.038246	-0.230464	0.500742
C61	C	-0.038363	0.248827	0.424160
C62	C	-0.038355	0.293065	0.424170
C63	C	0.038321	0.216332	0.500860
C64	C	0.038315	0.172094	0.500848
C65	C	-0.000031	0.188343	0.462499
C66	C	0.038231	-0.323359	0.500710
C67	C	0.038223	-0.367594	0.500692
C68	C	-0.038455	-0.290858	0.424004
C69	C	-0.038445	-0.246626	0.424020
C70	C	-0.000100	-0.262881	0.462378
O71	O	-0.071007	-0.144038	0.391448
O72	O	0.070841	-0.285973	0.533349
C73	C	0.038271	-0.053521	0.500792
C74	C	-0.000063	0.006961	0.462457
C75	C	-0.038403	0.023207	0.424109
C76	C	-0.000055	0.051199	0.462467
C77	C	0.038285	0.034953	0.500816
C78	C	0.076618	-0.025531	0.539155
C79	C	0.076612	-0.069767	0.539141
C80	C	-0.076735	0.083691	0.385770
C81	C	-0.076726	0.127923	0.385786
C82	C	-0.038386	0.111677	0.424135
C83	C	-0.477923	0.462720	0.500761
C84	C	-0.654909	0.462712	0.500772
O85	O	-0.677777	0.462681	0.533375
N86	N	-0.677045	0.462718	0.462452
C87	C	-0.654929	0.462722	0.424128
O88	O	-0.677815	0.462721	0.391538
C89	C	-0.477942	0.462726	0.424119
C90	C	-0.455811	0.462726	0.462439
C91	C	-0.455792	0.462719	0.539078
C92	C	-0.411550	0.462724	0.539073
C93	C	-0.389438	0.462730	0.500751
C94	C	-0.411569	0.462731	0.462434
C95	C	-0.455825	0.462725	0.385798
C96	C	-0.411574	0.462725	0.385800
C97	C	-0.389444	0.462725	0.424120
C98	C	-0.345215	0.462742	0.424107
N99	N	-0.323079	0.462736	0.462428
C100	C	-0.345191	0.462730	0.500749
C101	C	-0.747851	0.462721	0.424135
C102	C	-0.792098	0.462721	0.424136
C103	C	-0.792074	0.462710	0.500781
C104	C	-0.747828	0.462714	0.500777
C105	C	-0.725715	0.462715	0.462455
C106	C	-0.252279	0.462742	0.500736
C107	C	-0.208034	0.462749	0.500726
C108	C	-0.208060	0.462757	0.424083
C109	C	-0.252303	0.462753	0.424091
C110	C	-0.274410	0.462743	0.462422
O111	O	-0.322316	0.462766	0.391524
O112	O	-0.322291	0.462718	0.533341
C113	C	-0.522165	0.462715	0.500766
C114	C	-0.544296	0.462715	0.462449
C115	C	-0.522184	0.462721	0.424127
C116	C	-0.588543	0.462715	0.462450
C117	C	-0.610655	0.462710	0.500772
C118	C	-0.588519	0.462704	0.539092
C119	C	-0.544277	0.462709	0.539087
C120	C	-0.544320	0.462727	0.385807
C121	C	-0.588563	0.462722	0.385814
C122	C	-0.610674	0.462717	0.424136
C123	C	0.138696	0.462721	0.462451
C124	C	0.185790	0.462716	0.462458
C125	C	-0.000085	0.462753	0.323668
C126	C	-0.000091	0.462759	0.276573
C127	C	-0.000105	0.601542	0.462366
C128	C	-0.000118	0.648652	0.462344
C129	C	0.027059	0.408514	0.011693
C130	C	0.027069	0.408504	-0.165292
O131	O	0.050148	0.362395	-0.165109
N132	N	-0.000046	0.462719	-0.214548
C133	C	-0.027163	0.516941	-0.219556
O134	O	-0.050222	0.563054	-0.265512
C135	C	-0.027170	0.516951	-0.042572
C136	C	-0.000057	0.462732	0.006683
C137	C	0.054170	0.354300	0.060946
C138	C	0.054165	0.354303	0.105189
C139	C	0.027049	0.408520	0.100179
C140	C	-0.000062	0.462735	0.050927
C141	C	-0.054284	0.571172	-0.047581
C142	C	-0.054282	0.571169	-0.003329
C143	C	-0.027169	0.516950	0.045926
C144	C	-0.027184	0.516956	0.090161
N145	N	-0.000069	0.462740	0.139416
C146	C	0.027048	0.408523	0.144426
C147	C	-0.027159	0.516932	-0.312474
C148	C	-0.027158	0.516930	-0.356720
C149	C	0.027076	0.408492	-0.302453
C150	C	0.027071	0.408495	-0.258206
C151	C	-0.000043	0.462716	-0.263218
C152	C	0.027034	0.408533	0.237338
C153	C	0.027025	0.408541	0.281583
C154	C	-0.027206	0.516978	0.227312
C155	C	-0.027199	0.516971	0.183071
C156	C	-0.000075	0.462743	0.188087
O157	O	-0.050246	0.563040	0.090016
O158	O	0.050112	0.362416	0.190386
C159	C	0.027064	0.408511	-0.032551
C160	C	-0.000047	0.462725	-0.081803
C161	C	-0.027163	0.516943	-0.086813
C162	C	-0.000046	0.462723	-0.126049
C163	C	0.027070	0.408505	-0.121040
C164	C	0.054185	0.354290	-0.071784
C165	C	0.054180	0.354293	-0.027541
C166	C	-0.054279	0.571158	-0.136068
C167	C	-0.054272	0.571151	-0.180309
C168	C	-0.027156	0.516933	-0.175300
C169	C	-0.000048	0.462718	0.601195
C170	C	-0.000041	0.462712	0.648290
C171	C	-0.000009	0.323911	0.601260
C172	C	0.000010	0.276796	0.648377
C173	C	0.138734	0.323914	0.462517
C174	C	0.185842	0.276799	0.462546
C175	C	0.138753	0.323897	0.601280
C176	C	0.185866	0.276776	0.648404
C177	C	-0.138885	0.601574	0.323583
C178	C	-0.185999	0.648695	0.276459
C179	C	-0.000123	0.601559	0.323603
C180	C	-0.000142	0.648675	0.276485
C181	C	-0.138867	0.601557	0.462346
C182	C	-0.185974	0.648671	0.462317
C183	C	-0.027085	0.254676	0.643404
C184	C	-0.027078	0.210412	0.687671
C185	C	0.000029	0.188266	0.736912
C186	C	0.027125	0.210390	0.741884
C187	C	0.027114	0.254656	0.697617
C188	C	0.235068	0.254668	0.489660
C189	C	0.279335	0.210405	0.489685
C190	C	0.274374	0.188271	0.462599
C191	C	0.225142	0.210407	0.435482
C192	C	0.180877	0.254673	0.435454
C193	C	0.180899	0.254647	0.697631
C194	C	0.225163	0.210378	0.741914
C195	C	0.274394	0.188236	0.736968
C196	C	0.279361	0.210370	0.687735
C197	C	0.235097	0.254641	0.643454
C198	C	-0.181032	0.670829	0.227232
C199	C	-0.225296	0.715111	0.182949
C200	C	-0.274527	0.737256	0.187895
C201	C	-0.279493	0.715120	0.237127
C202	C	-0.235229	0.670841	0.281408
C203	C	0.026948	0.670799	0.281459
C204	C	0.026928	0.715076	0.237191
C205	C	-0.000180	0.737224	0.187951
C206	C	-0.027274	0.715097	0.182979
C207	C	-0.027256	0.670825	0.227245
C208	C	-0.180997	0.670791	0.489408
C209	C	-0.225255	0.715054	0.489391
C210	C	-0.274490	0.737200	0.462279
C211	C	-0.279467	0.715077	0.435187
C212	C	-0.235209	0.670811	0.435208
H213	H	0.069444	-0.416845	0.531912
H214	H	-0.049344	0.733137	0.142881
O215	O	-0.127898	0.646907	0.518659
H216	H	-0.106444	0.655408	0.491306
O217	O	-0.219934	0.738979	0.129852
H218	H	-0.238806	0.730498	0.108393
O219	O	-0.322263	0.785016	0.140128
H220	H	-0.345632	0.768041	0.140151
H221	H	0.221111	0.192362	0.781996
O222	O	0.127784	0.278535	0.406211
H223	H	0.097832	0.313037	0.410735
H224	H	0.049122	0.364376	0.241430
O225	O	-0.322221	0.784951	0.462256
H226	H	-0.345583	0.767968	0.479220
O227	O	0.322135	0.140480	0.784730
H228	H	0.310405	0.128811	0.819790
O229	O	0.056359	0.186501	0.794995
H230	H	0.098012	0.166327	0.799515
O231	O	0.127803	0.278531	0.702972
H232	H	0.131794	0.255707	0.744645
H233	H	-0.076361	0.615323	-0.087679
H234	H	0.319450	0.192335	0.683716
H235	H	0.049181	0.272660	0.701674
H236	H	0.076241	0.310152	0.145291
O237	O	-0.520472	0.462731	0.344473
H238	H	-0.520590	0.503269	0.322356
H239	H	-0.319560	0.733115	0.413114
H240	H	-0.049315	0.652813	0.223189
O241	O	0.240425	0.278536	0.518876
H242	H	0.261896	0.298710	0.503203
O243	O	-0.056301	0.186554	0.682298
H244	H	-0.086261	0.195061	0.701139
H245	H	-0.076355	0.615306	-0.220414
H246	H	-0.190052	0.462765	0.392881
O247	O	-0.240577	0.646956	0.405984
H248	H	-0.262079	0.684128	0.364318
H249	H	0.069455	-0.336602	0.531945
H250	H	0.239149	0.272652	0.603373
O251	O	0.117934	-0.267707	0.580461
H252	H	0.144586	-0.271562	0.607131
H253	H	0.107822	-0.171476	0.570345
O254	O	0.056179	0.646924	0.334565
H255	H	0.075003	0.669760	0.330578
O256	O	0.083432	0.295813	-0.066389
H257	H	0.067780	0.269818	-0.044900
H258	H	-0.606581	0.462727	0.354605
H259	H	-0.221193	0.733063	0.511451
H260	H	-0.140949	0.652802	0.223195
O261	O	0.079668	0.198815	0.542228
H262	H	0.101761	0.217146	0.523813
O263	O	0.219806	0.186517	0.406280
H264	H	0.198311	0.223667	0.364608
H265	H	0.048993	0.733083	0.241250
H266	H	-0.069590	0.262068	0.392930
O267	O	-0.332593	0.739002	0.242459
H268	H	-0.362533	0.773503	0.203395
H269	H	-0.239280	0.652820	0.321490
H270	H	0.049105	0.364388	0.321688
O271	O	0.079657	0.106858	0.542203
H272	H	0.106314	0.103000	0.568872
O273	O	0.000044	0.140516	0.784656
H274	H	-0.023348	0.128855	0.772920
O275	O	-0.000183	0.784968	0.140214
H276	H	-0.040541	0.825319	0.116818
H277	H	-0.069568	0.342312	0.392946
H278	H	-0.107991	-0.035786	0.354510
O279	O	-0.118118	0.060450	0.344398
H280	H	-0.116258	0.070365	0.305748
O281	O	-0.079794	-0.181387	0.382671
H282	H	-0.077927	-0.171469	0.344022
O283	O	-0.079810	-0.273346	0.382651
H284	H	-0.061395	-0.291662	0.360555
O285	O	0.117955	-0.135001	0.580498
H286	H	0.144608	-0.138856	0.607167
H287	H	0.319417	0.192386	0.511769
O288	O	0.083413	0.295815	0.066358
H289	H	0.125066	0.269808	0.087874
O290	O	0.117967	-0.043052	0.580523
H291	H	0.111522	-0.002126	0.574090
O292	O	-0.118082	0.193161	0.344437
H293	H	-0.144746	0.197019	0.317775
H294	H	-0.107958	0.096928	0.354542
H295	H	-0.190018	0.462751	0.531931
O296	O	-0.276126	0.462742	0.542071
H297	H	-0.253303	0.462750	0.568707
O298	O	0.322120	0.140517	0.462641
H299	H	0.357182	0.128843	0.486054
H300	H	-0.606531	0.462702	0.570294
O301	O	-0.387676	0.462712	0.580409
H302	H	-0.410487	0.462699	0.607058
H303	H	0.049152	0.364346	-0.298380
O304	O	-0.479644	0.462725	0.580407
H305	H	-0.456818	0.462732	0.607043
O306	O	-0.083532	0.629639	-0.141475
H307	H	-0.102388	0.667332	-0.183160
H308	H	-0.810086	0.462707	0.531984
O309	O	-0.723949	0.462700	0.542112
H310	H	-0.752710	0.503231	0.540214
O311	O	-0.815981	0.462750	0.382792
H312	H	-0.793168	0.462757	0.356145
H313	H	-0.473837	0.462725	0.354595
O314	O	-0.724006	0.462730	0.382796
H315	H	-0.746840	0.462741	0.356150
H316	H	-0.393571	0.462724	0.354594
H317	H	-0.526261	0.462709	0.570291
O318	O	-0.276178	0.462755	0.382761
H319	H	-0.253366	0.462757	0.356115
H320	H	-0.049242	0.561080	-0.396822
O321	O	0.056315	0.350018	-0.205082
H322	H	0.097970	0.324018	-0.200558
O323	O	-0.056412	0.575417	-0.317883
H324	H	-0.075269	0.613110	-0.359568
H325	H	-0.076356	0.615324	-0.007416
H326	H	-0.049283	0.561120	0.142964
H327	H	-0.049285	0.561121	0.223242
H328	H	-0.049165	0.272707	0.603314
O329	O	0.083426	0.295814	0.025582
H330	H	0.102283	0.258118	0.021623
