data_functionalizedCrystal
_audit_creation_method	'MofGen! by Chris Wilmer'
_symmetry_space_group_name_H-M	'P1'
_symmetry_Int_Tables_number	1
_symmetry_cell_setting	triclinic
loop_
_symmetry_equiv_pos_as_xyz
  x,y,z
_cell_length_a	14.971486
_cell_length_b	12.996460
_cell_length_c	14.971494
_cell_angle_alpha	90.004427
_cell_angle_beta	83.615843
_cell_angle_gamma	90.000625
loop_
_atom_site_label
_atom_site_type_symbol
_atom_site_fract_x
_atom_site_fract_y
_atom_site_fract_z
O1	O	1.186949	0.085444	0.116564
O2	O	0.926550	0.085472	0.130523
O3	O	1.063725	0.085455	-0.006656
O4	O	1.049774	0.085461	0.253743
O5	O	1.063711	-0.085679	-0.006664
O6	O	0.926535	-0.085662	0.130515
O7	O	1.186935	-0.085689	0.116556
Cu8	Cu	1.056734	-0.101301	0.123535
Cu9	Cu	1.056751	0.101084	0.123544
O10	O	1.049760	-0.085672	0.253735
C11	C	0.893218	-0.000091	0.129895
C12	C	0.793921	-0.000081	0.128024
N13	N	1.056729	-0.243648	0.123528
C14	C	0.736698	-0.000080	0.208613
C15	C	0.643398	-0.000096	0.206850
C16	C	0.607323	-0.000104	0.124497
C17	C	0.664554	-0.000108	0.043902
C18	C	0.757851	-0.000100	0.045666
C19	C	0.470091	-0.000122	0.040231
C20	C	0.376787	-0.000128	0.038466
C21	C	0.355638	-0.000118	0.201415
C22	C	0.448936	-0.000110	0.203179
C23	C	0.506160	-0.000111	0.122583
C24	C	1.056750	-0.663463	0.123545
C25	C	1.056741	-0.546658	0.123543
C26	C	1.056740	-0.453559	0.123537
C27	C	1.056730	-0.336747	0.123534
C28	C	1.220267	-0.000124	0.117184
C29	C	1.319564	-0.000128	0.119055
C30	C	1.063093	-0.000110	-0.039985
C31	C	1.061219	-0.000105	-0.139281
N32	N	1.056763	0.243431	0.123544
C33	C	1.060349	0.093181	-0.185922
C34	C	1.058582	0.093183	-0.279221
C35	C	1.057693	-0.000103	-0.325879
C36	C	1.058561	-0.093397	-0.279231
C37	C	1.060320	-0.093397	-0.185933
C38	C	1.054895	-0.093389	-0.473694
C39	C	1.053136	-0.093390	-0.566999
C40	C	1.053156	0.093190	-0.566982
C41	C	1.054916	0.093190	-0.473684
C42	C	1.055786	-0.000104	-0.427043
C43	C	1.050392	-0.000105	0.287064
C44	C	1.052266	-0.000103	0.386360
H45	H	0.766062	-0.000073	0.275674
H46	H	1.052447	0.169154	-0.604961
C47	C	0.979950	0.201405	-0.358853
C48	C	1.055807	0.195757	-0.422425
H49	H	0.980477	0.264733	-0.327215
H50	H	0.927180	0.197448	-0.388521
H51	H	0.980758	0.145872	-0.317699
H52	H	1.054996	0.251287	-0.463583
H53	H	1.108591	0.199725	-0.392756
C54	C	1.053268	-0.277817	-0.557646
C55	C	1.052146	-0.195930	-0.618286
H56	H	1.052650	-0.341121	-0.589310
H57	H	1.106071	-0.273957	-0.528022
H58	H	1.001832	-0.273917	-0.514490
H59	H	1.103586	-0.199826	-0.661439
H60	H	0.999337	-0.199792	-0.647925
H61	H	1.055583	-0.169359	-0.435720
H62	H	1.057877	0.169146	-0.317192
H63	H	1.061017	-0.169360	-0.147958
H64	H	0.516681	-0.000125	-0.025399
C65	C	0.875047	0.087877	-0.046874
C66	C	0.820758	-0.000097	-0.042918
H67	H	0.913886	0.087871	-0.101561
H68	H	0.838209	0.147542	-0.044180
H69	H	0.909877	0.087871	0.002431
H70	H	0.785924	-0.000087	-0.092219
H71	H	0.857601	-0.059777	-0.045621
C72	C	0.694837	-0.000118	-0.116988
C73	C	0.624904	-0.000116	-0.046624
H74	H	0.670358	-0.000127	-0.172875
H75	H	0.730782	0.059557	-0.112907
H76	H	0.730788	-0.059800	-0.112907
H77	H	0.588956	0.059569	-0.050701
H78	H	0.588943	-0.059798	-0.050706
C79	C	0.631865	-0.000071	0.368091
C80	C	0.580499	-0.000090	0.295436
H81	H	0.593031	-0.000063	0.422782
H82	H	0.668698	-0.059741	0.365391
H83	H	0.668692	0.059616	0.365382
H84	H	0.543676	-0.059782	0.298142
H85	H	0.543651	0.059586	0.298138
C86	C	0.203232	-0.000134	0.271073
C87	C	0.292741	-0.000118	0.290008
H88	H	0.164401	-0.000135	0.325766
H89	H	0.192288	0.059533	0.237312
H90	H	0.192300	-0.059823	0.237312
H91	H	0.303674	0.059576	0.323764
H92	H	0.303689	-0.059791	0.323784
H93	H	1.057831	-0.169352	-0.317226
H94	H	0.478304	-0.000093	0.270238
H95	H	0.347418	-0.000136	-0.028593
H96	H	1.061078	0.169146	-0.147941
