data_functionalizedCrystal
_audit_creation_method	'MofGen! by Chris Wilmer'
_symmetry_space_group_name_H-M	'P1'
_symmetry_Int_Tables_number	1
_symmetry_cell_setting	triclinic
loop_
_symmetry_equiv_pos_as_xyz
  x,y,z
_cell_length_a	14.853567
_cell_length_b	19.188930
_cell_length_c	13.330367
_cell_angle_alpha	89.990231
_cell_angle_beta	89.995418
_cell_angle_gamma	83.389856
loop_
_atom_site_label
_atom_site_type_symbol
_atom_site_fract_x
_atom_site_fract_y
_atom_site_fract_z
O1	O	1.195862	0.091155	-0.083366
O2	O	0.933342	0.102014	-0.083385
O3	O	1.072178	-0.005046	-0.083355
O4	O	1.057026	0.198215	-0.083395
O5	O	1.072158	-0.005048	0.083492
O6	O	0.933322	0.102011	0.083462
O7	O	1.195842	0.091153	0.083481
Cu8	Cu	1.064580	0.096582	0.098706
Cu9	Cu	1.064604	0.096585	-0.098610
O10	O	1.057006	0.198212	0.083452
C11	C	0.899746	0.101521	0.000037
C12	C	0.799671	0.100046	0.000031
C13	C	0.387525	0.030218	0.000067
C14	C	0.365537	0.157407	0.000041
C15	C	0.459563	0.158794	0.000037
C16	C	0.517574	0.095891	0.000047
C17	C	0.481560	0.031602	0.000060
C18	C	0.495585	0.223081	0.000014
C19	C	0.589616	0.224470	0.000009
C20	C	0.647629	0.161567	0.000026
C21	C	0.611610	0.097276	0.000041
C22	C	0.669621	0.034373	0.000050
C23	C	0.633603	-0.029919	0.000072
C24	C	0.539574	-0.031301	0.000077
C25	C	0.741659	0.162949	0.000021
C26	C	0.763656	0.035757	0.000044
C27	C	1.071677	-0.031060	0.000071
C28	C	1.070204	-0.108569	0.000080
C29	C	1.151668	-0.153221	0.000090
C30	C	1.150285	-0.226050	0.000074
C31	C	1.067432	-0.254223	0.000068
C32	C	0.985957	-0.209561	0.000051
C33	C	0.987343	-0.136734	0.000057
N34	N	1.004094	-0.362440	0.056844
N35	N	1.002783	-0.431623	0.056841
C36	C	1.063251	-0.473645	0.000047
N37	N	1.125093	-0.443873	-0.056730
N38	N	1.126407	-0.374684	-0.056722
C39	C	1.065920	-0.333190	0.000060
C40	C	1.143220	-0.597267	0.000039
C41	C	1.141833	-0.670096	0.000016
C42	C	0.977503	-0.653606	0.000003
C43	C	0.978893	-0.580778	0.000016
C44	C	1.061754	-0.552613	0.000038
C45	C	1.229438	0.091646	0.000057
C46	C	1.329513	0.093120	0.000057
C47	C	1.057507	0.224226	0.000023
C48	C	1.058980	0.301736	0.000008
N49	N	1.064570	0.096579	0.237488
N50	N	1.064621	0.096582	-0.237391
C51	C	1.003125	0.143972	0.710098
C52	C	1.126107	0.049192	0.710092
C53	C	1.126097	0.049190	0.605073
C54	C	1.064601	0.096580	0.552562
C55	C	1.003115	0.143973	0.605070
C56	C	1.187588	0.001803	0.552558
C57	C	1.187581	0.001799	0.447533
C58	C	1.126080	0.049187	0.395020
C59	C	1.064590	0.096581	0.447534
C60	C	1.003094	0.143971	0.395023
C61	C	0.941600	0.191363	0.447535
C62	C	0.941613	0.191361	0.552557
C63	C	1.126066	0.049189	0.289999
C64	C	1.003084	0.143972	0.289995
H65	H	0.318299	0.208620	0.000024
H66	H	1.237661	-0.036778	0.595316
C67	C	1.309142	-0.091894	0.458088
C68	C	1.255165	-0.050298	0.389817
H69	H	1.350859	-0.124060	0.422453
H70	H	1.341459	-0.062784	0.499028
H71	H	1.271711	-0.117057	0.499072
H72	H	1.292596	-0.025131	0.348838
H73	H	1.222846	-0.079411	0.348860
H74	H	1.176138	0.010607	0.247248
C75	C	0.787512	-0.084262	0.000069
C76	C	0.697376	-0.099061	0.000084
H77	H	0.826883	-0.126947	0.000082
H78	H	0.798392	-0.057910	-0.058120
H79	H	0.798393	-0.057902	0.058247
H80	H	0.686494	-0.125416	-0.058099
H81	H	0.686492	-0.125424	0.058278
C82	C	0.815214	-0.629986	-0.000012
C83	C	0.886428	-0.684564	-0.000008
H84	H	0.758987	-0.649102	-0.000029
H85	H	0.819164	-0.601936	0.058172
H86	H	0.819188	-0.601913	-0.058195
H87	H	0.882458	-0.712634	0.058179
H88	H	0.882476	-0.712625	-0.058198
C89	C	1.179512	-0.071602	0.742450
C90	C	1.193693	-0.002902	0.767813
H91	H	1.221240	-0.103765	0.778086
H92	H	1.119383	-0.079257	0.759675
H93	H	1.188313	-0.078379	0.672387
H94	H	1.184886	0.003877	0.837876
H95	H	1.253837	0.004756	0.750595
H96	H	0.953003	0.182561	0.247247
H97	H	0.921003	-0.100377	0.000049
C98	C	0.845452	-0.217936	0.085805
C99	C	0.894881	-0.240522	0.000043
H100	H	0.789221	-0.237047	0.085790
H101	H	0.878972	-0.233270	0.143981
H102	H	0.834626	-0.168171	0.085794
H103	H	0.905713	-0.290287	0.000057
H104	H	0.861354	-0.225192	-0.058148
H105	H	1.208174	-0.706452	0.000019
C106	C	0.294548	-0.045132	-0.085678
C107	C	0.347940	-0.040451	0.000086
H108	H	0.270115	-0.088762	-0.085667
H109	H	0.246544	-0.007875	-0.085672
H110	H	0.330781	-0.041945	-0.143859
H111	H	0.311706	-0.043632	0.058267
H112	H	0.395951	-0.077718	0.000090
H113	H	0.618933	0.276821	-0.000009
C114	C	0.885130	-0.489305	-0.085755
C115	C	0.889342	-0.531693	0.000013
H116	H	0.829839	-0.459006	-0.085760
H117	H	0.934665	-0.462107	-0.085740
H118	H	0.888014	-0.518058	-0.143933
H119	H	0.886464	-0.502940	0.058192
H120	H	0.839793	-0.558893	0.000007
H121	H	0.810884	-0.015466	0.000056
H122	H	0.448345	0.274293	-0.000005
C123	C	0.446595	-0.106639	-0.085682
C124	C	0.499980	-0.101966	0.000089
H125	H	0.422154	-0.150266	-0.085679
H126	H	0.398597	-0.069378	-0.085680
H127	H	0.482835	-0.103455	-0.143858
H128	H	0.463738	-0.105146	0.058265
H129	H	0.547985	-0.139238	0.000096
C130	C	1.305513	-0.620880	0.000026
C131	C	1.234298	-0.566302	0.000039
H132	H	1.361739	-0.601763	0.000017
H133	H	1.301556	-0.648949	0.058204
H134	H	1.301547	-0.648933	-0.058163
H135	H	1.238260	-0.538251	0.058232
H136	H	1.238257	-0.538221	-0.058145
H137	H	0.770981	0.215294	0.000005
H138	H	1.219140	-0.130295	0.000105
C139	C	1.312857	-0.235043	0.000114
C140	C	1.239836	-0.275143	0.000093
H141	H	1.368140	-0.265351	0.000132
H142	H	1.309997	-0.206290	-0.058066
H143	H	1.309962	-0.206299	0.058301
H144	H	1.242728	-0.303884	-0.058098
H145	H	1.242698	-0.303908	0.058279
H146	H	0.891533	0.229951	0.404768
H147	H	0.891548	0.229945	0.595318
H148	H	0.953055	0.182556	0.752855
