data_functionalizedCrystal
_audit_creation_method	'MofGen! by Chris Wilmer'
_symmetry_space_group_name_H-M	'P1'
_symmetry_Int_Tables_number	1
_symmetry_cell_setting	triclinic
loop_
_symmetry_equiv_pos_as_xyz
  x,y,z
_cell_length_a	12.837943
_cell_length_b	15.021413
_cell_length_c	12.837942
_cell_angle_alpha	89.995022
_cell_angle_beta	94.828940
_cell_angle_gamma	90.007011
loop_
_atom_site_label
_atom_site_type_symbol
_atom_site_fract_x
_atom_site_fract_y
_atom_site_fract_z
O1	O	1.402340	0.074015	0.272127
O2	O	1.099207	0.074021	0.258684
O3	O	1.244052	0.074013	0.113839
O4	O	1.257495	0.074023	0.416972
O5	O	1.244029	-0.074052	0.113859
O6	O	1.099183	-0.074044	0.258704
O7	O	1.402317	-0.074049	0.272147
Zn8	Zn	1.250746	-0.097555	0.265429
Zn9	Zn	1.250777	0.097526	0.265402
O10	O	1.257472	-0.074041	0.416993
C11	C	1.060126	-0.000011	0.254153
C12	C	0.943711	-0.000009	0.240608
N13	N	1.250733	-0.230692	0.265447
C14	C	0.718837	-0.000016	0.403437
C15	C	0.609454	-0.000015	0.390716
C16	C	0.615562	-0.000012	0.202445
C17	C	0.724944	-0.000013	0.215166
C18	C	0.776578	-0.000014	0.315666
C19	C	0.885962	-0.000008	0.328386
C20	C	0.892067	-0.000012	0.140116
C21	C	0.782685	-0.000011	0.127395
C22	C	1.183742	-0.470372	0.332388
C23	C	1.280341	-0.529707	0.362050
C24	C	1.250757	-0.412299	0.265424
C25	C	1.154186	-0.529706	0.235788
C26	C	1.250772	-0.587723	0.265403
C27	C	1.347409	-0.470328	0.295137
C28	C	1.221187	-0.470321	0.168829
C29	C	1.317851	-0.529630	0.198457
C30	C	1.250747	-0.311242	0.265439
C31	C	1.250793	-0.688778	0.265388
C32	C	1.441398	-0.000015	0.276679
C33	C	1.557813	-0.000011	0.290223
C34	C	1.239499	-0.000019	0.074780
C35	C	1.225954	-0.000017	-0.041635
N36	N	1.250798	0.230664	0.265376
C37	C	1.388784	-0.000001	-0.266510
C38	C	1.376062	0.000000	-0.375892
C39	C	1.187791	-0.000006	-0.369785
C40	C	1.200513	-0.000007	-0.260402
C41	C	1.301012	-0.000007	-0.208769
C42	C	1.313732	-0.000015	-0.099384
C43	C	1.125462	-0.000014	-0.093279
C44	C	1.112741	-0.000013	-0.202661
C45	C	1.262025	-0.000007	0.456052
C46	C	1.275569	-0.000003	0.572467
H47	H	0.928000	-0.000010	0.410218
H48	H	0.760878	-0.000015	0.485268
H49	H	0.740630	-0.000021	0.045571
H50	H	1.470614	-0.000009	-0.224469
C51	C	1.107275	-0.435210	0.408960
C52	C	1.123993	-0.458676	0.525942
C53	C	1.047533	-0.423513	0.602516
C54	C	0.954354	-0.364883	0.562108
C55	C	0.937631	-0.341414	0.445121
C56	C	1.014092	-0.376577	0.368547
H57	H	1.192973	-0.502080	0.555859
H58	H	1.059912	-0.440887	0.689118
H59	H	0.897753	-0.338853	0.618793
H60	H	0.868651	-0.298010	0.415203
H61	H	1.001712	-0.359204	0.281945
C62	C	1.314136	-0.564955	0.472392
C63	C	1.239894	-0.624942	0.529317
C64	C	1.273674	-0.660187	0.639661
C65	C	1.381695	-0.635443	0.693081
C66	C	1.455943	-0.575453	0.636156
C67	C	1.422163	-0.540209	0.525811
H68	H	1.159925	-0.643262	0.489772
H69	H	1.218710	-0.704596	0.681801
H70	H	1.406701	-0.661533	0.774765
H71	H	1.535913	-0.557134	0.675700
H72	H	1.477127	-0.495800	0.483672
H73	H	1.447536	0.000007	-0.422901
H74	H	0.573502	-0.000085	0.120623
H75	H	1.105969	0.000003	-0.411844
H76	H	1.196136	-0.444216	0.087172
C77	C	1.002198	-0.000011	-0.259467
C78	C	0.967556	-0.076893	-0.333825
C79	C	0.857012	-0.076892	-0.390630
C80	C	0.781109	-0.000008	-0.373077
C81	C	0.815749	0.076880	-0.298716
C82	C	0.926294	0.076879	-0.241911
H83	H	1.023745	-0.133812	-0.346822
H84	H	0.831369	-0.133810	-0.445678
H85	H	0.699277	-0.000007	-0.415128
H86	H	0.759560	0.133799	-0.285719
H87	H	0.951936	0.133797	-0.186864
H88	H	0.939092	-0.000004	0.068646
C89	C	1.043850	-0.564940	0.201928
C90	C	0.951699	-0.541553	0.266330
C91	C	0.841362	-0.576784	0.232480
C92	C	0.823177	-0.635402	0.134229
C93	C	0.915331	-0.658792	0.069821
C94	C	1.025667	-0.623561	0.103671
H95	H	0.965158	-0.498157	0.339067
H96	H	0.773144	-0.559468	0.280160
H97	H	0.741499	-0.661482	0.109172
H98	H	0.901871	-0.702188	-0.002916
H99	H	1.093886	-0.640877	0.055992
H100	H	0.562446	-0.000019	0.462189
H101	H	1.429111	-0.444356	0.320291
H102	H	1.395564	-0.000017	-0.057346
C103	C	1.394506	-0.564568	0.121946
C104	C	1.511431	-0.540899	0.138691
C105	C	1.588088	-0.575840	0.062185
C106	C	1.547821	-0.634450	-0.031066
C107	C	1.430890	-0.658122	-0.047815
C108	C	1.354233	-0.623181	0.028691
H109	H	1.541244	-0.497510	0.207724
H110	H	1.674648	-0.558316	0.074584
H111	H	1.604567	-0.660315	-0.087700
H112	H	1.401077	-0.701512	-0.116849
H113	H	1.267673	-0.640706	0.016291
H114	H	1.053992	-0.000026	-0.046254
