data_functionalizedCrystal
_audit_creation_method	'MofGen! by Chris Wilmer'
_symmetry_space_group_name_H-M	'P1'
_symmetry_Int_Tables_number	1
_symmetry_cell_setting	triclinic
loop_
_symmetry_equiv_pos_as_xyz
  x,y,z
_cell_length_a	20.875641
_cell_length_b	31.640172
_cell_length_c	20.875625
_cell_angle_alpha	61.735875
_cell_angle_beta	92.966338
_cell_angle_gamma	57.590465
loop_
_atom_site_label
_atom_site_type_symbol
_atom_site_fract_x
_atom_site_fract_y
_atom_site_fract_z
Zr1	Zr	0.638166	0.431808	-0.060884
O2	O	0.526094	0.525412	-0.167442
O3	O	0.672528	0.341963	-0.028202
O4	O	0.665294	0.430497	-0.162312
O5	O	0.539028	0.436601	0.072437
O6	O	0.775092	0.425187	-0.158283
O7	O	0.533327	0.436878	-0.033332
O8	O	0.788031	0.266815	0.081614
O9	O	0.526089	0.594972	-0.167460
O10	O	0.769117	0.373562	-0.011277
O11	O	0.691430	0.377318	0.064652
O12	O	0.682914	0.481556	-0.093245
O13	O	0.605227	0.485312	-0.017317
Zr14	Zr	0.822373	0.422897	0.114231
Zr15	Zr	0.813281	0.423339	-0.054459
Zr16	Zr	0.647258	0.431366	0.107806
Zr17	Zr	0.638158	0.542748	-0.060913
Zr18	Zr	0.822382	0.311956	0.114261
O19	O	0.788012	0.512742	0.081550
O20	O	0.775085	0.513370	-0.158306
O21	O	0.539021	0.524784	0.072414
O22	O	0.934445	0.329293	0.220789
O23	O	0.921519	0.329921	-0.019066
O24	O	0.685454	0.341335	0.211654
O25	O	0.921511	0.418104	-0.019090
O26	O	0.795245	0.424208	0.215659
O27	O	0.685447	0.429518	0.211631
O28	O	0.927212	0.417827	0.086680
O29	O	0.665282	0.588240	-0.162353
O30	O	0.795258	0.266464	0.215701
O31	O	0.934451	0.259733	0.220808
O32	O	0.927224	0.260084	0.086721
O33	O	0.533315	0.594621	-0.033374
O34	O	0.672508	0.587889	-0.028267
O35	O	0.777625	0.373149	0.146593
O36	O	0.855312	0.369393	0.070664
O37	O	0.769109	0.477386	-0.011304
O38	O	0.691422	0.481143	0.064624
C39	C	0.730281	0.288582	0.026710
C40	C	0.730284	0.241485	0.026723
C41	C	0.511228	0.437946	0.018637
C42	C	0.436887	0.441541	0.015909
C43	C	0.446956	0.386860	0.057410
C44	C	0.377102	0.390242	0.054846
C45	C	0.297179	0.448305	0.010775
C46	C	0.287111	0.502990	-0.030727
C47	C	0.356965	0.499608	-0.028158
C48	C	0.083438	0.464466	-0.001494
C49	C	0.013583	0.467845	-0.004063
C50	C	0.103579	0.355096	0.081512
C51	C	0.173430	0.351718	0.084074
C52	C	0.163356	0.406403	0.042575
N53	N	0.225776	0.451764	0.008150
N54	N	0.234759	0.402944	0.045205
C55	C	0.666639	-0.009110	-0.033839
C56	C	0.666631	-0.186091	-0.033861
O57	O	0.612533	-0.173768	-0.085334
N58	N	0.730262	-0.249621	0.026638
C59	C	0.793903	-0.268907	0.087144
O60	O	0.848029	-0.327004	0.138598
C61	C	0.793913	-0.091926	0.087162
C62	C	0.730273	-0.028396	0.026664
C63	C	0.603004	0.054417	-0.094334
C64	C	0.603004	0.098659	-0.094325
C65	C	0.666639	0.079374	-0.033822
C66	C	0.730273	0.015847	0.026672
C67	C	0.857556	-0.111212	0.147665
C68	C	0.857554	-0.066961	0.147663
C69	C	0.793914	-0.003430	0.087164
C70	C	0.793907	0.040804	0.087183
N71	N	0.730276	0.104334	0.026684
C72	C	0.666642	0.123619	-0.033819
C73	C	0.793892	-0.361821	0.087131
C74	C	0.793889	-0.406066	0.087128
C75	C	0.666618	-0.323247	-0.033879
C76	C	0.666619	-0.279002	-0.033871
C77	C	0.730261	-0.298291	0.026632
C78	C	0.666646	0.216528	-0.033796
C79	C	0.666650	0.260770	-0.033780
C80	C	0.793923	0.177948	0.087224
C81	C	0.793917	0.133709	0.087211
C82	C	0.730275	0.153004	0.026694
O83	O	0.847982	0.028526	0.138624
O84	O	0.612533	0.181718	-0.085274
C85	C	0.666638	-0.053353	-0.033848
C86	C	0.730273	-0.116880	0.026647
C87	C	0.793907	-0.136165	0.087149
C88	C	0.730270	-0.161125	0.026643
C89	C	0.666635	-0.141840	-0.033860
C90	C	0.603004	-0.078310	-0.094359
C91	C	0.603004	-0.034067	-0.094351
C92	C	0.857538	-0.199695	0.147649
C93	C	0.857532	-0.243934	0.147636
C94	C	0.793898	-0.224649	0.087133
C95	C	0.949312	0.416759	0.034711
C96	C	1.023653	0.413164	0.037438
C97	C	0.718898	0.427905	-0.184332
C98	C	0.715038	0.428092	-0.255946
C99	C	0.730259	0.566122	0.026637
C100	C	0.730255	0.613219	0.026625
C101	C	0.773713	0.425256	-0.287370
C102	C	0.770089	0.425426	-0.354655
C103	C	0.707786	0.428438	-0.390516
C104	C	0.649108	0.431273	-0.359086
C105	C	0.652736	0.431098	-0.291799
C106	C	0.690451	0.429272	-0.591990
C107	C	0.686826	0.429449	-0.659282
C108	C	0.807809	0.423601	-0.654846
C109	C	0.811428	0.423430	-0.587561
C110	C	0.752753	0.426261	-0.556133
N111	N	0.704078	0.428615	-0.459293
N112	N	0.756465	0.426080	-0.487354
C113	C	0.741641	0.426800	0.237680
C114	C	0.745501	0.426612	0.309293
C115	C	0.949323	0.277989	0.034747
C116	C	1.023667	0.227297	0.037487
C117	C	0.741653	0.288030	0.237716
C118	C	0.745516	0.240745	0.309342
C119	C	0.960695	0.277437	0.245753
C120	C	1.038899	0.226557	0.320106
C121	C	0.499845	0.577268	-0.192405
C122	C	0.421640	0.628148	-0.266759
C123	C	0.511216	0.576716	0.018600
C124	C	0.436872	0.627408	0.015860
C125	C	0.718887	0.566675	-0.184369
C126	C	0.715023	0.613959	-0.255994
C127	C	1.013587	0.205667	-0.004006
C128	C	1.083434	0.158043	-0.001447
C129	C	1.163361	0.132045	0.042609
C130	C	1.173440	0.153679	0.084103
C131	C	1.103593	0.201306	0.081540
C132	C	0.792323	0.216363	0.385758
C133	C	0.795951	0.171941	0.453064
C134	C	0.752774	0.151897	0.443953
C135	C	0.705961	0.176284	0.367529
C136	C	0.702330	0.220709	0.300225
C137	C	1.116183	0.200702	0.315390
C138	C	1.189671	0.152900	0.385247
C139	C	1.185872	0.130952	0.459819
C140	C	1.108579	0.156811	0.464534
C141	C	1.035093	0.204615	0.394678
C142	C	0.344356	0.654008	-0.262043
C143	C	0.270868	0.701823	-0.331899
C144	C	0.274667	0.723774	-0.406472
C145	C	0.351960	0.697912	-0.411186
C146	C	0.425446	0.650101	-0.341330
C147	C	0.446952	0.649042	0.057346
C148	C	0.377103	0.696679	0.054769
C149	C	0.297176	0.722678	0.010710
C150	C	0.287098	0.701042	-0.030780
C151	C	0.356945	0.653409	-0.028207
C152	C	0.758209	0.633988	-0.246858
C153	C	0.754596	0.678411	-0.314151
C154	C	0.707791	0.702807	-0.390580
C155	C	0.664604	0.682774	-0.399715
C156	C	0.668223	0.638349	-0.332422
H157	H	0.512030	0.339578	0.093301
H158	H	0.824444	0.422807	-0.258179
O159	O	0.834154	0.235896	0.394652
C160	C	0.804936	0.262897	0.435009
H161	H	0.739437	0.279342	0.426997
H162	H	0.803654	0.304288	0.409438
H163	H	0.848087	0.226897	0.501224
H164	H	0.598382	0.433722	-0.388285
O165	O	0.872275	0.420142	-0.552523
C166	C	0.920684	0.366159	-0.472920
H167	H	0.882692	0.351076	-0.451272
H168	H	0.939725	0.376532	-0.433627
H169	H	0.978778	0.327218	-0.469489
H170	H	0.614805	-0.307551	-0.083143
O171	O	0.541144	0.027618	-0.153202
C172	C	0.484976	0.035140	-0.206586
H173	H	0.517723	-0.009222	-0.202609
H174	H	0.462067	0.075839	-0.270012
H175	H	0.429719	0.044885	-0.190308
H176	H	0.845731	0.081978	0.136481
H177	H	0.075225	0.508995	-0.035300
O178	O	0.229269	0.768896	0.008236
C179	C	0.184240	0.749451	0.039307
H180	H	0.199204	0.711090	0.034275
H181	H	0.114718	0.790613	0.004105
H182	H	0.202386	0.730928	0.104664
O183	O	1.073671	0.137082	-0.041848
C184	C	1.108397	0.146206	-0.098294
H185	H	1.110794	0.184875	-0.113508
H186	H	1.068376	0.159863	-0.154676
H187	H	1.174098	0.101260	-0.072345
O188	O	0.796418	0.697979	-0.305372
C189	C	0.739537	0.762735	-0.343844
H190	H	0.680774	0.784349	-0.391784
H191	H	0.768964	0.784238	-0.372572
H192	H	0.722878	0.771983	-0.298288
H193	H	1.220228	0.093264	0.044691
O194	O	0.209511	0.559429	-0.073655
C195	C	0.196226	0.593031	-0.154423
H196	H	0.258746	0.574596	-0.158843
H197	H	0.158117	0.644456	-0.181034
H198	H	0.161071	0.587214	-0.188703
H199	H	0.385308	0.345715	0.088642
H200	H	1.105498	0.138934	0.525260
O201	O	0.919419	-0.085805	0.206519
C202	C	0.975593	-0.151367	0.259898
H203	H	0.942850	-0.170085	0.255918
H204	H	0.998504	-0.166506	0.323326
H205	H	1.030848	-0.170523	0.243615
H206	H	0.385326	0.714286	0.088559
O207	O	0.209501	0.726192	-0.073511
C208	C	0.202171	0.679327	-0.043508
H209	H	0.266675	0.631938	-0.011030
H210	H	0.162706	0.687917	-0.094997
H211	H	0.171206	0.680231	-0.000238
H212	H	0.614793	-0.227274	-0.083131
H213	H	1.119292	0.218565	0.254676
O214	O	0.347256	0.632282	-0.068381
C215	C	0.387926	0.568312	-0.014071
H216	H	0.438465	0.547096	0.041906
H217	H	0.417313	0.543958	-0.042819
H218	H	0.340887	0.562156	0.002613
O219	O	0.619020	0.706491	-0.473922
C220	C	0.535053	0.736171	-0.485634
H221	H	0.531313	0.716357	-0.425318
H222	H	0.506934	0.727841	-0.522001
H223	H	0.499013	0.788314	-0.519052
O224	O	1.251144	0.128332	0.126892
C225	C	1.310620	0.081667	0.120237
H226	H	1.282563	0.063685	0.104058
H227	H	1.367581	0.041672	0.179570
H228	H	1.329812	0.101908	0.071703
O229	O	0.919397	-0.218540	0.206505
C230	C	0.975563	-0.284101	0.259883
H231	H	0.942816	-0.302815	0.255894
H232	H	0.998469	-0.299243	0.323313
H233	H	1.030822	-0.303261	0.243606
H234	H	1.245715	0.092027	0.516694
O235	O	0.803749	0.610337	-0.172676
C236	C	0.841070	0.637558	-0.179059
H237	H	0.846299	0.655539	-0.238799
H238	H	0.905809	0.601228	-0.128514
H239	H	0.801285	0.677916	-0.175026
O240	O	0.604717	0.235316	-0.092519
C241	C	0.527488	0.273188	-0.091659
H242	H	0.537813	0.262404	-0.029928
H243	H	0.485670	0.263514	-0.106476
H244	H	0.496533	0.324269	-0.137878
O245	O	0.704428	0.745899	-0.455882
C246	C	0.785373	0.720348	-0.452784
H247	H	0.832893	0.680403	-0.388318
H248	H	0.792147	0.757810	-0.477240
H249	H	0.796532	0.702172	-0.490289
H250	H	0.972168	0.225660	0.398529
O251	O	0.626184	0.618932	-0.341220
C252	C	0.568090	0.632591	-0.307004
H253	H	0.588564	0.637083	-0.260466
H254	H	0.564472	0.593484	-0.277339
H255	H	0.504260	0.678251	-0.355537
O256	O	0.626230	0.432480	-0.694225
C257	C	0.577765	0.486310	-0.773937
H258	H	0.583297	0.522035	-0.780816
H259	H	0.509874	0.506872	-0.790303
H260	H	0.600931	0.473551	-0.815149
H261	H	1.111813	0.218910	0.115333
H262	H	0.238502	0.304437	0.119946
O263	O	0.203336	0.770155	-0.474381
C264	C	0.201011	0.748640	-0.519445
H265	H	0.267034	0.707813	-0.502343
H266	H	0.171768	0.787853	-0.585671
H267	H	0.162352	0.732856	-0.506761
O268	O	0.340505	0.632788	-0.189673
C269	C	0.256526	0.665867	-0.200507
H270	H	0.216041	0.712677	-0.261934
H271	H	0.249395	0.673844	-0.152613
H272	H	0.236235	0.637831	-0.195734
H273	H	0.755738	0.115723	0.498764
O274	O	0.113215	0.302039	0.121809
C275	C	0.034425	0.317471	0.110078
H276	H	-0.012698	0.366328	0.093190
H277	H	0.038285	0.282672	0.167465
H278	H	0.013975	0.315890	0.060095
O279	O	-0.064118	0.524200	-0.046862
C280	C	-0.123609	0.515456	-0.040216
H281	H	-0.095565	0.467524	-0.024038
H282	H	-0.180566	0.552826	-0.099552
H283	H	-0.142801	0.518948	0.008315
H284	H	0.948512	0.226834	-0.039891
O285	O	0.633366	0.432058	-0.561593
C286	C	0.577611	0.434741	-0.607667
H287	H	0.577133	0.453589	-0.669841
H288	H	0.512384	0.466760	-0.612567
H289	H	0.598228	0.386046	-0.577850
O290	O	0.841303	0.148316	0.527308
C291	C	0.788634	0.161669	0.566691
H292	H	0.721832	0.203683	0.520662
H293	H	0.809186	0.172400	0.604562
H294	H	0.792293	0.119723	0.606697
O295	O	0.664117	0.156712	0.358829
C296	C	0.677361	0.112279	0.434626
H297	H	0.737525	0.090038	0.481342
H298	H	0.682256	0.074798	0.434095
H299	H	0.623012	0.136069	0.449733
O300	O	0.355792	0.719119	-0.483564
C301	C	0.439762	0.686000	-0.472759
H302	H	0.480272	0.665876	-0.411401
H303	H	0.446883	0.718812	-0.520761
H304	H	0.460031	0.646532	-0.477380
H305	H	0.664217	0.240555	0.238006
O306	O	1.264677	0.127832	0.380514
C307	C	1.252263	0.157464	0.299713
H308	H	1.187992	0.178802	0.261553
H309	H	1.301850	0.121872	0.292175
H310	H	1.256909	0.195677	0.280074
H311	H	0.348761	0.544135	-0.061943
O312	O	0.195774	0.727031	-0.327350
C313	C	0.150828	0.791213	-0.365395
H314	H	0.195978	0.801146	-0.366844
H315	H	0.114142	0.805695	-0.331117
H316	H	0.106020	0.818696	-0.428986
H317	H	0.604958	0.433407	-0.266213
H318	H	0.855580	0.421294	-0.680439
H319	H	0.845731	0.162255	0.136485
H320	H	0.512026	0.627877	0.093229
O321	O	0.604934	0.322500	-0.092572
C322	C	0.639654	0.348710	-0.133859
H323	H	0.707747	0.318771	-0.093880
H324	H	0.604052	0.397768	-0.150999
H325	H	0.635238	0.350785	-0.190082
O326	O	0.541146	0.160344	-0.153178
C327	C	0.484979	0.167866	-0.206564
H328	H	0.517726	0.123503	-0.202583
H329	H	0.462074	0.208563	-0.269990
H330	H	0.429720	0.177615	-0.190289
O331	O	0.541259	0.073097	-0.153117
C332	C	0.575905	0.048118	-0.194412
H333	H	0.638921	0.036688	-0.186497
H334	H	0.532487	0.083606	-0.260542
H335	H	0.584323	0.003864	-0.169591
O336	O	0.855786	-0.467753	0.145942
C337	C	0.911936	-0.475277	0.199350
H338	H	0.907360	-0.432276	0.167845
H339	H	0.978042	-0.518061	0.220555
H340	H	0.895812	-0.481580	0.252835
O341	O	0.919283	-0.172923	0.206492
C342	C	0.884582	-0.199154	0.247771
H343	H	0.821538	-0.161032	0.239765
H344	H	0.927940	-0.235649	0.313919
H345	H	0.876208	-0.221992	0.223011
O346	O	0.855610	-0.380487	0.145930
C347	C	0.820894	-0.355529	0.187226
H348	H	0.752803	-0.312323	0.147248
H349	H	0.856503	-0.342370	0.204382
H350	H	0.825303	-0.391710	0.243441
O351	O	0.541153	-0.059641	-0.153024
C352	C	0.498813	-0.080887	-0.118971
H353	H	0.541235	-0.122854	-0.053893
H354	H	0.480520	-0.094885	-0.153048
H355	H	0.440447	-0.042106	-0.122434
H356	H	0.488372	0.629046	-0.345180
H357	H	0.909356	-0.295665	0.196908
H358	H	0.817867	0.423116	-0.380240
