data_functionalizedCrystal
_audit_creation_method	'MofGen! by Chris Wilmer'
_symmetry_space_group_name_H-M	'P1'
_symmetry_Int_Tables_number	1
_symmetry_cell_setting	triclinic
loop_
_symmetry_equiv_pos_as_xyz
  x,y,z
_cell_length_a	16.120444
_cell_length_b	12.759401
_cell_length_c	12.759393
_cell_angle_alpha	89.981425
_cell_angle_beta	92.863572
_cell_angle_gamma	92.926867
loop_
_atom_site_label
_atom_site_type_symbol
_atom_site_fract_x
_atom_site_fract_y
_atom_site_fract_z
Zn1	Zn	-0.331848	1.584964	-0.615154
Zn2	Zn	-0.471287	1.575912	-0.448369
Zn3	Zn	-0.331893	1.409263	-0.439496
Zn4	Zn	-0.471223	1.400313	-0.624006
O5	O	-0.401563	1.492613	-0.531756
O6	O	-0.350353	1.730784	-0.593039
O7	O	-0.452841	1.553764	-0.300174
O8	O	-0.215221	1.440105	-0.455379
O9	O	-0.452798	1.724134	-0.470503
O10	O	-0.215188	1.569191	-0.584434
O11	O	-0.350429	1.431327	-0.293655
O12	O	-0.350367	1.261056	-0.463963
O13	O	-0.452689	1.424849	-0.769850
O14	O	-0.452732	1.254480	-0.599522
O15	O	-0.350291	1.560512	-0.763347
O16	O	-0.587944	1.545085	-0.479086
O17	O	-0.587897	1.416072	-0.608126
C18	C	-0.401548	1.219647	-0.531741
C19	C	-0.401562	1.102869	-0.531760
C20	C	-0.348315	1.051464	-0.595674
C21	C	-0.348324	0.941740	-0.595682
C22	C	-0.454833	0.934834	-0.467858
C23	C	-0.454820	1.044557	-0.467846
C24	C	-0.250055	0.798124	-0.627182
C25	C	-0.196815	0.746715	-0.691113
C26	C	-0.184107	0.783187	-0.792841
C27	C	-0.224650	0.871066	-0.830659
C28	C	-0.277896	0.922469	-0.766734
C29	C	-0.290588	0.885999	-0.664990
C30	C	-0.553090	1.188174	-0.436357
C31	C	-0.606340	1.239579	-0.372437
C32	C	-0.619057	1.203109	-0.270708
C33	C	-0.578528	1.115226	-0.232894
C34	C	-0.525278	1.063821	-0.296815
C35	C	-0.512560	1.100299	-0.398543
C36	C	-0.618171	1.478654	-0.545552
C37	C	-0.710836	1.472778	-0.551490
C38	C	-0.921781	1.523352	-0.501183
C39	C	-0.880493	1.462069	-0.562340
C40	C	-0.786087	1.468029	-0.556301
C41	C	-1.016195	1.517393	-0.507221
C42	C	-0.184109	1.506656	-0.517930
C43	C	-0.091443	1.512640	-0.512037
C44	C	-0.401478	1.492692	-0.805785
C45	C	-0.401442	1.492726	-0.922559
C46	C	-0.401578	1.766645	-0.531773
C47	C	-0.401584	1.883422	-0.531780
C48	C	-0.348107	1.428998	-0.974025
C49	C	-0.348081	1.429024	-1.083748
C50	C	-0.454729	1.556514	-1.090528
C51	C	-0.454758	1.556482	-0.980808
C52	C	-0.318245	1.307088	-1.231797
C53	C	-0.264896	1.243370	-1.283266
C54	C	-0.183556	1.232484	-1.242488
C55	C	-0.155548	1.285333	-1.150241
C56	C	-0.208893	1.349059	-1.098777
C57	C	-0.290244	1.359924	-1.139555
C58	C	-0.484586	1.678420	-0.832756
C59	C	-0.537927	1.742152	-0.781290
C60	C	-0.619268	1.753049	-0.822066
C61	C	-0.647273	1.700219	-0.914316
C62	C	-0.593932	1.636487	-0.965782
C63	C	-0.512591	1.625589	-0.924999
C64	C	-0.401586	1.492599	-0.258791
C65	C	-0.401387	1.492784	-0.142002
H66	H	-0.304947	1.098940	-0.647714
H67	H	-0.886233	1.580289	-0.444293
C68	C	-0.928520	1.385136	-0.639195
N69	N	-0.964699	1.327188	-0.697075
C70	C	-0.289464	1.358855	-0.909956
N71	N	-0.245296	1.306017	-0.861702
H72	H	-0.186088	1.392092	-1.023675
H73	H	-0.515114	1.785181	-0.706182
H74	H	-0.384481	1.315932	-1.265000
H75	H	-0.287707	1.200340	-1.358375
C76	C	-0.066064	1.273362	-1.105396
N77	N	0.001336	1.264341	-1.071614
C78	C	-0.650936	1.336241	-0.414044
N79	N	-0.684526	1.409044	-0.445384
H80	H	-0.214306	0.900747	-0.913500
H81	H	-0.140119	1.180603	-1.284402
H82	H	-0.498136	1.608424	-1.137968
C83	C	-0.624742	1.578366	-1.067258
N84	N	-0.647949	1.534589	-1.143687
C85	C	-0.677941	1.823162	-0.765449
N86	N	-0.722135	1.875967	-0.722807
H87	H	-0.713506	1.709095	-0.947521
H88	H	-0.662442	1.244950	-0.218678
H89	H	-0.542733	1.217884	-0.519191
H90	H	-0.310902	0.994021	-0.797522
C91	C	-0.125536	0.726639	-0.863159
N92	N	-0.081415	0.684047	-0.916116
C93	C	-0.480692	0.967150	-0.255213
N94	N	-0.447109	0.894339	-0.223879
C95	C	-0.152209	0.650061	-0.649503
N96	N	-0.118611	0.577263	-0.618166
C97	C	-0.264022	0.758004	-0.515270
N98	N	-0.274543	0.727778	-0.430978
C99	C	-0.395108	1.666427	-0.787885
N100	N	-0.327714	1.657395	-0.754086
H101	H	-0.588887	1.085526	-0.150060
C102	C	-0.513418	0.870680	-0.397564
N103	N	-0.557548	0.822360	-0.344619
