data_functionalizedCrystal
_audit_creation_method	'MofGen! by Chris Wilmer'
_symmetry_space_group_name_H-M	'P1'
_symmetry_Int_Tables_number	1
_symmetry_cell_setting	triclinic
loop_
_symmetry_equiv_pos_as_xyz
  x,y,z
_cell_length_a	12.759401
_cell_length_b	29.839131
_cell_length_c	12.759393
_cell_angle_alpha	89.955530
_cell_angle_beta	89.979062
_cell_angle_gamma	90.036753
loop_
_atom_site_label
_atom_site_type_symbol
_atom_site_fract_x
_atom_site_fract_y
_atom_site_fract_z
Zn1	Zn	1.606117	-0.178813	-0.593918
Zn2	Zn	1.605945	-0.253950	-0.418195
Zn3	Zn	1.430415	-0.178837	-0.418253
Zn4	Zn	1.430344	-0.253919	-0.593833
O5	O	1.518205	-0.216380	-0.506050
O6	O	1.753115	-0.188784	-0.570620
O7	O	1.582618	-0.244010	-0.271182
O8	O	1.453824	-0.115967	-0.441616
O9	O	1.752988	-0.243986	-0.441517
O10	O	1.582911	-0.115949	-0.570676
O11	O	1.453657	-0.188824	-0.271224
O12	O	1.283385	-0.188794	-0.441533
O13	O	1.453703	-0.243933	-0.740865
O14	O	1.283333	-0.243956	-0.570530
O15	O	1.582842	-0.188753	-0.740928
O16	O	1.582549	-0.316813	-0.441434
O17	O	1.453536	-0.316790	-0.570474
C18	C	1.245238	-0.216375	-0.506029
C19	C	1.128461	-0.216383	-0.506045
C20	C	1.073599	-0.245150	-0.573108
C21	C	0.963875	-0.245151	-0.573129
C22	C	0.963884	-0.187618	-0.439014
C23	C	1.073606	-0.187615	-0.439000
C24	C	1.518045	-0.333103	-0.505961
C25	C	1.518072	-0.383037	-0.505958
C26	C	1.585406	-0.692636	-0.573347
C27	C	1.585520	-0.880309	-0.573410
O28	O	1.642613	-0.904537	-0.630641
N29	N	1.518384	-0.903822	-0.506166
C30	C	1.451209	-0.880414	-0.438907
O31	O	1.394100	-0.904719	-0.381721
C32	C	1.451090	-0.692741	-0.438850
C33	C	1.518239	-0.669231	-0.506091
C34	C	1.652548	-0.669126	-0.640583
C35	C	1.652523	-0.622211	-0.640563
C36	C	1.585356	-0.598805	-0.573306
C37	C	1.518214	-0.622316	-0.506070
C38	C	1.383911	-0.669334	-0.371596
C39	C	1.383885	-0.622413	-0.371590
C40	C	1.451034	-0.598903	-0.438831
C41	C	1.451021	-0.551995	-0.438793
N42	N	1.518158	-0.528482	-0.506037
C43	C	1.585325	-0.551888	-0.573293
C44	C	1.451277	-0.978944	-0.438940
C45	C	1.451308	-1.025862	-0.438953
C46	C	1.585618	-1.025755	-0.573458
C47	C	1.585592	-0.978836	-0.573439
C48	C	1.518414	-0.955432	-0.506184
C49	C	1.585268	-0.453362	-0.573245
C50	C	1.585240	-0.406442	-0.573215
C51	C	1.450926	-0.406554	-0.438714
C52	C	1.450958	-0.453469	-0.438739
C53	C	1.518132	-0.476872	-0.506013
O54	O	1.393950	-0.527739	-0.381601
O55	O	1.642409	-0.527574	-0.630487
C56	C	1.585431	-0.739552	-0.573368
C57	C	1.518289	-0.763062	-0.506132
C58	C	1.451122	-0.739657	-0.438875
C59	C	1.518320	-0.809980	-0.506144
C60	C	1.585487	-0.833385	-0.573401
C61	C	1.652624	-0.809872	-0.640645
C62	C	1.652599	-0.762957	-0.640624
C63	C	1.383985	-0.763170	-0.371631
C64	C	1.384017	-0.810085	-0.371656
C65	C	1.451184	-0.833490	-0.438913
C66	C	1.792238	-0.216386	-0.506071
C67	C	1.909015	-0.216388	-0.506081
C68	C	1.518284	-0.216337	-0.780083
C69	C	1.518317	-0.216318	-0.896860
C70	C	1.518395	-0.099202	-0.506162
C71	C	1.518475	-0.049267	-0.506209
C72	C	1.585565	-0.187582	-0.951756
C73	C	1.585583	-0.187562	-1.061481
C74	C	1.451102	-0.245020	-1.061402
C75	C	1.451080	-0.245037	-0.951680
C76	C	1.518187	-0.216391	-0.233082
C77	C	1.518357	-0.216282	-0.116306
H78	H	1.118276	-0.164187	-0.384389
C79	C	1.377041	-0.380799	-0.364740
N80	N	1.321384	-0.361399	-0.309029
C81	C	1.377360	-0.953205	-0.364960
N82	N	1.321683	-0.933821	-0.309239
H83	H	1.118259	-0.268573	-0.627703
C84	C	1.310079	-0.737430	-0.297651
N85	N	1.254408	-0.718045	-0.241926
C86	C	1.659114	-0.380584	-0.647185
N87	N	1.714755	-0.361109	-0.702899
H88	H	0.919212	-0.268576	-0.627740
H89	H	0.919208	-0.164197	-0.384427
C90	C	1.659170	-0.479098	-0.647242
N91	N	1.714839	-0.498482	-0.702971
H92	H	1.396362	-0.268403	-1.106050
H93	H	1.707198	-0.603071	-0.695319
H94	H	1.396311	-0.268438	-0.906982
C95	C	1.726453	-0.694864	-0.714569
N96	N	1.782131	-0.714247	-0.770292
C97	C	1.659563	-0.155951	-1.121862
N98	N	1.715289	-0.132139	-1.167340
C99	C	1.659455	-0.952979	-0.647413
N100	N	1.715091	-0.933506	-0.703135
H101	H	1.640310	-1.044819	-0.628220
H102	H	1.396640	-1.045000	-0.384187
C103	C	1.377097	-0.479331	-0.364766
N104	N	1.321457	-0.498807	-0.309055
C105	C	1.309984	-0.596671	-0.297600
N106	N	1.254323	-0.577283	-0.241869
C107	C	1.726507	-0.835627	-0.714629
N108	N	1.782147	-0.855028	-0.770355
C109	C	1.659519	-0.155987	-0.891458
N110	N	1.715219	-0.132186	-0.846044
C111	C	1.310142	-0.835941	-0.297681
N112	N	1.254494	-0.855414	-0.241971
H113	H	1.329232	-0.688468	-0.316841
H114	H	1.707277	-0.743818	-0.695378
