data_functionalizedCrystal
_audit_creation_method	'MofGen! by Chris Wilmer'
_symmetry_space_group_name_H-M	'P1'
_symmetry_Int_Tables_number	1
_symmetry_cell_setting	triclinic
loop_
_symmetry_equiv_pos_as_xyz
  x,y,z
_cell_length_a	29.839131
_cell_length_b	16.120297
_cell_length_c	29.839134
_cell_angle_alpha	87.131193
_cell_angle_beta	90.036281
_cell_angle_gamma	87.132273
loop_
_atom_site_label
_atom_site_type_symbol
_atom_site_fract_x
_atom_site_fract_y
_atom_site_fract_z
Zn1	Zn	-0.191811	0.471576	0.673863
Zn2	Zn	-0.263129	0.332158	0.677596
Zn3	Zn	-0.188007	0.332157	0.602547
Zn4	Zn	-0.266905	0.471498	0.598696
O5	O	-0.227463	0.401847	0.638176
O6	O	-0.201282	0.453114	0.737225
O7	O	-0.249991	0.215496	0.670815
O8	O	-0.125645	0.350683	0.612057
O9	O	-0.253680	0.350685	0.739967
O10	O	-0.128440	0.453114	0.664452
O11	O	-0.194799	0.215496	0.615676
O12	O	-0.198461	0.350608	0.539170
O13	O	-0.260116	0.588170	0.605493
O14	O	-0.256428	0.452982	0.536341
O15	O	-0.204944	0.588227	0.660718
O16	O	-0.326496	0.350610	0.667081
O17	O	-0.329271	0.452982	0.609113
C18	C	-0.344184	0.401806	0.638096
C19	C	-0.394119	0.401816	0.638102
C20	C	-0.227442	0.401787	0.521455
C21	C	-0.227445	0.401781	0.471520
C22	C	-0.233376	0.619293	0.632260
C23	C	-0.235896	0.711956	0.629739
C24	C	-0.702308	0.348620	0.668410
C25	C	-0.889982	0.348652	0.668464
O26	O	-0.913009	0.303391	0.694169
N27	N	-0.914907	0.401910	0.638267
C28	C	-0.892910	0.455168	0.608056
O29	O	-0.918417	0.500474	0.582376
C30	C	-0.705237	0.455139	0.608004
C31	C	-0.680315	0.401871	0.638200
C32	C	-0.677385	0.295357	0.698603
C33	C	-0.630470	0.295346	0.698588
C34	C	-0.608476	0.348598	0.668378
C35	C	-0.633399	0.401861	0.638184
C36	C	-0.683242	0.508400	0.577796
C37	C	-0.636321	0.508390	0.577786
C38	C	-0.611398	0.455122	0.607982
C39	C	-0.564490	0.455102	0.607959
N40	N	-0.539565	0.401844	0.638156
C41	C	-0.561558	0.348592	0.668366
C42	C	-0.991441	0.455178	0.608085
C43	C	-1.038359	0.455184	0.608097
C44	C	-1.035427	0.348669	0.668506
C45	C	-0.988509	0.348660	0.668491
C46	C	-0.966516	0.401920	0.638282
C47	C	-0.463032	0.348573	0.668331
C48	C	-0.416112	0.348564	0.668311
C49	C	-0.419048	0.455082	0.607904
C50	C	-0.465964	0.455088	0.607922
C51	C	-0.487954	0.401830	0.638139
O52	O	-0.541433	0.500346	0.582271
O53	O	-0.536044	0.303306	0.694049
C54	C	-0.749224	0.348630	0.668425
C55	C	-0.774146	0.401893	0.638231
C56	C	-0.752153	0.455145	0.608022
C57	C	-0.821064	0.401899	0.638244
C58	C	-0.843057	0.348648	0.668453
C59	C	-0.818133	0.295389	0.698650
C60	C	-0.771217	0.295379	0.698635
C61	C	-0.777078	0.508403	0.577825
C62	C	-0.823993	0.508409	0.577842
C63	C	-0.845987	0.455157	0.608052
C64	C	-0.110286	0.401907	0.638268
C65	C	-0.060352	0.401933	0.638307
C66	C	-0.221540	0.185247	0.644094
C67	C	-0.218894	0.092585	0.646703
C68	C	-0.240486	0.881611	0.625119
C69	C	-0.214305	0.922935	0.651320
C70	C	-0.216859	1.017337	0.648750
C71	C	-0.237933	0.787201	0.627689
C72	C	-0.257687	0.455088	0.160413
C73	C	-0.257700	0.455125	-0.027261
O74	O	-0.283391	0.500412	-0.052769
N75	N	-0.227481	0.401910	-0.049268
C76	C	-0.197254	0.348686	-0.024354
O77	O	-0.171548	0.303431	-0.047379
C78	C	-0.197239	0.348654	0.163319
C79	C	-0.227463	0.401866	0.185324
C80	C	-0.287908	0.508296	0.182418
C81	C	-0.287906	0.508283	0.229334
C82	C	-0.257683	0.455062	0.254245
C83	C	-0.227461	0.401853	0.232240
C84	C	-0.167010	0.295435	0.188232
C85	C	-0.167008	0.295433	0.235153
C86	C	-0.197232	0.348645	0.257158
C87	C	-0.197235	0.348619	0.304066
N88	N	-0.227455	0.401833	0.326074
C89	C	-0.257678	0.455055	0.301163
C90	C	-0.197265	0.348706	-0.122885
C91	C	-0.197269	0.348713	-0.169803
C92	C	-0.257715	0.455152	-0.172707
C93	C	-0.257713	0.455141	-0.125788
C94	C	-0.227484	0.401920	-0.100878
C95	C	-0.257672	0.455023	0.399690
C96	C	-0.257668	0.455003	0.446610
C97	C	-0.197221	0.348566	0.449509
C98	C	-0.197226	0.348583	0.402593
C99	C	-0.227453	0.401818	0.377684
O100	O	-0.171555	0.303361	0.329603
O101	O	-0.283374	0.500317	0.324196
C102	C	-0.257689	0.455101	0.113497
C103	C	-0.227467	0.401892	0.091492
C104	C	-0.197244	0.348671	0.116403
C105	C	-0.227472	0.401899	0.044574
C106	C	-0.257695	0.455121	0.019664
C107	C	-0.287915	0.508335	0.041671
C108	C	-0.287912	0.508322	0.088587
C109	C	-0.167024	0.295456	0.094396
C110	C	-0.167029	0.295473	0.047480
C111	C	-0.197253	0.348694	0.022569
C112	C	-0.227484	0.401908	0.755352
C113	C	-0.227493	0.401934	0.805286
H114	H	-0.395821	0.305185	0.692900
O115	O	-0.167870	0.296989	-0.191106
C116	C	-0.107932	0.191383	-0.183260
C117	C	-0.141199	0.249929	-0.159081
H118	H	-0.086367	0.153308	-0.157379
H119	H	-0.085485	0.229699	-0.206235
H120	H	-0.127342	0.147758	-0.204072
H121	H	-0.121826	0.293566	-0.138246
H122	H	-0.163646	0.211562	-0.136133
O123	O	-0.167888	0.296780	0.381263
C124	C	-0.142119	0.155056	0.370708
C125	C	-0.175366	0.213618	0.394901
H126	H	-0.148159	0.087807	0.381718
H127	H	-0.106299	0.169751	0.379568
H128	H	-0.147306	0.164262	0.332897
H129	H	-0.170220	0.204444	0.432717
H130	H	-0.211174	0.198908	0.386004
O131	O	-0.287054	0.506617	0.375452
C132	C	-0.348048	0.517646	0.322180
C133	C	-0.314789	0.459128	0.349593
H134	H	-0.370486	0.479273	0.301273
H135	H	-0.328677	0.561308	0.299018
H136	H	-0.369624	0.555685	0.345982
H137	H	-0.293204	0.421035	0.325824
H138	H	-0.334187	0.415521	0.372761
O139	O	-0.269469	0.923940	0.595997
C140	C	-0.292001	0.950691	0.518852
C141	C	-0.259142	0.902705	0.551780
H142	H	-0.283670	0.933527	0.483097
H143	H	-0.288913	1.020390	0.521895
H144	H	-0.327772	0.933638	0.527195
H145	H	-0.223358	0.919688	0.543459
H146	H	-0.262270	0.833018	0.548732
H147	H	-0.695287	0.251993	0.723206
O148	O	-0.964369	0.296892	0.697868
C149	C	-0.966425	0.191205	0.757764
C150	C	-0.993815	0.249804	0.724525
H151	H	-0.990220	0.153106	0.779319
H152	H	-0.945485	0.229480	0.780224
H153	H	-0.943288	0.147603	0.738332
H154	H	-1.016977	0.293417	0.743921
H155	H	-1.014725	0.211477	0.702065
H156	H	-0.480931	0.305207	0.692937
O157	O	-0.185210	0.880612	0.680338
C158	C	-0.108087	0.853866	0.702945
C159	C	-0.140984	0.901832	0.670047
H160	H	-0.072324	0.871018	0.694642
H161	H	-0.111129	0.784164	0.699869
H162	H	-0.116461	0.870950	0.738703
H163	H	-0.132631	0.884819	0.634274
H164	H	-0.137936	0.971523	0.673161
H165	H	-0.750928	0.252003	0.723223
O166	O	-0.287045	0.506776	0.467913
C167	C	-0.347017	0.612316	0.460074
C168	C	-0.313767	0.553740	0.435893
H169	H	-0.368636	0.650289	0.434197
H170	H	-0.327638	0.656029	0.480860
H171	H	-0.369413	0.573945	0.483073
H172	H	-0.291362	0.592044	0.412871
H173	H	-0.333174	0.510025	0.415135
O174	O	-0.167879	0.296949	0.473779
C175	C	-0.141106	0.249748	0.547352
C176	C	-0.174356	0.308253	0.519920
H177	H	-0.146337	0.258854	0.584662
H178	H	-0.105285	0.264520	0.537785
H179	H	-0.147101	0.182506	0.539915
H180	H	-0.168402	0.375515	0.527343
H181	H	-0.210164	0.293410	0.529492
H182	H	-0.312517	0.551616	0.247246
H183	H	-0.312520	0.551640	0.162141
O184	O	-0.970134	0.507029	0.578753
C185	C	-0.959620	0.648793	0.553029
C186	C	-0.983784	0.590170	0.586268
H187	H	-0.970639	0.716025	0.559100
H188	H	-0.968496	0.634139	0.517207
H189	H	-0.921805	0.639607	0.558194
H190	H	-1.021604	0.599323	0.581144
H191	H	-0.974871	0.604838	0.622079
O192	O	-0.287086	0.506914	-0.104486
C193	C	-0.347058	0.612452	-0.112330
C194	C	-0.313810	0.553870	-0.136508
H195	H	-0.368679	0.650418	-0.138208
H196	H	-0.327678	0.656170	-0.091548
H197	H	-0.369454	0.574086	-0.089327
H198	H	-0.291406	0.592169	-0.159533
H199	H	-0.333217	0.510149	-0.157261
O200	O	-0.490192	0.506706	0.578543
C201	C	-0.543542	0.517826	0.517617
C202	C	-0.516126	0.459265	0.550853
H203	H	-0.564524	0.479494	0.495228
H204	H	-0.519779	0.555865	0.495990
H205	H	-0.566643	0.561486	0.537053
H206	H	-0.493024	0.415555	0.531453
H207	H	-0.539915	0.421284	0.572480
O208	O	-0.839519	0.243791	0.728051
C209	C	-0.892145	0.232764	0.789022
C210	C	-0.867948	0.291278	0.755752
H211	H	-0.915142	0.271133	0.811420
H212	H	-0.866291	0.194719	0.810637
H213	H	-0.912939	0.189108	0.769614
H214	H	-0.847155	0.334985	0.775123
H215	H	-0.893825	0.329265	0.734137
O216	O	-0.167963	0.296957	-0.098641
C217	C	-0.158758	0.184363	-0.042657
C218	C	-0.191989	0.242933	-0.070073
H219	H	-0.178170	0.140658	-0.019559
H220	H	-0.136341	0.222658	-0.021682
H221	H	-0.137156	0.146373	-0.066460
H222	H	-0.213621	0.280935	-0.046302
H223	H	-0.214375	0.204590	-0.091053
H224	H	-0.142399	0.252101	0.170324
H225	H	-0.312524	0.551654	0.106499
H226	H	-0.282324	0.498488	-0.192997
O227	O	-0.137726	0.243708	0.118640
C228	C	-0.128526	0.131108	0.174622
C229	C	-0.161755	0.189682	0.147205
H230	H	-0.147941	0.087402	0.197716
H231	H	-0.106111	0.169400	0.195600
H232	H	-0.106922	0.093121	0.150818
H233	H	-0.183389	0.227682	0.170975
H234	H	-0.184140	0.151343	0.126221
O235	O	-0.606311	0.243494	0.727906
C236	C	-0.588100	0.101727	0.753623
C237	C	-0.615488	0.160356	0.720398
H238	H	-0.595503	0.034497	0.747558
H239	H	-0.597702	0.116383	0.789451
H240	H	-0.550790	0.110901	0.748438
H241	H	-0.652805	0.151214	0.725542
H242	H	-0.605848	0.145684	0.684582
O243	O	-0.137690	0.243610	0.259334
C244	C	-0.111892	0.101872	0.277502
C245	C	-0.145123	0.160468	0.250101
H246	H	-0.117883	0.034641	0.270040
H247	H	-0.117080	0.110927	0.314823
H248	H	-0.076085	0.116680	0.267904
H249	H	-0.180943	0.145696	0.259660
H250	H	-0.139896	0.151402	0.212786
O251	O	-0.848133	0.560235	0.548491
C252	C	-0.846075	0.665858	0.488561
C253	C	-0.818685	0.607217	0.521779
H254	H	-0.822278	0.703846	0.466950
H255	H	-0.869185	0.709554	0.507966
H256	H	-0.867044	0.627537	0.466153
H257	H	-0.797690	0.645471	0.544195
H258	H	-0.795603	0.563519	0.502346
H259	H	-0.312525	0.551668	0.021380
O260	O	-0.137624	0.243751	0.026177
C261	C	-0.077682	0.138154	0.034023
C262	C	-0.110954	0.196690	0.058202
H263	H	-0.056117	0.100077	0.059904
H264	H	-0.055236	0.176477	0.011052
H265	H	-0.097088	0.094528	0.013207
H266	H	-0.091585	0.240327	0.079041
H267	H	-0.133401	0.158315	0.081146
O268	O	-0.397609	0.506783	0.578604
C269	C	-0.326621	0.553936	0.551803
C270	C	-0.350845	0.495351	0.585014
H271	H	-0.288809	0.544701	0.556968
H272	H	-0.337619	0.621194	0.557840
H273	H	-0.335507	0.539243	0.515990
H274	H	-0.341972	0.509969	0.620840
H275	H	-0.339846	0.428110	0.578938
H276	H	-1.053342	0.305310	0.693104
H277	H	-0.759175	0.551768	0.553225
H278	H	-0.618417	0.551764	0.553187
H279	H	-1.058647	0.498552	0.583505
H280	H	-0.703526	0.551773	0.553205
