data_functionalizedCrystal
_audit_creation_method	'MofGen! by Chris Wilmer'
_symmetry_space_group_name_H-M	'P1'
_symmetry_Int_Tables_number	1
_symmetry_cell_setting	triclinic
loop_
_symmetry_equiv_pos_as_xyz
  x,y,z
_cell_length_a	12.759401
_cell_length_b	12.759393
_cell_length_c	12.759399
_cell_angle_alpha	89.968020
_cell_angle_beta	90.016641
_cell_angle_gamma	89.980119
loop_
_atom_site_label
_atom_site_type_symbol
_atom_site_fract_x
_atom_site_fract_y
_atom_site_fract_z
Zn1	Zn	1.606252	-0.594017	-0.418162
Zn2	Zn	1.606145	-0.418336	-0.593880
Zn3	Zn	1.430554	-0.418352	-0.418221
Zn4	Zn	1.430542	-0.593973	-0.593804
O5	O	1.518373	-0.506170	-0.506017
O6	O	1.753259	-0.570724	-0.441478
O7	O	1.582813	-0.271317	-0.570636
O8	O	1.453911	-0.441680	-0.271192
O9	O	1.753181	-0.441652	-0.570578
O10	O	1.582996	-0.570740	-0.271148
O11	O	1.453807	-0.271329	-0.441579
O12	O	1.283532	-0.441637	-0.441505
O13	O	1.453890	-0.741000	-0.570448
O14	O	1.283522	-0.570665	-0.570505
O15	O	1.582983	-0.741032	-0.441404
O16	O	1.582801	-0.441609	-0.740891
O17	O	1.453786	-0.570649	-0.740835
C18	C	1.245406	-0.506149	-0.506004
C19	C	1.128629	-0.506165	-0.506024
C20	C	1.518447	-0.780203	-0.505911
C21	C	1.518478	-0.896980	-0.505865
C22	C	1.073790	-0.573244	-0.573296
C23	C	0.964066	-0.573265	-0.573300
C24	C	0.964030	-0.439118	-0.438756
C25	C	1.073752	-0.439104	-0.438748
C26	C	1.585707	-0.951860	-0.438666
C27	C	1.585732	-1.061585	-0.438628
C28	C	1.451297	-1.061538	-0.572998
C29	C	1.451267	-0.951816	-0.573030
C30	C	1.652918	-0.897024	-0.371502
C31	C	1.720152	-0.951905	-0.304298
C32	C	1.720177	-1.061629	-0.304260
C33	C	1.652968	-1.116473	-0.371426
C34	C	1.792407	-0.506191	-0.506030
C35	C	1.909183	-0.506200	-0.506036
C36	C	1.518309	-0.506146	-0.778984
C37	C	1.518378	-0.506171	-0.895761
C38	C	1.518361	-0.233202	-0.506046
C39	C	1.518533	-0.116426	-0.505796
C40	C	1.585633	-0.439056	-0.950617
C41	C	1.585700	-0.439091	-1.060341
C42	C	1.451249	-0.573359	-1.060343
C43	C	1.451187	-0.573328	-0.950621
C44	C	1.518467	-0.506217	-0.231983
C45	C	1.518506	-0.506237	-0.115207
H46	H	1.118468	-0.627852	-0.628074
H47	H	0.919421	-0.627889	-0.628079
H48	H	1.640467	-0.384441	-1.105000
C49	C	1.794076	-0.891582	-0.230415
C50	C	1.785549	-0.906691	-0.110973
C51	C	1.859474	-0.846371	-0.037088
C52	C	1.941926	-0.770941	-0.082645
C53	C	1.950457	-0.755829	-0.202093
C54	C	1.876532	-0.816149	-0.275978
H55	H	1.724510	-0.962532	-0.077244
H56	H	1.853158	-0.857558	0.051336
H57	H	1.996649	-0.726288	-0.027950
H58	H	2.011496	-0.699988	-0.235822
H59	H	1.882848	-0.804962	-0.364402
C60	C	1.134087	-0.365311	-0.364746
C61	C	1.209474	-0.282744	-0.410171
C62	C	1.269810	-0.208959	-0.336171
C63	C	1.254759	-0.217740	-0.216745
C64	C	1.179368	-0.300310	-0.171314
C65	C	1.119032	-0.374095	-0.245314
H66	H	1.220619	-0.276241	-0.498582
H67	H	1.325620	-0.147835	-0.369802
H68	H	1.299423	-0.163120	-0.161966
H69	H	1.168223	-0.306813	-0.082902
H70	H	1.063222	-0.435219	-0.211682
C71	C	1.377333	-0.647222	-1.120689
C72	C	1.385836	-0.766662	-1.105497
C73	C	1.311915	-0.840525	-1.165839
C74	C	1.229492	-0.794949	-1.241373
C75	C	1.220986	-0.675503	-1.256568
C76	C	1.294906	-0.601640	-1.196226
H77	H	1.446853	-0.800405	-1.049579
H78	H	1.318212	-0.928947	-1.154590
H79	H	1.174771	-0.849627	-1.286041
H80	H	1.159968	-0.641759	-1.312486
H81	H	1.288609	-0.513218	-1.207475
H82	H	0.919336	-0.384518	-0.383984
H83	H	1.652907	-0.807682	-0.371527
H84	H	1.774915	-1.106310	-0.249531
H85	H	1.396420	-0.627986	-0.905954
C86	C	1.377378	-1.121863	-0.646884
C87	C	1.377413	-1.242553	-0.646855
C88	C	1.303497	-1.302876	-0.720746
C89	C	1.229544	-1.242509	-0.794666
C90	C	1.229506	-1.121812	-0.794698
C91	C	1.303423	-1.061489	-0.720807
H92	H	1.432160	-1.287246	-0.592132
H93	H	1.303525	-1.392224	-0.720721
H94	H	1.174826	-1.287164	-0.849364
H95	H	1.174760	-1.077119	-0.849421
H96	H	1.303395	-0.972141	-0.720832
H97	H	1.652981	-1.205818	-0.371377
H98	H	1.396508	-0.907131	-0.627733
H99	H	1.640345	-0.384374	-0.905953
