data_functionalizedCrystal
_audit_creation_method	'MofGen! by Chris Wilmer'
_symmetry_space_group_name_H-M	'P1'
_symmetry_Int_Tables_number	1
_symmetry_cell_setting	triclinic
loop_
_symmetry_equiv_pos_as_xyz
  x,y,z
_cell_length_a	6.817900
_cell_length_b	11.102233
_cell_length_c	11.102291
_cell_angle_alpha	91.950861
_cell_angle_beta	108.605752
_cell_angle_gamma	108.604738
loop_
_atom_site_label
_atom_site_type_symbol
_atom_site_fract_x
_atom_site_fract_y
_atom_site_fract_z
V1	V	-4.111536	-0.175856	-0.396263
O2	O	-4.070571	0.008434	-0.388716
O3	O	-4.088311	-0.348676	-0.393558
O4	O	-4.088321	-0.173158	-0.569086
O5	O	-4.070561	-0.168299	-0.211973
V6	V	-4.588639	-0.153812	-0.374220
O7	O	-4.386879	-0.224211	-0.444617
O8	O	-4.763494	-0.105456	-0.325867
O9	O	-4.388658	0.019009	-0.376926
O10	O	-4.747001	-0.338101	-0.381768
O11	O	-4.747011	-0.161368	-0.558511
O12	O	-4.388648	-0.156509	-0.201398
C13	C	-3.938621	-0.390806	-0.387308
C14	C	-4.001087	-0.532089	-0.386247
C15	C	-3.905106	-0.724744	-0.378396
C16	C	-3.846418	-0.591995	-0.379404
C17	C	-4.214465	-0.604942	-0.392097
C18	C	-4.273155	-0.737689	-0.391098
C19	C	-3.692613	-0.717267	-0.371062
C20	C	-3.633924	-0.584519	-0.372070
C21	C	-3.938633	-0.166913	-0.611209
C22	C	-4.001102	-0.165851	-0.752492
C23	C	-4.214456	-0.171690	-0.825340
C24	C	-4.273128	-0.170667	-0.958087
C25	C	-3.905071	-0.157970	-0.945125
C26	C	-3.846398	-0.158984	-0.812380
C27	C	-4.426954	-0.179026	-0.832826
C28	C	-4.485626	-0.178003	-0.965572
C29	C	-4.201690	0.061132	-0.383173
C30	C	-4.118464	0.202414	-0.384241
C31	C	-4.201678	-0.162758	-0.159268
C32	C	-4.118446	-0.163814	-0.017984
H33	H	-3.490212	-0.531682	-0.280177
H34	H	-3.672671	-0.154231	-0.753072
H35	H	-3.673142	-0.764360	-0.457328
H36	H	-4.340401	-0.556158	-0.397680
H37	H	-3.597452	-0.555410	-0.462302
H38	H	-4.629322	-0.269898	-1.018421
H39	H	-4.522349	-0.273805	-0.808365
H40	H	-3.779124	-0.152377	-0.993902
O41	O	-4.450146	-0.076217	-0.776427
C42	C	-4.390934	-0.077421	-0.642761
H43	H	-4.408297	-0.179490	-0.622191
H44	H	-4.212521	-0.011242	-0.592450
C45	C	-4.522481	0.095107	-0.617763
C46	C	-4.543825	-0.030258	-0.592500
H47	H	-4.616783	0.124205	-0.586756
H48	H	-4.562367	0.095923	-0.707815
H49	H	-4.373798	0.150241	-0.575836
H50	H	-4.692499	-0.085392	-0.634440
H51	H	-4.503968	-0.031081	-0.502453
O52	O	-4.480256	-0.808547	-0.396593
C53	C	-4.468047	-0.868433	-0.285791
H54	H	-4.298015	-0.876961	-0.243271
H55	H	-4.496179	-0.808371	-0.211873
C56	C	-4.855228	-0.992988	-0.374266
C57	C	-4.646398	-1.003472	-0.322050
H58	H	-4.965248	-1.076284	-0.396629
H59	H	-4.863458	-0.952639	-0.448914
H60	H	-4.878640	-0.942932	-0.312660
H61	H	-4.622978	-1.053514	-0.383661
H62	H	-4.638169	-1.043833	-0.247413
O63	O	-3.578891	-0.746310	-0.257884
C64	C	-3.622453	-0.692555	-0.156654
H65	H	-3.678708	-0.608390	-0.186661
H66	H	-3.757889	-0.768652	-0.133599
C67	C	-3.342001	-0.748107	0.000172
C68	C	-3.411077	-0.644727	-0.036680
H69	H	-3.211619	-0.718609	0.074179
H70	H	-3.312657	-0.784327	-0.068028
H71	H	-3.454883	-0.811513	0.019375
H72	H	-3.298207	-0.581332	-0.055898
H73	H	-3.440397	-0.608495	0.031520
H74	H	-4.522088	-0.087766	-0.994671
