data_functionalizedCrystal
_audit_creation_method	'MofGen! by Chris Wilmer'
_symmetry_space_group_name_H-M	'P1'
_symmetry_Int_Tables_number	1
_symmetry_cell_setting	triclinic
loop_
_symmetry_equiv_pos_as_xyz
  x,y,z
_cell_length_a	21.395362
_cell_length_b	12.594516
_cell_length_c	21.395355
_cell_angle_alpha	89.986917
_cell_angle_beta	89.956060
_cell_angle_gamma	90.027695
loop_
_atom_site_label
_atom_site_type_symbol
_atom_site_fract_x
_atom_site_fract_y
_atom_site_fract_z
Zn1	Zn	0.957942	-0.423414	-0.354609
Zn2	Zn	0.957879	-0.601379	-0.249842
Zn3	Zn	0.853157	-0.423464	-0.249811
Zn4	Zn	0.853160	-0.601400	-0.354546
O5	O	0.905534	-0.512414	-0.302202
O6	O	1.045611	-0.446992	-0.340751
O7	O	0.943959	-0.577789	-0.162160
O8	O	0.867081	-0.274511	-0.263726
O9	O	1.045565	-0.577741	-0.263779
O10	O	0.944067	-0.274475	-0.340721
O11	O	0.867020	-0.447076	-0.162137
O12	O	0.765479	-0.447097	-0.263665
O13	O	0.867088	-0.577779	-0.442233
O14	O	0.765482	-0.577827	-0.340614
O15	O	0.944070	-0.447013	-0.442279
O16	O	0.943963	-0.750327	-0.263718
O17	O	0.867027	-0.750343	-0.340644
C18	C	0.742747	-0.512471	-0.302129
C19	C	0.673105	-0.512520	-0.302113
C20	C	0.640410	-0.580681	-0.342120
C21	C	0.574975	-0.580655	-0.342148
C22	C	0.542237	-0.512479	-0.302158
C23	C	0.574940	-0.444305	-0.262148
C24	C	0.640374	-0.444326	-0.262125
C25	C	0.438511	-0.503905	-0.245752
C26	C	0.373078	-0.503892	-0.245773
C27	C	0.340416	-0.512410	-0.302227
C28	C	0.373196	-0.520963	-0.358661
C29	C	0.438630	-0.520984	-0.358639
C30	C	0.471285	-0.512449	-0.302178
C31	C	0.236769	-0.580546	-0.342268
C32	C	0.171332	-0.580513	-0.342297
C33	C	0.171299	-0.444168	-0.262291
C34	C	0.236734	-0.444196	-0.262267
C35	C	0.269465	-0.512391	-0.302255
C36	C	0.905505	-0.788955	-0.302191
C37	C	0.905550	-0.907261	-0.302207
C38	C	0.947444	-0.976466	-0.260412
C39	C	0.962759	-1.047181	-0.317605
C40	C	0.890314	-1.047345	-0.245051
C41	C	0.920894	-0.976417	-0.359430
C42	C	0.848422	-0.976575	-0.286838
C43	C	0.863715	-1.047257	-0.344070
C44	C	1.068958	-0.512359	-0.302275
C45	C	1.138599	-0.512335	-0.302307
C46	C	0.905586	-0.512393	-0.465625
C47	C	0.905609	-0.512383	-0.535267
C48	C	0.905581	-0.234793	-0.302227
C49	C	0.905600	-0.116488	-0.302237
C50	C	0.945692	-0.444291	-0.568005
C51	C	0.945691	-0.444245	-0.633440
C52	C	0.905613	-0.512311	-0.666135
C53	C	0.865523	-0.580408	-0.633389
C54	C	0.865520	-0.580445	-0.567955
C55	C	0.900656	-0.608151	-0.769804
C56	C	0.900663	-0.608116	-0.835237
C57	C	0.905617	-0.512198	-0.867956
C58	C	0.910578	-0.416312	-0.835234
C59	C	0.910576	-0.416349	-0.769799
C60	C	0.905611	-0.512279	-0.737087
C61	C	0.945701	-0.444051	-0.971647
C62	C	0.945696	-0.444003	-1.037083
C63	C	0.865531	-0.580176	-1.037031
C64	C	0.865533	-0.580214	-0.971595
C65	C	0.905622	-0.512153	-0.938907
C66	C	0.905519	-0.512359	-0.139414
C67	C	0.905618	-0.512068	-0.069774
H68	H	0.465098	-0.496964	-0.199778
H69	H	0.800103	-0.945534	-0.273805
H70	H	0.548281	-0.388794	-0.229588
C71	C	0.675763	-0.370284	-0.218614
C72	C	0.633091	-0.310586	-0.183586
C73	C	0.665670	-0.242381	-0.143489
H74	H	0.701339	-0.323885	-0.242548
H75	H	0.701226	-0.410921	-0.191230
H76	H	0.607639	-0.269953	-0.210966
H77	H	0.607514	-0.356958	-0.159639
H78	H	0.691133	-0.283017	-0.116106
H79	H	0.691245	-0.195988	-0.167428
H80	H	0.636722	-0.201875	-0.119714
C81	C	0.272123	-0.370159	-0.218756
C82	C	0.229450	-0.310464	-0.183727
C83	C	0.262028	-0.242254	-0.143632
H84	H	0.297697	-0.323757	-0.242691
H85	H	0.297589	-0.410791	-0.191373
H86	H	0.203995	-0.269834	-0.211107
H87	H	0.203876	-0.356838	-0.159779
H88	H	0.287493	-0.282887	-0.116250
H89	H	0.287600	-0.195859	-0.167573
H90	H	0.233079	-0.201750	-0.119857
C91	C	0.895374	-0.712316	-0.870675
C92	C	0.945648	-0.778096	-0.854778
C93	C	0.940793	-0.874103	-0.887400
H94	H	0.896113	-0.698725	-0.914342
H95	H	0.857239	-0.746423	-0.859911
H96	H	0.983774	-0.743996	-0.865546
H97	H	0.944919	-0.791716	-0.811117
H98	H	0.902658	-0.908210	-0.876636
H99	H	0.941531	-0.860501	-0.931064
H100	H	0.974900	-0.918750	-0.876613
H101	H	0.978336	-0.388548	-1.063738
H102	H	0.978340	-0.388625	-0.945031
C103	C	0.989252	-0.370491	-0.669074
C104	C	1.029386	-0.430737	-0.706681
C105	C	1.069519	-0.362833	-0.739519
H106	H	1.013186	-0.329938	-0.640305
H107	H	0.965315	-0.324122	-0.694618
H108	H	1.053321	-0.477087	-0.681139
H109	H	1.005470	-0.471288	-0.735461
H110	H	1.045582	-0.316465	-0.765063
H111	H	1.093448	-0.322284	-0.710746
H112	H	1.096751	-0.403700	-0.765044
C113	C	0.915826	-0.312198	-0.734306
C114	C	0.865529	-0.246445	-0.750170
C115	C	0.870337	-0.150498	-0.717479
H116	H	0.953938	-0.278006	-0.745025
H117	H	0.915082	-0.325911	-0.690644
H118	H	0.866278	-0.232730	-0.793821
H119	H	0.827410	-0.280604	-0.739448
H120	H	0.869593	-0.164211	-0.673818
H121	H	0.908451	-0.116316	-0.728201
H122	H	0.836209	-0.105877	-0.728234
H123	H	0.832893	-0.635585	-1.063650
H124	H	1.011093	-1.078198	-0.330621
H125	H	0.832889	-0.635825	-0.660013
H126	H	0.828308	-1.078144	-0.379469
H127	H	0.144645	-0.388653	-0.229732
H128	H	0.877406	-1.078500	-0.196702
C129	C	0.821981	-0.654504	-0.532519
C130	C	0.786891	-0.714123	-0.575154
C131	C	0.746783	-0.782371	-0.542533
H132	H	0.794632	-0.613935	-0.506965
H133	H	0.845930	-0.700943	-0.507031
H134	H	0.762943	-0.667689	-0.600632
H135	H	0.814222	-0.754714	-0.600709
H136	H	0.770733	-0.828811	-0.517044
H137	H	0.719439	-0.741794	-0.516979
H138	H	0.722974	-0.822838	-0.571455
C139	C	0.337576	-0.494767	-0.184447
C140	C	0.353435	-0.580099	-0.145628
C141	C	0.320753	-0.571722	-0.089124
H142	H	0.293918	-0.496022	-0.192449
H143	H	0.348317	-0.429946	-0.164443
H144	H	0.342690	-0.644903	-0.165628
H145	H	0.397087	-0.578861	-0.137609
H146	H	0.331494	-0.506901	-0.069120
H147	H	0.277097	-0.572974	-0.097132
H148	H	0.331513	-0.629611	-0.062776
H149	H	0.982879	-0.945383	-0.225099
H150	H	0.933754	-0.945394	-0.407820
H151	H	0.896454	-0.686239	-0.743170
C152	C	0.989233	-0.370272	-0.532629
C153	C	1.024325	-0.310609	-0.575310
C154	C	1.064434	-0.242401	-0.542744
H155	H	1.016580	-0.410872	-0.507121
H156	H	0.965286	-0.323859	-0.507098
H157	H	1.048270	-0.357017	-0.600831
H158	H	0.996994	-0.269988	-0.600819
H159	H	1.040487	-0.195987	-0.517213
H160	H	1.091777	-0.283009	-0.517237
H161	H	1.088244	-0.201904	-0.571698
C162	C	0.915816	-0.312169	-0.870775
C163	C	0.862815	-0.298635	-0.908278
C164	C	0.867611	-0.202706	-0.941022
H165	H	0.952094	-0.313396	-0.896385
H166	H	0.918734	-0.255042	-0.841931
H167	H	0.859903	-0.355746	-0.937119
H168	H	0.826529	-0.297388	-0.882684
H169	H	0.870529	-0.145579	-0.912178
H170	H	0.903891	-0.203942	-0.966628
H171	H	0.831649	-0.193505	-0.966467
H172	H	0.667056	-0.636209	-0.374683
H173	H	0.548349	-0.636159	-0.374730
C174	C	0.821993	-0.654267	-0.936160
C175	C	0.786904	-0.713886	-0.978795
C176	C	0.746790	-0.782124	-0.946175
H177	H	0.794645	-0.613691	-0.910610
H178	H	0.845937	-0.700708	-0.910667
H179	H	0.762962	-0.667452	-1.004277
H180	H	0.814236	-0.754484	-1.004346
H181	H	0.770734	-0.828564	-0.920682
H182	H	0.719446	-0.741539	-0.920626
H183	H	0.722981	-0.822590	-0.975098
H184	H	0.465317	-0.527945	-0.404589
H185	H	0.263420	-0.636069	-0.374832
C186	C	0.337783	-0.530412	-0.419971
C187	C	0.353678	-0.626069	-0.449266
C188	C	0.321061	-0.634812	-0.505741
H189	H	0.348543	-0.472659	-0.446443
H190	H	0.294111	-0.529226	-0.411934
H191	H	0.397340	-0.627246	-0.457305
H192	H	0.342916	-0.683840	-0.422813
H193	H	0.277389	-0.633626	-0.497704
H194	H	0.331823	-0.577054	-0.532208
H195	H	0.331837	-0.699719	-0.525622
H196	H	0.144713	-0.636015	-0.374880
