data_functionalizedCrystal
_audit_creation_method	'MofGen! by Chris Wilmer'
_symmetry_space_group_name_H-M	'P1'
_symmetry_Int_Tables_number	1
_symmetry_cell_setting	triclinic
loop_
_symmetry_equiv_pos_as_xyz
  x,y,z
_cell_length_a	10.685661
_cell_length_b	10.685194
_cell_length_c	10.685880
_cell_angle_alpha	90.299888
_cell_angle_beta	81.602173
_cell_angle_gamma	89.666413
loop_
_atom_site_label
_atom_site_type_symbol
_atom_site_fract_x
_atom_site_fract_y
_atom_site_fract_z
Zn1	Zn	1.936575	-0.712830	-0.806957
Zn2	Zn	1.904322	-0.903941	-0.578835
Zn3	Zn	1.710887	-0.678282	-0.581358
Zn4	Zn	1.708450	-0.903828	-0.774799
O5	O	1.815058	-0.799720	-0.685487
O6	O	2.108720	-0.752687	-0.789098
O7	O	1.866184	-0.859595	-0.402744
O8	O	1.755343	-0.508493	-0.625798
O9	O	2.085024	-0.893095	-0.621498
O10	O	1.921155	-0.533875	-0.791544
O11	O	1.724068	-0.693805	-0.404598
O12	O	1.534140	-0.693696	-0.594616
O13	O	1.751190	-0.892903	-0.955490
O14	O	1.532349	-0.859403	-0.736736
O15	O	1.918792	-0.752578	-0.979116
O16	O	1.863821	-1.078298	-0.590316
O17	O	1.719915	-1.078215	-0.734290
C18	C	1.487500	-0.772789	-0.662461
C19	C	1.347368	-0.761301	-0.652638
C20	C	1.788140	-1.123474	-0.658569
C21	C	1.776742	-1.261991	-0.647104
C22	C	2.143896	-0.826757	-0.708604
C23	C	2.284027	-0.838279	-0.718454
C24	C	1.838317	-0.826582	-1.014327
C25	C	1.848228	-0.838029	-1.154460
C26	C	1.842118	-0.474707	-0.712540
C27	C	1.853650	-0.336206	-0.724068
C28	C	1.791971	-0.772879	-0.357938
C29	C	1.782333	-0.761101	-0.217853
H30	H	1.294394	-0.686600	-0.588783
H31	H	1.928215	-1.293777	-0.798738
H32	H	1.337010	-0.912975	-0.782325
C33	C	1.676022	-1.319314	-0.546199
N34	N	1.600172	-1.362491	-0.470187
H35	H	1.912231	-0.912650	-1.207391
C36	C	1.695863	-0.660281	-1.146342
N37	N	1.630739	-0.584342	-1.092479
