data_functionalizedCrystal
_audit_creation_method	'MofGen! by Chris Wilmer'
_symmetry_space_group_name_H-M	'P1'
_symmetry_Int_Tables_number	1
_symmetry_cell_setting	triclinic
loop_
_symmetry_equiv_pos_as_xyz
  x,y,z
_cell_length_a	8.559649
_cell_length_b	19.288865
_cell_length_c	17.766277
_cell_angle_alpha	90.011603
_cell_angle_beta	89.990526
_cell_angle_gamma	103.542544
loop_
_atom_site_label
_atom_site_type_symbol
_atom_site_fract_x
_atom_site_fract_y
_atom_site_fract_z
O1	O	2.120309	0.023572	-0.062584
O2	O	1.654846	-0.012313	-0.062591
O3	O	1.901027	0.107459	-0.062572
O4	O	1.874128	-0.096200	-0.062602
O5	O	1.900984	0.107462	0.062617
O6	O	1.654803	-0.012310	0.062598
O7	O	2.120266	0.023575	0.062605
Cu8	Cu	1.887530	0.005633	0.074032
Cu9	Cu	1.887581	0.005629	-0.074018
O10	O	1.874085	-0.096197	0.062586
C11	C	1.595275	-0.015031	0.000003
C12	C	1.417837	-0.023126	0.000001
C13	C	2.179837	0.026293	0.000010
C14	C	2.357275	0.034388	0.000007
C15	C	1.900140	0.133292	0.000024
C16	C	1.897542	0.210261	0.000031
C17	C	1.874972	-0.122030	-0.000012
C18	C	1.877570	-0.198998	-0.000023
N19	N	1.887506	0.005637	0.178162
C20	C	2.041990	0.262466	0.000037
C21	C	2.039549	0.334786	0.000025
C22	C	1.892652	0.354897	0.000022
C23	C	1.748185	0.302681	0.000012
C24	C	1.750630	0.230363	0.000017
C25	C	1.777159	0.457183	0.043871
C26	C	1.774720	0.529501	0.043872
C27	C	1.885104	0.577950	0.000005
C28	C	1.997955	0.554077	-0.043852
C29	C	2.000400	0.481759	-0.043847
C30	C	1.889984	0.433313	0.000017
C31	C	2.026915	0.708575	-0.000003
C32	C	2.024468	0.780895	-0.000019
C33	C	1.733101	0.748789	-0.000025
C34	C	1.735552	0.676470	-0.000016
C35	C	1.882463	0.656368	-0.000001
N36	N	1.887618	0.005632	-0.178148
C37	C	1.996550	0.058650	0.217558
C38	C	1.996559	0.058654	0.296359
C39	C	1.887540	0.005633	0.335763
C40	C	1.778476	-0.047386	0.296358
C41	C	1.778459	-0.047384	0.217558
C42	C	1.866141	-0.058767	0.460591
C43	C	1.866169	-0.058769	0.539390
C44	C	1.887583	0.005627	0.578809
C45	C	1.909003	0.070030	0.539420
C46	C	1.908986	0.070032	0.460620
C47	C	1.887545	0.005625	0.421209
C48	C	1.996643	0.058649	0.703650
C49	C	1.996641	0.058653	0.782454
C50	C	1.778565	-0.047392	0.782451
C51	C	1.778559	-0.047391	0.703649
C52	C	1.887606	0.005629	0.664254
H53	H	2.333941	-0.078559	-0.000013
Br54	Br	2.220523	0.851749	-0.000020
Br55	Br	2.144533	0.130606	0.164091
H56	H	1.689660	-0.090555	0.185482
Br57	Br	1.938086	0.157432	0.592907
H58	H	1.633000	0.187855	0.000012
H59	H	2.085359	0.101826	0.328441
H60	H	1.613494	0.765163	-0.000030
Br61	Br	2.497109	0.126788	0.000016
H62	H	2.161616	0.246104	0.000046
Br63	Br	1.938039	0.157430	0.407164
H64	H	2.146540	0.692207	0.000005
H65	H	1.848675	-0.111211	0.428503
H66	H	1.848737	-0.111209	0.571455
Br67	Br	2.235598	0.405648	0.000030
H68	H	1.682823	0.548931	0.079578
H69	H	2.085431	0.101823	0.671573
Br70	Br	2.144626	0.130611	0.835923
H71	H	2.092284	0.462324	-0.079558
H72	H	1.689793	-0.090561	0.814533
H73	H	2.087841	0.593524	-0.079572
H74	H	1.617926	0.633962	-0.000016
H75	H	1.687266	0.417739	0.079597
H76	H	1.628581	0.319060	0.000008
H77	H	1.689771	-0.090562	0.671572
H78	H	1.689708	-0.090555	0.328445
