data_functionalizedCrystal
_audit_creation_method	'MofGen! by Chris Wilmer'
_symmetry_space_group_name_H-M	'P1'
_symmetry_Int_Tables_number	1
_symmetry_cell_setting	triclinic
loop_
_symmetry_equiv_pos_as_xyz
  x,y,z
_cell_length_a	17.038272
_cell_length_b	17.019383
_cell_length_c	9.730223
_cell_angle_alpha	93.876427
_cell_angle_beta	90.005546
_cell_angle_gamma	87.246883
loop_
_atom_site_label
_atom_site_type_symbol
_atom_site_fract_x
_atom_site_fract_y
_atom_site_fract_z
O1	O	0.099661	1.053344	0.238834
O2	O	0.112349	0.824535	0.211783
O3	O	-0.007809	0.937580	0.225137
O4	O	0.219819	0.940300	0.225480
O5	O	-0.007815	0.937578	-0.003443
O6	O	0.112343	0.824533	-0.016797
O7	O	0.099655	1.053343	0.010254
Zn8	Zn	0.105998	0.938938	-0.039564
Zn9	Zn	0.106006	0.938940	0.261601
O10	O	0.219814	0.940298	-0.003100
C11	C	0.111863	0.795113	0.094015
C12	C	0.110414	0.707447	0.083651
C13	C	-0.036938	0.935105	0.110555
C14	C	-0.123725	0.927725	0.109682
C15	C	0.109738	0.666255	0.203370
C16	C	0.108388	0.583883	0.193612
C17	C	0.107710	0.542704	0.064132
C18	C	0.108388	0.583902	-0.055597
C19	C	0.109743	0.666273	-0.045837
C20	C	0.103624	0.293999	0.028430
C21	C	0.102267	0.211623	0.018679
C22	C	0.102269	0.211609	0.267888
C23	C	0.103619	0.293981	0.277637
C24	C	0.104301	0.335172	0.157908
C25	C	0.106328	0.458507	0.054154
C26	C	0.105688	0.419367	0.167887
C27	C	-0.173894	0.995484	0.117692
C28	C	-0.255439	0.988545	0.116884
C29	C	-0.286814	0.913846	0.108058
C30	C	-0.236639	0.846082	0.100052
C31	C	-0.155095	0.853022	0.100869
C32	C	-0.532552	0.889328	0.105178
C33	C	-0.614102	0.882394	0.104357
C34	C	-0.632896	1.024858	0.121192
C35	C	-0.551351	1.031791	0.122000
C36	C	-0.501183	0.964027	0.114002
C37	C	-0.370166	0.906751	0.107228
C38	C	-0.417833	0.971122	0.114842
C39	C	0.248943	0.942773	0.111486
C40	C	0.335730	0.950153	0.112367
C41	C	0.100141	1.082765	0.128025
C42	C	0.101591	1.170431	0.138398
N43	N	0.106005	0.938941	0.467137
N44	N	0.105993	0.938943	-0.245099
C45	C	0.052902	0.989104	0.544989
C46	C	0.052898	0.989107	0.688872
C47	C	0.159101	0.888777	0.677039
C48	C	0.159109	0.888779	0.533159
H49	H	0.107838	0.550348	0.291100
N50	N	-0.646170	0.806094	0.095333
N51	N	-0.689582	0.786335	-0.003358
H52	H	-0.712234	0.732453	-0.009736
N53	N	-0.268688	0.769779	0.091000
N54	N	-0.253293	0.722865	-0.010907
H55	H	-0.275927	0.668975	-0.017310
N56	N	0.104308	0.336030	0.409909
N57	N	0.103704	0.299241	0.516794
H58	H	0.104187	0.328937	0.610215
N59	N	-0.001326	1.040356	0.477547
N60	N	0.023557	1.090929	0.403252
H61	H	-0.014742	1.127128	0.355623
N62	N	-0.684130	1.094081	0.129389
N63	N	-0.656107	1.160771	0.137277
H64	H	-0.692290	1.209664	0.143072
N65	N	-0.306673	1.057768	0.125080
N66	N	-0.278651	1.124459	0.132959
H67	H	-0.314834	1.173351	0.138752
H68	H	0.104174	0.327526	-0.069062
N69	N	0.110417	0.708348	-0.168133
N70	N	0.056092	0.757882	-0.190085
H71	H	0.056570	0.787596	-0.276462
N72	N	0.213339	0.837525	0.744458
N73	N	0.260748	0.792740	0.674926
H74	H	0.299054	0.756540	0.722537
N75	N	0.106387	0.461414	0.300154
N76	N	0.161314	0.448642	0.382090
H77	H	0.161806	0.478342	0.475506
H78	H	0.202355	0.847930	0.469767
H79	H	0.009658	1.029956	0.752255
H80	H	-0.491715	0.834150	0.098665
H81	H	0.110288	0.699777	0.308807
H82	H	0.101715	0.178063	0.365364
H83	H	0.101736	0.178096	-0.086764
H84	H	0.107840	0.550368	-0.161022
H85	H	-0.114248	0.797845	0.094348
N86	N	0.105635	0.416453	-0.078113
N87	N	0.160863	0.422086	-0.160878
H88	H	0.160375	0.392384	-0.254293
N89	N	-0.141862	1.071795	0.126690
N90	N	-0.186669	1.132287	0.133839
H91	H	-0.164049	1.186185	0.140196
H92	H	-0.525812	1.092619	0.129188
H93	H	-0.392284	1.031942	0.122059
N94	N	-0.402233	0.830457	0.098185
N95	N	-0.445651	0.810707	-0.000503
H96	H	-0.468304	0.756825	-0.006890
