data_functionalizedCrystal
_audit_creation_method	'MofGen! by Chris Wilmer'
_symmetry_space_group_name_H-M	'P1'
_symmetry_Int_Tables_number	1
_symmetry_cell_setting	triclinic
loop_
_symmetry_equiv_pos_as_xyz
  x,y,z
_cell_length_a	16.109301
_cell_length_b	16.109301
_cell_length_c	14.586319
_cell_angle_alpha	89.996198
_cell_angle_beta	89.999213
_cell_angle_gamma	83.461532
loop_
_atom_site_label
_atom_site_type_symbol
_atom_site_fract_x
_atom_site_fract_y
_atom_site_fract_z
O1	O	1.103131	0.106866	-0.076182
O2	O	0.861069	0.120165	-0.076197
O3	O	0.988749	-0.007515	-0.076183
O4	O	0.975450	0.234547	-0.076196
O5	O	0.988741	-0.007517	0.076298
O6	O	0.861060	0.120164	0.076284
O7	O	1.103122	0.106864	0.076298
Cu8	Cu	0.982090	0.113514	0.090214
Cu9	Cu	0.982101	0.113516	-0.090112
O10	O	0.975441	0.234545	0.076285
C11	C	0.830090	0.119626	0.000042
C12	C	0.737794	0.118011	0.000036
C13	C	0.515522	0.190018	0.000043
C14	C	0.428802	0.188494	0.000049
C15	C	0.448676	0.037006	0.000053
C16	C	0.535395	0.038530	0.000054
C17	C	0.568815	0.115039	0.000044
C18	C	0.395376	0.111990	0.000049
C19	C	0.301350	0.110337	0.000056
C20	C	0.662847	0.116693	0.000039
C21	C	0.988206	-0.038491	0.000057
C22	C	0.986591	-0.130786	0.000055
C23	C	1.057074	-0.439785	0.000044
C24	C	1.058600	-0.353064	0.000049
C25	C	0.907111	-0.333191	0.000052
C26	C	0.905586	-0.419910	0.000053
C27	C	0.980571	-0.473205	0.000045
C28	C	0.983620	-0.299766	0.000049
C29	C	0.985274	-0.205740	0.000055
C30	C	0.978917	-0.567237	0.000041
C31	C	1.134101	0.107404	0.000058
C32	C	1.226397	0.109019	0.000057
C33	C	0.975985	0.265521	0.000043
C34	C	0.977600	0.357816	0.000038
N35	N	0.982089	0.113512	0.217046
N36	N	0.982109	0.113511	-0.216944
C37	C	1.038645	0.056994	0.452058
C38	C	1.038647	0.056992	0.548039
C39	C	0.925547	0.170032	0.548037
C40	C	0.925541	0.170030	0.452057
C41	C	0.982095	0.113511	0.404070
C42	C	0.982103	0.113512	0.596031
C43	C	0.982105	0.113510	0.700098
C44	C	0.982092	0.113512	0.299997
H45	H	0.578788	-0.022530	0.000057
C46	C	1.138419	-0.497746	0.000186
C47	C	1.141960	-0.548131	0.078622
C48	C	1.216879	-0.601541	0.078780
H49	H	1.184269	-0.465523	0.000235
H50	H	1.140982	-0.532034	-0.052960
H51	H	1.139405	-0.513848	0.131754
H52	H	1.096128	-0.580372	0.078589
H53	H	1.219442	-0.635828	0.025634
H54	H	1.262722	-0.569311	0.078826
H55	H	1.219288	-0.635739	0.131993
H56	H	1.120896	-0.325859	0.000050
H57	H	0.385413	0.249550	0.000050
H58	H	1.084694	0.010969	0.587108
C59	C	0.412549	-0.046142	0.000097
C60	C	0.477786	-0.111480	0.000121
C61	C	0.444540	-0.188089	0.000169
H62	H	0.379149	-0.050000	-0.053065
H63	H	0.379154	-0.049937	0.053289
H64	H	0.511166	-0.107688	-0.053066
H65	H	0.511192	-0.107650	0.053279
H66	H	0.411145	-0.191883	0.053362
H67	H	0.411140	-0.191938	-0.052993
H68	H	0.488797	-0.232429	0.000194
H69	H	0.846062	-0.289788	0.000057
H70	H	0.542730	0.252317	0.000042
H71	H	0.843284	-0.447120	0.000058
C72	C	0.864115	0.231264	0.600259
C73	C	0.813255	0.186963	0.655391
C74	C	0.756662	0.243344	0.703519
H75	H	0.830351	0.264948	0.558038
H76	H	0.893994	0.265870	0.637746
H77	H	0.783378	0.152371	0.617908
H78	H	0.846995	0.153282	0.697629
H79	H	0.786541	0.277950	0.741006
H80	H	0.722905	0.277025	0.661292
H81	H	0.722152	0.213294	0.740938
C82	C	1.100074	-0.004466	0.400123
C83	C	1.149583	-0.053978	0.462697
C84	C	1.206173	-0.110614	0.414891
H85	H	1.134753	0.025351	0.362671
H86	H	1.070195	-0.039131	0.362708
H87	H	1.179460	-0.019318	0.500096
H88	H	1.114927	-0.083813	0.500151
H89	H	1.176294	-0.145279	0.377476
H90	H	1.240845	-0.080790	0.377441
H91	H	1.239765	-0.144220	0.457340
C92	C	0.864104	0.231490	0.400114
C93	C	0.814597	0.281006	0.462680
C94	C	0.758001	0.337634	0.414864
H95	H	0.829425	0.201665	0.362677
H96	H	0.893978	0.266151	0.362685
H97	H	0.784725	0.246349	0.500094
H98	H	0.849253	0.310848	0.500120
H99	H	0.787875	0.372295	0.377434
H100	H	0.723328	0.307802	0.377428
H101	H	0.724409	0.371242	0.457307
