data_functionalizedCrystal
_audit_creation_method	'MofGen! by Chris Wilmer'
_symmetry_space_group_name_H-M	'P1'
_symmetry_Int_Tables_number	1
_symmetry_cell_setting	triclinic
loop_
_symmetry_equiv_pos_as_xyz
  x,y,z
_cell_length_a	20.919287
_cell_length_b	14.560432
_cell_length_c	20.919320
_cell_angle_alpha	57.441076
_cell_angle_beta	86.847435
_cell_angle_gamma	58.214110
loop_
_atom_site_label
_atom_site_type_symbol
_atom_site_fract_x
_atom_site_fract_y
_atom_site_fract_z
Zr1	Zr	0.612000	1.018970	-0.122525
O2	O	0.505874	1.221780	-0.222806
O3	O	0.644532	0.823934	-0.091784
O4	O	0.639136	1.031036	-0.230452
O5	O	0.515528	1.002449	0.025246
O6	O	0.744258	1.031711	-0.236483
O7	O	0.511269	1.014678	-0.084138
O8	O	0.753910	0.661243	0.011569
O9	O	0.505877	1.372917	-0.222805
O10	O	0.736860	0.901779	-0.083173
O11	O	0.661587	0.892149	0.002960
O12	O	0.655234	1.135986	-0.160304
O13	O	0.579961	1.126356	-0.074171
Zr14	Zr	0.786451	1.000542	0.042312
Zr15	Zr	0.779658	1.020046	-0.132143
Zr16	Zr	0.618793	0.999466	0.051931
Zr17	Zr	0.612005	1.260016	-0.122524
Zr18	Zr	0.786446	0.759496	0.042311
O19	O	0.753920	1.195578	0.011572
O20	O	0.744262	1.223310	-0.236482
O21	O	0.515532	1.194048	0.025248
O22	O	0.892577	0.797732	0.142593
O23	O	0.882920	0.825464	-0.105460
O24	O	0.654189	0.796202	0.156269
O25	O	0.882923	1.017063	-0.105459
O26	O	0.759315	0.988476	0.150240
O27	O	0.654193	0.987801	0.156270
O28	O	0.887182	1.004834	0.003925
O29	O	0.639142	1.373772	-0.230450
O30	O	0.759309	0.645740	0.150238
O31	O	0.892574	0.646595	0.142593
O32	O	0.887176	0.662098	0.003924
O33	O	0.511276	1.357414	-0.084136
O34	O	0.644541	1.358269	-0.091781
O35	O	0.743217	0.883526	0.080091
O36	O	0.818490	0.893156	-0.006042
O37	O	0.736864	1.127363	-0.083172
O38	O	0.661591	1.117733	0.002961
C39	C	0.699220	0.708244	-0.040108
C40	C	0.699218	0.605914	-0.040109
C41	C	0.578693	0.785160	-0.153983
C42	C	0.518431	0.826705	-0.210917
C43	C	0.518434	0.730551	-0.210915
C44	C	0.578706	0.592841	-0.153974
C45	C	0.638968	0.551296	-0.097040
C46	C	0.638958	0.647462	-0.097047
C47	C	0.759495	0.372053	0.016830
C48	C	0.759491	0.468204	0.016832
C49	C	0.819767	0.234343	0.073770
C50	C	0.880028	0.192795	0.130709
C51	C	0.880022	0.288958	0.130705
C52	C	0.819753	0.426659	0.073766
C53	C	0.489511	1.008410	-0.028075
C54	C	0.418336	1.007953	-0.023992
C55	C	0.382551	1.014479	-0.082336
C56	C	0.315677	1.014043	-0.078496
C57	C	0.284585	1.007090	-0.016314
C58	C	0.320377	1.000559	0.042036
C59	C	0.387253	1.000986	0.038198
C60	C	0.082783	1.005455	-0.001708
C61	C	0.015900	1.005033	0.002124
C62	C	0.011206	1.018514	-0.118408
C63	C	0.078081	1.018949	-0.122243
C64	C	0.113869	1.012411	-0.063891
C65	C	0.216228	1.006648	-0.012388
C66	C	0.182228	1.012843	-0.067814
C67	C	0.908940	1.011102	-0.052137
C68	C	0.980115	1.011559	-0.056220
C69	C	0.690730	1.034152	-0.258324
C70	C	0.687846	1.042432	-0.332385
C71	C	0.699231	1.311268	-0.040105
C72	C	0.699233	1.413598	-0.040104
C73	C	0.669354	1.095438	-0.753292
C74	C	0.672069	1.087648	-0.683700
C75	C	0.716039	0.961498	-0.608646
C76	C	0.757292	0.843130	-0.603184
C77	C	0.754572	0.850922	-0.672774
C78	C	0.726379	0.931856	-0.396513
C79	C	0.729097	0.924074	-0.326921
C80	C	0.643873	1.168593	-0.407442
C81	C	0.641161	1.176373	-0.477031
C82	C	0.682410	1.058005	-0.471563
C83	C	0.718817	0.953532	-0.537511
C84	C	0.679627	1.065973	-0.542696
C85	C	0.707722	0.985360	0.178111
C86	C	0.710605	0.977080	0.252172
C87	C	0.908935	0.709591	-0.052139
C88	C	0.980108	0.607717	-0.056223
C89	C	0.707716	0.683848	0.178109
C90	C	0.710598	0.573238	0.252170
C91	C	0.917431	0.685194	0.166079
C92	C	0.991487	0.575041	0.236056
C93	C	0.481020	1.334318	-0.246291
C94	C	0.406964	1.444471	-0.316269
C95	C	0.489517	1.309921	-0.028074
C96	C	0.418343	1.411795	-0.023990
C97	C	0.690735	1.335664	-0.258322
C98	C	0.687853	1.446274	-0.332383
C99	C	0.970921	0.564378	-0.098410
C100	C	1.037789	0.468672	-0.102263
C101	C	1.113843	0.416300	-0.063923
C102	C	1.123028	0.459649	-0.021735
C103	C	1.056161	0.555360	-0.017887
C104	C	0.754561	0.516792	0.327219
C105	C	0.757266	0.412875	0.396813
C106	C	0.716012	0.365398	0.391357
C107	C	0.672043	0.421854	0.316300
C108	C	0.669334	0.525776	0.246708
C109	C	1.065564	0.528339	0.223957
C110	C	1.135155	0.424852	0.289701
C111	C	1.130666	0.368063	0.367543
C112	C	1.056582	0.414775	0.379641
C113	C	0.986993	0.518266	0.313898
C114	C	0.332887	1.491185	-0.304170
C115	C	0.263296	1.594702	-0.369914
C116	C	0.267785	1.651496	-0.447756
C117	C	0.341869	1.604777	-0.459854
C118	C	0.411458	1.501269	-0.394110
C119	C	0.427529	1.455145	0.018190
C120	C	0.360661	1.550879	0.022024
C121	C	0.284607	1.603255	-0.016318
C122	C	0.275422	1.559902	-0.058503
C123	C	0.342290	1.464176	-0.062341
C124	C	0.729117	1.493717	-0.326901
C125	C	0.726425	1.597634	-0.396482
C126	C	0.682464	1.654112	-0.471545
C127	C	0.641200	1.606659	-0.477026
C128	C	0.643897	1.502738	-0.407445
H129	H	0.929099	0.080672	0.177063
H130	H	0.929097	0.255116	0.177066
F131	F	0.277593	1.020987	-0.140592
F132	F	0.346634	1.665233	-0.542705
H133	H	0.909000	0.607020	-0.129641
H134	H	0.469366	0.764386	-0.257278
F135	F	0.111169	1.026351	-0.188424
H136	H	0.610291	1.464122	-0.411919
H137	H	0.638455	0.383183	0.311869
H138	H	0.469360	0.938837	-0.257278
H139	H	1.030295	0.433390	-0.136617
H140	H	0.471772	1.463237	-0.403971
H141	H	0.764914	1.447748	-0.265787
F142	F	1.185003	0.314434	-0.068025
H143	H	0.605357	1.279098	-0.538140
F144	F	1.070359	0.588766	0.141117
H145	H	0.190907	1.000990	0.038240
F146	F	0.193715	1.761658	-0.517719
H147	H	1.184960	0.416993	0.009479
F148	F	0.679599	1.764718	-0.545593
H149	H	0.368155	1.586160	0.056378
F150	F	0.578679	0.887502	-0.153983
F151	F	0.804067	0.352805	0.476686
F152	F	0.508466	1.399422	0.059000
F153	F	0.628140	1.213623	-0.689519
F154	F	-0.026884	1.025467	-0.180505
F155	F	0.213447	1.705134	-0.012226
H156	H	0.760027	1.636258	-0.392004
F157	F	0.425339	0.994034	0.100298
F158	F	0.578712	0.490511	-0.153982
F159	F	1.065950	0.601466	0.027021
H160	H	0.926679	0.556278	0.323760
H161	H	1.195471	0.386830	0.279837
F162	F	0.194474	1.615654	-0.099304
F163	F	0.415631	1.021889	-0.148523
F164	F	1.051818	0.354322	0.462493
H165	H	0.605408	1.652660	-0.538151
F166	F	0.332501	1.418043	-0.107232
F167	F	0.599974	1.294559	-0.413254
H168	H	0.633552	1.198164	-0.814401
H169	H	0.819767	0.156056	0.073766
F170	F	-0.017186	0.997635	0.068310
F171	F	0.184458	1.644400	-0.357022
F172	F	0.819740	0.529006	0.073759
H173	H	0.295061	0.994889	0.092669
H174	H	1.187336	0.283794	0.421069
F175	F	0.798477	0.567297	0.333044
F176	F	0.622544	0.585834	0.166837
F177	F	0.120864	0.998502	0.060392
F178	F	0.215322	1.020235	-0.133988
F179	F	0.328092	1.430756	-0.221329
H180	H	0.759969	0.835473	-0.392050
F181	F	0.775920	0.789801	-0.247040
H182	H	0.788161	0.754541	-0.668320
F183	F	0.632827	1.200227	-0.622574
F184	F	0.804084	0.708871	-0.523303
F185	F	0.765614	0.819277	-0.457628
F186	F	0.718903	0.254793	0.465431
