data_functionalizedCrystal
_audit_creation_method	'MofGen! by Chris Wilmer'
_symmetry_space_group_name_H-M	'P1'
_symmetry_Int_Tables_number	1
_symmetry_cell_setting	triclinic
loop_
_symmetry_equiv_pos_as_xyz
  x,y,z
_cell_length_a	13.033293
_cell_length_b	18.101396
_cell_length_c	13.032268
_cell_angle_alpha	82.853868
_cell_angle_beta	89.079182
_cell_angle_gamma	82.793385
loop_
_atom_site_label
_atom_site_type_symbol
_atom_site_fract_x
_atom_site_fract_y
_atom_site_fract_z
Zn1	Zn	1.498354	0.230410	-0.781469
Zn2	Zn	1.520046	0.336839	-0.609490
Zn3	Zn	1.348216	0.226499	-0.587645
Zn4	Zn	1.326283	0.367712	-0.759529
O5	O	1.423225	0.290365	-0.684533
O6	O	1.645155	0.233245	-0.776981
O7	O	1.515510	0.307645	-0.462685
O8	O	1.368233	0.123380	-0.613397
O9	O	1.661093	0.311437	-0.650628
O10	O	1.478538	0.126253	-0.755798
O11	O	1.389267	0.226579	-0.446635
O12	O	1.201382	0.256515	-0.592121
O13	O	1.330851	0.364056	-0.906347
O14	O	1.185268	0.360263	-0.718403
O15	O	1.457271	0.263181	-0.922467
O16	O	1.494243	0.444572	-0.629353
O17	O	1.351885	0.467255	-0.739586
C18	C	1.156007	0.311316	-0.650512
C19	C	1.041687	0.320299	-0.635981
C20	C	0.982822	0.285695	-0.692117
C21	C	0.864666	0.294979	-0.677100
C22	C	1.423063	0.482786	-0.684485
C23	C	1.423083	0.565100	-0.684511
C24	C	1.423259	0.864183	-0.684594
C25	C	1.333855	0.847165	-0.754170
C26	C	1.333522	0.761550	-0.753873
C27	C	1.423172	0.715805	-0.684554
C28	C	1.407597	0.738272	-0.572442
C29	C	1.407013	0.824006	-0.572853
C30	C	1.528536	0.826804	-0.726198
C31	C	1.527607	0.741443	-0.728493
C32	C	1.423125	0.631947	-0.684524
C33	C	1.423304	0.948040	-0.684616
C34	C	1.691485	0.269333	-0.718689
C35	C	1.805802	0.260371	-0.733244
C36	C	1.389194	0.317498	-0.952764
C37	C	1.374693	0.329061	-1.067067
C38	C	1.423376	1.097196	-0.684607
C39	C	1.423347	1.014887	-0.684637
C40	C	1.430777	0.284305	-1.126003
C41	C	1.415790	0.296254	-1.244142
C42	C	1.457182	0.263279	-0.417354
C43	C	1.471883	0.251492	-0.303077
H44	H	0.827594	0.331478	-0.617918
H45	H	1.489885	0.237139	-1.088998
H46	H	1.545414	0.854128	-0.807284
O47	O	0.992582	0.368641	-0.557587
H48	H	1.053677	0.392572	-0.518744
H49	H	1.539601	0.727429	-0.811069
O50	O	1.230725	0.881646	-0.716620
H51	H	1.180866	0.836847	-0.694296
H52	H	1.594976	0.836537	-0.675691
O53	O	0.854892	0.212021	-0.811641
H54	H	0.939991	0.212319	-0.811141
H55	H	1.315575	0.376220	-1.104071
O56	O	1.619058	0.699423	-0.667695
H57	H	1.591379	0.659432	-0.604929
O58	O	1.305616	0.855665	-0.528303
H59	H	1.320797	0.882200	-0.458647
O60	O	1.031919	0.237345	-0.770506
H61	H	1.117018	0.237644	-0.770003
H62	H	1.341671	0.747192	-0.836570
H63	H	1.341782	0.874460	-0.837104
H64	H	1.255216	0.745590	-0.725224
H65	H	1.470053	0.834167	-0.518503
H66	H	1.356668	0.343417	-1.281142
H67	H	1.530993	0.204322	-1.266077
H68	H	1.471279	0.707331	-0.518584
O69	O	1.307395	0.714919	-0.527462
H70	H	1.268542	0.687316	-0.584753
