data_functionalizedCrystal
_audit_creation_method	'MofGen! by Chris Wilmer'
_symmetry_space_group_name_H-M	'P1'
_symmetry_Int_Tables_number	1
_symmetry_cell_setting	triclinic
loop_
_symmetry_equiv_pos_as_xyz
  x,y,z
_cell_length_a	10.540510
_cell_length_b	9.198806
_cell_length_c	10.540539
_cell_angle_alpha	90.001893
_cell_angle_beta	95.480599
_cell_angle_gamma	89.999296
loop_
_atom_site_label
_atom_site_type_symbol
_atom_site_fract_x
_atom_site_fract_y
_atom_site_fract_z
O1	O	0.178900	-0.120815	-1.685867
O2	O	0.195756	-0.120832	-1.316453
O3	O	0.002619	-0.120823	-1.509608
O4	O	0.372037	-0.120825	-1.492712
O5	O	0.002619	0.120962	-1.509592
O6	O	0.195756	0.120953	-1.316437
O7	O	0.178899	0.120970	-1.685852
Cu8	Cu	0.187327	0.143038	-1.501143
Cu9	Cu	0.187328	-0.142901	-1.501161
O10	O	0.372036	0.120960	-1.492697
C11	C	0.194492	0.000058	-1.269142
C12	C	0.190710	0.000051	-1.128194
C13	C	-0.044685	0.000067	-1.508341
C14	C	-0.185635	0.000058	-1.504574
N15	N	0.187326	0.344152	-1.501140
C16	C	-0.403090	0.000618	-1.638758
C17	C	-0.256495	0.000065	-1.642776
C18	C	-0.230393	-0.138014	-1.433837
C19	C	-0.377154	-0.138122	-1.430798
C20	C	-0.376963	0.136833	-1.427902
C21	C	-0.230622	0.138650	-1.434457
C22	C	0.419340	0.000068	-1.493964
C23	C	0.560290	0.000067	-1.497731
N24	N	0.187319	-0.344015	-1.501175
C25	C	0.105876	0.416353	-1.582240
C26	C	0.105871	0.583765	-1.582259
C27	C	0.180164	0.000076	-1.733163
C28	C	0.183946	0.000074	-1.874110
C29	C	0.045791	0.000616	-0.944783
C30	C	0.049624	0.000056	-1.091401
C31	C	0.258606	-0.138015	-1.066523
C32	C	0.253791	-0.138116	-0.919979
C33	C	0.256661	0.136839	-0.919473
C34	C	0.257960	0.138649	-1.066455
H35	H	-0.445046	0.099636	-1.692594
N36	N	-0.430439	-0.274811	-1.494868
H37	H	-0.392419	-0.362642	-1.447951
H38	H	-0.408463	-0.276987	-1.586036
H39	H	0.360820	0.146985	-1.090670
H40	H	-0.400149	-0.144382	-1.327431
H41	H	-0.446596	-0.097835	-1.692296
H42	H	-0.004175	-0.099086	-1.133158
H43	H	0.257061	0.593905	-1.431743
H44	H	0.036143	0.645855	-1.651697
N45	N	-0.028030	0.131779	-0.906913
H46	H	-0.034561	0.129887	-0.811952
H47	H	-0.116353	0.129957	-0.953409
N48	N	0.391646	0.138084	-0.856911
H49	H	0.405685	0.050536	-0.799459
H50	H	0.406337	0.229745	-0.804830
N51	N	-0.021131	0.131156	-1.147859
H52	H	-0.055100	0.189831	-1.077507
H53	H	-0.094385	0.098073	-1.209902
N54	N	0.279696	0.426432	-1.409184
H55	H	0.334051	0.355248	-1.355057
H56	H	0.230664	0.489590	-1.352541
H57	H	-0.009710	-0.097847	-0.914588
H58	H	0.203610	-0.241321	-0.891781
N59	N	-0.167633	-0.144833	-1.299065
H60	H	-0.109442	-0.058280	-1.282529
H61	H	-0.116302	-0.237369	-1.287209
N62	N	0.388189	-0.146360	-0.856412
H63	H	0.450296	-0.149927	-0.923622
H64	H	0.397893	-0.236836	-0.802074
N65	N	0.192262	0.273951	-1.120705
H66	H	0.158445	0.331646	-1.049683
H67	H	0.119296	0.245478	-1.185016
H68	H	0.362215	-0.143153	-1.088865
N69	N	0.013491	0.334052	-1.674165
H70	H	0.062415	0.270875	-1.730894
H71	H	-0.040860	0.405310	-1.728207
N72	N	0.196141	-0.274129	-1.122942
H73	H	0.123877	-0.246674	-1.188434
H74	H	0.161816	-0.333287	-1.053092
N75	N	0.196187	0.275476	-0.877704
H76	H	0.199118	0.277428	-0.781664
H77	H	0.104621	0.279951	-0.915737
H78	H	-0.228089	-0.099075	-1.698458
H79	H	-0.199536	-0.240762	-1.482974
N80	N	-0.217607	0.131186	-1.716054
H81	H	-0.295761	0.189863	-1.746035
H82	H	-0.173773	0.098133	-1.792148
H83	H	-0.419145	0.241491	-1.471814
N84	N	-0.406298	0.138086	-1.290457
H85	H	-0.371188	0.047035	-1.246534
H86	H	-0.501635	0.141919	-1.286779
H87	H	-0.202010	0.240794	-1.485928
H88	H	-0.181555	0.146983	-1.333558
