data_functionalizedCrystal
_audit_creation_method	'MofGen! by Chris Wilmer'
_symmetry_space_group_name_H-M	'P1'
_symmetry_Int_Tables_number	1
_symmetry_cell_setting	triclinic
loop_
_symmetry_equiv_pos_as_xyz
  x,y,z
_cell_length_a	10.654550
_cell_length_b	16.974813
_cell_length_c	9.130313
_cell_angle_alpha	86.340922
_cell_angle_beta	89.999724
_cell_angle_gamma	83.939176
loop_
_atom_site_label
_atom_site_type_symbol
_atom_site_fract_x
_atom_site_fract_y
_atom_site_fract_z
O1	O	1.666111	0.111056	-0.134851
O2	O	1.300468	0.121636	-0.136132
O3	O	1.493483	0.001299	-0.121847
O4	O	1.473097	0.231394	-0.149135
O5	O	1.493470	0.001295	0.121752
O6	O	1.300455	0.121633	0.107468
O7	O	1.666098	0.111052	0.108748
Cu8	Cu	1.483275	0.116342	0.130351
Cu9	Cu	1.483291	0.116346	-0.157734
O10	O	1.473083	0.231390	0.094464
C11	C	1.253676	0.120858	-0.014243
C12	C	1.114269	0.118533	-0.013978
C13	C	1.492701	-0.028166	0.003443
C14	C	1.490375	-0.115956	0.013845
C15	C	1.033681	0.189386	-0.022377
C16	C	0.902694	0.187198	-0.022091
C17	C	0.932896	0.043297	-0.005014
C18	C	1.063880	0.045486	-0.005289
C19	C	1.489292	-0.157193	-0.114054
C20	C	1.487099	-0.239680	-0.104276
C21	C	1.485997	-0.280929	0.033402
C22	C	1.487076	-0.239685	0.161310
C23	C	1.489261	-0.157199	0.151530
C24	C	1.479455	-0.527626	0.076888
C25	C	1.477274	-0.610118	0.086658
C26	C	1.477295	-0.610107	-0.178929
C27	C	1.479487	-0.527620	-0.188696
C28	C	1.480559	-0.486383	-0.060788
N29	N	1.483759	-0.365244	0.043399
N30	N	1.482788	-0.402069	-0.070788
C31	C	1.712891	0.111831	-0.013143
C32	C	1.852298	0.114155	-0.013418
C33	C	1.473865	0.260855	-0.030830
C34	C	1.476191	0.348644	-0.041241
N35	N	1.483274	0.116339	0.332974
N36	N	1.483303	0.116344	-0.360356
C37	C	1.568769	0.063076	0.415948
C38	C	1.568781	0.063076	0.569285
C39	C	1.397798	0.169609	0.556659
C40	C	1.397781	0.169605	0.403325
H41	H	1.074702	0.248866	-0.029440
H42	H	1.638381	0.019703	0.358672
H43	H	0.837083	0.244894	-0.028928
O44	O	1.651886	0.011446	0.650034
C45	C	1.729305	0.054249	0.733610
H46	H	1.679176	0.115828	0.749280
H47	H	1.749244	0.021363	0.845335
H48	H	1.822097	0.060168	0.673801
O49	O	1.314712	0.221244	0.625179
C50	C	1.237312	0.178445	0.718946
H51	H	1.287443	0.116866	0.749220
H52	H	1.217402	0.211335	0.822869
H53	H	1.144505	0.172528	0.660575
H54	H	1.328154	0.212978	0.335762
O55	O	0.883737	-0.027590	0.003340
C56	C	0.750845	-0.014331	0.001815
H57	H	0.719975	0.047204	-0.051602
H58	H	0.710705	-0.061114	-0.063354
H59	H	0.714397	-0.018363	0.119163
O60	O	1.141994	-0.023419	0.002812
C61	C	1.069436	-0.088362	0.010564
H62	H	0.971635	-0.068834	-0.037864
H63	H	1.117843	-0.138049	-0.054266
H64	H	1.060158	-0.110716	0.130085
H65	H	1.480385	-0.494041	-0.300808
O66	O	1.490305	-0.117245	-0.247913
C67	C	1.488908	-0.171337	-0.358700
H68	H	1.447610	-0.227081	-0.313162
H69	H	1.428604	-0.142818	-0.454959
H70	H	1.589377	-0.187851	-0.397566
O71	O	1.480685	-0.487496	0.201023
C72	C	1.590674	-0.448158	0.204311
H73	H	1.627241	-0.438589	0.087880
H74	H	1.567764	-0.388273	0.253405
H75	H	1.665955	-0.485800	0.274305
O76	O	1.485842	-0.279745	-0.228491
C77	C	1.375890	-0.319119	-0.231815
H78	H	1.300547	-0.288434	-0.160110
H79	H	1.339405	-0.317231	-0.349497
H80	H	1.398808	-0.383529	-0.188530
O81	O	1.485784	-0.279701	0.295081
C82	C	1.377621	-0.251180	0.372494
H83	H	1.302242	-0.222662	0.291414
H84	H	1.339697	-0.302624	0.438822
H85	H	1.403460	-0.205192	0.449845
O86	O	1.476009	-0.650189	-0.303121
C87	C	1.366047	-0.689557	-0.306365
H88	H	1.290730	-0.658851	-0.234652
H89	H	1.329526	-0.687691	-0.424029
H90	H	1.388965	-0.753960	-0.263039
O91	O	1.476145	-0.650062	0.220522
C92	C	1.477589	-0.595981	0.331322
H93	H	1.439408	-0.534125	0.285063
H94	H	1.416009	-0.615137	0.426452
H95	H	1.578515	-0.594950	0.372048
H96	H	1.490124	-0.123623	0.255679
