data_functionalizedCrystal
_audit_creation_method	'MofGen! by Chris Wilmer'
_symmetry_space_group_name_H-M	'P1'
_symmetry_Int_Tables_number	1
_symmetry_cell_setting	triclinic
loop_
_symmetry_equiv_pos_as_xyz
  x,y,z
_cell_length_a	16.120530
_cell_length_b	16.120484
_cell_length_c	12.759393
_cell_angle_alpha	92.864008
_cell_angle_beta	87.079999
_cell_angle_gamma	90.167327
loop_
_atom_site_label
_atom_site_type_symbol
_atom_site_fract_x
_atom_site_fract_y
_atom_site_fract_z
Zn1	Zn	1.254505	-0.395558	-0.699367
Zn2	Zn	1.587838	-0.062225	-0.366034
Zn3	Zn	1.921171	0.271109	-0.032701
Zn4	Zn	1.247340	-0.534629	-0.532099
Zn5	Zn	1.580674	-0.201296	-0.198766
Zn6	Zn	1.914007	0.132037	0.134568
Zn7	Zn	1.115436	-0.388538	-0.514373
Zn8	Zn	1.448769	-0.055205	-0.181040
Zn9	Zn	1.782103	0.278129	0.152294
Zn10	Zn	1.108357	-0.527511	-0.698406
Zn11	Zn	1.441690	-0.194178	-0.365073
Zn12	Zn	1.775023	0.139156	-0.031739
O13	O	1.181409	-0.461559	-0.611061
O14	O	1.514743	-0.128226	-0.277728
O15	O	1.848076	0.205108	0.055605
O16	O	1.369920	-0.419923	-0.685000
O17	O	1.703253	-0.086590	-0.351666
O18	O	2.036587	0.246744	-0.018333
O19	O	1.229807	-0.515291	-0.382727
O20	O	1.563141	-0.181958	-0.049394
O21	O	1.896474	0.151376	0.283940
O22	O	1.139845	-0.273106	-0.531897
O23	O	1.473178	0.060227	-0.198563
O24	O	1.806511	0.393560	0.134770
O25	O	1.364657	-0.522098	-0.562108
O26	O	1.697990	-0.188765	-0.228775
O27	O	2.031323	0.144569	0.104558
O28	O	1.242018	-0.278264	-0.667811
O29	O	1.575351	0.055069	-0.334478
O30	O	1.908684	0.388403	-0.001145
O31	O	1.132898	-0.407958	-0.369704
O32	O	1.466231	-0.074625	-0.036370
O33	O	1.799564	0.258708	0.296963
O34	O	0.998131	-0.401056	-0.530965
O35	O	1.331464	-0.067723	-0.197631
O36	O	1.664798	0.265611	0.135702
O37	O	1.127779	-0.509966	-0.845554
O38	O	1.461112	-0.176633	-0.512221
O39	O	1.794446	0.156701	-0.178888
O40	O	0.992930	-0.503159	-0.666173
O41	O	1.326263	-0.169826	-0.332840
O42	O	1.659597	0.163508	0.000494
O43	O	1.235153	-0.413021	-0.846261
O44	O	1.568487	-0.079687	-0.512927
O45	O	1.901820	0.253646	-0.179594
O46	O	1.222943	-0.650048	-0.561176
O47	O	1.556276	-0.316714	-0.227843
O48	O	1.889610	0.016619	0.105490
O49	O	1.120832	-0.644818	-0.683361
O50	O	1.454166	-0.311485	-0.350028
O51	O	1.787499	0.021849	-0.016695
C52	C	0.965358	-0.450574	-0.596542
C53	C	1.298691	-0.117241	-0.263208
C54	C	1.632025	0.216093	0.070125
C55	C	0.872929	-0.445895	-0.590356
C56	C	1.206263	-0.112561	-0.257023
C57	C	1.539596	0.220772	0.076311
C58	C	1.170365	-0.677606	-0.624112
C59	C	1.503698	-0.344272	-0.290779
C60	C	1.837031	-0.010939	0.042554
C61	C	1.165716	-0.770035	-0.629736
C62	C	1.499049	-0.436702	-0.296403
C63	C	1.832382	-0.103368	0.036931
C64	C	0.703702	-0.437332	-0.579071
C65	C	1.037035	-0.103998	-0.245737
C66	C	1.370368	0.229335	0.087596
C67	C	0.659954	-0.485848	-0.643132
C68	C	0.993288	-0.152514	-0.309799
C69	C	1.326621	0.180819	0.023534
C70	C	0.565790	-0.481083	-0.636853
C71	C	0.899124	-0.147750	-0.303520
C72	C	1.232457	0.185583	0.029814
C73	C	0.797874	-0.442095	-0.585349
C74	C	1.131208	-0.108762	-0.252015
C75	C	1.464541	0.224572	0.081318
C76	C	1.157233	-0.939265	-0.640025
C77	C	1.490566	-0.605932	-0.306691
C78	C	1.823899	-0.272599	0.026642
C79	C	1.205735	-0.983020	-0.582125
C80	C	1.539068	-0.649687	-0.248792
C81	C	1.872402	-0.316353	0.084542
C82	C	1.201015	-1.077185	-0.587850
C83	C	1.534349	-0.743852	-0.254517
C84	C	1.867682	-0.410519	0.078817
C85	C	1.161952	-0.845091	-0.634301
C86	C	1.495285	-0.511758	-0.300968
C87	C	1.828618	-0.178424	0.032365
C88	C	1.398304	-0.472588	-0.625638
C89	C	1.731638	-0.139254	-0.292305
C90	C	2.064971	0.194079	0.041028
C91	C	1.490732	-0.477287	-0.631850
C92	C	1.824065	-0.143954	-0.298517
C93	C	2.157399	0.189379	0.034816
C94	C	1.181476	-0.461482	-0.885094
C95	C	1.514809	-0.128149	-0.551761
C96	C	1.848142	0.205184	-0.218427
C97	C	1.181504	-0.461450	-1.001871
C98	C	1.514837	-0.128116	-0.668537
C99	C	1.848171	0.205217	-0.335204
C100	C	1.192520	-0.244670	-0.597984
C101	C	1.525853	0.088663	-0.264651
C102	C	1.859187	0.421997	0.068683
C103	C	1.197255	-0.152245	-0.592411
C104	C	1.530588	0.181088	-0.259078
C105	C	1.863921	0.514422	0.074256
C106	C	1.237418	-0.410962	-1.057102
C107	C	1.570751	-0.077629	-0.723768
C108	C	1.904085	0.255705	-0.390435
C109	C	1.237434	-0.410927	-1.166825
C110	C	1.570767	-0.077593	-0.833491
C111	C	1.904101	0.255740	-0.500158
C112	C	1.125619	-0.511874	-1.166076
C113	C	1.458952	-0.178541	-0.832743
C114	C	1.792286	0.154792	-0.499409
C115	C	1.125600	-0.511904	-1.056354
C116	C	1.458933	-0.178571	-0.723021
C117	C	1.792266	0.154762	-0.389688
C118	C	1.181394	-0.461578	-0.338094
C119	C	1.514728	-0.128245	-0.004761
C120	C	1.848061	0.205089	0.328572
C121	C	1.181539	-0.461384	-0.221315
C122	C	1.514872	-0.128051	0.112018
C123	C	1.848206	0.205282	0.445352
H124	H	0.693221	-0.530960	-0.702694
H125	H	1.026554	-0.197627	-0.369361
H126	H	1.359887	0.135706	-0.036028
H127	H	0.670437	-0.392222	-0.519514
H128	H	1.003771	-0.058889	-0.186181
H129	H	1.337104	0.274445	0.147152
O130	O	1.259381	-0.943305	-0.517727
O131	O	1.592715	-0.609971	-0.184394
O132	O	1.926048	-0.276638	0.148939
C133	C	1.214523	-0.890732	-0.443673
C134	C	1.547856	-0.557399	-0.110340
C135	C	1.881190	-0.224066	0.222993
H136	H	1.147740	-0.913713	-0.434296
H137	H	1.481073	-0.580380	-0.100963
H138	H	1.814406	-0.247047	0.232371
H139	H	1.244676	-0.891198	-0.364805
H140	H	1.578009	-0.557865	-0.031471
H141	H	1.911342	-0.224532	0.301862
H142	H	1.214880	-0.824776	-0.472035
H143	H	1.548213	-0.491442	-0.138702
H144	H	1.881547	-0.158109	0.194632
O145	O	1.071243	-0.560913	-1.218838
O146	O	1.404576	-0.227579	-0.885505
O147	O	1.737909	0.105754	-0.552172
C148	C	1.021901	-0.605497	-1.146559
C149	C	1.355234	-0.272163	-0.813226
C150	C	1.688568	0.061170	-0.479893
H151	H	1.020750	-0.571310	-1.066100
H152	H	1.354084	-0.237977	-0.732767
H153	H	1.687417	0.095356	-0.399433
H154	H	0.955935	-0.611029	-1.174388
H155	H	1.289268	-0.277696	-0.841055
H156	H	1.622602	0.055638	-0.507721
H157	H	1.049116	-0.670201	-1.140743
H158	H	1.382450	-0.336868	-0.807410
H159	H	1.715783	-0.003534	-0.474076
H160	H	1.080062	-0.553017	-1.011384
H161	H	1.413395	-0.219683	-0.678050
H162	H	1.746728	0.113650	-0.344717
H163	H	1.112167	-0.972524	-0.693889
H164	H	1.445500	-0.639191	-0.360555
H165	H	1.778833	-0.305858	-0.027222
O166	O	1.291746	-0.361870	-1.004334
O167	O	1.625080	-0.028536	-0.671001
O168	O	1.958413	0.304797	-0.337667
C169	C	1.341113	-0.317315	-1.076618
C170	C	1.674447	0.016018	-0.743285
C171	C	2.007780	0.349351	-0.409952
H172	H	1.307213	-0.312684	-1.152365
H173	H	1.640546	0.020649	-0.819031
H174	H	1.973880	0.353983	-0.485698
H175	H	1.353334	-0.252258	-1.041566
H176	H	1.686667	0.081075	-0.708232
H177	H	2.020001	0.414408	-0.374899
H178	H	1.402711	-0.350973	-1.094375
H179	H	1.736044	-0.017640	-0.761042
H180	H	2.069378	0.315694	-0.427709
H181	H	1.282964	-0.369813	-1.211789
H182	H	1.616297	-0.036480	-0.878456
H183	H	1.949630	0.296854	-0.545122
