data_functionalizedCrystal
_audit_creation_method	'MofGen! by Chris Wilmer'
_symmetry_space_group_name_H-M	'P1'
_symmetry_Int_Tables_number	1
_symmetry_cell_setting	triclinic
loop_
_symmetry_equiv_pos_as_xyz
  x,y,z
_cell_length_a	10.686285
_cell_length_b	21.395362
_cell_length_c	21.395355
_cell_angle_alpha	90.048039
_cell_angle_beta	85.619443
_cell_angle_gamma	94.352004
loop_
_atom_site_label
_atom_site_type_symbol
_atom_site_fract_x
_atom_site_fract_y
_atom_site_fract_z
Zn1	Zn	-0.501858	-0.977078	-0.335605
Zn2	Zn	-0.001858	-0.477078	0.164395
Zn3	Zn	-0.712826	-0.985059	-0.222820
Zn4	Zn	-0.212826	-0.485059	0.277180
Zn5	Zn	-0.501925	-0.872295	-0.230796
Zn6	Zn	-0.001925	-0.372295	0.269204
Zn7	Zn	-0.712861	-0.880342	-0.327516
Zn8	Zn	-0.212861	-0.380342	0.172484
O9	O	-0.607367	-0.928694	-0.279184
O10	O	-0.107367	-0.428694	0.220816
O11	O	-0.529800	-1.065813	-0.320691
O12	O	-0.029800	-0.565813	0.179309
O13	O	-0.684863	-0.970073	-0.136199
O14	O	-0.184863	-0.470073	0.363801
O15	O	-0.325348	-0.879487	-0.251423
O16	O	0.174652	-0.379487	0.248577
O17	O	-0.684798	-1.071677	-0.237828
O18	O	-0.184798	-0.571677	0.262172
O19	O	-0.325298	-0.956470	-0.328426
O20	O	0.174702	-0.456470	0.171574
O21	O	-0.529915	-0.887226	-0.142060
O22	O	-0.029915	-0.387226	0.357940
O23	O	-0.529949	-0.785686	-0.243579
O24	O	-0.029949	-0.285686	0.256421
O25	O	-0.684857	-0.893202	-0.416267
O26	O	-0.184857	-0.393202	0.083733
O27	O	-0.684922	-0.791598	-0.314638
O28	O	-0.184922	-0.291598	0.185362
O29	O	-0.529834	-0.964273	-0.422210
O30	O	-0.029834	-0.464273	0.077790
O31	O	-0.889399	-0.977876	-0.229984
O32	O	-0.389399	-0.477876	0.270016
O33	O	-0.889424	-0.900941	-0.306904
O34	O	-0.389424	-0.400941	0.193096
C35	C	-0.607448	-0.765909	-0.279097
C36	C	-0.107448	-0.265909	0.220903
C37	C	-0.607512	-0.696270	-0.279073
C38	C	-0.107512	-0.196270	0.220927
C39	C	-0.935194	-0.941165	-0.266715
C40	C	-0.435194	-0.441165	0.233285
C41	C	-1.075439	-0.946557	-0.261401
C42	C	-0.575439	-0.446557	0.238599
C43	C	-0.688317	-0.666656	-0.316007
C44	C	-0.188317	-0.166656	0.183993
C45	C	-0.688291	-0.601220	-0.316031
C46	C	-0.188291	-0.101220	0.183969
C47	C	-0.607475	-0.565400	-0.279110
C48	C	-0.107475	-0.065400	0.220890
C49	C	-0.526655	-0.595022	-0.242174
C50	C	-0.026655	-0.095022	0.257826
C51	C	-0.526674	-0.660457	-0.242155
C52	C	-0.026674	-0.160457	0.257845
C53	C	-0.597319	-0.461287	-0.223083
C54	C	-0.097319	0.038713	0.276917
C55	C	-0.597309	-0.395853	-0.223100
C56	C	-0.097309	0.104147	0.276900
C57	C	-0.607409	-0.363577	-0.279167
C58	C	-0.107409	0.136423	0.220833
C59	C	-0.617546	-0.396743	-0.335218
C60	C	-0.117546	0.103257	0.164782
C61	C	-0.617565	-0.462178	-0.335200
C62	C	-0.117565	0.037822	0.164800
C63	C	-0.607445	-0.494447	-0.279126
C64	C	-0.107445	0.005553	0.220874
C65	C	-0.688190	-0.263010	-0.316131
C66	C	-0.188190	0.236990	0.183869
C67	C	-0.688156	-0.197572	-0.316156
C68	C	-0.188156	0.302428	0.183844
C69	C	-0.526526	-0.191375	-0.242292
C70	C	-0.026526	0.308625	0.257708
C71	C	-0.526554	-0.256812	-0.242273
C72	C	-0.026554	0.243188	0.257727
C73	C	-0.607393	-0.292625	-0.279191
C74	C	-0.107393	0.207375	0.220809
C75	C	-0.278261	-0.916191	-0.291716
C76	C	0.221739	-0.416191	0.208284
C77	C	-0.138015	-0.910863	-0.297057
C78	C	0.361985	-0.410863	0.202943
C79	C	-0.607342	-0.928745	-0.442609
C80	C	-0.107342	-0.428745	0.057391
C81	C	-0.607331	-0.928766	-0.512250
C82	C	-0.107331	-0.428766	-0.012250
C83	C	-0.607309	-0.092115	-0.279254
C84	C	-0.107309	0.407885	0.220746
C85	C	-0.607337	-0.161757	-0.279235
C86	C	-0.107337	0.338243	0.220765
C87	C	-0.526607	-0.965771	-0.548059
C88	C	-0.026607	-0.465771	-0.048059
C89	C	-0.526553	-0.965768	-0.613497
C90	C	-0.026553	-0.465768	-0.113497
C91	C	-0.607245	-0.928768	-0.643122
C92	C	-0.107245	-0.428768	-0.143122
C93	C	-0.687974	-0.891755	-0.607305
C94	C	-0.187974	-0.391755	-0.107305
C95	C	-0.688017	-0.891755	-0.541869
C96	C	-0.188017	-0.391755	-0.041869
C97	C	-0.720859	-0.928143	-0.742473
C98	C	-0.220859	-0.428143	-0.242473
C99	C	-0.720818	-0.928148	-0.807908
C100	C	-0.220818	-0.428148	-0.307908
C101	C	-0.607111	-0.928767	-0.844948
C102	C	-0.107111	-0.428767	-0.344948
C103	C	-0.493442	-0.929393	-0.816546
C104	C	0.006558	-0.429393	-0.316546
C105	C	-0.493485	-0.929392	-0.751110
C106	C	0.006515	-0.429392	-0.251110
C107	C	-0.607207	-0.928764	-0.714076
C108	C	-0.107207	-0.428764	-0.214076
C109	C	-0.526322	-0.965770	-0.951712
C110	C	-0.026322	-0.465770	-0.451712
C111	C	-0.526266	-0.965763	-1.017151
C112	C	-0.026266	-0.465763	-0.517151
C113	C	-0.687699	-0.891754	-1.010957
C114	C	-0.187699	-0.391754	-0.510957
C115	C	-0.687744	-0.891757	-0.945520
C116	C	-0.187744	-0.391757	-0.445520
C117	C	-0.607057	-0.928769	-0.915901
C118	C	-0.107057	-0.428769	-0.415901
C119	C	-0.607302	-0.928675	-0.116399
C120	C	-0.107302	-0.428675	0.383601
C121	C	-0.606957	-0.928761	-0.046771
C122	C	-0.106957	-0.428761	0.453229
H123	H	-0.754140	-0.695811	-0.346070
H124	H	-0.254140	-0.195811	0.153930
H125	H	-1.084298	-0.876179	-0.331649
H126	H	-0.584298	-0.376179	0.168351
Cl127	Cl	-0.424969	-0.294043	-0.195837
Cl128	Cl	0.075031	0.205957	0.304163
Cl129	Cl	-0.424919	-0.146351	-0.195880
Cl130	Cl	0.075081	0.353649	0.304120
H131	H	-0.460811	-0.995901	-0.642658
H132	H	0.039189	-0.495901	-0.142658
Cl133	Cl	-1.158377	-1.000104	-0.207981
Cl134	Cl	-0.658377	-0.500104	0.292019
Cl135	Cl	-0.789882	-0.563982	-0.362466
Cl136	Cl	-0.289882	-0.063982	0.137534
Cl137	Cl	-0.584564	-0.354165	-0.152637
Cl138	Cl	-0.084564	0.145835	0.347363
Cl139	Cl	-0.630300	-0.503870	-0.405661
Cl140	Cl	-0.130300	-0.003870	0.094339
H141	H	-0.625769	-0.370465	-0.380874
H142	H	-0.125769	0.129535	0.119126
Cl143	Cl	-0.350594	-0.930175	-0.715406
Cl144	Cl	0.149406	-0.430175	-0.215406
Cl145	Cl	-0.425165	-1.012296	-0.510828
Cl146	Cl	0.074835	-0.512296	-0.010828
H147	H	-0.400852	-0.929898	-0.846703
H148	H	0.099148	-0.429898	-0.346703
H149	H	-0.460615	-0.995904	-0.927595
H150	H	0.039385	-0.495904	-0.427595
Cl151	Cl	-0.863822	-0.927384	-0.695914
Cl152	Cl	-0.363822	-0.427384	-0.195914
Cl153	Cl	-0.424794	-1.012299	-1.062168
Cl154	Cl	0.075206	-0.512299	-0.562168
H155	H	-0.753387	-0.861620	-1.035078
H156	H	-0.253387	-0.361620	-0.535078
H157	H	-0.753671	-0.861627	-0.631430
H158	H	-0.253671	-0.361627	-0.131430
H159	H	-0.753486	-0.861628	-0.916364
H160	H	-0.253486	-0.361628	-0.416364
Cl161	Cl	-0.863715	-0.927366	-0.843606
Cl162	Cl	-0.363715	-0.427366	-0.343606
H163	H	-0.753751	-0.861618	-0.512714
H164	H	-0.253751	-0.361618	-0.012714
H165	H	-0.754008	-0.292170	-0.346195
H166	H	-0.254008	0.207830	0.153805
Cl167	Cl	-0.584625	-0.501856	-0.152590
Cl168	Cl	-0.084625	-0.001856	0.347410
Cl169	Cl	-0.789742	-0.160342	-0.362596
Cl170	Cl	-0.289742	0.339658	0.137404
Cl171	Cl	-0.425051	-0.549993	-0.195761
Cl172	Cl	0.074949	-0.049993	0.304239
H173	H	-0.460869	-0.684568	-0.212079
H174	H	0.039131	-0.184568	0.287921
