data_functionalizedCrystal
_audit_creation_method	'MofGen! by Chris Wilmer'
_symmetry_space_group_name_H-M	'P1'
_symmetry_Int_Tables_number	1
_symmetry_cell_setting	triclinic
loop_
_symmetry_equiv_pos_as_xyz
  x,y,z
_cell_length_a	10.723023
_cell_length_b	17.038272
_cell_length_c	15.500215
_cell_angle_alpha	92.987413
_cell_angle_beta	93.158621
_cell_angle_gamma	87.789552
loop_
_atom_site_label
_atom_site_type_symbol
_atom_site_fract_x
_atom_site_fract_y
_atom_site_fract_z
O1	O	1.672860	0.112990	0.071943
O2	O	2.172860	0.612990	0.571943
O3	O	1.310679	0.123493	0.071946
O4	O	1.810679	0.623493	0.571946
O5	O	1.489617	0.004414	0.071938
O6	O	1.989617	0.504414	0.571938
O7	O	1.493923	0.232069	0.071951
O8	O	1.993923	0.732069	0.571951
O9	O	1.478556	-0.002132	-0.071952
O10	O	1.978556	0.497868	0.428048
O11	O	1.299619	0.116947	-0.071944
O12	O	1.799619	0.616947	0.428056
O13	O	1.661799	0.106444	-0.071946
O14	O	2.161799	0.606444	0.428054
Cu15	Cu	1.479699	0.111098	-0.085083
Cu16	Cu	1.979699	0.611098	0.414917
Cu17	Cu	1.492780	0.118839	0.085083
Cu18	Cu	1.992780	0.618839	0.585083
O19	O	1.482862	0.225523	-0.071938
O20	O	1.982862	0.725523	0.428062
C21	C	1.258579	0.119456	0.000001
C22	C	1.758579	0.619456	0.500001
C23	C	1.119813	0.117169	0.000002
C24	C	1.619813	0.617169	0.500002
C25	C	1.063677	0.119541	0.074541
C26	C	1.563677	0.619541	0.574541
C27	C	0.920255	0.117178	0.074544
C28	C	1.420255	0.617178	0.574544
C29	C	1.480171	-0.028009	-0.000007
C30	C	1.980171	0.471991	0.499993
C31	C	1.468489	-0.114866	-0.000007
C32	C	1.968489	0.385134	0.499993
C33	C	1.575744	-0.164388	-0.000008
C34	C	2.075744	0.335612	0.499992
C35	C	1.564761	-0.245999	0.000000
C36	C	2.064761	0.254001	0.500000
C37	C	1.446520	-0.278087	0.000004
C38	C	1.946520	0.221913	0.500004
C39	C	1.339257	-0.228559	0.000008
C40	C	1.839257	0.271441	0.500008
C41	C	1.350242	-0.146949	0.000006
C42	C	1.850242	0.353051	0.500006
C43	C	1.407712	-0.524059	0.000016
C44	C	1.907712	-0.024059	0.500016
C45	C	1.396735	-0.605675	0.000015
C46	C	1.896735	-0.105675	0.500015
C47	C	1.622240	-0.623109	0.000009
C48	C	2.122240	-0.123109	0.500009
C49	C	1.633214	-0.541497	0.000002
C50	C	2.133214	-0.041497	0.500002
C51	C	1.525951	-0.491976	0.000011
C52	C	2.025951	0.008024	0.500011
C53	C	1.435290	-0.361506	0.000010
C54	C	1.935290	0.138494	0.500010
C55	C	1.537183	-0.408558	0.000011
C56	C	2.037183	0.091442	0.500011
C57	C	1.713900	0.110481	0.000000
C58	C	2.213900	0.610481	0.500000
C59	C	1.852666	0.112768	0.000005
C60	C	2.352666	0.612768	0.500005
C61	C	1.492308	0.257946	0.000008
C62	C	1.992308	0.757946	0.500008
C63	C	1.503991	0.344804	0.000014
C64	C	2.003991	0.844804	0.500014
N65	N	1.470508	0.105652	-0.204769
N66	N	1.970508	0.605652	0.295231
C67	C	1.547791	0.151475	-0.250039
C68	C	2.047791	0.651475	0.249961
C69	C	1.540856	0.147351	-0.340613
C70	C	2.040856	0.647351	0.159387
C71	C	1.456631	0.097409	-0.385914
C72	C	1.956631	0.597409	0.114086
C73	C	1.379344	0.051580	-0.340637
C74	C	1.879344	0.551580	0.159363
C75	C	1.386286	0.055700	-0.250065
C76	C	1.886286	0.555700	0.249935
C77	C	1.431636	0.082571	-0.659383
C78	C	1.931636	0.582571	-0.159383
C79	C	1.424697	0.078456	-0.749961
C80	C	1.924697	0.578456	-0.249961
C81	C	1.586211	0.174226	-0.749931
C82	C	2.086211	0.674226	-0.249931
C83	C	1.593140	0.178345	-0.659357
C84	C	2.093140	0.678345	-0.159357
C85	C	1.515859	0.132514	-0.614088
C86	C	2.015859	0.632514	-0.114088
C87	C	1.449537	0.093195	-0.478494
C88	C	1.949537	0.593195	0.021506
C89	C	1.522959	0.136724	-0.521509
C90	C	2.022959	0.636724	-0.021509
N91	N	1.501980	0.124279	0.204769
N92	N	2.001980	0.624279	0.704769
H93	H	1.672027	-0.138269	-0.000016
H94	H	2.172027	0.361731	0.499984
F95	F	1.236086	-0.094244	0.000010
F96	F	1.736086	0.405756	0.500010
F97	F	1.612600	0.189872	-0.473295
F98	F	2.112600	0.689872	0.026705
H99	H	1.320371	-0.483748	0.000023
H100	H	1.820371	0.016252	0.500023
H101	H	0.871958	0.119203	0.138360
H102	H	1.371958	0.619203	0.638360
H103	H	1.121795	0.123326	0.138355
H104	H	1.621795	0.623326	0.638355
F105	F	1.270882	-0.639823	0.000015
F106	F	1.770882	-0.139823	0.500015
H107	H	1.061694	0.113394	-0.063812
H108	H	1.561694	0.613394	0.436188
F109	F	1.213417	-0.262711	0.000022
F110	F	1.713417	0.237289	0.500022
F111	F	1.678917	-0.298700	-0.000003
F112	F	2.178917	0.201300	0.499997
H113	H	1.729498	-0.515378	-0.000001
H114	H	2.229498	-0.015378	0.499999
F115	F	0.915782	0.110112	-0.083413
F116	F	1.415782	0.610112	0.416587
H117	H	1.709567	-0.663437	0.000004
H118	H	2.209567	-0.163437	0.500004
F119	F	1.359893	0.040048	-0.526715
F120	F	1.859893	0.540048	-0.026715
F121	F	1.663019	-0.374406	0.000012
F122	F	2.163019	0.125594	0.500012
F123	F	1.309453	-0.395664	0.000017
F124	F	1.809453	0.104336	0.500017
H125	H	1.616369	0.192148	-0.213162
H126	H	2.116369	0.692148	0.286838
F127	F	1.623111	0.196124	-0.388789
F128	F	2.123111	0.696124	0.111211
H129	H	1.661729	0.219012	-0.622479
H130	H	2.161729	0.719012	-0.122479
H131	H	1.649130	0.211539	-0.786798
H132	H	2.149130	0.711539	-0.286798
H133	H	1.323354	0.018386	-0.213207
H134	H	1.823354	0.518386	0.286793
H135	H	1.356104	0.037787	-0.786843
H136	H	1.856104	0.537787	-0.286843
F137	F	1.349349	0.033816	-0.611216
F138	F	1.849349	0.533816	-0.111216
F139	F	1.289708	-0.001575	-0.388852
F140	F	1.789708	0.498425	0.111148
