data_functionalizedCrystal
_audit_creation_method	'MofGen! by Chris Wilmer'
_symmetry_space_group_name_H-M	'P1'
_symmetry_Int_Tables_number	1
_symmetry_cell_setting	triclinic
loop_
_symmetry_equiv_pos_as_xyz
  x,y,z
_cell_length_a	9.130313
_cell_length_b	10.654583
_cell_length_c	10.654554
_cell_angle_alpha	95.507313
_cell_angle_beta	89.997363
_cell_angle_gamma	90.005937
loop_
_atom_site_label
_atom_site_type_symbol
_atom_site_fract_x
_atom_site_fract_y
_atom_site_fract_z
O1	O	-0.121998	-1.667813	0.176592
O2	O	-0.121959	-1.302340	0.193354
O3	O	-0.121965	-1.493476	0.002235
O4	O	-0.121993	-1.476676	0.367711
O5	O	0.121634	-1.493474	0.002240
O6	O	0.121640	-1.302337	0.193360
O7	O	0.121601	-1.667810	0.176597
Cu8	Cu	0.143863	-1.485074	0.184979
Cu9	Cu	-0.144221	-1.485076	0.184973
O10	O	0.121606	-1.476674	0.367716
C11	C	-0.000155	-1.255541	0.192117
C12	C	-0.000139	-1.116100	0.188409
C13	C	-0.000164	-1.492240	-0.044560
C14	C	-0.000162	-1.488546	-0.184004
N15	N	0.346485	-1.485081	0.184982
N16	N	-0.346844	-1.485079	0.184959
C17	C	0.423135	-1.569738	0.100384
C18	C	0.576472	-1.569735	0.100369
C19	C	0.576496	-1.400413	0.269562
C20	C	0.423162	-1.400411	0.269570
C21	C	0.423122	-1.667498	0.002705
C22	C	0.576459	-1.667495	0.002690
C23	C	0.132639	-1.050569	0.186682
C24	C	0.132623	-0.919548	0.183207
C25	C	-0.132962	-0.919600	0.183192
C26	C	-0.132944	-1.050620	0.186658
C27	C	0.285973	-1.050537	0.186696
C28	C	0.285956	-0.919515	0.183221
C29	C	-0.000192	-0.714611	0.177815
C30	C	-0.000174	-0.854059	0.181469
C31	C	-0.000182	-1.369061	-0.366580
C32	C	-0.000163	-1.372532	-0.235558
C33	C	-0.000194	-1.601098	-0.263479
C34	C	-0.000223	-1.597626	-0.394499
C35	C	-0.000157	-1.237100	-0.350458
C36	C	-0.000139	-1.240571	-0.219436
C37	C	-0.000197	-1.477910	0.414512
C38	C	-0.000209	-1.481604	0.553955
H39	H	0.360755	-1.331466	0.338445
C40	C	0.365518	-1.113034	0.069447
N41	N	0.425427	-1.160107	-0.018866
C42	C	-0.279040	-0.847559	0.181272
N43	N	-0.389069	-0.793299	0.179828
H44	H	-0.102098	-1.185488	-0.379803
C45	C	0.350268	-0.879532	0.059492
N46	N	0.398711	-0.849415	-0.033697
H47	H	0.105013	-1.195068	-0.386115
C48	C	0.350251	-1.090499	0.310433
N49	N	0.398667	-1.120599	0.403633
C50	C	0.365102	-0.856959	0.300656
N51	N	0.424580	-0.809835	0.389171
H52	H	-0.000262	-1.689270	-0.459196
H53	H	-0.000231	-1.695559	-0.221494
C54	C	0.660855	-1.307280	0.362601
N55	N	0.724392	-1.237129	0.432680
C56	C	-0.142213	-1.186699	-0.157747
N57	N	-0.249222	-1.146126	-0.111281
H58	H	0.624016	-1.636981	-0.088536
C59	C	0.632671	-1.797843	0.031872
N60	N	0.675009	-1.896005	0.053888
C61	C	-0.279010	-1.122704	0.188527
N62	N	-0.389033	-1.176998	0.189930
C63	C	0.137605	-1.173410	-0.163059
N64	N	0.241353	-1.122831	-0.120597
H65	H	0.375551	-1.758681	0.033304
C66	C	0.366902	-1.638519	-0.127704
N67	N	0.324557	-1.616689	-0.225924
