data_functionalizedCrystal
_audit_creation_method	'MofGen! by Chris Wilmer'
_symmetry_space_group_name_H-M	'P1'
_symmetry_Int_Tables_number	1
_symmetry_cell_setting	triclinic
loop_
_symmetry_equiv_pos_as_xyz
  x,y,z
_cell_length_a	27.440280
_cell_length_b	23.196402
_cell_length_c	27.440280
_cell_angle_alpha	60.001144
_cell_angle_beta	90.008670
_cell_angle_gamma	59.998982
loop_
_atom_site_label
_atom_site_type_symbol
_atom_site_fract_x
_atom_site_fract_y
_atom_site_fract_z
Zr1	Zr	0.469507	0.630940	-0.063875
O2	O	0.391681	0.751226	-0.141699
O3	O	0.493364	0.510669	-0.040021
O4	O	0.493353	0.630946	-0.141690
O5	O	0.391702	0.630939	0.040173
O6	O	0.573555	0.630935	-0.141680
O7	O	0.391692	0.630948	-0.040029
O8	O	0.573575	0.415781	0.040188
O9	O	0.391683	0.846093	-0.141695
O10	O	0.563395	0.560125	-0.029836
O11	O	0.503548	0.560126	0.030010
O12	O	0.503535	0.701737	-0.089692
O13	O	0.443689	0.701738	-0.029846
Zr14	Zr	0.597439	0.630907	0.064054
Zr15	Zr	0.597422	0.630923	-0.063859
Zr16	Zr	0.469525	0.630925	0.064038
Zr17	Zr	0.469511	0.782243	-0.063869
Zr18	Zr	0.597435	0.479605	0.064049
O19	O	0.573583	0.751179	0.040200
O20	O	0.573558	0.751200	-0.141676
O21	O	0.391705	0.751204	0.040177
O22	O	0.675266	0.510622	0.141878
O23	O	0.675241	0.510644	-0.039998
O24	O	0.493388	0.510647	0.141855
O25	O	0.675244	0.630909	-0.039994
O26	O	0.573594	0.630901	0.141870
O27	O	0.493391	0.630912	0.141860
O28	O	0.675255	0.630899	0.040209
O29	O	0.493358	0.846079	-0.141682
O30	O	0.573589	0.415769	0.141862
O31	O	0.675263	0.415755	0.141875
O32	O	0.675250	0.415767	0.040201
O33	O	0.391697	0.846081	-0.040021
O34	O	0.493371	0.846067	-0.040009
O35	O	0.563411	0.560111	0.089872
O36	O	0.623257	0.560109	0.030025
O37	O	0.563398	0.701722	-0.029831
O38	O	0.503552	0.701723	0.030016
C39	C	0.533469	0.441668	0.000083
C40	C	0.533467	0.377436	0.000081
C41	C	0.564702	0.347265	-0.031161
C42	C	0.564708	0.286904	-0.031156
C43	C	0.533467	0.256728	0.000082
C44	C	0.502231	0.286903	0.031330
C45	C	0.502231	0.347257	0.031330
C46	C	0.481133	0.194706	-0.004383
C47	C	0.481131	0.134357	-0.004387
C48	C	0.533468	0.070573	0.000088
C49	C	0.585806	0.067153	0.004555
C50	C	0.585806	0.127507	0.004554
C51	C	0.533464	0.191283	0.000087
C52	C	0.564712	-0.025049	-0.031150
C53	C	0.564719	-0.085415	-0.031140
C54	C	0.502236	-0.085409	0.031342
C55	C	0.502235	-0.025051	0.031337
C56	C	0.533471	0.005129	0.000088
C57	C	0.373472	0.630946	0.000070
C58	C	0.319169	0.630954	0.000063
C59	C	0.013717	0.556990	0.031351
C60	C	-0.037301	0.556986	0.031356
O61	O	-0.037116	0.494120	0.057946
N62	N	-0.094064	0.630905	0.000111
C63	C	-0.099807	0.704834	-0.031136
O64	O	-0.152773	0.767707	-0.057712
C65	C	-0.048789	0.704837	-0.031138
C66	C	0.007973	0.630913	0.000104
C67	C	0.070477	0.483072	0.062591
C68	C	0.121492	0.483077	0.062584
C69	C	0.115747	0.557000	0.031338
C70	C	0.058987	0.630918	0.000098
C71	C	-0.054533	0.778765	-0.062381
C72	C	-0.003509	0.778762	-0.062380
C73	C	0.053253	0.704838	-0.031138
C74	C	0.104258	0.704846	-0.031155
N75	N	0.161020	0.630926	0.000090
C76	C	0.166765	0.557004	0.031336
C77	C	-0.206946	0.704820	-0.031130
C78	C	-0.257963	0.704818	-0.031133
C79	C	-0.195453	0.556969	0.031361
C80	C	-0.144436	0.556973	0.031359
C81	C	-0.150183	0.630901	0.000115
C82	C	0.273897	0.557019	0.031320
C83	C	0.324914	0.557031	0.031309
C84	C	0.262400	0.704878	-0.031181
C85	C	0.211388	0.704867	-0.031173
C86	C	0.217140	0.630931	0.000082
O87	O	0.104118	0.767680	-0.057730
O88	O	0.219732	0.494140	0.057914
C89	C	0.693474	0.630902	0.000110
C90	C	0.747777	0.630894	0.000117
C91	C	0.533452	0.630943	-0.159910
C92	C	0.533444	0.630949	-0.214213
C93	C	0.533478	0.820180	0.000097
C94	C	0.533479	0.884412	0.000099
C95	C	0.577674	0.630899	-0.550904
C96	C	0.577679	0.630893	-0.601922
O97	O	0.615270	0.630858	-0.628292
N98	N	0.533494	0.630901	-0.627445
C99	C	0.489305	0.630906	-0.601945
O100	O	0.451723	0.630911	-0.628339
C101	C	0.489302	0.630906	-0.550925
C102	C	0.533487	0.630907	-0.525408
C103	C	0.621855	0.630899	-0.525387
C104	C	0.621849	0.630907	-0.474373
C105	C	0.577662	0.630914	-0.448877
C106	C	0.533481	0.630915	-0.474395
C107	C	0.445116	0.630906	-0.525423
C108	C	0.445118	0.630905	-0.474400
C109	C	0.489302	0.630906	-0.448883
C110	C	0.489287	0.630930	-0.397885
N111	N	0.533472	0.630922	-0.372361
C112	C	0.577659	0.630914	-0.397858
C113	C	0.489313	0.630905	-0.709088
C114	C	0.489313	0.630910	-0.760109
C115	C	0.577688	0.630896	-0.760082
C116	C	0.577686	0.630896	-0.709063
C117	C	0.533498	0.630897	-0.683565
C118	C	0.577643	0.630931	-0.290725
C119	C	0.577631	0.630942	-0.239709
C120	C	0.489258	0.630952	-0.239738
C121	C	0.489268	0.630945	-0.290752
C122	C	0.533465	0.630932	-0.316243
O123	O	0.451717	0.630962	-0.371481
O124	O	0.615239	0.630899	-0.371453
C125	C	0.533495	0.630905	0.160090
C126	C	0.533502	0.630898	0.214392
C127	C	0.693470	0.441645	0.000103
C128	C	0.747771	0.377406	0.000107
C129	C	0.533490	0.441649	0.160083
C130	C	0.533496	0.377410	0.214383
C131	C	0.693492	0.441626	0.160103
C132	C	0.747800	0.377380	0.214410
C133	C	0.373455	0.820221	-0.159923
C134	C	0.319146	0.884467	-0.214230
C135	C	0.373476	0.820202	0.000077
C136	C	0.319175	0.884442	0.000072
C137	C	0.533456	0.820199	-0.159903
C138	C	0.533450	0.884437	-0.214203
C139	C	0.742024	0.347247	-0.031143
C140	C	0.793041	0.286895	-0.031151
C141	C	0.849805	0.256700	0.000096
C142	C	0.855551	0.286866	0.031347
C143	C	0.804534	0.347220	0.031351
C144	C	0.564747	0.347235	0.271135
C145	C	0.564750	0.286885	0.322161
C146	C	0.533506	0.256707	0.316433
C147	C	0.502252	0.286888	0.259674
C148	C	0.502245	0.347241	0.208650
C149	C	0.804549	0.347209	0.208674
C150	C	0.855583	0.286852	0.259696
C151	C	0.849866	0.256663	0.316454
C152	C	0.793112	0.286840	0.322189
C153	C	0.742080	0.347200	0.271167
C154	C	0.262398	0.914646	-0.208494
C155	C	0.211364	0.975022	-0.259516
C156	C	0.217080	1.005214	-0.316274
C157	C	0.273834	0.975033	-0.322009
C158	C	0.324867	0.914662	-0.270987
C159	C	0.324922	0.914607	0.031317
C160	C	0.273905	0.974975	0.031311
C161	C	0.217141	1.005172	0.000063
C162	C	0.211395	0.975004	-0.031186
C163	C	0.262412	0.914641	-0.031183
C164	C	0.564700	0.914597	-0.208456
C165	C	0.564706	0.974947	-0.259472
C166	C	0.533459	1.005142	-0.316235
C167	C	0.502208	0.974977	-0.321980
C168	C	0.502205	0.914623	-0.270965
H169	H	0.628425	0.015213	0.008206
Cl170	Cl	0.462978	0.248939	0.252484
Cl171	Cl	0.153011	1.081056	0.000066
H172	H	0.476766	0.999571	-0.368203
Cl173	Cl	0.603987	-0.123342	-0.070422
H174	H	-0.100744	0.838962	-0.087821
H175	H	0.695809	0.371831	-0.056595
H176	H	0.809222	0.371768	0.056802
H177	H	0.891425	0.207513	0.357994
H178	H	0.809214	0.371781	0.162463
H179	H	0.590189	0.371800	0.275810
Cl180	Cl	0.533521	0.180831	0.380585
Cl181	Cl	0.913935	0.180823	0.000086
Cl182	Cl	0.603973	0.385199	-0.070444
H183	H	0.476755	0.890074	-0.275653
Cl184	Cl	0.389564	0.630904	-0.442348
Cl185	Cl	0.785804	0.248982	-0.070438
H186	H	0.476799	0.371802	0.162442
Cl187	Cl	0.785936	0.248878	0.393546
Cl188	Cl	0.926923	0.248924	0.252472
Cl189	Cl	0.140031	1.012971	-0.070464
H190	H	0.590203	0.262319	0.368371
H191	H	0.590144	0.262334	-0.056597
Cl192	Cl	0.926916	0.248894	0.070629
H193	H	0.695874	0.371758	0.275846
H194	H	0.371132	0.496830	0.056752
H195	H	0.590149	-0.000479	-0.056592
H196	H	0.371073	0.890092	-0.275665
H197	H	0.453284	0.630956	-0.311534
Cl198	Cl	0.462962	0.248962	0.070607
H199	H	-0.190784	0.496777	0.056801
Cl200	Cl	0.255196	0.876702	-0.137148
Cl201	Cl	0.140023	1.012948	-0.252293
H202	H	0.175521	1.054372	-0.357814
H203	H	0.628421	0.124718	0.008192
H204	H	0.476799	-0.109978	0.056777
Cl205	Cl	0.533465	1.081019	-0.380363
H206	H	0.278481	0.999624	-0.368227
H207	H	0.476797	-0.000482	0.056775
Cl208	Cl	0.415336	0.138663	-0.010005
Cl209	Cl	0.396276	0.876662	0.070602
H210	H	0.257733	0.765065	-0.056623
Cl211	Cl	0.433710	0.630962	-0.207678
Cl212	Cl	0.633239	0.630884	-0.792144
H213	H	0.438508	0.246649	-0.008040
Cl214	Cl	0.462960	0.385188	0.070608
H215	H	0.613612	0.630944	-0.218935
Cl216	Cl	0.255177	0.876721	-0.070462
Cl217	Cl	0.281138	0.464070	0.070611
Cl218	Cl	0.192844	0.390138	0.101868
H219	H	0.278595	0.999528	0.056760
H220	H	0.590146	0.890021	-0.162242
Cl221	Cl	0.603992	1.012861	-0.252235
H222	H	0.075165	0.422872	0.088038
H223	H	-0.098221	0.496777	0.056805
H224	H	-0.211634	0.765025	-0.056576
Cl225	Cl	-0.329317	0.797755	-0.070419
H226	H	-0.008196	0.838965	-0.087816
H227	H	0.165168	0.765063	-0.056621
Cl228	Cl	0.633206	0.630916	-0.322764
Cl229	Cl	0.677412	0.630890	-0.557431
Cl230	Cl	0.677400	0.630900	-0.442296
Cl231	Cl	0.433758	0.630926	-0.792189
Cl232	Cl	0.633235	0.630894	-0.676989
H233	H	0.453326	0.630912	-0.688333
H234	H	0.409137	0.630904	-0.546192
