data_functionalizedCrystal
_audit_creation_method	'MofGen! by Chris Wilmer'
_symmetry_space_group_name_H-M	'P1'
_symmetry_Int_Tables_number	1
_symmetry_cell_setting	triclinic
loop_
_symmetry_equiv_pos_as_xyz
  x,y,z
_cell_length_a	11.169417
_cell_length_b	15.298852
_cell_length_c	11.169409
_cell_angle_alpha	80.292570
_cell_angle_beta	89.980487
_cell_angle_gamma	80.334719
loop_
_atom_site_label
_atom_site_type_symbol
_atom_site_fract_x
_atom_site_fract_y
_atom_site_fract_z
Zn1	Zn	1.917598	-0.359047	-0.595906
Zn2	Zn	1.952216	-0.509937	-0.360499
Zn3	Zn	1.716897	-0.359103	-0.395229
Zn4	Zn	1.751603	-0.509864	-0.561162
O5	O	1.834579	-0.434488	-0.478199
O6	O	2.090142	-0.379070	-0.564685
O7	O	1.920963	-0.489982	-0.197144
O8	O	1.714509	-0.232854	-0.450924
O9	O	2.115575	-0.489928	-0.391733
O10	O	1.861963	-0.232813	-0.598361
O11	O	1.748076	-0.379165	-0.222660
O12	O	1.553550	-0.379095	-0.417234
O13	O	1.773660	-0.489804	-0.733733
O14	O	1.579048	-0.489858	-0.539144
O15	O	1.895616	-0.379000	-0.759259
O16	O	1.954616	-0.636169	-0.358043
O17	O	1.807227	-0.636115	-0.505469
C18	C	1.522751	-0.434476	-0.478188
C19	C	1.389355	-0.434492	-0.478207
C20	C	1.888476	-0.668875	-0.424243
C21	C	1.911644	-0.769147	-0.401200
C22	C	1.669783	-1.051812	-0.643003
C23	C	1.648019	-0.957601	-0.664661
C24	C	1.713923	-0.910483	-0.598797
C25	C	1.801595	-0.957585	-0.511273
C26	C	1.823368	-1.051804	-0.489619
C27	C	1.867508	-0.910476	-0.445414
C28	C	1.955181	-0.957577	-0.357889
C29	C	1.976949	-1.051788	-0.336239
C30	C	1.911045	-1.098906	-0.402102
C31	C	1.845735	-0.816256	-0.467067
C32	C	1.999320	-0.816249	-0.313684
C33	C	2.021084	-0.910459	-0.292026
C34	C	2.147624	-0.434501	-0.478211
C35	C	2.281025	-0.434506	-0.478215
C36	C	1.834648	-0.434388	-0.791265
C37	C	1.834677	-0.434345	-0.924675
C38	C	1.780503	-0.199185	-0.532392
C39	C	1.757459	-0.098913	-0.555486
C40	C	1.834564	-0.434522	-0.166366
C41	C	1.834708	-0.434311	-0.033016
H42	H	1.774352	-0.777914	-0.538331
H43	H	2.048346	-1.090135	-0.264979
H44	H	2.092469	-0.948822	-0.220763
Cl45	Cl	1.586955	-1.111050	-0.725803
Cl46	Cl	1.686669	-0.792045	-0.626136
Cl47	Cl	1.537810	-0.898395	-0.774689
Cl48	Cl	2.082180	-0.757021	-0.230883
H49	H	1.928753	-1.175620	-0.384466
