data_functionalizedCrystal
_audit_creation_method	'MofGen! by Chris Wilmer'
_symmetry_space_group_name_H-M	'P1'
_symmetry_Int_Tables_number	1
_symmetry_cell_setting	triclinic
loop_
_symmetry_equiv_pos_as_xyz
  x,y,z
_cell_length_a	12.759401
_cell_length_b	18.101397
_cell_length_c	12.759393
_cell_angle_alpha	89.963423
_cell_angle_beta	89.980324
_cell_angle_gamma	90.020892
loop_
_atom_site_label
_atom_site_type_symbol
_atom_site_fract_x
_atom_site_fract_y
_atom_site_fract_z
Zn1	Zn	1.606224	-0.294785	-0.593940
Zn2	Zn	2.106224	0.205215	-0.093940
Zn3	Zn	1.606098	-0.418645	-0.418242
Zn4	Zn	2.106098	0.081355	0.081758
Zn5	Zn	1.430523	-0.294822	-0.418279
Zn6	Zn	1.930523	0.205178	0.081721
Zn7	Zn	1.430497	-0.418590	-0.593883
Zn8	Zn	1.930497	0.081410	-0.093883
O9	O	1.518336	-0.356711	-0.506086
O10	O	2.018336	0.143289	-0.006086
O11	O	1.753228	-0.311223	-0.570642
O12	O	2.253228	0.188777	-0.070642
O13	O	1.582765	-0.402257	-0.271226
O14	O	2.082765	0.097743	0.228774
O15	O	1.453894	-0.191185	-0.441621
O16	O	1.953894	0.308815	0.058379
O17	O	1.753135	-0.402222	-0.441557
O18	O	2.253135	0.097778	0.058443
O19	O	1.582981	-0.191157	-0.570678
O20	O	2.082981	0.308843	-0.070678
O21	O	1.453771	-0.311286	-0.271253
O22	O	1.953771	0.188714	0.228747
O23	O	1.283499	-0.311233	-0.441565
O24	O	1.783499	0.188767	0.058435
O25	O	1.453850	-0.402129	-0.740912
O26	O	1.953850	0.097871	-0.240912
O27	O	1.283480	-0.402165	-0.570580
O28	O	1.783480	0.097835	-0.070580
O29	O	1.582956	-0.311170	-0.740954
O30	O	2.082956	0.188830	-0.240954
O31	O	1.582740	-0.522270	-0.441501
O32	O	2.082740	-0.022270	0.058499
O33	O	1.453727	-0.522231	-0.570544
O34	O	1.953727	-0.022231	-0.070544
C35	C	1.245368	-0.356698	-0.506071
C36	C	1.745368	0.143302	-0.006071
C37	C	1.128592	-0.356710	-0.506090
C38	C	1.628592	0.143290	-0.006090
C39	C	1.073779	-0.309413	-0.573408
C40	C	1.573779	0.190587	-0.073408
C41	C	0.964055	-0.309420	-0.573415
C42	C	1.464055	0.190580	-0.073415
C43	C	0.963966	-0.404029	-0.438783
C44	C	1.463966	0.095971	0.061217
C45	C	1.073688	-0.404017	-0.438771
C46	C	1.573688	0.095983	0.061229
C47	C	1.518246	-0.549121	-0.506035
C48	C	2.018246	-0.049121	-0.006035
C49	C	1.518303	-0.631435	-0.506049
C50	C	2.018303	-0.131435	-0.006049
C51	C	1.518437	-0.930526	-0.506144
C52	C	2.018437	-0.430526	-0.006144
C53	C	1.599382	-0.899195	-0.424737
C54	C	2.099382	-0.399195	0.075263
C55	C	1.599663	-0.813577	-0.424948
C56	C	2.099663	-0.313577	0.075052
C57	C	1.518371	-0.782144	-0.506096
C58	C	2.018371	-0.282144	-0.006096
C59	C	1.548391	-0.813143	-0.616837
C60	C	2.048391	-0.313143	-0.116837
C61	C	1.549018	-0.898788	-0.616393
C62	C	2.049018	-0.398788	-0.116393
C63	C	1.407256	-0.899038	-0.477770
C64	C	1.907256	-0.399038	0.022230
C65	C	1.407805	-0.813389	-0.475298
C66	C	1.907805	-0.313389	0.024702
C67	C	1.518332	-0.698284	-0.506075
C68	C	2.018332	-0.198284	-0.006075
C69	C	1.518479	-1.014386	-0.506172
C70	C	2.018479	-0.514386	-0.006172
C71	C	1.792369	-0.356724	-0.506102
C72	C	2.292369	0.143276	-0.006102
C73	C	1.909145	-0.356730	-0.506108
C74	C	2.409145	0.143270	-0.006108
C75	C	1.518414	-0.356640	-0.780120
C76	C	2.018414	0.143360	-0.280120
C77	C	1.518448	-0.356609	-0.896896
C78	C	2.018448	0.143391	-0.396896
C79	C	1.518454	-0.163549	-0.506160
C80	C	2.018454	0.336451	-0.006160
C81	C	1.518505	-0.081235	-0.506192
C82	C	2.018505	0.418765	-0.006192
C83	C	1.585678	-0.309239	-0.951782
C84	C	2.085678	0.190761	-0.451782
C85	C	1.585696	-0.309207	-1.061506
C86	C	2.085696	0.190793	-0.561506
C87	C	1.451250	-0.403922	-1.061449
C88	C	1.951250	0.096078	-0.561449
C89	C	1.451228	-0.403949	-0.951727
C90	C	1.951228	0.096051	-0.451727
C91	C	1.518318	-0.356728	-0.233119
C92	C	2.018318	0.143272	0.266881
C93	C	1.518488	-0.356550	-0.116343
C94	C	2.018488	0.143450	0.383657
H95	H	1.118318	-0.442533	-0.383947
H96	H	1.618318	0.057467	0.116053
Br97	Br	0.889669	-0.245225	-0.664775
Br98	Br	1.389669	0.254775	-0.164775
Br99	Br	1.568465	-0.933614	-0.287460
Br100	Br	2.068465	-0.433614	0.212540
H101	H	1.396524	-0.442466	-1.106106
H102	H	1.896524	0.057534	-0.606106
Br103	Br	1.735903	-0.934970	-0.455662
Br104	Br	2.235903	-0.434970	0.044338
H105	H	1.682020	-0.793031	-0.443721
H106	H	2.182020	-0.293031	0.056279
Br107	Br	1.148288	-0.245209	-0.664766
Br108	Br	1.648288	0.254791	-0.164766
H109	H	1.640410	-0.270690	-0.907142
H110	H	2.140410	0.229310	-0.407142
Br111	Br	1.568279	-0.778645	-0.288105
Br112	Br	2.068279	-0.278645	0.211895
Br113	Br	1.684470	-0.931988	-0.656455
Br114	Br	2.184470	-0.431988	-0.156455
H115	H	1.396473	-0.442523	-0.907038
H116	H	1.896473	0.057477	-0.407038
Br117	Br	1.455009	-0.933331	-0.720922
Br118	Br	1.955009	-0.433331	-0.220922
H119	H	0.919250	-0.442546	-0.383975
H120	H	1.419250	0.057454	0.116025
H121	H	1.491238	-0.792779	-0.679123
H122	H	1.991238	-0.292779	-0.179123
H123	H	1.628750	-0.791633	-0.641279
H124	H	2.128750	-0.291633	-0.141279
Br125	Br	1.361735	-0.935151	-0.345513
Br126	Br	1.861735	-0.435151	0.154487
H127	H	1.385169	-0.793136	-0.393801
H128	H	1.885169	-0.293136	0.106199
H129	H	1.344250	-0.792000	-0.530249
H130	H	1.844250	-0.292000	-0.030249
H131	H	1.346946	-0.919300	-0.537062
H132	H	1.846946	-0.419300	-0.037062
H133	H	1.640440	-0.270633	-1.106189
H134	H	2.140440	0.229367	-0.606189
