data_functionalizedCrystal
_audit_creation_method	'MofGen! by Chris Wilmer'
_symmetry_space_group_name_H-M	'P1'
_symmetry_Int_Tables_number	1
_symmetry_cell_setting	triclinic
loop_
_symmetry_equiv_pos_as_xyz
  x,y,z
_cell_length_a	10.489741
_cell_length_b	10.489741
_cell_length_c	9.565339
_cell_angle_alpha	90.002575
_cell_angle_beta	89.997685
_cell_angle_gamma	84.539174
loop_
_atom_site_label
_atom_site_type_symbol
_atom_site_fract_x
_atom_site_fract_y
_atom_site_fract_z
O1	O	1.694056	0.179955	-0.116173
O2	O	1.322860	0.196848	-0.116194
O3	O	1.516904	0.002803	-0.116175
O4	O	1.500012	0.373999	-0.116192
O5	O	1.516883	0.002824	0.116345
O6	O	1.322839	0.196868	0.116326
O7	O	1.694035	0.179975	0.116347
Zn8	Zn	1.508433	0.188425	0.153254
Zn9	Zn	1.508461	0.188398	-0.153101
O10	O	1.499990	0.374019	0.116328
C11	C	1.275318	0.195582	0.000063
C12	C	1.133688	0.191765	0.000055
C13	C	1.065548	0.068300	0.000074
C14	C	0.973432	0.126613	-0.114571
C15	C	0.973445	0.126663	0.114676
C16	C	1.043437	0.250129	-0.114684
C17	C	1.043460	0.250161	0.114665
C18	C	0.951371	0.308564	-0.000007
C19	C	1.515618	-0.044718	0.000084
C20	C	1.511801	-0.186348	0.000082
C21	C	1.388336	-0.254488	0.000064
C22	C	1.446649	-0.346600	0.114712
C23	C	1.446699	-0.346595	-0.114534
C24	C	1.570165	-0.276595	0.114824
C25	C	1.570198	-0.276580	-0.114525
C26	C	1.628600	-0.368665	0.000150
C27	C	1.741577	0.181241	0.000087
C28	C	1.883206	0.185058	0.000086
C29	C	1.501277	0.421541	0.000066
C30	C	1.505094	0.563170	0.000059
N31	N	1.508423	0.188442	0.362334
C32	C	1.419427	0.278885	0.546697
C33	C	1.392574	0.163739	0.453475
C34	C	1.535220	0.303578	0.453487
C35	C	1.481549	0.073189	0.546649
C36	C	1.624247	0.213104	0.546669
C37	C	1.597441	0.097875	0.453488
N38	N	1.508461	0.188393	0.637820
H39	H	1.115238	-0.033196	-0.000065
H40	H	1.074497	0.302367	0.211590
H41	H	1.344099	0.355302	0.587623
O42	O	1.275838	0.138779	0.404389
C43	C	1.145378	0.109854	0.201603
C44	C	1.277651	0.138089	0.256998
H45	H	1.146791	0.109314	0.082432
H46	H	1.121778	0.012393	0.241416
H47	H	1.069602	0.187051	0.239967
H48	H	1.353513	0.060973	0.218656
H49	H	1.301141	0.235588	0.217195
H50	H	1.672721	0.021286	0.412822
O51	O	1.740996	0.238288	0.595491
C52	C	1.901258	0.388162	0.603429
C53	C	1.769012	0.359797	0.548069
H54	H	1.923963	0.486389	0.565087
H55	H	1.900434	0.387047	0.722603
H56	H	1.977329	0.311990	0.563499
H57	H	1.692868	0.435937	0.587896
H58	H	1.769944	0.360866	0.428897
H59	H	1.622351	-0.245754	0.211859
O60	O	1.454348	-0.042931	0.595487
C61	C	1.423932	-0.173256	0.798007
C62	C	1.454726	-0.041688	0.742885
H63	H	1.424254	-0.172303	0.917184
H64	H	1.325499	-0.194512	0.758891
H65	H	1.499342	-0.250391	0.758738
H66	H	1.379399	0.035531	0.782132
H67	H	1.553196	-0.020542	0.781990
O68	O	0.936515	0.064082	-0.230090
C69	C	0.953346	-0.133213	-0.360750
C70	C	0.995227	-0.062549	-0.229858
H71	H	1.000816	-0.235599	-0.360621
H72	H	0.844829	-0.134805	-0.360158
H73	H	0.983456	-0.081507	-0.458434
H74	H	0.965204	-0.114200	-0.132105
H75	H	1.103741	-0.060946	-0.230574
O76	O	1.562083	0.419862	0.404809
C77	C	1.498505	0.646620	0.396874
C78	C	1.467973	0.515014	0.452129
H79	H	1.422421	0.723582	0.435085
H80	H	1.596461	0.668535	0.436827
H81	H	1.499196	0.645154	0.277704
H82	H	1.467212	0.516383	0.571295
H83	H	1.370038	0.493151	0.412069
H84	H	1.394452	-0.377567	-0.211470
H85	H	1.074274	0.302320	-0.211717
O86	O	0.936433	0.064150	0.230164
C87	C	0.831617	-0.113402	0.320037
C88	C	0.873483	-0.042738	0.189142
H89	H	0.780690	-0.199820	0.286917
H90	H	0.919445	-0.146856	0.385261
H91	H	0.763640	-0.045776	0.384848
H92	H	0.941431	-0.110289	0.124223
H93	H	0.785596	-0.009263	0.124023
O94	O	0.892542	0.429830	0.000105
C95	C	0.862951	0.632577	0.119896
C96	C	0.929685	0.495294	0.119934
H97	H	0.892935	0.685536	0.216782
H98	H	0.891722	0.685044	0.022156
H99	H	0.754705	0.628749	0.120760
H100	H	1.037941	0.499004	0.119119
H101	H	0.900810	0.442881	0.217666
H102	H	1.286824	-0.204837	0.000174
H103	H	1.394399	-0.377603	0.211633
H104	H	1.730204	-0.418089	0.000220
H105	H	1.622403	-0.245544	-0.211451
