data_functionalizedCrystal
_audit_creation_method	'MofGen! by Chris Wilmer'
_symmetry_space_group_name_H-M	'P1'
_symmetry_Int_Tables_number	1
_symmetry_cell_setting	triclinic
loop_
_symmetry_equiv_pos_as_xyz
  x,y,z
_cell_length_a	6.817900
_cell_length_b	11.102183
_cell_length_c	12.200875
_cell_angle_alpha	92.492789
_cell_angle_beta	107.143593
_cell_angle_gamma	108.603876
loop_
_atom_site_label
_atom_site_type_symbol
_atom_site_fract_x
_atom_site_fract_y
_atom_site_fract_z
V1	V	-4.094459	-0.176127	-0.357659
O2	O	-4.053827	0.008167	-0.350853
O3	O	-4.071342	-0.348945	-0.355211
O4	O	-4.063799	-0.173548	-0.513647
O5	O	-4.061422	-0.168444	-0.191319
V6	V	-4.572512	-0.154068	-0.337764
O7	O	-4.367716	-0.224516	-0.401301
O8	O	-4.749452	-0.105680	-0.294122
O9	O	-4.372422	0.018750	-0.340212
O10	O	-4.730540	-0.338362	-0.344570
O11	O	-4.722945	-0.161751	-0.504103
O12	O	-4.379965	-0.156647	-0.181775
C13	C	-3.921919	-0.391070	-0.349568
C14	C	-3.984423	-0.532352	-0.348606
C15	C	-3.874090	-0.495905	-0.138500
C16	C	-3.848285	-0.544055	-0.032999
C17	C	-3.907021	-0.676802	-0.032102
C18	C	-3.991575	-0.761404	-0.136716
C19	C	-4.017381	-0.713254	-0.242217
C20	C	-3.958631	-0.580502	-0.243103
C21	C	-4.127728	-0.749702	-0.452321
C22	C	-4.068978	-0.616954	-0.453221
C23	C	-4.212282	-0.834304	-0.556936
C24	C	-4.238075	-0.786154	-0.662439
C25	C	-4.179330	-0.653398	-0.663332
C26	C	-4.094784	-0.568804	-0.558722
C27	C	-3.912296	-0.167333	-0.551668
C28	C	-3.968679	-0.166368	-0.679189
C29	C	-4.071869	-0.164603	-0.912664
C30	C	-4.014439	-0.165584	-0.782742
C31	C	-4.185187	0.060868	-0.345851
C32	C	-4.101922	0.202148	-0.346821
C33	C	-4.194809	-0.162867	-0.143749
C34	C	-4.117664	-0.163825	-0.016226
H35	H	-4.306931	-0.855046	-0.747608
O36	O	-4.204774	-0.606792	-0.765900
C37	C	-4.427272	-0.656440	-0.835003
H38	H	-4.512430	-0.749687	-0.806286
H39	H	-4.508796	-0.583502	-0.824745
C40	C	-4.340565	-0.568711	-0.998406
C41	C	-4.445153	-0.683245	-0.963142
H42	H	-4.351598	-0.585240	-1.077449
H43	H	-4.190664	-0.535257	-0.951850
H44	H	-4.408514	-0.507940	-0.989848
H45	H	-4.377186	-0.744007	-0.971686
H46	H	-4.595043	-0.716709	-1.009703
O47	O	-3.817013	-0.366922	-0.139166
C48	C	-3.736799	-0.302574	-0.024213
H49	H	-3.803208	-0.371002	0.033810
H50	H	-3.550321	-0.268582	0.007975
C51	C	-3.729810	-0.101725	-0.091767
C52	C	-3.811389	-0.185766	-0.020505
H53	H	-3.775810	-0.029668	-0.089479
H54	H	-3.783843	-0.145075	-0.169214
H55	H	-3.574415	-0.073412	-0.064935
H56	H	-3.966780	-0.214090	-0.047346
H57	H	-3.757383	-0.142417	0.056938
O58	O	-3.881728	-0.723364	0.070484
C59	C	-3.794568	-0.620238	0.162626
H60	H	-3.705054	-0.528700	0.133184
H61	H	-3.933066	-0.606217	0.189803
C62	C	-3.743132	-0.762610	0.302496
C63	C	-3.633173	-0.650183	0.266338
H64	H	-3.643584	-0.781082	0.366474
H65	H	-3.801861	-0.832089	0.240419
H66	H	-3.858543	-0.750911	0.325136
H67	H	-3.517784	-0.661889	0.243686
H68	H	-3.574421	-0.580706	0.328414
O69	O	-4.269132	-0.963269	-0.556202
C70	C	-4.144404	-1.011450	-0.608075
H71	H	-4.084591	-0.943540	-0.668126
H72	H	-3.997697	-1.019164	-0.537708
C73	C	-4.360596	-1.228802	-0.604919
C74	C	-4.287148	-1.145399	-0.678682
H75	H	-4.448641	-1.311430	-0.648469
H76	H	-4.444624	-1.196343	-0.569967
H77	H	-4.238324	-1.235215	-0.546284
H78	H	-4.409418	-1.138975	-0.737306
H79	H	-4.203144	-1.177861	-0.713646
H80	H	-4.046915	-0.460711	-0.559438
H81	H	-3.779441	-0.475158	0.052176
H82	H	-4.039422	-0.869494	-0.135977
