data_functionalizedCrystal
_audit_creation_method	'MofGen! by Chris Wilmer'
_symmetry_space_group_name_H-M	'P1'
_symmetry_Int_Tables_number	1
_symmetry_cell_setting	triclinic
loop_
_symmetry_equiv_pos_as_xyz
  x,y,z
_cell_length_a	12.759401
_cell_length_b	15.299816
_cell_length_c	12.759393
_cell_angle_alpha	99.651000
_cell_angle_beta	89.980404
_cell_angle_gamma	80.350595
loop_
_atom_site_label
_atom_site_type_symbol
_atom_site_fract_x
_atom_site_fract_y
_atom_site_fract_z
Zn1	Zn	1.678558	-0.359005	-0.666399
Zn2	Zn	1.708823	-0.509846	-0.521146
Zn3	Zn	1.502865	-0.359050	-0.490747
Zn4	Zn	1.533209	-0.509780	-0.696774
O5	O	1.605864	-0.434420	-0.593766
O6	O	1.829595	-0.379024	-0.647141
O7	O	1.681469	-0.489889	-0.370101
O8	O	1.500806	-0.232836	-0.488614
O9	O	1.851831	-0.489846	-0.540424
O10	O	1.629887	-0.232803	-0.617664
O11	O	1.530153	-0.379100	-0.347768
O12	O	1.359868	-0.379035	-0.518067
O13	O	1.552523	-0.489733	-0.839756
O14	O	1.382161	-0.489776	-0.669434
O15	O	1.659310	-0.378959	-0.817440
O16	O	1.710892	-0.636046	-0.569877
O17	O	1.581870	-0.635997	-0.698910
C18	C	1.332893	-0.434404	-0.593749
C19	C	1.216119	-0.434419	-0.593770
C20	C	1.063182	-0.492183	-0.672509
C21	C	1.172904	-0.492173	-0.672496
C22	C	1.149607	-0.376678	-0.515046
C23	C	1.039888	-0.376693	-0.515056
C24	C	1.652986	-0.668746	-0.641011
C25	C	1.673242	-0.768991	-0.661258
C26	C	1.461784	-1.051933	-0.449417
C27	C	1.442748	-0.957748	-0.430397
C28	C	1.500370	-0.910554	-0.488110
C29	C	1.577031	-0.957555	-0.564848
C30	C	1.596064	-1.051750	-0.583876
C31	C	1.634649	-0.910370	-0.622568
C32	C	1.711310	-0.957371	-0.699306
C33	C	1.730340	-1.051557	-0.718330
C34	C	1.672718	-1.098751	-0.660617
C35	C	1.615617	-0.816176	-0.603541
C36	C	1.749896	-0.815992	-0.737999
C37	C	1.768932	-0.910178	-0.757019
C38	C	1.879900	-0.434437	-0.593785
C39	C	1.996678	-0.434444	-0.593793
C40	C	1.605925	-0.434334	-0.867782
C41	C	1.605951	-0.434297	-0.984552
C42	C	1.558586	-0.199180	-0.546360
C43	C	1.538439	-0.098934	-0.526158
C44	C	1.661558	-0.376608	-1.027793
C45	C	1.661568	-0.376569	-1.137510
C46	C	1.550362	-0.491916	-1.160734
C47	C	1.550347	-0.491949	-1.051019
C48	C	1.605850	-0.434441	-0.320803
C49	C	1.605976	-0.434224	-0.203983
H50	H	1.227049	-0.539190	-0.736594
H51	H	1.380330	-0.919483	-0.367919
N52	N	1.813024	-1.102250	-0.801094
H53	H	1.816336	-1.169079	-0.804390
H54	H	1.793304	-1.085749	-0.872782
N55	N	1.196212	-0.314389	-0.430128
H56	H	1.275810	-0.323137	-0.442067
H57	H	1.164079	-0.249997	-0.433623
H58	H	0.985738	-0.329674	-0.450950
N59	N	1.721557	-0.314355	-1.184148
H60	H	1.713129	-0.323077	-1.263738
H61	H	1.692263	-0.249947	-1.151985
H62	H	1.505057	-0.538926	-1.015812
H63	H	1.553198	-0.777916	-0.541061
H64	H	1.028005	-0.539208	-0.736621
N65	N	1.479843	-0.808969	-0.467599
H66	H	1.422538	-0.786354	-0.410228
H67	H	1.547383	-0.786314	-0.443799
N68	N	1.851611	-0.960867	-0.839791
H69	H	1.908214	-0.999939	-0.805029
H70	H	1.816701	-0.999893	-0.896312
H71	H	1.706831	-0.329661	-0.973678
N72	N	1.490373	-0.554082	-1.232421
H73	H	1.498816	-0.545305	-1.308487
H74	H	1.519649	-0.618507	-1.226235
N75	N	1.812046	-0.765103	-0.800260
H76	H	1.788360	-0.698303	-0.776561
H77	H	1.890408	-0.781521	-0.787292
N78	N	1.399643	-1.102832	-0.387175
H79	H	1.423334	-1.169632	-0.410875
H80	H	1.412719	-1.086408	-0.308838
N81	N	1.693242	-1.200340	-0.681120
H82	H	1.625750	-1.223065	-0.704956
H83	H	1.750576	-1.222892	-0.738469
