data_functionalizedCrystal
_audit_creation_method	'MofGen! by Chris Wilmer'
_symmetry_space_group_name_H-M	'P1'
_symmetry_Int_Tables_number	1
_symmetry_cell_setting	triclinic
loop_
_symmetry_equiv_pos_as_xyz
  x,y,z
_cell_length_a	21.295417
_cell_length_b	14.908571
_cell_length_c	14.908308
_cell_angle_alpha	89.824947
_cell_angle_beta	93.260635
_cell_angle_gamma	93.273651
loop_
_atom_site_label
_atom_site_type_symbol
_atom_site_fract_x
_atom_site_fract_y
_atom_site_fract_z
Zn1	Zn	-0.328502	-1.345216	-0.587528
Zn2	Zn	0.171498	-0.845216	-0.087528
Zn3	Zn	-0.428068	-1.353772	-0.437153
Zn4	Zn	0.071932	-0.853772	0.062847
Zn5	Zn	-0.316411	-1.203534	-0.428528
Zn6	Zn	0.183589	-0.703534	0.071472
Zn7	Zn	-0.427320	-1.194800	-0.578804
Zn8	Zn	0.072680	-0.694800	-0.078804
O9	O	-0.375075	-1.274330	-0.508003
O10	O	0.124925	-0.774330	-0.008003
O11	O	-0.347082	-1.472175	-0.574841
O12	O	0.152918	-0.972175	-0.074841
O13	O	-0.408509	-1.341079	-0.310185
O14	O	0.091491	-0.841079	0.189815
O15	O	-0.229930	-1.222403	-0.449662
O16	O	0.270070	-0.722403	0.050338
O17	O	-0.420233	-1.478462	-0.464361
O18	O	0.079767	-0.978462	0.035639
O19	O	-0.238813	-1.326496	-0.566479
O20	O	0.261187	-0.826496	-0.066479
O21	O	-0.326476	-1.230699	-0.303848
O22	O	0.173524	-0.730699	0.196152
O23	O	-0.325750	-1.076551	-0.441202
O24	O	0.174250	-0.576551	0.058798
O25	O	-0.418959	-1.207517	-0.705785
O26	O	0.081041	-0.707517	-0.205785
O27	O	-0.407235	-1.070134	-0.551609
O28	O	0.092765	-0.570134	-0.051609
O29	O	-0.346357	-1.318027	-0.712195
O30	O	0.153643	-0.818027	-0.212195
O31	O	-0.516054	-1.332609	-0.455901
O32	O	-0.016054	-0.832609	0.044099
O33	O	-0.515504	-1.215813	-0.559972
O34	O	-0.015504	-0.715813	-0.059972
C35	C	-0.365100	-1.040717	-0.494524
C36	C	0.134900	-0.540717	0.005476
C37	C	-0.360848	-0.940775	-0.488779
C38	C	0.139152	-0.440775	0.011221
C39	C	-0.538620	-1.274215	-0.507947
C40	C	-0.038620	-0.774215	-0.007947
C41	C	-0.608590	-1.274247	-0.507957
C42	C	-0.108590	-0.774247	-0.007957
C43	C	-0.383923	-1.260843	-0.742527
C44	C	0.116077	-0.760843	-0.242527
C45	C	-0.387694	-1.255096	-0.842467
C46	C	0.112306	-0.755096	-0.342467
C47	C	-0.641726	-1.335110	-0.453830
C48	C	-0.141726	-0.835110	0.046170
C49	C	-0.707471	-1.335151	-0.453852
C50	C	-0.207471	-0.835151	0.046148
C51	C	-0.740076	-1.274313	-0.507992
C52	C	-0.240076	-0.774313	-0.007992
C53	C	-0.706932	-1.213445	-0.562131
C54	C	-0.206932	-0.713445	-0.062131
C55	C	-0.641189	-1.213412	-0.562114
C56	C	-0.141189	-0.713412	-0.062114
N57	N	-0.840247	-1.195260	-0.510308
N58	N	-0.340247	-0.695260	-0.010308
N59	N	-0.902701	-1.195295	-0.510320
N60	N	-0.402701	-0.695295	-0.010320
C61	C	-0.938157	-1.274411	-0.508050
C62	C	-0.438157	-0.774411	-0.008050
N63	N	-0.908801	-1.353494	-0.505750
N64	N	-0.408801	-0.853494	-0.005750
N65	N	-0.846341	-1.353459	-0.505734
N66	N	-0.346341	-0.853459	-0.005734
C67	C	-0.811364	-1.274343	-0.508018
C68	C	-0.311364	-0.774343	-0.008018
C69	C	-1.042582	-1.335324	-0.453944
C70	C	-0.542582	-0.835324	0.046056
C71	C	-1.108328	-1.335366	-0.453973
C72	C	-0.608328	-0.835366	0.046027
C73	C	-1.107788	-1.213652	-0.562246
C74	C	-0.607788	-0.713652	-0.062246
C75	C	-1.042043	-1.213618	-0.562223
C76	C	-0.542043	-0.713618	-0.062223
C77	C	-1.009444	-1.274453	-0.508066
C78	C	-0.509444	-0.774453	-0.008066
C79	C	-0.210894	-1.274469	-0.508081
C80	C	0.289106	-0.774469	-0.008081
C81	C	-0.140929	-1.274528	-0.508114
C82	C	0.359071	-0.774528	-0.008114
C83	C	-0.385090	-1.508856	-0.521536
C84	C	0.114910	-1.008856	-0.021536
C85	C	-0.389358	-1.608796	-0.527303
C86	C	0.110642	-1.108796	-0.027303
C87	C	-0.437828	-0.746349	-0.592795
C88	C	0.062172	-0.246349	-0.092795
C89	C	-0.433836	-0.652444	-0.587400
C90	C	0.066164	-0.152444	-0.087400
C91	C	-0.348868	-0.659060	-0.472599
C92	C	0.151132	-0.159060	0.027401
C93	C	-0.352861	-0.752964	-0.477994
C94	C	0.147139	-0.252964	0.022006
C95	C	-0.397343	-0.796605	-0.538093
C96	C	0.102657	-0.296605	-0.038093
C97	C	-0.401338	-0.890512	-0.543483
C98	C	0.098662	-0.390512	-0.043483
C99	C	-0.316368	-0.897125	-0.428687
C100	C	0.183632	-0.397125	0.071313
C101	C	-0.312375	-0.803221	-0.423292
C102	C	0.187625	-0.303221	0.076708
C103	C	-0.319164	-1.359367	-1.036941
C104	C	0.180836	-0.859367	-0.536941
C105	C	-0.322705	-1.353969	-1.130844
C106	C	0.177295	-0.853969	-0.630844
C107	C	-0.398312	-1.238899	-1.124177
C108	C	0.101688	-0.738899	-0.624177
C109	C	-0.394771	-1.244297	-1.030274
C110	C	0.105229	-0.744297	-0.530274
C111	C	-0.355197	-1.304533	-0.986660
C112	C	0.144803	-0.804533	-0.486660
C113	C	-0.351660	-1.309935	-0.892756
C114	C	0.148340	-0.809935	-0.392756
C115	C	-0.427263	-1.194861	-0.886090
C116	C	0.072737	-0.694861	-0.386090
C117	C	-0.430804	-1.189463	-0.979993
C118	C	0.069196	-0.689463	-0.479993
C119	C	-0.366218	-1.287817	-0.274395
C120	C	0.133782	-0.787817	0.225605
C121	C	-0.362278	-1.293739	-0.174465
C122	C	0.137722	-0.793739	0.325535
H123	H	-0.615186	-1.384647	-0.409735
H124	H	-0.115186	-0.884647	0.090265
H125	H	-0.734456	-1.384717	-0.409775
H126	H	-0.234456	-0.884717	0.090225
H127	H	-0.276158	-0.767675	-0.374363
H128	H	0.223842	-0.267675	0.125637
H129	H	-0.312649	-0.623510	-0.423674
H130	H	0.187351	-0.123510	0.076326
H131	H	-0.283403	-0.938054	-0.384142
H132	H	0.216597	-0.438054	0.115858
Br133	Br	-0.297956	-1.391688	-0.833565
Br134	Br	0.202044	-0.891688	-0.333565
H135	H	-0.733484	-1.163912	-0.606214
H136	H	-0.233484	-0.663912	-0.106214
Br137	Br	-0.596215	-1.130806	-0.635580
Br138	Br	-0.096215	-0.630806	-0.135580
Br139	Br	-0.461708	-0.949740	-0.625041
Br140	Br	0.038292	-0.449740	-0.125041
Br141	Br	-0.998336	-1.417880	-0.380445
Br142	Br	-0.498336	-0.917880	0.119555
H143	H	-1.134335	-1.164120	-0.606333
H144	H	-0.634335	-0.664120	-0.106333
H145	H	-0.466802	-0.611529	-0.631946
H146	H	0.033198	-0.111529	-0.131946
Br147	Br	-0.273799	-1.428386	-1.199081
Br148	Br	0.226201	-0.928386	-0.699081
Br149	Br	-1.153302	-1.417983	-0.380516
Br150	Br	-0.653302	-0.917983	0.119484
Br151	Br	-0.484507	-1.107715	-1.039192
Br152	Br	0.015493	-0.607715	-0.539192
Br153	Br	-0.997069	-1.131011	-0.635684
Br154	Br	-0.497069	-0.631011	-0.135684
H155	H	-0.286944	-1.408418	-1.001430
H156	H	0.213056	-0.908418	-0.501430
Br157	Br	-0.498203	-0.805582	-0.674343
Br158	Br	0.001797	-0.305582	-0.174343
H159	H	-0.430531	-1.189857	-1.159704
H160	H	0.069469	-0.689857	-0.659704
Br161	Br	-0.476178	-1.120452	-0.817847
Br162	Br	0.023822	-0.620452	-0.317847
