data_functionalizedCrystal
_audit_creation_method	'MofGen! by Chris Wilmer'
_symmetry_space_group_name_H-M	'P1'
_symmetry_Int_Tables_number	1
_symmetry_cell_setting	triclinic
loop_
_symmetry_equiv_pos_as_xyz
  x,y,z
_cell_length_a	16.120490
_cell_length_b	16.120484
_cell_length_c	16.959455
_cell_angle_alpha	87.117977
_cell_angle_beta	92.897618
_cell_angle_gamma	90.164100
loop_
_atom_site_label
_atom_site_type_symbol
_atom_site_fract_x
_atom_site_fract_y
_atom_site_fract_z
Zn1	Zn	1.254303	-0.395802	0.526140
Zn2	Zn	1.587636	-0.062468	0.859473
Zn3	Zn	1.920970	0.270865	1.192806
Zn4	Zn	1.247187	-0.534831	0.400296
Zn5	Zn	1.580521	-0.201498	0.733630
Zn6	Zn	1.913854	0.131836	1.066963
Zn7	Zn	1.115288	-0.388728	0.386963
Zn8	Zn	1.448621	-0.055394	0.720296
Zn9	Zn	1.781955	0.277939	1.053630
Zn10	Zn	1.108155	-0.527746	0.525419
Zn11	Zn	1.441489	-0.194413	0.858753
Zn12	Zn	1.774822	0.138920	1.192086
O13	O	1.181233	-0.461777	0.459705
O14	O	1.514567	-0.128443	0.793038
O15	O	1.847900	0.204890	1.126371
O16	O	1.369723	-0.420169	0.515328
O17	O	1.703056	-0.086836	0.848661
O18	O	2.036390	0.246497	1.181994
O19	O	1.229698	-0.515454	0.287917
O20	O	1.563031	-0.182121	0.621251
O21	O	1.896365	0.151212	0.954584
O22	O	1.139692	-0.273302	0.400146
O23	O	1.473025	0.060031	0.733480
O24	O	1.806358	0.393365	1.066813
O25	O	1.364495	-0.522314	0.422871
O26	O	1.697828	-0.188980	0.756205
O27	O	2.031162	0.144353	1.089538
O28	O	1.241825	-0.278499	0.502399
O29	O	1.575159	0.054834	0.835732
O30	O	1.908492	0.388168	1.169065
O31	O	1.132792	-0.408113	0.278121
O32	O	1.466125	-0.074780	0.611455
O33	O	1.799459	0.258554	0.944788
O34	O	0.997978	-0.401244	0.399448
O35	O	1.331311	-0.067910	0.732781
O36	O	1.664645	0.265423	1.066115
O37	O	1.127535	-0.510239	0.636125
O38	O	1.460868	-0.176906	0.969459
O39	O	1.794202	0.156428	1.302792
O40	O	0.992738	-0.503380	0.501171
O41	O	1.326071	-0.170047	0.834505
O42	O	1.659404	0.163287	1.167838
O43	O	1.234909	-0.413300	0.636654
O44	O	1.568242	-0.079966	0.969988
O45	O	1.901576	0.253367	1.303321
O46	O	1.222782	-0.650255	0.422173
O47	O	1.556115	-0.316922	0.755506
O48	O	1.889448	0.016411	1.088840
O49	O	1.120635	-0.645050	0.514100
O50	O	1.453969	-0.311717	0.847434
O51	O	1.787302	0.021616	1.180767
C52	C	0.965186	-0.450776	0.448785
C53	C	1.298519	-0.117443	0.782118
C54	C	1.631853	0.215891	1.115452
C55	C	0.872759	-0.446090	0.444133
C56	C	1.206092	-0.112757	0.777467
C57	C	1.539426	0.220577	1.110800
C58	C	0.659776	-0.486078	0.483835
C59	C	0.993110	-0.152744	0.817168
C60	C	1.326443	0.180589	1.150502
C61	C	0.703538	-0.437542	0.435640
C62	C	1.036872	-0.104209	0.768973
C63	C	1.370205	0.229125	1.102306
C64	C	0.797701	-0.442300	0.440367
C65	C	1.131035	-0.108966	0.773700
C66	C	1.464368	0.224367	1.107034
C67	C	0.565605	-0.481321	0.479109
C68	C	0.898938	-0.147988	0.812442
C69	C	1.232271	0.185345	1.145775
C70	C	1.170185	-0.677826	0.469524
C71	C	1.503518	-0.344492	0.802857
C72	C	1.836852	-0.011159	1.136190
C73	C	1.165534	-0.770256	0.473755
C74	C	1.498868	-0.436923	0.807088
C75	C	1.832201	-0.103590	1.140421
C76	C	1.157048	-0.939489	0.481496
C77	C	1.490382	-0.606155	0.814829
C78	C	1.823715	-0.272822	1.148162
C79	C	1.205568	-0.983232	0.437934
C80	C	1.538901	-0.649898	0.771267
C81	C	1.872234	-0.316565	1.104601
C82	C	1.200846	-1.077398	0.442241
C83	C	1.534179	-0.744065	0.775575
C84	C	1.867513	-0.410732	1.108908
C85	C	1.161769	-0.845313	0.477189
C86	C	1.495102	-0.511980	0.810523
C87	C	1.828436	-0.178647	1.143856
C88	C	1.398124	-0.472821	0.470667
C89	C	1.731458	-0.139487	0.804000
C90	C	2.064791	0.193846	1.137334
C91	C	1.490550	-0.477527	0.475339
C92	C	1.823884	-0.144194	0.808672
C93	C	2.157217	0.189139	1.142005
C94	C	1.181220	-0.461768	0.665872
C95	C	1.514553	-0.128435	0.999205
C96	C	1.847887	0.204898	1.332538
C97	C	1.181214	-0.461765	0.753728
C98	C	1.514548	-0.128431	1.087061
C99	C	1.847881	0.204902	1.420395
C100	C	1.192348	-0.244885	0.449866
C101	C	1.525681	0.088448	0.783199
C102	C	1.859015	0.421782	1.116532
C103	C	1.197084	-0.152459	0.445673
C104	C	1.530418	0.180875	0.779006
C105	C	1.863751	0.514208	1.112339
C106	C	1.125321	-0.512260	1.124932
C107	C	1.458654	-0.178926	1.458265
C108	C	1.791988	0.154407	1.791599
C109	C	1.237131	-0.411316	1.125478
C110	C	1.570464	-0.077983	1.458811
C111	C	1.903797	0.255351	1.792145
C112	C	1.237128	-0.411309	1.042932
C113	C	1.570461	-0.077976	1.376265
C114	C	1.903795	0.255358	1.709598
C115	C	1.181222	-0.461779	1.001382
C116	C	1.514555	-0.128446	1.334715
C117	C	1.847889	0.204888	1.668049
C118	C	1.125318	-0.512256	1.042378
C119	C	1.458652	-0.178923	1.375712
C120	C	1.791985	0.154411	1.709045
C121	C	1.293036	-0.360839	1.001930
C122	C	1.626370	-0.027506	1.335263
C123	C	1.959703	0.305827	1.668596
C124	C	1.293037	-0.360831	0.919378
C125	C	1.626370	-0.027497	1.252712
C126	C	1.959703	0.305836	1.586045
C127	C	1.237126	-0.411297	0.877827
C128	C	1.570459	-0.077964	1.211160
C129	C	1.903793	0.255370	1.544493
C130	C	1.181219	-0.461775	0.918828
C131	C	1.514553	-0.128442	1.252161
C132	C	1.847886	0.204891	1.585495
C133	C	1.125313	-0.512245	0.877278
C134	C	1.458647	-0.178912	1.210611
C135	C	1.791980	0.154421	1.543945
C136	C	1.069402	-0.562720	0.918278
C137	C	1.402736	-0.229387	1.251611
C138	C	1.736069	0.103947	1.584944
C139	C	1.069408	-0.562722	1.000826
C140	C	1.402741	-0.229389	1.334160
C141	C	1.736074	0.103944	1.667493
C142	C	1.237121	-0.411295	0.795278
C143	C	1.570454	-0.077961	1.128611
C144	C	1.903787	0.255372	1.461944
C145	C	1.125311	-0.512242	0.794724
C146	C	1.458644	-0.178908	1.128058
C147	C	1.791978	0.154425	1.461391
C148	C	1.181235	-0.461799	1.254339
C149	C	1.514568	-0.128466	1.587673
C150	C	1.847902	0.204868	1.921006
C151	C	1.181227	-0.461790	1.166482
C152	C	1.514560	-0.128456	1.499815
C153	C	1.847894	0.204877	1.833149
H154	H	1.250652	-0.949959	0.397405
H155	H	1.583985	-0.616626	0.730738
H156	H	1.917318	-0.283293	1.064071
H157	H	1.079797	-0.553352	1.158317
H158	H	1.413130	-0.220019	1.491651
H159	H	1.746464	0.113314	1.824984
O160	O	1.353334	-0.306413	1.046747
O161	O	1.686667	0.026921	1.380080
O162	O	2.020001	0.360254	1.713413
H163	H	1.392217	-0.271323	1.004372
H164	H	1.725550	0.062011	1.337705
H165	H	2.058884	0.395344	1.671039
H166	H	1.023887	-0.603816	0.884437
H167	H	1.357220	-0.270483	1.217770
H168	H	1.690554	0.062850	1.551104
H169	H	1.079778	-0.553333	0.760899
H170	H	1.413111	-0.220000	1.094233
H171	H	1.746444	0.113333	1.427566
O172	O	1.009106	-0.617159	1.045044
O173	O	1.342440	-0.283826	1.378377
O174	O	1.675773	0.049507	1.711711
H175	H	1.018507	-0.608687	1.109426
H176	H	1.351841	-0.275354	1.442759
H177	H	1.685174	0.057980	1.776093
H178	H	1.282651	-0.370230	1.159313
H179	H	1.615984	-0.036897	1.492647
H180	H	1.949318	0.296436	1.825980
O181	O	1.353333	-0.306391	0.875158
O182	O	1.686667	0.026942	1.208491
O183	O	2.020000	0.360276	1.541825
H184	H	1.392205	-0.271295	0.917919
H185	H	1.725539	0.062038	1.251253
H186	H	2.058872	0.395372	1.584586
O187	O	0.703809	-0.545853	0.543192
O188	O	1.037143	-0.212520	0.876525
O189	O	1.370476	0.120814	1.209858
H190	H	0.687931	-0.530863	0.603789
H191	H	1.021265	-0.197530	0.937122
H192	H	1.354598	0.135804	1.270455
H193	H	1.282645	-0.370202	0.761900
H194	H	1.615978	-0.036868	1.095233
H195	H	1.949311	0.296465	1.428567
O196	O	1.097315	-0.983550	0.535165
O197	O	1.430648	-0.650216	0.868498
O198	O	1.763981	-0.316883	1.201832
H199	H	1.102926	-1.051668	0.530153
H200	H	1.436259	-0.718335	0.863487
H201	H	1.769593	-0.385002	1.196820
O202	O	0.659491	-0.377777	0.376274
O203	O	0.992824	-0.044444	0.709608
O204	O	1.326157	0.288889	1.042941
H205	H	0.679418	-0.313353	0.387778
H206	H	1.012752	0.019980	0.721112
H207	H	1.346085	0.353314	1.054445
