data_functionalizedCrystal
_audit_creation_method	'MofGen! by Chris Wilmer'
_symmetry_space_group_name_H-M	'P1'
_symmetry_Int_Tables_number	1
_symmetry_cell_setting	triclinic
loop_
_symmetry_equiv_pos_as_xyz
  x,y,z
_cell_length_a	16.109302
_cell_length_b	16.109301
_cell_length_c	14.048226
_cell_angle_alpha	89.992144
_cell_angle_beta	89.991597
_cell_angle_gamma	83.461631
loop_
_atom_site_label
_atom_site_type_symbol
_atom_site_fract_x
_atom_site_fract_y
_atom_site_fract_z
O1	O	1.103134	0.106872	-0.079206
O2	O	1.603134	0.606872	0.420794
O3	O	0.861072	0.120171	-0.079199
O4	O	1.361072	0.620171	0.420801
O5	O	0.988752	-0.007510	-0.079193
O6	O	1.488752	0.492490	0.420807
O7	O	0.975453	0.234552	-0.079212
O8	O	1.475453	0.734552	0.420788
O9	O	0.988737	-0.007517	0.079128
O10	O	1.488737	0.492483	0.579128
O11	O	0.861056	0.120163	0.079122
O12	O	1.361056	0.620163	0.579122
O13	O	1.103118	0.106864	0.079115
O14	O	1.603118	0.606864	0.579115
Zn15	Zn	0.982085	0.113512	0.104255
Zn16	Zn	1.482085	0.613512	0.604255
Zn17	Zn	0.982105	0.113522	-0.104340
Zn18	Zn	1.482105	0.613522	0.395660
O19	O	0.975438	0.234545	0.079109
O20	O	1.475438	0.734545	0.579109
C21	C	0.988206	-0.038488	-0.000032
C22	C	1.488206	0.461512	0.499968
C23	C	0.986591	-0.130784	-0.000031
C24	C	1.486591	0.369216	0.499969
C25	C	0.830089	0.119628	-0.000038
C26	C	1.330089	0.619628	0.499962
C27	C	0.737794	0.118013	-0.000035
C28	C	1.237794	0.618013	0.499965
C29	C	1.058599	-0.353056	-0.000048
C30	C	1.558599	0.146944	0.499952
C31	C	1.057074	-0.439776	-0.000056
C32	C	1.557074	0.060224	0.499944
C33	C	0.905586	-0.419902	-0.000048
C34	C	1.405586	0.080098	0.499952
C35	C	0.907111	-0.333184	-0.000047
C36	C	1.407111	0.166816	0.499953
C37	C	0.983620	-0.299763	-0.000042
C38	C	1.483620	0.200237	0.499958
C39	C	0.980571	-0.473202	-0.000051
C40	C	1.480571	0.026798	0.499949
C41	C	0.978918	-0.567228	-0.000059
C42	C	1.478918	-0.067228	0.499941
C43	C	0.985273	-0.205731	-0.000035
C44	C	1.485273	0.294269	0.499965
C45	C	0.525445	0.114273	0.086257
C46	C	1.025445	0.614273	0.586257
C47	C	0.438725	0.112747	0.086254
C48	C	0.938725	0.612747	0.586254
C49	C	0.438752	0.112759	-0.086357
C50	C	0.938752	0.612759	0.413643
C51	C	0.525471	0.114280	-0.086352
C52	C	1.025471	0.614280	0.413648
C53	C	0.568815	0.115041	-0.000043
C54	C	1.068815	0.615041	0.499957
C55	C	0.395375	0.111994	-0.000050
C56	C	0.895375	0.611994	0.499950
C57	C	0.301350	0.110338	-0.000054
C58	C	0.801350	0.610338	0.499946
C59	C	0.662847	0.116695	-0.000038
C60	C	1.162847	0.616695	0.499962
C61	C	1.134101	0.107407	-0.000049
C62	C	1.634101	0.607407	0.499951
C63	C	1.226396	0.109022	-0.000058
C64	C	1.726396	0.609022	0.499942
C65	C	0.975984	0.265523	-0.000054
C66	C	1.475984	0.765523	0.499946
C67	C	0.977599	0.357819	-0.000062
C68	C	1.477599	0.857819	0.499938
N69	N	0.982077	0.113505	0.246616
N70	N	1.482077	0.613505	0.746616
N71	N	0.982119	0.113523	-0.246700
N72	N	1.482119	0.613523	0.253300
C73	C	1.038632	0.056992	0.296437
C74	C	1.538632	0.556992	0.796437
C75	C	1.038638	0.056991	0.396094
C76	C	1.538638	0.556991	0.896094
C77	C	0.982092	0.113509	0.445930
C78	C	1.482092	0.613509	0.945930
C79	C	0.925531	0.170025	0.396102
C80	C	1.425531	0.670025	0.896102
C81	C	0.925522	0.170021	0.296446
C82	C	1.425522	0.670021	0.796446
C83	C	0.925555	0.170031	0.603816
C84	C	1.425555	0.670031	1.103816
C85	C	0.925565	0.170037	0.703479
C86	C	1.425565	0.670037	1.203479
C87	C	1.038670	0.057001	0.703465
C88	C	1.538670	0.557001	1.203465
C89	C	1.038662	0.056997	0.603809
C90	C	1.538662	0.556997	1.103809
C91	C	0.982102	0.113515	0.553988
C92	C	1.482102	0.613515	1.053988
H93	H	1.120897	-0.325848	-0.000046
H94	H	1.620897	0.174152	0.499954
C95	C	1.206965	-0.450704	-0.000049
C96	C	1.706965	0.049296	0.499951
C97	C	1.139494	-0.498356	-0.000056
C98	C	1.639494	0.001644	0.499944
H99	H	1.257849	-0.486871	-0.000044
H100	H	1.757849	0.013129	0.499956
H101	H	1.204415	-0.416462	-0.055255
H102	H	1.704415	0.083538	0.444745
H103	H	1.204395	-0.416473	0.055166
H104	H	1.704395	0.083527	0.555166
H105	H	1.142060	-0.532583	-0.055275
H106	H	1.642060	-0.032583	0.444725
H107	H	1.142045	-0.532613	0.055155
H108	H	1.642045	-0.032613	0.555155
C109	C	0.447489	0.112929	-0.256974
C110	C	0.947489	0.612929	0.243026
C111	C	0.391105	0.111936	-0.181226
C112	C	0.891105	0.611936	0.318774
H113	H	0.418073	0.112419	-0.315542
H114	H	0.918073	0.612419	0.184458
H115	H	0.474960	0.161971	-0.253379
H116	H	0.974960	0.661971	0.246621
H117	H	0.487666	0.065062	-0.253378
H118	H	0.987666	0.565062	0.246622
H119	H	0.350932	0.159807	-0.184818
H120	H	0.850932	0.659807	0.315182
H121	H	0.363621	0.062889	-0.184822
H122	H	0.863621	0.562889	0.315178
C123	C	0.835983	-0.544012	-0.000033
C124	C	1.335983	-0.044012	0.499967
C125	C	0.821490	-0.456642	-0.000039
C126	C	1.321490	0.043358	0.499961
H127	H	0.784064	-0.566690	-0.000019
H128	H	1.284064	-0.066690	0.499981
H129	H	0.866850	-0.562297	-0.055243
H130	H	1.366850	-0.062297	0.444757
H131	H	0.866855	-0.562303	0.055177
H132	H	1.366855	-0.062303	0.555177
H133	H	0.790624	-0.438351	-0.055253
H134	H	1.290624	0.061649	0.444747
H135	H	0.790610	-0.438350	0.055177
H136	H	1.290610	0.061650	0.555177
C137	C	0.812398	0.188032	0.508213
C138	C	1.312398	0.688032	1.008213
C139	C	0.863375	0.232149	0.450883
C140	C	1.363375	0.732149	0.950883
H141	H	0.774031	0.226389	0.542036
H142	H	1.274031	0.726389	1.042036
H143	H	0.782501	0.153422	0.469354
H144	H	1.282501	0.653422	0.969354
H145	H	0.846093	0.154378	0.552142
H146	H	1.346093	0.654378	1.052142
H147	H	0.829681	0.265800	0.406949
H148	H	1.329681	0.765800	0.906949
H149	H	0.893275	0.266774	0.489746
H150	H	1.393275	0.766774	0.989746
H151	H	0.846050	-0.289790	-0.000045
H152	H	1.346050	0.210210	0.499955
H153	H	0.403417	0.112122	0.156528
H154	H	0.903417	0.612122	0.656528
C155	C	0.613651	0.187425	-0.186485
C156	C	1.113651	0.687425	0.313515
C157	C	0.573152	0.115125	-0.181219
C158	C	1.073152	0.615125	0.318781
H159	H	0.643092	0.187941	-0.245047
H160	H	1.143092	0.687941	0.254953
H161	H	0.573468	0.235278	-0.182908
H162	H	1.073468	0.735278	0.317092
H163	H	0.651873	0.188082	-0.135077
H164	H	1.151873	0.688082	0.364923
H165	H	0.534926	0.114472	-0.232624
H166	H	1.034926	0.614472	0.267376
H167	H	0.613341	0.067261	-0.184805
H168	H	1.113341	0.567261	0.315195
H169	H	1.084681	0.010972	0.255868
H170	H	1.584681	0.510972	0.755868
H171	H	0.560732	0.114893	0.156536
H172	H	1.060732	0.614893	0.656536
C173	C	1.150457	-0.054715	0.386070
C174	C	1.650457	0.445285	0.886070
C175	C	1.100817	-0.005118	0.450857
C176	C	1.600817	0.494882	0.950857
H177	H	1.188851	-0.093054	0.419880
H178	H	1.688851	0.406946	0.919880
H179	H	1.115864	-0.084644	0.347224
H180	H	1.615864	0.415356	0.847224
H181	H	1.180332	-0.020081	0.347179
H182	H	1.680332	0.479919	0.847179
H183	H	1.070937	-0.039751	0.489745
H184	H	1.570937	0.460249	0.989745
H185	H	1.135414	0.024814	0.489719
H186	H	1.635414	0.524814	0.989719
C187	C	0.813732	0.281759	0.306464
C188	C	1.313732	0.781759	0.806464
C189	C	0.863359	0.232146	0.241679
C190	C	1.363359	0.732146	0.741679
H191	H	0.775356	0.320114	0.272652
H192	H	1.275356	0.820114	0.772652
H193	H	0.783843	0.247143	0.345347
H194	H	1.283843	0.747143	0.845347
H195	H	0.848340	0.311676	0.345318
H196	H	1.348340	0.811676	0.845318
H197	H	0.828751	0.202224	0.202830
H198	H	1.328751	0.702224	0.702830
H199	H	0.893250	0.266767	0.202779
H200	H	1.393250	0.766767	0.702779
H201	H	1.084709	0.010980	0.563233
H202	H	1.584709	0.510980	1.063233
H203	H	1.084723	0.010983	0.744034
H204	H	1.584723	0.510983	1.244034
C205	C	0.907478	0.283193	0.815524
C206	C	1.407478	0.783193	1.315524
C207	C	0.863401	0.232158	0.758253
C208	C	1.363401	0.732158	1.258253
H209	H	0.869097	0.321547	0.849332
H210	H	1.369097	0.821547	1.349332
H211	H	0.941156	0.249541	0.859457
H212	H	1.441156	0.749541	1.359457
H213	H	0.942063	0.313111	0.776620
H214	H	1.442063	0.813111	1.276620
H215	H	0.828821	0.202235	0.797159
H216	H	1.328821	0.702235	1.297159
H217	H	0.829709	0.265814	0.714315
H218	H	1.329709	0.765814	1.214315
H219	H	0.879495	0.216051	0.563255
H220	H	1.379495	0.716051	1.063255
