data_functionalizedCrystal
_audit_creation_method	'MofGen! by Chris Wilmer'
_symmetry_space_group_name_H-M	'P1'
_symmetry_Int_Tables_number	1
_symmetry_cell_setting	triclinic
loop_
_symmetry_equiv_pos_as_xyz
  x,y,z
_cell_length_a	15.944551
_cell_length_b	14.421503
_cell_length_c	9.065218
_cell_angle_alpha	89.993800
_cell_angle_beta	84.257312
_cell_angle_gamma	90.003141
loop_
_atom_site_label
_atom_site_type_symbol
_atom_site_fract_x
_atom_site_fract_y
_atom_site_fract_z
O1	O	1.115971	0.077011	0.190251
O2	O	0.871599	0.077034	0.213710
O3	O	0.998836	0.077020	-0.012780
O4	O	0.988734	0.077025	0.416741
O5	O	0.998815	-0.077203	-0.012746
O6	O	0.871578	-0.077190	0.213744
O7	O	1.115949	-0.077212	0.190285
Cu8	Cu	0.993762	-0.091283	0.202017
Cu9	Cu	0.993787	0.091104	0.201978
O10	O	0.988712	-0.077199	0.416775
C11	C	0.840287	-0.000075	0.212753
C12	C	0.747019	-0.000066	0.209833
N13	N	0.993750	-0.219564	0.202045
C14	C	0.531045	-0.000086	0.062466
C15	C	0.470554	0.075955	0.130882
C16	C	0.576253	-0.000077	0.204551
C17	C	0.470556	-0.076097	0.130949
C18	C	0.411301	-0.000092	0.199439
C19	C	0.516990	0.076026	0.273006
C20	C	0.516998	-0.076094	0.273053
C21	C	0.456525	-0.000034	0.341573
C22	C	0.671277	-0.000068	0.207493
C23	C	0.316278	-0.000095	0.196509
C24	C	0.934905	-0.469211	0.306726
C25	C	1.011022	-0.531021	0.335368
C26	C	0.993770	-0.408726	0.202009
C27	C	0.917673	-0.531010	0.173402
C28	C	0.993783	-0.591447	0.201979
C29	C	1.069926	-0.469174	0.230717
C30	C	0.976527	-0.469158	0.068694
C31	C	1.052698	-0.530939	0.097279
C32	C	0.993762	-0.303464	0.202031
C33	C	0.993800	-0.696706	0.201956
C34	C	1.147261	-0.000102	0.191242
C35	C	1.240530	-0.000104	0.194162
C36	C	0.997854	-0.000090	-0.067727
C37	C	0.994951	-0.000085	-0.231502
N38	N	0.993805	0.219385	0.201939
C39	C	0.989694	-0.000087	0.471722
C40	C	0.992597	-0.000085	0.635497
H41	H	0.563485	0.000007	-0.055454
Br42	Br	0.852020	-0.424032	0.454434
Br43	Br	0.436303	-0.183243	0.030769
H44	H	1.025618	-0.558194	0.448097
H45	H	0.537441	0.140383	0.333044
H46	H	1.102540	-0.557872	0.008704
H47	H	0.424261	0.000009	0.459614
H48	H	0.449998	0.140241	0.070771
Br49	Br	1.177224	-0.424100	0.271240
H50	H	0.961907	-0.441964	-0.043999
H51	H	0.537575	-0.140383	0.333114
H52	H	0.853314	-0.558174	0.149220
