data_functionalizedCrystal
_audit_creation_method	'MofGen! by Chris Wilmer'
_symmetry_space_group_name_H-M	'P1'
_symmetry_Int_Tables_number	1
_symmetry_cell_setting	triclinic
loop_
_symmetry_equiv_pos_as_xyz
  x,y,z
_cell_length_a	27.780903
_cell_length_b	27.780864
_cell_length_c	27.780883
_cell_angle_alpha	59.995974
_cell_angle_beta	89.998891
_cell_angle_gamma	59.999919
loop_
_atom_site_label
_atom_site_type_symbol
_atom_site_fract_x
_atom_site_fract_y
_atom_site_fract_z
O1	O	0.330207	0.424600	-0.014331
O2	O	0.260210	0.326028	0.014244
O3	O	0.260207	0.424599	-0.084330
O4	O	0.330210	0.326030	0.084242
O5	O	0.340268	0.344536	-0.084325
O6	O	0.340272	0.245965	0.014249
O7	O	0.410268	0.344537	-0.014326
Zn8	Zn	0.387981	0.282539	-0.000038
Zn9	Zn	0.282497	0.388026	-0.000044
O10	O	0.410272	0.245967	0.084247
C11	C	0.462870	0.580020	-0.029977
C12	C	0.433164	0.639430	-0.025894
C13	C	0.520801	0.551192	-0.030384
C14	C	0.462873	0.492848	-0.029969
C15	C	0.433171	0.459053	-0.025878
C16	C	0.520804	0.464152	-0.030376
C17	C	0.550038	0.492850	-0.029972
C18	C	0.613534	0.459058	-0.025883
C19	C	0.433768	0.551189	-0.030381
C20	C	0.664832	0.431757	-0.022579
C21	C	0.409166	0.687427	-0.022594
C22	C	0.409176	0.431750	-0.022571
C23	C	0.729188	0.397507	-0.018434
C24	C	0.379058	0.747642	-0.018455
C25	C	0.379072	0.397497	-0.018423
C26	C	0.207592	0.090573	0.029856
C27	C	0.237292	0.031170	0.025762
C28	C	0.236696	0.119398	0.030266
C29	C	0.120429	0.177734	0.029865
C30	C	0.056934	0.211525	0.025780
C31	C	0.149665	0.206427	0.030275
C32	C	0.207596	0.177733	0.029865
C33	C	0.237300	0.211522	0.025780
C34	C	0.149661	0.119400	0.030266
C35	C	0.261299	0.238822	0.022479
C36	C	0.261287	-0.016820	0.022453
C37	C	0.005637	0.238826	0.022478
C38	C	0.291406	0.273069	0.018338
C39	C	0.291390	-0.077027	0.018303
C40	C	-0.058718	0.273075	0.018337
C41	C	0.120428	0.580009	-0.372417
C42	C	0.056932	0.639419	-0.402125
C43	C	0.149663	0.551180	-0.314485
C44	C	0.207597	0.492838	-0.372411
C45	C	0.237302	0.459044	-0.402111
C46	C	0.236700	0.464142	-0.314478
C47	C	0.207596	0.492839	-0.285245
C48	C	0.237299	0.459047	-0.221748
C49	C	0.149665	0.551179	-0.401518
C50	C	0.261297	0.431746	-0.170448
C51	C	0.005633	0.687415	-0.426126
C52	C	0.261300	0.431742	-0.426106
C53	C	0.291402	0.397495	-0.106090
C54	C	-0.058724	0.747629	-0.456236
C55	C	0.291407	0.397490	-0.456209
O56	O	0.919521	0.245970	0.014249
O57	O	0.750952	0.344546	-0.014336
O58	O	0.849511	0.245979	0.084241
O59	O	0.820962	0.344537	-0.084329
O60	O	0.849508	0.326044	0.084233
O61	O	0.750949	0.424612	-0.014344
O62	O	0.919518	0.326035	0.014241
Zn63	Zn	0.835233	0.388036	-0.000053
Zn64	Zn	0.835237	0.282546	-0.000042
O65	O	0.820959	0.424603	-0.084337
O66	O	0.340255	0.905302	0.014213
O67	O	0.410254	0.765308	-0.014358
O68	O	0.410252	0.765293	0.084214
O69	O	0.340258	0.905317	-0.084359
O70	O	0.330188	0.765301	0.084203
O71	O	0.330191	0.765316	-0.014369
O72	O	0.260192	0.905310	0.014202
Zn73	Zn	0.282479	0.835314	-0.000085
Zn74	Zn	0.387967	0.835304	-0.000071
O75	O	0.260194	0.905325	-0.084369
O76	O	0.330221	0.326018	-0.575065
O77	O	0.260213	0.424592	-0.505076
O78	O	0.260218	0.326020	-0.505065
O79	O	0.330215	0.424591	-0.575076
O80	O	0.340278	0.245958	-0.424998
O81	O	0.340273	0.344531	-0.425009
O82	O	0.410281	0.245957	-0.494998
Zn83	Zn	0.387988	0.282532	-0.447292
Zn84	Zn	0.282506	0.388017	-0.552783
O85	O	0.410276	0.344529	-0.495010
O86	O	-0.249054	0.905306	-0.495049
O87	O	-0.080486	0.765299	-0.425042
O88	O	-0.179049	0.765297	-0.425038
O89	O	-0.150491	0.905308	-0.495053
O90	O	-0.179050	0.765297	-0.505098
O91	O	-0.080487	0.765299	-0.505102
O92	O	-0.249055	0.905307	-0.575110
Zn93	Zn	-0.164771	0.835303	-0.552817
Zn94	Zn	-0.164770	0.835302	-0.447334
O95	O	-0.150492	0.905309	-0.575113
C96	C	0.550058	0.090549	0.372333
C97	C	0.613555	0.031139	0.402039
C98	C	0.520823	0.119377	0.401436
C99	C	0.462889	0.177720	0.285163
C100	C	0.433183	0.211514	0.221666
C101	C	0.433786	0.206415	0.314398
C102	C	0.462891	0.177717	0.372330
C103	C	0.433188	0.211509	0.402033
C104	C	0.520821	0.119379	0.314401
C105	C	0.409191	0.238810	0.426029
C106	C	0.664854	-0.016857	0.426038
C107	C	0.409184	0.238817	0.170366
C108	C	0.379086	0.273060	0.456134
C109	C	0.729210	-0.077071	0.456146
C110	C	0.379076	0.273070	0.106008
C111	C	0.865079	0.177777	0.372306
C112	C	0.860985	0.211575	0.402004
C113	C	0.865480	0.119441	0.401412
C114	C	0.865097	0.177764	0.285146
C115	C	0.861022	0.211549	0.221652
C116	C	0.865497	0.119428	0.314384
C117	C	0.865078	0.090607	0.372314
C118	C	0.860983	0.031203	0.402020
C119	C	0.865498	0.206465	0.314377
C120	C	0.857674	-0.016789	0.426018
C121	C	0.857676	0.238881	0.425996
C122	C	0.857729	0.238844	0.170355
C123	C	0.853523	-0.076998	0.456127
C124	C	0.853526	0.273137	0.456096
C125	C	0.853598	0.273086	0.106000
C126	C	0.805388	0.579977	-0.372410
C127	C	0.809479	0.639385	-0.402117
C128	C	0.804990	0.551142	-0.401507
C129	C	0.805373	0.492818	-0.285241
C130	C	0.809448	0.459033	-0.221747
C131	C	0.804976	0.464114	-0.314471
C132	C	0.805395	0.492803	-0.372400
C133	C	0.809493	0.459003	-0.402097
C134	C	0.804969	0.551156	-0.314481
C135	C	0.812805	0.431695	-0.426089
C136	C	0.812785	0.687379	-0.426116
C137	C	0.812742	0.431738	-0.170450
C138	C	0.816959	0.397437	-0.456187
C139	C	0.816932	0.747591	-0.456225
C140	C	0.816872	0.397496	-0.106095
C141	C	0.462853	0.492813	0.372293
C142	C	0.433147	0.459022	0.401993
C143	C	0.520785	0.464111	0.401401
C144	C	0.462857	0.579988	0.285128
C145	C	0.433155	0.639404	0.221630
C146	C	0.520789	0.551153	0.314369
C147	C	0.550023	0.492807	0.372302
C148	C	0.613519	0.459009	0.402011
C149	C	0.433752	0.551159	0.314360
C150	C	0.664817	0.431702	0.426013
C151	C	0.409148	0.431720	0.425987
C152	C	0.409159	0.687405	0.170330
C153	C	0.729174	0.397446	0.456125
C154	C	0.379040	0.397470	0.456089
C155	C	0.379054	0.747625	0.105972
O156	O	0.820844	0.344621	0.574943
O157	O	0.849423	0.246041	0.504958
O158	O	0.750851	0.344624	0.504931
O159	O	0.919416	0.246037	0.574969
O160	O	0.750868	0.424677	0.424871
O161	O	0.849440	0.326093	0.424898
O162	O	0.820861	0.424673	0.494883
Zn163	Zn	0.835153	0.388093	0.447179
Zn164	Zn	0.835131	0.282621	0.552662
O165	O	0.919432	0.326090	0.494909
C166	C	0.120425	1.177811	-0.372458
C167	C	0.056929	1.211610	-0.402168
C168	C	0.149663	1.206507	-0.401557
C169	C	0.207591	1.090630	-0.285283
C170	C	0.237292	1.031215	-0.221786
C171	C	0.236696	1.119459	-0.314515
C172	C	0.207595	1.177804	-0.372448
C173	C	0.237301	1.211596	-0.402148
C174	C	0.149659	1.119466	-0.314525
C175	C	0.261301	1.238897	-0.426141
C176	C	0.005631	1.238917	-0.426170
C177	C	0.261288	0.983214	-0.170486
C178	C	0.291409	1.273146	-0.456243
C179	C	-0.058726	1.273174	-0.456282
C180	C	0.291392	0.922994	-0.106128
H181	H	0.544269	0.575323	-0.031041
H182	H	0.544260	0.575283	0.290897
C183	C	0.300998	1.086863	-0.282802
C184	C	0.333147	1.118573	-0.314954
C185	C	0.397445	1.085982	-0.283243
C186	C	0.429594	1.021679	-0.219379
C187	C	0.397444	0.989965	-0.187223
C188	C	0.333146	1.022557	-0.218935
H189	H	0.309348	1.166177	-0.362233
H190	H	0.421243	1.109459	-0.307047
H191	H	0.477191	0.997553	-0.195905
H192	H	0.421243	0.942362	-0.139945
H193	H	0.309348	0.999080	-0.195130
C194	C	0.117952	0.086808	0.031150
C195	C	0.095391	0.060869	0.082512
C196	C	0.063683	0.028279	0.083396
C197	C	0.054535	0.021627	0.032918
C198	C	0.077097	0.047566	-0.018448
C199	C	0.108805	0.080157	-0.019332
H200	H	0.102162	0.065793	0.119883
H201	H	0.046981	0.009077	0.121421
H202	H	0.031063	-0.002499	0.033573
H203	H	0.070326	0.042643	-0.055818
H204	H	0.125506	0.099359	-0.057357
C205	C	0.300997	0.086809	0.031149
C206	C	0.333146	0.118514	0.031602
C207	C	0.397444	0.085927	0.032484
C208	C	0.429593	0.021636	0.032913
C209	C	0.397444	-0.010073	0.032461
C210	C	0.333146	0.022513	0.031578
H211	H	0.309347	0.166110	0.031284
H212	H	0.421243	0.109401	0.032819
H213	H	0.477191	-0.002487	0.033567
H214	H	0.421243	-0.057669	0.032779
H215	H	0.309348	-0.000960	0.031243
H216	H	0.386167	0.575259	0.290870
H217	H	0.866130	0.095319	0.449011
H218	H	0.386171	0.575316	-0.031033
H219	H	0.126194	0.253366	0.030938
C220	C	0.866393	0.269878	0.282663
C221	C	0.866824	0.301599	0.314803
C222	C	0.867719	0.365009	0.283089
C223	C	0.868183	0.396697	0.219236
C224	C	0.867752	0.364977	0.187093
C225	C	0.866857	0.301567	0.218807
H226	H	0.866480	0.278141	0.362074
H227	H	0.868038	0.388490	0.306884
H228	H	0.868846	0.443637	0.195760
H229	H	0.868096	0.388434	0.139822
H230	H	0.866538	0.278085	0.195012
C231	C	0.804085	0.400699	-0.282763
C232	C	0.803635	0.368991	-0.218905
C233	C	0.802743	0.305579	-0.187199
C234	C	0.802303	0.273874	-0.219351
C235	C	0.802754	0.305581	-0.283213
C236	C	0.803645	0.368993	-0.314918
H237	H	0.803961	0.392461	-0.195101
H238	H	0.802410	0.282107	-0.139925
H239	H	0.801643	0.226932	-0.195881
H240	H	0.802428	0.282111	-0.307017
H241	H	0.803978	0.392465	-0.362193
C242	C	0.552499	0.400686	0.465706
C243	C	0.527070	0.403532	0.514206
C244	C	0.558785	0.340109	0.578507
C245	C	0.615930	0.273840	0.594308
C246	C	0.641363	0.270991	0.545807
C247	C	0.609647	0.334414	0.481506
H248	H	0.484765	0.452591	0.502510
H249	H	0.539958	0.342218	0.614411
H250	H	0.639408	0.226891	0.641908
H251	H	0.683668	0.221933	0.557503
H252	H	0.628474	0.332305	0.445602
H253	H	0.866155	0.095300	0.290914
C254	C	0.552527	0.086785	0.465740
C255	C	0.561650	0.128129	0.481540
C256	C	0.593350	0.095541	0.545842
C257	C	0.615927	0.021609	0.594344
C258	C	0.606805	-0.019739	0.578545
C259	C	0.575105	0.012849	0.514243
H260	H	0.544936	0.182861	0.445636
H261	H	0.600102	0.126149	0.557538
H262	H	0.639393	-0.002515	0.641944
H263	H	0.623519	-0.074471	0.614450
H264	H	0.568353	-0.017760	0.502548
H265	H	0.544294	0.095249	0.290932
C266	C	0.117954	1.269936	-0.465860
C267	C	0.108828	1.336204	-0.481655
C268	C	0.077119	1.399632	-0.545954
C269	C	0.054536	1.396792	-0.594457
C270	C	0.063662	1.330522	-0.578664
C271	C	0.095371	1.267093	-0.514365
H272	H	0.125546	1.338309	-0.445748
H273	H	0.070364	1.448690	-0.557645
H274	H	0.031064	1.443745	-0.642055
H275	H	0.046944	1.328417	-0.614570
H276	H	0.102126	1.218036	-0.502674
H277	H	0.804339	0.575270	-0.449107
H278	H	0.544276	0.417204	-0.031024
H279	H	0.284294	0.417184	-0.290999
C280	C	0.117955	1.086873	-0.282796
C281	C	0.060831	1.128215	-0.273647
C282	C	0.029131	1.095625	-0.241907
C283	C	0.054555	1.021693	-0.219318
C284	C	0.111682	0.980347	-0.228467
C285	C	0.143382	1.012937	-0.260206
H286	H	0.042008	1.182947	-0.290369
H287	H	-0.013158	1.126232	-0.235135
H288	H	0.031089	0.997568	-0.195822
H289	H	0.130505	0.925615	-0.211744
H290	H	0.185671	0.982330	-0.266978
C291	C	0.117959	0.583777	-0.282778
C292	C	0.054099	0.648079	-0.314929
C293	C	0.022398	0.680674	-0.283223
C294	C	0.054557	0.648969	-0.219367
C295	C	0.118421	0.584663	-0.187213
C296	C	0.150121	0.552068	-0.218919
H297	H	0.030290	0.671552	-0.362202
H298	H	-0.024878	0.728278	-0.307026
H299	H	0.031090	0.673098	-0.195897
H300	H	0.142230	0.561190	-0.139940
H301	H	0.197398	0.504465	-0.195116
C302	C	0.804085	0.583741	-0.282765
C303	C	0.854567	0.590385	-0.273609
C304	C	0.853689	0.622960	-0.241888
C305	C	0.802331	0.648890	-0.219324
C306	C	0.751846	0.642246	-0.228479
C307	C	0.752723	0.609672	-0.260200
H308	H	0.892589	0.571190	-0.290313
H309	H	0.891062	0.627878	-0.235111
H310	H	0.801681	0.673003	-0.195842
H311	H	0.713824	0.661441	-0.211775
H312	H	0.715350	0.604753	-0.266977
C313	C	0.117965	0.583762	-0.465821
C314	C	0.095386	0.657691	-0.514330
C315	C	0.063691	0.690267	-0.578630
C316	C	0.054575	0.648913	-0.594420
C317	C	0.077155	0.574979	-0.545909
C318	C	0.108849	0.542403	-0.481610
H319	H	0.102133	0.688308	-0.502643
H320	H	0.046976	0.744998	-0.614540
H321	H	0.031113	0.673027	-0.642018
H322	H	0.070407	0.544362	-0.557597
H323	H	0.125564	0.487672	-0.445699
C324	C	0.369486	0.269840	0.282687
C325	C	0.337334	0.301563	0.218823
C326	C	0.273037	0.364988	0.187114
C327	C	0.240893	0.396690	0.219268
C328	C	0.273044	0.364967	0.283136
C329	C	0.337341	0.301542	0.314845
H330	H	0.361129	0.278095	0.195017
H331	H	0.249237	0.388471	0.139834
H332	H	0.193296	0.443641	0.195795
H333	H	0.249249	0.388435	0.306942
H334	H	0.361142	0.278059	0.362124
