data_functionalizedCrystal
_audit_creation_method	'MofGen! by Chris Wilmer'
_symmetry_space_group_name_H-M	'P1'
_symmetry_Int_Tables_number	1
_symmetry_cell_setting	triclinic
loop_
_symmetry_equiv_pos_as_xyz
  x,y,z
_cell_length_a	16.625548
_cell_length_b	14.908932
_cell_length_c	14.908308
_cell_angle_alpha	90.209830
_cell_angle_beta	86.722035
_cell_angle_gamma	93.300782
loop_
_atom_site_label
_atom_site_type_symbol
_atom_site_fract_x
_atom_site_fract_y
_atom_site_fract_z
Zn1	Zn	1.187642	-0.387269	0.487799
Zn2	Zn	1.687642	0.112731	0.987799
Zn3	Zn	1.188485	-0.528970	0.328787
Zn4	Zn	1.688485	-0.028970	0.828787
Zn5	Zn	1.061006	-0.378632	0.337455
Zn6	Zn	1.561006	0.121368	0.837455
Zn7	Zn	1.045514	-0.537588	0.479099
Zn8	Zn	1.545514	-0.037588	0.979099
O9	O	1.120662	-0.458115	0.408285
O10	O	1.620662	0.041885	0.908285
O11	O	1.300585	-0.406074	0.466719
O12	O	1.800585	0.093926	0.966719
O13	O	1.178412	-0.501806	0.204111
O14	O	1.678412	-0.001806	0.704111
O15	O	1.083935	-0.253952	0.364667
O16	O	1.583935	0.246048	0.864667
O17	O	1.301205	-0.510181	0.349894
O18	O	1.801205	-0.010181	0.849894
O19	O	1.176974	-0.260298	0.475124
O20	O	1.676974	0.239702	0.975124
O21	O	1.084754	-0.391353	0.210479
O22	O	1.584754	0.108647	0.710479
O23	O	0.946120	-0.399710	0.356231
O24	O	1.446120	0.100290	0.856231
O25	O	1.057531	-0.524870	0.606079
O26	O	1.557531	-0.024870	1.106079
O27	O	0.934738	-0.516494	0.460296
O28	O	1.434738	-0.016494	0.960296
O29	O	1.161951	-0.414431	0.612471
O30	O	1.661951	0.085569	1.112471
O31	O	1.163389	-0.655939	0.341458
O32	O	1.663389	-0.155939	0.841458
O33	O	1.058349	-0.662271	0.451891
O34	O	1.558349	-0.162271	0.951891
C35	C	0.911173	-0.458100	0.408261
C36	C	1.411173	0.041900	0.908261
C37	C	0.821550	-0.458117	0.408270
C38	C	1.321550	0.041883	0.908270
C39	C	1.109300	-0.691731	0.394810
C40	C	1.609300	-0.191731	0.894810
C41	C	1.104512	-0.791675	0.389075
C42	C	1.604512	-0.291675	0.889075
C43	C	1.107919	-0.471575	0.642812
C44	C	1.607919	0.028425	1.142812
C45	C	1.102488	-0.477311	0.742753
C46	C	1.602488	0.022689	1.242753
C47	C	0.493372	-0.458125	0.408308
C48	C	0.993372	0.041875	0.908308
C49	C	0.584682	-0.458120	0.408295
C50	C	1.084682	0.041880	0.908295
C51	C	0.657459	-0.458122	0.408289
C52	C	1.157459	0.041878	0.908289
C53	C	0.748774	-0.458116	0.408277
C54	C	1.248774	0.041884	0.908277
C55	C	1.330969	-0.458130	0.408310
C56	C	1.830969	0.041870	0.908310
C57	C	1.420589	-0.458136	0.408321
C58	C	1.920589	0.041864	0.908321
C59	C	1.132089	-0.223587	0.421833
C60	C	1.632089	0.276413	0.921833
C61	C	1.136958	-0.123645	0.427606
C62	C	1.636958	0.376355	0.927606
C63	C	1.049209	0.070765	0.323438
C64	C	1.549209	0.570765	0.823438
C65	C	1.053781	0.164670	0.328859
C66	C	1.553781	0.664670	0.828859
C67	C	1.150671	0.158069	0.443875
C68	C	1.650671	0.658069	0.943875
C69	C	1.146099	0.064165	0.438453
C70	C	1.646099	0.564165	0.938453
C71	C	1.095366	0.020516	0.378232
C72	C	1.595366	0.520516	0.878232
C73	C	1.090799	-0.073389	0.372806
C74	C	1.590799	0.426611	0.872806
C75	C	1.187684	-0.079989	0.487825
C76	C	1.687684	0.420011	0.987825
C77	C	1.192256	0.013916	0.493247
C78	C	1.692256	0.513916	0.993247
C79	C	1.133405	-0.444642	0.174674
C80	C	1.633405	0.055358	0.674674
C81	C	1.139004	-0.438653	0.074748
C82	C	1.639004	0.061347	0.574748
C83	C	1.201016	-0.373069	0.937213
C84	C	1.701016	0.126931	1.437213
C85	C	1.195916	-0.378456	1.031117
C86	C	1.695916	0.121544	1.531117
C87	C	1.087186	-0.493465	1.024468
C88	C	1.587186	0.006535	1.524468
C89	C	1.092286	-0.488079	0.930564
C90	C	1.592286	0.011921	1.430564
C91	C	1.149203	-0.427880	0.886940
C92	C	1.649203	0.072120	1.386940
C93	C	1.154306	-0.422498	0.793033
C94	C	1.654306	0.077502	1.293033
C95	C	1.045573	-0.537503	0.786386
C96	C	1.545573	-0.037503	1.286386
C97	C	1.040473	-0.542889	0.880290
C98	C	1.540473	-0.042889	1.380290
H99	H	1.049491	-0.108926	0.323769
H100	H	1.549491	0.391074	0.823769
Cl101	Cl	1.261054	-0.309547	1.094315
Cl102	Cl	1.761054	0.190453	1.594315
Cl103	Cl	1.015633	-0.569131	1.079326
Cl104	Cl	1.515633	-0.069131	1.579326
Cl105	Cl	0.968923	-0.618563	0.935141
Cl106	Cl	1.468923	-0.118563	1.435141
Cl107	Cl	1.245721	-0.143164	0.556706
Cl108	Cl	1.745721	0.356836	1.056706
Cl109	Cl	1.225860	-0.346823	0.738192
Cl110	Cl	1.725860	0.153177	1.238192
Cl111	Cl	1.214422	0.212956	0.519596
Cl112	Cl	1.714422	0.712956	1.019596
Cl113	Cl	1.272575	-0.297403	0.882367
Cl114	Cl	1.772575	0.202597	1.382367
H115	H	1.007905	0.035226	0.274398
H116	H	1.507905	0.535226	0.774398
Cl117	Cl	0.995750	0.227837	0.259975
Cl118	Cl	1.495750	0.727837	0.759975
H119	H	1.233559	0.049465	0.542280
H120	H	1.733559	0.549465	1.042280
Cl121	Cl	0.980441	-0.606422	0.723180
Cl122	Cl	1.480441	-0.106422	1.223180
