data_functionalizedCrystal
_audit_creation_method	'MofGen! by Chris Wilmer'
_symmetry_space_group_name_H-M	'P1'
_symmetry_Int_Tables_number	1
_symmetry_cell_setting	triclinic
loop_
_symmetry_equiv_pos_as_xyz
  x,y,z
_cell_length_a	10.654554
_cell_length_b	14.853568
_cell_length_c	9.130313
_cell_angle_alpha	90.000867
_cell_angle_beta	90.000623
_cell_angle_gamma	95.939034
loop_
_atom_site_label
_atom_site_type_symbol
_atom_site_fract_x
_atom_site_fract_y
_atom_site_fract_z
O1	O	1.666516	-0.126647	-0.121738
O2	O	1.300913	-0.138707	-0.121749
O3	O	1.493479	-0.001499	-0.121750
O4	O	1.473949	-0.263854	-0.121736
O5	O	1.493477	-0.001492	0.121849
O6	O	1.300910	-0.138699	0.121850
O7	O	1.666513	-0.126639	0.121861
Cu8	Cu	1.483711	-0.132669	0.144098
Cu9	Cu	1.483714	-0.132677	-0.143986
O10	O	1.473946	-0.263847	0.121863
C11	C	1.254123	-0.137817	0.000049
C12	C	1.114707	-0.135165	0.000044
C13	C	0.903386	-0.213462	0.000061
C14	C	1.034381	-0.215954	0.000050
C15	C	1.064032	-0.051878	0.000034
C16	C	0.933039	-0.049387	0.000035
C17	C	0.823065	-0.294256	0.000083
C18	C	0.873731	-0.377543	0.000090
C19	C	1.004727	-0.380036	0.000078
C20	C	1.085056	-0.299241	0.000060
C21	C	1.492593	0.032098	0.000044
C22	C	1.489941	0.132196	0.000029
C23	C	1.364340	0.545403	0.000044
C24	C	1.593114	0.565457	0.000050
C25	C	1.595608	0.471410	0.000044
C26	C	1.482466	0.414355	0.000040
C27	C	1.366830	0.451347	0.000042
C28	C	1.711242	0.434410	0.000057
C29	C	1.713740	0.340358	0.000052
C30	C	1.600597	0.283301	0.000037
C31	C	1.484956	0.320299	0.000038
C32	C	1.371815	0.263244	0.000033
C33	C	1.256173	0.300240	0.000023
C34	C	1.253687	0.394291	0.000027
C35	C	1.603083	0.189251	0.000033
C36	C	1.374305	0.169188	0.000031
C37	C	1.713303	-0.127529	0.000060
C38	C	1.852718	-0.130181	0.000056
C39	C	1.474832	0.702556	0.000059
C40	C	1.477482	0.602458	0.000048
N41	N	1.483717	-0.132677	-0.346608
C42	C	1.569144	-0.072041	-0.423261
C43	C	1.569148	-0.072035	-0.576598
C44	C	1.398288	-0.193304	-0.576616
C45	C	1.398291	-0.193314	-0.423282
C46	C	1.654570	-0.011404	-0.346587
C47	C	1.740003	0.049237	-0.423240
C48	C	1.740007	0.049243	-0.576577
C49	C	1.654578	-0.011393	-0.653261
N50	N	1.483718	-0.132662	0.346721
H51	H	0.716401	-0.292236	0.000097
H52	H	1.129446	0.013901	0.000020
H53	H	0.891786	0.018428	0.000028
H54	H	0.808319	-0.443323	0.000094
H55	H	1.045975	-0.447852	0.000071
C56	C	1.229155	-0.301987	0.000040
N57	N	1.337689	-0.304057	0.000032
H58	H	1.282169	0.122739	0.000021
C59	C	1.304314	-0.260014	-0.338959
N60	N	1.233530	-0.310256	-0.275447
H61	H	1.809563	0.098600	-0.360796
H62	H	1.807903	0.310244	0.000058
C63	C	1.730281	0.148559	0.000045
N64	N	1.826093	0.117911	0.000049
H65	H	1.164053	0.253774	0.000030
H66	H	1.159537	0.424421	0.000020
H67	H	1.270187	0.575530	0.000030
H68	H	1.809577	0.098613	-0.638986
H69	H	1.654572	-0.011401	-0.221733
H70	H	1.685229	0.611916	0.000066
C71	C	1.654592	-0.011386	-0.821937
N72	N	1.654598	-0.011377	-0.948982
H73	H	1.328734	-0.242671	-0.639062
H74	H	1.803355	0.480871	0.000074
