data_functionalizedCrystal
_audit_creation_method	'MofGen! by Chris Wilmer'
_symmetry_space_group_name_H-M	'P1'
_symmetry_Int_Tables_number	1
_symmetry_cell_setting	triclinic
loop_
_symmetry_equiv_pos_as_xyz
  x,y,z
_cell_length_a	16.098538
_cell_length_b	14.853567
_cell_length_c	14.853567
_cell_angle_alpha	83.634930
_cell_angle_beta	92.730477
_cell_angle_gamma	87.260459
loop_
_atom_site_label
_atom_site_type_symbol
_atom_site_fract_x
_atom_site_fract_y
_atom_site_fract_z
O1	O	0.069192	-1.200393	-0.113684
O2	O	0.069205	-0.937934	-0.127705
O3	O	0.069201	-1.076174	0.010536
O4	O	0.069196	-1.062153	-0.251924
O5	O	-0.069312	-1.068099	0.002492
O6	O	-0.069308	-0.929859	-0.135748
O7	O	-0.069321	-1.192317	-0.121728
Zn8	Zn	-0.091306	-1.059806	-0.130015
Zn9	Zn	0.091190	-1.070445	-0.119417
O10	O	-0.069316	-1.054077	-0.259968
C11	C	-0.000049	-0.900308	-0.131091
C12	C	-0.000044	-0.800224	-0.129187
N13	N	-0.215855	-1.052551	-0.137247
C14	C	-0.000053	-1.071501	0.040103
C15	C	-0.000046	-1.069598	0.140187
C16	C	-0.259442	-1.111247	-0.078593
C17	C	-0.346631	-1.106181	-0.083661
C18	C	-0.390231	-1.042422	-0.147388
C19	C	-0.346638	-0.983719	-0.206044
C20	C	-0.259451	-0.988782	-0.200971
C21	C	-0.653481	-1.024068	-0.165761
C22	C	-0.740674	-1.019011	-0.170832
C23	C	-0.740661	-1.141472	-0.048447
C24	C	-0.653472	-1.146533	-0.043383
C25	C	-0.609886	-1.087827	-0.102037
C26	C	-0.479352	-1.037243	-0.152571
C27	C	-0.520767	-1.093002	-0.096848
N28	N	0.215739	-1.077707	-0.112178
C29	C	-0.000065	-1.229944	-0.118341
C30	C	-0.000065	-1.330027	-0.120245
C31	C	-0.000061	-0.387689	-0.039022
C32	C	-0.000063	-0.366408	-0.203255
C33	C	-0.000060	-0.460442	-0.205045
C34	C	-0.000057	-0.518104	-0.123822
C35	C	-0.000056	-0.481733	-0.040809
C36	C	-0.000053	-0.496822	-0.288056
C37	C	-0.000049	-0.590861	-0.289849
C38	C	-0.000052	-0.648525	-0.208626
C39	C	-0.000052	-0.612147	-0.125610
C40	C	-0.000048	-0.669809	-0.044387
C41	C	-0.000054	-0.633434	0.038630
C42	C	-0.000058	-0.539396	0.040414
C43	C	-0.000047	-0.742562	-0.210410
C44	C	-0.000043	-0.763853	-0.046174
C45	C	-0.000061	-1.058750	-0.289535
C46	C	-0.000063	-1.060654	-0.389619
C47	C	-0.000057	-0.979432	0.552720
C48	C	-0.000066	-1.143664	0.574000
C49	C	-0.000061	-1.145454	0.479967
C50	C	-0.000055	-1.064232	0.422305
C51	C	-0.000055	-0.981219	0.458677
C52	C	-0.000070	-1.228465	0.443587
C53	C	-0.000066	-1.230259	0.349549
C54	C	-0.000055	-1.149036	0.291886
C55	C	-0.000053	-1.066020	0.328263
C56	C	-0.000048	-0.984797	0.270601
C57	C	-0.000040	-0.901781	0.306977
C58	C	-0.000044	-0.899996	0.401014
C59	C	-0.000051	-1.150820	0.197848
C60	C	-0.000046	-0.986585	0.176559
H61	H	-0.223949	-1.163170	-0.026704
H62	H	-0.000063	-1.218411	0.168235
N63	N	-0.000058	-0.304222	-0.290855
H64	H	-0.000058	-0.239131	-0.277126
H65	H	-0.051407	-0.313021	-0.330009
H66	H	-0.000039	-0.832409	0.430640
N67	N	-0.606446	-1.215309	0.025342
H68	H	-0.570273	-1.182921	0.067428
H69	H	-0.570317	-1.257338	-0.007163
N70	N	-0.000036	-0.826047	0.041430
H71	H	-0.051379	-0.862553	0.041365
H72	H	-0.000009	-0.788673	0.094239
H73	H	-0.618000	-0.976269	-0.213521
H74	H	-0.776169	-0.967088	-0.222729
N75	N	-0.393659	-0.914943	-0.274773
H76	H	-0.455506	-0.920642	-0.269089
H77	H	-0.378410	-0.926316	-0.337862
N78	N	-0.000045	-0.889896	0.591946
H79	H	-0.000045	-0.901082	0.660268
H80	H	-0.051392	-0.851356	0.567878
H81	H	-0.000046	-0.680395	0.104762
H82	H	-0.000069	-0.358068	0.028568
N83	N	-0.000086	-1.316057	0.505785
H84	H	0.051260	-1.321969	0.548258
H85	H	-0.000126	-1.368869	0.468415
N86	N	-0.000081	-1.231258	0.636194
H87	H	0.051262	-1.237168	0.678673
H88	H	-0.000113	-1.284068	0.598822
N89	N	-0.212435	-0.925470	-0.264228
H90	H	-0.253283	-0.884311	-0.305369
H91	H	-0.176248	-0.962127	-0.302044
H92	H	-0.776156	-1.189266	-0.000693
H93	H	-0.000083	-0.509769	0.108001
H94	H	-0.000071	-1.297856	0.319940
H95	H	-0.000047	-0.449868	-0.354182
N96	N	-0.393644	-1.169519	-0.020430
H97	H	-0.352793	-1.210693	0.020695
H98	H	-0.429793	-1.207297	-0.057160
N99	N	-0.000037	-0.630093	-0.379382
H100	H	-0.000037	-0.579294	-0.430563
H101	H	-0.051384	-0.665658	-0.386688
H102	H	-0.000044	-0.772175	-0.278000
H103	H	-0.514859	-0.985331	-0.204460
N104	N	-0.473743	-1.161775	-0.028124
H105	H	-0.514582	-1.198197	0.008266
H106	H	-0.437577	-1.129316	0.013902
N107	N	-0.000040	-0.898985	0.114361
H108	H	0.051309	-0.865767	0.129052
H109	H	-0.051418	-0.859848	0.123116
H110	H	-0.000042	-0.835650	0.260016
