data_functionalizedCrystal
_audit_creation_method	'MofGen! by Chris Wilmer'
_symmetry_space_group_name_H-M	'P1'
_symmetry_Int_Tables_number	1
_symmetry_cell_setting	triclinic
loop_
_symmetry_equiv_pos_as_xyz
  x,y,z
_cell_length_a	12.759401
_cell_length_b	13.897448
_cell_length_c	12.759393
_cell_angle_alpha	90.033687
_cell_angle_beta	90.018335
_cell_angle_gamma	90.017853
loop_
_atom_site_label
_atom_site_type_symbol
_atom_site_fract_x
_atom_site_fract_y
_atom_site_fract_z
Zn1	Zn	1.606232	-0.383951	0.593968
Zn2	Zn	1.606118	-0.545281	0.418283
Zn3	Zn	1.430534	-0.384002	0.418308
Zn4	Zn	1.430513	-0.545206	0.593924
O5	O	1.518349	-0.464610	0.506121
O6	O	1.753238	-0.405361	0.570671
O7	O	1.582787	-0.523940	0.271265
O8	O	1.453898	-0.249014	0.441638
O9	O	1.753154	-0.523890	0.441596
O10	O	1.582982	-0.248976	0.570695
O11	O	1.453787	-0.405449	0.271283
O12	O	1.283511	-0.405376	0.441596
O13	O	1.453862	-0.523762	0.740951
O14	O	1.283495	-0.523812	0.570621
O15	O	1.582961	-0.405288	0.740984
O16	O	1.582767	-0.680253	0.441554
O17	O	1.453751	-0.680197	0.570597
C18	C	1.245382	-0.464592	0.506107
C19	C	1.128605	-0.464608	0.506125
C20	C	1.073763	-0.526376	0.573198
C21	C	0.964039	-0.526388	0.573209
C22	C	0.964009	-0.402861	0.439067
C23	C	1.073731	-0.402845	0.439062
C24	C	1.073779	-0.597696	0.650640
C25	C	0.964055	-0.597708	0.650652
C26	C	1.518273	-0.715224	0.506090
C27	C	1.518336	-0.822438	0.506113
C28	C	1.518446	-1.018733	0.506179
C29	C	1.518382	-0.909501	0.506145
C30	C	1.792382	-0.464628	0.506136
C31	C	1.909159	-0.464636	0.506142
C32	C	1.518422	-0.464511	0.780154
C33	C	1.518453	-0.464469	0.896931
C34	C	1.518455	-0.213017	0.506174
C35	C	1.518500	-0.105803	0.506197
C36	C	1.518337	-0.464639	0.233154
C37	C	1.518510	-0.464409	0.116377
C38	C	1.451331	-0.402735	1.061535
C39	C	1.451305	-0.402762	0.951811
C40	C	1.585640	-0.526146	0.951781
C41	C	1.585670	-0.526113	1.061503
C42	C	1.373770	-0.331503	1.061551
C43	C	1.373744	-0.331530	0.951827
H44	H	1.103588	-0.577773	0.732048
N45	N	1.658138	-0.592622	1.120657
H46	H	1.700675	-0.631715	1.069243
H47	H	1.615372	-0.637249	1.166168
H48	H	1.118380	-0.352541	0.384452
H49	H	1.402908	-0.260574	0.917819
N50	N	0.904824	-0.336263	0.366721
H51	H	0.826993	-0.345648	0.376897
H52	H	0.923979	-0.351207	0.291662
N53	N	1.265946	-0.358042	0.912355
H54	H	1.217862	-0.369859	0.973883
H55	H	1.270674	-0.418302	0.868331
N56	N	1.118842	-0.691638	0.611843
H57	H	1.059913	-0.737042	0.593104
H58	H	1.163436	-0.721328	0.668672
H59	H	0.930058	-0.571042	0.728004
H60	H	1.640320	-0.576382	0.907089
H61	H	1.395594	-0.256787	1.091349
H62	H	0.934255	-0.672396	0.628717
H63	H	1.296476	-0.358250	1.095573
