data_functionalizedCrystal
_audit_creation_method	'MofGen! by Chris Wilmer'
_symmetry_space_group_name_H-M	'P1'
_symmetry_Int_Tables_number	1
_symmetry_cell_setting	triclinic
loop_
_symmetry_equiv_pos_as_xyz
  x,y,z
_cell_length_a	19.077312
_cell_length_b	19.077068
_cell_length_c	12.759393
_cell_angle_alpha	87.737652
_cell_angle_beta	87.723664
_cell_angle_gamma	89.941008
loop_
_atom_site_label
_atom_site_type_symbol
_atom_site_fract_x
_atom_site_fract_y
_atom_site_fract_z
Zn1	Zn	1.062975	-0.322806	0.549582
Zn2	Zn	1.562975	0.177194	1.049582
Zn3	Zn	1.058155	-0.440326	0.381218
Zn4	Zn	1.558155	0.059674	0.881218
Zn5	Zn	0.945464	-0.318127	0.380684
Zn6	Zn	1.445464	0.181873	0.880684
Zn7	Zn	0.940715	-0.435563	0.563612
Zn8	Zn	1.440715	0.064437	1.063612
O9	O	1.001827	-0.379206	0.468774
O10	O	1.501827	0.120794	0.968774
O11	O	1.160663	-0.342348	0.521600
O12	O	1.660663	0.157652	1.021600
O13	O	1.043176	-0.424151	0.234130
O14	O	1.543176	0.075849	0.734130
O15	O	0.965057	-0.220418	0.396993
O16	O	1.465057	0.279582	0.896993
O17	O	1.157122	-0.428689	0.397904
O18	O	1.657122	0.071311	0.897904
O19	O	1.051392	-0.223856	0.521082
O20	O	1.551392	0.276144	1.021082
O21	O	0.960383	-0.334372	0.233737
O22	O	1.460383	0.165628	0.733737
O23	O	0.846506	-0.329753	0.410598
O24	O	1.346506	0.170247	0.910598
O25	O	0.956963	-0.420571	0.708768
O26	O	1.456963	0.079429	1.208768
O27	O	0.843017	-0.416033	0.544995
O28	O	1.343017	0.083967	1.044995
O29	O	1.046786	-0.337729	0.698460
O30	O	1.546786	0.162271	1.198460
O31	O	1.038571	-0.538025	0.411508
O32	O	1.538571	-0.038025	0.911508
O33	O	0.952289	-0.534525	0.545513
O34	O	1.452289	-0.034525	1.045513
C35	C	0.819267	-0.371869	0.479261
C36	C	1.319267	0.128131	0.979261
C37	C	0.741166	-0.368747	0.483774
C38	C	1.241166	0.131253	0.983774
C39	C	0.301741	-0.346301	0.516147
C40	C	0.801741	0.153699	1.016147
C41	C	0.375125	-0.349247	0.511901
C42	C	0.875125	0.150753	1.011901
C43	C	0.409966	-0.395600	0.445263
C44	C	0.909966	0.104400	0.945263
C45	C	0.371421	-0.439014	0.382874
C46	C	0.871421	0.060986	0.882874
C47	C	0.298038	-0.436071	0.387126
C48	C	0.798038	0.063929	0.887126
C49	C	0.629238	-0.409218	0.425636
C50	C	1.129238	0.090782	0.925636
C51	C	0.702625	-0.412157	0.421387
C52	C	1.202625	0.087843	0.921387
C53	C	0.706324	-0.322390	0.550416
C54	C	1.206324	0.177610	1.050416
C55	C	0.632940	-0.319448	0.554657
C56	C	1.132940	0.180552	1.054657
C57	C	0.594401	-0.362865	0.492272
C58	C	1.094401	0.137135	0.992272
N59	N	0.484976	-0.398611	0.440920
N60	N	0.984976	0.101389	0.940920
N61	N	0.519392	-0.359857	0.496622
N62	N	1.019392	0.140143	0.996622
C63	C	0.994411	-0.561772	0.480113
C64	C	1.494411	-0.061772	0.980113
C65	C	0.991302	-0.639876	0.484995
C66	C	1.491302	-0.139876	0.984995
C67	C	1.034799	-0.678370	0.417574
C68	C	1.534799	-0.178370	0.917574
C69	C	1.031880	-0.751758	0.422172
C70	C	1.531880	-0.251758	0.922172
C71	C	0.985459	-0.786651	0.494187
C72	C	1.485459	-0.286651	0.994187
C73	C	0.941960	-0.748152	0.561616
C74	C	1.441960	-0.248152	1.061616
C75	C	0.944884	-0.674765	0.557022
C76	C	1.444884	-0.174765	1.057022
C77	C	0.971897	-1.005940	0.515406
C78	C	1.471897	-0.505940	1.015406
C79	C	0.968976	-1.079332	0.519992
C80	C	1.468976	-0.579332	1.019992
C81	C	1.058897	-1.082933	0.380549
C82	C	1.558897	-0.582933	0.880549
C83	C	1.061813	-1.009545	0.375958
C84	C	1.561813	-0.509545	0.875958
C85	C	1.018317	-0.971053	0.443390
C86	C	1.518317	-0.471053	0.943390
N87	N	0.982472	-0.861665	0.498886
N88	N	1.482472	-0.361665	0.998886
N89	N	1.021308	-0.896040	0.438695
N90	N	1.521308	-0.396040	0.938695
C91	C	1.185100	-0.386572	0.458246
C92	C	1.685100	0.113428	0.958246
C93	C	1.263201	-0.389710	0.453760
C94	C	1.763201	0.110290	0.953760
C95	C	1.001882	-0.379140	0.742800
C96	C	1.501882	0.120860	1.242800
C97	C	1.001906	-0.379113	0.859574
C98	C	1.501906	0.120887	1.359574
C99	C	1.009292	-0.195928	0.457413
C100	C	1.509292	0.304072	0.957413
C101	C	1.012473	-0.117826	0.452571
C102	C	1.512473	0.382174	0.952571
C103	C	1.001814	-0.379222	0.195808
C104	C	1.501814	0.120778	0.695808
C105	C	1.001935	-0.379057	0.079015
C106	C	1.501935	0.120943	0.579015
C107	C	1.048681	-0.335970	0.909069
C108	C	1.548681	0.164030	1.409069
C109	C	1.048694	-0.335940	1.018791
C110	C	1.548694	0.164060	1.518791
C111	C	0.955155	-0.422202	1.029512
C112	C	1.455155	0.077798	1.529512
C113	C	0.955139	-0.422227	0.919793
C114	C	1.455139	0.077773	1.419793
H115	H	0.604577	-0.281706	0.608925
H116	H	1.104577	0.218294	1.108925
H117	H	0.917081	-0.457306	1.078556
H118	H	1.417081	0.042694	1.578556
N119	N	1.105817	-1.124452	0.307838
N120	N	1.605817	-0.624452	0.807838
H121	H	1.135668	-1.091212	0.261522
H122	H	1.635668	-0.591212	0.761522
H123	H	1.076020	-1.153805	0.262731
H124	H	1.576020	-0.653805	0.762731
H125	H	0.399795	-0.476758	0.328620
H126	H	0.899795	0.023242	0.828620
H127	H	1.086782	-0.300807	1.059085
H128	H	1.586782	0.199193	1.559085
H129	H	0.273378	-0.308551	0.570404
H130	H	0.773378	0.191449	1.070404
N131	N	1.099120	-0.289471	0.844115
N132	N	1.599120	0.210529	1.344115
H133	H	1.090258	-0.238821	0.860715
H134	H	1.590258	0.261179	1.360715
H135	H	1.091988	-0.296098	0.767123
H136	H	1.591988	0.203902	1.267123
H137	H	0.917044	-0.457359	0.879493
H138	H	1.417044	0.042641	1.379493
N139	N	1.084865	-0.640739	0.339896
N140	N	1.584865	-0.140739	0.839896
H141	H	1.111979	-0.676263	0.297886
H142	H	1.611979	-0.176263	0.797886
H143	H	1.118582	-0.611545	0.378927
H144	H	1.618582	-0.111545	0.878927
N145	N	0.416682	-0.302420	0.579194
N146	N	0.916682	0.197580	1.079194
H147	H	0.405941	-0.251691	0.560613
H148	H	0.905941	0.248309	1.060613
H149	H	0.468443	-0.311371	0.566376
H150	H	0.968443	0.188629	1.066376
N151	N	0.747890	-0.275578	0.617721
N152	N	1.247890	0.224422	1.117721
H153	H	0.799664	-0.284479	0.604926
H154	H	1.299664	0.215521	1.104926
H155	H	0.734638	-0.286078	0.694145
H156	H	1.234638	0.213922	1.194145
H157	H	0.597868	-0.444569	0.374835
H158	H	1.097868	0.055431	0.874835
N159	N	0.740207	-0.462152	0.349509
N160	N	1.240207	0.037848	0.849509
H161	H	0.704658	-0.489211	0.310634
H162	H	1.204658	0.010789	0.810634
H163	H	0.769352	-0.495923	0.392453
H164	H	1.269352	0.004077	0.892453
N165	N	0.256461	-0.482887	0.319839
N166	N	0.756461	0.017113	0.819839
H167	H	0.267198	-0.533619	0.338408
H168	H	0.767198	-0.033619	0.838408
H169	H	0.269662	-0.472364	0.243404
H170	H	0.769662	0.027636	0.743404
N171	N	1.078794	-0.793278	0.349453
N172	N	1.578794	-0.293278	0.849453
H173	H	1.108641	-0.760038	0.303130
H174	H	1.608641	-0.260038	0.803130
H175	H	1.048992	-0.822630	0.304354
H176	H	1.548992	-0.322630	0.804354
H177	H	0.931183	-1.107739	0.578654
H178	H	1.431183	-0.607739	1.078654
N179	N	1.111891	-0.971913	0.298299
N180	N	1.611891	-0.471913	0.798299
H181	H	1.139009	-1.007435	0.256290
H182	H	1.639009	-0.507435	0.756290
H183	H	1.145604	-0.942724	0.337347
H184	H	1.645604	-0.442724	0.837347
H185	H	0.936480	-0.974605	0.570310
H186	H	1.436480	-0.474605	1.070310
N187	N	0.891893	-0.785782	0.639294
N188	N	1.391893	-0.285782	1.139294
H189	H	0.896638	-0.838113	0.631972
H190	H	1.396638	-0.338113	1.131972
H191	H	0.842226	-0.770989	0.624962
H192	H	1.342226	-0.270989	1.124962
N193	N	0.897972	-0.633243	0.629743
N194	N	1.397972	-0.133243	1.129743
H195	H	0.868119	-0.666482	0.676061
H196	H	1.368119	-0.166482	1.176061
H197	H	0.866680	-0.601539	0.586905
H198	H	1.366680	-0.101539	1.086905
