data_functionalizedCrystal
_audit_creation_method	'MofGen! by Chris Wilmer'
_symmetry_space_group_name_H-M	'P1'
_symmetry_Int_Tables_number	1
_symmetry_cell_setting	triclinic
loop_
_symmetry_equiv_pos_as_xyz
  x,y,z
_cell_length_a	12.594517
_cell_length_b	12.594516
_cell_length_c	17.077396
_cell_angle_alpha	89.976855
_cell_angle_beta	89.979204
_cell_angle_gamma	90.015485
loop_
_atom_site_label
_atom_site_type_symbol
_atom_site_fract_x
_atom_site_fract_y
_atom_site_fract_z
Zn1	Zn	1.627252	-0.423758	-0.443899
Zn2	Zn	1.627147	-0.601759	-0.312645
Zn3	Zn	1.449260	-0.423793	-0.312644
Zn4	Zn	1.449238	-0.601693	-0.443866
O5	O	1.538224	-0.512751	-0.378263
O6	O	1.776184	-0.447383	-0.426502
O7	O	1.603516	-0.578193	-0.202798
O8	O	1.472924	-0.274843	-0.330069
O9	O	1.776107	-0.578160	-0.330071
O10	O	1.603694	-0.274817	-0.426501
O11	O	1.472823	-0.447443	-0.202797
O12	O	1.300312	-0.447379	-0.330036
O13	O	1.472887	-0.578048	-0.553717
O14	O	1.300295	-0.578082	-0.426445
O15	O	1.603673	-0.447320	-0.553742
O16	O	1.603494	-0.750696	-0.330039
O17	O	1.472785	-0.750648	-0.426446
C18	C	1.261684	-0.512728	-0.378237
C19	C	1.143378	-0.512744	-0.378245
C20	C	1.538155	-0.789292	-0.378256
C21	C	1.538222	-0.907597	-0.378279
C22	C	1.003339	-0.441576	-0.325928
C23	C	1.074196	-0.415648	-0.397557
C24	C	1.074093	-0.538624	-0.306623
C25	C	1.003449	-0.486807	-0.449969
C26	C	1.003340	-0.609828	-0.358987
C27	C	1.074165	-0.583937	-0.430665
C28	C	1.467123	-0.976863	-0.430678
C29	C	1.441192	-1.047723	-0.359050
C30	C	1.564250	-1.047536	-0.449919
C31	C	1.512240	-0.976899	-0.306613
C32	C	1.635344	-0.976706	-0.397531
C33	C	1.609450	-1.047534	-0.325853
C34	C	1.815845	-0.512775	-0.378290
C35	C	1.934151	-0.512785	-0.378302
C36	C	1.538289	-0.512672	-0.583008
C37	C	1.538316	-0.512639	-0.670258
C38	C	1.538324	-0.235130	-0.378288
C39	C	1.538366	-0.116825	-0.378299
C40	C	1.606419	-0.444563	-0.711262
C41	C	1.606432	-0.444528	-0.793242
C42	C	1.538347	-0.512574	-0.834217
C43	C	1.470236	-0.580653	-0.793207
C44	C	1.470219	-0.580682	-0.711228
C45	C	1.470279	-0.580589	-0.964077
C46	C	1.470298	-0.580562	-1.046062
C47	C	1.606492	-0.444435	-1.046091
C48	C	1.606475	-0.444464	-0.964112
C49	C	1.538366	-0.512544	-0.923108
C50	C	1.538222	-0.512752	-0.174316
C51	C	1.538400	-0.512486	-0.087066
H52	H	0.972245	-0.381330	-0.281716
H53	H	1.661947	-0.388999	-1.079481
H54	H	1.359125	-1.078940	-0.342783
H55	H	1.661922	-0.389060	-0.930753
H56	H	1.105300	-0.333560	-0.413884
H57	H	0.972546	-0.464839	-0.510581
H58	H	0.972195	-0.691889	-0.342648
H59	H	1.661891	-0.389096	-0.826624
H60	H	1.105128	-0.560495	-0.246029
H61	H	1.414854	-0.635969	-1.079422
H62	H	1.406889	-0.945831	-0.474925
H63	H	1.414801	-0.636011	-0.930694
H64	H	1.490188	-0.945999	-0.246019
H65	H	1.661866	-0.389155	-0.677906
H66	H	1.414796	-0.636054	-0.826576
H67	H	1.414752	-0.636106	-0.677844
H68	H	1.586207	-1.078565	-0.510497
H69	H	1.105064	-0.644138	-0.474983
H70	H	1.717392	-0.945492	-0.413832
H71	H	1.669638	-1.078369	-0.281498
