data_functionalizedCrystal
_audit_creation_method	'MofGen! by Chris Wilmer'
_symmetry_space_group_name_H-M	'P1'
_symmetry_Int_Tables_number	1
_symmetry_cell_setting	triclinic
loop_
_symmetry_equiv_pos_as_xyz
  x,y,z
_cell_length_a	16.625548
_cell_length_b	19.120786
_cell_length_c	16.625539
_cell_angle_alpha	87.528626
_cell_angle_beta	89.979432
_cell_angle_gamma	92.466188
loop_
_atom_site_label
_atom_site_type_symbol
_atom_site_fract_x
_atom_site_fract_y
_atom_site_fract_z
Zn1	Zn	1.218970	-0.279609	-0.442197
Zn2	Zn	1.468970	-0.029609	-0.192197
Zn3	Zn	1.718970	0.220391	0.057803
Zn4	Zn	1.968970	0.470391	0.307803
Zn5	Zn	1.213114	-0.397074	-0.301603
Zn6	Zn	1.463114	-0.147074	-0.051603
Zn7	Zn	1.713114	0.102926	0.198397
Zn8	Zn	1.963114	0.352926	0.448397
Zn9	Zn	1.084131	-0.279636	-0.307376
Zn10	Zn	1.334131	-0.029636	-0.057376
Zn11	Zn	1.584131	0.220364	0.192624
Zn12	Zn	1.834131	0.470364	0.442624
Zn13	Zn	1.078345	-0.397034	-0.436395
Zn14	Zn	1.328345	-0.147034	-0.186395
Zn15	Zn	1.578345	0.102966	0.063605
Zn16	Zn	1.828345	0.352966	0.313605
O17	O	1.148640	-0.338338	-0.371893
O18	O	1.398640	-0.088338	-0.121893
O19	O	1.648640	0.161662	0.128107
O20	O	1.898640	0.411662	0.378107
O21	O	1.331025	-0.295197	-0.423559
O22	O	1.581025	-0.045197	-0.173559
O23	O	1.831025	0.204803	0.076441
O24	O	2.081025	0.454803	0.326441
O25	O	1.195974	-0.381524	-0.189535
O26	O	1.445974	-0.131524	0.060465
O27	O	1.695974	0.118476	0.310465
O28	O	1.945974	0.368476	0.560465
O29	O	1.106890	-0.181342	-0.330104
O30	O	1.356890	0.068658	-0.080104
O31	O	1.606890	0.318658	0.169896
O32	O	1.856890	0.568658	0.419896
O33	O	1.326723	-0.381498	-0.320265
O34	O	1.576723	-0.131498	-0.070265
O35	O	1.826723	0.118502	0.179735
O36	O	2.076723	0.368502	0.429735
O37	O	1.205956	-0.181323	-0.429156
O38	O	1.455956	0.068677	-0.179156
O39	O	1.705956	0.318677	0.070844
O40	O	1.955956	0.568677	0.320844
O41	O	1.101211	-0.295243	-0.193776
O42	O	1.351211	-0.045243	0.056224
O43	O	1.601211	0.204757	0.306224
O44	O	1.851211	0.454757	0.556224
O45	O	0.970531	-0.295204	-0.324478
O46	O	1.220531	-0.045204	-0.074478
O47	O	1.470531	0.204796	0.175522
O48	O	1.720531	0.454796	0.425522
O49	O	1.097028	-0.381429	-0.549998
O50	O	1.347028	-0.131429	-0.299998
O51	O	1.597028	0.118571	-0.049998
O52	O	1.847028	0.368571	0.200002
O53	O	0.966280	-0.381455	-0.419268
O54	O	1.216280	-0.131455	-0.169268
O55	O	1.466280	0.118545	0.080732
O56	O	1.716280	0.368545	0.330732
O57	O	1.200345	-0.295158	-0.554261
O58	O	1.450345	-0.045158	-0.304261
O59	O	1.700345	0.204842	-0.054261
O60	O	1.950345	0.454842	0.195739
O61	O	1.190364	-0.495359	-0.314640
O62	O	1.440364	-0.245359	-0.064640
O63	O	1.690364	0.004641	0.185360
O64	O	1.940364	0.254641	0.435360
O65	O	1.091350	-0.495329	-0.413671
O66	O	1.341350	-0.245329	-0.163671
O67	O	1.591350	0.004671	0.086329
O68	O	1.841350	0.254671	0.336329
C69	C	0.939149	-0.338328	-0.371871
C70	C	1.189149	-0.088328	-0.121871
C71	C	1.439149	0.161672	0.128129
C72	C	1.689149	0.411672	0.378129
C73	C	0.849528	-0.338341	-0.371879
C74	C	1.099528	-0.088341	-0.121879
C75	C	1.349528	0.161659	0.128121
C76	C	1.599528	0.411659	0.378121
C77	C	1.139615	-0.520830	-0.362917
C78	C	1.389615	-0.270830	-0.112917
C79	C	1.639615	-0.020830	0.137083
C80	C	1.889615	0.229170	0.387083
C81	C	1.135828	-0.598901	-0.359104
C82	C	1.385828	-0.348901	-0.109104
C83	C	1.635828	-0.098901	0.140896
C84	C	1.885828	0.151099	0.390896
C85	C	0.521352	-0.338345	-0.371914
C86	C	0.771352	-0.088345	-0.121914
C87	C	1.021352	0.161655	0.128086
C88	C	1.271352	0.411655	0.378086
C89	C	0.612660	-0.338342	-0.371902
C90	C	0.862660	-0.088342	-0.121902
C91	C	1.112660	0.161658	0.128098
C92	C	1.362660	0.411658	0.378098
C93	C	0.685437	-0.338344	-0.371896
C94	C	0.935437	-0.088344	-0.121896
C95	C	1.185437	0.161656	0.128104
C96	C	1.435437	0.411656	0.378104
C97	C	0.776751	-0.338340	-0.371885
C98	C	1.026751	-0.088340	-0.121885
C99	C	1.276751	0.161660	0.128115
C100	C	1.526751	0.411660	0.378115
C101	C	1.185589	-0.635508	-0.408925
C102	C	1.435589	-0.385508	-0.158925
C103	C	1.685589	-0.135508	0.091075
C104	C	1.935589	0.114492	0.341075
C105	C	1.182027	-0.708863	-0.405344
C106	C	1.432027	-0.458863	-0.155344
C107	C	1.682027	-0.208863	0.094656
C108	C	1.932027	0.041137	0.344656
C109	C	1.128709	-0.745611	-0.351936
C110	C	1.378709	-0.495611	-0.101936
C111	C	1.628709	-0.245611	0.148064
C112	C	1.878709	0.004389	0.398064
C113	C	1.078942	-0.708998	-0.302113
C114	C	1.328942	-0.458998	-0.052113
C115	C	1.578942	-0.208998	0.197887
C116	C	1.828942	0.041002	0.447887
C117	C	1.082500	-0.635644	-0.305699
C118	C	1.332500	-0.385644	-0.055699
C119	C	1.582500	-0.135644	0.194301
C120	C	1.832500	0.114356	0.444301
C121	C	1.115383	-0.967097	-0.338531
C122	C	1.365383	-0.717097	-0.088531
C123	C	1.615383	-0.467097	0.161469
C124	C	1.865383	-0.217097	0.411469
C125	C	1.111831	-1.040456	-0.334947
C126	C	1.361831	-0.790456	-0.084947
C127	C	1.611831	-0.540456	0.165053
C128	C	1.861831	-0.290456	0.415053
C129	C	1.214915	-1.040316	-0.438180
C130	C	1.464915	-0.790316	-0.188180
C131	C	1.714915	-0.540316	0.061820
C132	C	1.964915	-0.290316	0.311820
C133	C	1.218472	-0.966960	-0.441758
C134	C	1.468472	-0.716960	-0.191758
C135	C	1.718472	-0.466960	0.058242
C136	C	1.968472	-0.216960	0.308242
C137	C	1.168703	-0.930355	-0.391937
C138	C	1.418703	-0.680355	-0.141937
C139	C	1.668703	-0.430355	0.108063
C140	C	1.918703	-0.180355	0.358063
C141	C	1.125069	-0.820592	-0.348273
C142	C	1.375069	-0.570592	-0.098273
C143	C	1.625069	-0.320592	0.151727
C144	C	1.875069	-0.070592	0.401727
C145	C	1.172339	-0.855375	-0.395605
C146	C	1.422339	-0.605375	-0.145605
C147	C	1.672339	-0.355375	0.104395
C148	C	1.922339	-0.105375	0.354395
C149	C	1.358948	-0.338349	-0.371915
C150	C	1.608948	-0.088349	-0.121915
C151	C	1.858948	0.161651	0.128085
C152	C	2.108948	0.411651	0.378085
C153	C	1.448569	-0.338353	-0.371925
C154	C	1.698569	-0.088353	-0.121925
C155	C	1.948569	0.161647	0.128075
C156	C	2.198569	0.411647	0.378075
C157	C	1.148695	-0.338286	-0.582204
C158	C	1.398695	-0.088286	-0.332204
C159	C	1.648695	0.161714	-0.082204
C160	C	1.898695	0.411714	0.167796
C161	C	1.148718	-0.338264	-0.671826
C162	C	1.398718	-0.088264	-0.421826
C163	C	1.648718	0.161736	-0.171826
C164	C	1.898718	0.411736	0.078174
C165	C	1.157722	-0.155134	-0.380921
C166	C	1.407722	0.094866	-0.130921
C167	C	1.657722	0.344866	0.119079
C168	C	1.907722	0.594866	0.369079
C169	C	1.161592	-0.077063	-0.384769
C170	C	1.411592	0.172937	-0.134769
C171	C	1.661592	0.422937	0.115231
C172	C	1.911592	0.672937	0.365231
C173	C	1.148759	-0.338185	-1.000006
C174	C	1.398759	-0.088185	-0.750006
C175	C	1.648759	0.161815	-0.500006
C176	C	1.898759	0.411815	-0.250006
C177	C	1.148745	-0.338209	-0.908696
C178	C	1.398745	-0.088209	-0.658696
C179	C	1.648745	0.161791	-0.408696
C180	C	1.898745	0.411791	-0.158696
C181	C	1.148739	-0.338225	-0.835919
C182	C	1.398739	-0.088225	-0.585919
C183	C	1.648739	0.161775	-0.335919
C184	C	1.898739	0.411775	-0.085919
C185	C	1.148724	-0.338248	-0.744604
C186	C	1.398724	-0.088248	-0.494604
C187	C	1.648724	0.161752	-0.244604
C188	C	1.898724	0.411752	0.005396
C189	C	1.148634	-0.338340	-0.162402
C190	C	1.398634	-0.088340	0.087598
C191	C	1.648634	0.161660	0.337598
C192	C	1.898634	0.411660	0.587598
C193	C	1.148776	-0.338164	-0.072790
C194	C	1.398776	-0.088164	0.177210
C195	C	1.648776	0.161836	0.427210
C196	C	1.898776	0.411836	0.677210
H197	H	1.229010	-0.605593	-0.452412
H198	H	1.479010	-0.355593	-0.202412
H199	H	1.729010	-0.105593	0.047588
H200	H	1.979010	0.144407	0.297588
H201	H	1.222554	-0.738666	-0.445908
H202	H	1.472554	-0.488666	-0.195908
H203	H	1.722554	-0.238666	0.054092
H204	H	1.972554	0.011334	0.304092
H205	H	1.041979	-0.605839	-0.265130
H206	H	1.291979	-0.355839	-0.015130
H207	H	1.541979	-0.105839	0.234870
H208	H	1.791979	0.144161	0.484870
Cl209	Cl	1.277475	-1.086339	-0.500811
Cl210	Cl	1.527475	-0.836339	-0.250811
Cl211	Cl	1.777475	-0.586339	-0.000811
Cl212	Cl	2.027475	-0.336339	0.249189
Cl213	Cl	1.052809	-0.921088	-0.275906
Cl214	Cl	1.302809	-0.671088	-0.025906
Cl215	Cl	1.552809	-0.421088	0.224094
Cl216	Cl	1.802809	-0.171088	0.474094
Cl217	Cl	1.285503	-0.920769	-0.508903
Cl218	Cl	1.535503	-0.670769	-0.258903
Cl219	Cl	1.785503	-0.420769	-0.008903
Cl220	Cl	2.035503	-0.170769	0.241097
H221	H	1.215749	-0.825453	-0.439093
H222	H	1.465749	-0.575453	-0.189093
H223	H	1.715749	-0.325453	0.060907
H224	H	1.965749	-0.075453	0.310907
H225	H	1.068408	-1.070374	-0.291455
H226	H	1.318408	-0.820374	-0.041455
H227	H	1.568408	-0.570374	0.208545
H228	H	1.818408	-0.320374	0.458545
H229	H	1.035526	-0.738924	-0.258630
H230	H	1.285526	-0.488924	-0.008630
H231	H	1.535526	-0.238924	0.241370
H232	H	1.785526	0.011076	0.491370
Cl233	Cl	1.058037	-0.866794	-0.281138
Cl234	Cl	1.308037	-0.616794	-0.031138
Cl235	Cl	1.558037	-0.366794	0.218862
Cl236	Cl	1.808037	-0.116794	0.468862
