data_functionalizedCrystal
_audit_creation_method	'MofGen! by Chris Wilmer'
_symmetry_space_group_name_H-M	'P1'
_symmetry_Int_Tables_number	1
_symmetry_cell_setting	triclinic
loop_
_symmetry_equiv_pos_as_xyz
  x,y,z
_cell_length_a	14.519731
_cell_length_b	14.048226
_cell_length_c	14.971486
_cell_angle_alpha	90.007287
_cell_angle_beta	83.651491
_cell_angle_gamma	90.002441
loop_
_atom_site_label
_atom_site_type_symbol
_atom_site_fract_x
_atom_site_fract_y
_atom_site_fract_z
O1	O	-1.223781	-0.079186	-0.117345
O2	O	-0.723781	0.420814	0.382655
O3	O	-0.955298	-0.079182	-0.131133
O4	O	-0.455298	0.420818	0.368867
O5	O	-1.096735	-0.079177	0.005957
O6	O	-0.596735	0.420823	0.505957
O7	O	-1.082343	-0.079191	-0.254434
O8	O	-0.582343	0.420809	0.245566
O9	O	-1.096732	0.079144	0.005968
O10	O	-0.596732	0.579144	0.505968
O11	O	-0.955295	0.079139	-0.131122
O12	O	-0.455295	0.579139	0.368878
O13	O	-1.223778	0.079136	-0.117334
O14	O	-0.723778	0.579136	0.382666
Zn15	Zn	-1.089536	0.104274	-0.124226
Zn16	Zn	-0.589536	0.604274	0.375774
Zn17	Zn	-1.089540	-0.104321	-0.124241
Zn18	Zn	-0.589540	0.395679	0.375759
O19	O	-1.082340	0.079131	-0.254423
O20	O	-0.582340	0.579131	0.245577
C21	C	-0.920938	-0.000021	-0.130481
C22	C	-0.420938	0.499979	0.369519
C23	C	-0.818559	-0.000020	-0.128545
C24	C	-0.318559	0.499980	0.371455
N25	N	-1.089543	-0.246681	-0.124244
N26	N	-0.589543	0.253319	0.375756
C27	C	-1.096090	-0.000017	0.039287
C28	C	-0.596090	0.499983	0.539287
C29	C	-1.094162	-0.000018	0.138586
C30	C	-0.594162	0.499982	0.638586
C31	C	-0.735415	-0.000022	-0.126972
C32	C	-0.235415	0.499978	0.373028
C33	C	-0.631108	-0.000020	-0.125007
C34	C	-0.131108	0.499980	0.374993
C35	C	-0.547970	-0.000018	-0.123447
C36	C	-0.047970	0.499982	0.376553
C37	C	-0.443655	-0.000019	-0.121481
C38	C	0.056345	0.499981	0.378519
C39	C	-0.258138	-0.000023	-0.117985
C40	C	0.241862	0.499977	0.382015
C41	C	-0.360517	-0.000017	-0.119921
C42	C	0.139483	0.499983	0.380079
C43	C	-1.152288	-0.296497	-0.063661
C44	C	-0.652288	0.203503	0.436339
C45	C	-1.152292	-0.396155	-0.063658
C46	C	-0.652292	0.103845	0.436342
C47	C	-1.089546	-0.445995	-0.124235
C48	C	-0.589546	0.054005	0.375765
C49	C	-1.026797	-0.396172	-0.184825
C50	C	-0.526797	0.103828	0.315175
C51	C	-1.026799	-0.296516	-0.184831
C52	C	-0.526799	0.203484	0.315169
C53	C	-1.026797	-0.603886	-0.184806
C54	C	-0.526797	-0.103886	0.315194
C55	C	-1.026795	-0.703549	-0.184799
C56	C	-0.526795	-0.203549	0.315201
C57	C	-1.152291	-0.703525	-0.063632
C58	C	-0.652291	-0.203525	0.436368
C59	C	-1.152292	-0.603869	-0.063639
C60	C	-0.652292	-0.103869	0.436361
C61	C	-1.089543	-0.554053	-0.124228
C62	C	-0.589543	-0.054053	0.375772
N63	N	-1.089540	0.246635	-0.124215
N64	N	-0.589540	0.746635	0.375785
C65	C	-1.082985	-0.000032	-0.287754
C66	C	-0.582985	0.499968	0.212246
C67	C	-1.084914	-0.000037	-0.387052
C68	C	-0.584914	0.499963	0.112948
C69	C	-1.177252	-0.000018	0.195758
C70	C	-0.677252	0.499982	0.695758
C71	C	-1.175434	-0.000028	0.289059
C72	C	-0.675434	0.499972	0.789059
C73	C	-1.090525	-0.000030	0.325185
C74	C	-0.590525	0.499970	0.825185
C75	C	-1.007428	-0.000032	0.268005
C76	C	-0.507428	0.499968	0.768005
C77	C	-1.009247	-0.000030	0.174706
C78	C	-0.509247	0.499970	0.674706
C79	C	-1.003643	-0.000036	0.462470
C80	C	-0.503643	0.499964	0.962470
C81	C	-1.001824	-0.000037	0.555775
C82	C	-0.501824	0.499963	1.055775
C83	C	-1.169830	-0.000034	0.576822
C84	C	-0.669830	0.499966	1.076822
C85	C	-1.171649	-0.000031	0.483524
C86	C	-0.671649	0.499969	0.983524
C87	C	-1.088552	-0.000032	0.426350
C88	C	-0.588552	0.499968	0.926350
H89	H	-1.203380	-0.255924	-0.014328
H90	H	-0.703380	0.244076	0.485672
H91	H	-1.246395	-0.000010	0.166352
H92	H	-0.746395	0.499990	0.666352
F93	F	-0.920810	-0.000032	0.113859
F94	F	-0.420810	0.499968	0.613859
F95	F	-0.917061	-0.000046	0.306456
F96	F	-0.417061	0.499954	0.806456
F97	F	-1.262019	-0.000031	0.445077
F98	F	-0.762019	0.499969	0.945077
F99	F	-1.258270	-0.000037	0.637671
F100	F	-0.758270	0.499963	1.137671
F101	F	-0.960012	-0.756586	-0.249275
F102	F	-0.460012	-0.256586	0.250725
H103	H	-1.203385	-0.436715	-0.014327
H104	H	-0.703385	0.063285	0.485673
F105	F	-0.911454	-0.000038	0.594222
F106	F	-0.411454	0.499962	1.094222
F107	F	-1.219068	-0.550825	0.000838
F108	F	-0.719068	-0.050825	0.500838
H109	H	-1.243095	-0.000026	0.335605
H110	H	-0.743095	0.499974	0.835605
F111	F	-1.219072	-0.756547	0.000851
F112	F	-0.719072	-0.256547	0.500851
F113	F	-0.960014	-0.550873	-0.249296
F114	F	-0.460014	-0.050873	0.250704
H115	H	-0.975711	-0.436758	-0.234153
H116	H	-0.475711	0.063242	0.265847
H117	H	-0.935976	-0.000039	0.415921
H118	H	-0.435976	0.499961	0.915921
F119	F	-0.960019	-0.243500	-0.249316
F120	F	-0.460019	0.256500	0.250684
