data_functionalizedCrystal
_audit_creation_method	'MofGen! by Chris Wilmer'
_symmetry_space_group_name_H-M	'P1'
_symmetry_Int_Tables_number	1
_symmetry_cell_setting	triclinic
loop_
_symmetry_equiv_pos_as_xyz
  x,y,z
_cell_length_a	14.044220
_cell_length_b	13.101039
_cell_length_c	16.109304
_cell_angle_alpha	86.635836
_cell_angle_beta	88.325758
_cell_angle_gamma	93.659868
loop_
_atom_site_label
_atom_site_type_symbol
_atom_site_fract_x
_atom_site_fract_y
_atom_site_fract_z
O1	O	1.262855	0.085094	0.196241
O2	O	1.596189	0.418427	0.529574
O3	O	1.929522	0.751760	0.862907
O4	O	0.986890	0.085120	0.189007
O5	O	1.320223	0.418453	0.522340
O6	O	1.653557	0.751787	0.855673
O7	O	1.132452	0.085107	0.072157
O8	O	1.465786	0.418440	0.405490
O9	O	1.799119	0.751773	0.738823
O10	O	1.117293	0.085107	0.313091
O11	O	1.450626	0.418440	0.646424
O12	O	1.783960	0.751774	0.979757
O13	O	1.122008	-0.085322	0.080556
O14	O	1.455342	0.248011	0.413889
O15	O	1.788675	0.581344	0.747222
O16	O	0.976446	-0.085309	0.197406
O17	O	1.309779	0.248024	0.530739
O18	O	1.643113	0.581358	0.864072
O19	O	1.252411	-0.085335	0.204640
O20	O	1.585745	0.247998	0.537973
O21	O	1.919078	0.581331	0.871306
Zn22	Zn	1.112770	-0.112381	0.202356
Zn23	Zn	1.446104	0.220952	0.535690
Zn24	Zn	1.779437	0.554285	0.869023
Zn25	Zn	1.126531	0.112166	0.191290
Zn26	Zn	1.459864	0.445499	0.524624
Zn27	Zn	1.793197	0.778833	0.857957
O28	O	1.106849	-0.085322	0.321490
O29	O	1.440182	0.248011	0.654823
O30	O	1.773516	0.581345	0.988156
C31	C	0.946355	-0.000091	0.190040
C32	C	1.279688	0.333242	0.523373
C33	C	1.613021	0.666576	0.856707
C34	C	0.841132	-0.000081	0.180596
C35	C	1.174466	0.333253	0.513929
C36	C	1.507799	0.666586	0.847262
N37	N	1.103386	-0.265629	0.209908
N38	N	1.436720	0.067704	0.543242
N39	N	1.770053	0.401038	0.876575
C40	C	0.648475	-0.000101	0.163331
C41	C	0.981808	0.333232	0.496665
C42	C	1.315141	0.666566	0.829998
C43	C	0.590821	-0.000105	0.230311
C44	C	0.924155	0.333228	0.563644
C45	C	1.257488	0.666561	0.896978
C46	C	0.483620	-0.000117	0.220705
C47	C	0.816953	0.333217	0.554038
C48	C	1.150287	0.666550	0.887371
C49	C	0.755686	-0.000090	0.172936
C50	C	1.089019	0.333244	0.506269
C51	C	1.422353	0.666577	0.839603
C52	C	1.090619	-0.474671	0.220191
C53	C	1.423952	-0.141337	0.553525
C54	C	1.757285	0.191996	0.886858
C55	C	1.148687	-0.525552	0.173452
C56	C	1.482020	-0.192218	0.506785
C57	C	1.815354	0.141115	0.840118
C58	C	1.141583	-0.641869	0.179173
C59	C	1.474916	-0.308536	0.512506
C60	C	1.808250	0.024797	0.845840
C61	C	1.097722	-0.358342	0.214471
C62	C	1.431055	-0.025009	0.547804
C63	C	1.764388	0.308324	0.881137
C64	C	1.292947	-0.000122	0.203606
C65	C	1.626280	0.333211	0.536940
C66	C	1.959613	0.666545	0.870273
C67	C	1.398170	-0.000126	0.213050
C68	C	1.731503	0.333208	0.546384
C69	C	2.064836	0.666541	0.879717
C70	C	1.126616	-0.000106	0.045336
C71	C	1.459949	0.333228	0.378669
C72	C	1.793283	0.666561	0.712002
C73	C	1.124774	-0.000098	-0.047097
C74	C	1.458107	0.333235	0.286236
C75	C	1.791441	0.666568	0.619570
N76	N	1.135922	0.265414	0.183732
N77	N	1.469256	0.598747	0.517065
N78	N	1.802589	0.932080	0.850399
C79	C	1.126210	0.092799	-0.264329
C80	C	1.459544	0.426132	0.069004
C81	C	1.792877	0.759466	0.402338
C82	C	1.124470	0.092798	-0.351179
C83	C	1.457804	0.426132	-0.017845
C84	C	1.791137	0.759465	0.315488
C85	C	1.113088	-0.093013	-0.342018
C86	C	1.446422	0.240321	-0.008685
C87	C	1.779755	0.573654	0.324648
C88	C	1.114822	-0.093011	-0.255170
C89	C	1.448155	0.240323	0.078163
C90	C	1.781488	0.573656	0.411497
C91	C	1.121387	-0.000102	-0.216328
C92	C	1.454721	0.333231	0.117005
C93	C	1.788054	0.666565	0.450339
C94	C	1.117914	-0.000105	-0.390026
C95	C	1.451248	0.333229	-0.056693
C96	C	1.784581	0.666562	0.276641
C97	C	1.116028	-0.000106	-0.484192
C98	C	1.449361	0.333227	-0.150859
C99	C	1.782695	0.666561	0.182475
C100	C	1.123272	-0.000100	-0.122156
C101	C	1.456606	0.333233	0.211177
C102	C	1.789939	0.666567	0.544511
C103	C	1.112685	-0.000108	0.348311
C104	C	1.446019	0.333226	0.681644
C105	C	1.779352	0.666559	1.014977
C106	C	1.114528	-0.000108	0.440743
C107	C	1.447861	0.333225	0.774076
C108	C	1.781195	0.666559	1.107410
H109	H	0.621974	-0.000100	0.294868
H110	H	0.955307	0.333233	0.628202
H111	H	1.288640	0.666566	0.961535
H112	H	1.128395	0.168448	-0.390258
H113	H	1.461729	0.501781	-0.056924
H114	H	1.795062	0.835114	0.276409
H115	H	0.617324	-0.000107	0.098779
H116	H	0.950658	0.333227	0.432113
H117	H	1.283991	0.666560	0.765446
H118	H	1.035574	-0.518463	0.264501
H119	H	1.368907	-0.185129	0.597834
H120	H	1.702241	0.148204	0.931168
F121	F	1.133194	0.191681	-0.222993
F122	F	1.466528	0.525014	0.110340
F123	F	1.799861	0.858347	0.443673
F124	F	1.106101	-0.191887	-0.383364
F125	F	1.439434	0.141446	-0.050031
F126	F	1.772767	0.474779	0.283302
H127	H	1.110889	-0.168667	-0.216086
H128	H	1.444222	0.164667	0.117248
H129	H	1.777555	0.498000	0.450581
H130	H	1.203736	-0.481754	0.129140
H131	H	1.537070	-0.148421	0.462474
H132	H	1.870403	0.184912	0.795807
