data_functionalizedCrystal
_audit_creation_method	'MofGen! by Chris Wilmer'
_symmetry_space_group_name_H-M	'P1'
_symmetry_Int_Tables_number	1
_symmetry_cell_setting	triclinic
loop_
_symmetry_equiv_pos_as_xyz
  x,y,z
_cell_length_a	13.339070
_cell_length_b	26.809956
_cell_length_c	13.262415
_cell_angle_alpha	74.088594
_cell_angle_beta	99.429914
_cell_angle_gamma	89.987341
loop_
_atom_site_label
_atom_site_type_symbol
_atom_site_fract_x
_atom_site_fract_y
_atom_site_fract_z
O1	O	-1.344538	0.112975	-0.526814
O2	O	-1.049716	0.103589	-0.457665
O3	O	-1.204536	0.087846	-0.341611
O4	O	-1.189718	0.128719	-0.642868
O5	O	-1.204506	0.004889	-0.341627
O6	O	-1.049687	0.020632	-0.457681
O7	O	-1.344509	0.030018	-0.526830
Zn8	Zn	-1.197093	0.012154	-0.492258
Zn9	Zn	-1.197132	0.121453	-0.492237
O10	O	-1.189689	0.045762	-0.642884
C11	C	-1.011962	0.060525	-0.445993
C12	C	-0.899512	0.055800	-0.411175
C13	C	-0.535874	0.092534	-0.681896
C14	C	-0.641526	0.096976	-0.714611
C15	C	-0.706028	0.086682	-0.638755
C16	C	-0.664867	0.071946	-0.530178
C17	C	-0.559204	0.067508	-0.497458
C18	C	-0.729358	0.061656	-0.454318
C19	C	-0.688197	0.046920	-0.345740
C20	C	-0.582544	0.042482	-0.313027
C21	C	-0.518043	0.052776	-0.388883
C22	C	-0.835021	0.066094	-0.487037
C23	C	-0.858351	0.041068	-0.302600
C24	C	-0.752698	0.036626	-0.269884
N25	N	-1.197074	-0.062440	-0.492274
C26	C	-1.265677	-0.414040	-0.440864
C27	C	-1.265701	-0.622919	-0.440855
O28	O	-1.323988	-0.655853	-0.397138
N29	N	-1.197137	-0.642075	-0.492216
C30	C	-1.128558	-0.609008	-0.543577
O31	O	-1.070233	-0.630096	-0.587253
C32	C	-1.128530	-0.400131	-0.543579
C33	C	-1.197105	-0.380977	-0.492223
C34	C	-1.334246	-0.394886	-0.389511
C35	C	-1.334243	-0.342668	-0.389519
C36	C	-1.265671	-0.309605	-0.440879
C37	C	-1.197102	-0.328760	-0.492231
C38	C	-1.059946	-0.367066	-0.594933
C39	C	-1.059944	-0.314845	-0.594926
C40	C	-1.128519	-0.295691	-0.543571
C41	C	-1.128527	-0.243480	-0.543599
N42	N	-1.197091	-0.224324	-0.492237
C43	C	-1.265663	-0.257387	-0.440878
C44	C	-1.128579	-0.718672	-0.543574
C45	C	-1.128587	-0.770891	-0.543575
C46	C	-1.265729	-0.784798	-0.440851
C47	C	-1.265725	-0.732577	-0.440857
C48	C	-1.197143	-0.699516	-0.492213
C49	C	-1.265652	-0.147726	-0.440898
C50	C	-1.265646	-0.095503	-0.440914
C51	C	-1.128501	-0.081601	-0.543633
C52	C	-1.128510	-0.133818	-0.543622
C53	C	-1.197090	-0.166881	-0.492247
O54	O	-1.070263	-0.210518	-0.587282
O55	O	-1.323964	-0.236292	-0.397188
C56	C	-1.265680	-0.466257	-0.440856
C57	C	-1.197111	-0.485412	-0.492208
C58	C	-1.128539	-0.452349	-0.543568
C59	C	-1.197119	-0.537631	-0.492209
C60	C	-1.265691	-0.570694	-0.440850
C61	C	-1.334255	-0.551538	-0.389488
C62	C	-1.334252	-0.499320	-0.389496
C63	C	-1.059975	-0.471505	-0.594929
C64	C	-1.059985	-0.523723	-0.594918
C65	C	-1.128556	-0.556786	-0.543558
C66	C	-0.382262	0.073081	-0.538503
C67	C	-0.494713	0.077802	-0.573320
C68	C	-1.203687	0.041030	-0.302274
C69	C	-1.201192	0.025127	-0.185034
N70	N	-1.197159	0.196046	-0.492215
C71	C	-1.190537	0.092578	-0.682222
C72	C	-1.193033	0.108485	-0.799462
C73	C	-1.194225	0.161180	0.145467
C74	C	-1.196578	0.176125	0.035313
C75	C	-1.197731	0.138376	-0.019779
C76	C	-1.196532	0.085681	0.035293
C77	C	-1.194187	0.070734	0.145457
C78	C	-1.197693	0.047931	-0.019789
C79	C	-1.196493	-0.004765	0.035284
C80	C	-1.194148	-0.019708	0.145437
C81	C	-1.192995	0.018040	0.200529
C82	C	-1.200038	0.062877	-0.129953
C83	C	-1.200000	-0.027568	-0.129962
C84	C	-1.197647	-0.042513	-0.019808
H85	H	-1.321492	-0.079910	-0.399096
O86	O	-0.542681	0.028233	-0.207526
C87	C	-0.575598	0.064676	-0.159416
H88	H	-0.649000	0.085781	-0.209389
H89	H	-0.589884	0.043718	-0.076177
H90	H	-0.514529	0.093998	-0.153777
H91	H	-0.675032	0.108978	-0.803015
H92	H	-0.483348	0.100918	-0.743646
O93	O	-0.712828	0.022378	-0.164385
C94	C	-0.745737	0.058822	-0.116272
H95	H	-0.819142	0.079925	-0.166238
H96	H	-0.760013	0.037865	-0.033029
H97	H	-0.684667	0.088144	-0.110643
O98	O	-1.197804	0.227295	-0.018297
C99	C	-1.286706	0.240538	-0.095738
H100	H	-1.347335	0.211729	-0.072087
H101	H	-1.316034	0.281358	-0.101649
H102	H	-1.268636	0.239235	-0.176096
H103	H	-1.193294	0.191909	0.190332
O104	O	-0.921099	0.031146	-0.229003
C105	C	-0.982916	0.075933	-0.242386
H106	H	-0.988619	0.101785	-0.327350
H107	H	-1.062148	0.064096	-0.226368
H108	H	-0.947969	0.098134	-0.184264
H109	H	-1.072729	-0.691756	-0.585396
H110	H	-1.321495	-0.174640	-0.399063
H111	H	-1.193184	-0.062616	0.190272
O112	O	-1.400581	-0.324134	-0.339241
C113	C	-1.345829	-0.304994	-0.258522
H114	H	-1.266881	-0.294531	-0.277527
H115	H	-1.388023	-0.268938	-0.253801
H116	H	-1.338310	-0.336034	-0.178966
H117	H	-1.321564	-0.811727	-0.399034
O118	O	-1.196350	-0.093687	0.033830
C119	C	-1.107362	-0.106887	0.111158
H120	H	-1.077817	-0.070478	0.132204
H121	H	-1.125408	-0.136118	0.185557
H122	H	-1.046905	-0.124740	0.078246
O123	O	-0.415416	0.048367	-0.357046
C124	C	-0.386503	-0.002939	-0.295514
H125	H	-0.447173	-0.030191	-0.316000
H126	H	-0.310784	-0.014941	-0.313358
H127	H	-0.378173	-0.005175	-0.207431
H128	H	-1.390085	-0.421802	-0.347683
O129	O	-1.201353	0.114057	-0.183526
C130	C	-1.290300	0.127267	-0.260909
H131	H	-1.350846	0.098407	-0.237250
H132	H	-1.319725	0.168060	-0.266742
H133	H	-1.272255	0.126015	-0.341306
O134	O	-1.400724	-0.583703	-0.339450
C135	C	-1.346196	-0.624858	-0.258813
H136	H	-1.266317	-0.612527	-0.233735
H137	H	-1.387161	-0.635144	-0.187341
H138	H	-1.341018	-0.660183	-0.290157
O139	O	-0.993232	-0.385586	-0.644828
C140	C	-0.932730	-0.345195	-0.690169
H141	H	-0.931418	-0.313862	-0.646746
H142	H	-0.851908	-0.361314	-0.682591
H143	H	-0.965939	-0.327747	-0.777833
H144	H	-1.321564	-0.716986	-0.399038
O145	O	-1.061882	-0.789414	-0.593482
C146	C	-1.001378	-0.749025	-0.638829
H147	H	-1.000056	-0.717692	-0.595408
H148	H	-0.920559	-0.765147	-0.631256
H149	H	-1.034591	-0.731578	-0.726492
O150	O	-0.993462	-0.282663	-0.644903
C151	C	-1.047969	-0.241520	-0.725589
H152	H	-1.127047	-0.236222	-0.706868
H153	H	-1.005758	-0.204224	-0.729883
H154	H	-1.055178	-0.250844	-0.805259
H155	H	-1.072680	-0.149412	-0.585454
H156	H	-1.072673	-0.054672	-0.585454
H157	H	-1.390092	-0.483730	-0.347678
O158	O	-1.190593	0.003588	0.307554
C159	C	-1.102195	0.021540	0.358000
H160	H	-1.074331	0.055935	0.299065
H161	H	-1.120354	0.034197	0.428620
H162	H	-1.040422	-0.010996	0.387107
O163	O	-1.200937	-0.064225	-0.183486
C164	C	-1.114689	-0.060126	-0.233597
H165	H	-1.052754	-0.040262	-0.190867
H166	H	-1.085290	-0.100573	-0.230283
H167	H	-1.136278	-0.036231	-0.320162
O168	O	-0.993268	-0.542246	-0.644821
C169	C	-0.932765	-0.501858	-0.690170
H170	H	-0.931453	-0.470521	-0.646756
H171	H	-0.851943	-0.517978	-0.682587
H172	H	-0.965973	-0.484415	-0.777835
H173	H	-1.199647	0.150548	-0.109472
O174	O	-0.874876	0.080476	-0.592532
C175	C	-0.841995	0.129973	-0.640618
H176	H	-0.768609	0.137515	-0.590632
H177	H	-0.827694	0.131605	-0.723859
H178	H	-0.903092	0.160821	-0.646247
O179	O	-0.808674	0.090910	-0.670401
C180	C	-0.850348	0.042560	-0.630785
H181	H	-0.796266	0.018371	-0.558091
H182	H	-0.926775	0.049038	-0.607335
H183	H	-0.861705	0.021175	-0.694894
O184	O	-0.993506	-0.439325	-0.644917
C185	C	-1.048023	-0.398186	-0.725604
H186	H	-1.127094	-0.392886	-0.706868
H187	H	-1.005810	-0.360890	-0.729918
H188	H	-1.055248	-0.407516	-0.805268
