data_functionalizedCrystal
_audit_creation_method	'MofGen! by Chris Wilmer'
_symmetry_space_group_name_H-M	'P1'
_symmetry_Int_Tables_number	1
_symmetry_cell_setting	triclinic
loop_
_symmetry_equiv_pos_as_xyz
  x,y,z
_cell_length_a	17.038272
_cell_length_b	16.109301
_cell_length_c	14.586319
_cell_angle_alpha	89.998390
_cell_angle_beta	90.000471
_cell_angle_gamma	92.713481
loop_
_atom_site_label
_atom_site_type_symbol
_atom_site_fract_x
_atom_site_fract_y
_atom_site_fract_z
O1	O	1.037367	-0.180534	0.076131
O2	O	0.809737	-0.177667	0.076158
O3	O	0.929805	-0.058514	0.076134
O4	O	0.917299	-0.299687	0.076154
O5	O	0.929791	-0.058520	-0.076347
O6	O	0.809722	-0.177674	-0.076323
O7	O	1.037353	-0.180540	-0.076350
Cu8	Cu	0.923536	-0.179108	-0.090259
Cu9	Cu	0.923553	-0.179100	0.090067
O10	O	0.917284	-0.299694	-0.076326
C11	C	0.780601	-0.175063	-0.000079
C12	C	0.693808	-0.167284	-0.000069
N13	N	0.923530	-0.179113	-0.217091
C14	C	0.929291	-0.027506	-0.000107
C15	C	0.927773	0.064897	-0.000108
C16	C	0.643694	-0.238705	-0.000064
C17	C	0.562143	-0.231391	-0.000077
C18	C	0.530709	-0.152655	-0.000089
C19	C	0.580830	-0.081229	-0.000097
C20	C	0.662379	-0.088544	-0.000091
C21	C	0.284951	-0.126813	-0.000116
C22	C	0.203396	-0.119503	-0.000120
C23	C	0.184714	-0.269665	-0.000102
C24	C	0.266266	-0.276973	-0.000089
C25	C	0.316380	-0.205547	-0.000102
C26	C	0.447351	-0.145177	-0.000100
C27	C	0.399736	-0.213026	-0.000098
C28	C	1.066488	-0.183145	-0.000111
C29	C	1.153281	-0.190924	-0.000115
C30	C	0.917798	-0.330702	-0.000084
C31	C	0.919317	-0.423105	-0.000076
C32	C	0.995487	0.282360	-0.000101
C33	C	0.994054	0.369183	-0.000093
C34	C	0.851597	0.359425	-0.000080
C35	C	0.853031	0.272605	-0.000081
C36	C	0.924978	0.234075	-0.000096
C37	C	0.922111	0.407718	-0.000088
C38	C	0.920557	0.501854	-0.000079
C39	C	0.926533	0.139932	-0.000103
C40	C	0.970946	-0.232909	-0.452099
C41	C	0.970955	-0.232904	-0.548080
C42	C	0.876147	-0.125287	-0.548087
C43	C	0.876144	-0.125288	-0.452107
C44	C	0.923542	-0.179104	-0.404116
C45	C	0.923554	-0.179097	-0.596076
C46	C	0.923562	-0.179091	-0.700144
C47	C	0.923535	-0.179109	-0.300042
N48	N	0.923566	-0.179089	0.216899
H49	H	0.521342	-0.289549	-0.000072
O50	O	1.017036	-0.285063	-0.405378
C51	C	1.122626	-0.297393	-0.297051
C52	C	1.070469	-0.238236	-0.349885
H53	H	1.165850	-0.259556	-0.252188
H54	H	1.084206	-0.340560	-0.252057
H55	H	1.156472	-0.335865	-0.347855
H56	H	1.036614	-0.199710	-0.299149
H57	H	1.108931	-0.195125	-0.394894
H58	H	1.009557	-0.276716	-0.587144
H59	H	0.793020	0.390807	-0.000070
H60	H	1.051470	0.408493	-0.000095
O61	O	1.065355	0.244894	-0.000268
C62	C	1.149633	0.152501	-0.079236
C63	C	1.070487	0.194889	-0.079177
H64	H	1.153802	0.112048	-0.143017
H65	H	1.199812	0.201895	-0.079294
H66	H	1.153857	0.112132	-0.015394
H67	H	1.066187	0.235253	-0.143008
H68	H	1.020347	0.145452	-0.079071
H69	H	0.837557	-0.081472	-0.587173
O70	O	0.296668	-0.353521	-0.000124
C71	C	0.269530	-0.501689	-0.000056
C72	C	0.234995	-0.415051	-0.000043
H73	H	0.219684	-0.551459	0.000029
H74	H	0.307217	-0.508925	-0.063881
H75	H	0.307267	-0.508820	0.063745
H76	H	0.197223	-0.407861	-0.063801
H77	H	0.197353	-0.407854	0.063824
H78	H	0.795610	0.233289	-0.000075
H79	H	0.555230	-0.017121	-0.000120
O80	O	0.830019	-0.072992	-0.405632
C81	C	0.736020	0.033786	-0.415759
C82	C	0.788198	-0.025409	-0.468506
H83	H	0.702207	0.072285	-0.466570
H84	H	0.692779	-0.003985	-0.370849
H85	H	0.774496	0.076924	-0.370799
H86	H	0.749785	-0.068559	-0.513516
H87	H	0.831444	0.012414	-0.513358
H88	H	0.669280	-0.302820	-0.000054
H89	H	0.143903	-0.327816	-0.000093
H90	H	0.325745	-0.068652	-0.000127
O91	O	0.172820	-0.043034	0.000025
C92	C	0.091542	0.052352	0.078971
C93	C	0.126135	-0.034259	0.078931
H94	H	0.053777	0.059468	0.142750
H95	H	0.141334	0.102185	0.079020
H96	H	0.053862	0.059501	0.015127
H97	H	0.163806	-0.041489	0.142764
H98	H	0.076306	-0.084050	0.078835
H99	H	0.703182	-0.030385	-0.000094
H100	H	0.421749	-0.081070	-0.000136
O101	O	0.430303	-0.289490	0.000079
C102	C	0.511574	-0.384855	0.079075
C103	C	0.476985	-0.298242	0.078993
H104	H	0.549337	-0.391952	0.142860
H105	H	0.461781	-0.434686	0.079142
H106	H	0.549256	-0.392025	0.015237
H107	H	0.439312	-0.290990	0.142820
H108	H	0.526816	-0.248454	0.078879
