data_functionalizedCrystal
_audit_creation_method	'MofGen! by Chris Wilmer'
_symmetry_space_group_name_H-M	'P1'
_symmetry_Int_Tables_number	1
_symmetry_cell_setting	triclinic
loop_
_symmetry_equiv_pos_as_xyz
  x,y,z
_cell_length_a	12.594517
_cell_length_b	25.639240
_cell_length_c	12.594509
_cell_angle_alpha	90.041310
_cell_angle_beta	90.021327
_cell_angle_gamma	90.032557
loop_
_atom_site_label
_atom_site_type_symbol
_atom_site_fract_x
_atom_site_fract_y
_atom_site_fract_z
Zn1	Zn	1.627143	-0.208138	0.601763
Zn2	Zn	1.626982	-0.295580	0.423744
Zn3	Zn	1.449147	-0.208160	0.423792
Zn4	Zn	1.449078	-0.295544	0.601674
O5	O	1.538088	-0.251855	0.512743
O6	O	1.776068	-0.219743	0.578166
O7	O	1.603354	-0.284008	0.274805
O8	O	1.472855	-0.134992	0.447458
O9	O	1.775949	-0.283987	0.447376
O10	O	1.603628	-0.134976	0.578212
O11	O	1.472699	-0.219781	0.274840
O12	O	1.300192	-0.219746	0.447371
O13	O	1.472737	-0.283925	0.750632
O14	O	1.300141	-0.283946	0.578060
O15	O	1.603561	-0.219708	0.750697
O16	O	1.603286	-0.368740	0.447289
O17	O	1.472580	-0.368714	0.578014
C18	C	1.261547	-0.251845	0.512712
C19	C	1.143241	-0.251853	0.512724
C20	C	1.073985	-0.216887	0.441778
C21	C	1.003146	-0.264579	0.415576
C22	C	1.003282	-0.204184	0.538944
C23	C	1.073960	-0.299570	0.486471
C24	C	1.074102	-0.239144	0.609885
C25	C	1.003295	-0.286869	0.583720
C26	C	1.537937	-0.387698	0.512660
C27	C	1.537970	-0.445812	0.512660
C28	C	1.606215	-0.806128	0.580950
C29	C	1.606246	-0.860732	0.580972
O30	O	1.664091	-0.888929	0.638949
N31	N	1.538235	-0.888094	0.512846
C32	C	1.470181	-0.860849	0.444702
O33	O	1.412334	-0.889137	0.386759
C34	C	1.470145	-0.806246	0.444687
C35	C	1.538168	-0.778887	0.512809
C36	C	1.674232	-0.778769	0.649068
C37	C	1.674201	-0.724168	0.649045
C38	C	1.606154	-0.696927	0.580904
C39	C	1.538138	-0.724286	0.512786
C40	C	1.402086	-0.779002	0.376549
C41	C	1.402055	-0.724395	0.376540
C42	C	1.470078	-0.697036	0.444662
C43	C	1.470060	-0.642445	0.444622
N44	N	1.538071	-0.615083	0.512747
C45	C	1.606118	-0.642324	0.580888
C46	C	1.470260	-0.975520	0.444741
C47	C	1.470301	-1.030122	0.444751
C48	C	1.606365	-1.030002	0.581022
C49	C	1.606329	-0.975398	0.581006
C50	C	1.538271	-0.948158	0.512867
C51	C	1.606050	-0.527659	0.580833
C52	C	1.606017	-0.473053	0.580801
C53	C	1.469949	-0.473179	0.444534
C54	C	1.469986	-0.527780	0.444562
C55	C	1.538040	-0.555018	0.512720
O56	O	1.412242	-0.614213	0.386677
O57	O	1.663945	-0.614029	0.638832
C58	C	1.815708	-0.251866	0.512775
C59	C	1.934014	-0.251871	0.512789
C60	C	1.538159	-0.251810	0.790364
C61	C	1.538189	-0.251790	0.908670
C62	C	1.538268	-0.115482	0.512850
C63	C	1.538344	-0.057368	0.512896
C64	C	1.538078	-0.251863	0.236202
C65	C	1.538254	-0.251736	0.117898
C66	C	1.467056	-0.286698	0.977888
C67	C	1.564169	-0.299473	1.048672
C68	C	1.441152	-0.238984	1.048685
C69	C	1.635353	-0.264590	0.977896
C70	C	1.512270	-0.204079	0.977903
C71	C	1.609450	-0.216836	1.048655
H72	H	1.661414	-0.450779	0.636274
C73	C	1.681211	-1.059977	0.655987
N74	N	1.737580	-1.082557	0.712448
C75	C	1.749104	-0.808725	0.724026
N76	N	1.805512	-0.831285	0.780481
H77	H	1.661719	-0.953125	0.636478
H78	H	0.972452	-0.316480	0.643744
C79	C	1.116251	-0.224584	0.720815
N80	N	1.148003	-0.213611	0.804366
C81	C	1.115725	-0.354056	0.456411
N82	N	1.147184	-0.395093	0.433765
H83	H	1.359062	-0.228175	1.079780
H84	H	1.105024	-0.187346	0.381707
H85	H	0.972179	-0.163870	0.561057
H86	H	1.661459	-0.549830	0.636342
C87	C	1.482565	-0.149618	0.935866
N88	N	1.460179	-0.108598	0.904201
H89	H	1.729588	-0.701895	0.704519
C90	C	1.395479	-1.060211	0.369802
N91	N	1.339114	-1.082873	0.313354
C92	C	1.395390	-0.945561	0.369773
N93	N	1.338996	-0.922998	0.313310
C94	C	1.327246	-0.809085	0.301615
N95	N	1.270869	-0.831743	0.245173
C96	C	1.746284	-0.279260	0.936069
N97	N	1.829834	-0.290311	0.904562
H98	H	1.346631	-0.702219	0.321054
H99	H	1.414605	-0.550057	0.389083
H100	H	1.414549	-0.450991	0.389051
H101	H	1.586127	-0.339798	1.079758
C102	C	1.385869	-0.326641	0.935885
N103	N	1.324729	-0.356728	0.904240
H104	H	0.971980	-0.275340	0.333436
C105	C	1.690845	-0.176923	1.090371
N106	N	1.752155	-0.146863	1.121793
