data_functionalizedCrystal
_audit_creation_method	'MofGen! by Chris Wilmer'
_symmetry_space_group_name_H-M	'P1'
_symmetry_Int_Tables_number	1
_symmetry_cell_setting	triclinic
loop_
_symmetry_equiv_pos_as_xyz
  x,y,z
_cell_length_a	11.026607
_cell_length_b	9.130307
_cell_length_c	11.026607
_cell_angle_alpha	89.998272
_cell_angle_beta	71.413983
_cell_angle_gamma	90.001089
loop_
_atom_site_label
_atom_site_type_symbol
_atom_site_fract_x
_atom_site_fract_y
_atom_site_fract_z
O1	O	1.726728	0.121796	-0.533620
O2	O	1.360148	0.121798	-0.472857
O3	O	1.513056	0.121792	-0.319949
O4	O	1.573819	0.121802	-0.686529
O5	O	1.513049	-0.121807	-0.319945
O6	O	1.360141	-0.121801	-0.472854
O7	O	1.726721	-0.121803	-0.533617
Cu8	Cu	1.543430	-0.144045	-0.503235
Cu9	Cu	1.543438	0.144040	-0.503239
O10	O	1.573813	-0.121797	-0.686525
C11	C	1.312485	-0.000001	-0.461645
C12	C	1.170471	-0.000000	-0.428228
N13	N	1.543434	-0.346667	-0.503234
C14	C	1.116821	0.000003	-0.520498
C15	C	0.970043	0.000004	-0.485962
C16	C	1.678915	-0.346663	-0.367899
C17	C	1.746665	-0.423327	-0.300237
C18	C	1.746678	-0.576661	-0.300238
C19	C	1.678930	-0.653333	-0.367906
C20	C	1.611180	-0.576669	-0.435569
C21	C	1.611178	-0.423332	-0.435562
C22	C	1.475693	-0.576673	-0.570894
C23	C	1.475686	-0.423340	-0.570902
C24	C	1.407945	-0.653346	-0.638563
C25	C	1.340201	-0.576681	-0.706234
C26	C	1.340192	-0.423338	-0.706230
C27	C	1.407936	-0.346675	-0.638564
C28	C	1.774384	-0.000001	-0.544828
C29	C	1.916398	0.000008	-0.578245
C30	C	1.501843	-0.000006	-0.272287
C31	C	1.468426	-0.000000	-0.130273
N32	N	1.543443	0.346662	-0.503232
C33	C	1.585026	0.000004	-0.734187
C34	C	1.618443	0.000008	-0.876200
C35	C	1.560695	0.000001	-0.076624
C36	C	1.526160	0.000007	0.070155
H37	H	1.179555	-0.000002	-0.625061
F38	F	1.755125	0.000014	0.041816
H39	H	1.678931	-0.778185	-0.367891
H40	H	0.907314	0.000039	-0.381393
F41	F	0.998382	-0.000006	-0.714928
F42	F	1.088480	-0.000014	-0.291554
H43	H	1.678925	-0.221811	-0.367903
H44	H	1.801822	-0.360887	-0.245139
F45	F	1.697370	0.000009	-0.158615
F46	F	1.268074	-0.341758	-0.778239
F47	F	1.818777	-0.658254	-0.228218
H48	H	1.421590	0.000017	0.132884
F49	F	1.407951	-0.816537	-0.638557
F50	F	1.268098	-0.658287	-0.778235
F51	F	1.407939	-0.183484	-0.638560
F52	F	1.331751	0.000014	-0.048283
