data_functionalizedCrystal
_audit_creation_method	'MofGen! by Chris Wilmer'
_symmetry_space_group_name_H-M	'P1'
_symmetry_Int_Tables_number	1
_symmetry_cell_setting	triclinic
loop_
_symmetry_equiv_pos_as_xyz
  x,y,z
_cell_length_a	6.394989
_cell_length_b	17.699083
_cell_length_c	16.776229
_cell_angle_alpha	90.007545
_cell_angle_beta	90.006554
_cell_angle_gamma	84.890363
loop_
_atom_site_label
_atom_site_type_symbol
_atom_site_fract_x
_atom_site_fract_y
_atom_site_fract_z
O1	O	-2.770873	-0.123990	-0.066282
O2	O	-2.162713	-0.130236	-0.066286
O3	O	-2.483975	-0.017099	-0.066277
O4	O	-2.449611	-0.237127	-0.066291
O5	O	-2.483932	-0.017091	0.066300
O6	O	-2.162670	-0.130228	0.066291
O7	O	-2.770830	-0.123982	0.066294
Zn8	Zn	-2.466744	-0.127104	0.087342
Zn9	Zn	-2.466800	-0.127114	-0.087333
O10	O	-2.449568	-0.237119	0.066285
C11	C	-2.482722	0.011114	0.000012
C12	C	-2.479028	0.095170	0.000012
C13	C	-2.450821	-0.265332	-0.000005
C14	C	-2.454515	-0.349388	-0.000010
N15	N	-2.466721	-0.127097	0.206553
C16	C	-2.084876	-0.128997	0.000007
C17	C	-1.848661	-0.125223	0.000010
N18	N	-2.466839	-0.127115	-0.206545
C19	C	-2.667602	0.141867	0.000014
C20	C	-2.664119	0.220846	0.000007
C21	C	-2.472059	0.253126	0.000003
C22	C	-2.283471	0.206424	-0.000001
C23	C	-2.286956	0.127446	0.000000
C24	C	-2.269410	0.524930	-0.000008
C25	C	-2.265939	0.603914	-0.000007
C26	C	-2.646572	0.618330	-0.000001
C27	C	-2.650058	0.539352	0.000000
C28	C	-2.461471	0.492657	-0.000008
C29	C	-2.465250	0.407019	-0.000002
C30	C	-2.468278	0.338763	0.000003
C31	C	-2.609019	-0.077021	0.248274
C32	C	-2.609030	-0.077021	0.331726
C33	C	-2.466752	-0.127100	0.373456
C34	C	-2.324439	-0.177178	0.331729
C35	C	-2.324419	-0.177174	0.248279
C36	C	-2.324514	-0.177194	0.668276
C37	C	-2.324550	-0.177195	0.751733
C38	C	-2.609126	-0.077040	0.751724
C39	C	-2.609106	-0.077036	0.668274
C40	C	-2.466786	-0.127111	0.626554
C41	C	-2.466773	-0.127110	0.536066
C42	C	-2.466774	-0.127105	0.463943
H43	H	-2.824000	0.115590	0.000022
Br44	Br	-2.031024	0.064071	-0.000009
H45	H	-2.115850	0.486920	-0.000015
Br46	Br	-2.802213	-0.009074	0.611643
Br47	Br	-2.131377	-0.245151	0.611661
H48	H	-2.817675	0.258863	0.000011
Br49	Br	-2.022814	0.250232	-0.000019
Br50	Br	-2.910719	0.495547	0.000005
H51	H	-2.724886	-0.036244	0.214303
H52	H	-2.208543	-0.217950	0.214310
H53	H	-2.724899	-0.036245	0.365695
Br54	Br	-2.902519	0.681707	0.000011
H55	H	-2.725004	-0.036264	0.785701
Br56	Br	-2.131447	-0.245165	0.808366
Br57	Br	-2.131327	-0.245139	0.388359
H58	H	-2.109532	0.630193	-0.000008
