data_functionalizedCrystal
_audit_creation_method	'MofGen! by Chris Wilmer'
_symmetry_space_group_name_H-M	'P1'
_symmetry_Int_Tables_number	1
_symmetry_cell_setting	triclinic
loop_
_symmetry_equiv_pos_as_xyz
  x,y,z
_cell_length_a	23.532407
_cell_length_b	23.532407
_cell_length_c	22.010155
_cell_angle_alpha	89.991245
_cell_angle_beta	89.989184
_cell_angle_gamma	82.848678
loop_
_atom_site_label
_atom_site_type_symbol
_atom_site_fract_x
_atom_site_fract_y
_atom_site_fract_z
O1	O	0.755269	0.069133	-0.050455
O2	O	1.005269	0.319133	0.199545
O3	O	1.255269	0.569133	0.449545
O4	O	1.505269	0.819133	0.699545
O5	O	0.589406	0.079136	-0.050474
O6	O	0.839406	0.329136	0.199526
O7	O	1.089406	0.579136	0.449526
O8	O	1.339406	0.829136	0.699526
O9	O	0.677339	-0.008797	-0.050453
O10	O	0.927339	0.241203	0.199547
O11	O	1.177339	0.491203	0.449547
O12	O	1.427339	0.741203	0.699547
O13	O	0.667336	0.157066	-0.050476
O14	O	0.917336	0.407066	0.199524
O15	O	1.167336	0.657066	0.449524
O16	O	1.417336	0.907066	0.699524
O17	O	0.677312	-0.008796	0.050597
O18	O	0.927312	0.241204	0.300597
O19	O	1.177312	0.491204	0.550597
O20	O	1.427312	0.741204	0.800597
O21	O	0.589379	0.079137	0.050576
O22	O	0.839379	0.329137	0.300576
O23	O	1.089379	0.579137	0.550576
O24	O	1.339379	0.829137	0.800576
O25	O	0.755242	0.069134	0.050595
O26	O	1.005242	0.319134	0.300595
O27	O	1.255242	0.569134	0.550595
O28	O	1.505242	0.819134	0.800595
Cu29	Cu	0.672308	0.074136	0.059812
Cu30	Cu	0.922308	0.324136	0.309812
Cu31	Cu	1.172308	0.574136	0.559812
Cu32	Cu	1.422308	0.824136	0.809812
Cu33	Cu	0.672340	0.074135	-0.059691
Cu34	Cu	0.922340	0.324135	0.190309
Cu35	Cu	1.172340	0.574135	0.440309
Cu36	Cu	1.422340	0.824135	0.690309
O37	O	0.667309	0.157067	0.050574
O38	O	0.917309	0.407067	0.300574
O39	O	1.167309	0.657067	0.550574
O40	O	1.417309	0.907067	0.800574
C41	C	0.568176	0.078882	0.000049
C42	C	0.818176	0.328882	0.250049
C43	C	1.068176	0.578882	0.500049
C44	C	1.318176	0.828882	0.750049
C45	C	0.504959	0.078116	0.000042
C46	C	0.754959	0.328116	0.250042
C47	C	1.004959	0.578116	0.500042
C48	C	1.254959	0.828116	0.750042
C49	C	0.677071	-0.030013	0.000074
C50	C	0.927071	0.219987	0.250074
C51	C	1.177071	0.469987	0.500074
C52	C	1.427071	0.719987	0.750074
C53	C	0.676305	-0.093230	0.000078
C54	C	0.926305	0.156770	0.250078
C55	C	1.176305	0.406770	0.500078
C56	C	1.426305	0.656770	0.750078
C57	C	0.105856	0.125350	0.000063
C58	C	0.355856	0.375350	0.250063
C59	C	0.605856	0.625350	0.500063
C60	C	0.855856	0.875350	0.750063
C61	C	0.046456	0.124638	0.000067
C62	C	0.296456	0.374638	0.250067
C63	C	0.546456	0.624638	0.500067
C64	C	0.796456	0.874638	0.750067
O65	O	0.009711	0.168424	0.000083
O66	O	0.259711	0.418424	0.250083
O67	O	0.509711	0.668424	0.500083
O68	O	0.759711	0.918424	0.750083
N69	N	0.023830	0.072362	0.000073
N70	N	0.273830	0.322362	0.250073
N71	N	0.523830	0.572362	0.500073
N72	N	0.773830	0.822362	0.750073
C73	C	0.060607	0.020794	0.000082
C74	C	0.310607	0.270794	0.250082
C75	C	0.560607	0.520794	0.500082
C76	C	0.810607	0.770794	0.750082
O77	O	0.035908	-0.023737	0.000088
O78	O	0.285908	0.226263	0.250088
O79	O	0.535908	0.476263	0.500088
O80	O	0.785908	0.726263	0.750088
C81	C	0.120006	0.021506	0.000082
C82	C	0.370006	0.271506	0.250082
C83	C	0.620006	0.521506	0.500082
C84	C	0.870006	0.771506	0.750082
C85	C	0.142629	0.073785	0.000070
C86	C	0.392629	0.323785	0.250070
C87	C	0.642629	0.573785	0.500070
C88	C	0.892629	0.823785	0.750070
C89	C	0.128479	0.177625	0.000051
C90	C	0.378479	0.427625	0.250051
C91	C	0.628479	0.677625	0.500051
C92	C	0.878479	0.927625	0.750051
C93	C	0.187876	0.178336	0.000046
C94	C	0.437876	0.428336	0.250046
C95	C	0.687876	0.678336	0.500046
C96	C	0.937876	0.928336	0.750046
C97	C	0.224649	0.126772	0.000053
C98	C	0.474649	0.376772	0.250053
C99	C	0.724649	0.626772	0.500053
C100	C	0.974649	0.876772	0.750053
C101	C	0.202025	0.074497	0.000065
C102	C	0.452025	0.324497	0.250065
C103	C	0.702025	0.574497	0.500065
C104	C	0.952025	0.824497	0.750065
C105	C	0.156783	-0.030062	0.000096
C106	C	0.406783	0.219938	0.250096
C107	C	0.656783	0.469938	0.500096
C108	C	0.906783	0.719938	0.750096
C109	C	0.216185	-0.029345	0.000097
C110	C	0.466185	0.220655	0.250097
C111	C	0.716185	0.470655	0.500097
C112	C	0.966185	0.720655	0.750097
C113	C	0.238808	0.022934	0.000084
C114	C	0.488808	0.272934	0.250084
C115	C	0.738808	0.522934	0.500084
C116	C	0.988808	0.772934	0.750084
C117	C	0.298194	0.023643	0.000067
C118	C	0.548194	0.273643	0.250067
C119	C	0.798194	0.523643	0.500067
C120	C	1.048194	0.773643	0.750067
N121	N	0.320820	0.075920	0.000061
N122	N	0.570820	0.325920	0.250061
N123	N	0.820820	0.575920	0.500061
N124	N	1.070820	0.825920	0.750061
C125	C	0.284048	0.127484	0.000054
C126	C	0.534048	0.377484	0.250054
C127	C	0.784048	0.627484	0.500054
C128	C	1.034048	0.877484	0.750054
C129	C	-0.064135	0.019302	0.000082
C130	C	0.185865	0.269302	0.250082
C131	C	0.435865	0.519302	0.500082
C132	C	0.685865	0.769302	0.750082
C133	C	-0.123533	0.018589	0.000077
C134	C	0.126467	0.268589	0.250077
C135	C	0.376467	0.518589	0.500077
C136	C	0.626467	0.768589	0.750077
C137	C	-0.137680	0.122434	0.000063
C138	C	0.112320	0.372434	0.250063
C139	C	0.362320	0.622434	0.500063
C140	C	0.612320	0.872434	0.750063
C141	C	-0.078281	0.123146	0.000064
C142	C	0.171719	0.373146	0.250064
C143	C	0.421719	0.623146	0.500064
C144	C	0.671719	0.873146	0.750064
C145	C	-0.041509	0.071578	0.000076
C146	C	0.208491	0.321578	0.250076
C147	C	0.458491	0.571578	0.500076
C148	C	0.708491	0.821578	0.750076
C149	C	0.408784	0.128974	0.000043
C150	C	0.658784	0.378974	0.250043
C151	C	0.908784	0.628974	0.500043
C152	C	1.158784	0.878974	0.750043
C153	C	0.468186	0.129680	0.000035
C154	C	0.718186	0.379680	0.250035
C155	C	0.968186	0.629680	0.500035
C156	C	1.218186	0.879680	0.750035
C157	C	0.482329	0.025836	0.000052
C158	C	0.732329	0.275836	0.250052
C159	C	0.982329	0.525836	0.500052
C160	C	1.232329	0.775836	0.750052
C161	C	0.422932	0.025129	0.000057
C162	C	0.672932	0.275129	0.250057
C163	C	0.922932	0.525129	0.500057
C164	C	1.172932	0.775129	0.750057
C165	C	0.386160	0.076702	0.000054
C166	C	0.636160	0.326702	0.250054
C167	C	0.886160	0.576702	0.500054
C168	C	1.136160	0.826702	0.750054
O169	O	0.334974	-0.020119	0.000054
O170	O	0.584974	0.229881	0.250054
O171	O	0.834974	0.479881	0.500054
O172	O	1.084974	0.729881	0.750054
O173	O	0.308755	0.172007	0.000055
O174	O	0.558755	0.422007	0.250055
O175	O	0.808755	0.672007	0.500055
O176	O	1.058755	0.922007	0.750055
C177	C	0.723539	-0.492333	0.000050
C178	C	0.973539	-0.242333	0.250050
C179	C	1.223539	0.007667	0.500050
C180	C	1.473539	0.257667	0.750050
C181	C	0.722827	-0.551733	0.000046
C182	C	0.972827	-0.301733	0.250046
C183	C	1.222827	-0.051733	0.500046
C184	C	1.472827	0.198267	0.750046
O185	O	0.766613	-0.588478	0.000028
O186	O	1.016613	-0.338478	0.250028
O187	O	1.266613	-0.088478	0.500028
O188	O	1.516613	0.161522	0.750028
N189	N	0.670551	-0.574359	0.000040
N190	N	0.920551	-0.324359	0.250040
N191	N	1.170551	-0.074359	0.500040
N192	N	1.420551	0.175641	0.750040
C193	C	0.618983	-0.537582	0.000033
C194	C	0.868983	-0.287582	0.250033
C195	C	1.118983	-0.037582	0.500033
C196	C	1.368983	0.212418	0.750033
O197	O	0.574452	-0.562281	0.000027
O198	O	0.824452	-0.312281	0.250027
O199	O	1.074452	-0.062281	0.500027
O200	O	1.324452	0.187719	0.750027
C201	C	0.619695	-0.478182	0.000033
C202	C	0.869695	-0.228182	0.250033
C203	C	1.119695	0.021818	0.500033
C204	C	1.369695	0.271818	0.750033
C205	C	0.671974	-0.455560	0.000045
C206	C	0.921974	-0.205560	0.250045
C207	C	1.171974	0.044440	0.500045
C208	C	1.421974	0.294440	0.750045
C209	C	0.775814	-0.469710	0.000061
C210	C	1.025814	-0.219710	0.250061
C211	C	1.275814	0.030290	0.500061
C212	C	1.525814	0.280290	0.750061
C213	C	0.776525	-0.410313	0.000067
C214	C	1.026525	-0.160313	0.250067
C215	C	1.276525	0.089687	0.500067
C216	C	1.526525	0.339687	0.750067
C217	C	0.724961	-0.373540	0.000062
C218	C	0.974961	-0.123540	0.250062
C219	C	1.224961	0.126460	0.500062
C220	C	1.474961	0.376460	0.750062
C221	C	0.672685	-0.396164	0.000051
C222	C	0.922685	-0.146164	0.250051
C223	C	1.172685	0.103836	0.500051
C224	C	1.422685	0.353836	0.750051
C225	C	0.568127	-0.441406	0.000022
C226	C	0.818127	-0.191406	0.250022
C227	C	1.068127	0.058594	0.500022
C228	C	1.318127	0.308594	0.750022
C229	C	0.568844	-0.382004	0.000022
C230	C	0.818844	-0.132004	0.250022
C231	C	1.068844	0.117996	0.500022
C232	C	1.318844	0.367996	0.750022
C233	C	0.621123	-0.359381	0.000034
C234	C	0.871123	-0.109381	0.250034
C235	C	1.121123	0.140619	0.500034
C236	C	1.371123	0.390619	0.750034
C237	C	0.621832	-0.299995	0.000052
C238	C	0.871832	-0.049995	0.250052
C239	C	1.121832	0.200005	0.500052
C240	C	1.371832	0.450005	0.750052
N241	N	0.674109	-0.277368	0.000057
N242	N	0.924109	-0.027368	0.250057
N243	N	1.174109	0.222632	0.500057
N244	N	1.424109	0.472632	0.750057
C245	C	0.725673	-0.314141	0.000062
C246	C	0.975673	-0.064141	0.250062
C247	C	1.225673	0.185859	0.500062
C248	C	1.475673	0.435859	0.750062
C249	C	0.617491	-0.662324	0.000031
C250	C	0.867491	-0.412324	0.250031
C251	C	1.117491	-0.162324	0.500031
C252	C	1.367491	0.087676	0.750031
C253	C	0.616778	-0.721722	0.000035
C254	C	0.866778	-0.471722	0.250035
C255	C	1.116778	-0.221722	0.500035
C256	C	1.366778	0.028278	0.750035
C257	C	0.720623	-0.735869	0.000047
C258	C	0.970623	-0.485869	0.250047
C259	C	1.220623	-0.235869	0.500047
C260	C	1.470623	0.014131	0.750047
C261	C	0.721335	-0.676470	0.000047
C262	C	0.971335	-0.426470	0.250047
C263	C	1.221335	-0.176470	0.500047
C264	C	1.471335	0.073530	0.750047
C265	C	0.669767	-0.639698	0.000037
C266	C	0.919767	-0.389698	0.250037
C267	C	1.169767	-0.139698	0.500037
C268	C	1.419767	0.110302	0.750037
C269	C	0.727163	-0.189405	0.000075
C270	C	0.977163	0.060595	0.250075
C271	C	1.227163	0.310595	0.500075
C272	C	1.477163	0.560595	0.750075
C273	C	0.727869	-0.130003	0.000083
C274	C	0.977869	0.119997	0.250083
C275	C	1.227869	0.369997	0.500083
C276	C	1.477869	0.619997	0.750083
C277	C	0.624025	-0.115860	0.000069
C278	C	0.874025	0.134140	0.250069
C279	C	1.124025	0.384140	0.500069
C280	C	1.374025	0.634140	0.750069
C281	C	0.623318	-0.175257	0.000064
C282	C	0.873318	0.074743	0.250064
C283	C	1.123318	0.324743	0.500064
C284	C	1.373318	0.574743	0.750064
C285	C	0.674891	-0.212029	0.000065
C286	C	0.924891	0.037971	0.250065
C287	C	1.174891	0.287971	0.500065
C288	C	1.424891	0.537971	0.750065
O289	O	0.578070	-0.263215	0.000067
O290	O	0.828070	-0.013215	0.250067
O291	O	1.078070	0.236785	0.500067
O292	O	1.328070	0.486785	0.750067
O293	O	0.770196	-0.289433	0.000060
O294	O	1.020196	-0.039433	0.250060
O295	O	1.270196	0.210567	0.500060
O296	O	1.520196	0.460567	0.750060
C297	C	0.776472	0.069388	0.000071
C298	C	1.026472	0.319388	0.250071
C299	C	1.276472	0.569388	0.500071
C300	C	1.526472	0.819388	0.750071
C301	C	0.839689	0.070154	0.000073
C302	C	1.089689	0.320154	0.250073
C303	C	1.339689	0.570154	0.500073
C304	C	1.589689	0.820154	0.750073
C305	C	0.667577	0.178283	0.000046
C306	C	0.917577	0.428283	0.250046
C307	C	1.167577	0.678283	0.500046
C308	C	1.417577	0.928283	0.750046
C309	C	0.668343	0.241500	0.000037
C310	C	0.918343	0.491500	0.250037
C311	C	1.168343	0.741500	0.500037
C312	C	1.418343	0.991500	0.750037
N313	N	0.672289	0.074136	0.143865
N314	N	0.922289	0.324136	0.393865
N315	N	1.172289	0.574136	0.643865
N316	N	1.422289	0.824136	0.893865
C317	C	0.706680	0.108500	0.563643
C318	C	0.956680	0.358500	0.813643
C319	C	1.206680	0.608500	1.063643
C320	C	1.456680	0.858500	1.313643
C321	C	0.706687	0.108499	0.627251
C322	C	0.956687	0.358499	0.877251
C323	C	1.206687	0.608499	1.127251
C324	C	1.456687	0.858499	1.377251
O325	O	0.735909	0.137711	0.660141
O326	O	0.985909	0.387711	0.910141
O327	O	1.235909	0.637711	1.160141
O328	O	1.485909	0.887711	1.410141
N329	N	0.672345	0.074134	0.659072
N330	N	0.922345	0.324134	0.909072
N331	N	1.172345	0.574134	1.159072
N332	N	1.422345	0.824134	1.409072
C333	C	0.638000	0.039763	0.627282
C334	C	0.888000	0.289763	0.877282
C335	C	1.138000	0.539763	1.127282
C336	C	1.388000	0.789763	1.377282
O337	O	0.608791	0.010532	0.660189
O338	O	0.858791	0.260532	0.910189
O339	O	1.108791	0.510532	1.160189
O340	O	1.358791	0.760532	1.410189
C341	C	0.637997	0.039761	0.563676
C342	C	0.887997	0.289761	0.813676
C343	C	1.137997	0.539761	1.063676
C344	C	1.387997	0.789761	1.313676
C345	C	0.672336	0.074133	0.531858
C346	C	0.922336	0.324133	0.781858
C347	C	1.172336	0.574133	1.031858
C348	C	1.422336	0.824133	1.281858
C349	C	0.741017	0.142869	0.531825
C350	C	0.991017	0.392869	0.781825
C351	C	1.241017	0.642869	1.031825
C352	C	1.491017	0.892869	1.281825
C353	C	0.741010	0.142870	0.468222
C354	C	0.991010	0.392870	0.718222
C355	C	1.241010	0.642870	0.968222
C356	C	1.491010	0.892870	1.218222
C357	C	0.706666	0.108503	0.436437
C358	C	0.956666	0.358503	0.686437
C359	C	1.206666	0.608503	0.936437
C360	C	1.456666	0.858503	1.186437
C361	C	0.672329	0.074135	0.468255
C362	C	0.922329	0.324135	0.718255
C363	C	1.172329	0.574135	0.968255
C364	C	1.422329	0.824135	1.218255
C365	C	0.603655	0.005388	0.531887
C366	C	0.853655	0.255388	0.781887
C367	C	1.103655	0.505388	1.031887
C368	C	1.353655	0.755388	1.281887
C369	C	0.603656	0.005388	0.468276
C370	C	0.853656	0.255388	0.718276
C371	C	1.103656	0.505388	0.968276
C372	C	1.353656	0.755388	1.218276
C373	C	0.637995	0.039760	0.436458
C374	C	0.887995	0.289760	0.686458
C375	C	1.137995	0.539760	0.936458
C376	C	1.387995	0.789760	1.186458
C377	C	0.637978	0.039769	0.372866
C378	C	0.887978	0.289769	0.622866
C379	C	1.137978	0.539769	0.872866
C380	C	1.387978	0.789769	1.122866
N381	N	0.672319	0.074135	0.341045
N382	N	0.922319	0.324135	0.591045
N383	N	1.172319	0.574135	0.841045
N384	N	1.422319	0.824135	1.091045
C385	C	0.706663	0.108502	0.372830
C386	C	0.956663	0.358502	0.622830
C387	C	1.206663	0.608502	0.872830
C388	C	1.456663	0.858502	1.122830
C389	C	0.638009	0.039769	0.760860
C390	C	0.888009	0.289769	1.010860
C391	C	1.138009	0.539769	1.260860
C392	C	1.388009	0.789769	1.510860
C393	C	0.638008	0.039773	0.824465
C394	C	0.888008	0.289773	1.074465
C395	C	1.138008	0.539773	1.324465
C396	C	1.388008	0.789773	1.574465
C397	C	0.706696	0.108509	0.824429
C398	C	0.956696	0.358509	1.074429
C399	C	1.206696	0.608509	1.324429
C400	C	1.456696	0.858509	1.574429
C401	C	0.706693	0.108507	0.760823
C402	C	0.956693	0.358507	1.010823
C403	C	1.206693	0.608507	1.260823
C404	C	1.456693	0.858507	1.510823
C405	C	0.672350	0.074134	0.729039
C406	C	0.922350	0.324134	0.979039
C407	C	1.172350	0.574134	1.229039
C408	C	1.422350	0.824134	1.479039
C409	C	0.706645	0.108503	0.239259
C410	C	0.956645	0.358503	0.489259
C411	C	1.206645	0.608503	0.739259
C412	C	1.456645	0.858503	0.989259
C413	C	0.706634	0.108503	0.175650
C414	C	0.956634	0.358503	0.425650
C415	C	1.206634	0.608503	0.675650
C416	C	1.456634	0.858503	0.925650
C417	C	0.637948	0.039765	0.175691
C418	C	0.887948	0.289765	0.425691
C419	C	1.137948	0.539765	0.675691
C420	C	1.387948	0.789765	0.925691
C421	C	0.637958	0.039767	0.239295
C422	C	0.887958	0.289767	0.489295
C423	C	1.137958	0.539767	0.739295
C424	C	1.387958	0.789767	0.989295
C425	C	0.672311	0.074137	0.271077
C426	C	0.922311	0.324137	0.521077
C427	C	1.172311	0.574137	0.771077
C428	C	1.422311	0.824137	1.021077
O429	O	0.608772	0.010571	0.339935
O430	O	0.858772	0.260571	0.589935
O431	O	1.108772	0.510571	0.839935
O432	O	1.358772	0.760571	1.089935
O433	O	0.735873	0.137722	0.339916
O434	O	0.985873	0.387722	0.589916
O435	O	1.235873	0.637722	0.839916
O436	O	1.485873	0.887722	1.089916
N437	N	0.672355	0.074138	0.856256
N438	N	0.922355	0.324138	1.106256
N439	N	1.172355	0.574138	1.356256
N440	N	1.422355	0.824138	1.606256
H441	H	0.486602	0.172255	0.000025
H442	H	0.736602	0.422255	0.250025
H443	H	0.986602	0.672255	0.500025
H444	H	1.236602	0.922255	0.750025
H445	H	0.582043	-0.085909	0.000067
H446	H	0.832043	0.164091	0.250067
H447	H	1.082043	0.414091	0.500067
H448	H	1.332043	0.664091	0.750067
H449	H	0.734596	0.136495	0.149747
H450	H	0.984596	0.386495	0.399747
H451	H	1.234596	0.636495	0.649747
H452	H	1.484596	0.886495	0.899747
H453	H	0.206289	0.220908	0.000036
H454	H	0.456289	0.470908	0.250036
H455	H	0.706289	0.720908	0.500036
H456	H	0.956289	0.970908	0.750036
H457	H	0.609985	0.011786	0.149800
H458	H	0.859985	0.261786	0.399800
H459	H	1.109985	0.511786	0.649800
H460	H	1.359985	0.761786	0.899800
H461	H	-0.059867	0.165717	0.000057
H462	H	0.190133	0.415717	0.250057
H463	H	0.440133	0.665717	0.500057
H464	H	0.690133	0.915717	0.750057
H465	H	0.404512	-0.017441	0.000058
H466	H	0.654512	0.232559	0.250058
H467	H	0.904512	0.482559	0.500058
H468	H	1.154512	0.732559	0.750058
H469	H	0.512280	-0.016146	0.000056
H470	H	0.762280	0.233854	0.250056
H471	H	1.012280	0.483854	0.500056
H472	H	1.262280	0.733854	0.750056
H473	H	0.770443	-0.111587	0.000094
H474	H	1.020443	0.138413	0.250094
H475	H	1.270443	0.388413	0.500094
H476	H	1.520443	0.638413	0.750094
H477	H	0.610037	0.011780	0.734985
H478	H	0.860037	0.261780	0.984985
H479	H	1.110037	0.511780	1.234985
H480	H	1.360037	0.761780	1.484985
H481	H	0.734619	0.136490	0.265129
H482	H	0.984619	0.386490	0.515129
H483	H	1.234619	0.636490	0.765129
H484	H	1.484619	0.886490	1.015129
H485	H	0.769159	-0.219337	0.000073
H486	H	1.019159	0.030663	0.250073
H487	H	1.269159	0.280663	0.500073
H488	H	1.519159	0.530663	0.750073
H489	H	0.768987	0.170855	0.557698
H490	H	1.018987	0.420855	0.807698
H491	H	1.268987	0.670855	1.057698
H492	H	1.518987	0.920855	1.307698
H493	H	0.138375	-0.072634	0.000106
H494	H	0.388375	0.177366	0.250106
H495	H	0.638375	0.427366	0.500106
H496	H	0.888375	0.677366	0.750106
H497	H	0.819097	-0.391900	0.000074
H498	H	1.069097	-0.141900	0.250074
H499	H	1.319097	0.108100	0.500074
H500	H	1.569097	0.358100	0.750074
H501	H	0.817806	-0.499645	0.000063
H502	H	1.067806	-0.249645	0.250063
H503	H	1.317806	0.000355	0.500063
H504	H	1.567806	0.250355	0.750063
H505	H	0.246123	-0.071339	0.000107
H506	H	0.496123	0.178661	0.250107
H507	H	0.746123	0.428661	0.500107
H508	H	0.996123	0.678661	0.750107
H509	H	0.768975	0.170857	0.442322
H510	H	1.018975	0.420857	0.692322
H511	H	1.268975	0.670857	0.942322
H512	H	1.518975	0.920857	1.192322
H513	H	0.575689	-0.022603	0.442401
H514	H	0.825689	0.227397	0.692401
H515	H	1.075689	0.477397	0.942401
H516	H	1.325689	0.727397	1.192401
H517	H	0.378851	0.170970	0.000042
H518	H	0.628851	0.420970	0.250042
H519	H	0.878851	0.670970	0.500042
H520	H	1.128851	0.920970	0.750042
H521	H	0.580748	-0.193677	0.000071
H522	H	0.830748	0.056323	0.250071
H523	H	1.080748	0.306323	0.500071
H524	H	1.330748	0.556323	0.750071
H525	H	0.763906	-0.658056	0.000056
H526	H	1.013906	-0.408056	0.250056
H527	H	1.263906	-0.158056	0.500056
H528	H	1.513906	0.091944	0.750056
H529	H	0.098544	0.219617	0.000048
H530	H	0.348544	0.469617	0.250048
H531	H	0.598544	0.719617	0.500048
H532	H	0.848544	0.969617	0.750048
H533	H	0.762610	-0.765821	0.000048
H534	H	1.012610	-0.515821	0.250048
H535	H	1.262610	-0.265821	0.500048
H536	H	1.512610	-0.015821	0.750048
H537	H	-0.167632	0.164421	0.000060
H538	H	0.082368	0.414421	0.250060
H539	H	0.332368	0.664421	0.500060
H540	H	0.582368	0.914421	0.750060
H541	H	0.575693	-0.022603	0.557782
H542	H	0.825693	0.227397	0.807782
H543	H	1.075693	0.477397	1.057782
H544	H	1.325693	0.727397	1.307782
H545	H	0.574207	-0.740136	0.000036
H546	H	0.824207	-0.490136	0.250036
H547	H	1.074207	-0.240136	0.500036
H548	H	1.324207	0.009864	0.750036
H549	H	0.610039	0.011791	0.850366
H550	H	0.860039	0.261791	1.100366
H551	H	1.110039	0.511791	1.350366
H552	H	1.360039	0.761791	1.600366
H553	H	-0.141947	-0.023982	0.000078
H554	H	0.108053	0.226018	0.250078
H555	H	0.358053	0.476018	0.500078
H556	H	0.608053	0.726018	0.750078
H557	H	0.609989	0.011786	0.265202
H558	H	0.859989	0.261786	0.515202
H559	H	1.109989	0.511786	0.765202
H560	H	1.359989	0.761786	1.015202
H561	H	0.734660	0.136493	0.850321
H562	H	0.984660	0.386493	1.100321
H563	H	1.234660	0.636493	1.350321
H564	H	1.484660	0.886493	1.600321
H565	H	0.575496	-0.632386	0.000028
H566	H	0.825496	-0.382386	0.250028
H567	H	1.075496	-0.132386	0.500028
H568	H	1.325496	0.117614	0.750028
H569	H	-0.034198	-0.022693	0.000086
H570	H	0.215802	0.227307	0.250086
H571	H	0.465802	0.477307	0.500086
H572	H	0.715802	0.727307	0.750086
H573	H	0.525555	-0.459814	0.000009
H574	H	0.775555	-0.209814	0.250009
H575	H	1.025555	0.040186	0.500009
H576	H	1.275555	0.290186	0.750009
H577	H	0.526850	-0.352066	0.000013
H578	H	0.776850	-0.102066	0.250013
H579	H	1.026850	0.147934	0.500013
H580	H	1.276850	0.397934	0.750013
H581	H	0.734655	0.136496	0.734921
H582	H	0.984655	0.386496	0.984921
H583	H	1.234655	0.636496	1.234921
H584	H	1.484655	0.886496	1.484921
