data_functionalizedCrystal
_audit_creation_method	'MofGen! by Chris Wilmer'
_symmetry_space_group_name_H-M	'P1'
_symmetry_Int_Tables_number	1
_symmetry_cell_setting	triclinic
loop_
_symmetry_equiv_pos_as_xyz
  x,y,z
_cell_length_a	10.654551
_cell_length_b	15.944551
_cell_length_c	9.130313
_cell_angle_alpha	90.005166
_cell_angle_beta	90.001377
_cell_angle_gamma	83.992004
loop_
_atom_site_label
_atom_site_type_symbol
_atom_site_fract_x
_atom_site_fract_y
_atom_site_fract_z
O1	O	1.666309	0.117980	0.121784
O2	O	1.300686	0.129219	0.121791
O3	O	1.493482	0.001382	0.121774
O4	O	1.473513	0.245816	0.121801
O5	O	1.493474	0.001379	-0.121824
O6	O	1.300678	0.129216	-0.121807
O7	O	1.666302	0.117976	-0.121815
Cu8	Cu	1.483489	0.123596	-0.144054
Cu9	Cu	1.483498	0.123600	0.144030
O10	O	1.473506	0.245813	-0.121798
C11	C	1.253895	0.128392	-0.000007
C12	C	1.114483	0.125922	-0.000005
C13	C	0.917993	0.122431	-0.132792
C14	C	1.048983	0.124759	-0.132793
C15	C	1.048985	0.124767	0.132792
C16	C	0.917996	0.122445	0.132791
C17	C	0.852501	0.121259	-0.265589
C18	C	0.917989	0.122415	-0.398386
C19	C	1.048980	0.124743	-0.398387
C20	C	1.114481	0.125914	-0.265590
C21	C	1.492649	-0.029918	-0.000025
C22	C	1.490164	-0.123179	-0.000026
C23	C	1.364719	-0.338762	-0.000003
C24	C	1.422968	-0.399443	-0.120113
C25	C	1.485668	-0.293931	-0.000015
C26	C	1.423004	-0.399423	0.120056
C27	C	1.481316	-0.458868	0.000003
C28	C	1.543950	-0.353384	-0.120224
C29	C	1.543969	-0.353357	0.120053
C30	C	1.602305	-0.414021	-0.000086
C31	C	1.488171	-0.198914	-0.000026
C32	C	1.478822	-0.553884	0.000003
C33	C	1.713093	0.118803	-0.000013
C34	C	1.852504	0.121273	-0.000006
C35	C	1.474338	0.277113	0.000005
C36	C	1.476824	0.370374	0.000016
N37	N	1.483492	0.123592	-0.346676
C38	C	1.407339	0.072172	-0.423356
C39	C	1.407341	0.072176	-0.576693
C40	C	1.559662	0.175022	-0.576657
C41	C	1.559652	0.175022	-0.423323
C42	C	1.331180	0.020742	-0.346710
C43	C	1.255021	-0.030683	-0.423390
C44	C	1.255024	-0.030679	-0.576726
C45	C	1.331185	0.020750	-0.653383
N46	N	1.483505	0.123596	0.346653
H47	H	1.221140	0.127819	-0.265601
Br48	Br	0.829109	0.120881	0.313004
Br49	Br	1.151648	-0.100465	-0.319361
H50	H	0.864648	0.121469	-0.506505
H51	H	0.745842	0.119362	-0.265604
Br52	Br	1.331174	0.020762	-0.861485
H53	H	1.102327	0.125719	0.240909
H54	H	1.621669	0.216893	-0.639083
H55	H	1.621658	0.216896	-0.360888
H56	H	1.102295	0.125694	-0.506517
Br57	Br	1.337705	-0.433454	-0.289360
H58	H	1.264327	-0.306035	-0.000121
H59	H	1.371835	-0.419795	0.221607
Br60	Br	1.151652	-0.100458	-0.680790
Br61	Br	1.629145	-0.319582	-0.289654
Br62	Br	1.769778	-0.468321	-0.000192
H63	H	1.595084	-0.332930	0.221600
Br64	Br	1.331182	0.020727	-0.138610
