data_functionalizedCrystal
_audit_creation_method	'MofGen! by Chris Wilmer'
_symmetry_space_group_name_H-M	'P1'
_symmetry_Int_Tables_number	1
_symmetry_cell_setting	triclinic
loop_
_symmetry_equiv_pos_as_xyz
  x,y,z
_cell_length_a	17.038272
_cell_length_b	19.188930
_cell_length_c	16.098538
_cell_angle_alpha	92.708456
_cell_angle_beta	87.069734
_cell_angle_gamma	87.128169
loop_
_atom_site_label
_atom_site_type_symbol
_atom_site_fract_x
_atom_site_fract_y
_atom_site_fract_z
O1	O	1.040399	0.148677	-0.069168
O2	O	1.540399	0.648677	0.430832
O3	O	0.812777	0.146269	-0.069192
O4	O	1.312777	0.646269	0.430808
O5	O	0.933156	0.046226	-0.069163
O6	O	1.433156	0.546226	0.430837
O7	O	0.920020	0.248720	-0.069197
O8	O	1.420020	0.748720	0.430803
O9	O	0.926124	0.052046	0.069348
O10	O	1.426124	0.552046	0.569348
O11	O	0.805745	0.152089	0.069319
O12	O	1.305745	0.652089	0.569319
O13	O	1.033367	0.154497	0.069343
O14	O	1.533367	0.654497	0.569343
Zn15	Zn	0.918440	0.154217	0.091323
Zn16	Zn	1.418440	0.654217	0.591323
Zn17	Zn	0.927705	0.146549	-0.091172
Zn18	Zn	1.427705	0.646549	0.408828
O19	O	0.912989	0.254540	0.069314
O20	O	1.412989	0.754540	0.569314
C21	C	0.780140	0.146990	0.000061
C22	C	1.280140	0.646990	0.500061
C23	C	0.693368	0.140458	0.000052
C24	C	1.193368	0.640458	0.500052
C25	C	0.643067	0.200424	0.000043
C26	C	1.143067	0.700424	0.500043
C27	C	0.561535	0.194283	0.000055
C28	C	1.061535	0.694283	0.500055
C29	C	0.530306	0.128176	0.000071
C30	C	1.030306	0.628176	0.500071
C31	C	0.580613	0.068205	0.000083
C32	C	1.080613	0.568205	0.500083
C33	C	0.662144	0.074347	0.000077
C34	C	1.162144	0.574347	0.500077
C35	C	0.284615	0.106479	0.000097
C36	C	0.784615	0.606479	0.500097
C37	C	0.203078	0.100342	0.000101
C38	C	0.703078	0.600342	0.500101
C39	C	0.184005	0.226420	0.000075
C40	C	0.684005	0.726420	0.500075
C41	C	0.265538	0.232556	0.000063
C42	C	0.765538	0.732556	0.500063
C43	C	0.315838	0.172586	0.000080
C44	C	0.815838	0.672586	0.500080
C45	C	0.446968	0.121897	0.000081
C46	C	0.946968	0.621897	0.500081
C47	C	0.399175	0.178865	0.000075
C48	C	0.899175	0.678865	0.500075
C49	C	0.929215	0.023099	0.000095
C50	C	1.429215	0.523099	0.500095
C51	C	0.927937	-0.054485	0.000102
C52	C	1.427937	0.445515	0.500102
C53	C	0.998572	-0.095020	0.000113
C54	C	1.498572	0.404980	0.500113
C55	C	0.997373	-0.167919	0.000100
C56	C	1.497373	0.332081	0.500100
C57	C	0.925534	-0.200279	0.000092
C58	C	1.425534	0.299721	0.500092
C59	C	0.854890	-0.159735	0.000076
C60	C	1.354890	0.340265	0.500076
C61	C	0.856092	-0.086838	0.000081
C62	C	1.356092	0.413162	0.500081
N63	N	0.868229	-0.309715	0.047224
N64	N	1.368229	0.190285	0.547224
N65	N	0.867092	-0.378964	0.047221
N66	N	1.367092	0.121036	0.547221
C67	C	0.921910	-0.419913	0.000075
C68	C	1.421910	0.080087	0.500075
N69	N	0.977918	-0.388997	-0.047058
N70	N	1.477918	0.111003	0.452942
N71	N	0.979057	-0.319742	-0.047051
N72	N	1.479057	0.180258	0.452949
C73	C	0.924223	-0.279323	0.000086
C74	C	1.424223	0.220677	0.500086
C75	C	0.991249	-0.539494	0.000070
C76	C	1.491249	-0.039494	0.500070
C77	C	0.990047	-0.612395	0.000052
C78	C	1.490047	-0.112395	0.500052
C79	C	0.847562	-0.604208	0.000036
C80	C	1.347562	-0.104208	0.500036
C81	C	0.848767	-0.531310	0.000046
C82	C	1.348767	-0.031310	0.500046
C83	C	0.920612	-0.498957	0.000067
C84	C	1.420612	0.001043	0.500067
C85	C	1.066005	0.153776	0.000089
C86	C	1.566005	0.653776	0.500089
C87	C	1.152777	0.160308	0.000092
C88	C	1.652777	0.660308	0.500092
C89	C	0.916930	0.277667	0.000054
C90	C	1.416930	0.777667	0.500054
C91	C	0.918208	0.355250	0.000042
C92	C	1.418208	0.855250	0.500042
N93	N	0.912123	0.159449	0.215871
N94	N	1.412123	0.659449	0.715871
N95	N	0.934028	0.141311	-0.215719
N96	N	1.434028	0.641311	0.284281
C97	C	0.963235	0.117004	0.259468
C98	C	1.463235	0.617004	0.759468
C99	C	0.958823	0.120672	0.346656
C100	C	1.458823	0.620672	0.846656
C101	C	0.903302	0.166789	0.390245
C102	C	1.403302	0.666789	0.890245
C103	C	0.852184	0.209235	0.346641
C104	C	1.352184	0.709235	0.846641
C105	C	0.856593	0.205564	0.259455
C106	C	1.356593	0.705564	0.759455
C107	C	0.887319	0.180086	0.653491
C108	C	1.387319	0.680086	1.153491
C109	C	0.882916	0.183756	0.740683
C110	C	1.382916	0.683756	1.240683
C111	C	0.989554	0.095192	0.740692
C112	C	1.489554	0.595192	1.240692
C113	C	0.993961	0.091527	0.653504
C114	C	1.493961	0.591527	1.153504
C115	C	0.942841	0.133971	0.609908
C116	C	1.442841	0.633971	1.109908
C117	C	0.898792	0.170540	0.479365
C118	C	1.398792	0.670540	0.979365
C119	C	0.947347	0.130216	0.520790
C120	C	1.447347	0.630216	1.020790
H121	H	0.424604	0.232690	0.000067
H122	H	0.924604	0.732690	0.500067
N123	N	0.835094	0.223443	0.608979
N124	N	1.335094	0.723443	1.108979
N125	N	0.785527	0.264614	0.647911
N126	N	1.285527	0.764614	1.147911
H127	H	0.748639	0.295236	0.616473
H128	H	1.248639	0.795236	1.116473
H129	H	0.798571	-0.053834	0.000072
H130	H	1.298571	0.446166	0.500072
N131	N	1.019903	0.069862	0.214932
N132	N	1.519903	0.569862	0.714932
N133	N	1.018506	0.005690	0.224694
N134	N	1.518506	0.505690	0.724694
H135	H	1.058511	-0.027617	0.193233
H136	H	1.558511	0.472383	0.693233
H137	H	1.049750	-0.513152	0.000084
H138	H	1.549750	-0.013152	0.500084
N139	N	0.132635	0.287683	0.000077
N140	N	0.632635	0.787683	0.500077
N141	N	0.160528	0.346703	0.000069
N142	N	0.660528	0.846703	0.500069
H143	H	0.124249	0.389973	0.000074
H144	H	0.624249	0.889973	0.500074
H145	H	0.555180	0.014379	0.000108
H146	H	1.055180	0.514379	0.500108
H147	H	1.000442	0.086110	0.382152
H148	H	1.500442	0.586110	0.882152
N149	N	0.842074	0.217638	0.523895
N150	N	1.342074	0.717638	1.023895
N151	N	0.791175	0.194624	0.572558
N152	N	1.291175	0.694624	1.072558
H153	H	0.751115	0.227884	0.604011
H154	H	1.251115	0.727884	1.104011
N155	N	0.795469	0.256333	0.391176
N156	N	1.295469	0.756333	0.891176
N157	N	0.791539	0.259606	0.469020
N158	N	1.291539	0.759606	0.969020
H159	H	0.751484	0.292871	0.500473
H160	H	1.251484	0.792871	1.000473
H161	H	0.796399	-0.186087	0.000067
H162	H	1.296399	0.313913	0.500067
H163	H	1.047569	-0.645398	0.000056
H164	H	1.547569	-0.145398	0.500056
N165	N	1.069521	-0.209345	0.000109
N166	N	1.569521	0.290655	0.500109
N167	N	1.087713	-0.253383	-0.058273
N168	N	1.587713	0.246617	0.441727
H169	H	1.138667	-0.282639	-0.058266
H170	H	1.638667	0.217361	0.441734
N171	N	1.050812	0.044543	0.608995
N172	N	1.550812	0.544543	1.108995
N173	N	1.096533	0.006733	0.647932
N174	N	1.596533	0.506733	1.147932
H175	H	1.136737	-0.026401	0.616498
H176	H	1.636737	0.473599	1.116498
H177	H	0.814971	0.240126	0.223959
H178	H	1.314971	0.740126	0.723959
H179	H	0.837702	0.221313	0.776169
H180	H	1.337702	0.721313	1.276169
H181	H	0.789070	-0.630555	0.000025
H182	H	1.289070	-0.130555	0.500025
N183	N	0.776607	-0.489910	0.000037
N184	N	1.276607	0.010090	0.500037
N185	N	0.712469	-0.518809	0.000026
N186	N	1.212469	-0.018809	0.500026
H187	H	0.661502	-0.489571	0.000018
H188	H	1.161502	0.010429	0.500018
H189	H	1.031173	0.060635	0.776196
H190	H	1.531173	0.560635	1.276196
H191	H	0.703099	0.025516	0.000084
H192	H	1.203099	0.525516	0.500084
N193	N	0.171174	0.032812	0.000137
N194	N	0.671174	0.532812	0.500137
N195	N	0.124848	0.017782	0.058529
N196	N	0.624848	0.517782	0.558529
H197	H	0.102314	-0.029908	0.058554
H198	H	0.602314	0.470092	0.558554
H199	H	0.992550	0.092665	0.485297
H200	H	1.492550	0.592665	0.985297
H201	H	0.668487	0.254256	0.000029
H202	H	1.168487	0.754256	0.500029
N203	N	0.510160	0.255543	0.000064
N204	N	1.010160	0.755543	0.500064
N205	N	0.509937	0.300888	0.058444
N206	N	1.009937	0.800888	0.558444
H207	H	0.473655	0.344158	0.058454
H208	H	0.973655	0.844158	0.558454
N209	N	0.297422	0.300089	0.000036
N210	N	0.797422	0.800089	0.500036
N211	N	0.252501	0.353626	0.000023
N212	N	0.752501	0.853626	0.500023
H213	H	0.275019	0.401322	-0.000002
H214	H	0.775019	0.901322	0.499998
H215	H	0.421531	0.068073	0.000118
H216	H	0.921531	0.568073	0.500118
H217	H	0.325560	0.057646	0.000111
H218	H	0.825560	0.557646	0.500111
N219	N	1.071964	-0.061985	0.000133
N220	N	1.571964	0.438015	0.500133
N221	N	1.135027	-0.098192	0.000141
N222	N	1.635027	0.401808	0.500141
H223	H	1.186862	-0.074860	0.000153
H224	H	1.686862	0.425140	0.500153
