data_functionalizedCrystal
_audit_creation_method	'MofGen! by Chris Wilmer'
_symmetry_space_group_name_H-M	'P1'
_symmetry_Int_Tables_number	1
_symmetry_cell_setting	triclinic
loop_
_symmetry_equiv_pos_as_xyz
  x,y,z
_cell_length_a	12.759401
_cell_length_b	19.076808
_cell_length_c	12.759393
_cell_angle_alpha	92.335254
_cell_angle_beta	90.018496
_cell_angle_gamma	92.323712
loop_
_atom_site_label
_atom_site_type_symbol
_atom_site_fract_x
_atom_site_fract_y
_atom_site_fract_z
Zn1	Zn	1.589374	-0.280174	0.577138
Zn2	Zn	2.089374	0.219826	1.077138
Zn3	Zn	1.582176	-0.397897	0.394381
Zn4	Zn	2.082176	0.102103	0.894381
Zn5	Zn	1.413674	-0.280210	0.401475
Zn6	Zn	1.913674	0.219790	0.901475
Zn7	Zn	1.406575	-0.397843	0.570025
Zn8	Zn	1.906575	0.102157	1.070025
O9	O	1.497950	-0.339031	0.485755
O10	O	1.997950	0.160969	0.985755
O11	O	1.735440	-0.295797	0.552902
O12	O	2.235440	0.204203	1.052902
O13	O	1.559782	-0.382323	0.248298
O14	O	2.059782	0.117677	0.748298
O15	O	1.442965	-0.181709	0.430723
O16	O	1.942965	0.318291	0.930723
O17	O	1.730151	-0.382288	0.418631
O18	O	2.230151	0.117712	0.918631
O19	O	1.572051	-0.181682	0.559781
O20	O	2.072051	0.318318	1.059781
O21	O	1.435984	-0.295860	0.253511
O22	O	1.935984	0.204140	0.753511
O23	O	1.265712	-0.295807	0.423826
O24	O	1.765712	0.204193	0.923826
O25	O	1.430866	-0.382195	0.717992
O26	O	1.930866	0.117805	1.217992
O27	O	1.260496	-0.382231	0.547659
O28	O	1.760496	0.117769	1.047659
O29	O	1.565167	-0.295745	0.723218
O30	O	2.065167	0.204255	1.223218
O31	O	1.552898	-0.496387	0.411735
O32	O	2.052898	0.003613	0.911735
O33	O	1.423885	-0.496347	0.540780
O34	O	1.923885	0.003653	1.040780
C35	C	1.224983	-0.339018	0.485741
C36	C	1.724983	0.160982	0.985741
C37	C	1.108206	-0.339029	0.485759
C38	C	1.608206	0.160971	0.985759
C39	C	1.050651	-0.384102	0.550124
C40	C	1.550651	0.115898	1.050124
C41	C	0.940927	-0.384111	0.550135
C42	C	1.440927	0.115889	1.050135
C43	C	0.946321	-0.293972	0.421408
C44	C	1.446321	0.206028	0.921408
C45	C	1.056044	-0.293960	0.421403
C46	C	1.556044	0.206040	0.921403
C47	C	1.047536	-0.436145	0.624440
C48	C	1.547536	0.063855	1.124440
C49	C	0.937811	-0.436154	0.624451
C50	C	1.437811	0.063846	1.124451
C51	C	1.486869	-0.521906	0.474739
C52	C	1.986869	-0.021906	0.974739
C53	C	1.482224	-0.600140	0.470061
C54	C	1.982224	-0.100140	0.970061
C55	C	1.547200	-0.636821	0.535112
C56	C	2.047200	-0.136821	1.035112
C57	C	1.542832	-0.710330	0.530719
C58	C	2.042832	-0.210330	1.030719
C59	C	1.473493	-0.747159	0.461269
C60	C	1.973493	-0.247159	0.961269
C61	C	1.408509	-0.710473	0.396215
C62	C	1.908509	-0.210473	0.896215
C63	C	1.412873	-0.636965	0.400614
C64	C	1.912873	-0.136965	0.900614
C65	C	1.453236	-0.967013	0.440905
C66	C	1.953236	-0.467013	0.940905
C67	C	1.448879	-1.040527	0.436508
C68	C	1.948879	-0.540527	0.936508
C69	C	1.583201	-1.040379	0.571014
C70	C	2.083201	-0.540379	1.071014
C71	C	1.587563	-0.966869	0.575403
C72	C	2.087563	-0.466869	1.075403
C73	C	1.522576	-0.930190	0.510353
C74	C	2.022576	-0.430190	1.010353
N75	N	1.469028	-0.822297	0.456774
N76	N	1.969028	-0.322297	0.956774
N77	N	1.527036	-0.855053	0.514854
N78	N	2.027036	-0.355053	1.014854
C79	C	1.771982	-0.339044	0.485769
C80	C	2.271982	0.160956	0.985769
C81	C	1.888758	-0.339050	0.485775
C82	C	2.388758	0.160950	0.985775
C83	C	1.498028	-0.338960	0.759792
C84	C	1.998028	0.161040	1.259792
C85	C	1.498061	-0.338930	0.876571
C86	C	1.998061	0.161070	1.376571
C87	C	1.509103	-0.155442	0.496837
C88	C	2.009103	0.344558	0.996837
C89	C	1.513855	-0.077207	0.501559
C90	C	2.013855	0.422793	1.001559
C91	C	1.497936	-0.339051	0.212786
C92	C	1.997936	0.160949	0.712786
C93	C	1.498118	-0.338883	0.096020
C94	C	1.998118	0.161117	0.596020
C95	C	1.568001	-0.293910	0.934156
C96	C	2.068001	0.206090	1.434156
C97	C	1.568028	-0.293885	1.043882
C98	C	2.068028	0.206115	1.543882
C99	C	1.428170	-0.383904	1.038427
C100	C	1.928170	0.116096	1.538427
C101	C	1.428139	-0.383925	0.928704
C102	C	1.928139	0.116075	1.428704
C103	C	1.648750	-0.241941	0.937306
C104	C	2.148750	0.258059	1.437306
C105	C	1.648777	-0.241915	1.047031
C106	C	2.148777	0.258085	1.547031
H107	H	0.904986	-0.416696	0.702973
H108	H	1.404986	0.083304	1.202973
C109	C	1.614325	-0.750675	0.602266
C110	C	2.114325	-0.250675	1.102266
N111	N	1.668182	-0.781063	0.656155
N112	N	2.168182	-0.281063	1.156155
C113	C	0.888932	-0.244401	0.350616
C114	C	1.388932	0.255599	0.850616
N115	N	0.845708	-0.207064	0.297293
N116	N	1.345708	0.292936	0.797293
H117	H	1.724844	-0.261482	0.902095
H118	H	2.224844	0.238518	1.402095
C119	C	1.381724	-0.926676	0.369372
C120	C	1.881724	-0.426676	0.869372
N121	N	1.327848	-0.896292	0.315499
N122	N	1.827848	-0.396292	0.815499
H123	H	1.078220	-0.421608	0.706721
H124	H	1.578220	0.078392	1.206721
H125	H	1.352047	-0.740465	0.339672
H126	H	1.852047	-0.240465	0.839672
H127	H	1.603669	-0.606840	0.591661
H128	H	2.103669	-0.106840	1.091661
H129	H	1.630266	-0.187430	0.910827
H130	H	2.130266	0.312570	1.410827
H131	H	1.078432	-0.487901	0.592044
H132	H	1.578432	0.012099	1.092044
C133	C	1.351259	-0.433396	1.095784
C134	C	1.851259	0.066604	1.595784
N135	N	1.293328	-0.470674	1.138984
N136	N	1.793328	0.029326	1.638984
C137	C	1.757510	-0.261646	1.086079
C138	C	2.257510	0.238354	1.586079
N139	N	1.839404	-0.276509	1.115489
N140	N	2.339404	0.223491	1.615489
H141	H	1.622784	-0.190122	1.084193
H142	H	2.122784	0.309878	1.584193
H143	H	1.371183	-0.420582	0.881822
H144	H	1.871183	0.079418	1.381822
C145	C	1.372593	-1.081037	0.360109
C146	C	1.872593	-0.581037	0.860109
N147	N	1.315137	-1.111548	0.302567
N148	N	1.815137	-0.611548	0.802567
H149	H	1.102901	-0.257253	0.368999
H150	H	1.602901	0.242747	0.868999
C151	C	1.341395	-0.596617	0.329052
C152	C	1.841395	-0.096617	0.829052
N153	N	1.287553	-0.566228	0.275152
N154	N	1.787553	-0.066228	0.775152
C155	C	1.663861	-0.926363	0.651784
C156	C	2.163861	-0.426363	1.151784
N157	N	1.721340	-0.895855	0.709306
N158	N	2.221340	-0.395855	1.209306
H159	H	1.636109	-1.070251	0.623975
H160	H	2.136109	-0.570251	1.123975
C161	C	0.893118	-0.509778	0.590387
C162	C	1.393118	-0.009778	1.090387
N163	N	0.859455	-0.565229	0.564729
N164	N	1.359455	-0.065229	1.064729
