data_functionalizedCrystal
_audit_creation_method	'MofGen! by Chris Wilmer'
_symmetry_space_group_name_H-M	'P1'
_symmetry_Int_Tables_number	1
_symmetry_cell_setting	triclinic
loop_
_symmetry_equiv_pos_as_xyz
  x,y,z
_cell_length_a	19.288865
_cell_length_b	19.288840
_cell_length_c	18.366186
_cell_angle_alpha	89.983729
_cell_angle_beta	89.988521
_cell_angle_gamma	83.131131
loop_
_atom_site_label
_atom_site_type_symbol
_atom_site_fract_x
_atom_site_fract_y
_atom_site_fract_z
O1	O	0.086566	0.921364	-0.060680
O2	O	0.419899	1.254697	0.272654
O3	O	0.753232	1.588030	0.605987
O4	O	0.098273	0.719101	-0.060655
O5	O	0.431606	1.052434	0.272678
O6	O	0.764939	1.385767	0.606011
O7	O	-0.008712	0.826077	-0.060654
O8	O	0.324622	1.159410	0.272680
O9	O	0.657955	1.492743	0.606013
O10	O	0.193550	0.814388	-0.060681
O11	O	0.526883	1.147721	0.272652
O12	O	0.860217	1.481055	0.605985
O13	O	-0.008717	0.826059	0.060446
O14	O	0.324617	1.159392	0.393779
O15	O	0.657950	1.492725	0.727112
O16	O	0.098268	0.719083	0.060444
O17	O	0.431601	1.052416	0.393777
O18	O	0.764934	1.385749	0.727111
O19	O	0.086561	0.921346	0.060420
O20	O	0.419894	1.254679	0.393753
O21	O	0.753227	1.588012	0.727086
Zn22	Zn	0.092413	0.820211	0.079659
Zn23	Zn	0.425747	1.153545	0.412992
Zn24	Zn	0.759080	1.486878	0.746326
Zn25	Zn	0.092420	0.820235	-0.079895
Zn26	Zn	0.425753	1.153568	0.253439
Zn27	Zn	0.759087	1.486902	0.586772
O28	O	0.193545	0.814370	0.060418
O29	O	0.526878	1.147703	0.393751
O30	O	0.860212	1.481036	0.727085
C31	C	0.097896	0.693215	-0.000102
C32	C	0.431230	1.026548	0.333231
C33	C	0.764563	1.359882	0.666564
C34	C	0.096774	0.616110	-0.000093
C35	C	0.430108	0.949444	0.333241
C36	C	0.763441	1.282777	0.666574
C37	C	-0.034591	0.825692	-0.000102
C38	C	0.298743	1.159025	0.333231
C39	C	0.632076	1.492358	0.666565
C40	C	-0.111694	0.824563	-0.000095
C41	C	0.221639	1.157896	0.333238
C42	C	0.554973	1.491229	0.666571
C43	C	0.096238	0.579917	-0.066106
C44	C	0.429571	0.913250	0.267228
C45	C	0.762905	1.246583	0.600561
C46	C	0.095176	0.507470	-0.066114
C47	C	0.428509	0.840803	0.267219
C48	C	0.761843	1.174137	0.600552
C49	C	0.094636	0.471221	-0.000106
C50	C	0.427970	0.804555	0.333227
C51	C	0.761303	1.137888	0.666560
C52	C	0.095176	0.507423	0.065915
C53	C	0.428510	0.840756	0.399249
C54	C	0.761843	1.174090	0.732582
C55	C	0.096245	0.579868	0.065922
C56	C	0.429579	0.913201	0.399256
C57	C	0.762912	1.246534	0.732589
C58	C	0.052256	0.361886	0.050461
C59	C	0.385590	0.695219	0.383794
C60	C	0.718923	1.028553	0.717127
C61	C	0.051183	0.289443	0.050451
C62	C	0.384516	0.622777	0.383784
C63	C	0.717850	0.956110	0.717118
C64	C	0.091342	0.247778	-0.000125
C65	C	0.424675	0.581111	0.333208
C66	C	0.758009	0.914444	0.666542
C67	C	0.132566	0.278565	-0.050703
C68	C	0.465899	0.611898	0.282630
C69	C	0.799232	0.945231	0.615963
C70	C	0.133635	0.351009	-0.050697
C71	C	0.466968	0.684343	0.282637
C72	C	0.800301	1.017676	0.615970
C73	C	0.093477	0.392667	-0.000107
C74	C	0.426811	0.726001	0.333227
C75	C	0.760144	1.059334	0.666560
C76	C	0.089655	0.133029	-0.066152
C77	C	0.422989	0.466362	0.267181
C78	C	0.756322	0.799695	0.600515
C79	C	0.088598	0.060580	-0.066158
C80	C	0.421931	0.393913	0.267175
C81	C	0.755264	0.727246	0.600509
C82	C	0.088591	0.060535	0.065874
C83	C	0.421924	0.393869	0.399207
C84	C	0.755258	0.727202	0.732540
C85	C	0.089656	0.132982	0.065878
C86	C	0.422989	0.466315	0.399211
C87	C	0.756322	0.799649	0.732544
C88	C	0.090185	0.169225	-0.000137
C89	C	0.423518	0.502558	0.333196
C90	C	0.756851	0.835891	0.666530
C91	C	-0.156396	0.887331	-0.000099
C92	C	0.176937	1.220665	0.333234
C93	C	0.510271	1.553998	0.666567
C94	C	-0.228843	0.886270	-0.000111
C95	C	0.104490	1.219604	0.333223
C96	C	0.437824	1.552937	0.666556
C97	C	-0.256585	0.822438	-0.000103
C98	C	0.076749	1.155771	0.333230
C99	C	0.410082	1.489104	0.666563
C100	C	-0.211873	0.759661	-0.000104
C101	C	0.121460	1.092994	0.333230
C102	C	0.454794	1.426327	0.666563
C103	C	-0.139428	0.760723	-0.000100
C104	C	0.193906	1.094056	0.333234
C105	C	0.527239	1.427390	0.666567
C106	C	-0.364870	0.772251	0.042321
C107	C	-0.031536	1.105584	0.375654
C108	C	0.301797	1.438918	0.708988
C109	C	-0.437314	0.771191	0.042321
C110	C	-0.103981	1.104525	0.375655
C111	C	0.229353	1.437858	0.708988
C112	C	-0.480030	0.819158	-0.000119
C113	C	-0.146697	1.152491	0.333214
C114	C	0.186637	1.485825	0.666547
C115	C	-0.450295	0.868196	-0.042551
C116	C	-0.116961	1.201530	0.290782
C117	C	0.216372	1.534863	0.624115
C118	C	-0.377849	0.869259	-0.042547
C119	C	-0.044516	1.202592	0.290786
C120	C	0.288817	1.535925	0.624120
C121	C	-0.335139	0.821278	-0.000108
C122	C	-0.001805	1.154612	0.333225
C123	C	0.331528	1.487945	0.666558
C124	C	-0.603288	0.880781	-0.000137
C125	C	-0.269955	1.214114	0.333197
C126	C	0.063379	1.547447	0.666530
C127	C	-0.675736	0.879717	-0.000153
C128	C	-0.342403	1.213051	0.333181
C129	C	-0.009069	1.546384	0.666514
C130	C	-0.658764	0.753106	-0.000138
C131	C	-0.325431	1.086439	0.333195
C132	C	0.007902	1.419772	0.666528
C133	C	-0.586318	0.754171	-0.000130
C134	C	-0.252985	1.087504	0.333204
C135	C	0.080349	1.420838	0.666537
C136	C	-0.558584	0.818010	-0.000125
C137	C	-0.225251	1.151344	0.333208
C138	C	0.108082	1.484677	0.666541
C139	C	0.219424	0.814755	-0.000135
C140	C	0.552757	1.148088	0.333198
C141	C	0.886091	1.481422	0.666531
C142	C	0.296527	0.815884	-0.000147
C143	C	0.629861	1.149217	0.333187
C144	C	0.963194	1.482551	0.666520
C145	C	0.086937	0.947232	-0.000135
C146	C	0.420270	1.280565	0.333199
C147	C	0.753604	1.613898	0.666532
C148	C	0.088059	1.024336	-0.000149
C149	C	0.421392	1.357669	0.333184
C150	C	0.754726	1.691003	0.666517
N151	N	0.092408	0.820200	0.188550
N152	N	0.425741	1.153533	0.521883
N153	N	0.759075	1.486867	0.855217
N154	N	0.092420	0.820252	-0.188786
N155	N	0.425753	1.153585	0.144548
N156	N	0.759086	1.486919	0.477881
C157	C	0.045059	0.867584	0.226651
C158	C	0.378392	1.200918	0.559985
C159	C	0.711725	1.534251	0.893318
C160	C	0.045055	0.867589	0.302879
C161	C	0.378389	1.200922	0.636212
C162	C	0.711722	1.534256	0.969546
C163	C	0.092414	0.820215	0.341003
C164	C	0.425747	1.153549	0.674336
C165	C	0.759080	1.486882	1.007670
C166	C	0.139767	0.772822	0.302893
C167	C	0.473100	1.106156	0.636226
C168	C	0.806434	1.439489	0.969559
C169	C	0.139764	0.772814	0.226666
C170	C	0.473097	1.106148	0.560000
C171	C	0.806431	1.439481	0.893333
C172	C	0.155702	0.810917	0.461755
C173	C	0.489036	1.144251	0.795089
C174	C	0.822369	1.477584	1.128422
C175	C	0.155706	0.810930	0.537980
C176	C	0.489040	1.144263	0.871314
C177	C	0.822373	1.477596	1.204647
C178	C	0.092422	0.820235	0.576110
C179	C	0.425756	1.153569	0.909444
C180	C	0.759089	1.486902	1.242777
C181	C	0.029132	0.829543	0.538006
C182	C	0.362466	1.162876	0.871340
C183	C	0.695799	1.496210	1.204673
C184	C	0.029129	0.829535	0.461780
C185	C	0.362463	1.162869	0.795113
C186	C	0.695796	1.496202	1.128447
C187	C	0.092422	0.820218	0.423658
C188	C	0.425755	1.153552	0.756991
C189	C	0.759089	1.486885	1.090324
C190	C	0.045066	0.867627	0.696866
C191	C	0.378399	1.200960	1.030200
C192	C	0.711732	1.534294	1.363533
C193	C	0.045062	0.867627	0.773096
C194	C	0.378395	1.200960	1.106429
C195	C	0.711728	1.534293	1.439762
C196	C	0.139779	0.772863	0.773108
C197	C	0.473112	1.106197	1.106441
C198	C	0.806446	1.439530	1.439774
C199	C	0.139777	0.772860	0.696880
C200	C	0.473110	1.106194	1.030213
C201	C	0.806444	1.439527	1.363547
C202	C	0.092421	0.820246	0.658764
C203	C	0.425755	1.153579	0.992097
C204	C	0.759088	1.486913	1.325431
H205	H	0.096669	0.609421	-0.119860
H206	H	0.430002	0.942754	0.213473
H207	H	0.763335	1.276088	0.546806
Br208	Br	-0.565645	0.967417	-0.000124
Br209	Br	-0.232312	1.300751	0.333210
Br210	Br	0.101022	1.634084	0.666543
H211	H	-0.022404	0.837112	0.430759
H212	H	0.310930	1.170445	0.764092
H213	H	0.644263	1.503779	1.097425
Br214	Br	0.189580	0.392790	-0.119333
Br215	Br	0.522913	0.726124	0.214000
Br216	Br	0.856247	1.059457	0.547334
Br217	Br	-0.019205	0.931933	0.645136
Br218	Br	0.314129	1.265266	0.978469
Br219	Br	0.647462	1.598599	1.311802
H220	H	0.006500	0.906211	0.804118
H221	H	0.339834	1.239544	1.137452
H222	H	0.673167	1.572877	1.470785
Br223	Br	0.094450	0.458339	-0.155710
Br224	Br	0.427783	0.791672	0.177623
Br225	Br	0.761117	1.125005	0.510957
H226	H	-0.681351	0.701132	-0.000136
H227	H	-0.348017	1.034465	0.333197
H228	H	-0.014684	1.367798	0.666531
H229	H	-0.265246	0.937386	-0.000117
H230	H	0.068087	1.270719	0.333217
H231	H	0.401420	1.604053	0.666550
Br232	Br	-0.002248	0.418425	0.119108
Br233	Br	0.331086	0.751758	0.452442
Br234	Br	0.664419	1.085092	0.785775
H235	H	-0.353642	0.909186	-0.077098
H236	H	-0.020308	1.242519	0.256235
H237	H	0.313025	1.575853	0.589569
Br238	Br	0.204044	0.708563	0.824841
Br239	Br	0.537378	1.041896	1.158174
Br240	Br	0.870711	1.375229	1.491507
Br241	Br	-0.118760	0.973970	-0.000114
Br242	Br	0.214573	1.307303	0.333220
Br243	Br	0.547906	1.640636	0.666553
H244	H	-0.712132	0.930833	-0.000160
H245	H	-0.378799	1.264167	0.333174
H246	H	-0.045466	1.597500	0.666507
H247	H	-0.549920	0.703058	-0.000122
H248	H	-0.216587	1.036391	0.333211
H249	H	0.116746	1.369724	0.666544
Br250	Br	0.087879	0.011457	-0.155756
Br251	Br	0.421212	0.344790	0.177578
Br252	Br	0.754545	0.678123	0.510911
H253	H	-0.461518	0.731258	0.076868
H254	H	-0.128185	1.064592	0.410201
H255	H	0.205148	1.397925	0.743534
Br256	Br	0.087869	0.011347	0.155458
Br257	Br	0.421202	0.344681	0.488791
Br258	Br	0.754535	0.678014	0.822125
Br259	Br	-0.306904	0.707148	0.099925
Br260	Br	0.026429	1.040481	0.433258
Br261	Br	0.359762	1.373814	0.766592
Br262	Br	0.187073	0.222027	-0.119346
Br263	Br	0.520407	0.555361	0.213987
Br264	Br	0.853740	0.888694	0.547320
Br265	Br	0.241599	0.798306	0.589685
Br266	Br	0.574932	1.131639	0.923019
Br267	Br	0.908265	1.464973	1.256352
H268	H	0.006496	0.906176	0.333907
H269	H	0.339830	1.239509	0.667240
H270	H	0.673163	1.572843	1.000573
H271	H	0.090088	0.162452	0.119633
H272	H	0.423421	0.495785	0.452966
H273	H	0.756754	0.829118	0.786300
Br274	Br	-0.056759	0.842181	0.589744
Br275	Br	0.276574	1.175515	0.923077
Br276	Br	0.609907	1.508848	1.256411
Br277	Br	-0.508258	0.933300	-0.100153
Br278	Br	-0.174924	1.266633	0.233180
Br279	Br	0.158409	1.599966	0.566514
H280	H	0.207239	0.803327	0.430716
H281	H	0.540572	1.136661	0.764049
H282	H	0.873906	1.469994	1.097383
Br283	Br	-0.249520	0.673029	-0.000103
Br284	Br	0.083813	1.006363	0.333230
Br285	Br	0.417146	1.339696	0.666563
Br286	Br	0.204042	0.708552	0.645165
Br287	Br	0.537375	1.041886	0.978499
Br288	Br	0.870709	1.375219	1.311832
H289	H	-0.103030	0.709608	-0.000096
H290	H	0.230303	1.042941	0.333237
H291	H	0.563636	1.376274	0.666571
Br292	Br	0.204035	0.708524	0.354629
Br293	Br	0.537368	1.041857	0.687962
Br294	Br	0.870702	1.375191	1.021296
Br295	Br	0.204028	0.708502	0.174953
Br296	Br	0.537361	1.041835	0.508286
Br297	Br	0.870695	1.375168	0.841620
Br298	Br	0.094452	0.458230	0.155499
Br299	Br	0.427785	0.791563	0.488832
Br300	Br	0.761118	1.124896	0.822165
H301	H	0.006497	0.906167	0.195619
H302	H	0.339830	1.239500	0.528953
H303	H	0.673164	1.572834	0.862286
Br304	Br	0.090378	0.182219	-0.155741
Br305	Br	0.423711	0.515552	0.177592
Br306	Br	0.757045	0.848885	0.510926
H307	H	0.017613	0.264383	0.091632
H308	H	0.350946	0.597716	0.424965
H309	H	0.684279	0.931050	0.758298
Br310	Br	0.096975	0.628991	0.155519
Br311	Br	0.430308	0.962324	0.488852
Br312	Br	0.763641	1.295658	0.822185
