data_functionalizedCrystal
_audit_creation_method	'MofGen! by Chris Wilmer'
_symmetry_space_group_name_H-M	'P1'
_symmetry_Int_Tables_number	1
_symmetry_cell_setting	triclinic
loop_
_symmetry_equiv_pos_as_xyz
  x,y,z
_cell_length_a	9.065218
_cell_length_b	15.995343
_cell_length_c	8.140239
_cell_angle_alpha	89.991761
_cell_angle_beta	89.997198
_cell_angle_gamma	84.252535
loop_
_atom_site_label
_atom_site_type_symbol
_atom_site_fract_x
_atom_site_fract_y
_atom_site_fract_z
O1	O	1.957501	0.122771	-0.136638
O2	O	1.527979	0.132841	-0.136642
O3	O	1.754487	0.006007	-0.136609
O4	O	1.730992	0.249605	-0.136670
O5	O	1.754475	0.006005	0.136618
O6	O	1.527966	0.132839	0.136585
O7	O	1.957489	0.122769	0.136589
Zn8	Zn	1.742725	0.127804	0.179968
Zn9	Zn	1.742742	0.127806	-0.180020
O10	O	1.730980	0.249603	0.136557
C11	C	1.473009	0.131872	-0.000028
C12	C	1.309234	0.128978	-0.000028
C13	C	1.753512	-0.025196	0.000009
C14	C	1.750606	-0.118169	0.000022
C15	C	1.745331	-0.288395	-0.000016
C16	C	1.581827	-0.312981	-0.000021
C17	C	1.578750	-0.409682	-0.000659
C18	C	1.740136	-0.455995	-0.000051
C19	C	1.822356	-0.426271	-0.155762
C20	C	1.824295	-0.329464	-0.155875
C21	C	1.826675	-0.329552	0.154846
C22	C	1.820638	-0.426093	0.156875
C23	C	1.737209	-0.550715	-0.000076
C24	C	1.748263	-0.193675	-0.000002
C25	C	2.012459	0.123738	-0.000028
C26	C	2.176233	0.126631	-0.000038
C27	C	1.731956	0.280806	-0.000065
C28	C	1.734861	0.373779	-0.000088
N29	N	1.742725	0.127802	0.425651
N30	N	1.742754	0.127801	-0.425703
H31	H	1.514376	-0.429195	0.110929
H32	H	1.765951	-0.446783	-0.272089
N33	N	1.758348	-0.292636	0.311245
H34	H	1.673964	-0.248852	0.283290
H35	H	1.719596	-0.338684	0.378801
H36	H	1.514708	-0.428599	-0.112943
N37	N	1.749738	-0.294543	-0.310630
H38	H	1.661177	-0.254004	-0.280710
H39	H	1.822243	-0.264220	-0.376671
H40	H	1.518446	-0.285460	0.111627
H41	H	1.941131	-0.457217	-0.161116
H42	H	1.938401	-0.458148	0.166746
H43	H	1.947020	-0.314619	0.156360
N44	N	1.499245	-0.275221	-0.147717
H45	H	1.567284	-0.242256	-0.214622
H46	H	1.464290	-0.321615	-0.217391
H47	H	1.944198	-0.313981	-0.162510
H48	H	1.760765	-0.445113	0.272073
