data_functionalizedCrystal
_audit_creation_method	'MofGen! by Chris Wilmer'
_symmetry_space_group_name_H-M	'P1'
_symmetry_Int_Tables_number	1
_symmetry_cell_setting	triclinic
loop_
_symmetry_equiv_pos_as_xyz
  x,y,z
_cell_length_a	12.837943
_cell_length_b	11.792241
_cell_length_c	11.295483
_cell_angle_alpha	94.123059
_cell_angle_beta	85.461227
_cell_angle_gamma	89.511178
loop_
_atom_site_label
_atom_site_type_symbol
_atom_site_fract_x
_atom_site_fract_y
_atom_site_fract_z
O1	O	1.384055	0.288341	-0.099005
O2	O	1.082168	0.273757	-0.099012
O3	O	1.240437	0.116622	-0.099000
O4	O	1.225787	0.445476	-0.099017
O5	O	1.226536	0.130400	0.099050
O6	O	1.068267	0.287535	0.099038
O7	O	1.370154	0.302119	0.099045
Cu8	Cu	1.217941	0.296085	0.117125
Cu9	Cu	1.234381	0.279791	-0.117092
O10	O	1.211885	0.459254	0.099033
C11	C	1.036570	0.275719	0.000012
C12	C	0.921410	0.261025	0.000010
C13	C	0.681444	0.437671	0.000018
C14	C	0.573241	0.423870	0.000016
C15	C	0.596797	0.219624	0.000014
C16	C	0.705001	0.233425	0.000016
C17	C	0.747320	0.342452	0.000016
C18	C	0.855526	0.356251	0.000008
C19	C	0.879080	0.152006	0.000015
C20	C	0.770877	0.138205	0.000013
C21	C	1.232566	0.081127	0.000025
C22	C	1.229812	-0.045167	0.000023
C23	C	1.224748	-0.276394	0.000003
C24	C	1.227561	-0.147723	0.000014
C25	C	1.415753	0.300157	0.000018
C26	C	1.530913	0.314850	0.000013
C27	C	1.219756	0.494749	0.000006
C28	C	1.222512	0.621042	-0.000001
N29	N	1.206386	0.307545	0.281860
N30	N	1.245945	0.268322	-0.281827
C31	C	1.329126	0.185760	0.531159
C32	C	1.320401	0.194430	0.655822
C33	C	1.180207	0.333547	0.655852
C34	C	1.188932	0.324878	0.531189
C35	C	1.263395	0.250983	0.468847
C36	C	1.272124	0.242320	0.344181
C37	C	1.131925	0.381431	0.344213
C38	C	1.123200	0.390100	0.468876
H39	H	0.562315	0.130866	0.000112
H40	H	1.389764	0.125601	0.480399
N41	N	1.387546	0.127792	0.719455
N42	N	1.454020	0.061819	0.663773
H43	H	1.501443	0.014751	0.708712
H44	H	0.519607	0.501409	0.000021
N45	N	0.727626	0.026852	0.000022
N46	N	0.631015	0.014542	0.000026
H47	H	0.600470	-0.064104	0.000030
H48	H	0.715901	0.526445	0.000016
N49	N	1.064774	0.448077	0.280584
N50	N	1.065814	0.554170	0.294517
H51	H	1.018391	0.601244	0.249581
H52	H	1.119573	0.393702	0.706627
N53	N	0.898741	0.467622	0.000001
N54	N	0.839905	0.552629	0.000005
H55	H	0.870421	0.631288	0.000003
H56	H	1.062571	0.450261	0.519649
N57	N	0.946388	0.054745	0.000003
N58	N	1.042996	0.067078	-0.000003
H59	H	1.090534	-0.001610	-0.000016
N60	N	1.348130	0.166768	0.280516
N61	N	1.406769	0.108489	0.336173
H62	H	1.460426	0.055097	0.291214
