data_functionalizedCrystal
_audit_creation_method	'MofGen! by Chris Wilmer'
_symmetry_space_group_name_H-M	'P1'
_symmetry_Int_Tables_number	1
_symmetry_cell_setting	triclinic
loop_
_symmetry_equiv_pos_as_xyz
  x,y,z
_cell_length_a	13.635800
_cell_length_b	11.102294
_cell_length_c	11.102300
_cell_angle_alpha	88.053305
_cell_angle_beta	108.605850
_cell_angle_gamma	71.394215
loop_
_atom_site_label
_atom_site_type_symbol
_atom_site_fract_x
_atom_site_fract_y
_atom_site_fract_z
V1	V	2.055765	-0.175839	0.396255
O2	O	2.035281	0.008450	0.388713
O3	O	2.044153	-0.348659	0.393543
O4	O	2.044155	-0.173134	0.569076
O5	O	2.035279	-0.168290	0.211966
V6	V	2.294316	-0.153796	0.374213
O7	O	2.193436	-0.224192	0.444607
O8	O	2.381744	-0.105442	0.325861
O9	O	2.194325	0.019025	0.376924
O10	O	2.373498	-0.338084	0.381754
O11	O	2.373500	-0.161344	0.558502
O12	O	2.194323	-0.156500	0.201392
V13	V	2.555765	-0.175839	0.396255
O14	O	2.535281	0.008450	0.388713
O15	O	2.544153	-0.348659	0.393543
O16	O	2.544155	-0.173134	0.569076
O17	O	2.535279	-0.168290	0.211966
V18	V	2.794316	-0.153796	0.374213
O19	O	2.693436	-0.224192	0.444607
O20	O	2.881744	-0.105442	0.325861
O21	O	2.694325	0.019025	0.376924
O22	O	2.873498	-0.338084	0.381754
O23	O	2.873500	-0.161344	0.558502
O24	O	2.694323	-0.156500	0.201392
C25	C	1.969309	-0.390788	0.387292
C26	C	2.000542	-0.532071	0.386227
C27	C	2.136566	-0.737680	0.391084
C28	C	2.107222	-0.604928	0.392070
C29	C	1.923197	-0.591970	0.379384
C30	C	1.952539	-0.724718	0.378389
C31	C	1.969311	-0.166887	0.611200
C32	C	2.000544	-0.165819	0.752482
C33	C	2.100841	0.061148	0.383172
C34	C	2.059227	0.202429	0.384245
C35	C	2.100838	-0.162751	0.159261
C36	C	2.059224	-0.163813	0.017978
C37	C	2.469309	-0.390788	0.387292
C38	C	2.500542	-0.532071	0.386227
C39	C	2.469311	-0.166887	0.611200
C40	C	2.500544	-0.165819	0.752482
C41	C	2.107223	-0.171665	0.825331
C42	C	2.136562	-0.170657	0.958079
C43	C	1.952535	-0.157963	0.945119
C44	C	1.923194	-0.158961	0.812371
C45	C	2.600841	0.061148	0.383172
C46	C	2.559227	0.202429	0.384245
C47	C	2.600838	-0.162751	0.159261
C48	C	2.559224	-0.163813	0.017978
C49	C	2.607219	-0.604919	0.392067
C50	C	2.636563	-0.737670	0.391076
C51	C	2.452540	-0.724712	0.378400
C52	C	2.423200	-0.591965	0.379400
C53	C	2.607223	-0.171665	0.825331
C54	C	2.636562	-0.170657	0.958079
C55	C	2.452535	-0.157963	0.945119
C56	C	2.423194	-0.158961	0.812371
H57	H	2.170201	-0.556171	0.397635
N58	N	2.751623	-0.176952	1.036639
H59	H	2.807202	-0.259051	1.028714
H60	H	2.758381	-0.175218	1.129787
H61	H	1.836318	-0.154191	0.753054
H62	H	2.389565	-0.152382	0.993898
N63	N	2.369122	-0.789313	0.371010
H64	H	2.297089	-0.723017	0.367464
H65	H	2.397745	-0.856454	0.449467
N66	N	2.308138	-0.513384	0.373116
H67	H	2.263592	-0.571466	0.368633
H68	H	2.271492	-0.445676	0.294107
N69	N	2.308123	-0.152643	0.733785
H70	H	2.263576	-0.148155	0.791866
H71	H	2.312395	-0.231929	0.690760
H72	H	2.223428	-0.175415	1.017387
N73	N	2.690634	-0.179048	0.760721
H74	H	2.756427	-0.260794	0.798996
H75	H	2.715416	-0.102437	0.774327
H76	H	1.836332	-0.532638	0.374618
N77	N	1.869119	-0.789324	0.371002
H78	H	1.797082	-0.723033	0.367451
H79	H	1.897744	-0.856463	0.449461
H80	H	2.170207	-0.177247	0.776573
N81	N	2.751604	-0.816228	0.397303
H82	H	2.758456	-0.909410	0.395618
H83	H	2.807151	-0.808213	0.479377
H84	H	2.223435	-0.796993	0.395850
N85	N	1.869110	-0.150578	1.009708
H86	H	1.856723	-0.070734	1.052159
H87	H	1.897694	-0.229089	1.076773
H88	H	2.670197	-0.556158	0.397625
