data_functionalizedCrystal
_audit_creation_method	'MofGen! by Chris Wilmer'
_symmetry_space_group_name_H-M	'P1'
_symmetry_Int_Tables_number	1
_symmetry_cell_setting	triclinic
loop_
_symmetry_equiv_pos_as_xyz
  x,y,z
_cell_length_a	19.121102
_cell_length_b	21.295417
_cell_length_c	19.121277
_cell_angle_alpha	87.575578
_cell_angle_beta	89.900604
_cell_angle_gamma	87.583861
loop_
_atom_site_label
_atom_site_type_symbol
_atom_site_fract_x
_atom_site_fract_y
_atom_site_fract_z
Zn1	Zn	1.054737	-0.308022	0.442034
Zn2	Zn	1.554737	0.191978	0.942034
Zn3	Zn	1.059669	-0.408970	0.324791
Zn4	Zn	1.559669	0.091030	0.824791
Zn5	Zn	0.942529	-0.299041	0.319820
Zn6	Zn	1.442529	0.200959	0.819820
Zn7	Zn	0.937460	-0.408572	0.436992
Zn8	Zn	1.437460	0.091428	0.936992
O9	O	0.998599	-0.356151	0.380909
O10	O	1.498599	0.143849	0.880909
O11	O	1.153496	-0.325338	0.430672
O12	O	1.653496	0.174662	0.930672
O13	O	1.048316	-0.390795	0.226028
O14	O	1.548316	0.109205	0.726028
O15	O	0.957471	-0.212146	0.336062
O16	O	1.457471	0.287854	0.836062
O17	O	1.157119	-0.399504	0.344534
O18	O	1.657119	0.100496	0.844534
O19	O	1.039910	-0.218745	0.425852
O20	O	1.539910	0.281255	0.925852
O21	O	0.962254	-0.310031	0.222376
O22	O	1.462254	0.189969	0.722376
O23	O	0.843753	-0.309645	0.331173
O24	O	1.343753	0.190355	0.831173
O25	O	0.948831	-0.398826	0.535765
O26	O	1.448831	0.101174	1.035765
O27	O	0.840028	-0.390117	0.417259
O28	O	1.340028	0.109883	0.917259
O29	O	1.034994	-0.324953	0.539469
O30	O	1.534994	0.175047	1.039469
O31	O	1.043401	-0.497003	0.339645
O32	O	1.543401	0.002997	0.839645
O33	O	0.953614	-0.496711	0.422079
O34	O	1.453614	0.003289	0.922079
C35	C	0.816453	-0.348864	0.373129
C36	C	1.316453	0.151136	0.873129
C37	C	0.738530	-0.345762	0.369818
C38	C	1.238530	0.154238	0.869818
C39	C	0.998511	-0.519698	0.380870
C40	C	1.498511	-0.019698	0.880870
C41	C	0.998537	-0.589667	0.380879
C42	C	1.498537	-0.089667	0.880879
C43	C	0.700003	-0.386261	0.413012
C44	C	1.200003	0.113739	0.913012
C45	C	0.626786	-0.383338	0.409904
C46	C	1.126786	0.116662	0.909904
C47	C	0.592096	-0.339920	0.363597
C48	C	1.092096	0.160080	0.863597
C49	C	0.630627	-0.299417	0.320401
C50	C	1.130627	0.200583	0.820401
C51	C	0.703844	-0.302337	0.323514
C52	C	1.203844	0.197663	0.823514
C53	C	0.371127	-0.329002	0.351965
C54	C	0.871127	0.170998	0.851965
C55	C	0.297905	-0.326086	0.348854
C56	C	0.797905	0.173914	0.848854
C57	C	0.294068	-0.410007	0.438358
C58	C	0.794068	0.089993	0.938358
C59	C	0.367286	-0.412926	0.441463
C60	C	0.867286	0.087074	0.941463
C61	C	0.405811	-0.372421	0.398270
C62	C	0.905811	0.127579	0.898270
C63	C	0.517256	-0.336933	0.360418
C64	C	1.017256	0.163067	0.860418
C65	C	0.480650	-0.375405	0.401454
C66	C	0.980650	0.124595	0.901454
C67	C	1.041435	-0.625913	0.427664
C68	C	1.541435	-0.125913	0.927664
C69	C	1.041459	-0.691657	0.427682
C70	C	1.541459	-0.191657	0.927682
C71	C	0.998593	-0.721153	0.380904
C72	C	1.498593	-0.221153	0.880904
C73	C	0.955685	-0.684899	0.334116
C74	C	1.455685	-0.184899	0.834116
C75	C	0.955657	-0.619156	0.334103
C76	C	1.455657	-0.119156	0.834103
N77	N	0.995929	-0.821943	0.319325
N78	N	1.495929	-0.321943	0.819325
N79	N	0.995960	-0.884396	0.319339
N80	N	1.495960	-0.384396	0.819339
C81	C	0.998673	-0.919232	0.380939
C82	C	1.498673	-0.419232	0.880939
N83	N	1.001368	-0.889256	0.442527
N84	N	1.501368	-0.389256	0.942527
N85	N	1.001341	-0.826797	0.442512
N86	N	1.501341	-0.326797	0.942512
C87	C	0.998618	-0.792440	0.380912
C88	C	1.498618	-0.292440	0.880912
C89	C	1.041600	-1.026765	0.427748
C90	C	1.541600	-0.526765	0.927748
C91	C	1.041619	-1.092510	0.427767
C92	C	1.541619	-0.592510	0.927767
C93	C	0.955849	-1.085751	0.334194
C94	C	1.455849	-0.585751	0.834194
C95	C	0.955826	-1.020007	0.334181
C96	C	1.455826	-0.520007	0.834181
C97	C	0.998705	-0.990518	0.380957
C98	C	1.498705	-0.490518	0.880957
C99	C	1.181456	-0.363467	0.388720
C100	C	1.681456	0.136533	0.888720
C101	C	1.259379	-0.366585	0.392048
C102	C	1.759379	0.133415	0.892048
C103	C	0.990797	-0.362847	0.563765
C104	C	1.490797	0.137153	1.063765
C105	C	0.987473	-0.365700	0.641688
C106	C	1.487473	0.134300	1.141688
C107	C	0.998706	-0.191967	0.380965
C108	C	1.498706	0.308033	0.880965
C109	C	0.998751	-0.122002	0.380989
C110	C	1.498751	0.377998	0.880989
C111	C	1.030769	-0.328581	0.680226
C112	C	1.530769	0.171419	1.180226
C113	C	1.027636	-0.331259	0.753442
C114	C	1.527636	0.168741	1.253442
C115	C	0.981211	-0.371061	0.788119
C116	C	1.481211	0.128939	1.288119
C117	C	0.937910	-0.408182	0.749576
C118	C	1.437910	0.091818	1.249576
C119	C	0.941039	-0.405500	0.676361
C120	C	1.441039	0.094500	1.176361
C121	C	0.969515	-0.381080	1.009083
C122	C	1.469515	0.118920	1.509083
C123	C	0.966390	-0.383760	1.082304
C124	C	1.466390	0.116240	1.582304
C125	C	1.056116	-0.306836	1.086165
C126	C	1.556116	0.193164	1.586165
C127	C	1.059244	-0.304161	1.012948
C128	C	1.559244	0.195839	1.512948
C129	C	1.015941	-0.341279	0.974412
C130	C	1.515941	0.158721	1.474412
C131	C	0.978009	-0.373801	0.862957
C132	C	1.478009	0.126199	1.362957
C133	C	1.019139	-0.338535	0.899574
C134	C	1.519139	0.161465	1.399574
C135	C	1.006364	-0.349495	1.198764
C136	C	1.506364	0.150505	1.698764
C137	C	1.009686	-0.346641	1.120841
C138	C	1.509686	0.153359	1.620841
H139	H	0.728242	-0.421619	0.450717
H140	H	1.228242	0.078381	0.950717
H141	H	0.920941	-1.109766	0.296110
H142	H	1.420941	-0.609766	0.796110
H143	H	0.395526	-0.448283	0.479169
H144	H	0.895526	0.051717	0.979169
F145	F	1.087123	-0.730240	0.477476
F146	F	1.587123	-0.230240	0.977476
F147	F	0.412118	-0.285891	0.305996
F148	F	0.912118	0.214109	0.805996
H149	H	0.920781	-0.708919	0.296030
H150	H	1.420781	-0.208919	0.796030
F151	F	0.585786	-0.426443	0.455877
F152	F	1.085786	0.073557	0.955877
F153	F	0.593706	-0.253204	0.271123
F154	F	1.093706	0.246796	0.771123
H155	H	0.735211	-0.269356	0.288344
H156	H	1.235211	0.230644	0.788344
H157	H	0.920723	-0.589644	0.296005
H158	H	1.420723	-0.089644	0.796005
F159	F	0.517571	-0.421612	0.450735
F160	F	1.017571	0.078388	0.950735
F161	F	0.910167	-0.981430	0.284385
F162	F	1.410167	-0.481430	0.784385
F163	F	0.923427	-0.420585	0.968079
F164	F	1.423427	0.079415	1.468079
H165	H	0.940213	-0.406210	0.891200
H166	H	1.440213	0.093790	1.391200
H167	H	0.262694	-0.442983	0.473524
H168	H	0.762694	0.057017	0.973524
H169	H	0.489003	-0.301583	0.322713
H170	H	0.989003	0.198417	0.822713
F171	F	1.087068	-0.594532	0.477451
F172	F	1.587068	-0.094532	0.977451
F173	F	1.102197	-0.267333	1.127183
F174	F	1.602197	0.232667	1.627183
F175	F	0.916973	-0.426122	1.119208
F176	F	1.416973	0.073878	1.619208
H177	H	1.076513	-1.002754	0.465838
H178	H	1.576513	-0.502754	0.965838
F179	F	0.260988	-0.279876	0.299562
F180	F	0.760988	0.220124	0.799562
H181	H	1.068575	-0.296172	0.651997
H182	H	1.568575	0.203828	1.151997
H183	H	0.900107	-0.440587	0.777815
H184	H	1.400107	0.059413	1.277815
F185	F	1.087273	-1.131086	0.477571
F186	F	1.587273	-0.631086	0.977571
H187	H	1.062894	-0.301034	0.784816
H188	H	1.562894	0.198966	1.284816
F189	F	1.108657	-0.261798	0.976048
F190	F	1.608657	0.238202	1.476048
F191	F	0.894956	-0.445006	0.635346
F192	F	1.394956	0.054994	1.135346
H193	H	1.056935	-0.306126	0.871337
H194	H	1.556935	0.193874	1.371337
