data_functionalizedCrystal
_audit_creation_method	'MofGen! by Chris Wilmer'
_symmetry_space_group_name_H-M	'P1'
_symmetry_Int_Tables_number	1
_symmetry_cell_setting	triclinic
loop_
_symmetry_equiv_pos_as_xyz
  x,y,z
_cell_length_a	27.440280
_cell_length_b	20.919180
_cell_length_c	20.919350
_cell_angle_alpha	60.187710
_cell_angle_beta	86.843531
_cell_angle_gamma	121.785708
loop_
_atom_site_label
_atom_site_type_symbol
_atom_site_fract_x
_atom_site_fract_y
_atom_site_fract_z
Zr1	Zr	0.433121	-0.741691	0.124994
O2	O	0.344751	-0.883083	0.235060
O3	O	0.464555	-0.600309	0.085826
O4	O	0.452690	-0.741690	0.227217
O5	O	0.361034	-0.741700	-0.011689
O6	O	0.532894	-0.741677	0.227203
O7	O	0.356615	-0.741703	0.093669
O8	O	0.554118	-0.488773	-0.025719
O9	O	0.339810	-0.994604	0.241233
O10	O	0.532569	-0.658448	0.075667
O11	O	0.476011	-0.658456	-0.002950
O12	O	0.462042	-0.824913	0.163519
O13	O	0.405484	-0.824921	0.084902
Zr14	Zr	0.568084	-0.741666	-0.043063
Zr15	Zr	0.561037	-0.741670	0.124972
Zr16	Zr	0.440168	-0.741687	-0.043041
Zr17	Zr	0.425241	-0.919554	0.134839
Zr18	Zr	0.575964	-0.563803	-0.052908
O19	O	0.536650	-0.883048	-0.003895
O20	O	0.526631	-0.883054	0.235028
O21	O	0.354770	-0.883077	-0.003864
O22	O	0.656455	-0.600274	-0.153129
O23	O	0.646435	-0.600280	0.085795
O24	O	0.474575	-0.600303	-0.153097
O25	O	0.640172	-0.741657	0.093620
O26	O	0.548515	-0.741667	-0.145286
O27	O	0.468311	-0.741680	-0.145272
O28	O	0.644590	-0.741654	-0.011738
O29	O	0.441486	-0.994587	0.241215
O30	O	0.559720	-0.488770	-0.159284
O31	O	0.661396	-0.488753	-0.159302
O32	O	0.655795	-0.488756	-0.025737
O33	O	0.345411	-0.994601	0.107668
O34	O	0.447087	-0.994584	0.107650
O35	O	0.539164	-0.658444	-0.081588
O36	O	0.595722	-0.658436	-0.002971
O37	O	0.525194	-0.824901	0.084881
O38	O	0.468637	-0.824909	0.006263
C39	C	0.510460	-0.519200	0.028651
C40	C	0.513805	-0.443692	0.024471
C41	C	0.466032	-0.469687	0.083973
C42	C	0.469175	-0.398753	0.080074
C43	C	0.520090	-0.301825	0.016670
C44	C	0.567867	-0.275831	-0.042835
C45	C	0.564725	-0.346764	-0.038932
C46	C	0.532046	-0.084578	0.001815
C47	C	0.535183	-0.013644	-0.002085
C48	C	0.436491	-0.136571	0.120825
C49	C	0.433352	-0.207500	0.124719
C50	C	0.481131	-0.181500	0.065217
C51	C	0.523303	-0.229318	0.012682
C52	C	0.477920	-0.254007	0.069209
C53	C	0.340599	-0.741705	0.040993
C54	C	0.286296	-0.741713	0.041003
C55	C	-0.013583	-0.654770	-0.004915
C56	C	-0.064601	-0.654764	-0.004922
O57	O	-0.059678	-0.580865	-0.043946
N58	N	-0.126932	-0.741656	0.040936
C59	C	-0.138245	-0.828559	0.086799
O60	O	-0.195947	-0.902467	0.125803
C61	C	-0.087227	-0.828564	0.086801
C62	C	-0.024896	-0.741666	0.040946
C63	C	0.048745	-0.567879	-0.050767
C64	C	0.099759	-0.567885	-0.050758
C65	C	0.088446	-0.654781	-0.004898
C66	C	0.026118	-0.741672	0.040954
C67	C	-0.098540	-0.915466	0.132658
C68	C	-0.047516	-0.915463	0.132655
C69	C	0.014815	-0.828565	0.086800
C70	C	0.065819	-0.828574	0.086824
N71	N	0.128150	-0.741682	0.040965
C72	C	0.139463	-0.654785	-0.004895
C73	C	-0.245382	-0.828544	0.086789
C74	C	-0.296400	-0.828541	0.086792
C75	C	-0.222752	-0.654745	-0.004930
C76	C	-0.171734	-0.654749	-0.004927
C77	C	-0.183051	-0.741652	0.040931
C78	C	0.246594	-0.654804	-0.004873
C79	C	0.297609	-0.654817	-0.004858
C80	C	0.223958	-0.828612	0.086860
C81	C	0.172946	-0.828599	0.086849
C82	C	0.184269	-0.741687	0.040976
O83	O	0.060945	-0.902435	0.125825
O84	O	0.197167	-0.580890	-0.043902
C85	C	0.660606	-0.741652	0.040938
C86	C	0.714910	-0.741644	0.040928
C87	C	0.490748	0.035849	0.053269
C88	C	0.487410	-0.039638	0.057416
C89	C	0.491788	-0.741684	0.251151
C90	C	0.488797	-0.741685	0.322486
C91	C	0.469634	-0.741682	0.725936
C92	C	0.472452	-0.741678	0.658908
C93	C	0.518045	-0.741675	0.625396
C94	C	0.560825	-0.741668	0.658911
C95	C	0.558009	-0.741666	0.725935
C96	C	0.528761	-0.741676	0.423025
C97	C	0.531573	-0.741681	0.355998
C98	C	0.443200	-0.741689	0.355998
C99	C	0.440386	-0.741692	0.423026
C100	C	0.483168	-0.741680	0.456533
C101	C	0.520926	-0.741674	0.556884
C102	C	0.480290	-0.741675	0.525040
C103	C	0.509418	-0.741675	0.830781
C104	C	0.512410	-0.741678	0.759448
C105	C	0.670463	-0.519173	0.028623
C106	C	0.728112	-0.443657	0.024434
C107	C	0.519274	-0.519194	-0.181535
C108	C	0.525611	-0.443685	-0.257049
C109	C	0.679277	-0.519168	-0.181563
C110	C	0.739918	-0.443650	-0.257087
C111	C	0.321928	-0.964189	0.263493
C112	C	0.261288	-1.039707	0.339017
C113	C	0.330743	-0.964184	0.053308
C114	C	0.273094	-1.039700	0.057497
C115	C	0.481932	-0.964163	0.263466
C116	C	0.475595	-1.039672	0.338980
C117	C	0.722219	-0.408200	0.063522
C118	C	0.776380	-0.337254	0.059603
C119	C	0.836434	-0.301762	0.016590
C120	C	0.842326	-0.337227	-0.022500
C121	C	0.788165	-0.408176	-0.018575
C122	C	0.561552	-0.408219	-0.333567
C123	C	0.567504	-0.337280	-0.404527
C124	C	0.537518	-0.301804	-0.398967
C125	C	0.501572	-0.337277	-0.322441
C126	C	0.495617	-0.408219	-0.251483
C127	C	0.797923	-0.408182	-0.251516
C128	C	0.854906	-0.337235	-0.322472
C129	C	0.853882	-0.301752	-0.398998
C130	C	0.795870	-0.337227	-0.404566
C131	C	0.738889	-0.408178	-0.333611
C132	C	0.203282	-1.075183	0.333447
C133	C	0.146298	-1.146153	0.404404
C134	C	0.147322	-1.181639	0.480930
C135	C	0.205334	-1.146160	0.486499
C136	C	0.262316	-1.075196	0.415543
C137	C	0.278986	-1.075164	0.018416
C138	C	0.224823	-1.146130	0.022355
C139	C	0.164769	-1.181624	0.065371
C140	C	0.158878	-1.146157	0.104456
C141	C	0.213040	-1.075198	0.100522
C142	C	0.505589	-1.075126	0.333394
C143	C	0.499647	-1.146065	0.404341
C144	C	0.463707	-1.181554	0.480874
C145	C	0.433712	-1.146093	0.486458
C146	C	0.439658	-1.075150	0.415511
H147	H	0.391900	-0.286421	0.176360
H148	H	0.309545	-1.046312	0.420088
H149	H	0.397593	-0.157730	0.169269
H150	H	0.100920	-1.239422	0.538701
Br151	Br	0.201875	-1.027036	0.229599
H152	H	0.798769	-0.437062	-0.189211
Br153	Br	0.592397	-0.097770	-0.073367
H154	H	0.900284	-0.243979	-0.456768
H155	H	0.891229	-0.308318	-0.057520
Br156	Br	0.768370	-0.289138	0.112655
Br157	Br	0.206713	-1.194328	0.590363
Br158	Br	-0.207407	-0.536813	-0.067169
Br159	Br	0.636968	-0.144285	-0.128881
H160	H	0.404450	-1.174999	0.548780
H161	H	-0.120985	-0.583990	-0.042274
Br162	Br	0.446838	-0.456339	-0.147641
H163	H	0.568702	-0.741680	0.328716
Br164	Br	0.418420	-0.741670	0.570516
H165	H	0.415229	-1.046291	0.420071
H166	H	0.524073	-1.174930	0.399779
Br167	Br	0.586820	-0.741662	0.468496
H168	H	0.327880	-1.046270	-0.016617
H169	H	0.880531	-0.243990	0.013399
Br170	Br	0.629566	-0.311484	-0.119682
Br171	Br	0.232833	-1.194246	-0.030697
Br172	Br	0.091269	-1.277927	0.070703
H173	H	0.109974	-1.175067	0.139479
Br174	Br	0.616069	-0.741650	0.771410
H175	H	0.477159	-0.308381	-0.317927
H176	H	0.795046	-0.308327	-0.466883
H177	H	0.208234	-1.046324	0.132344
H178	H	0.534855	-1.046242	0.271085
H179	H	0.458871	-1.239321	0.538636
H180	H	-0.254606	-0.899314	0.124137
H181	H	0.099069	-1.175028	0.399854
H182	H	0.691661	-0.437047	-0.338158
Br183	Br	0.933627	-0.289103	-0.314895
Br184	Br	0.396928	-0.601229	0.170021
Br185	Br	0.602258	-0.456345	-0.341135
H186	H	0.436468	-0.332928	0.120835
H187	H	0.430274	-0.419927	0.128526
H188	H	0.576644	0.065283	-0.053720
H189	H	0.570951	-0.063396	-0.046636
H190	H	0.255822	-0.584032	-0.042228
Br191	Br	0.382201	-0.536877	-0.067090
Br192	Br	0.616290	-0.289152	-0.508373
Br193	Br	0.184346	-0.449946	-0.112999
H194	H	-0.347149	-0.899301	0.124142
H195	H	0.057968	-0.497114	-0.088116
H196	H	0.673324	-0.437097	0.098558
H197	H	-0.056737	-0.986231	0.169989
Br198	Br	-0.183122	-1.033406	0.194887
H199	H	0.597951	-0.741660	0.631619
Br200	Br	0.796174	-0.456283	-0.071634
H201	H	0.122192	-0.899358	0.124198
H202	H	0.214756	-0.899361	0.124202
Br203	Br	0.407751	-0.741696	0.771415
Br204	Br	0.545606	-0.205524	-0.495278
H205	H	0.437621	-0.741680	0.631622
H206	H	0.403261	-0.741694	0.450310
H207	H	0.558047	-0.741674	0.529594
Br208	Br	0.385142	-0.741703	0.310522
