data_functionalizedCrystal
_audit_creation_method	'MofGen! by Chris Wilmer'
_symmetry_space_group_name_H-M	'P1'
_symmetry_Int_Tables_number	1
_symmetry_cell_setting	triclinic
loop_
_symmetry_equiv_pos_as_xyz
  x,y,z
_cell_length_a	17.640280
_cell_length_b	17.639044
_cell_length_c	17.077396
_cell_angle_alpha	101.207368
_cell_angle_beta	78.774396
_cell_angle_gamma	70.392877
loop_
_atom_site_label
_atom_site_type_symbol
_atom_site_fract_x
_atom_site_fract_y
_atom_site_fract_z
Zn1	Zn	-0.582498	1.326108	-0.060236
Zn2	Zn	-0.720291	1.353894	0.104252
Zn3	Zn	-0.554696	1.188318	0.037719
Zn4	Zn	-0.692423	1.216152	-0.060272
O5	O	-0.637477	1.271118	0.005366
O6	O	-0.624075	1.445105	-0.010557
O7	O	-0.698351	1.331910	0.205274
O8	O	-0.443078	1.183319	-0.003104
O9	O	-0.725310	1.465519	0.110291
O10	O	-0.463504	1.284552	-0.075071
O11	O	-0.576690	1.210262	0.156393
O12	O	-0.549668	1.076699	-0.003139
O13	O	-0.677814	1.230758	-0.170116
O14	O	-0.650856	1.097149	-0.075133
O15	O	-0.597053	1.311542	-0.170089
O16	O	-0.831900	1.358900	0.110256
O17	O	-0.811426	1.257701	-0.010619
C18	C	-0.594222	1.057025	-0.046360
C19	C	-0.575737	0.965440	-0.068502
C20	C	-0.851565	1.314359	0.057022
C21	C	-0.943168	1.332932	0.079113
C22	C	-0.497061	0.825741	-0.162682
C23	C	-0.514437	0.911801	-0.141869
C24	C	-0.619682	0.933032	-0.015918
C25	C	-0.602312	0.846972	-0.036718
C26	C	-0.541001	0.793333	-0.110102
C27	C	-0.646253	0.814563	0.015862
C28	C	-0.628887	0.728511	-0.004940
C29	C	-0.567581	0.674867	-0.078321
C30	C	-0.523636	0.707280	-0.130903
C31	C	-0.707568	0.868205	0.089242
C32	C	-0.751508	0.835796	0.141822
C33	C	-0.734139	0.749742	0.121024
C34	C	-0.672832	0.696098	0.047643
C35	C	-0.778084	0.717328	0.173606
C36	C	-0.760718	0.631276	0.152805
C37	C	-0.655467	0.610045	0.026841
C38	C	-1.191233	1.130353	-0.162660
C39	C	-1.277308	1.147807	-0.141877
C40	C	-1.298575	1.253250	-0.016096
C41	C	-1.212501	1.235808	-0.036870
C42	C	-1.158836	1.174357	-0.110153
C43	C	-1.180103	1.279812	0.015637
C44	C	-1.094036	1.262367	-0.005134
C45	C	-1.040365	1.200918	-0.078413
C46	C	-1.072768	1.156912	-0.130924
C47	C	-1.233769	1.341258	0.088922
C48	C	-1.201372	1.385262	0.141429
C49	C	-1.115304	1.367822	0.120656
C50	C	-1.061633	1.306373	0.047377
C51	C	-1.082901	1.411828	0.173167
C52	C	-0.996833	1.394383	0.152396
C53	C	-0.975565	1.288928	0.026606
C54	C	-0.422558	1.227731	-0.046504
C55	C	-0.330972	1.209242	-0.068608
C56	C	-0.637426	1.271156	-0.199381
C57	C	-0.637405	1.271172	-0.286632
C58	C	-0.680902	1.486047	0.057293
C59	C	-0.699407	1.577637	0.079421
C60	C	-0.595348	1.313237	-0.327610
C61	C	-0.595323	1.313241	-0.409595
C62	C	-0.637359	1.271185	-0.450598
C63	C	-0.679417	1.229114	-0.409615
C64	C	-0.679437	1.229106	-0.327634
C65	C	-0.679374	1.229138	-0.580489
C66	C	-0.679356	1.229148	-0.662476
C67	C	-0.595260	1.313273	-0.662450
C68	C	-0.595280	1.313264	-0.580469
C69	C	-0.637339	1.271195	-0.539491
C70	C	-0.637478	1.271116	0.209313
C71	C	-0.637299	1.271213	0.296546
H72	H	-0.605532	0.566367	-0.032908
H73	H	-1.245077	1.435293	0.201098
H74	H	-0.713640	1.194868	-0.443008
H75	H	-0.561079	1.347497	-0.442955
H76	H	-0.713608	1.194865	-0.547134
H77	H	-0.970456	1.430215	0.195154
H78	H	-0.721692	0.938271	0.106185
H79	H	-0.561120	1.347487	-0.294230
H80	H	-1.303683	1.111979	-0.184648
H81	H	-0.801429	0.879481	0.201570
H82	H	-0.931869	1.238895	-0.033073
H83	H	-0.713584	1.194899	-0.695859
H84	H	-0.478648	0.938182	-0.184689
H85	H	-0.561012	1.347526	-0.695819
H86	H	-0.828008	0.761015	0.233351
H87	H	-0.713674	1.194842	-0.294275
H88	H	-0.796501	0.604889	0.195620
H89	H	-0.970282	1.186710	-0.095319
H90	H	-0.473701	0.663602	-0.190653
H91	H	-0.553445	0.604798	-0.095258
H92	H	-0.447126	0.782062	-0.222431
H93	H	-1.342280	1.303281	0.043573
H94	H	-1.303851	1.355461	0.105830
H95	H	-1.126606	1.461854	0.232838
H96	H	-1.029072	1.106879	-0.190603
H97	H	-0.669603	0.976717	0.043830
H98	H	-1.147537	1.080320	-0.222339
H99	H	-0.561056	1.347516	-0.547084
