data_functionalizedCrystal
_audit_creation_method	'MofGen! by Chris Wilmer'
_symmetry_space_group_name_H-M	'P1'
_symmetry_Int_Tables_number	1
_symmetry_cell_setting	triclinic
loop_
_symmetry_equiv_pos_as_xyz
  x,y,z
_cell_length_a	16.120444
_cell_length_b	12.759401
_cell_length_c	12.759393
_cell_angle_alpha	89.980198
_cell_angle_beta	92.864751
_cell_angle_gamma	92.925534
loop_
_atom_site_label
_atom_site_type_symbol
_atom_site_fract_x
_atom_site_fract_y
_atom_site_fract_z
Zn1	Zn	-0.331887	1.584973	-0.615160
Zn2	Zn	-0.471323	1.575919	-0.448375
Zn3	Zn	-0.331926	1.409270	-0.439501
Zn4	Zn	-0.471259	1.400322	-0.624012
O5	O	-0.401599	1.492621	-0.531762
O6	O	-0.350394	1.730793	-0.593045
O7	O	-0.452874	1.553767	-0.300180
O8	O	-0.215255	1.440111	-0.455384
O9	O	-0.452837	1.724140	-0.470509
O10	O	-0.215227	1.569200	-0.584440
O11	O	-0.350460	1.431331	-0.293660
O12	O	-0.350398	1.261063	-0.463968
O13	O	-0.452728	1.424862	-0.769856
O14	O	-0.452765	1.254489	-0.599527
O15	O	-0.350332	1.560524	-0.763353
O16	O	-0.587980	1.545092	-0.479092
O17	O	-0.587933	1.416082	-0.608131
C18	C	-0.401579	1.219655	-0.531745
C19	C	-0.401591	1.102878	-0.531764
C20	C	-0.618206	1.478662	-0.545558
C21	C	-0.710872	1.472786	-0.551495
C22	C	-0.921817	1.523359	-0.501189
C23	C	-0.880528	1.462078	-0.562346
C24	C	-0.786123	1.468038	-0.556307
C25	C	-1.016231	1.517401	-0.507227
C26	C	-0.348365	0.941736	-0.595687
C27	C	-0.348348	1.051461	-0.595679
C28	C	-0.454859	1.044563	-0.467861
C29	C	-0.454879	0.934840	-0.467876
C30	C	-0.318651	1.203374	-0.717737
C31	C	-0.265375	1.261685	-0.781628
C32	C	-0.184049	1.231301	-0.792752
C33	C	-0.155982	1.142608	-0.739969
C34	C	-0.209253	1.084303	-0.676070
C35	C	-0.290591	1.114685	-0.664967
C36	C	-0.484568	0.782925	-0.345816
C37	C	-0.537835	0.724618	-0.281911
C38	C	-0.619163	0.755000	-0.270776
C39	C	-0.647228	0.843696	-0.323541
C40	C	-0.593960	0.902003	-0.387446
C41	C	-0.512633	0.871613	-0.398582
C42	C	-0.184145	1.506664	-0.517935
C43	C	-0.091479	1.512648	-0.512043
C44	C	-0.401619	1.766653	-0.531779
C45	C	-0.401627	1.883429	-0.531787
C46	C	-0.401518	1.492705	-0.805790
C47	C	-0.401484	1.492741	-0.922565
C48	C	-0.348158	1.563385	-0.974042
C49	C	-0.348123	1.563406	-1.083764
C50	C	-0.454746	1.422132	-1.090523
C51	C	-0.454777	1.422108	-0.980802
C52	C	-0.249761	1.607328	-1.227466
C53	C	-0.196442	1.677989	-1.278947
C54	C	-0.183661	1.781322	-1.242539
C55	C	-0.224211	1.814014	-1.154651
C56	C	-0.277536	1.743358	-1.103176
C57	C	-0.290301	1.640012	-1.139582
C58	C	-0.553140	1.378196	-0.837098
C59	C	-0.606469	1.307545	-0.785621
C60	C	-0.619259	1.204210	-0.822028
C61	C	-0.578723	1.171520	-0.909920
C62	C	-0.525394	1.242172	-0.961397
C63	C	-0.512603	1.345506	-0.924982
C64	C	-0.401618	1.492602	-0.258796
C65	C	-0.401417	1.492785	-0.142007
H66	H	-0.916081	1.405137	-0.619239
Br67	Br	-0.332568	1.787715	-0.983911
H68	H	-0.616817	0.974225	-0.430408
H69	H	-0.542725	1.462338	-0.807441
H70	H	-0.886269	1.580295	-0.444298
Br71	Br	-0.429034	1.244603	-0.702665
H72	H	-0.305003	0.899881	-0.647728
H73	H	-0.186444	1.011993	-0.633231
Br74	Br	-0.691656	1.108333	-0.752184
H75	H	-0.498214	1.086435	-0.415825
Br76	Br	-0.661494	1.351914	-0.666348
Br77	Br	-0.111747	1.310441	-0.879457
H78	H	-0.713450	0.868437	-0.314471
H79	H	-0.662531	0.707520	-0.218732
Br80	Br	-0.470380	1.197809	-1.080681
H81	H	-0.089754	1.117884	-0.749021
H82	H	-0.288236	1.333899	-0.824604
Br83	Br	-0.499743	0.604252	-0.210286
H84	H	-0.418344	0.758177	-0.354879
H85	H	-0.589140	1.087378	-0.939567
Br86	Br	-0.275832	1.659241	-0.895008
H87	H	-0.213806	1.898161	-1.125020
Br88	Br	-0.111304	1.877218	-1.312411
H89	H	-0.163426	1.651362	-1.350505
Br90	Br	-0.267088	1.467079	-1.276872
Br91	Br	-0.527070	1.326282	-1.169566
