data_functionalizedCrystal
_audit_creation_method	'MofGen! by Chris Wilmer'
_symmetry_space_group_name_H-M	'P1'
_symmetry_Int_Tables_number	1
_symmetry_cell_setting	triclinic
loop_
_symmetry_equiv_pos_as_xyz
  x,y,z
_cell_length_a	21.395362
_cell_length_b	25.639239
_cell_length_c	21.395356
_cell_angle_alpha	90.026438
_cell_angle_beta	90.035770
_cell_angle_gamma	90.054564
loop_
_atom_site_label
_atom_site_type_symbol
_atom_site_fract_x
_atom_site_fract_y
_atom_site_fract_z
Zn1	Zn	0.957774	-0.207953	0.354582
Zn2	Zn	0.957677	-0.295384	0.249803
Zn3	Zn	0.853004	-0.207988	0.249783
Zn4	Zn	0.852944	-0.295384	0.354508
O5	O	0.905350	-0.251677	0.302169
O6	O	1.045439	-0.219536	0.340722
O7	O	0.943777	-0.283805	0.162122
O8	O	0.866968	-0.134818	0.263708
O9	O	1.045368	-0.283771	0.263741
O10	O	0.943942	-0.134793	0.340703
O11	O	0.866874	-0.219596	0.162108
O12	O	0.765318	-0.219596	0.263636
O13	O	0.866865	-0.283771	0.442195
O14	O	0.765274	-0.283805	0.340576
O15	O	0.943884	-0.219536	0.442250
O16	O	0.943718	-0.368549	0.263669
O17	O	0.866771	-0.368549	0.340596
C18	C	0.742562	-0.251705	0.302096
C19	C	0.672921	-0.251729	0.302080
C20	C	0.640201	-0.285207	0.342083
C21	C	0.574766	-0.285194	0.342111
C22	C	0.542053	-0.251709	0.302125
C23	C	0.574780	-0.218225	0.262119
C24	C	0.640214	-0.218235	0.262097
C25	C	0.438337	-0.247503	0.245720
C26	C	0.372904	-0.247497	0.245741
C27	C	0.340232	-0.251675	0.302194
C28	C	0.373001	-0.255871	0.358627
C29	C	0.438435	-0.255881	0.358605
C30	C	0.471100	-0.251694	0.302145
C31	C	0.236560	-0.285141	0.342231
C32	C	0.171123	-0.285124	0.342259
C33	C	0.171139	-0.218157	0.262262
C34	C	0.236574	-0.218171	0.262238
C35	C	0.269281	-0.251666	0.302222
C36	C	0.905244	-0.387520	0.302140
C37	C	0.905257	-0.445634	0.302149
C38	C	0.945521	-0.805984	0.262182
C39	C	0.945545	-0.860589	0.262190
O40	O	0.979670	-0.888815	0.228177
N41	N	0.905460	-0.887916	0.302211
C42	C	0.865352	-0.860637	0.342230
O43	O	0.831260	-0.888895	0.376271
C44	C	0.865332	-0.806033	0.342224
C45	C	0.905415	-0.778709	0.302196
C46	C	0.985601	-0.778659	0.222158
C47	C	0.985576	-0.724059	0.222149
C48	C	0.945470	-0.696783	0.262164
C49	C	0.905390	-0.724108	0.302187
C50	C	0.825228	-0.778755	0.382246
C51	C	0.825211	-0.724148	0.382237
C52	C	0.865294	-0.696823	0.342209
C53	C	0.865259	-0.642232	0.342193
N54	N	0.905344	-0.614904	0.302173
C55	C	0.945450	-0.642180	0.262158
C56	C	0.865400	-0.975307	0.342239
C57	C	0.865417	-1.029910	0.342242
C58	C	0.945610	-1.029858	0.262204
C59	C	0.945590	-0.975254	0.262198
C60	C	0.905485	-0.947980	0.302219
C61	C	0.945393	-0.527515	0.262142
C62	C	0.945362	-0.472909	0.262134
C63	C	0.865172	-0.472966	0.342175
C64	C	0.865200	-0.527567	0.342180
C65	C	0.905315	-0.554840	0.302162
O66	O	0.831153	-0.613971	0.376190
O67	O	0.979542	-0.613915	0.228128
C68	C	1.068773	-0.251650	0.302242
C69	C	1.138414	-0.251638	0.302274
C70	C	0.905379	-0.251650	0.465592
C71	C	0.905391	-0.251638	0.535234
C72	C	0.905473	-0.115304	0.302212
C73	C	0.905525	-0.057190	0.302230
C74	C	0.905357	-0.251667	0.139381
C75	C	0.905466	-0.251531	0.069741
C76	C	0.945504	-0.284962	1.037038
C77	C	0.945493	-0.284979	0.971603
C78	C	0.905451	-0.251555	0.938872
C79	C	0.865405	-0.218122	0.971583
C80	C	0.865413	-0.218110	1.037017
C81	C	0.900533	-0.204469	0.835216
C82	C	0.900529	-0.204480	0.769783
C83	C	0.905422	-0.251592	0.737051
C84	C	0.910332	-0.298695	0.769761
C85	C	0.910340	-0.298683	0.835195
C86	C	0.905437	-0.251565	0.867920
C87	C	0.945450	-0.285044	0.633396
C88	C	0.945435	-0.285061	0.567960
C89	C	0.865350	-0.218200	0.567941
C90	C	0.865362	-0.218187	0.633376
C91	C	0.905416	-0.251608	0.666100
H92	H	0.263191	-0.312411	0.374791
O93	O	0.675475	-0.321325	0.385217
H94	H	0.662846	-0.362346	0.374390
O95	O	0.821967	-0.557044	0.385349
H96	H	0.794077	-0.528902	0.413174
H97	H	0.832761	-0.190962	0.660003
O98	O	0.135876	-0.321268	0.385407
H99	H	0.106124	-0.297938	0.417384
O100	O	0.337775	-0.260365	0.419525
H101	H	0.350296	-0.297592	0.442821
O102	O	0.271864	-0.182073	0.219074
H103	H	0.259369	-0.141047	0.229902
O104	O	0.895245	-0.153680	0.734505
H105	H	0.891835	-0.120918	0.768256
H106	H	0.144505	-0.190891	0.229707
O107	O	0.539462	-0.321324	0.385234
H108	H	0.573198	-0.344624	0.413022
H109	H	0.978063	-0.312259	0.660041
H110	H	0.832744	-0.190987	0.541292
H111	H	0.346228	-0.244083	0.199789
O112	O	0.473782	-0.260395	0.419467
H113	H	0.440076	-0.263294	0.458730
H114	H	1.018263	-0.800861	0.189573
O115	O	0.895260	-0.153652	0.870519
H116	H	0.891856	-0.120902	0.836783
H117	H	0.666855	-0.190971	0.229521
H118	H	0.978269	-1.052075	0.229624
O119	O	0.821913	-0.443542	0.385330
H120	H	0.832630	-0.453988	0.434519
H121	H	0.464933	-0.244098	0.199746
O122	O	0.988828	-0.945783	0.219033
H123	H	1.016720	-0.973928	0.191215
O124	O	0.822135	-0.945889	0.385400
H125	H	0.790270	-0.921057	0.357312
H126	H	0.914336	-0.337035	0.861824
H127	H	0.792585	-0.800993	0.414837
O128	O	0.915630	-0.349527	0.734499
H129	H	0.873654	-0.354910	0.704666
H130	H	0.832801	-0.190909	0.944929
O131	O	1.028813	-0.694591	0.178980
H132	H	1.060660	-0.669664	0.207061
O133	O	0.539503	-0.182119	0.218976
H134	H	0.488505	-0.187743	0.225702
O135	O	0.822180	-1.059380	0.385410
H136	H	0.794294	-1.031234	0.413233
H137	H	0.978118	-0.312178	1.063678
H138	H	0.792554	-0.701943	0.414829
H139	H	0.978003	-0.450663	0.229537
O140	O	0.988654	-0.556928	0.218975
H141	H	1.016512	-0.528746	0.191141
O142	O	0.822234	-0.182046	1.072295
H143	H	0.794389	-0.158804	1.038545
H144	H	0.978035	-0.312289	0.541334
O145	O	0.988685	-0.321031	0.936318
H146	H	1.016541	-0.344265	0.970066
