data_functionalizedCrystal
_audit_creation_method	'MofGen! by Chris Wilmer'
_symmetry_space_group_name_H-M	'P1'
_symmetry_Int_Tables_number	1
_symmetry_cell_setting	triclinic
loop_
_symmetry_equiv_pos_as_xyz
  x,y,z
_cell_length_a	23.096457
_cell_length_b	23.096457
_cell_length_c	15.698487
_cell_angle_alpha	60.001174
_cell_angle_beta	89.999579
_cell_angle_gamma	59.998275
loop_
_atom_site_label
_atom_site_type_symbol
_atom_site_fract_x
_atom_site_fract_y
_atom_site_fract_z
Zr1	Zr	0.557749	0.633762	-0.111802
O2	O	0.465295	0.754553	-0.247811
O3	O	0.586093	0.512972	-0.070110
O4	O	0.586086	0.633765	-0.247821
O5	O	0.465304	0.633758	0.070085
O6	O	0.681367	0.633767	-0.247826
O7	O	0.465301	0.633760	-0.070100
O8	O	0.681378	0.417690	0.070067
O9	O	0.465293	0.849834	-0.247809
O10	O	0.669286	0.562656	-0.052330
O11	O	0.598181	0.562653	0.052292
O12	O	0.598174	0.704871	-0.156940
O13	O	0.527069	0.704868	-0.052318
Zr14	Zr	0.709715	0.633761	0.111768
Zr15	Zr	0.709710	0.633765	-0.111810
Zr16	Zr	0.557754	0.633759	0.111777
Zr17	Zr	0.557746	0.785725	-0.111797
Zr18	Zr	0.709718	0.481799	0.111764
O19	O	0.681371	0.754552	0.070076
O20	O	0.681364	0.754557	-0.247823
O21	O	0.465302	0.754548	0.070088
O22	O	0.802169	0.512971	0.247778
O23	O	0.802162	0.512976	-0.070121
O24	O	0.586100	0.512967	0.247790
O25	O	0.802160	0.633766	-0.070118
O26	O	0.681378	0.633759	0.247788
O27	O	0.586097	0.633757	0.247793
O28	O	0.802163	0.633764	0.070067
O29	O	0.586082	0.849836	-0.247815
O30	O	0.681382	0.417687	0.247782
O31	O	0.802171	0.417689	0.247775
O32	O	0.802167	0.417692	0.070061
O33	O	0.465297	0.849832	-0.070094
O34	O	0.586086	0.849834	-0.070100
O35	O	0.669290	0.562653	0.156907
O36	O	0.740395	0.562656	0.052285
O37	O	0.669283	0.704871	-0.052326
O38	O	0.598178	0.704868	0.052296
C39	C	0.633736	0.443680	-0.000022
C40	C	0.633737	0.379168	-0.000024
C41	C	0.443652	0.633759	-0.000006
C42	C	0.379140	0.633758	-0.000003
C43	C	0.670849	-0.081349	-0.054611
C44	C	0.670847	-0.020729	-0.054620
C45	C	0.633733	0.009582	-0.000009
C46	C	0.596602	-0.020717	0.054595
C47	C	0.596599	-0.081330	0.054594
N48	N	0.638887	0.071975	0.088863
N49	N	0.638894	0.129553	0.088862
C50	C	0.633738	0.192208	-0.000005
N51	N	0.628589	0.195101	-0.088870
N52	N	0.628586	0.137515	-0.088867
C53	C	0.633731	0.075308	-0.000002
C54	C	0.670860	0.288235	-0.054622
C55	C	0.670853	0.348860	-0.054635
C56	C	0.596613	0.348865	0.054591
C57	C	0.596615	0.288247	0.054593
C58	C	0.633743	0.257933	-0.000011
C59	C	0.385954	0.559525	0.054593
C60	C	0.325339	0.559524	0.054597
C61	C	0.257910	0.633760	-0.000014
C62	C	0.251098	0.708002	-0.054612
C63	C	0.311713	0.708001	-0.054607
N64	N	0.135111	0.689018	-0.088893
N65	N	0.077531	0.689014	-0.088897
C66	C	0.075277	0.633767	-0.000033
N67	N	0.132783	0.578512	0.088834
N68	N	0.190369	0.578514	0.088835
C69	C	0.192178	0.633769	-0.000026
C70	C	0.016367	0.559528	0.054573
C71	C	-0.044251	0.559530	0.054580
C72	C	-0.118491	0.708010	-0.054639
C73	C	-0.057873	0.708006	-0.054637
C74	C	0.009553	0.633763	-0.000033
C75	C	0.823812	0.633765	-0.000027
C76	C	0.888324	0.633766	-0.000030
C77	C	0.633726	0.633766	-0.279679
C78	C	0.633724	0.633768	-0.374593
C79	C	0.633728	0.823844	-0.000011
C80	C	0.633727	0.888356	-0.000010
C81	C	0.633740	0.633754	-0.548358
C82	C	0.633733	0.633758	-0.451660
C83	C	0.633738	0.633757	0.279645
C84	C	0.633740	0.633756	0.374560
C85	C	0.823816	0.443683	-0.000032
C86	C	0.888329	0.379172	-0.000037
C87	C	0.633742	0.443675	0.279640
C88	C	0.633746	0.379162	0.374553
C89	C	0.823823	0.443678	0.279630
C90	C	0.888337	0.379166	0.374539
C91	C	0.443641	0.823845	-0.279663
C92	C	0.379126	0.888358	-0.374573
C93	C	0.443648	0.823841	-0.000001
C94	C	0.379135	0.888352	0.000004
C95	C	0.633722	0.823849	-0.279673
C96	C	0.633718	0.888362	-0.374586
C97	C	0.881507	0.348877	-0.054657
C98	C	0.942118	0.288271	-0.054683
C99	C	1.009550	0.257956	-0.000082
C100	C	1.016371	0.288257	0.054539
C101	C	0.955761	0.348866	0.054558
C102	C	0.670865	0.348865	0.473742
C103	C	0.670866	0.288256	0.562932
C104	C	0.633751	0.257941	0.552930
C105	C	0.596626	0.288243	0.453730
C106	C	0.596622	0.348855	0.364543
C107	C	0.955757	0.348872	0.364498
C108	C	1.016381	0.288264	0.453667
C109	C	1.009585	0.257947	0.552876
C110	C	0.942159	0.288247	0.562916
C111	C	0.881536	0.348858	0.473747
C112	C	0.311707	0.918660	-0.364532
C113	C	0.251083	0.979286	-0.453701
C114	C	0.257879	1.009606	-0.552910
C115	C	0.325305	0.979302	-0.562949
C116	C	0.385928	0.918681	-0.473781
C117	C	0.385957	0.918653	0.054614
C118	C	0.325346	0.979276	0.054615
C119	C	0.257914	1.009593	0.000012
C120	C	0.251093	0.979290	-0.054605
C121	C	0.311703	0.918672	-0.054612
C122	C	0.670841	0.918659	-0.364551
C123	C	0.670852	0.979268	-0.453723
C124	C	0.633735	1.009584	-0.552930
C125	C	0.596611	0.979282	-0.562963
C126	C	0.596605	0.918669	-0.473792
H127	H	0.701078	-0.106027	-0.099075
H128	H	0.701089	0.263555	-0.099088
H129	H	0.306138	0.894002	-0.099079
H130	H	0.566392	1.003975	-0.643749
H131	H	1.071283	0.263565	0.098992
H132	H	0.566389	0.263577	0.099061
H133	H	0.196181	1.003983	-0.099061
H134	H	0.701078	0.003942	-0.099085
H135	H	0.566397	0.373515	0.283782
H136	H	0.071270	0.499074	0.099056
H137	H	0.330830	1.003997	-0.643735
H138	H	0.306160	0.768452	-0.099062
H139	H	0.306160	0.893976	-0.283759
H140	H	0.701081	1.003934	-0.445533
H141	H	0.566382	0.003968	0.099058
H142	H	0.196193	0.768445	-0.099076
H143	H	0.961326	0.373524	0.099042
H144	H	-0.173392	0.768454	-0.099106
H145	H	0.701090	0.373541	0.481906
H146	H	0.440852	0.499070	0.099049
H147	H	0.701100	0.263591	0.643695
H148	H	0.701080	0.373530	-0.099104
H149	H	0.196188	1.003950	-0.445506
H150	H	0.633760	0.208586	0.625560
H151	H	0.701066	0.893984	-0.283780
H152	H	0.566368	-0.105995	0.099058
H153	H	0.330887	0.499073	0.099056
H154	H	0.566372	0.894009	-0.481978
H155	H	0.961304	0.373547	0.283725
H156	H	0.208510	1.058968	-0.625508
H157	H	-0.038696	0.499078	0.099046
H158	H	0.566408	0.263551	0.445602
H159	H	1.071277	0.263599	0.445475
H160	H	0.826605	0.373559	-0.099132
H161	H	1.058954	0.208593	0.625474
H162	H	0.936636	0.263554	0.643703
H163	H	-0.063425	0.768454	-0.099102
H164	H	0.936550	0.263607	-0.099161
H165	H	0.633745	1.058939	-0.625530
H166	H	0.330914	1.003939	0.099095
H167	H	0.566389	0.373547	0.099051
H168	H	1.058897	0.208603	-0.000105
H169	H	0.826642	0.373516	0.481938
H170	H	0.440822	0.894010	-0.481969
H171	H	0.440859	0.893974	0.099086
H172	H	0.208567	1.058952	0.000026
