data_functionalizedCrystal
_audit_creation_method	'MofGen! by Chris Wilmer'
_symmetry_space_group_name_H-M	'P1'
_symmetry_Int_Tables_number	1
_symmetry_cell_setting	triclinic
loop_
_symmetry_equiv_pos_as_xyz
  x,y,z
_cell_length_a	14.971482
_cell_length_b	16.974813
_cell_length_c	13.448316
_cell_angle_alpha	86.338833
_cell_angle_beta	89.993798
_cell_angle_gamma	83.503742
loop_
_atom_site_label
_atom_site_type_symbol
_atom_site_fract_x
_atom_site_fract_y
_atom_site_fract_z
O1	O	1.186698	0.103029	-0.090968
O2	O	0.926268	0.115372	-0.091966
O3	O	1.063743	-0.005896	-0.082200
O4	O	1.049223	0.224297	-0.100734
O5	O	1.063726	-0.005904	0.083184
O6	O	0.926251	0.115364	0.073418
O7	O	1.186681	0.103022	0.074416
Cu8	Cu	1.056464	0.109192	0.089018
Cu9	Cu	1.056485	0.109201	-0.106568
O10	O	1.049206	0.224290	0.064650
C11	C	0.892936	0.114817	-0.009230
C12	C	0.793643	0.113164	-0.009099
C13	C	0.746990	0.112382	0.081116
C14	C	0.653696	0.110816	0.081243
C15	C	0.607054	0.110039	-0.008846
C16	C	0.653713	0.110819	-0.099068
C17	C	0.747007	0.112379	-0.099193
C18	C	0.459259	0.107570	-0.098800
C19	C	0.365959	0.106012	-0.098675
C20	C	0.365948	0.106008	0.081637
C21	C	0.459242	0.107567	0.081511
C22	C	0.505894	0.108349	-0.008711
C23	C	1.063182	-0.035359	0.002862
C24	C	1.061525	-0.123138	0.009922
C25	C	1.060758	-0.164368	-0.076911
C26	C	1.059195	-0.246844	-0.070273
C27	C	1.058406	-0.288090	0.023199
C28	C	1.059170	-0.246854	0.110038
C29	C	1.060727	-0.164378	0.103400
C30	C	1.053745	-0.534757	0.052720
C31	C	1.052191	-0.617239	0.059352
C32	C	1.052214	-0.617223	-0.120960
C33	C	1.053776	-0.534746	-0.127590
C34	C	1.054536	-0.493517	-0.040751
N35	N	1.056812	-0.372395	0.029985
N36	N	1.056124	-0.409213	-0.047539
C37	C	1.220013	0.103577	-0.008322
C38	C	1.319307	0.105229	-0.008460
C39	C	1.049767	0.253753	-0.020414
C40	C	1.051424	0.341531	-0.027481
N41	N	1.056457	0.109186	0.226583
N42	N	1.056500	0.109202	-0.244132
C43	C	1.117349	0.055510	0.282946
C44	C	1.117355	0.055510	0.387049
C45	C	1.056471	0.109189	0.434787
C46	C	0.995572	0.162867	0.378417
C47	C	0.995563	0.162863	0.274316
C48	C	0.995597	0.162872	0.595397
C49	C	0.995607	0.162877	0.699505
C50	C	1.117389	0.055519	0.708130
C51	C	1.117380	0.055515	0.604029
C52	C	1.056481	0.109194	0.547666
H53	H	0.497214	0.108205	0.154869
Cl54	Cl	1.054686	-0.482935	0.161891
Cl55	Cl	1.054770	-0.482900	-0.245103
Cl56	Cl	1.193947	-0.011961	0.778990
Cl57	Cl	0.805656	0.113359	-0.212611
Cl58	Cl	1.051205	-0.669090	0.176868
Cl59	Cl	1.061756	-0.112525	-0.194424
H60	H	0.615731	0.110181	-0.172419
Cl61	Cl	0.517907	0.108551	-0.212224
H62	H	1.051594	-0.650801	-0.191660
H63	H	1.058574	-0.280411	-0.140982
H64	H	0.784958	0.113021	0.154477
Cl65	Cl	0.919027	0.230347	0.438429
Cl66	Cl	0.919062	0.230361	0.759510
H67	H	0.327959	0.105372	0.155099
Cl68	Cl	1.193898	-0.011973	0.222943
H69	H	1.166960	0.011809	0.565161
Cl70	Cl	0.307325	0.105033	-0.211931
Cl71	Cl	1.193906	-0.011970	0.457907
H72	H	0.946004	0.206581	0.549509
H73	H	1.058522	-0.280442	0.186145
Cl74	Cl	0.595049	0.109847	0.194660
H75	H	0.945977	0.206570	0.228426
Cl76	Cl	1.061690	-0.112546	0.212566
