data_functionalizedCrystal
_audit_creation_method	'MofGen! by Chris Wilmer'
_symmetry_space_group_name_H-M	'P1'
_symmetry_Int_Tables_number	1
_symmetry_cell_setting	triclinic
loop_
_symmetry_equiv_pos_as_xyz
  x,y,z
_cell_length_a	14.971486
_cell_length_b	10.654550
_cell_length_c	13.448316
_cell_angle_alpha	89.998983
_cell_angle_beta	89.996447
_cell_angle_gamma	84.049516
loop_
_atom_site_label
_atom_site_type_symbol
_atom_site_fract_x
_atom_site_fract_y
_atom_site_fract_z
O1	O	1.187841	0.163651	-0.082575
O2	O	1.687841	0.663651	0.417425
O3	O	0.927547	0.183249	-0.082602
O4	O	1.427547	0.683249	0.417398
O5	O	1.063679	-0.009353	-0.082584
O6	O	1.563679	0.490647	0.417416
O7	O	1.051709	0.356253	-0.082593
O8	O	1.551709	0.856253	0.417407
O9	O	1.063656	-0.009348	0.082800
O10	O	1.563656	0.490652	0.582800
O11	O	0.927524	0.183254	0.082782
O12	O	1.427524	0.683254	0.582782
O13	O	1.187818	0.163656	0.082809
O14	O	1.687818	0.663656	0.582809
Cu15	Cu	1.057669	0.173455	0.097896
Cu16	Cu	1.557669	0.673455	0.597896
Cu17	Cu	1.057696	0.173450	-0.097689
Cu18	Cu	1.557696	0.673450	0.402311
O19	O	1.051686	0.356258	0.082791
O20	O	1.551686	0.856258	0.582791
C21	C	0.894206	0.182375	0.000087
C22	C	1.394206	0.682375	0.500087
C23	C	0.794895	0.179749	0.000077
C24	C	1.294895	0.679749	0.500077
C25	C	1.062788	-0.056139	0.000107
C26	C	1.562788	0.443861	0.500107
C27	C	1.060159	-0.195555	0.000103
C28	C	1.560159	0.304445	0.500103
C29	C	0.738285	0.292898	0.000075
C30	C	1.238285	0.792898	0.500075
C31	C	0.644972	0.290422	0.000090
C32	C	1.144972	0.790422	0.500090
C33	C	0.608271	0.174797	0.000099
C34	C	1.108271	0.674797	0.500099
C35	C	0.664888	0.061639	0.000104
C36	C	1.164888	0.561639	0.500104
C37	C	0.758199	0.064116	0.000096
C38	C	1.258199	0.564116	0.500096
C39	C	0.470397	0.056485	0.000117
C40	C	0.970397	0.556485	0.500117
C41	C	0.377080	0.054007	0.000123
C42	C	0.877080	0.554007	0.500123
C43	C	0.357171	0.282791	0.000112
C44	C	0.857171	0.782791	0.500112
C45	C	0.450482	0.285268	0.000104
C46	C	0.950482	0.785268	0.500104
C47	C	0.507092	0.172110	0.000106
C48	C	1.007092	0.672110	0.500106
C49	C	1.140311	-0.275900	0.000114
C50	C	1.640311	0.224100	0.500114
C51	C	1.137835	-0.406894	0.000107
C52	C	1.637835	0.093106	0.500107
C53	C	0.975048	-0.377185	0.000081
C54	C	1.475048	0.122815	0.500081
C55	C	0.977525	-0.246193	0.000082
C56	C	1.477525	0.253807	0.500082
C57	C	1.234295	-0.293054	0.000133
C58	C	1.734295	0.206946	0.500133
C59	C	1.231819	-0.424048	0.000126
C60	C	1.731819	0.075952	0.500126
C61	C	1.221159	0.164530	0.000118
C62	C	1.721159	0.664530	0.500118
C63	C	1.320470	0.167156	0.000122
C64	C	1.820470	0.667156	0.500122
C65	C	1.052577	0.403044	0.000098
C66	C	1.552577	0.903044	0.500098
C67	C	1.055206	0.542460	0.000096
C68	C	1.555206	1.042460	0.500096
N69	N	1.057656	0.173459	0.235461
N70	N	1.557656	0.673459	0.735461
N71	N	1.057716	0.173436	-0.235253
N72	N	1.557716	0.673436	0.264747
C73	C	1.118004	0.088187	0.712687
C74	C	1.618004	0.588187	1.212687
C75	C	1.117996	0.088195	0.608584
C76	C	1.617996	0.588195	1.108584
C77	C	1.057696	0.173448	0.556542
C78	C	1.557696	0.673448	1.056542
C79	C	0.997405	0.258707	0.608609
C80	C	1.497405	0.758707	1.108609
C81	C	0.997418	0.258703	0.712710
C82	C	1.497418	0.758703	1.212710
C83	C	0.997382	0.258706	0.391629
C84	C	1.497382	0.758706	0.891629
C85	C	0.997368	0.258708	0.287520
C86	C	1.497368	0.758708	0.787520
C87	C	1.117961	0.088198	0.287502
C88	C	1.617961	0.588198	0.787502
C89	C	1.117973	0.088194	0.391604
C90	C	1.617973	0.588194	0.891604
C91	C	1.057681	0.173452	0.443663
C92	C	1.557681	0.673452	0.943663
H93	H	0.768160	0.387053	0.000067
H94	H	1.268160	0.887053	0.500067
F95	F	1.268956	-0.484115	-0.093203
F96	F	1.768956	0.015885	0.406797
F97	F	0.892216	-0.160687	0.000048
F98	F	1.392216	0.339313	0.500048
H99	H	0.598884	0.382560	0.000088
H100	H	1.098884	0.882560	0.500088
H101	H	1.167070	0.018769	0.433976
H102	H	1.667070	0.518769	0.933976
H103	H	1.167104	0.018759	0.755052
H104	H	1.667104	0.518759	1.255052
H105	H	0.480361	0.379420	0.000087
H106	H	0.980361	0.879420	0.500087
F107	F	0.296921	0.403223	0.000111
F108	F	0.796921	0.903223	0.500111
F109	F	0.338021	-0.069054	0.000158
F110	F	0.838021	0.430946	0.500158
H111	H	0.516488	-0.035661	0.000121
H112	H	1.016488	0.464339	0.500121
F113	F	0.625825	-0.061419	0.000120
F114	F	1.125825	0.438581	0.500120
H115	H	1.167053	0.018779	0.245109
H116	H	1.667053	0.518779	0.745109
H117	H	1.167088	0.018779	0.566197
H118	H	1.667088	0.518779	1.066197
F119	F	0.933253	0.349442	0.768115
F120	F	1.433253	0.849442	1.268115
F121	F	1.273387	-0.246895	0.093479
F122	F	1.773387	0.253105	0.593479
H123	H	1.267221	-0.466186	0.069341
H124	H	1.767221	0.033814	0.569341
F125	F	0.933232	0.349447	0.553222
F126	F	1.433232	0.849447	1.053222
F127	F	0.933214	0.349452	0.447030
F128	F	1.433214	0.849452	0.947030
H129	H	0.804290	-0.028022	0.000096
H130	H	1.304290	0.471978	0.500096
H131	H	1.271065	-0.264092	-0.069071
H132	H	1.771065	0.235908	0.430929
F133	F	0.887108	-0.431089	0.000056
F134	F	1.387108	0.068911	0.500056
H135	H	0.948266	0.328132	0.245153
H136	H	1.448266	0.828132	0.745153
