data_functionalizedCrystal
_audit_creation_method	'MofGen! by Chris Wilmer'
_symmetry_space_group_name_H-M	'P1'
_symmetry_Int_Tables_number	1
_symmetry_cell_setting	triclinic
loop_
_symmetry_equiv_pos_as_xyz
  x,y,z
_cell_length_a	15.995292
_cell_length_b	12.811457
_cell_length_c	11.295675
_cell_angle_alpha	99.529361
_cell_angle_beta	85.902553
_cell_angle_gamma	83.757111
loop_
_atom_site_label
_atom_site_type_symbol
_atom_site_fract_x
_atom_site_fract_y
_atom_site_fract_z
O1	O	0.109838	1.396325	0.051775
O2	O	0.123988	1.088367	0.018518
O3	O	-0.005000	1.250796	0.036057
O4	O	0.238827	1.233896	0.034236
O5	O	-0.016312	1.265029	0.235639
O6	O	0.112676	1.102600	0.218099
O7	O	0.098527	1.410558	0.251357
Cu8	Cu	0.104568	1.257878	0.252952
Cu9	Cu	0.117946	1.241046	0.016923
O10	O	0.227515	1.248129	0.233817
C11	C	0.117886	1.056076	0.114053
C12	C	0.116548	0.938655	0.101371
C13	C	0.101683	0.733527	0.295151
C14	C	0.100425	0.623200	0.283241
C15	C	0.112767	0.607672	0.065645
C16	C	0.114025	0.718000	0.077555
C17	C	0.108484	0.780923	0.192311
C18	C	0.109749	0.891251	0.204219
C19	C	0.122084	0.875723	-0.013376
C20	C	0.120826	0.765395	-0.025285
C21	C	-0.041850	1.257224	0.135771
C22	C	-0.134797	1.255162	0.135539
C23	C	-0.472516	1.247581	0.134731
C24	C	-0.449541	1.364850	0.147838
C25	C	-0.352846	1.367046	0.147625
C26	C	-0.304969	1.251343	0.135133
C27	C	-0.327455	1.184602	0.014836
C28	C	-0.424236	1.183184	0.014592
C29	C	-0.436951	1.196976	0.241295
C30	C	-0.340555	1.201428	0.243266
C31	C	-0.210278	1.253462	0.135355
C32	C	-0.567206	1.245458	0.134501
C33	C	0.264364	1.241700	0.134101
C34	C	0.357312	1.243762	0.134325
N35	N	0.095159	1.269725	0.418962
C36	C	0.104628	1.442848	0.155819
C37	C	0.105967	1.560269	0.168493
N38	N	0.127349	1.229208	-0.149086
C39	C	0.195126	1.143809	0.654708
C40	C	0.188008	1.152786	0.780337
C41	C	0.073807	1.296660	0.795852
C42	C	0.080926	1.287683	0.670223
C43	C	0.141587	1.211254	0.599655
C44	C	0.148701	1.202273	0.474023
C45	C	0.034505	1.346152	0.489541
C46	C	0.027386	1.355129	0.615170
H47	H	0.094891	0.584615	0.366984
C48	C	-0.294018	1.231411	-0.093812
H49	H	-0.307936	1.190472	-0.166196
H50	H	-0.319068	1.303100	-0.087088
H51	H	-0.234414	1.229523	-0.095189
H52	H	-0.450754	1.110735	0.232746
H53	H	0.117263	0.556424	-0.027783
H54	H	0.125333	0.714149	-0.118716
C55	C	-0.024368	1.420374	0.428984
H56	H	-0.011433	1.404096	0.344058
H57	H	-0.081401	1.410403	0.448327
H58	H	-0.016571	1.492425	0.457196
H59	H	0.127627	0.914323	-0.097116
C60	C	-0.443196	1.066571	-0.004945
H61	H	-0.502418	1.064916	-0.005219
H62	H	-0.415799	1.029760	-0.079975
H63	H	-0.423076	1.033100	0.058322
H64	H	0.024424	1.358894	0.853326
C65	C	0.103636	0.960469	0.330443
H66	H	0.099392	0.916438	0.389984
H67	H	0.152683	0.995763	0.338766
H68	H	0.055041	1.011900	0.340461
H69	H	-0.482291	1.415867	0.234449
C70	C	0.095572	0.802749	0.421373
H71	H	0.091333	0.758720	0.480917
H72	H	0.144618	0.838045	0.429689
H73	H	0.046975	0.854177	0.431391
H74	H	-0.338574	1.418776	0.234276
H75	H	0.244513	1.081570	0.597250
H76	H	-0.329926	1.407384	0.070772
C77	C	-0.482669	1.417729	0.044600
H78	H	-0.510438	1.368649	-0.006459
H79	H	-0.521328	1.479113	0.077231
H80	H	-0.436671	1.438029	-0.000684
C81	C	-0.454084	1.229759	-0.094610
H82	H	-0.407065	1.249378	-0.138398
H83	H	-0.479386	1.177741	-0.145405
H84	H	-0.494202	1.290895	-0.067402
H85	H	-0.295120	1.099158	0.001406
H86	H	-0.307750	1.117467	0.241032
C87	C	0.215428	1.118210	0.396400
H88	H	0.246300	1.079337	0.447187
H89	H	0.188188	1.070684	0.342645
H90	H	0.252976	1.152758	0.351497
C91	C	-0.039338	1.439190	0.692800
H92	H	-0.035915	1.434873	0.775505
H93	H	-0.029243	1.508307	0.679821
H94	H	-0.094031	1.426232	0.670975
C95	C	-0.481863	1.254905	0.363353
H96	H	-0.459468	1.223134	0.426437
H97	H	-0.473195	1.327947	0.374712
H98	H	-0.540641	1.249361	0.364211
C99	C	-0.322078	1.267193	0.363393
H100	H	-0.292795	1.324828	0.347726
H101	H	-0.373743	1.294292	0.410729
H102	H	-0.288274	1.223031	0.405826
H103	H	0.231606	1.097866	0.825158
