data_functionalizedCrystal
_audit_creation_method	'MofGen! by Chris Wilmer'
_symmetry_space_group_name_H-M	'P1'
_symmetry_Int_Tables_number	1
_symmetry_cell_setting	triclinic
loop_
_symmetry_equiv_pos_as_xyz
  x,y,z
_cell_length_a	10.654550
_cell_length_b	10.723022
_cell_length_c	9.198806
_cell_angle_alpha	89.997988
_cell_angle_beta	89.992525
_cell_angle_gamma	84.476064
loop_
_atom_site_label
_atom_site_type_symbol
_atom_site_fract_x
_atom_site_fract_y
_atom_site_fract_z
O1	O	1.667813	0.175272	-0.121008
O2	O	1.302332	0.191971	-0.120984
O3	O	1.493504	0.002047	-0.120991
O4	O	1.476641	0.365197	-0.121001
O5	O	1.493489	0.002046	0.120794
O6	O	1.302317	0.191971	0.120801
O7	O	1.667798	0.175272	0.120777
Cu8	Cu	1.485056	0.183621	0.142866
Cu9	Cu	1.485074	0.183622	-0.143073
O10	O	1.476626	0.365196	0.120784
C11	C	1.255527	0.190745	-0.000089
C12	C	1.116084	0.187076	-0.000080
C13	C	1.492270	-0.044454	-0.000100
C14	C	1.488599	-0.183008	-0.000105
C15	C	1.378357	-0.231586	-0.000101
C16	C	1.374561	-0.374789	-0.000106
C17	C	1.036581	0.298901	-0.000104
C18	C	0.905561	0.295447	-0.000129
C19	C	0.933559	0.068333	-0.000112
C20	C	1.064577	0.071789	-0.000076
C21	C	1.088088	0.414188	-0.000107
C22	C	1.008583	0.526022	-0.000133
C23	C	0.877563	0.522568	-0.000158
C24	C	0.826047	0.407280	-0.000158
C25	C	1.714603	0.176498	-0.000122
C26	C	1.854046	0.180166	-0.000140
C27	C	1.477860	0.411696	-0.000110
C28	C	1.481531	0.550251	-0.000115
N29	N	1.485052	0.183620	0.343980
N30	N	1.485087	0.183613	-0.344187
C31	C	1.565320	0.103524	0.416174
C32	C	1.565340	0.103520	0.583586
H33	H	1.286785	-0.167157	-0.000086
H34	H	1.050537	0.619886	-0.000122
H35	H	0.719360	0.404476	-0.000155
F36	F	0.878727	-0.054356	-0.000116
H37	H	1.416368	0.252194	0.593738
H38	H	1.416342	0.252185	0.406110
F39	F	1.251184	-0.429454	-0.000111
H40	H	1.634022	0.034949	0.354045
H41	H	1.575924	-0.407931	-0.000173
H42	H	1.580171	-0.247437	-0.000107
H43	H	0.812833	0.613628	-0.000165
H44	H	1.194769	0.417014	-0.000094
H45	H	1.129311	-0.019269	-0.000060
F46	F	1.655171	0.013893	0.664731
