data_functionalizedCrystal
_audit_creation_method	'MofGen! by Chris Wilmer'
_symmetry_space_group_name_H-M	'P1'
_symmetry_Int_Tables_number	1
_symmetry_cell_setting	triclinic
loop_
_symmetry_equiv_pos_as_xyz
  x,y,z
_cell_length_a	10.654550
_cell_length_b	13.596369
_cell_length_c	10.654551
_cell_angle_alpha	89.998604
_cell_angle_beta	84.485180
_cell_angle_gamma	90.002715
loop_
_atom_site_label
_atom_site_type_symbol
_atom_site_fract_x
_atom_site_fract_y
_atom_site_fract_z
O1	O	1.667845	0.081714	0.176391
O2	O	1.302367	0.081731	0.193197
O3	O	1.493508	0.081720	0.002055
O4	O	1.476704	0.081725	0.367533
O5	O	1.493485	-0.081863	0.002065
O6	O	1.302343	-0.081851	0.193207
O7	O	1.667822	-0.081869	0.176401
Zn8	Zn	1.485079	-0.107833	0.184806
Zn9	Zn	1.485110	0.107695	0.184792
O10	O	1.476680	-0.081858	0.367543
C11	C	1.255557	-0.000058	0.191968
C12	C	1.116114	-0.000051	0.188276
C13	C	1.036629	-0.000052	0.300818
C14	C	0.905608	-0.000069	0.297341
C15	C	0.933570	-0.000080	0.068772
C16	C	1.064589	-0.000070	0.072249
N17	N	1.485067	-0.254924	0.184815
C18	C	1.485073	-0.343922	0.184817
C19	C	1.485085	-0.455574	0.184809
C20	C	1.485102	-0.544564	0.184795
C21	C	1.485116	-0.656223	0.184787
C22	C	1.714632	-0.000078	0.177630
C23	C	1.854075	-0.000078	0.181322
C24	C	1.492262	-0.000070	-0.044738
C25	C	1.488570	-0.000065	-0.184181
N26	N	1.485132	0.254787	0.184773
C27	C	1.486850	0.089105	-0.249691
C28	C	1.483370	0.089106	-0.380711
C29	C	1.483335	-0.089241	-0.380702
C30	C	1.486806	-0.089241	-0.249683
C31	C	1.477926	-0.000066	0.414336
C32	C	1.481619	-0.000064	0.553779
H33	H	0.891602	-0.000101	-0.025693
H34	H	1.078576	-0.000044	0.395294
C35	C	0.819372	0.000137	0.419572
C36	C	0.842780	0.084319	0.489335
C37	C	0.763353	0.084547	0.601938
H38	H	0.835035	-0.056835	0.467257
H39	H	0.733943	0.000179	0.400943
H40	H	0.928190	0.084268	0.507967
H41	H	0.827110	0.141304	0.441687
H42	H	0.677924	0.084589	0.583309
H43	H	0.779023	0.027572	0.649612
H44	H	0.779217	0.141668	0.649280
C45	C	1.150960	-0.000268	-0.049906
C46	C	1.226975	-0.084435	-0.054589
C47	C	1.306543	-0.084661	-0.167099
H48	H	1.202767	0.056713	-0.053422
H49	H	1.101555	-0.000326	-0.119541
H50	H	1.276375	-0.084368	0.015028
H51	H	1.175202	-0.141430	-0.051094
H52	H	1.257139	-0.084720	-0.236735
H53	H	1.358342	-0.027676	-0.170605
H54	H	1.358120	-0.141772	-0.170297
H55	H	1.488282	0.161718	-0.196363
C56	C	1.481574	0.186024	-0.451618
C57	C	1.483891	0.264114	-0.366210
C58	C	1.482252	0.353412	-0.431484
H59	H	1.407129	0.189878	-0.493791
H60	H	1.553357	0.189779	-0.511649
H61	H	1.412115	0.260361	-0.306202
H62	H	1.558330	0.260292	-0.324033
H63	H	1.554035	0.357168	-0.491514
H64	H	1.407806	0.357257	-0.473655
H65	H	1.483835	0.406407	-0.373546
C66	C	1.481240	-0.185983	-0.451962
C67	C	1.371408	-0.191179	-0.514025
C68	C	1.369449	-0.280278	-0.579694
H69	H	1.482692	-0.239174	-0.394317
H70	H	1.552958	-0.189697	-0.512076
H71	H	1.299708	-0.187474	-0.453917
H72	H	1.369932	-0.138008	-0.571690
H73	H	1.441168	-0.283993	-0.639808
H74	H	1.370905	-0.333462	-0.522041
H75	H	1.294936	-0.283812	-0.621821
C76	C	1.488731	-0.186163	-0.178782
C77	C	1.486487	-0.264260	-0.264189
C78	C	1.488269	-0.353554	-0.198923
H79	H	1.416994	-0.190001	-0.118730
H80	H	1.563220	-0.189928	-0.136639
H81	H	1.412006	-0.260497	-0.306312
H82	H	1.558219	-0.260455	-0.324243
H83	H	1.562758	-0.357318	-0.156780
H84	H	1.416531	-0.357381	-0.138873
H85	H	1.486758	-0.406553	-0.256863
