data_functionalizedCrystal
_audit_creation_method	'MofGen! by Chris Wilmer'
_symmetry_space_group_name_H-M	'P1'
_symmetry_Int_Tables_number	1
_symmetry_cell_setting	triclinic
loop_
_symmetry_equiv_pos_as_xyz
  x,y,z
_cell_length_a	19.851628
_cell_length_b	14.446369
_cell_length_c	14.446369
_cell_angle_alpha	60.000250
_cell_angle_beta	90.001668
_cell_angle_gamma	60.005192
loop_
_atom_site_label
_atom_site_type_symbol
_atom_site_fract_x
_atom_site_fract_y
_atom_site_fract_z
Zr1	Zr	0.648908	1.013340	-0.121569
O2	O	0.541355	1.206433	-0.269371
O3	O	0.681877	0.820228	-0.076254
O4	O	0.681879	1.013337	-0.269373
O5	O	0.541353	1.013333	0.076077
O6	O	0.792728	1.013355	-0.269382
O7	O	0.541353	1.013325	-0.076252
O8	O	0.792725	0.667919	0.076073
O9	O	0.541356	1.358769	-0.269378
O10	O	0.778665	0.899678	-0.056941
O11	O	0.695940	0.899671	0.056746
O12	O	0.695941	1.127031	-0.170627
O13	O	0.613216	1.127024	-0.056939
Zr14	Zr	0.825698	1.013382	0.121364
Zr15	Zr	0.825699	1.013368	-0.121583
Zr16	Zr	0.648907	1.013353	0.121377
Zr17	Zr	0.648909	1.256298	-0.121581
Zr18	Zr	0.825697	0.770424	0.121375
O19	O	0.792729	1.206493	0.076048
O20	O	0.792729	1.206474	-0.269391
O21	O	0.541355	1.206452	0.076068
O22	O	0.933251	0.820288	0.269166
O23	O	0.933251	0.820269	-0.076273
O24	O	0.681877	0.820247	0.269185
O25	O	0.933253	1.013388	-0.076282
O26	O	0.792727	1.013384	0.269168
O27	O	0.681878	1.013367	0.269176
O28	O	0.933253	1.013397	0.076047
O29	O	0.681881	1.358792	-0.269389
O30	O	0.792725	0.667930	0.269183
O31	O	0.933250	0.667952	0.269173
O32	O	0.933250	0.667942	0.076062
O33	O	0.541356	1.358780	-0.076268
O34	O	0.681881	1.358802	-0.076279
O35	O	0.778665	0.899690	0.170421
O36	O	0.861390	0.899697	0.056734
O37	O	0.778666	1.127051	-0.056952
O38	O	0.695941	1.127044	0.056736
C39	C	0.737301	0.709457	-0.000089
C40	C	0.737300	0.606315	-0.000084
C41	C	0.685375	0.459301	0.071947
C42	C	0.685093	0.566921	0.071656
C43	C	0.699239	0.655299	-0.123616
C44	C	0.698849	0.548066	-0.123242
C45	C	0.827323	0.372875	0.050354
C46	C	0.827191	0.479026	0.052874
C47	C	0.516164	1.013325	-0.000086
C48	C	0.441112	1.013313	-0.000080
C49	C	0.304850	0.889379	0.061892
C50	C	0.237402	0.951349	0.106818
C51	C	0.303681	1.013347	-0.000095
C52	C	0.237394	0.951369	-0.044983
C53	C	0.170931	1.013370	-0.000108
C54	C	0.237221	1.075317	0.044894
C55	C	0.237223	1.075320	-0.106966
C56	C	0.169762	1.137380	-0.062066
C57	C	0.380155	1.013330	-0.000084
C58	C	0.094455	1.013397	-0.000116
C59	C	0.958442	1.013396	-0.000120
C60	C	1.033494	1.013409	-0.000125
C61	C	0.737303	1.013344	-0.303992
C62	C	0.737303	1.013338	-0.407130
C63	C	0.737305	1.317264	-0.000117
C64	C	0.737306	1.420406	-0.000122
C65	C	0.789737	0.869962	-0.482109
C66	C	0.789510	0.869865	-0.374781
C67	C	0.647417	1.084552	-0.481686
C68	C	0.647704	1.083642	-0.588545
C69	C	0.774030	1.086615	-0.590128
C70	C	0.775849	1.083913	-0.481456
C71	C	0.737303	1.013377	0.303787
C72	C	0.737303	1.013383	0.406924
C73	C	0.958440	0.709493	-0.000106
C74	C	1.033491	0.606363	-0.000107
C75	C	0.737301	0.709474	0.303800
C76	C	0.737300	0.606338	0.406942
C77	C	0.958439	0.709510	0.303784
C78	C	1.033491	0.606385	0.406920
C79	C	0.516167	1.317212	-0.303989
C80	C	0.441115	1.420336	-0.407126
C81	C	0.516166	1.317228	-0.000100
C82	C	0.441115	1.420358	-0.000099
C83	C	0.737305	1.317247	-0.304006
C84	C	0.737306	1.420384	-0.407148
C85	C	1.025555	0.557922	-0.059455
C86	C	1.096067	0.461034	-0.059478
C87	C	1.174515	0.412582	-0.000147
C88	C	1.182450	0.461033	0.059203
C89	C	1.111939	0.557926	0.059219
C90	C	1.111925	0.557961	0.396010
C91	C	1.182451	0.461078	0.492908
C92	C	1.174541	0.412615	0.600715
C93	C	1.096098	0.461049	0.611623
C94	C	1.025574	0.557937	0.514726
C95	C	0.362681	1.468772	-0.396216
C96	C	0.292155	1.565685	-0.493114
C97	C	0.300065	1.614153	-0.600921
C98	C	0.378508	1.565713	-0.611829
C99	C	0.449032	1.468808	-0.514931
C100	C	0.449051	1.468810	0.059239
C101	C	0.378539	1.565724	0.059236
C102	C	0.300091	1.614180	-0.000099
C103	C	0.292156	1.565724	-0.059444
C104	C	0.362667	1.468818	-0.059447
C105	C	0.684872	0.460015	0.481936
C106	C	0.685094	0.566936	0.374602
C107	C	0.827188	0.479499	0.481495
C108	C	0.826906	0.372124	0.588359
C109	C	0.700581	0.547077	0.589946
C110	C	0.698757	0.655546	0.481270
H111	H	0.859123	0.279138	0.139918
H112	H	0.842074	1.031978	-0.430041
H113	H	0.228274	1.605191	-0.107753
H114	H	0.736007	1.192280	-0.668329
H115	H	0.362683	0.784559	0.114379
H116	H	0.632609	0.588751	-0.163650
H117	H	0.839221	1.040727	-0.594247
H118	H	0.356194	1.429372	-0.107764
H119	H	0.228291	1.605109	-0.484211
H120	H	0.356224	1.429315	-0.308443
H121	H	1.231923	0.333685	-0.000168
H122	H	1.231972	0.333723	0.679606
H123	H	0.242682	1.693087	-0.000088
H124	H	0.512921	1.429365	0.107564
H125	H	0.237820	1.127676	0.082956
H126	H	0.734230	0.526100	-0.179855
H127	H	0.868099	0.342178	0.666937
H128	H	0.867952	0.501754	0.508722
H129	H	0.112022	1.242285	-0.114479
H130	H	0.710111	0.370353	0.480902
H131	H	0.710771	0.370442	0.163138
H132	H	0.618903	0.656273	0.320335
H133	H	0.632536	0.746028	0.429851
H134	H	0.856797	0.440944	0.429888
H135	H	0.710571	0.529471	0.320816
H136	H	0.961685	0.597371	-0.107783
H137	H	0.236734	0.898949	-0.082942
H138	H	0.866196	0.346903	-0.001888
H139	H	0.961712	0.597352	0.523625
H140	H	0.635390	0.586638	0.594066
H141	H	1.246316	0.421653	0.484007
H142	H	0.384939	1.605188	-0.699616
H143	H	1.246332	0.421569	0.107508
H144	H	1.118412	0.597354	0.107554
H145	H	0.618512	0.497243	0.479604
H146	H	1.089590	0.421597	-0.107807
H147	H	0.385016	1.605160	0.107566
H148	H	0.856308	0.281375	0.588086
H149	H	0.732980	0.687679	0.506788
H150	H	1.089670	0.421576	0.699412
H151	H	0.764038	0.813612	-0.320990
H152	H	0.738592	0.522296	0.668159
H153	H	0.236730	0.898959	0.197194
H154	H	0.710624	0.530220	0.162620
H155	H	0.237927	1.127665	-0.197322
H156	H	0.856098	0.813680	-0.479773
H157	H	0.619368	0.495051	0.037247
H158	H	0.618694	0.655709	0.036663
H159	H	0.735246	0.684087	-0.179634
H160	H	0.606652	1.190043	-0.508918
H161	H	0.242634	1.693058	-0.679812
H162	H	0.512895	1.429372	-0.523828
H163	H	0.855625	0.439434	0.143881
H164	H	0.633633	0.747593	-0.164300
H165	H	0.869142	0.500532	0.005843
H166	H	0.855700	0.813992	-0.320510
H167	H	0.764496	0.813944	-0.481071
H168	H	0.618301	1.033018	-0.588271
H169	H	0.617806	1.035074	-0.430078
H170	H	0.606510	1.188867	-0.667126
H171	H	0.741629	1.188584	-0.506974
H172	H	1.118382	0.597405	0.308237
