data_functionalizedCrystal
_audit_creation_method	'MofGen! by Chris Wilmer'
_symmetry_space_group_name_H-M	'P1'
_symmetry_Int_Tables_number	1
_symmetry_cell_setting	triclinic
loop_
_symmetry_equiv_pos_as_xyz
  x,y,z
_cell_length_a	16.992694
_cell_length_b	19.288865
_cell_length_c	17.766277
_cell_angle_alpha	90.011603
_cell_angle_beta	90.003596
_cell_angle_gamma	86.902236
loop_
_atom_site_label
_atom_site_type_symbol
_atom_site_fract_x
_atom_site_fract_y
_atom_site_fract_z
O1	O	-1.039877	-0.147253	-0.062515
O2	O	-0.811597	-0.145638	-0.062537
O3	O	-0.932333	-0.045700	-0.062510
O4	O	-0.919141	-0.247191	-0.062541
O5	O	-0.932312	-0.045693	0.062678
O6	O	-0.811576	-0.145631	0.062652
O7	O	-1.039855	-0.147247	0.062674
Cu8	Cu	-0.925714	-0.146438	0.074094
Cu9	Cu	-0.925739	-0.146446	-0.073956
O10	O	-0.919119	-0.247185	0.062647
C11	C	-0.931898	-0.019795	0.000086
C12	C	-0.930624	0.057383	0.000093
C13	C	-0.782381	-0.143556	0.000055
C14	C	-0.695359	-0.137355	0.000047
C15	C	-1.069071	-0.149328	0.000080
C16	C	-1.156093	-0.155529	0.000083
C17	C	-0.644907	-0.197184	0.000039
C18	C	-0.563141	-0.191353	0.000050
C19	C	-0.531829	-0.125694	0.000064
C20	C	-0.582287	-0.065862	0.000075
C21	C	-0.664051	-0.071693	0.000069
C22	C	-0.288316	-0.101527	0.000088
C23	C	-0.206545	-0.095701	0.000092
C24	C	-0.187405	-0.221193	0.000068
C25	C	-0.269172	-0.227018	0.000057
C26	C	-0.319623	-0.167186	0.000072
N27	N	-0.448251	-0.119733	0.000074
N28	N	-0.403199	-0.173147	0.000069
C29	C	-0.919555	-0.273089	0.000049
C30	C	-0.920829	-0.350267	0.000038
N31	N	-0.925702	-0.146433	0.178224
C32	C	-1.001466	0.097950	0.000103
C33	C	-1.000269	0.170467	0.000091
C34	C	-0.928225	0.202413	0.000084
C35	C	-0.857374	0.161837	0.000069
C36	C	-0.858573	0.089321	0.000074
C37	C	-0.871583	0.314004	0.043929
C38	C	-0.870387	0.386518	0.043929
C39	C	-0.924524	0.426075	0.000067
C40	C	-0.979870	0.393109	-0.043787
C41	C	-0.981069	0.320594	-0.043782
C42	C	-0.926917	0.281044	0.000079
C43	C	-0.994073	0.545274	0.000063
C44	C	-0.992873	0.617792	0.000046
C45	C	-0.849976	0.609160	0.000032
C46	C	-0.851178	0.536643	0.000041
C47	C	-0.923229	0.504705	0.000060
N48	N	-0.925757	-0.146447	-0.178087
C49	C	-0.979181	-0.102204	0.217622
C50	C	-0.979185	-0.102201	0.296424
C51	C	-0.925718	-0.146439	0.335824
C52	C	-0.872229	-0.190671	0.296416
C53	C	-0.872221	-0.190667	0.217616
C54	C	-0.915223	-0.209115	0.460652
C55	C	-0.915237	-0.209120	0.539451
C56	C	-0.925739	-0.146449	0.578871
C57	C	-0.936244	-0.083771	0.539482
C58	C	-0.936236	-0.083768	0.460682
C59	C	-0.925721	-0.146447	0.421270
C60	C	-0.979226	-0.102213	0.703715
C61	C	-0.979225	-0.102209	0.782519
C62	C	-0.872273	-0.190685	0.782509
C63	C	-0.872270	-0.190683	0.703707
C64	C	-0.925751	-0.146448	0.664315
H65	H	-0.670395	-0.250650	0.000026
H66	H	-0.522066	-0.240072	0.000042
H67	H	-0.800883	0.056291	0.000065
C68	C	-0.778126	0.196971	0.000058
H69	H	-0.736105	0.162421	0.000046
H70	H	-0.774676	0.225090	0.043711
H71	H	-0.774701	0.225069	-0.043606
H72	H	-1.022726	-0.066184	0.185552
C73	C	-0.303610	-0.299243	0.000052
H74	H	-0.261852	-0.334041	0.000057
H75	H	-0.335112	-0.304132	-0.043604
H76	H	-0.335106	-0.304119	0.043714
C77	C	-0.903688	-0.278061	0.582771
H78	H	-0.897419	-0.315383	0.548010
H79	H	-0.948469	-0.284427	0.613500
H80	H	-0.858037	-0.276907	0.613521
H81	H	-0.906658	-0.260152	0.428563
C82	C	-0.131909	-0.287003	0.000061
H83	H	-0.078728	-0.274129	0.000073
H84	H	-0.141375	-0.313744	-0.043598
H85	H	-0.141379	-0.313733	0.043719
C86	C	-1.038016	-0.053549	0.339772
H87	H	-1.069868	-0.027207	0.305025
H88	H	-1.009927	-0.023062	0.370527
H89	H	-1.070560	-0.080370	0.370497
C90	C	-0.172103	-0.023472	0.000109
H91	H	-0.213860	0.011327	0.000123
H92	H	-0.140607	-0.018591	-0.043545
H93	H	-0.140602	-0.018592	0.043772
H94	H	-0.329384	-0.052807	0.000101
H95	H	-1.026132	0.293756	-0.079490
C96	C	-0.770729	0.644292	0.000021
H97	H	-0.780160	0.693290	0.000023
H98	H	-0.741577	0.630623	-0.043637
H99	H	-0.741563	0.630646	0.043681
H100	H	-0.556786	-0.012400	0.000098
H101	H	-0.705129	-0.022974	0.000076
H102	H	-1.060135	0.071951	0.000116
H103	H	-1.057959	0.203504	0.000097
C104	C	-1.039420	0.436611	-0.092043
H105	H	-1.030774	0.484520	-0.085775
H106	H	-1.091482	0.427867	-0.076620
H107	H	-1.032727	0.424293	-0.143511
H108	H	-1.052741	0.519268	0.000075
C109	C	-1.070804	0.662417	0.000059
H110	H	-1.113883	0.633006	0.000079
H111	H	-1.073321	0.690874	-0.043598
H112	H	-1.073291	0.690894	0.043719
C113	C	-0.773250	0.492017	0.000042
H114	H	-0.730171	0.521427	0.000042
H115	H	-0.770752	0.463537	-0.043611
H116	H	-0.770744	0.463562	0.043707
C117	C	-0.809510	0.422777	0.092161
H118	H	-0.816553	0.471630	0.085884
H119	H	-0.757845	0.407757	0.076729
H120	H	-0.816583	0.411320	0.143633
H121	H	-0.944788	-0.032734	0.428615
C122	C	-0.812032	0.270495	0.092182
H123	H	-0.820668	0.222587	0.085900
H124	H	-0.818719	0.282808	0.143648
H125	H	-0.759968	0.279242	0.076753
C126	C	-0.947791	-0.014829	0.582833
H127	H	-0.946281	-0.023804	0.635404
H128	H	-0.997318	0.007168	0.569921
H129	H	-0.906883	0.014676	0.569928
H130	H	-1.022771	-0.066192	0.671641
C131	C	-1.038057	-0.053556	0.825857
H132	H	-1.069910	-0.027219	0.791108
H133	H	-1.009971	-0.023065	0.856610
H134	H	-1.070599	-0.080376	0.856585
H135	H	-0.828736	-0.226701	0.814588
H136	H	-0.828725	-0.226701	0.671627
H137	H	-0.828694	-0.226689	0.328500
H138	H	-0.828671	-0.226684	0.185537
