data_functionalizedCrystal
_audit_creation_method	'MofGen! by Chris Wilmer'
_symmetry_space_group_name_H-M	'P1'
_symmetry_Int_Tables_number	1
_symmetry_cell_setting	triclinic
loop_
_symmetry_equiv_pos_as_xyz
  x,y,z
_cell_length_a	10.967926
_cell_length_b	9.483335
_cell_length_c	10.654559
_cell_angle_alpha	80.590714
_cell_angle_beta	95.397623
_cell_angle_gamma	68.690964
loop_
_atom_site_label
_atom_site_type_symbol
_atom_site_fract_x
_atom_site_fract_y
_atom_site_fract_z
O1	O	1.706170	-0.306539	-0.126807
O2	O	1.327884	-0.211768	-0.158921
O3	O	1.525720	-0.261342	0.040228
O4	O	1.508334	-0.256964	-0.325956
O5	O	1.565950	-0.513199	0.080761
O6	O	1.368114	-0.463624	-0.118388
O7	O	1.746400	-0.558395	-0.086274
Cu8	Cu	1.560930	-0.534006	-0.098630
Cu9	Cu	1.513354	-0.236157	-0.146565
O10	O	1.548564	-0.508820	-0.285423
C11	C	1.299561	-0.325561	-0.139381
C12	C	1.155231	-0.289402	-0.141529
N13	N	1.594403	-0.743500	-0.064914
C14	C	1.111724	-0.403751	-0.121490
C15	C	0.962552	-0.366382	-0.123710
C16	C	1.551083	-0.972276	-0.108564
C17	C	1.523201	-0.797883	-0.136631
C18	C	1.774722	-0.444599	-0.105815
C19	C	1.919051	-0.480747	-0.103668
C20	C	1.544556	-0.386950	0.107241
C21	C	1.540730	-0.385991	0.246528
N22	N	1.479892	-0.026666	-0.180271
C23	C	1.529727	-0.383210	-0.352436
C24	C	1.533552	-0.384159	-0.491726
C25	C	1.513413	-0.247328	0.420729
C26	C	1.517007	-0.248244	0.289855
C27	C	1.560874	-0.522833	0.334086
C28	C	1.557289	-0.521918	0.464958
C29	C	1.488081	-0.088794	0.395190
C30	C	1.491675	-0.089710	0.264316
H31	H	1.184914	-0.529314	-0.102682
H32	H	0.992235	-0.606319	-0.084862
H33	H	0.889367	-0.240811	-0.142508
C34	C	1.357175	0.022903	0.183636
N35	N	1.255871	0.107717	0.122869
C36	C	1.369662	-0.915161	-0.291281
N37	N	1.286632	-0.831176	-0.374894
C38	C	1.056362	-0.119768	-0.166927
N39	N	0.981894	0.008004	-0.186059
H40	H	1.632680	-1.054816	-0.026399
H41	H	1.441608	-0.715348	-0.218810
C42	C	1.704638	-0.854997	0.046102
N43	N	1.787664	-0.938978	0.129720
C44	C	1.579453	-0.672444	0.561257
N45	N	1.596145	-0.785827	0.633790
C46	C	1.586972	-0.674357	0.286422
N47	N	1.606625	-0.788487	0.250523
H48	H	1.568190	-0.050421	0.435294
H49	H	1.578624	-0.064270	0.230654
C50	C	1.349391	0.009750	0.419269
N51	N	1.244927	0.083970	0.437406
