data_functionalizedCrystal
_audit_creation_method	'MofGen! by Chris Wilmer'
_symmetry_space_group_name_H-M	'P1'
_symmetry_Int_Tables_number	1
_symmetry_cell_setting	triclinic
loop_
_symmetry_equiv_pos_as_xyz
  x,y,z
_cell_length_a	18.426585
_cell_length_b	14.560438
_cell_length_c	14.560438
_cell_angle_alpha	59.995857
_cell_angle_beta	90.001634
_cell_angle_gamma	60.001220
loop_
_atom_site_label
_atom_site_type_symbol
_atom_site_fract_x
_atom_site_fract_y
_atom_site_fract_z
Zr1	Zr	0.699146	1.005278	-0.120540
O2	O	0.583266	1.196895	-0.267210
O3	O	0.734669	0.813668	-0.075570
O4	O	0.734670	1.005279	-0.267186
O5	O	0.583265	1.005281	0.075548
O6	O	0.854101	1.005273	-0.267178
O7	O	0.583265	1.005284	-0.075593
O8	O	0.854099	0.662515	0.075590
O9	O	0.583267	1.348039	-0.267219
O10	O	0.838950	0.892473	-0.056394
O11	O	0.749820	0.892476	0.056394
O12	O	0.749821	1.118074	-0.169210
O13	O	0.660691	1.118076	-0.056421
Zr14	Zr	0.889625	1.005264	0.120526
Zr15	Zr	0.889625	1.005268	-0.120526
Zr16	Zr	0.699146	1.005274	0.120512
Zr17	Zr	0.699147	1.246335	-0.120556
Zr18	Zr	0.889623	0.764207	0.120541
O19	O	0.854102	1.196875	0.075555
O20	O	0.854102	1.196881	-0.267190
O21	O	0.583266	1.196889	0.075536
O22	O	1.005505	0.813647	0.267195
O23	O	1.005505	0.813653	-0.075550
O24	O	0.734669	0.813662	0.267176
O25	O	1.005506	1.005261	-0.075562
O26	O	0.854101	1.005263	0.267172
O27	O	0.734670	1.005270	0.267163
O28	O	1.005506	1.005259	0.075578
O29	O	0.734672	1.348031	-0.267208
O30	O	0.854099	0.662511	0.267194
O31	O	1.005504	0.662503	0.267205
O32	O	1.005504	0.662507	0.075601
O33	O	0.583267	1.348036	-0.075615
O34	O	0.734672	1.348028	-0.075604
O35	O	0.838950	0.892469	0.169195
O36	O	0.928080	0.892466	0.056407
O37	O	0.838951	1.118067	-0.056409
O38	O	0.749821	1.118070	0.056380
C39	C	0.794384	0.703746	0.000012
C40	C	0.794383	0.601411	0.000019
C41	C	0.728586	0.636630	-0.083268
C42	C	0.728590	0.540490	-0.083297
C43	C	0.860192	0.373913	0.083259
C44	C	0.860191	0.470052	0.083282
C45	C	0.556126	1.005284	-0.000024
C46	C	0.475263	1.005288	-0.000030
C47	C	0.409592	1.005293	-0.000030
C48	C	0.327210	1.005288	-0.000020
C49	C	0.261553	1.005274	-0.000006
C50	C	0.179166	1.005268	0.000002
C51	C	1.032645	1.005258	0.000010
C52	C	1.113508	1.005254	0.000016
C53	C	0.794385	1.005277	-0.301527
C54	C	0.794385	1.005278	-0.403860
C55	C	0.794387	1.306797	-0.000027
C56	C	0.794388	1.409132	-0.000033
C57	C	0.860180	1.005276	-0.451931
C58	C	0.860183	1.005264	-0.548077
C59	C	0.728587	1.005263	-0.548075
C60	C	0.728589	1.005265	-0.451926
C61	C	0.794386	1.005266	0.301512
C62	C	0.794386	1.005264	0.403845
C63	C	1.032643	0.703733	0.000029
C64	C	1.113506	0.601394	0.000042
C65	C	0.794384	0.703740	0.301532
C66	C	0.794384	0.601404	0.403871
C67	C	1.032644	0.703728	0.301549
C68	C	1.113506	0.601386	0.403894
C69	C	0.556127	1.306815	-0.301563
C70	C	0.475265	1.409156	-0.403909
C71	C	0.556128	1.306809	-0.000044
C72	C	0.475265	1.409149	-0.000056
C73	C	0.794387	1.306802	-0.301546
C74	C	0.794387	1.409139	-0.403886
C75	C	1.104955	0.553337	-0.058843
C76	C	1.180926	0.457192	-0.058854
C77	C	1.265448	0.409098	0.000027
C78	C	1.273998	0.457164	0.058914
C79	C	1.198027	0.553314	0.058918
C80	C	1.198013	0.553325	0.393083
C81	C	1.274000	0.457178	0.489238
C82	C	1.265477	0.409088	0.596204
C83	C	1.180961	0.457159	0.607013
C84	C	1.104977	0.553311	0.510859
C85	C	0.390758	1.457230	-0.393097
C86	C	0.314771	1.553406	-0.489252
C87	C	0.323294	1.601501	-0.596218
C88	C	0.407810	1.553424	-0.607028
C89	C	0.483794	1.457255	-0.510874
C90	C	0.483816	1.457215	0.058819
C91	C	0.407844	1.553387	0.058803
C92	C	0.323323	1.601484	-0.000082
C93	C	0.314773	1.553414	-0.058964
C94	C	0.390744	1.457251	-0.058954
C95	C	0.840908	0.553320	0.510832
C96	C	0.840897	0.457173	0.606987
C97	C	0.747837	0.457197	0.489207
C98	C	0.747843	0.553349	0.393055
H99	H	0.913769	0.266952	0.151049
H100	H	0.878800	0.592448	0.519645
C101	C	0.576780	1.404324	0.123599
H102	H	0.570979	1.446743	0.158647
H103	H	0.608353	1.313544	0.179329
H104	H	0.608355	1.420085	0.072774
H105	H	1.174035	0.417990	0.694118
H106	H	0.913757	1.005284	-0.412796
H107	H	0.552601	1.418114	-0.519690
C108	C	1.207439	0.606169	0.123695
H109	H	1.150094	0.670330	0.115264
H110	H	1.239016	0.537129	0.201159
H111	H	1.239009	0.643682	0.094604
H112	H	0.261415	1.679807	-0.674504
H113	H	0.913760	1.005260	-0.587213
C114	C	1.349008	0.303324	0.000026
H115	H	1.331802	0.281588	-0.043470
H116	H	1.383389	0.334822	-0.031496
H117	H	1.383376	0.228287	0.075052
C118	C	0.417264	1.606234	0.123589
H119	H	0.478485	1.563794	0.158674
H120	H	0.389574	1.697013	0.072773
H121	H	0.389558	1.590470	0.179309
H122	H	0.245963	1.592535	-0.480429
H123	H	0.913775	0.441364	0.151106
C124	C	0.656211	1.005266	-0.600959
H125	H	0.665626	1.005278	-0.665114
H126	H	0.658936	0.929932	-0.547531
H127	H	0.599411	1.080615	-0.622880
H128	H	0.878780	0.418029	0.694076
C129	C	0.696658	0.404321	0.477317
H130	H	0.703325	0.340158	0.549901
H131	H	0.635449	0.473351	0.437356
H132	H	0.719643	0.366805	0.437371
H133	H	0.675010	1.005263	-0.412782
H134	H	0.674996	0.743584	-0.151061
H135	H	1.036140	0.592495	-0.106806
C136	C	1.171506	0.404324	-0.123619
H137	H	1.110286	0.446725	-0.158665
H138	H	1.199197	0.420087	-0.179350
H139	H	1.199212	0.313536	-0.072783
H140	H	1.342826	0.417991	0.106854
H141	H	1.204969	0.592465	0.305994
H142	H	1.342809	0.418048	0.480416
C143	C	0.696660	0.606250	0.275391
H144	H	0.668950	0.563851	0.282719
H145	H	0.652639	0.697033	0.235434
H146	H	0.736822	0.590484	0.235438
H147	H	1.036171	0.592431	0.519678
C148	C	1.349065	0.303313	0.701963
H149	H	1.400612	0.281573	0.680194
H150	H	1.349083	0.334813	0.745469
H151	H	1.349076	0.228278	0.745462
C152	C	0.417173	1.606326	-0.724693
H153	H	0.359812	1.670473	-0.780401
H154	H	0.448742	1.643840	-0.733149
H155	H	0.448729	1.537295	-0.733127
C156	C	0.221797	1.606321	-0.123723
H157	H	0.177783	1.670464	-0.115278
H158	H	0.215115	1.643840	-0.201191
H159	H	0.215127	1.537290	-0.094627
H160	H	0.675012	0.569178	-0.151119
H161	H	0.383802	1.418076	-0.306009
H162	H	0.261469	1.679787	-0.000081
H163	H	0.383769	1.418118	-0.106895
