data_functionalizedCrystal
_audit_creation_method	'MofGen! by Chris Wilmer'
_symmetry_space_group_name_H-M	'P1'
_symmetry_Int_Tables_number	1
_symmetry_cell_setting	triclinic
loop_
_symmetry_equiv_pos_as_xyz
  x,y,z
_cell_length_a	18.215407
_cell_length_b	25.639240
_cell_length_c	18.215399
_cell_angle_alpha	89.960373
_cell_angle_beta	89.983176
_cell_angle_gamma	90.033205
loop_
_atom_site_label
_atom_site_type_symbol
_atom_site_fract_x
_atom_site_fract_y
_atom_site_fract_z
Zn1	Zn	1.125010	-0.208137	-0.416068
Zn2	Zn	1.625010	0.291863	0.083932
Zn3	Zn	1.124908	-0.295577	-0.292982
Zn4	Zn	1.624908	0.204423	0.207018
Zn5	Zn	1.001949	-0.208158	-0.293016
Zn6	Zn	1.501949	0.291842	0.206984
Zn7	Zn	1.001891	-0.295544	-0.416007
Zn8	Zn	1.501891	0.204456	0.083993
O9	O	1.063439	-0.251854	-0.354518
O10	O	1.563439	0.248146	0.145482
O11	O	1.227981	-0.219742	-0.399752
O12	O	1.727981	0.280258	0.100248
O13	O	1.108578	-0.284003	-0.190002
O14	O	1.608578	0.215997	0.309998
O15	O	1.018340	-0.134990	-0.309379
O16	O	1.518340	0.365010	0.190621
O17	O	1.227906	-0.283983	-0.309322
O18	O	1.727906	0.216017	0.190678
O19	O	1.108752	-0.134975	-0.399785
O20	O	1.608752	0.365025	0.100215
O21	O	1.018241	-0.219777	-0.190027
O22	O	1.518241	0.280223	0.309973
O23	O	0.898957	-0.219745	-0.309319
O24	O	1.398957	0.280255	0.190681
O25	O	1.018242	-0.283927	-0.519000
O26	O	1.518242	0.216073	-0.019000
O27	O	0.898915	-0.283947	-0.399681
O28	O	1.398915	0.216053	0.100319
O29	O	1.108697	-0.219710	-0.519045
O30	O	1.608697	0.280290	-0.019045
O31	O	1.108523	-0.368738	-0.309262
O32	O	1.608523	0.131262	0.190738
O33	O	1.018143	-0.368714	-0.399648
O34	O	1.518143	0.131286	0.100352
C35	C	0.872233	-0.251845	-0.354497
C36	C	1.372233	0.248155	0.145503
C37	C	0.790434	-0.251854	-0.354506
C38	C	1.290434	0.248146	0.145494
C39	C	1.063335	-0.387697	-0.354461
C40	C	1.563335	0.112303	0.145539
C41	C	1.063358	-0.445811	-0.354461
C42	C	1.563358	0.054189	0.145539
C43	C	0.602238	-0.285337	-0.401498
C44	C	1.102238	0.214663	0.098502
C45	C	0.525379	-0.285338	-0.401507
C46	C	1.025379	0.214662	0.098493
C47	C	0.525393	-0.218381	-0.307555
C48	C	1.025393	0.281619	0.192445
C49	C	0.602251	-0.218377	-0.307550
C50	C	1.102251	0.281623	0.192450
C51	C	0.640671	-0.251858	-0.354520
C52	C	1.140671	0.248142	0.145480
C53	C	0.486955	-0.251864	-0.354535
C54	C	0.986955	0.248136	0.145465
C55	C	0.403621	-0.251865	-0.354544
C56	C	0.903621	0.248135	0.145456
C57	C	0.724010	-0.251856	-0.354512
C58	C	1.224010	0.248144	0.145488
C59	C	1.110541	-0.806128	-0.401678
C60	C	1.610541	-0.306128	0.098322
C61	C	1.110562	-0.860732	-0.401693
C62	C	1.610562	-0.360732	0.098307
O63	O	1.150555	-0.888929	-0.441779
O64	O	1.650555	-0.388929	0.058221
N65	N	1.063542	-0.888093	-0.354590
N66	N	1.563542	-0.388093	0.145410
C67	C	1.016491	-0.860848	-0.307474
C68	C	1.516491	-0.360848	0.192526
O69	O	0.976498	-0.889135	-0.267410
O70	O	1.476498	-0.389135	0.232590
C71	C	1.016466	-0.806244	-0.307463
C72	C	1.516466	-0.306244	0.192537
C73	C	1.063495	-0.778886	-0.354564
C74	C	1.563495	-0.278886	0.145436
C75	C	1.157565	-0.778769	-0.448776
C76	C	1.657565	-0.278769	0.051224
C77	C	1.157544	-0.724168	-0.448760
C78	C	1.657544	-0.224168	0.051240
C79	C	1.110499	-0.696926	-0.401646
C80	C	1.610499	-0.196926	0.098354
C81	C	1.063474	-0.724285	-0.354548
C82	C	1.563474	-0.224285	0.145452
C83	C	0.969412	-0.779000	-0.260351
C84	C	1.469412	-0.279000	0.239649
C85	C	0.969391	-0.724393	-0.260345
C86	C	1.469391	-0.224393	0.239655
C87	C	1.016420	-0.697034	-0.307446
C88	C	1.516420	-0.197034	0.192554
C89	C	1.016408	-0.642443	-0.307418
C90	C	1.516408	-0.142443	0.192582
N91	N	1.063428	-0.615081	-0.354521
N92	N	1.563428	-0.115081	0.145479
C93	C	1.110474	-0.642323	-0.401635
C94	C	1.610474	-0.142323	0.098365
C95	C	1.016546	-0.975518	-0.307500
C96	C	1.516546	-0.475518	0.192500
C97	C	1.016574	-1.030121	-0.307507
C98	C	1.516574	-0.530121	0.192493
C99	C	1.110644	-1.030001	-0.401727
C100	C	1.610644	-0.530001	0.098273
C101	C	1.110620	-0.975398	-0.401717
C102	C	1.610620	-0.475398	0.098283
C103	C	1.063566	-0.948157	-0.354604
C104	C	1.563566	-0.448157	0.145396
C105	C	1.110427	-0.527658	-0.401597
C106	C	1.610427	-0.027658	0.098403
C107	C	1.110404	-0.473053	-0.401575
C108	C	1.610404	0.026947	0.098425
C109	C	1.016331	-0.473177	-0.307357
C110	C	1.516331	0.026823	0.192643
C111	C	1.016356	-0.527778	-0.307377
C112	C	1.516356	-0.027778	0.192623
C113	C	1.063407	-0.555017	-0.354503
C114	C	1.563407	-0.055017	0.145497
O115	O	0.976434	-0.614211	-0.267354
O116	O	1.476434	-0.114211	0.232646
O117	O	1.150454	-0.614029	-0.441698
O118	O	1.650454	-0.114029	0.058302
C119	C	1.255392	-0.251864	-0.354540
C120	C	1.755392	0.248136	0.145460
C121	C	1.337191	-0.251868	-0.354549
C122	C	1.837191	0.248132	0.145451
C123	C	1.063474	-0.251813	-0.546471
C124	C	1.563474	0.248187	-0.046471
C125	C	1.063489	-0.251795	-0.628270
C126	C	1.563489	0.248205	-0.128270
C127	C	1.063564	-0.115481	-0.354592
C128	C	1.563564	0.384519	0.145408
C129	C	1.063617	-0.057367	-0.354624
C130	C	1.563617	0.442633	0.145376
C131	C	1.016490	-0.218330	-0.816478
C132	C	1.516490	0.281670	-0.316478
C133	C	1.016503	-0.218319	-0.893337
C134	C	1.516503	0.281681	-0.393337
C135	C	1.110576	-0.285198	-0.893301
C136	C	1.610576	0.214802	-0.393301
C137	C	1.110559	-0.285210	-0.816443
C138	C	1.610559	0.214790	-0.316443
C139	C	1.063517	-0.251773	-0.778034
C140	C	1.563517	0.248227	-0.278034
C141	C	1.063547	-0.251750	-0.931750
C142	C	1.563547	0.248250	-0.431750
C143	C	1.063561	-0.251739	-1.015084
C144	C	1.563561	0.248261	-0.515084
C145	C	1.063502	-0.251785	-0.694695
C146	C	1.563502	0.248215	-0.194695
C147	C	1.063447	-0.251858	-0.163312
C148	C	1.563447	0.248142	0.336688
C149	C	1.063575	-0.251729	-0.081514
C150	C	1.563575	0.248271	0.418486
H151	H	0.494090	-0.312599	-0.439762
H152	H	0.994090	0.187401	0.060238
C153	C	1.161556	-0.557291	-0.452642
C154	C	1.661556	-0.057291	0.047358
C155	C	1.208757	-0.588645	-0.411031
C156	C	1.708757	-0.088645	0.088969
C157	C	1.255864	-0.615954	-0.458026
C158	C	1.755864	-0.115954	0.041974
H159	H	1.189624	-0.533229	-0.480701
H160	H	1.689624	-0.033229	0.019299
H161	H	1.133419	-0.578619	-0.484682
H162	H	1.633419	-0.078619	0.015318
H163	H	1.236892	-0.567320	-0.379004
H164	H	1.736892	-0.067320	0.120996
H165	H	1.180709	-0.612717	-0.382974
H166	H	1.680709	-0.112717	0.117026
H167	H	1.227727	-0.637282	-0.490066
H168	H	1.727727	-0.137282	0.009934
H169	H	1.283927	-0.591888	-0.486082
H170	H	1.783927	-0.091888	0.013918
H171	H	1.287891	-0.637235	-0.429800
H172	H	1.787891	-0.137235	0.070200
H173	H	0.494102	-0.191123	-0.269313
H174	H	0.994102	0.308877	0.230687
H175	H	1.148856	-0.312446	-0.785141
H176	H	1.648856	0.187554	-0.285141
C177	C	1.161701	-0.945791	-0.452943
C178	C	1.661701	-0.445791	0.047057
C179	C	1.202891	-0.981342	-0.494214
C180	C	1.702891	-0.481342	0.005786
C181	C	1.249947	-0.954090	-0.541422
C182	C	1.749947	-0.454090	-0.041422
H183	H	1.193842	-0.924482	-0.424905
H184	H	1.693842	-0.424482	0.075095
H185	H	1.133534	-0.924503	-0.485020
H186	H	1.633534	-0.424503	0.014980
H187	H	1.231055	-1.002621	-0.462140
H188	H	1.731055	-0.502621	0.037860
H189	H	1.170769	-1.002652	-0.522267
H190	H	1.670769	-0.502652	-0.022267
H191	H	1.221780	-0.932803	-0.573499
H192	H	1.721780	-0.432803	-0.073499
H193	H	1.282083	-0.932782	-0.513378
H194	H	1.782083	-0.432782	-0.013378
H195	H	1.277895	-0.978208	-0.569435
H196	H	1.777895	-0.478208	-0.069435
H197	H	0.633517	-0.312598	-0.439746
H198	H	1.133517	0.187402	0.060254
H199	H	0.978186	-0.191103	-0.785208
H200	H	1.478186	0.308897	-0.285208
H201	H	0.633544	-0.191112	-0.269296
H202	H	1.133544	0.308888	0.230704
H203	H	1.195875	-0.800943	-0.487146
H204	H	1.695875	-0.300943	0.012854
C205	C	1.161492	-0.443444	-0.452799
C206	C	1.661492	0.056556	0.047201
C207	C	1.202679	-0.478993	-0.494077
C208	C	1.702679	0.021007	0.005923
C209	C	1.249738	-0.451739	-0.541279
C210	C	1.749738	0.048261	-0.041279
H211	H	1.193634	-0.422139	-0.424757
H212	H	1.693634	0.077861	0.075243
H213	H	1.133327	-0.422152	-0.484873
H214	H	1.633327	0.077848	0.015127
H215	H	1.230841	-0.500276	-0.462007
H216	H	1.730841	-0.000276	0.037993
H217	H	1.170556	-0.500299	-0.522135
H218	H	1.670556	-0.000299	-0.022135
H219	H	1.221574	-0.430446	-0.573353
H220	H	1.721574	0.069554	-0.073353
H221	H	1.281876	-0.430435	-0.513230
H222	H	1.781876	0.069565	-0.013230
H223	H	1.277685	-0.475854	-0.569296
H224	H	1.777685	0.024146	-0.069296
C225	C	0.965350	-0.182096	-0.935112
C226	C	1.465350	0.317904	-0.435112
C227	C	0.918148	-0.211694	-0.979193
C228	C	1.418148	0.288306	-0.479193
C229	C	0.871004	-0.178343	-1.017677
C230	C	1.371004	0.321657	-0.517677
H231	H	0.993436	-0.159299	-0.965175
H232	H	1.493436	0.340701	-0.465175
H233	H	0.937290	-0.162197	-0.901248
H234	H	1.437290	0.337803	-0.401248
H235	H	0.946205	-0.231584	-1.013053
H236	H	1.446205	0.268416	-0.513053
H237	H	0.890045	-0.234489	-0.949148
H238	H	1.390045	0.265511	-0.449148
H239	H	0.842944	-0.158444	-0.983812
H240	H	1.342944	0.341556	-0.483812
H241	H	0.899097	-0.155548	-1.047735
H242	H	1.399097	0.344452	-0.547735
H243	H	0.838968	-0.198421	-1.047584
H244	H	1.338968	0.301579	-0.547584
H245	H	1.148950	-1.052191	-0.440092
H246	H	1.648950	-0.552191	0.059908
H247	H	1.195837	-0.701896	-0.487115
H248	H	1.695837	-0.201896	0.012885
C249	C	1.161624	-0.321439	-0.935137
C250	C	1.661624	0.178561	-0.435137
C251	C	1.151590	-0.314261	-1.010674
C252	C	1.651590	0.185739	-0.510674
C253	C	1.198611	-0.347632	-1.049234
C254	C	1.698611	0.152368	-0.549234
H255	H	1.150867	-0.356592	-0.922607
H256	H	1.650867	0.143408	-0.422607
H257	H	1.211091	-0.313785	-0.922591
H258	H	1.711091	0.186215	-0.422591
H259	H	1.102134	-0.321918	-1.023215
H260	H	1.602134	0.178082	-0.523215
H261	H	1.162352	-0.279115	-1.023226
H262	H	1.662352	0.220885	-0.523226
H263	H	1.248078	-0.339978	-1.036688
H264	H	1.748078	0.160022	-0.536688
H265	H	1.187850	-0.382783	-1.036698
H266	H	1.687850	0.117217	-0.536698
H267	H	1.191814	-0.342763	-1.100490
H268	H	1.691814	0.157237	-0.600490
H269	H	0.978286	-1.052391	-0.269145
H270	H	1.478286	-0.552391	0.230855
C271	C	0.965281	-0.443499	-0.256289
C272	C	1.465281	0.056501	0.243711
C273	C	0.975317	-0.389826	-0.266379
C274	C	1.475317	0.110174	0.233621
C275	C	0.928291	-0.362469	-0.219359
C276	C	1.428291	0.137531	0.280641
H277	H	0.976032	-0.452405	-0.206821
H278	H	1.476032	0.047595	0.293179
H279	H	0.915815	-0.452440	-0.267028
H280	H	1.415815	0.047560	0.232972
H281	H	1.024772	-0.380888	-0.255635
H282	H	1.524772	0.119112	0.244365
H283	H	0.964561	-0.380905	-0.315836
H284	H	1.464561	0.119095	0.184164
H285	H	0.878826	-0.371410	-0.230098
H286	H	1.378826	0.128590	0.269902
H287	H	0.939047	-0.371379	-0.169894
H288	H	1.439047	0.128621	0.330106
H289	H	0.935090	-0.326049	-0.226203
H290	H	1.435090	0.173951	0.273797
H291	H	0.978232	-0.953341	-0.269129
H292	H	1.478232	-0.453341	0.230871
C293	C	0.918266	-0.808600	-0.209187
C294	C	1.418266	-0.308600	0.290813
C295	C	0.877049	-0.773045	-0.167949
C296	C	1.377049	-0.273045	0.332051
C297	C	0.829914	-0.800292	-0.120814
C298	C	1.329914	-0.300292	0.379186
H299	H	0.946354	-0.829906	-0.177080
H300	H	1.446354	-0.329906	0.322920
H301	H	0.886150	-0.829890	-0.237300
H302	H	1.386150	-0.329890	0.262700
H303	H	0.909161	-0.751764	-0.139838
H304	H	1.409161	-0.251764	0.360162
H305	H	0.848946	-0.751738	-0.200037
H306	H	1.348946	-0.251738	0.299963
H307	H	0.797799	-0.821582	-0.148927
H308	H	1.297799	-0.321582	0.351073
H309	H	0.858008	-0.821597	-0.088712
H310	H	1.358008	-0.321597	0.411288
H311	H	0.801939	-0.776172	-0.092834
H312	H	1.301939	-0.276172	0.407166
H313	H	0.931072	-0.702216	-0.221981
H314	H	1.431072	-0.202216	0.278019
H315	H	0.978067	-0.550054	-0.269017
H316	H	1.478067	-0.050054	0.230983
