data_functionalizedCrystal
_audit_creation_method	'MofGen! by Chris Wilmer'
_symmetry_space_group_name_H-M	'P1'
_symmetry_Int_Tables_number	1
_symmetry_cell_setting	triclinic
loop_
_symmetry_equiv_pos_as_xyz
  x,y,z
_cell_length_a	19.077105
_cell_length_b	21.295417
_cell_length_c	19.076919
_cell_angle_alpha	92.267699
_cell_angle_beta	90.076224
_cell_angle_gamma	87.725910
loop_
_atom_site_label
_atom_site_type_symbol
_atom_site_fract_x
_atom_site_fract_y
_atom_site_fract_z
Zn1	Zn	1.058240	-0.304535	-0.440394
Zn2	Zn	1.391573	0.028798	-0.107060
Zn3	Zn	1.724907	0.362132	0.226273
Zn4	Zn	1.062870	-0.405748	-0.322879
Zn5	Zn	1.396203	-0.072415	0.010455
Zn6	Zn	1.729537	0.260919	0.343788
Zn7	Zn	0.945459	-0.296102	-0.318188
Zn8	Zn	1.278792	0.037231	0.015146
Zn9	Zn	1.612125	0.370564	0.348479
Zn10	Zn	0.940692	-0.405368	-0.435631
Zn11	Zn	1.274025	-0.072035	-0.102298
Zn12	Zn	1.607358	0.261298	0.231035
O13	O	1.001815	-0.352938	-0.379273
O14	O	1.335148	-0.019605	-0.045939
O15	O	1.668482	0.313728	0.287394
O16	O	1.157186	-0.321649	-0.428761
O17	O	1.490519	0.011684	-0.095428
O18	O	1.823852	0.345018	0.237905
O19	O	1.051228	-0.387833	-0.223925
O20	O	1.384561	-0.054500	0.109408
O21	O	1.717894	0.278834	0.442741
O22	O	0.960477	-0.209135	-0.334428
O23	O	1.293810	0.124199	-0.001095
O24	O	1.627144	0.457532	0.332238
O25	O	1.160587	-0.396010	-0.342424
O26	O	1.493921	-0.062676	-0.009090
O27	O	1.827254	0.270657	0.324243
O28	O	1.043337	-0.215330	-0.424212
O29	O	1.376670	0.118003	-0.090879
O30	O	1.710003	0.451337	0.242454
O31	O	0.964966	-0.307277	-0.220479
O32	O	1.298300	0.026057	0.112854
O33	O	1.631633	0.359390	0.446188
O34	O	0.846495	-0.306909	-0.329811
O35	O	1.179828	0.026425	0.003523
O36	O	1.513162	0.359758	0.336856
O37	O	0.952352	-0.395363	-0.534594
O38	O	1.285685	-0.062029	-0.201261
O39	O	1.619019	0.271304	0.132073
O40	O	0.842993	-0.387186	-0.416096
O41	O	1.176326	-0.053853	-0.082763
O42	O	1.509659	0.279481	0.250571
O43	O	1.038714	-0.321281	-0.538093
O44	O	1.372048	0.012052	-0.204760
O45	O	1.705381	0.345386	0.128574
O46	O	1.046605	-0.493784	-0.337806
O47	O	1.379939	-0.160450	-0.004472
O48	O	1.713272	0.172883	0.328861
O49	O	0.956842	-0.493505	-0.420645
O50	O	1.290175	-0.160172	-0.087311
O51	O	1.623508	0.173162	0.246022
C52	C	0.819248	-0.346091	-0.371928
C53	C	1.152581	-0.012758	-0.038594
C54	C	1.485914	0.320575	0.294739
C55	C	0.741144	-0.343178	-0.368802
C56	C	1.074477	-0.009845	-0.035469
C57	C	1.407810	0.323489	0.297864
C58	C	1.001727	-0.516485	-0.379234
C59	C	1.335060	-0.183152	-0.045900
C60	C	1.668394	0.150181	0.287433
C61	C	1.001753	-0.586455	-0.379243
C62	C	1.335086	-0.253121	-0.045910
C63	C	1.668419	0.080212	0.287424
C64	C	0.702648	-0.383664	-0.412187
C65	C	1.035981	-0.050330	-0.078854
C66	C	1.369315	0.283003	0.254479
C67	C	0.629261	-0.380918	-0.409254
C68	C	0.962594	-0.047585	-0.075921
C69	C	1.295928	0.285749	0.257413
C70	C	0.594371	-0.337690	-0.362931
C71	C	0.927704	-0.004356	-0.029598
C72	C	1.261038	0.328977	0.303735
C73	C	0.632872	-0.297200	-0.319544
C74	C	0.966205	0.036134	0.013789
C75	C	1.299539	0.369467	0.347122
C76	C	0.706257	-0.299943	-0.322482
C77	C	1.039591	0.033391	0.010851
C78	C	1.372924	0.366724	0.344185
C79	C	0.375085	-0.324995	-0.349340
C80	C	0.708418	0.008339	-0.016006
C81	C	1.041752	0.341672	0.317327
C82	C	0.301694	-0.322256	-0.346404
C83	C	0.635028	0.011077	-0.013071
C84	C	0.968361	0.344411	0.320263
C85	C	0.298089	-0.405974	-0.436115
C86	C	0.631422	-0.072641	-0.102782
C87	C	0.964755	0.260692	0.230552
C88	C	0.371476	-0.408716	-0.439045
C89	C	0.704809	-0.075383	-0.105712
C90	C	1.038142	0.257951	0.227621
C91	C	0.409970	-0.368224	-0.395661
C92	C	0.743303	-0.034890	-0.062328
C93	C	1.076637	0.298443	0.271006
N94	N	0.519358	-0.334883	-0.359930
N95	N	0.852691	-0.001550	-0.026597
N96	N	1.186025	0.331783	0.306736
N97	N	0.484982	-0.371027	-0.398666
N98	N	0.818315	-0.037694	-0.065333
N99	N	1.151648	0.295639	0.268000
C100	C	1.044871	-0.622490	-0.426025
C101	C	1.378204	-0.289157	-0.092691
C102	C	1.711538	0.044176	0.240642
C103	C	1.044895	-0.688234	-0.426043
C104	C	1.378228	-0.354901	-0.092710
C105	C	1.711562	-0.021568	0.240624
C106	C	1.001809	-0.717940	-0.379267
C107	C	1.335142	-0.384607	-0.045934
C108	C	1.668475	-0.051273	0.287399
C109	C	0.958682	-0.681896	-0.332482
C110	C	1.292015	-0.348563	0.000851
C111	C	1.625349	-0.015229	0.334185
C112	C	0.958654	-0.616153	-0.332470
C113	C	1.291987	-0.282820	0.000863
C114	C	1.625321	0.050513	0.334197
N115	N	0.998975	-0.818882	-0.317559
N116	N	1.332308	-0.485549	0.015774
N117	N	1.665642	-0.152215	0.349108
N118	N	0.999006	-0.881335	-0.317573
N119	N	1.332339	-0.548002	0.015761
N120	N	1.665672	-0.214668	0.349094
C121	C	1.001890	-0.916019	-0.379302
C122	C	1.335223	-0.582686	-0.045969
C123	C	1.668556	-0.249352	0.287364
N124	N	1.004755	-0.885891	-0.441020
N125	N	1.338089	-0.552558	-0.107686
N126	N	1.671422	-0.219224	0.225647
N127	N	1.004728	-0.823432	-0.441005
N128	N	1.338062	-0.490099	-0.107672
N129	N	1.671395	-0.156766	0.225661
C130	C	1.001834	-0.789227	-0.379276
C131	C	1.335167	-0.455893	-0.045942
C132	C	1.668501	-0.122560	0.287391
C133	C	1.045036	-1.023342	-0.426108
C134	C	1.378369	-0.690009	-0.092775
C135	C	1.711703	-0.356675	0.240559
C136	C	1.045055	-1.089087	-0.426127
C137	C	1.378389	-0.755754	-0.092794
C138	C	1.711722	-0.422420	0.240539
C139	C	0.958846	-1.082748	-0.332560
C140	C	1.292180	-0.749414	0.000773
C141	C	1.625513	-0.416081	0.334106
C142	C	0.958823	-1.017004	-0.332547
C143	C	1.292156	-0.683670	0.000786
C144	C	1.625490	-0.350337	0.334120
C145	C	1.001922	-0.987305	-0.379320
C146	C	1.335255	-0.653972	-0.045987
C147	C	1.668589	-0.320638	0.287347
C148	C	1.185096	-0.359812	-0.386647
C149	C	1.518429	-0.026479	-0.053314
C150	C	1.851762	0.306854	0.280020
C151	C	1.263199	-0.362742	-0.389789
C152	C	1.596532	-0.029408	-0.056456
C153	C	1.929865	0.303925	0.276877
C154	C	0.994485	-0.359220	-0.562552
C155	C	1.327818	-0.025887	-0.229219
C156	C	1.661152	0.307447	0.104114
C157	C	0.991361	-0.361897	-0.640655
C158	C	1.324695	-0.028564	-0.307322
C159	C	1.658028	0.304770	0.026011
C160	C	1.001922	-0.188754	-0.379328
C161	C	1.335255	0.144579	-0.045995
C162	C	1.668589	0.477913	0.287338
C163	C	1.001968	-0.118788	-0.379352
C164	C	1.335301	0.214545	-0.046019
C165	C	1.668634	0.547878	0.287315
C166	C	1.034856	-0.324586	-0.679171
C167	C	1.368189	0.008747	-0.345838
C168	C	1.701523	0.342081	-0.012504
C169	C	1.031912	-0.327098	-0.752557
C170	C	1.365246	0.006235	-0.419223
C171	C	1.698579	0.339568	-0.085890
C172	C	0.985477	-0.366926	-0.787425
C173	C	1.318811	-0.033593	-0.454092
C174	C	1.652144	0.299741	-0.120759
C175	C	0.941978	-0.404238	-0.748904
C176	C	1.275312	-0.070905	-0.415571
C177	C	1.608645	0.262428	-0.082238
C178	C	0.944919	-0.401722	-0.675520
C179	C	1.278252	-0.068389	-0.342187
C180	C	1.611585	0.264945	-0.008853
C181	C	0.971858	-0.378584	-1.006706
C182	C	1.305192	-0.045251	-0.673372
C183	C	1.638525	0.288083	-0.340039
C184	C	0.968923	-0.381099	-1.080095
C185	C	1.302256	-0.047766	-0.746762
C186	C	1.635589	0.285568	-0.413429
C187	C	1.058856	-0.303958	-1.083742
C188	C	1.392189	0.029375	-0.750409
C189	C	1.725523	0.362709	-0.417076
C190	C	1.061795	-0.301448	-1.010356
C191	C	1.395129	0.031885	-0.677023
C192	C	1.728462	0.365219	-0.343690
C193	C	1.018294	-0.338758	-0.971842
C194	C	1.351627	-0.005425	-0.638508
C195	C	1.684960	0.327909	-0.305175
N196	N	0.982469	-0.369496	-0.862437
N197	N	1.315802	-0.036163	-0.529104
N198	N	1.649136	0.297170	-0.195771
N199	N	1.021299	-0.336184	-0.896831
N200	N	1.354632	-0.002850	-0.563498
N201	N	1.687966	0.330483	-0.230164
C202	C	1.009157	-0.346637	-0.196708
C203	C	1.342490	-0.013304	0.136626
C204	C	1.675824	0.320030	0.469959
C205	C	1.012417	-0.343788	-0.118611
C206	C	1.345750	-0.010455	0.214723
C207	C	1.679084	0.322879	0.548056
H208	H	0.731050	-0.418867	-0.449906
H209	H	1.064383	-0.085534	-0.116573
H210	H	1.397717	0.247799	0.216761
C211	C	0.897073	-0.442768	-0.633153
C212	C	1.230406	-0.109435	-0.299820
C213	C	1.563739	0.223898	0.033513
N214	N	0.861032	-0.473685	-0.601243
N215	N	1.194365	-0.140352	-0.267910
N216	N	1.527699	0.192982	0.065423
C217	C	0.594490	-0.249646	-0.268591
C218	C	0.927824	0.083687	0.064743
C219	C	1.261157	0.417021	0.398076
N220	N	0.565582	-0.213829	-0.230210
N221	N	0.898915	0.119504	0.103124
N222	N	1.232249	0.452838	0.436457
C223	C	1.092285	-0.589826	-0.477473
C224	C	1.425618	-0.256492	-0.144139
C225	C	1.758952	0.076841	0.189194
N226	N	1.128000	-0.565222	-0.516222
N227	N	1.461333	-0.231888	-0.182889
N228	N	1.794666	0.101445	0.150444
C229	C	0.417420	-0.280455	-0.301611
C230	C	0.750753	0.052878	0.031722
C231	C	1.084086	0.386211	0.365056
N232	N	0.449308	-0.246907	-0.265658
N233	N	0.782642	0.086426	0.067675
N234	N	1.115975	0.419759	0.401009
H235	H	1.099610	-0.269018	-0.981971
H236	H	1.432943	0.064315	-0.648638
H237	H	1.766276	0.397649	-0.315305
C238	C	0.911385	-0.977363	-0.281087
C239	C	1.244718	-0.644030	0.052247
C240	C	1.578051	-0.310696	0.385580
N241	N	0.875647	-0.947505	-0.242328
N242	N	1.208981	-0.614172	0.091005
N243	N	1.542314	-0.280839	0.424338
C244	C	0.890892	-0.448043	-0.787263
C245	C	1.224226	-0.114709	-0.453929
C246	C	1.557559	0.218624	-0.120596
N247	N	0.852413	-0.481037	-0.816153
N248	N	1.185746	-0.147703	-0.482820
N249	N	1.519080	0.185630	-0.149486
C250	C	0.917836	-0.424912	-1.118449
C251	C	1.251169	-0.091579	-0.785116
C252	C	1.584503	0.241755	-0.451782
N253	N	0.879360	-0.457911	-1.147337
N254	N	1.212693	-0.124577	-0.814004
N255	N	1.546027	0.208756	-0.480671
H256	H	1.080127	-0.999160	-0.464196
H257	H	1.413461	-0.665827	-0.130862
H258	H	1.746794	-0.332494	0.202471
C259	C	0.586920	-0.425468	-0.456968
C260	C	0.920253	-0.092134	-0.123635
C261	C	1.253586	0.241199	0.209699
N262	N	0.555029	-0.459028	-0.492904
N263	N	0.888362	-0.125695	-0.159571
N264	N	1.221695	0.207639	0.173763
H265	H	1.072670	-0.292156	-0.650786
H266	H	1.406004	0.041177	-0.317453
H267	H	1.739337	0.374511	0.015880
H268	H	1.080167	-1.118427	-0.464226
H269	H	1.413500	-0.785093	-0.130892
H270	H	1.746834	-0.451760	0.202441
C271	C	0.911441	-1.115420	-0.281115
C272	C	1.244774	-0.782087	0.052218
C273	C	1.578107	-0.448753	0.385551
N274	N	0.875729	-1.140032	-0.242370
N275	N	1.209062	-0.806699	0.090963
N276	N	1.542396	-0.473365	0.424297
C277	C	1.092333	-0.727881	-0.477506
C278	C	1.425667	-0.394548	-0.144172
C279	C	1.759000	-0.061215	0.189161
N280	N	1.128065	-0.757741	-0.516266
N281	N	1.461399	-0.424408	-0.182933
N282	N	1.794732	-0.091075	0.150400
C283	C	0.409849	-0.456274	-0.490000
C284	C	0.743183	-0.122940	-0.156667
C285	C	1.076516	0.210393	0.176666
N286	N	0.438752	-0.492098	-0.528378
N287	N	0.772086	-0.158764	-0.195044
N288	N	1.105419	0.174569	0.138289
H289	H	0.266739	-0.438940	-0.471437
H290	H	0.600072	-0.105606	-0.138104
H291	H	0.933405	0.227727	0.195230
C292	C	0.263317	-0.274698	-0.295444
C293	C	0.596650	0.058635	0.037889
C294	C	0.929984	0.391968	0.371222
N295	N	0.234411	-0.238880	-0.257062
N296	N	0.567745	0.094453	0.076271
N297	N	0.901078	0.427786	0.409604
H298	H	0.936446	-0.408974	-0.975356
H299	H	1.269780	-0.075641	-0.642023
H300	H	1.603113	0.257692	-0.308689
C301	C	0.911315	-0.714574	-0.281003
C302	C	1.244649	-0.381240	0.052331
C303	C	1.577982	-0.047907	0.385664
N304	N	0.875646	-0.739187	-0.242219
N305	N	1.208979	-0.405853	0.091115
N306	N	1.542313	-0.072520	0.424448
H307	H	0.737600	-0.266972	-0.287157
H308	H	1.070933	0.066362	0.046177
H309	H	1.404266	0.399695	0.379510
H310	H	0.923541	-0.586812	-0.294374
H311	H	1.256874	-0.253479	0.038959
H312	H	1.590208	0.079854	0.372293
C313	C	1.079761	-0.286054	-0.794921
C314	C	1.413095	0.047279	-0.461587
C315	C	1.746428	0.380612	-0.128254
N316	N	1.115803	-0.255138	-0.826829
N317	N	1.449136	0.078196	-0.493495
N318	N	1.782470	0.411529	-0.160162
H319	H	1.094272	-0.273581	-1.115109
H320	H	1.427605	0.059752	-0.781775
H321	H	1.760938	0.393085	-0.448442
