data_functionalizedCrystal
_audit_creation_method	'MofGen! by Chris Wilmer'
_symmetry_space_group_name_H-M	'P1'
_symmetry_Int_Tables_number	1
_symmetry_cell_setting	triclinic
loop_
_symmetry_equiv_pos_as_xyz
  x,y,z
_cell_length_a	12.759394
_cell_length_b	12.759401
_cell_length_c	12.759393
_cell_angle_alpha	90.019837
_cell_angle_beta	89.967655
_cell_angle_gamma	89.983638
loop_
_atom_site_label
_atom_site_type_symbol
_atom_site_fract_x
_atom_site_fract_y
_atom_site_fract_z
Zn1	Zn	-0.418161	-1.606254	-0.594015
Zn2	Zn	-0.593880	-1.606148	-0.418333
Zn3	Zn	-0.418221	-1.430556	-0.418350
Zn4	Zn	-0.593804	-1.430544	-0.593970
O5	O	-0.506016	-1.518376	-0.506167
O6	O	-0.441478	-1.753261	-0.570722
O7	O	-0.570636	-1.582816	-0.271314
O8	O	-0.271192	-1.453912	-0.441678
O9	O	-0.570578	-1.753183	-0.441649
O10	O	-0.271148	-1.582997	-0.570739
O11	O	-0.441579	-1.453809	-0.271327
O12	O	-0.441505	-1.283533	-0.441635
O13	O	-0.570447	-1.453892	-0.740997
O14	O	-0.570505	-1.283525	-0.570662
O15	O	-0.441404	-1.582985	-0.741030
O16	O	-0.740891	-1.582804	-0.441605
O17	O	-0.740835	-1.453789	-0.570645
C18	C	-0.778984	-1.518312	-0.506142
C19	C	-0.895761	-1.518382	-0.506166
C20	C	-0.506004	-1.245408	-0.506146
C21	C	-0.506023	-1.128632	-0.506162
C22	C	-0.505910	-1.518449	-0.780200
C23	C	-0.505865	-1.518480	-0.896977
C24	C	-0.895766	-1.652826	-0.371897
C25	C	-0.950630	-1.720076	-0.304775
C26	C	-1.060351	-1.720137	-0.304804
C27	C	-1.115212	-1.652944	-0.371964
C28	C	-1.060348	-1.585695	-0.439086
C29	C	-0.950624	-1.585638	-0.439048
C30	C	-1.060343	-1.451257	-0.573358
C31	C	-0.950621	-1.451189	-0.573326
C32	C	-1.115203	-1.384064	-0.640518
C33	C	-1.060340	-1.316807	-0.707636
C34	C	-0.950612	-1.316748	-0.707604
C35	C	-0.895758	-1.383939	-0.640448
C36	C	-0.231983	-1.518467	-0.506215
C37	C	-0.115206	-1.518507	-0.506236
C38	C	-0.506030	-1.792409	-0.506188
C39	C	-0.506036	-1.909185	-0.506198
C40	C	-0.573296	-1.073793	-0.573241
C41	C	-0.573300	-0.964068	-0.573262
C42	C	-0.438756	-0.964032	-0.439116
C43	C	-0.438747	-1.073754	-0.439101
C44	C	-0.438653	-1.451331	-0.951845
C45	C	-0.438621	-1.451355	-1.061569
C46	C	-0.573015	-1.585688	-1.061548
C47	C	-0.573052	-1.585657	-0.951825
C48	C	-0.506046	-1.518363	-0.233200
C49	C	-0.505796	-1.518535	-0.116423
H50	H	-0.806425	-1.652769	-0.371854
C51	C	-0.645990	-1.658453	-0.892056
C52	C	-0.631663	-1.644023	-0.784228
C53	C	-0.698844	-1.711046	-0.729136
H54	H	-0.630683	-1.729099	-0.909915
H55	H	-0.716596	-1.643044	-0.909960
H56	H	-0.561072	-1.659439	-0.766332
H57	H	-0.646977	-1.573391	-0.766338
H58	H	-0.769450	-1.695638	-0.747040
H59	H	-0.683532	-1.781688	-0.747003
H60	H	-0.689139	-1.701258	-0.655969
C61	C	-0.365680	-1.378272	-0.892484
C62	C	-0.306835	-1.319450	-0.964026
C63	C	-0.239613	-1.252122	-0.909384
H64	H	-0.319824	-1.418344	-0.849689
H65	H	-0.405862	-1.332414	-0.849693
H66	H	-0.266656	-1.365302	-1.006798
H67	H	-0.352663	-1.279357	-1.006823
H68	H	-0.279795	-1.206264	-0.866593
H69	H	-0.193764	-1.292202	-0.866591
H70	H	-0.199686	-1.212196	-0.957917
C71	C	-0.365823	-1.378314	-1.121191
C72	C	-0.425288	-1.310947	-1.184135
C73	C	-0.358264	-1.243630	-1.239060
H74	H	-0.320012	-1.418401	-1.164099
H75	H	-0.325840	-1.338243	-1.072837
H76	H	-0.465254	-1.351013	-1.232483
H77	H	-0.471097	-1.270836	-1.141254
H78	H	-0.318281	-1.203559	-1.190706
H79	H	-0.312457	-1.283726	-1.281961
H80	H	-0.398602	-1.197907	-1.281766
H81	H	-0.383984	-0.919338	-0.384516
C82	C	-0.645838	-1.658586	-1.121289
C83	C	-0.631401	-1.644263	-1.229124
C84	C	-0.698457	-1.711411	-1.284188
H85	H	-0.716476	-1.643246	-1.103418
H86	H	-0.630463	-1.729200	-1.103375
H87	H	-0.646783	-1.573665	-1.247031
H88	H	-0.560776	-1.659611	-1.247026
H89	H	-0.683082	-1.782025	-1.266273
H90	H	-0.769091	-1.696066	-1.266308
H91	H	-0.688664	-1.701710	-1.357359
H92	H	-0.628074	-1.118470	-0.627849
C93	C	-0.646457	-0.904718	-0.646128
C94	C	-0.705386	-0.976267	-0.704832
C95	C	-0.772801	-0.921633	-0.771962
H96	H	-0.606444	-0.861945	-0.692078
H97	H	-0.692244	-0.861907	-0.605887
H98	H	-0.659605	-1.019060	-0.745070
H99	H	-0.745421	-1.019043	-0.658910
H100	H	-0.818588	-0.878822	-0.731721
H101	H	-0.732779	-0.878861	-0.817904
H102	H	-0.812798	-0.970170	-0.811793
H103	H	-0.905953	-1.774786	-0.250096
C104	C	-1.119786	-1.793323	-0.231991
C105	C	-1.092973	-1.897247	-0.254927
C106	C	-1.147690	-1.964694	-0.187865
H107	H	-1.193004	-1.783878	-0.241561
H108	H	-1.101855	-1.778034	-0.161364
H109	H	-1.110911	-1.912531	-0.325536
H110	H	-1.019763	-1.906726	-0.245351
H111	H	-1.129759	-1.949405	-0.117239
H112	H	-1.220906	-1.955240	-0.197441
H113	H	-1.129498	-2.035213	-0.203412
C114	C	-1.234338	-1.653135	-0.371811
C115	C	-1.270643	-1.726397	-0.298643
C116	C	-1.380377	-1.726590	-0.298465
H117	H	-1.259214	-1.671322	-0.439571
H118	H	-1.259274	-1.585378	-0.353543
H119	H	-1.245718	-1.794139	-0.316917
H120	H	-1.245797	-1.708227	-0.230872
H121	H	-1.405313	-1.658833	-0.280197
H122	H	-1.405242	-1.744776	-0.366228
H123	H	-1.405024	-1.776291	-0.248815
H124	H	-1.204544	-1.384123	-0.640541
C125	C	-1.119767	-1.243694	-0.780487
C126	C	-1.093175	-1.139738	-0.757537
C127	C	-1.147891	-1.072357	-0.824636
H128	H	-1.192986	-1.253224	-0.770964
H129	H	-1.101684	-1.258964	-0.851102
H130	H	-1.111265	-1.124473	-0.686939
H131	H	-1.019965	-1.130175	-0.767066
H132	H	-1.129808	-1.087627	-0.895250
H133	H	-1.221107	-1.081896	-0.815107
H134	H	-1.129849	-1.001816	-0.809080
H135	H	-0.905947	-1.261989	-0.762267
H136	H	-0.806417	-1.383890	-0.640408
H137	H	-0.383960	-1.118405	-0.384478
