data_functionalizedCrystal
_audit_creation_method	'MofGen! by Chris Wilmer'
_symmetry_space_group_name_H-M	'P1'
_symmetry_Int_Tables_number	1
_symmetry_cell_setting	triclinic
loop_
_symmetry_equiv_pos_as_xyz
  x,y,z
_cell_length_a	14.472310
_cell_length_b	11.026607
_cell_length_c	10.967829
_cell_angle_alpha	83.619437
_cell_angle_beta	102.128866
_cell_angle_gamma	89.986907
loop_
_atom_site_label
_atom_site_type_symbol
_atom_site_fract_x
_atom_site_fract_y
_atom_site_fract_z
O1	O	0.160200	-1.614562	0.523505
O2	O	0.150709	-1.260757	0.463893
O3	O	0.126818	-1.445812	0.313883
O4	O	0.184091	-1.429507	0.673515
O5	O	-0.026864	-1.445764	0.313883
O6	O	-0.002973	-1.260709	0.463893
O7	O	0.006518	-1.614514	0.523505
Cu8	Cu	-0.012260	-1.437607	0.493699
Cu9	Cu	0.169487	-1.437664	0.493699
O10	O	0.030409	-1.429459	0.673515
C11	C	0.072117	-1.215430	0.452896
C12	C	0.066897	-1.080441	0.420112
N13	N	-0.140091	-1.437576	0.493701
C14	C	0.042533	-1.444598	0.267127
C15	C	0.020351	-1.441038	0.127804
C16	C	-0.514183	-1.437662	0.493694
C17	C	-0.462301	-1.338305	0.573541
C18	C	-0.355145	-1.338539	0.573967
C19	C	-0.328592	-1.437618	0.493697
C20	C	-0.358354	-1.564714	0.550683
C21	C	-0.465380	-1.564157	0.551284
C22	C	-0.496512	-1.411053	0.356810
C23	C	-0.389349	-1.408151	0.357031
C24	C	-0.223703	-1.437602	0.493698
C25	C	-0.619071	-1.437687	0.493697
N26	N	0.297316	-1.437704	0.493690
C27	C	0.085112	-1.659841	0.534502
C28	C	0.090337	-1.794829	0.567286
C29	C	0.081313	-1.007394	0.510633
C30	C	0.075919	-0.867876	0.476752
C31	C	0.090074	-1.439475	0.065696
C32	C	0.067150	-1.435795	-0.078301
C33	C	0.114696	-1.430673	0.720272
C34	C	0.136884	-1.434233	0.859594
H35	H	-0.494131	-1.243565	0.535596
H36	H	0.213553	-1.435605	-0.086982
H37	H	-0.370747	-1.314652	0.314448
H38	H	-0.313428	-1.355645	0.674952
H39	H	-0.499940	-1.640459	0.496945
H40	H	0.050584	-1.039691	0.317531
N41	N	-0.539965	-1.297221	0.296940
N42	N	-0.601783	-1.294344	0.198046
H43	H	-0.632471	-1.213944	0.155775
H44	H	0.059605	-0.827131	0.374164
N45	N	0.110845	-0.845909	0.695991
N46	N	0.124407	-0.777300	0.781110
H47	H	0.138892	-0.813373	0.872008
H48	H	-0.473223	-1.355181	0.673928
H49	H	-0.334965	-1.244102	0.535811
N50	N	0.101824	-1.058499	0.639325
N51	N	0.177863	-1.035386	0.710002
H52	H	0.192350	-1.071476	0.800894
N53	N	0.186247	-1.441199	0.132731
N54	N	0.204732	-1.444179	0.249609
H55	H	0.272656	-1.445395	0.296952
N56	N	-0.368617	-1.492930	0.276237
N57	N	-0.308461	-1.576829	0.318255
H58	H	-0.293817	-1.636714	0.261198
N59	N	-0.075832	-1.439284	0.060806
N60	N	-0.130854	-1.354086	0.067614
H61	H	-0.198786	-1.352846	0.020300
N62	N	-0.029028	-1.434041	-0.145334
N63	N	-0.047514	-1.431048	-0.262213
H64	H	-0.115438	-1.429807	-0.309558
H65	H	-0.474319	-1.587438	0.651983
H66	H	-0.341697	-1.640461	0.495265
N67	N	-0.304770	-1.594562	0.675798
N68	N	-0.309332	-1.526275	0.758109
H69	H	-0.271490	-1.547347	0.846475
N70	N	-0.540227	-1.501935	0.281857
N71	N	-0.584230	-1.585980	0.328882
H72	H	-0.615107	-1.650169	0.275957
