data_functionalizedCrystal
_audit_creation_method	'MofGen! by Chris Wilmer'
_symmetry_space_group_name_H-M	'P1'
_symmetry_Int_Tables_number	1
_symmetry_cell_setting	triclinic
loop_
_symmetry_equiv_pos_as_xyz
  x,y,z
_cell_length_a	15.944551
_cell_length_b	14.971486
_cell_length_c	14.048226
_cell_angle_alpha	90.006640
_cell_angle_beta	89.989347
_cell_angle_gamma	96.443567
loop_
_atom_site_label
_atom_site_type_symbol
_atom_site_fract_x
_atom_site_fract_y
_atom_site_fract_z
O1	O	1.114636	-0.115362	-0.079254
O2	O	0.870100	-0.129584	-0.079235
O3	O	0.998922	0.007734	-0.079238
O4	O	0.985814	-0.252680	-0.079251
O5	O	0.998907	0.007742	0.079083
O6	O	0.870085	-0.129576	0.079086
O7	O	1.114621	-0.115354	0.079068
Zn8	Zn	0.992350	-0.122464	0.104214
Zn9	Zn	0.992371	-0.122474	-0.104381
O10	O	0.985798	-0.252672	0.079071
C11	C	0.838798	-0.128990	-0.000072
C12	C	0.745550	-0.127220	-0.000065
C13	C	0.998328	0.041062	-0.000078
C14	C	0.996572	0.140357	-0.000078
C15	C	1.145923	-0.115948	-0.000097
C16	C	1.239171	-0.117718	-0.000111
C17	C	1.454112	-0.207066	-0.000093
C18	C	1.515101	-0.165580	-0.078151
C19	C	1.409900	-0.120921	-0.000097
C20	C	1.515063	-0.165551	0.077941
C21	C	1.574815	-0.124020	-0.000080
C22	C	1.469660	-0.079411	-0.078219
C23	C	1.469616	-0.079395	0.077943
C24	C	1.530586	-0.037846	-0.000134
C25	C	1.314896	-0.119138	-0.000108
C26	C	1.669818	-0.125797	-0.000076
C27	C	0.986392	-0.286000	-0.000092
C28	C	0.988149	-0.385295	-0.000097
N29	N	0.992342	-0.122456	0.246575
C30	C	1.072251	0.197664	-0.000083
C31	C	1.070595	0.290962	-0.000093
C32	C	0.993259	0.326951	-0.000090
C33	C	0.917574	0.269637	-0.000088
C34	C	0.919230	0.176341	-0.000086
C35	C	0.914127	0.464095	-0.000092
C36	C	0.912470	0.557398	-0.000092
C37	C	1.065491	0.578717	-0.000099
C38	C	1.067148	0.485421	-0.000096
C39	C	0.991462	0.428113	-0.000092
N40	N	0.992385	-0.122475	-0.246742
C41	C	1.049403	-0.061676	0.296391
C42	C	1.049408	-0.061676	0.396049
C43	C	0.992357	-0.122460	0.445888
C44	C	0.935290	-0.183242	0.396064
C45	C	0.935281	-0.183238	0.296408
C46	C	0.935315	-0.183249	0.603779
C47	C	0.935325	-0.183255	0.703441
C48	C	1.049442	-0.061687	0.703419
C49	C	1.049433	-0.061682	0.603763
C50	C	0.992367	-0.122466	0.553946
H51	H	1.420874	-0.278571	-0.000174
C52	C	1.542337	-0.214811	-0.167301
N53	N	1.562851	-0.251899	-0.234443
H54	H	1.449442	-0.042987	0.143943
C55	C	1.112159	0.005208	0.450843
N56	N	1.159418	0.055596	0.492113
C57	C	1.442621	-0.030237	-0.167476
N58	N	1.422253	0.006796	-0.234705
C59	C	1.575293	0.058837	-0.000185
N60	N	1.608966	0.131658	-0.000228
C61	C	0.830868	0.401058	-0.000082
N62	N	0.768158	0.353579	-0.000069
H63	H	1.095864	-0.012183	0.255819
C64	C	1.153849	0.353996	-0.000083
N65	N	1.216560	0.401474	-0.000071
H66	H	1.535176	-0.201999	0.143933
C67	C	0.872530	-0.250105	0.548982
N68	N	0.825242	-0.300460	0.507710
H69	H	0.854605	0.298946	-0.000092
H70	H	1.135227	0.168370	-0.000079
H71	H	0.857604	0.129681	-0.000082
C72	C	1.112212	0.005179	0.758219
N73	N	1.159490	0.055540	0.799500
H74	H	1.095892	-0.012192	0.563184
C75	C	0.872560	-0.250115	0.758262
N76	N	0.825284	-0.300474	0.799554
H77	H	1.130122	0.456122	-0.000091
C78	C	1.148747	0.641757	-0.000110
N79	N	1.211452	0.689243	-0.000117
H80	H	0.849496	0.586696	-0.000075
H81	H	0.888834	-0.232731	0.436649
H82	H	0.888816	-0.232730	0.255849
