data_functionalizedCrystal
_audit_creation_method	'MofGen! by Chris Wilmer'
_symmetry_space_group_name_H-M	'P1'
_symmetry_Int_Tables_number	1
_symmetry_cell_setting	triclinic
loop_
_symmetry_equiv_pos_as_xyz
  x,y,z
_cell_length_a	14.853576
_cell_length_b	19.288840
_cell_length_c	17.766276
_cell_angle_alpha	89.998559
_cell_angle_beta	90.007408
_cell_angle_gamma	83.382250
loop_
_atom_site_label
_atom_site_type_symbol
_atom_site_fract_x
_atom_site_fract_y
_atom_site_fract_z
O1	O	0.112362	0.921727	0.062718
O2	O	0.127557	0.719516	0.062692
O3	O	-0.011301	0.826020	0.062703
O4	O	0.251220	0.815223	0.062707
O5	O	-0.011319	0.826038	-0.062486
O6	O	0.127538	0.719534	-0.062497
O7	O	0.112344	0.921746	-0.062470
Cu8	Cu	0.119939	0.820642	-0.073914
Cu9	Cu	0.119961	0.820620	0.074136
O10	O	0.251202	0.815242	-0.062481
C11	C	0.127062	0.693647	0.000094
C12	C	0.125606	0.616537	0.000084
C13	C	-0.044896	0.825539	0.000109
C14	C	-0.144971	0.824070	0.000112
C15	C	-0.191972	0.823368	0.068355
C16	C	-0.192005	0.823396	-0.068130
C17	C	-0.286031	0.822020	-0.068130
C18	C	-0.333032	0.821318	0.000113
C19	C	-0.286007	0.821994	0.068357
C20	C	-0.333065	0.821352	-0.136373
C21	C	-0.427097	0.819976	-0.136376
C22	C	-0.474098	0.819269	-0.068132
C23	C	-0.427067	0.819944	0.000115
C24	C	-0.474069	0.819242	0.068359
C25	C	-0.427038	0.819912	0.136606
C26	C	-0.333009	0.821287	0.136602
C27	C	-0.568128	0.817894	-0.068127
C28	C	-0.568104	0.817867	0.068360
C29	C	0.124916	0.580321	0.068326
C30	C	0.123538	0.507870	0.068336
C31	C	0.122831	0.471639	0.000099
C32	C	0.123526	0.507863	-0.068152
C33	C	0.124914	0.580312	-0.068160
C34	C	0.067820	0.362132	-0.052171
C35	C	0.066427	0.289684	-0.052161
C36	C	0.118556	0.248181	0.000118
C37	C	0.172066	0.279134	0.052400
C38	C	0.173453	0.351584	0.052393
C39	C	0.121327	0.393080	0.000099
C40	C	0.116372	0.133404	0.068375
C41	C	0.115000	0.060951	0.068382
C42	C	0.114979	0.060946	-0.068108
C43	C	0.116361	0.133397	-0.068113
C44	C	0.117053	0.169622	0.000131
C45	C	0.284796	0.815723	0.000114
C46	C	0.384871	0.817192	0.000117
C47	C	0.112838	0.947615	0.000129
C48	C	0.114294	1.024725	0.000144
N49	N	0.119969	0.820605	0.178266
N50	N	0.119924	0.820662	-0.178044
C51	C	0.174609	0.862699	0.217664
C52	C	0.174610	0.862703	0.296466
C53	C	0.119954	0.820622	0.335867
C54	C	0.065311	0.778520	0.296459
C55	C	0.065318	0.778511	0.217659
C56	C	0.038636	0.818759	0.460697
C57	C	0.038627	0.818772	0.539496
C58	C	0.119931	0.820644	0.578913
C59	C	0.201247	0.822518	0.539522
C60	C	0.201254	0.822509	0.460722
C61	C	0.119940	0.820626	0.421312
C62	C	0.174577	0.862745	0.703757
C63	C	0.174579	0.862745	0.782560
C64	C	0.065271	0.778565	0.782552
C65	C	0.065277	0.778562	0.703750
C66	C	0.119928	0.820656	0.664357
H67	H	-0.606364	0.817291	0.123933
H68	H	-0.153732	0.823973	-0.123691
Cl69	Cl	0.122670	0.462332	0.154132
Cl70	Cl	0.117252	0.178947	0.154165
Cl71	Cl	-0.627249	0.817059	-0.153916
Cl72	Cl	0.122643	0.462316	-0.153936
H73	H	0.114443	0.031464	0.123955
Cl74	Cl	-0.003396	0.725614	0.345991
Cl75	Cl	0.240724	0.390494	0.118111
Cl76	Cl	0.303465	0.824874	0.589066
H77	H	0.114409	0.031447	-0.123668
H78	H	-0.294790	0.821928	-0.191933
Cl79	Cl	0.125791	0.625857	0.154119
Cl80	Cl	0.117222	0.178929	-0.153908
Cl81	Cl	-0.486211	0.819129	-0.222171
H82	H	0.214517	0.245343	0.094968
H83	H	0.125476	0.609799	-0.123732
H84	H	-0.153675	0.823911	0.123921
Cl85	Cl	-0.003433	0.725657	0.832077
H86	H	0.022852	0.264488	-0.094728
H87	H	0.025368	0.395919	-0.094746
Cl88	Cl	-0.486138	0.819038	0.222394
Cl89	Cl	0.243321	0.915611	0.168146
Cl90	Cl	0.243291	0.915637	0.346005
H91	H	0.267464	0.824032	0.428653
H92	H	0.219081	0.897017	0.671681
H93	H	0.020823	0.744232	0.185582
H94	H	0.219079	0.897021	0.814637
Cl95	Cl	-0.003421	0.725644	0.654219
H96	H	-0.027575	0.817228	0.428610
Cl97	Cl	-0.273886	0.822162	0.222390
Cl98	Cl	-0.063595	0.816412	0.589008
