data_functionalizedCrystal
_audit_creation_method	'MofGen! by Chris Wilmer'
_symmetry_space_group_name_H-M	'P1'
_symmetry_Int_Tables_number	1
_symmetry_cell_setting	triclinic
loop_
_symmetry_equiv_pos_as_xyz
  x,y,z
_cell_length_a	18.050591
_cell_length_b	18.050589
_cell_length_c	16.120379
_cell_angle_alpha	87.038840
_cell_angle_beta	92.857147
_cell_angle_gamma	90.024227
loop_
_atom_site_label
_atom_site_type_symbol
_atom_site_fract_x
_atom_site_fract_y
_atom_site_fract_z
Zn1	Zn	1.114156	-0.274172	-0.471566
Zn2	Zn	1.364156	-0.024172	-0.221566
Zn3	Zn	1.614156	0.225828	0.028434
Zn4	Zn	1.864156	0.475828	0.278434
Zn5	Zn	1.120315	-0.404745	-0.332157
Zn6	Zn	1.370315	-0.154745	-0.082157
Zn7	Zn	1.620315	0.095255	0.167843
Zn8	Zn	1.870315	0.345255	0.417843
Zn9	Zn	0.996224	-0.280565	-0.332148
Zn10	Zn	1.246224	-0.030565	-0.082148
Zn11	Zn	1.496224	0.219435	0.167852
Zn12	Zn	1.746224	0.469435	0.417852
Zn13	Zn	0.989926	-0.398319	-0.471515
Zn14	Zn	1.239926	-0.148319	-0.221515
Zn15	Zn	1.489926	0.101681	0.028485
Zn16	Zn	1.739926	0.351681	0.278485
O17	O	1.055155	-0.339451	-0.401846
O18	O	1.305155	-0.089451	-0.151846
O19	O	1.555155	0.160549	0.098154
O20	O	1.805155	0.410549	0.348154
O21	O	1.218897	-0.291507	-0.453098
O22	O	1.468897	-0.041507	-0.203098
O23	O	1.718897	0.208493	0.046902
O24	O	1.968897	0.458493	0.296902
O25	O	1.109068	-0.393638	-0.215487
O26	O	1.359068	-0.143638	0.034513
O27	O	1.609068	0.106362	0.284513
O28	O	1.859068	0.356362	0.534513
O29	O	1.011927	-0.175792	-0.350659
O30	O	1.261927	0.074208	-0.100659
O31	O	1.511927	0.324208	0.149341
O32	O	1.761927	0.574208	0.399341
O33	O	1.223422	-0.387439	-0.350675
O34	O	1.473422	-0.137439	-0.100675
O35	O	1.723422	0.112561	0.149325
O36	O	1.973422	0.362561	0.399325
O37	O	1.098571	-0.171095	-0.453089
O38	O	1.348571	0.078905	-0.203089
O39	O	1.598571	0.328905	0.046911
O40	O	1.848571	0.578905	0.296911
O41	O	1.017899	-0.302403	-0.215480
O42	O	1.267899	-0.052403	0.034520
O43	O	1.517899	0.197597	0.284520
O44	O	1.767899	0.447597	0.534520
O45	O	0.891465	-0.296172	-0.350610
O46	O	1.141465	-0.046172	-0.100610
O47	O	1.391465	0.203828	0.149390
O48	O	1.641465	0.453828	0.399390
O49	O	1.001191	-0.376486	-0.588191
O50	O	1.251191	-0.126486	-0.338191
O51	O	1.501191	0.123514	-0.088191
O52	O	1.751191	0.373514	0.161809
O53	O	0.886838	-0.382685	-0.453003
O54	O	1.136838	-0.132685	-0.203003
O55	O	1.386838	0.117315	0.046997
O56	O	1.636838	0.367315	0.296997
O57	O	1.092463	-0.285276	-0.588228
O58	O	1.342463	-0.035276	-0.338228
O59	O	1.592463	0.214724	-0.088228
O60	O	1.842463	0.464724	0.161772
O61	O	1.102961	-0.507818	-0.350626
O62	O	1.352961	-0.257818	-0.100626
O63	O	1.602961	-0.007818	0.149374
O64	O	1.852961	0.242182	0.399374
O65	O	1.007164	-0.503097	-0.453012
O66	O	1.257164	-0.253097	-0.203012
O67	O	1.507164	-0.003097	0.046988
O68	O	1.757164	0.246903	0.296988
C69	C	0.862205	-0.339425	-0.401800
C70	C	1.112205	-0.089425	-0.151800
C71	C	1.362205	0.160575	0.098200
C72	C	1.612205	0.410575	0.348200
C73	C	0.779660	-0.339431	-0.401800
C74	C	1.029660	-0.089431	-0.151800
C75	C	1.279660	0.160569	0.098200
C76	C	1.529660	0.410569	0.348200
C77	C	0.582698	-0.292322	-0.346247
C78	C	0.832698	-0.042322	-0.096247
C79	C	1.082698	0.207678	0.153753
C80	C	1.332698	0.457678	0.403753
C81	C	0.534198	-0.360998	-0.325736
C82	C	0.784198	-0.110998	-0.075736
C83	C	1.034198	0.139002	0.174264
C84	C	1.284198	0.389002	0.424264
C85	C	0.628527	-0.339452	-0.401838
C86	C	0.878527	-0.089452	-0.151838
C87	C	1.128527	0.160548	0.098162
C88	C	1.378527	0.410548	0.348162
C89	C	0.529946	-0.270799	-0.422347
C90	C	0.779946	-0.020799	-0.172347
C91	C	1.029946	0.229201	0.077653
C92	C	1.279946	0.479201	0.327653
C93	C	0.482541	-0.339466	-0.401873
C94	C	0.732541	-0.089466	-0.151873
C95	C	0.982541	0.160534	0.098127
C96	C	1.232541	0.410534	0.348127
C97	C	0.581116	-0.408165	-0.381287
C98	C	0.831116	-0.158165	-0.131287
C99	C	1.081116	0.091835	0.118713
C100	C	1.331116	0.341835	0.368713
C101	C	0.576867	-0.317919	-0.477934
C102	C	0.826867	-0.067919	-0.227934
C103	C	1.076867	0.182081	0.022066
C104	C	1.326867	0.432081	0.272066
C105	C	0.528388	-0.386641	-0.457451
C106	C	0.778388	-0.136641	-0.207451
C107	C	1.028388	0.113359	0.042549
C108	C	1.278388	0.363359	0.292549
C109	C	0.712627	-0.339443	-0.401816
C110	C	0.962627	-0.089443	-0.151816
C111	C	1.212627	0.160557	0.098184
C112	C	1.462627	0.410557	0.348184
C113	C	0.398443	-0.339483	-0.401895
C114	C	0.648443	-0.089483	-0.151895
C115	C	0.898443	0.160517	0.098105
C116	C	1.148443	0.410517	0.348105
C117	C	1.055066	-0.532403	-0.401833
C118	C	1.305066	-0.282403	-0.151833
C119	C	1.555066	-0.032403	0.098167
C120	C	1.805066	0.217597	0.348167
C121	C	1.055095	-0.614948	-0.401855
C122	C	1.305095	-0.364948	-0.151855
C123	C	1.555095	-0.114948	0.098145
C124	C	1.805095	0.135052	0.348145
C125	C	1.003050	-0.811859	-0.457513
C126	C	1.253050	-0.561859	-0.207513
C127	C	1.503050	-0.311859	0.042487
C128	C	1.753050	-0.061859	0.292487
C129	C	0.988362	-0.864779	-0.381433
C130	C	1.238362	-0.614779	-0.131433
C131	C	1.488362	-0.364779	0.118567
C132	C	1.738362	-0.114779	0.368567
C133	C	1.055167	-0.766078	-0.401865
C134	C	1.305167	-0.516078	-0.151865
C135	C	1.555167	-0.266078	0.098135
C136	C	1.805167	-0.016078	0.348135
C137	C	1.069891	-0.860240	-0.477954
C138	C	1.319891	-0.610240	-0.227954
C139	C	1.569891	-0.360240	0.022046
C140	C	1.819891	-0.110240	0.272046
C141	C	1.055236	-0.912062	-0.401883
C142	C	1.305236	-0.662062	-0.151883
C143	C	1.555236	-0.412062	0.098117
C144	C	1.805236	-0.162062	0.348117
C145	C	1.040446	-0.817912	-0.325745
C146	C	1.290446	-0.567912	-0.075745
C147	C	1.540446	-0.317912	0.174255
C148	C	1.790446	-0.067912	0.424255
C149	C	1.122004	-0.813366	-0.422318
C150	C	1.372004	-0.563366	-0.172318
C151	C	1.622004	-0.313366	0.077682
C152	C	1.872004	-0.063366	0.327682
C153	C	1.107344	-0.866266	-0.346186
C154	C	1.357344	-0.616266	-0.096186
C155	C	1.607344	-0.366266	0.153814
C156	C	1.857344	-0.116266	0.403814
C157	C	1.055126	-0.681980	-0.401857
C158	C	1.305126	-0.431980	-0.151857
C159	C	1.555126	-0.181980	0.098143
C160	C	1.805126	0.068020	0.348143
C161	C	1.055278	-0.996159	-0.401883
C162	C	1.305278	-0.746159	-0.151883
C163	C	1.555278	-0.496159	0.098117
C164	C	1.805278	-0.246159	0.348117
C165	C	1.248859	-0.339477	-0.401893
C166	C	1.498859	-0.089477	-0.151893
C167	C	1.748859	0.160523	0.098107
C168	C	1.998859	0.410523	0.348107
C169	C	1.331404	-0.339488	-0.401913
C170	C	1.581404	-0.089488	-0.151913
C171	C	1.831404	0.160512	0.098087
C172	C	2.081404	0.410512	0.348087
C173	C	1.045438	-0.329451	-0.619307
C174	C	1.295438	-0.079451	-0.369307
C175	C	1.545438	0.170549	-0.119307
C176	C	1.795438	0.420549	0.130693
C177	C	1.041296	-0.325189	-0.711975
C178	C	1.291296	-0.075189	-0.461975
C179	C	1.541296	0.174811	-0.211975
C180	C	1.791296	0.424811	0.038025
C181	C	1.055264	-0.145743	-0.401879
C182	C	1.305264	0.104257	-0.151879
C183	C	1.555264	0.354257	0.098121
C184	C	1.805264	0.604257	0.348121
C185	C	1.055311	-0.063197	-0.401892
C186	C	1.305311	0.186803	-0.151892
C187	C	1.555311	0.436803	0.098108
C188	C	1.805311	0.686803	0.348108
C189	C	1.064878	-0.349358	-0.185232
C190	C	1.314878	-0.099358	0.064768
C191	C	1.564878	0.150642	0.314768
C192	C	1.814878	0.400642	0.564768
C193	C	1.069163	-0.353410	-0.092564
C194	C	1.319163	-0.103410	0.157436
C195	C	1.569163	0.146590	0.407436
C196	C	1.819163	0.396590	0.657436
C197	C	1.076997	-0.360808	0.077101
C198	C	1.326997	-0.110808	0.327101
C199	C	1.576997	0.139192	0.577101
C200	C	1.826997	0.389192	0.827101
C201	C	1.033465	-0.317793	0.118365
C202	C	1.283465	-0.067793	0.368365
C203	C	1.533465	0.182207	0.618365
C204	C	1.783465	0.432207	0.868365
C205	C	1.037824	-0.321910	0.212772
C206	C	1.287824	-0.071910	0.462772
C207	C	1.537824	0.178090	0.712772
C208	C	1.787824	0.428090	0.962772
C209	C	1.072639	-0.356693	-0.017315
C210	C	1.322639	-0.106693	0.232685
C211	C	1.572639	0.143307	0.482685
C212	C	1.822639	0.393307	0.732685
H213	H	0.603475	-0.466250	-0.363883
H214	H	0.853475	-0.216250	-0.113883
H215	H	1.103475	0.033750	0.136117
H216	H	1.353475	0.283750	0.386117
O217	O	0.614188	-0.239593	-0.283911
O218	O	0.864188	0.010407	-0.033911
O219	O	1.114188	0.260407	0.216089
O220	O	1.364188	0.510407	0.466089
H221	H	0.646581	-0.195754	-0.316537
H222	H	0.896581	0.054246	-0.066537
H223	H	1.146581	0.304246	0.183463
H224	H	1.396581	0.554246	0.433463
H225	H	1.117536	-0.400723	0.112675
H226	H	1.367536	-0.150723	0.362675
H227	H	1.617536	0.099277	0.612675
H228	H	1.867536	0.349277	0.862675
O229	O	0.509216	-0.385145	-0.240519
O230	O	0.759216	-0.135145	0.009481
O231	O	1.009216	0.114855	0.259481
O232	O	1.259216	0.364855	0.509481
H233	H	0.475607	-0.340336	-0.216256
H234	H	0.725607	-0.090336	0.033744
H235	H	0.975607	0.159664	0.283744
H236	H	1.225607	0.409664	0.533744
H237	H	0.504759	-0.426552	-0.504477
H238	H	0.754759	-0.176552	-0.254477
H239	H	1.004759	0.073448	-0.004477
H240	H	1.254759	0.323448	0.245523
O241	O	1.086359	-0.885019	-0.563178
O242	O	1.336359	-0.635019	-0.313178
O243	O	1.586359	-0.385019	-0.063178
O244	O	1.836359	-0.135019	0.186822
H245	H	1.042985	-0.863160	-0.609237
H246	H	1.292985	-0.613160	-0.359237
H247	H	1.542985	-0.363160	-0.109237
H248	H	1.792985	-0.113160	0.140763
H249	H	0.595740	-0.299677	-0.542252
H250	H	0.845740	-0.049677	-0.292252
H251	H	1.095740	0.200323	-0.042252
H252	H	1.345740	0.450323	0.207748
O253	O	0.979756	-0.264917	0.071251
O254	O	1.229756	-0.014917	0.321251
O255	O	1.479756	0.235083	0.571251
O256	O	1.729756	0.485083	0.821251
H257	H	0.984712	-0.269945	0.003418
H258	H	1.234712	-0.019945	0.253418
H259	H	1.484712	0.230055	0.503418
H260	H	1.734712	0.480055	0.753418
H261	H	0.958918	-0.788055	-0.504505
H262	H	1.208918	-0.538055	-0.254505
H263	H	1.458918	-0.288055	-0.004505
H264	H	1.708918	-0.038055	0.245495
O265	O	0.500214	-0.193889	-0.445319
O266	O	0.750214	0.056111	-0.195319
O267	O	1.000214	0.306111	0.054681
O268	O	1.250214	0.556111	0.304681
H269	H	0.522052	-0.154872	-0.399069
H270	H	0.772052	0.095128	-0.149069
H271	H	1.022052	0.345128	0.100931
H272	H	1.272052	0.595128	0.350931
H273	H	0.931873	-0.887347	-0.364150
H274	H	1.181873	-0.637347	-0.114150
H275	H	1.431873	-0.387347	0.135850
H276	H	1.681873	-0.137347	0.385850
H277	H	1.178479	-0.790798	-0.439637
H278	H	1.428479	-0.540798	-0.189637
H279	H	1.678479	-0.290798	0.060363
H280	H	1.928479	-0.040798	0.310363
O281	O	1.023893	-0.793262	-0.240493
O282	O	1.273893	-0.543262	0.009507
O283	O	1.523893	-0.293262	0.259507
O284	O	1.773893	-0.043262	0.509507
H285	H	1.023964	-0.731743	-0.241165
H286	H	1.273964	-0.481743	0.008835
H287	H	1.523964	-0.231743	0.258835
H288	H	1.773964	0.018257	0.508835
H289	H	1.151450	-0.889938	-0.299080
H290	H	1.401450	-0.639938	-0.049080
H291	H	1.651450	-0.389938	0.200920
H292	H	1.901450	-0.139938	0.450920
