data_functionalizedCrystal
_audit_creation_method	'MofGen! by Chris Wilmer'
_symmetry_space_group_name_H-M	'P1'
_symmetry_Int_Tables_number	1
_symmetry_cell_setting	triclinic
loop_
_symmetry_equiv_pos_as_xyz
  x,y,z
_cell_length_a	13.033293
_cell_length_b	14.908178
_cell_length_c	13.032268
_cell_angle_alpha	93.450130
_cell_angle_beta	89.079182
_cell_angle_gamma	100.025217
loop_
_atom_site_label
_atom_site_type_symbol
_atom_site_fract_x
_atom_site_fract_y
_atom_site_fract_z
Zn1	Zn	1.482374	-0.280179	-0.760689
Zn2	Zn	1.496685	-0.409596	-0.579111
Zn3	Zn	1.332507	-0.275423	-0.567217
Zn4	Zn	1.300780	-0.447137	-0.726365
O5	O	1.403087	-0.353084	-0.658345
O6	O	1.628979	-0.283625	-0.755944
O7	O	1.494174	-0.374096	-0.434938
O8	O	1.359676	-0.150030	-0.602269
O9	O	1.639493	-0.378707	-0.622540
O10	O	1.469782	-0.153524	-0.744411
O11	O	1.373553	-0.275520	-0.426200
O12	O	1.183592	-0.311922	-0.568986
O13	O	1.305602	-0.442691	-0.873512
O14	O	1.160282	-0.438080	-0.685911
O15	O	1.439018	-0.320028	-0.898730
O16	O	1.463409	-0.540600	-0.589257
O17	O	1.319479	-0.568181	-0.697444
C18	C	1.134416	-0.378560	-0.622434
C19	C	1.019473	-0.389483	-0.607094
C20	C	0.963008	-0.347405	-0.666350
C21	C	0.844208	-0.358694	-0.650496
C22	C	1.389579	-0.587067	-0.640942
C23	C	1.383891	-0.687162	-0.633544
C24	C	1.487737	-0.878765	-0.767781
C25	C	1.482395	-0.972813	-0.760834
C26	C	1.367861	-0.969308	-0.612707
C27	C	1.373203	-0.875260	-0.619654
C28	C	1.433144	-0.829992	-0.697193
C29	C	1.438491	-0.735941	-0.704135
C30	C	1.323951	-0.732439	-0.556014
C31	C	1.318610	-0.826487	-0.549066
C32	C	1.672806	-0.327509	-0.694397
C33	C	1.787744	-0.316611	-0.709761
C34	C	1.367174	-0.386078	-0.924128
C35	C	1.351871	-0.400138	-1.037389
C36	C	1.416671	-0.118186	-0.675842
C37	C	1.422461	-0.018087	-0.683298
C38	C	1.411059	-0.345715	-1.100362
C39	C	1.395244	-0.360245	-1.217423
C40	C	1.438922	-0.320147	-0.393609
C41	C	1.454441	-0.305815	-0.280394
H42	H	1.002617	-0.303020	-0.728815
H43	H	1.279501	-0.692716	-0.498533
O44	O	0.797041	-0.411529	-0.575834
C45	C	0.838215	-0.376641	-0.479270
H46	H	0.872799	-0.301260	-0.483549
H47	H	0.901658	-0.415664	-0.457254
C48	C	0.708297	-0.480229	-0.392494
C49	C	0.750765	-0.387642	-0.397747
H50	H	0.654356	-0.487018	-0.342205
H51	H	0.680559	-0.503736	-0.457550
H52	H	0.761175	-0.512737	-0.374151
H53	H	0.697889	-0.355137	-0.416102
H54	H	0.778492	-0.364129	-0.332691
H55	H	0.827348	-0.272220	-0.772229
H56	H	1.289482	-0.457483	-1.070140
H57	H	1.516822	-0.248455	-1.247649
H58	H	1.526845	-1.012522	-0.818318
H59	H	0.979865	-0.433863	-0.544623
H60	H	1.487301	-0.699084	-0.767269
H61	H	1.319055	-1.006183	-0.549583
O62	O	1.545971	-0.834934	-0.843188
C63	C	1.593037	-0.898146	-0.903985
H64	H	1.546401	-0.969673	-0.896859
H65	H	1.676075	-0.896018	-0.876504
C66	C	1.652554	-0.785601	-1.025895
C67	C	1.595270	-0.873450	-1.017150
H68	H	1.653937	-0.770365	-1.095700
H69	H	1.620849	-0.743012	-0.984934
H70	H	1.721747	-0.783838	-1.002988
H71	H	1.526076	-0.875208	-1.040044
H72	H	1.626964	-0.916038	-1.058118
H73	H	1.269805	-0.863358	-0.485939
O74	O	1.485360	-0.277252	-1.061171
C75	C	1.438109	-0.217066	-0.996078
H76	H	1.360027	-0.254304	-0.967399
H77	H	1.425120	-0.156449	-1.040491
C78	C	1.605416	-0.137169	-0.938946
C79	C	1.509519	-0.182908	-0.903714
H80	H	1.649467	-0.116095	-0.881974
H81	H	1.637251	-0.177715	-0.982803
H82	H	1.594578	-0.086661	-0.975957
H83	H	1.520357	-0.233421	-0.866716
H84	H	1.477688	-0.142370	-0.859849
H85	H	1.332851	-0.417595	-1.250169
