data_functionalizedCrystal
_audit_creation_method	'MofGen! by Chris Wilmer'
_symmetry_space_group_name_H-M	'P1'
_symmetry_Int_Tables_number	1
_symmetry_cell_setting	triclinic
loop_
_symmetry_equiv_pos_as_xyz
  x,y,z
_cell_length_a	16.625546
_cell_length_b	13.032951
_cell_length_c	13.032268
_cell_angle_alpha	89.114265
_cell_angle_beta	97.144614
_cell_angle_gamma	97.175817
loop_
_atom_site_label
_atom_site_type_symbol
_atom_site_fract_x
_atom_site_fract_y
_atom_site_fract_z
Zn1	Zn	-0.544578	-1.498424	-0.780818
Zn2	Zn	-0.211245	-1.165091	-0.447485
Zn3	Zn	0.122088	-0.831757	-0.114151
Zn4	Zn	-0.664710	-1.520155	-0.608826
Zn5	Zn	-0.331376	-1.186822	-0.275492
Zn6	Zn	0.001957	-0.853488	0.057841
Zn7	Zn	-0.510890	-1.348286	-0.587058
Zn8	Zn	-0.177557	-1.014953	-0.253725
Zn9	Zn	0.155777	-0.681619	0.079608
Zn10	Zn	-0.660343	-1.326404	-0.758946
Zn11	Zn	-0.327010	-0.993071	-0.425613
Zn12	Zn	0.006324	-0.659738	-0.092279
O13	O	-0.595130	-1.423317	-0.683912
O14	O	-0.261797	-1.089984	-0.350579
O15	O	0.071536	-0.756651	-0.017245
O16	O	-0.576440	-1.645225	-0.776266
O17	O	-0.243107	-1.311892	-0.442933
O18	O	0.090226	-0.978559	-0.109599
O19	O	-0.632034	-1.515608	-0.462023
O20	O	-0.298701	-1.182275	-0.128690
O21	O	0.034633	-0.848942	0.204643
O22	O	-0.402537	-1.368265	-0.612805
O23	O	-0.069204	-1.034932	-0.279472
O24	O	0.264130	-0.701598	0.053862
O25	O	-0.664700	-1.661191	-0.649904
O26	O	-0.331367	-1.327858	-0.316571
O27	O	0.001966	-0.994524	0.016763
O28	O	-0.427288	-1.478571	-0.755159
O29	O	-0.093954	-1.145237	-0.421826
O30	O	0.239379	-0.811904	-0.088493
O31	O	-0.519023	-1.389337	-0.446031
O32	O	-0.185690	-1.056004	-0.112698
O33	O	0.147643	-0.722670	0.220636
O34	O	-0.514789	-1.201465	-0.591596
O35	O	-0.181456	-0.868131	-0.258263
O36	O	0.151878	-0.534798	0.075070
O37	O	-0.657257	-1.330971	-0.905762
O38	O	-0.323924	-0.997638	-0.572429
O39	O	0.009409	-0.664304	-0.239096
O40	O	-0.624591	-1.185388	-0.717882
O41	O	-0.291258	-0.852055	-0.384548
O42	O	0.042075	-0.518722	-0.051215
O43	O	-0.572206	-1.457353	-0.921832
O44	O	-0.238872	-1.124020	-0.588498
O45	O	0.094461	-0.790686	-0.255165
O46	O	-0.776952	-1.494391	-0.628696
O47	O	-0.443619	-1.161057	-0.295362
O48	O	-0.110286	-0.827724	0.037971
O49	O	-0.773744	-1.352043	-0.738988
O50	O	-0.440411	-1.018709	-0.405655
O51	O	-0.107077	-0.685376	-0.072322
C52	C	-0.565561	-1.156110	-0.650004
C53	C	-0.232228	-0.822777	-0.316671
C54	C	0.101105	-0.489443	0.016662
C55	C	-0.552933	-1.041794	-0.635523
C56	C	-0.219600	-0.708461	-0.302189
C57	C	0.113733	-0.375128	0.031144
C58	C	-0.804607	-1.423225	-0.683857
C59	C	-0.471273	-1.089892	-0.350523
C60	C	-0.137940	-0.756559	-0.017190
C61	C	-0.894235	-1.423276	-0.683879
C62	C	-0.560902	-1.089943	-0.350546
C63	C	-0.227568	-0.756609	-0.017213
C64	C	-0.601702	-0.982914	-0.691456
C65	C	-0.268369	-0.649581	-0.358123
C66	C	0.064965	-0.316247	-0.024789
C67	C	-0.588651	-0.864763	-0.676490
C68	C	-0.255318	-0.531429	-0.343157
C69	C	0.078015	-0.198096	-0.009823
C70	C	-1.222439	-1.423442	-0.684009
C71	C	-0.889106	-1.090108	-0.350676
C72	C	-0.555773	-0.756775	-0.017342
C73	C	-1.131123	-1.423392	-0.683975
C74	C	-0.797790	-1.090059	-0.350642
C75	C	-0.464456	-0.756725	-0.017309
C76	C	-1.058340	-1.423358	-0.683944
C77	C	-0.725007	-1.090025	-0.350610
C78	C	-0.391673	-0.756691	-0.017277
C79	C	-0.967018	-1.423310	-0.683911
C80	C	-0.633684	-1.089976	-0.350578
C81	C	-0.300351	-0.756643	-0.017244
C82	C	-0.384841	-1.423435	-0.683994
C83	C	-0.051507	-1.090101	-0.350660
C84	C	0.281826	-0.756768	-0.017327
C85	C	-0.295228	-1.423485	-0.684028
C86	C	0.038105	-1.090151	-0.350695
C87	C	0.371439	-0.756818	-0.017362
C88	C	-0.618002	-1.389297	-0.952156
C89	C	-0.284669	-1.055964	-0.618822
C90	C	0.048664	-0.722630	-0.285489
C91	C	-0.627749	-1.374800	-1.066465
C92	C	-0.294416	-1.041466	-0.733132
C93	C	0.038918	-0.708133	-0.399799
C94	C	-0.624805	-0.691569	-0.717946
C95	C	-0.291472	-0.358236	-0.384613
C96	C	0.041861	-0.024902	-0.051279
C97	C	-0.637427	-0.805884	-0.732431
C98	C	-0.304093	-0.472551	-0.399098
C99	C	0.029240	-0.139217	-0.065765
C100	C	-0.590013	-1.430868	-1.125379
C101	C	-0.256679	-1.097534	-0.792045
C102	C	0.076654	-0.764201	-0.458712
C103	C	-0.600085	-1.415885	-1.243524
C104	C	-0.266752	-1.082552	-0.910191
C105	C	0.066581	-0.749219	-0.576857
C106	C	-0.572295	-1.457264	-0.416719
C107	C	-0.238962	-1.123931	-0.083386
C108	C	0.094371	-0.790598	0.249947
C109	C	-0.562344	-1.471961	-0.302436
C110	C	-0.229010	-1.138628	0.030898
C111	C	0.104323	-0.805294	0.364231
H112	H	-0.653114	-1.019975	-0.750426
H113	H	-0.319780	-0.686641	-0.417093
H114	H	0.013553	-0.353308	-0.083759
N115	N	-0.509659	-1.550238	-1.253408
N116	N	-0.176326	-1.216905	-0.920074
N117	N	0.157008	-0.883572	-0.586741
H118	H	-0.509928	-1.549846	-1.175959
H119	H	-0.176594	-1.216513	-0.842625
H120	H	0.156739	-0.883179	-0.509292
H121	H	-0.531920	-1.621326	-1.281446
H122	H	-0.198586	-1.287993	-0.948113
H123	H	0.134747	-0.954659	-0.614779
H124	H	-0.667508	-1.315699	-1.103493
H125	H	-0.334174	-0.982366	-0.770159
H126	H	-0.000841	-0.649033	-0.436826
H127	H	-0.639847	-1.356781	-1.280547
H128	H	-0.306514	-1.023447	-0.947213
H129	H	0.026820	-0.690114	-0.613880
H130	H	-0.537230	-0.827705	-0.617524
H131	H	-0.203897	-0.494372	-0.284190
H132	H	0.129436	-0.161039	0.049143
H133	H	-0.688841	-0.842939	-0.791408
H134	H	-0.355507	-0.509605	-0.458075
H135	H	-0.022174	-0.176272	-0.124742
N136	N	-0.537357	-1.509165	-1.076337
N137	N	-0.204024	-1.175832	-0.743004
N138	N	0.129309	-0.842498	-0.409671
H139	H	-0.491597	-1.473019	-1.026465
H140	H	-0.158264	-1.139686	-0.693131
H141	H	0.175070	-0.806352	-0.359798
H142	H	-0.571706	-1.562381	-1.037867
H143	H	-0.238372	-1.229048	-0.704534
H144	H	0.094961	-0.895715	-0.371200
H145	H	-0.501516	-1.004732	-0.576560
H146	H	-0.168183	-0.671399	-0.243227
H147	H	0.165151	-0.338066	0.090106
