data_functionalizedCrystal
_audit_creation_method	'MofGen! by Chris Wilmer'
_symmetry_space_group_name_H-M	'P1'
_symmetry_Int_Tables_number	1
_symmetry_cell_setting	triclinic
loop_
_symmetry_equiv_pos_as_xyz
  x,y,z
_cell_length_a	6.817900
_cell_length_b	10.943867
_cell_length_c	10.943624
_cell_angle_alpha	91.774148
_cell_angle_beta	108.838799
_cell_angle_gamma	108.843261
loop_
_atom_site_label
_atom_site_type_symbol
_atom_site_fract_x
_atom_site_fract_y
_atom_site_fract_z
V1	V	-4.115528	-0.178599	-0.402537
O2	O	-4.073202	0.008617	-0.394889
O3	O	-4.093511	-0.354166	-0.399769
O4	O	-4.093490	-0.175837	-0.578103
O5	O	-4.073223	-0.170946	-0.215320
V6	V	-4.592321	-0.156208	-0.380146
O7	O	-4.391548	-0.227717	-0.451653
O8	O	-4.766498	-0.107090	-0.331030
O9	O	-4.391132	0.019359	-0.382913
O10	O	-4.752044	-0.343425	-0.387794
O11	O	-4.752023	-0.163861	-0.567362
O12	O	-4.391153	-0.158970	-0.204579
C13	C	-3.944077	-0.396966	-0.393415
C14	C	-4.007537	-0.540494	-0.392323
C15	C	-4.236980	-0.631377	-0.398403
C16	C	-4.234083	-0.730484	-0.501327
C17	C	-4.123503	-0.697130	-0.287478
C18	C	-4.003849	-0.637725	-0.495350
C19	C	-3.893244	-0.604349	-0.281406
C20	C	-3.890203	-0.703417	-0.384352
C21	C	-3.944049	-0.169488	-0.620897
C22	C	-4.007489	-0.168391	-0.764423
C23	C	-3.852317	-0.161004	-0.841571
C24	C	-4.041696	-0.270650	-0.947552
C25	C	-3.931175	-0.056802	-0.914183
C26	C	-4.196078	-0.278140	-0.868528
C27	C	-4.085477	-0.064195	-0.835135
C28	C	-4.274992	-0.173873	-0.941086
C29	C	-4.203909	0.062152	-0.389264
C30	C	-4.119688	0.205678	-0.390364
C31	C	-4.203936	-0.165324	-0.161779
C32	C	-4.119733	-0.166414	-0.018251
H33	H	-3.673115	-0.155709	-0.798123
C34	C	-3.631354	-0.716418	-0.485248
C35	C	-3.692898	-0.746121	-0.376355
H36	H	-3.509562	-0.742793	-0.480317
H37	H	-3.590117	-0.624999	-0.486616
H38	H	-3.752643	-0.761337	-0.562663
H39	H	-3.571614	-0.701194	-0.298940
H40	H	-3.734126	-0.837556	-0.374975
C41	C	-4.655916	-0.297159	-0.976944
C42	C	-4.517056	-0.181249	-0.999480
H43	H	-4.805356	-0.301719	-1.013005
H44	H	-4.617006	-0.298616	-0.885609
H45	H	-4.639583	-0.369755	-1.016953
H46	H	-4.533377	-0.108653	-0.959462
H47	H	-4.555980	-0.179781	-1.090832
C48	C	-3.760294	-0.559864	-0.047217
C49	C	-3.697977	-0.530412	-0.155900
H50	H	-3.639750	-0.514212	0.030270
H51	H	-3.800333	-0.651155	-0.045228
H52	H	-3.883044	-0.534176	-0.052978
H53	H	-3.575237	-0.556108	-0.150144
H54	H	-3.657908	-0.439101	-0.157888
C55	C	-4.263665	0.009333	-0.706651
C56	C	-4.109426	0.053632	-0.768986
H57	H	-4.278431	0.082085	-0.665812
H58	H	-4.214308	-0.041203	-0.642613
H59	H	-4.402873	-0.042909	-0.769261
H60	H	-3.970214	0.105866	-0.706373
H61	H	-4.158775	0.104189	-0.833030
H62	H	-3.952800	-0.611364	-0.583305
C63	C	-4.608763	-0.880519	-0.594118
C64	C	-4.429405	-0.804396	-0.626831
H65	H	-4.729345	-0.926149	-0.671597
H66	H	-4.651939	-0.825601	-0.547365
H67	H	-4.566649	-0.941448	-0.541222
H68	H	-4.471515	-0.743459	-0.679719
H69	H	-4.386226	-0.859318	-0.673605
C70	C	-4.411246	-0.820891	-0.211999
C71	C	-4.192691	-0.732953	-0.168876
H72	H	-4.453970	-0.842997	-0.138783
H73	H	-4.421547	-0.897635	-0.260489
H74	H	-4.506448	-0.781666	-0.265956
H75	H	-4.097486	-0.772182	-0.114927
H76	H	-4.182372	-0.656195	-0.120364
H77	H	-4.023850	-0.357931	-0.996494
H78	H	-4.307478	-0.371785	-0.847976
H79	H	-3.819809	0.036718	-0.934953
H80	H	-4.382996	-0.599540	-0.404487
