data_functionalizedCrystal
_audit_creation_method	'MofGen! by Chris Wilmer'
_symmetry_space_group_name_H-M	'P1'
_symmetry_Int_Tables_number	1
_symmetry_cell_setting	triclinic
loop_
_symmetry_equiv_pos_as_xyz
  x,y,z
_cell_length_a	18.101398
_cell_length_b	18.215405
_cell_length_c	18.215399
_cell_angle_alpha	89.969449
_cell_angle_beta	89.974986
_cell_angle_gamma	90.020151
loop_
_atom_site_label
_atom_site_type_symbol
_atom_site_fract_x
_atom_site_fract_y
_atom_site_fract_z
Zn1	Zn	1.132158	-0.293085	-0.416204
Zn2	Zn	1.132066	-0.416156	-0.293132
Zn3	Zn	1.008315	-0.293098	-0.293140
Zn4	Zn	1.008281	-0.416104	-0.416146
O5	O	1.070205	-0.354611	-0.354656
O6	O	1.235779	-0.309427	-0.399899
O7	O	1.115626	-0.399859	-0.190149
O8	O	1.024796	-0.190112	-0.309493
O9	O	1.235711	-0.399847	-0.309479
O10	O	1.115783	-0.190102	-0.399907
O11	O	1.024707	-0.309449	-0.190155
O12	O	0.904678	-0.309398	-0.309437
O13	O	1.024738	-0.399758	-0.519138
O14	O	0.904653	-0.399770	-0.399808
O15	O	1.115750	-0.309376	-0.519181
O16	O	1.115593	-0.519133	-0.309423
O17	O	1.024649	-0.519095	-0.399800
C18	C	1.070127	-0.545817	-0.354620
C19	C	1.070161	-0.627616	-0.354630
C20	C	0.877795	-0.354581	-0.354617
C21	C	0.795481	-0.354586	-0.354618
C22	C	1.117627	-0.815805	-0.307657
C23	C	1.117660	-0.892664	-0.307675
C24	C	1.022878	-0.892664	-0.401708
C25	C	1.022849	-0.815807	-0.401693
C26	C	1.070223	-0.777379	-0.354663
C27	C	1.070285	-0.931095	-0.354696
C28	C	1.070320	-1.014429	-0.354716
C29	C	1.070188	-0.694040	-0.354645
C30	C	0.496390	-0.354632	-0.354680
C31	C	0.527706	-0.297488	-0.298098
C32	C	0.613324	-0.297641	-0.297857
C33	C	0.644772	-0.354608	-0.354650
C34	C	0.613662	-0.432131	-0.333455
C35	C	0.528017	-0.431814	-0.333062
C36	C	0.528003	-0.334926	-0.432590
C37	C	0.613654	-0.333200	-0.432165
C38	C	0.728632	-0.354600	-0.354633
C39	C	0.412530	-0.354645	-0.354695
C40	C	1.263367	-0.354641	-0.354695
C41	C	1.345681	-0.354654	-0.354711
C42	C	1.070250	-0.354560	-0.546609
C43	C	1.070269	-0.354538	-0.628408
C44	C	1.070304	-0.162658	-0.354707
C45	C	1.070346	-0.080859	-0.354729
C46	C	1.117676	-0.307432	-0.816625
C47	C	1.117685	-0.307411	-0.893484
C48	C	1.022915	-0.401530	-0.893428
C49	C	1.022903	-0.401547	-0.816571
C50	C	1.070288	-0.354500	-0.778171
C51	C	1.070309	-0.354461	-0.931888
C52	C	1.070318	-0.354438	-1.015221
C53	C	1.070278	-0.354521	-0.694832
C54	C	1.070203	-0.354608	-0.163450
C55	C	1.070327	-0.354422	-0.081651
H56	H	1.156202	-0.784519	-0.269364
H57	H	0.633778	-0.310668	-0.240127
H58	H	0.984338	-0.439836	-0.924703
Br59	Br	0.958516	-0.763652	-0.465499
H60	H	0.635078	-0.449132	-0.277114
Br61	Br	0.648387	-0.201826	-0.320000
Br62	Br	0.492042	-0.242344	-0.464707
Br63	Br	0.491774	-0.318936	-0.202439
H64	H	0.507300	-0.475832	-0.372476
H65	H	1.156273	-0.269083	-0.924790
Br66	Br	0.647564	-0.238122	-0.458813
Br67	Br	1.182002	-0.944811	-0.243881
H68	H	1.156258	-0.269121	-0.785363
H69	H	0.984308	-0.439874	-0.785261
Br70	Br	0.958588	-0.944820	-0.465530
H71	H	0.507129	-0.239825	-0.311238
Br72	Br	0.494251	-0.404297	-0.502858
Br73	Br	0.494660	-0.459666	-0.238132
Br74	Br	0.649332	-0.397518	-0.506200
Br75	Br	0.647599	-0.504999	-0.399999
