data_functionalizedCrystal
_audit_creation_method	'MofGen! by Chris Wilmer'
_symmetry_space_group_name_H-M	'P1'
_symmetry_Int_Tables_number	1
_symmetry_cell_setting	triclinic
loop_
_symmetry_equiv_pos_as_xyz
  x,y,z
_cell_length_a	16.959453
_cell_length_b	16.959455
_cell_length_c	16.959447
_cell_angle_alpha	89.976354
_cell_angle_beta	89.970483
_cell_angle_gamma	90.024482
loop_
_atom_site_label
_atom_site_type_symbol
_atom_site_fract_x
_atom_site_fract_y
_atom_site_fract_z
Zn1	Zn	0.314771	-1.208332	0.447110
Zn2	Zn	0.446964	-1.208233	0.314933
Zn3	Zn	0.314792	-1.076161	0.314926
Zn4	Zn	0.446900	-1.076104	0.447050
O5	O	0.380857	-1.142207	0.381005
O6	O	0.332325	-1.318930	0.429604
O7	O	0.429466	-1.190696	0.204321
O8	O	0.204178	-1.093759	0.332482
O9	O	0.429446	-1.318857	0.332494
O10	O	0.204163	-1.190865	0.429597
O11	O	0.332360	-1.093663	0.204316
O12	O	0.332298	-0.965542	0.332424
O13	O	0.429338	-1.093662	0.557669
O14	O	0.429358	-0.965500	0.429495
O15	O	0.332264	-1.190809	0.557713
O16	O	0.557566	-1.190640	0.332437
O17	O	0.557520	-1.093565	0.429503
C18	C	0.380824	-0.936841	0.380953
C19	C	0.380829	-0.848984	0.380950
C20	C	0.431354	-0.477460	0.330376
C21	C	0.330378	-0.477557	0.431654
C22	C	0.330368	-0.560103	0.431639
C23	C	0.380853	-0.601331	0.380993
C24	C	0.431347	-0.560014	0.330361
C25	C	0.279880	-0.601427	0.482275
C26	C	0.279868	-0.683978	0.482264
C27	C	0.330350	-0.725208	0.431613
C28	C	0.380846	-0.683885	0.380979
C29	C	0.431330	-0.725113	0.330333
C30	C	0.481823	-0.683792	0.279694
C31	C	0.481829	-0.601243	0.279711
C32	C	0.330344	-0.807756	0.431596
C33	C	0.431324	-0.807667	0.330318
C34	C	0.586223	-1.142107	0.380981
C35	C	0.674080	-1.142137	0.380998
C36	C	1.045489	-1.192725	0.431686
C37	C	1.045622	-1.091690	0.330477
C38	C	0.963076	-1.091674	0.330456
C39	C	0.921733	-1.142184	0.381052
C40	C	0.962936	-1.192709	0.431669
C41	C	0.921867	-1.041145	0.279847
C42	C	0.839316	-1.041126	0.279825
C43	C	0.797971	-1.091640	0.330417
C44	C	0.839179	-1.142168	0.381035
C45	C	0.797836	-1.192678	0.431631
C46	C	0.839043	-1.243210	0.482245
C47	C	0.921591	-1.243223	0.482261
C48	C	0.715423	-1.091627	0.330402
C49	C	0.715283	-1.192662	0.431614
C50	C	1.174689	-1.142288	0.381052
C51	C	1.086832	-1.142215	0.381090
C52	C	0.380791	-1.142240	0.587173
C53	C	0.380764	-1.142254	0.675030
C54	C	0.380882	-0.348375	0.381042
C55	C	0.380870	-0.436232	0.381022
C56	C	0.380865	-1.142220	0.175638
C57	C	0.380670	-1.142359	0.087782
C58	C	0.431222	-1.091768	1.046485
C59	C	0.330138	-1.192929	1.046526
C60	C	0.330155	-1.192908	0.963980
C61	C	0.380707	-1.142317	0.922683
C62	C	0.431242	-1.091747	0.963931
C63	C	0.279626	-1.243483	0.922725
C64	C	0.279641	-1.243464	0.840174
C65	C	0.330190	-1.192869	0.798875
C66	C	0.380727	-1.142296	0.840129
C67	C	0.431279	-1.091705	0.798832
C68	C	0.481813	-1.041128	0.840084
C69	C	0.481791	-1.041152	0.922633
C70	C	0.330211	-1.192845	0.716327
C71	C	0.431299	-1.091684	0.716278
H72	H	0.289235	-0.841396	0.472827
H73	H	0.289280	-0.443985	0.472892
Cl74	Cl	0.663315	-1.256168	0.495220
H75	H	0.289070	-1.234026	0.682743
Cl76	Cl	0.216392	-0.735917	0.545921
H77	H	0.238493	-1.284647	0.806593
Cl78	Cl	0.494789	-0.859490	0.266640
Cl79	Cl	0.787059	-1.306698	0.545856
H80	H	0.238474	-1.284676	0.956355
H81	H	0.522932	-0.717371	0.238462
H82	H	1.079288	-1.050564	0.289287
H83	H	0.472363	-1.050587	1.080076
Cl84	Cl	0.973844	-0.977636	0.216260
H85	H	0.522937	-0.567592	0.238483
H86	H	0.472462	-0.443813	0.289145
Cl87	Cl	0.216429	-0.549595	0.545951
Cl88	Cl	0.973398	-1.306740	0.545888
Cl89	Cl	0.545365	-0.977535	0.788158
H90	H	0.288985	-1.234122	1.080155
H91	H	1.079043	-1.233869	0.472892
H92	H	0.805771	-0.999981	0.238612
H93	H	0.472458	-1.050479	0.682660
Cl94	Cl	0.663624	-1.028105	0.266779
Cl95	Cl	0.545317	-0.977580	0.974497
