data_functionalizedCrystal
_audit_creation_method	'MofGen! by Chris Wilmer'
_symmetry_space_group_name_H-M	'P1'
_symmetry_Int_Tables_number	1
_symmetry_cell_setting	triclinic
loop_
_symmetry_equiv_pos_as_xyz
  x,y,z
_cell_length_a	16.120484
_cell_length_b	16.120566
_cell_length_c	16.120297
_cell_angle_alpha	90.125018
_cell_angle_beta	84.385569
_cell_angle_gamma	89.831930
loop_
_atom_site_label
_atom_site_type_symbol
_atom_site_fract_x
_atom_site_fract_y
_atom_site_fract_z
Zn1	Zn	-0.422255	-1.224984	0.554879
Zn2	Zn	0.077745	-0.724984	1.054879
Zn3	Zn	-0.554939	-1.224880	0.422184
Zn4	Zn	-0.054939	-0.724880	0.922184
Zn5	Zn	-0.408172	-1.093724	0.408115
Zn6	Zn	0.091828	-0.593724	0.908115
Zn7	Zn	-0.554173	-1.078877	0.554109
Zn8	Zn	-0.054173	-0.578877	1.054109
O9	O	-0.484885	-1.155616	0.484822
O10	O	0.015115	-0.655616	0.984822
O11	O	-0.446070	-1.341006	0.543487
O12	O	0.053930	-0.841006	1.043487
O13	O	-0.529897	-1.213651	0.303685
O14	O	-0.029897	-0.713651	0.803685
O15	O	-0.293409	-1.117393	0.422018
O16	O	0.206591	-0.617393	0.922018
O17	O	-0.543553	-1.340929	0.445997
O18	O	-0.043553	-0.840929	0.945997
O19	O	-0.303756	-1.213829	0.529845
O20	O	0.196244	-0.713829	1.029845
O21	O	-0.422067	-1.117292	0.293349
O22	O	0.077933	-0.617292	0.793349
O23	O	-0.421324	-0.975719	0.421271
O24	O	0.078676	-0.475719	0.921271
O25	O	-0.542247	-1.092089	0.670843
O26	O	-0.042247	-0.592089	1.170843
O27	O	-0.528591	-0.964811	0.528532
O28	O	-0.028591	-0.464811	1.028532
O29	O	-0.445327	-1.199433	0.671409
O30	O	0.054673	-0.699433	1.171409
O31	O	-0.671468	-1.199255	0.445250
O32	O	-0.171468	-0.699255	0.945250
O33	O	-0.670905	-1.091988	0.542174
O34	O	-0.170905	-0.591988	1.042174
C35	C	-0.701429	-1.144021	0.495174
C36	C	-0.201429	-0.644021	0.995174
C37	C	-0.794074	-1.139134	0.499635
C38	C	-0.294074	-0.639134	0.999635
C39	C	-0.473347	-0.940178	0.473291
C40	C	0.026653	-0.440178	0.973291
C41	C	-0.468432	-0.848011	0.468379
C42	C	0.031568	-0.348011	0.968379
C43	C	-0.963697	-1.130217	0.507797
C44	C	-0.463697	-0.630217	1.007797
C45	C	-1.005240	-1.181163	0.461868
C46	C	-0.505240	-0.681163	0.961868
C47	C	-1.099624	-1.176202	0.466409
C48	C	-0.599624	-0.676202	0.966409
C49	C	-0.869304	-1.135178	0.503257
C50	C	-0.369304	-0.635178	1.003257
C51	C	-0.459439	-0.679260	0.459418
C52	C	0.040561	-0.179260	0.959418
C53	C	-0.510402	-0.632809	0.510236
C54	C	-0.010402	-0.132809	1.010236
C55	C	-0.505398	-0.538910	0.505249
C56	C	-0.005398	-0.038910	1.005249
C57	C	-0.464442	-0.773167	0.464403
C58	C	0.035558	-0.273167	0.964403
C59	C	-0.267496	-1.167279	0.474448
C60	C	0.232504	-0.667279	0.974448
C61	C	-0.174858	-1.172249	0.470027
C62	C	0.325142	-0.672249	0.970027
C63	C	-0.495272	-1.144117	0.702213
C64	C	0.004728	-0.644117	1.202213
C65	C	-0.499699	-1.139216	0.794853
C66	C	0.000301	-0.639216	1.294853
C67	C	-0.496470	-0.371896	0.496384
C68	C	0.003530	0.128104	0.996384
C69	C	-0.501412	-0.464063	0.501277
C70	C	-0.001412	0.035937	1.001277
C71	C	-0.474480	-1.167122	0.268275
C72	C	0.025520	-0.667122	0.768275
C73	C	-0.469827	-1.172196	0.175634
C74	C	0.030173	-0.672196	0.675634
C75	C	-0.507761	-1.130240	0.964463
C76	C	-0.007761	-0.630240	1.464463
C77	C	-0.461767	-1.181169	1.006028
C78	C	0.038233	-0.681169	1.506028
C79	C	-0.466253	-1.176175	1.100406
C80	C	0.033747	-0.676175	1.600406
C81	C	-0.503276	-1.135233	0.870078
C82	C	-0.003276	-0.635233	1.370078
H83	H	-0.969921	-1.228505	0.419135
H84	H	-0.469921	-0.728505	0.919135
C85	C	-0.404027	-1.245148	0.958349
C86	C	0.095973	-0.745148	1.458349
N87	N	-0.360543	-1.293338	0.922434
N88	N	0.139457	-0.793338	1.422434
H89	H	-0.999013	-1.082878	0.550525
H90	H	-0.499013	-0.582878	1.050525
C91	C	-0.574427	-0.674352	0.574065
C92	C	-0.074427	-0.174352	1.074065
N93	N	-0.622652	-0.705647	0.622137
N94	N	-0.122652	-0.205647	1.122137
H95	H	-0.412055	-0.648509	0.412169
H96	H	0.087945	-0.148509	0.912169
C97	C	-0.565503	-1.066271	1.012143
C98	C	-0.065503	-0.566271	1.512143
N99	N	-0.608994	-1.018091	1.048064
N100	N	-0.108994	-0.518091	1.548064
