data_functionalizedCrystal
_audit_creation_method	'MofGen! by Chris Wilmer'
_symmetry_space_group_name_H-M	'P1'
_symmetry_Int_Tables_number	1
_symmetry_cell_setting	triclinic
loop_
_symmetry_equiv_pos_as_xyz
  x,y,z
_cell_length_a	27.732046
_cell_length_b	26.809956
_cell_length_c	27.732066
_cell_angle_alpha	90.008081
_cell_angle_beta	82.646039
_cell_angle_gamma	89.997320
loop_
_atom_site_label
_atom_site_type_symbol
_atom_site_fract_x
_atom_site_fract_y
_atom_site_fract_z
O1	O	-0.640935	0.041405	-0.057506
O2	O	-0.140935	0.541405	0.442494
O3	O	-0.500142	0.041421	-0.066252
O4	O	-0.000142	0.541421	0.433748
O5	O	-0.574907	0.041414	0.008517
O6	O	-0.074907	0.541414	0.508517
O7	O	-0.566171	0.041412	-0.132275
O8	O	-0.066171	0.541412	0.367725
O9	O	-0.574893	-0.041545	0.008506
O10	O	-0.074893	0.458455	0.508506
O11	O	-0.500128	-0.041538	-0.066263
O12	O	-0.000128	0.458462	0.433737
O13	O	-0.640921	-0.041554	-0.057517
O14	O	-0.140921	0.458446	0.442483
Zn15	Zn	-0.570522	-0.054718	-0.061892
Zn16	Zn	-0.070522	0.445282	0.438108
Zn17	Zn	-0.570541	0.054584	-0.061877
Zn18	Zn	-0.070541	0.554584	0.438123
O19	O	-0.566157	-0.041547	-0.132286
O20	O	-0.066157	0.458453	0.367714
C21	C	-0.482128	-0.000057	-0.066074
C22	C	0.017872	0.499943	0.433926
C23	C	-0.428473	-0.000050	-0.065522
C24	C	0.071527	0.499950	0.434478
N25	N	-0.570513	-0.129314	-0.061902
N26	N	-0.070513	0.370686	0.438098
C27	C	-0.089661	-0.000069	-0.106227
C28	C	0.410339	0.499931	0.393773
C29	C	0.111999	-0.000071	-0.104177
C30	C	0.611999	0.499929	0.395823
O31	O	0.143253	-0.000093	-0.141398
O32	O	0.643253	0.499907	0.358602
N33	N	0.131126	-0.000070	-0.059843
N34	N	0.631126	0.499930	0.440157
C35	C	0.099834	-0.000071	-0.016017
C36	C	0.599834	0.499929	0.483983
O37	O	0.120730	-0.000074	0.021739
O38	O	0.620730	0.499926	0.521739
C39	C	-0.101825	-0.000072	-0.018068
C40	C	0.398175	0.499928	0.481932
C41	C	-0.120948	-0.000069	-0.062405
C42	C	0.379052	0.499931	0.437595
C43	C	-0.108785	-0.000066	-0.150561
C44	C	0.391215	0.499934	0.349439
C45	C	-0.159197	-0.000063	-0.151073
C46	C	0.340803	0.499937	0.348927
C47	C	-0.190485	-0.000063	-0.107251
C48	C	0.309515	0.499937	0.392749
C49	C	-0.171360	-0.000065	-0.062917
C50	C	0.328640	0.499935	0.437083
C51	C	-0.133116	-0.000076	0.025757
C52	C	0.366884	0.499924	0.525757
C53	C	-0.183533	-0.000078	0.025241
C54	C	0.316467	0.499922	0.525241
C55	C	-0.202657	-0.000075	-0.019097
C56	C	0.297343	0.499925	0.480903
C57	C	-0.253060	-0.000061	-0.019607
C58	C	0.246940	0.499939	0.480393
N59	N	-0.272187	-0.000063	-0.063942
N60	N	0.227813	0.499937	0.436058
C61	C	-0.240899	-0.000064	-0.107764
C62	C	0.259101	0.499936	0.392236
C63	C	0.205708	-0.000069	-0.014944
C64	C	0.705708	0.499931	0.485056
C65	C	0.256123	-0.000068	-0.014431
C66	C	0.756123	0.499932	0.485569
C67	C	0.268285	-0.000070	-0.102592
C68	C	0.768285	0.499930	0.397408
C69	C	0.217869	-0.000067	-0.103104
C70	C	0.717869	0.499933	0.396896
C71	C	0.186582	-0.000071	-0.059279
C72	C	0.686582	0.499929	0.440721
C73	C	-0.346768	-0.000056	-0.108836
C74	C	0.153232	0.499944	0.391164
C75	C	-0.397186	-0.000051	-0.109344
C76	C	0.102814	0.499949	0.390656
C77	C	-0.409343	-0.000052	-0.021184
C78	C	0.090657	0.499948	0.478816
C79	C	-0.358930	-0.000055	-0.020675
C80	C	0.141070	0.499945	0.479325
C81	C	-0.327644	-0.000059	-0.064505
C82	C	0.172356	0.499941	0.435495
O83	O	-0.284342	-0.000045	0.017593
O84	O	0.215658	0.499955	0.517593
O85	O	-0.261804	-0.000071	-0.145515
O86	O	0.238196	0.499929	0.354485
C87	C	-0.039249	-0.000072	-0.105715
C88	C	0.460751	0.499928	0.394285
C89	C	-0.020124	-0.000075	-0.061381
C90	C	0.479876	0.499925	0.438619
C91	C	-0.051412	-0.000075	-0.017559
C92	C	0.448588	0.499925	0.482441
C93	C	0.030290	-0.000074	-0.060869
C94	C	0.530290	0.499926	0.439131
C95	C	0.061578	-0.000075	-0.104691
C96	C	0.561578	0.499925	0.395309
C97	C	0.042451	-0.000076	-0.149025
C98	C	0.542451	0.499924	0.350975
C99	C	-0.007961	-0.000073	-0.149537
C100	C	0.492039	0.499927	0.350463
C101	C	-0.032286	-0.000073	0.026775
C102	C	0.467714	0.499927	0.526775
C103	C	0.018127	-0.000076	0.027284
C104	C	0.518127	0.499924	0.527284
C105	C	0.049415	-0.000076	-0.016538
C106	C	0.549415	0.499924	0.483462
C107	C	-0.603643	-0.473943	-0.028777
C108	C	-0.103643	0.026057	0.471223
C109	C	-0.603654	-0.682821	-0.028770
C110	C	-0.103654	-0.182821	0.471230
O111	O	-0.631802	-0.709827	-0.000609
O112	O	-0.131802	-0.209827	0.499391
N113	N	-0.570544	-0.708941	-0.061866
N114	N	-0.070544	-0.208941	0.438134
C115	C	-0.537426	-0.682839	-0.094965
C116	C	-0.037426	-0.182839	0.405035
O117	O	-0.509261	-0.709848	-0.123112
O118	O	-0.009261	-0.209848	0.376888
C119	C	-0.537413	-0.473962	-0.094970
C120	C	-0.037413	0.026038	0.405030
C121	C	-0.570528	-0.447844	-0.061874
C122	C	-0.070528	0.052156	0.438126
C123	C	-0.636755	-0.447825	0.004316
C124	C	-0.136755	0.052175	0.504316
C125	C	-0.636754	-0.395609	0.004312
C126	C	-0.136754	0.104391	0.504312
C127	C	-0.603640	-0.369510	-0.028785
C128	C	-0.103640	0.130490	0.471215
C129	C	-0.570527	-0.395628	-0.061878
C130	C	-0.070527	0.104372	0.438122
C131	C	-0.504293	-0.447861	-0.128066
C132	C	-0.004293	0.052139	0.371934
C133	C	-0.504292	-0.395638	-0.128063
C134	C	-0.004292	0.104362	0.371937
C135	C	-0.537408	-0.369520	-0.094968
C136	C	-0.037408	0.130480	0.405032
C137	C	-0.537411	-0.317313	-0.094979
C138	C	-0.037411	0.182687	0.405021
N139	N	-0.570522	-0.291193	-0.061883
N140	N	-0.070522	0.208807	0.438117
C141	C	-0.603636	-0.317291	-0.028786
C142	C	-0.103636	0.182709	0.471214
C143	C	-0.537436	-0.792502	-0.094961
C144	C	-0.037436	-0.292502	0.405039
C145	C	-0.537440	-0.844721	-0.094960
C146	C	-0.037440	-0.344721	0.405040
C147	C	-0.603667	-0.844699	-0.028765
C148	C	-0.103667	-0.344699	0.471235
C149	C	-0.603665	-0.792479	-0.028768
C150	C	-0.103665	-0.292479	0.471232
C151	C	-0.570546	-0.766382	-0.061864
C152	C	-0.070546	-0.266382	0.438136
C153	C	-0.603630	-0.207634	-0.028797
C154	C	-0.103630	0.292366	0.471203
C155	C	-0.603627	-0.155413	-0.028805
C156	C	-0.103627	0.344587	0.471195
C157	C	-0.537398	-0.155439	-0.094999
C158	C	-0.037398	0.344561	0.405001
C159	C	-0.537403	-0.207655	-0.094993
C160	C	-0.037403	0.292345	0.405007
C161	C	-0.570521	-0.233751	-0.061888
C162	C	-0.070521	0.266249	0.438112
O163	O	-0.509274	-0.290274	-0.123122
O164	O	-0.009274	0.209726	0.376878
O165	O	-0.631790	-0.290273	-0.000636
O166	O	-0.131790	0.209727	0.499364
C167	C	-0.603644	-0.526159	-0.028774
C168	C	-0.103644	-0.026159	0.471226
C169	C	-0.570531	-0.552277	-0.061867
C170	C	-0.070531	-0.052277	0.438133
C171	C	-0.537417	-0.526178	-0.094963
C172	C	-0.037417	-0.026178	0.405037
C173	C	-0.570535	-0.604496	-0.061866
C174	C	-0.070535	-0.104496	0.438134
C175	C	-0.603649	-0.630595	-0.028769
C176	C	-0.103649	-0.130595	0.471231
C177	C	-0.636760	-0.604474	0.004327
C178	C	-0.136760	-0.104474	0.504327
C179	C	-0.636758	-0.552258	0.004323
C180	C	-0.136758	-0.052258	0.504323
C181	C	-0.504307	-0.552299	-0.128060
C182	C	-0.004307	-0.052299	0.371940
C183	C	-0.504311	-0.604515	-0.128054
C184	C	-0.004311	-0.104515	0.371946
C185	C	-0.537426	-0.630614	-0.094957
C186	C	-0.037426	-0.130614	0.405043
C187	C	0.341065	-0.000073	-0.057696
C188	C	0.841065	0.499927	0.442304
C189	C	0.287411	-0.000068	-0.058253
C190	C	0.787411	0.499932	0.441747
C191	C	-0.574715	-0.000064	0.026518
C192	C	-0.074715	0.499936	0.526518
C193	C	-0.574159	-0.000060	0.080173
C194	C	-0.074159	0.499940	0.580173
N195	N	-0.570554	0.129180	-0.061863
N196	N	-0.070554	0.629180	0.438137
C197	C	-0.526189	-0.000055	0.457245
C198	C	-0.026189	0.499945	0.957245
C199	C	-0.528237	-0.000053	0.255585
C200	C	-0.028237	0.499947	0.755585
O201	O	-0.491016	-0.000029	0.224332
O202	O	0.008984	0.499971	0.724332
N203	N	-0.572571	-0.000058	0.236457
N204	N	-0.072571	0.499942	0.736457
C205	C	-0.616397	-0.000060	0.267749
C206	C	-0.116397	0.499940	0.767749
O207	O	-0.654153	-0.000059	0.246853
O208	O	-0.154153	0.499941	0.746853
C209	C	-0.614349	-0.000058	0.469408
C210	C	-0.114349	0.499942	0.969408
C211	C	-0.570012	-0.000058	0.488532
C212	C	-0.070012	0.499942	0.988532
C213	C	-0.481856	-0.000054	0.476370
C214	C	0.018144	0.499946	0.976370
C215	C	-0.481344	-0.000057	0.526782
C216	C	0.018656	0.499943	1.026782
C217	C	-0.525167	-0.000061	0.558069
C218	C	-0.025167	0.499939	1.058069
C219	C	-0.569500	-0.000061	0.538944
C220	C	-0.069500	0.499939	1.038944
C221	C	-0.658174	-0.000056	0.500698
C222	C	-0.158174	0.499944	1.000698
C223	C	-0.657658	-0.000054	0.551116
C224	C	-0.157658	0.499946	1.051116
C225	C	-0.613321	-0.000055	0.570240
C226	C	-0.113321	0.499945	1.070240
C227	C	-0.612811	-0.000068	0.620644
C228	C	-0.112811	0.499932	1.120644
N229	N	-0.568477	-0.000063	0.639771
N230	N	-0.068477	0.499937	1.139771
C231	C	-0.524654	-0.000059	0.608483
C232	C	-0.024654	0.499941	1.108483
C233	C	-0.617469	-0.000062	0.161874
C234	C	-0.117469	0.499938	0.661874
C235	C	-0.617981	-0.000063	0.111460
C236	C	-0.117981	0.499937	0.611460
C237	C	-0.529821	-0.000056	0.099299
C238	C	-0.029821	0.499944	0.599299
C239	C	-0.529309	-0.000058	0.149715
C240	C	-0.029309	0.499942	0.649715
C241	C	-0.573135	-0.000057	0.181002
C242	C	-0.073135	0.499943	0.681002
C243	C	-0.523584	-0.000066	0.714353
C244	C	-0.023584	0.499934	1.214353
C245	C	-0.523076	-0.000072	0.764770
C246	C	-0.023076	0.499928	1.264770
C247	C	-0.611236	-0.000077	0.776926
C248	C	-0.111236	0.499923	1.276926
C249	C	-0.611744	-0.000074	0.726514
C250	C	-0.111744	0.499926	1.226514
C251	C	-0.567914	-0.000067	0.695228
C252	C	-0.067914	0.499933	1.195228
O253	O	-0.650012	-0.000086	0.651925
O254	O	-0.150012	0.499914	1.151925
O255	O	-0.486904	-0.000049	0.629389
O256	O	0.013096	0.499951	1.129389
C257	C	-0.526701	-0.000052	0.406833
C258	C	-0.026701	0.499948	0.906833
C259	C	-0.571034	-0.000052	0.387708
C260	C	-0.071034	0.499948	0.887708
C261	C	-0.614857	-0.000055	0.418995
C262	C	-0.114857	0.499945	0.918995
C263	C	-0.571547	-0.000053	0.337293
C264	C	-0.071547	0.499947	0.837293
C265	C	-0.527724	-0.000050	0.306006
C266	C	-0.027724	0.499950	0.806006
C267	C	-0.483390	-0.000045	0.325133
C268	C	0.016610	0.499955	0.825133
C269	C	-0.482878	-0.000048	0.375545
C270	C	0.017122	0.499952	0.875545
C271	C	-0.659191	-0.000060	0.399868
C272	C	-0.159191	0.499940	0.899868
C273	C	-0.659699	-0.000058	0.349456
C274	C	-0.159699	0.499942	0.849456
C275	C	-0.615877	-0.000054	0.318168
C276	C	-0.115877	0.499946	0.818168
C277	C	-0.566347	-0.000070	0.849712
C278	C	-0.066347	0.499930	1.349712
C279	C	-0.566899	-0.000075	0.796057
C280	C	-0.066899	0.499925	1.296057
H281	H	-0.412753	-0.000048	-0.145450
H282	H	0.087247	0.499952	0.354550
H283	H	-0.477327	-0.469118	-0.155015
H284	H	0.022673	0.030882	0.344985
H285	H	-0.510439	-0.134181	-0.121948
H286	H	-0.010439	0.365819	0.378052
H287	H	-0.057756	-0.000074	0.062461
H288	H	0.442244	0.499926	0.562461
H289	H	-0.445240	-0.000053	0.542347
H290	H	0.054760	0.499947	1.042347
H291	H	-0.694878	-0.000062	0.425338
H292	H	-0.194878	0.499938	0.925338
H293	H	0.033692	-0.000074	0.063391
H294	H	0.533692	0.499926	0.563391
H295	H	-0.209005	-0.000081	0.060929
H296	H	0.290995	0.499919	0.560929
H297	H	-0.663724	-0.625732	0.031275
H298	H	-0.163724	-0.125732	0.531275
H299	H	-0.446168	-0.000050	0.450900
H300	H	0.053832	0.499950	0.950900
H301	H	-0.654085	-0.000071	0.095894
H302	H	-0.154085	0.499929	0.595894
H303	H	-0.647847	-0.000081	0.710942
H304	H	-0.147847	0.499919	1.210942
H305	H	-0.630631	-0.865958	-0.001816
H306	H	-0.130631	-0.365958	0.498184
H307	H	-0.494139	-0.000055	0.073816
H308	H	0.005861	0.499945	0.573816
H309	H	-0.447708	-0.000045	0.299650
H310	H	0.052292	0.499955	0.799650
H311	H	-0.487893	-0.000061	0.688885
H312	H	0.012107	0.499939	1.188885
H313	H	-0.477321	-0.374392	-0.155014
H314	H	0.022679	0.125608	0.344986
H315	H	-0.630631	-0.771218	-0.001818
H316	H	-0.130631	-0.271218	0.498182
H317	H	-0.653159	-0.000062	0.187345
H318	H	-0.153159	0.499938	0.687345
H319	H	-0.695806	-0.000061	0.333890
H320	H	-0.195806	0.499939	0.833890
H321	H	0.180238	-0.000072	0.020746
H322	H	0.680238	0.499928	0.520746
H323	H	-0.694278	-0.000056	0.485137
H324	H	-0.194278	0.499944	0.985137
H325	H	-0.510442	-0.228920	-0.121947
H326	H	-0.010442	0.271080	0.378053
H327	H	-0.083315	-0.000069	-0.186248
H328	H	0.416685	0.499931	0.313752
H329	H	-0.321300	-0.000061	-0.144526
H330	H	0.178700	0.499939	0.355474
H331	H	-0.693347	-0.000051	0.576588
H332	H	-0.193347	0.499949	1.076588
H333	H	-0.646915	-0.000082	0.802409
H334	H	-0.146915	0.499918	1.302409
H335	H	-0.493206	-0.000060	0.165282
H336	H	0.006794	0.499940	0.665282
H337	H	-0.446774	-0.000049	0.391111
H338	H	0.053226	0.499951	0.891111
H339	H	-0.343359	-0.000050	0.015428
H340	H	0.156641	0.499950	0.515428
H341	H	-0.174762	-0.000060	-0.187177
H342	H	0.325238	0.499940	0.312823
H343	H	0.202302	-0.000067	-0.139207
H344	H	0.702302	0.499933	0.360793
H345	H	-0.477341	-0.531053	-0.155011
H346	H	0.022659	-0.031053	0.344989
H347	H	0.293768	-0.000070	-0.138273
H348	H	0.793768	0.499930	0.361727
H349	H	0.271689	-0.000063	0.021673
H350	H	0.771689	0.499937	0.521673
H351	H	-0.434826	-0.000049	0.014495
H352	H	0.065174	0.499951	0.514495
H353	H	-0.117554	-0.000079	0.061861
H354	H	0.382446	0.499921	0.561861
H355	H	-0.023526	-0.000071	-0.185641
H356	H	0.476474	0.499929	0.314359
H357	H	-0.663721	-0.469070	0.031269
H358	H	-0.163721	0.030930	0.531269
H359	H	0.067935	-0.000075	-0.184707
H360	H	0.567935	0.499925	0.315293
H361	H	-0.477345	-0.625776	-0.155008
H362	H	0.022655	-0.125776	0.344992
H363	H	-0.630598	-0.228875	-0.001839
H364	H	-0.130598	0.271125	0.498161
H365	H	-0.630596	-0.134149	-0.001855
H366	H	-0.130596	0.365851	0.498145
H367	H	-0.663724	-0.530997	0.031273
H368	H	-0.163724	-0.030997	0.531273
H369	H	-0.663718	-0.374347	0.031262
H370	H	-0.163718	0.125653	0.531262
H371	H	-0.510479	-0.865982	-0.121915
H372	H	-0.010479	-0.365982	0.378085
H373	H	-0.510466	-0.771257	-0.121913
H374	H	-0.010466	-0.271257	0.378087
H375	H	-0.486970	-0.000074	0.780338
H376	H	0.013030	0.499926	1.280338
