data_functionalizedCrystal
_audit_creation_method	'MofGen! by Chris Wilmer'
_symmetry_space_group_name_H-M	'P1'
_symmetry_Int_Tables_number	1
_symmetry_cell_setting	triclinic
loop_
_symmetry_equiv_pos_as_xyz
  x,y,z
_cell_length_a	14.395555
_cell_length_b	14.628931
_cell_length_c	14.628931
_cell_angle_alpha	60.000000
_cell_angle_beta	89.999942
_cell_angle_gamma	60.001557
loop_
_atom_site_label
_atom_site_type_symbol
_atom_site_fract_x
_atom_site_fract_y
_atom_site_fract_z
Zr1	Zr	0.894875	1.000618	-0.119983
O2	O	0.746552	1.191316	-0.265940
O3	O	0.940344	0.809914	-0.075239
O4	O	0.940345	1.000619	-0.265944
O5	O	0.746551	1.000612	0.075197
O6	O	1.093212	1.000626	-0.265948
O7	O	0.746552	1.000611	-0.075235
O8	O	1.093211	0.659490	0.075190
O9	O	0.746552	1.341748	-0.265940
O10	O	1.073819	0.888360	-0.056159
O11	O	0.959736	0.888356	0.056109
O12	O	0.959737	1.112886	-0.168422
O13	O	0.845654	1.112882	-0.056154
Zr14	Zr	1.138681	1.000629	0.119933
Zr15	Zr	1.138681	1.000629	-0.119988
Zr16	Zr	0.894875	1.000619	0.119938
Zr17	Zr	0.894876	1.240539	-0.119983
Zr18	Zr	1.138680	0.760708	0.119933
O19	O	1.093212	1.191333	0.075189
O20	O	1.093212	1.191332	-0.265948
O21	O	0.746552	1.191317	0.075197
O22	O	1.287004	0.809931	0.265890
O23	O	1.287004	0.809930	-0.075247
O24	O	0.940344	0.809915	0.265898
O25	O	1.287005	1.000635	-0.075247
O26	O	1.093211	1.000628	0.265894
O27	O	0.940344	1.000621	0.265898
O28	O	1.287004	1.000636	0.075185
O29	O	0.940345	1.341757	-0.265945
O30	O	1.093211	0.659490	0.265895
O31	O	1.287004	0.659499	0.265890
O32	O	1.287004	0.659498	0.075185
O33	O	0.746552	1.341749	-0.075235
O34	O	0.940345	1.341758	-0.075240
O35	O	1.073819	0.888361	0.168372
O36	O	1.187902	0.888366	0.056104
O37	O	1.073820	1.112892	-0.056159
O38	O	0.959737	1.112887	0.056109
C39	C	1.016778	0.700518	-0.000025
C40	C	1.016777	0.598665	-0.000024
C41	C	1.073370	0.553259	-0.055717
C42	C	1.073372	0.447988	-0.055718
C43	C	0.711814	1.000610	-0.000018
C44	C	0.608313	1.000606	-0.000016
C45	C	0.609927	0.878184	0.061193
C46	C	0.516911	0.939383	0.105560
C47	C	0.516900	0.939411	-0.044350
C48	C	0.516660	1.061805	0.044413
C49	C	0.516663	1.061816	-0.105556
C50	C	0.423630	1.123104	-0.061216
C51	C	1.321742	1.000637	-0.000032
C52	C	1.425243	1.000642	-0.000035
C53	C	1.016778	1.000623	-0.300130
C54	C	1.016779	1.000622	-0.401983
C55	C	1.016778	1.300729	-0.000025
C56	C	1.016779	1.402582	-0.000026
C57	C	0.960186	1.112002	-0.503082
C58	C	0.960185	1.112005	-0.608353
C59	C	1.016778	1.000625	0.300080
C60	C	1.016777	1.000625	0.401933
C61	C	1.321741	0.700532	-0.000032
C62	C	1.425243	0.598684	-0.000034
C63	C	1.016777	0.700519	0.300080
C64	C	1.016777	0.598667	0.401933
C65	C	1.321741	0.700533	0.300073
C66	C	1.425242	0.598685	0.401924
C67	C	0.711815	1.300714	-0.300123
C68	C	0.608314	1.402563	-0.401974
C69	C	0.711815	1.300715	-0.000018
C70	C	0.608313	1.402564	-0.000016
C71	C	1.016779	1.300728	-0.300130
C72	C	1.016779	1.402581	-0.401983
C73	C	1.414794	0.553274	-0.055725
C74	C	1.521767	0.448008	-0.055729
C75	C	1.073370	0.553260	0.503032
C76	C	1.073371	0.447990	0.608304
C77	C	1.527979	0.553280	0.391639
C78	C	1.634955	0.448015	0.496906
H79	H	0.968319	0.441630	0.047652
H80	H	1.065225	0.905263	-0.511342
H81	H	0.344002	1.226708	-0.112974
H82	H	1.065232	0.905268	-0.393363
O83	O	1.309564	0.599958	-0.112509
C84	C	1.226183	0.694685	-0.099880
H85	H	1.264186	0.678882	-0.020721
H86	H	1.151153	0.686984	-0.093133
H87	H	1.195786	0.794784	-0.175573
H88	H	1.512999	0.408953	-0.103404
H89	H	1.416482	0.559631	0.488660
O90	O	0.959119	0.448951	0.494583
C91	C	1.002865	0.346883	0.482243
H92	H	1.093611	0.265481	0.542878
H93	H	1.002770	0.383433	0.392734
H94	H	0.947590	0.309200	0.501138
O95	O	1.538645	0.599645	0.288252
C96	C	1.654940	0.536900	0.299128
H97	H	1.706908	0.497577	0.384429
H98	H	1.668402	0.608679	0.230340
H99	H	1.683551	0.453708	0.291409
O100	O	0.959154	0.551830	0.056944
C101	C	1.035686	0.417736	0.139147
H102	H	1.114079	0.377274	0.114490
H103	H	0.992571	0.368079	0.146179
H104	H	1.062292	0.399421	0.223242
O105	O	1.131180	0.599760	0.513527
C106	C	1.183819	0.537084	0.627968
H107	H	1.137184	0.497600	0.679102
H108	H	1.180572	0.608957	0.641204
H109	H	1.276266	0.454015	0.656139
O110	O	0.705169	0.754754	0.123112
C111	C	0.770505	0.734791	0.211451
H112	H	0.748456	0.831682	0.188755
H113	H	0.864785	0.669420	0.226110
H114	H	0.751110	0.687128	0.290919
O115	O	1.635040	0.448978	0.057027
C116	C	1.695017	0.346909	0.171434
H117	H	1.686992	0.265505	0.192202
H118	H	1.657973	0.383457	0.224395
H119	H	1.788582	0.309232	0.190217
O120	O	1.131276	0.599665	-0.112618
C121	C	1.183872	0.537030	-0.164425
H122	H	1.195724	0.439999	-0.118526
H123	H	1.270353	0.520617	-0.161246
H124	H	1.128073	0.599825	-0.255393
O125	O	1.131160	0.401228	-0.112505
C126	C	1.118281	0.306547	-0.099879
H127	H	1.096336	0.264783	-0.020720
H128	H	1.201136	0.225971	-0.093134
H129	H	1.046960	0.352322	-0.175572
H130	H	1.513383	0.559634	0.047638
H131	H	0.515984	0.887644	0.194808
H132	H	0.517633	1.113511	-0.194784
O133	O	0.958875	0.552118	0.391771
C134	C	0.875324	0.575540	0.443649
H135	H	0.900380	0.587533	0.508794
H136	H	0.868155	0.490505	0.486240
H137	H	0.789880	0.667517	0.377866
O138	O	0.517792	1.123270	0.089438
C139	C	0.616127	1.037004	0.184449
H140	H	0.648198	0.933341	0.219293
H141	H	0.594753	1.055740	0.250983
H142	H	0.684943	1.052171	0.159901
H143	H	0.515990	0.887648	-0.081839
H144	H	0.911741	1.207357	-0.511701
O145	O	1.740179	0.401351	0.486798
C146	C	1.823563	0.306631	0.594151
H147	H	1.785555	0.322423	0.657510
H148	H	1.898581	0.314353	0.593194
H149	H	1.853979	0.206527	0.618555
O150	O	1.519426	0.449202	0.608459
C151	C	1.506865	0.504652	0.667426
H152	H	1.594374	0.461395	0.720336
H153	H	1.455612	0.483764	0.724221
H154	H	1.460451	0.613634	0.605407
H155	H	0.911727	1.207361	-0.695083
H156	H	1.121823	0.408940	0.695033
