data_functionalizedCrystal
_audit_creation_method	'MofGen! by Chris Wilmer'
_symmetry_space_group_name_H-M	'P1'
_symmetry_Int_Tables_number	1
_symmetry_cell_setting	triclinic
loop_
_symmetry_equiv_pos_as_xyz
  x,y,z
_cell_length_a	17.699077
_cell_length_b	15.625429
_cell_length_c	16.776229
_cell_angle_alpha	71.916203
_cell_angle_beta	89.993415
_cell_angle_gamma	83.780415
loop_
_atom_site_label
_atom_site_type_symbol
_atom_site_fract_x
_atom_site_fract_y
_atom_site_fract_z
O1	O	1.004378	0.113982	-0.099220
O2	O	1.504378	0.613982	0.400780
O3	O	0.784037	0.128821	-0.103512
O4	O	1.284037	0.628821	0.396488
O5	O	0.900092	-0.009850	-0.063427
O6	O	1.400092	0.490150	0.436573
O7	O	0.888322	0.252653	-0.139305
O8	O	1.388322	0.752653	0.360695
O9	O	0.900077	-0.009858	0.069151
O10	O	1.400077	0.490142	0.569151
O11	O	0.784022	0.128812	0.029067
O12	O	1.284022	0.628812	0.529067
O13	O	1.004362	0.113974	0.033359
O14	O	1.504362	0.613974	0.533359
Zn15	Zn	0.894189	0.121392	0.052263
Zn16	Zn	1.394189	0.621392	0.552263
Zn17	Zn	0.894210	0.121403	-0.122416
Zn18	Zn	1.394210	0.621403	0.377584
O19	O	0.888307	0.252644	-0.006726
O20	O	1.388307	0.752644	0.493274
C21	C	0.755831	0.128286	-0.037070
C22	C	1.255831	0.628286	0.462930
C23	C	0.671808	0.126693	-0.036611
C24	C	1.171808	0.626693	0.463389
C25	C	0.632331	0.125938	0.035876
C26	C	1.132331	0.625938	0.535876
C27	C	0.553384	0.124428	0.036313
C28	C	1.053384	0.624428	0.536313
C29	C	0.513916	0.123679	-0.035739
C30	C	1.013916	0.623679	0.464261
C31	C	0.553400	0.124431	-0.108230
C32	C	1.053400	0.624431	0.391770
C33	C	0.632346	0.125935	-0.108665
C34	C	1.132346	0.625935	0.391335
C35	C	0.235021	0.118364	-0.106478
C36	C	0.735021	0.618364	0.393522
C37	C	0.156069	0.116863	-0.106038
C38	C	0.656069	0.616863	0.393962
C39	C	0.156059	0.116857	0.038500
C40	C	0.656059	0.616857	0.538500
C41	C	0.235005	0.118361	0.038065
C42	C	0.735005	0.618361	0.538065
C43	C	0.274482	0.119108	-0.034424
C44	C	0.774482	0.619108	0.465576
C45	C	0.360085	0.120744	-0.034897
C46	C	0.860085	0.620744	0.465103
C47	C	0.428314	0.122049	-0.035268
C48	C	0.928314	0.622049	0.464732
C49	C	0.899551	-0.043441	0.012569
C50	C	1.399551	0.456559	0.512569
C51	C	0.897953	-0.143518	0.041491
C52	C	1.397953	0.356482	0.541491
C53	C	0.892715	-0.472639	-0.224701
C54	C	1.392715	0.027361	0.275299
C55	C	0.891210	-0.566676	-0.197499
C56	C	1.391210	-0.066676	0.302501
C57	C	0.891193	-0.566672	-0.052971
C58	C	1.391193	-0.066672	0.447029
C59	C	0.892702	-0.472633	-0.080160
C60	C	1.392702	0.027367	0.419840
C61	C	0.893463	-0.425624	-0.166026
C62	C	1.393463	0.074376	0.333974
C63	C	0.893450	-0.425618	-0.021486
C64	C	1.393450	0.074382	0.478514
C65	C	0.894955	-0.331587	-0.048674
C66	C	1.394955	0.168413	0.451326
C67	C	0.895713	-0.284570	-0.134536
C68	C	1.395713	0.215430	0.365464
C69	C	0.894968	-0.331592	-0.193214
C70	C	1.394968	0.168408	0.306786
C71	C	0.892684	-0.472628	0.064380
C72	C	1.392684	0.027372	0.564380
C73	C	0.893431	-0.425613	0.123054
C74	C	1.393431	0.074387	0.623054
C75	C	0.894942	-0.331581	0.095867
C76	C	1.394942	0.168419	0.595867
C77	C	0.895700	-0.284565	0.010004
C78	C	1.395700	0.215435	0.510004
C79	C	0.895687	-0.284559	0.154545
C80	C	1.395687	0.215441	0.654545
C81	C	0.897192	-0.190528	0.127357
C82	C	1.397192	0.309472	0.627357
C83	C	0.897205	-0.190533	-0.017183
C84	C	1.397205	0.309467	0.482817
C85	C	1.032568	0.114509	-0.033085
C86	C	1.532568	0.614509	0.466915
C87	C	1.116591	0.116101	-0.033549
C88	C	1.616591	0.616101	0.466451
C89	C	0.888848	0.286235	-0.082723
C90	C	1.388848	0.786235	0.417277
C91	C	0.890447	0.386313	-0.111651
C92	C	1.390447	0.886313	0.388349
N93	N	0.894181	0.121383	0.171476
N94	N	1.394181	0.621383	0.671476
N95	N	0.894224	0.121404	-0.241627
N96	N	1.394224	0.621404	0.258373
C97	C	0.945586	0.060005	0.230936
C98	C	1.445586	0.560005	0.730936
C99	C	0.945590	0.060004	0.314388
C100	C	1.445590	0.560004	0.814388
C101	C	0.894193	0.121387	0.338378
C102	C	1.394193	0.621387	0.838378
C103	C	0.842782	0.182768	0.278912
C104	C	1.342782	0.682768	0.778912
C105	C	0.842775	0.182764	0.195463
C106	C	1.342775	0.682764	0.695463
C107	C	0.842809	0.182786	0.615454
C108	C	1.342809	0.682786	1.115454
C109	C	0.842822	0.182787	0.698910
C110	C	1.342822	0.682787	1.198910
C111	C	0.945625	0.060026	0.734380
C112	C	1.445625	0.560026	1.234380
C113	C	0.945618	0.060022	0.650930
C114	C	1.445618	0.560022	1.150930
C115	C	0.894205	0.121400	0.591472
C116	C	1.394205	0.621400	1.091472
C117	C	0.894200	0.121399	0.500984
C118	C	1.394200	0.621399	1.000984
C119	C	0.894200	0.121393	0.428863
C120	C	1.394200	0.621393	0.928863
H121	H	0.521247	0.123798	0.095343
H122	H	1.021247	0.623798	0.595343
H123	H	0.896930	-0.208003	-0.156671
H124	H	1.396930	0.291997	0.343329
Cl125	Cl	1.010257	-0.017139	0.809132
Cl126	Cl	1.510257	0.482861	1.309132
Cl127	Cl	0.284639	0.119305	-0.197608
Cl128	Cl	0.784639	0.619305	0.302392
H129	H	0.267136	0.118975	0.096736
H130	H	0.767136	0.618975	0.596736
Cl131	Cl	1.010236	-0.017144	0.620774
Cl132	Cl	1.510236	0.482856	1.120774
Cl133	Cl	0.106427	0.115912	0.129633
Cl134	Cl	0.606427	0.615912	0.629633
H135	H	0.800915	0.232743	0.147050
H136	H	1.300915	0.732743	0.647050
H137	H	0.895594	-0.293316	-0.263135
H138	H	1.395594	0.206684	0.236865
H139	H	0.800965	0.232774	0.718439
H140	H	1.300965	0.732774	1.218439
Cl141	Cl	0.106453	0.115919	-0.196624
Cl142	Cl	0.606453	0.615919	0.303376
H143	H	0.521259	0.123815	-0.166894
H144	H	1.021259	0.623815	0.333106
H145	H	0.800949	0.232763	0.567049
H146	H	1.300949	0.732763	1.067049
H147	H	0.891450	-0.549193	0.086513
H148	H	1.391450	-0.049193	0.586513
Cl149	Cl	0.894717	-0.343665	0.262486
Cl150	Cl	1.394717	0.156335	0.762486
H151	H	0.800929	0.232744	0.298450
H152	H	1.300929	0.732744	0.798450
H153	H	0.664459	0.126556	0.094546
H154	H	1.164459	0.626556	0.594546
Cl155	Cl	0.898137	-0.131419	0.201120
Cl156	Cl	1.398137	0.368581	0.701120
Cl157	Cl	0.681975	0.126880	-0.199794
Cl158	Cl	1.181975	0.626880	0.300206
H159	H	0.987443	0.010024	0.211409
H160	H	1.487443	0.510024	0.711409
H161	H	0.987448	0.010025	0.362801
H162	H	1.487448	0.510025	0.862801
Cl163	Cl	0.893682	-0.413536	-0.332649
Cl164	Cl	1.393682	0.086464	0.167351
H165	H	0.897831	-0.152257	-0.087104
H166	H	1.397831	0.347743	0.412896
Cl167	Cl	0.890266	-0.625778	-0.271272
Cl168	Cl	1.390266	-0.125778	0.228728
H169	H	0.892810	-0.463900	0.192966
H170	H	1.392810	0.036100	0.692966
H171	H	0.890571	-0.604959	0.016942
H172	H	1.390571	-0.104959	0.516942
