data_functionalizedCrystal
_audit_creation_method	'MofGen! by Chris Wilmer'
_symmetry_space_group_name_H-M	'P1'
_symmetry_Int_Tables_number	1
_symmetry_cell_setting	triclinic
loop_
_symmetry_equiv_pos_as_xyz
  x,y,z
_cell_length_a	9.065218
_cell_length_b	23.532407
_cell_length_c	7.540329
_cell_angle_alpha	89.991770
_cell_angle_beta	89.996962
_cell_angle_gamma	83.932281
loop_
_atom_site_label
_atom_site_type_symbol
_atom_site_fract_x
_atom_site_fract_y
_atom_site_fract_z
O1	O	1.956284	0.083497	-0.147508
O2	O	2.456284	0.583497	0.352492
O3	O	1.526662	0.090346	-0.147513
O4	O	2.026662	0.590346	0.352487
O5	O	1.754428	0.004085	-0.147478
O6	O	2.254428	0.504085	0.352522
O7	O	1.728517	0.169758	-0.147543
O8	O	2.228517	0.669758	0.352457
O9	O	1.754415	0.004084	0.147487
O10	O	2.254415	0.504084	0.647487
O11	O	1.526648	0.090345	0.147453
O12	O	2.026648	0.590345	0.647453
O13	O	1.956270	0.083496	0.147457
O14	O	2.456270	0.583496	0.647457
Cu15	Cu	1.741458	0.086921	0.174387
Cu16	Cu	2.241458	0.586921	0.674387
Cu17	Cu	1.741474	0.086922	-0.174443
Cu18	Cu	2.241474	0.586922	0.325557
O19	O	1.728504	0.169757	0.147422
O20	O	2.228504	0.669757	0.647422
C21	C	1.471701	0.089687	-0.000030
C22	C	1.971701	0.589687	0.499970
C23	C	1.307955	0.087719	-0.000030
C24	C	1.807955	0.587719	0.499970
C25	C	1.753761	-0.017136	0.000009
C26	C	2.253761	0.482864	0.500009
C27	C	1.751778	-0.080368	0.000023
C28	C	2.251778	0.419632	0.500023
C29	C	1.874123	-0.478573	-0.000073
C30	C	2.374123	0.021427	0.499927
C31	C	1.872280	-0.537986	-0.000087
C32	C	2.372280	-0.037986	0.499913
O33	O	1.985695	-0.573898	-0.000151
O34	O	2.485695	-0.073898	0.499849
N35	N	1.736873	-0.561607	-0.000087
N36	N	2.236873	-0.061607	0.499913
C37	C	1.603300	-0.525810	-0.000091
C38	C	2.103300	-0.025810	0.499909
O39	O	1.487956	-0.551356	-0.000094
O40	O	1.987956	-0.051356	0.499906
C41	C	1.605144	-0.466397	-0.000090
C42	C	2.105144	0.033603	0.499910
C43	C	1.740560	-0.442780	-0.000072
C44	C	2.240560	0.057220	0.499928
C45	C	2.009527	-0.454955	-0.000057
C46	C	2.509527	0.045045	0.499943
C47	C	2.011370	-0.395546	-0.000040
C48	C	2.511370	0.104454	0.499960
C49	C	1.877807	-0.359753	-0.000040
C50	C	2.377807	0.140247	0.499960
C51	C	1.742402	-0.383371	-0.000056
C52	C	2.242402	0.116629	0.499944
C53	C	1.471573	-0.430601	-0.000108
C54	C	1.971573	0.069399	0.499892
C55	C	1.473429	-0.371185	-0.000108
C56	C	1.973429	0.128815	0.499892
C57	C	1.608845	-0.347568	-0.000090
C58	C	2.108845	0.152432	0.499910
C59	C	1.610682	-0.288169	-0.000038
C60	C	2.110682	0.211831	0.499962
N61	N	1.746089	-0.264548	-0.000038
N62	N	2.246089	0.235452	0.499962
C63	C	1.879651	-0.300341	-0.000039
C64	C	2.379651	0.199659	0.499961
C65	C	1.599437	-0.650581	-0.000096
C66	C	2.099437	-0.150581	0.499904
C67	C	1.597591	-0.709992	-0.000084
C68	C	2.097591	-0.209992	0.499916
C69	C	1.866571	-0.722165	-0.000083
C70	C	2.366571	-0.222165	0.499917
C71	C	1.868416	-0.662752	-0.000082
C72	C	2.368416	-0.162752	0.499918
C73	C	1.734844	-0.626960	-0.000096
C74	C	2.234844	-0.126960	0.499904
C75	C	1.883510	-0.175576	-0.000002
C76	C	2.383510	0.324424	0.499998
C77	C	1.885340	-0.116160	0.000022
C78	C	2.385340	0.383840	0.500022
C79	C	1.616360	-0.103993	0.000011
C80	C	2.116360	0.396007	0.500011
C81	C	1.614529	-0.163403	-0.000003
C82	C	2.114529	0.336597	0.499997
C83	C	1.748116	-0.199194	-0.000016
C84	C	2.248116	0.300806	0.499984
O85	O	1.497326	-0.252222	0.000019
O86	O	1.997326	0.247778	0.500019
O87	O	1.994976	-0.274786	-0.000059
O88	O	2.494976	0.225214	0.499941
C89	C	2.011231	0.084155	-0.000030
C90	C	2.511231	0.584155	0.499970
C91	C	2.174977	0.086123	-0.000041
C92	C	2.674977	0.586123	0.499959
C93	C	1.729170	0.190979	-0.000069
C94	C	2.229170	0.690979	0.499931
C95	C	1.731154	0.254210	-0.000094
C96	C	2.231154	0.754210	0.499906
N97	N	1.741458	0.086919	0.419736
N98	N	2.241458	0.586919	0.919736
N99	N	1.741486	0.086919	-0.419792
N100	N	2.241486	0.586919	0.080208
H101	H	1.995617	-0.096935	0.000041
H102	H	2.495617	0.403065	0.500041
H103	H	1.992289	-0.204710	-0.000019
H104	H	2.492289	0.295290	0.499981
H105	H	2.121639	-0.376323	-0.000033
H106	H	2.621639	0.123677	0.499967
C107	C	2.134099	-0.680765	-0.000093
C108	C	2.634099	-0.180765	0.499907
C109	C	2.017268	-0.636796	-0.000090
C110	C	2.517268	-0.136796	0.499910
H111	H	2.225996	-0.664742	-0.000114
H112	H	2.725996	-0.164742	0.499886
H113	H	2.127780	-0.703685	0.102767
H114	H	2.627780	-0.203685	0.602767
H115	H	2.127767	-0.703683	-0.102955
H116	H	2.627767	-0.203683	0.397045
H117	H	2.023594	-0.613880	0.102780
H118	H	2.523594	-0.113880	0.602780
H119	H	2.023590	-0.613866	-0.102961
H120	H	2.523590	-0.113866	0.397039
H121	H	1.361303	-0.449820	-0.000133
H122	H	1.861303	0.050180	0.499867
H123	H	1.504263	-0.182633	0.000031
H124	H	2.004263	0.317367	0.500031
H125	H	1.975325	-0.751318	-0.000090
H126	H	2.475325	-0.251318	0.499910
C127	C	1.331906	-0.691978	-0.000089
C128	C	1.831906	-0.191978	0.499911
C129	C	1.448738	-0.735948	-0.000090
C130	C	1.948738	-0.235948	0.499910
H131	H	1.240009	-0.708001	-0.000111
H132	H	1.740009	-0.208001	0.499889
H133	H	1.338219	-0.669068	0.102773
H134	H	1.838219	-0.169068	0.602773
H135	H	1.338245	-0.669050	-0.102950
H136	H	1.838245	-0.169050	0.397050
H137	H	1.442405	-0.758873	0.102778
H138	H	1.942405	-0.258873	0.602778
H139	H	1.442421	-0.758867	-0.102962
H140	H	1.942421	-0.258867	0.397038
H141	H	1.364656	-0.342046	-0.000122
H142	H	1.864656	0.157954	0.499878
C143	C	1.445430	-0.576702	-0.151717
C144	C	1.945430	-0.076702	0.348283
C145	C	1.452599	-0.611241	-0.000087
C146	C	1.952599	-0.111241	0.499913
H147	H	1.354774	-0.552421	-0.151715
H148	H	1.854774	-0.052421	0.348285
H149	H	1.526315	-0.554129	-0.151704
H150	H	2.026315	-0.054129	0.348296
H151	H	1.450313	-0.600133	-0.254567
H152	H	1.950313	-0.100133	0.245433
H153	H	1.447726	-0.587810	0.102764
H154	H	1.947726	-0.087810	0.602764
H155	H	1.371691	-0.633816	-0.000085
H156	H	1.871691	-0.133816	0.499915
C157	C	1.499784	-0.007508	0.000003
C158	C	1.999784	0.492492	0.500003
C159	C	1.469553	-0.064642	0.000001
C160	C	1.969553	0.435358	0.500001
H161	H	1.409148	0.016785	-0.000024
H162	H	1.909148	0.516785	0.499976
H163	H	1.555321	-0.000283	0.102867
H164	H	2.055321	0.499717	0.602867
H165	H	1.555365	-0.000278	-0.102855
H166	H	2.055365	0.499722	0.397145
H167	H	1.413981	-0.071874	0.102866
H168	H	1.913981	0.428126	0.602866
H169	H	1.413992	-0.071870	-0.102874
H170	H	1.913992	0.428130	0.397126
H171	H	2.118297	-0.484092	-0.000064
H172	H	2.618297	0.015908	0.499936
