data_functionalizedCrystal
_audit_creation_method	'MofGen! by Chris Wilmer'
_symmetry_space_group_name_H-M	'P1'
_symmetry_Int_Tables_number	1
_symmetry_cell_setting	triclinic
loop_
_symmetry_equiv_pos_as_xyz
  x,y,z
_cell_length_a	14.044220
_cell_length_b	13.101039
_cell_length_c	14.971486
_cell_angle_alpha	93.366125
_cell_angle_beta	91.598497
_cell_angle_gamma	93.659868
loop_
_atom_site_label
_atom_site_type_symbol
_atom_site_fract_x
_atom_site_fract_y
_atom_site_fract_z
O1	O	1.263154	0.085106	-0.211146
O2	O	0.987177	0.085132	-0.203363
O3	O	1.132562	0.085111	-0.077637
O4	O	1.117769	0.085127	-0.336871
O5	O	1.122131	-0.085317	-0.086674
O6	O	0.976746	-0.085296	-0.212400
O7	O	1.252723	-0.085322	-0.220183
Zn8	Zn	1.113078	-0.112368	-0.217726
Zn9	Zn	1.126822	0.112178	-0.205820
O10	O	1.107338	-0.085301	-0.345908
C11	C	0.946644	-0.000079	-0.204474
C12	C	0.841407	-0.000069	-0.194313
N13	N	1.103706	-0.265615	-0.225852
C14	C	1.090954	-0.474656	-0.236916
C15	C	1.148951	-0.525540	-0.186626
C16	C	1.141855	-0.641858	-0.192782
C17	C	1.098048	-0.358328	-0.230761
C18	C	0.648723	-0.000090	-0.175737
C19	C	0.591172	-0.000090	-0.247804
C20	C	0.483956	-0.000102	-0.237468
C21	C	0.755949	-0.000079	-0.186072
C22	C	1.293256	-0.000109	-0.219071
C23	C	1.398494	-0.000112	-0.229233
C24	C	1.126685	-0.000103	-0.048779
C25	C	1.124702	-0.000101	0.050674
N26	N	1.136202	0.265426	-0.197687
C27	C	1.113215	-0.000085	-0.374767
C28	C	1.115198	-0.000079	-0.474220
C29	C	1.210112	-0.000110	0.101171
C30	C	1.208244	-0.000100	0.194618
C31	C	1.120965	-0.000088	0.237567
C32	C	1.035549	-0.000076	0.187063
C33	C	1.037418	-0.000079	0.093618
C34	C	1.031658	-0.000072	0.381833
C35	C	1.029788	-0.000071	0.475284
C36	C	1.202484	-0.000092	0.482832
C37	C	1.204354	-0.000096	0.389387
C38	C	1.118937	-0.000086	0.338890
H39	H	1.203933	-0.481746	-0.138949
C40	C	1.373379	-0.000125	0.480902
C41	C	1.296378	-0.000102	0.538333
H42	H	1.431341	-0.000142	0.515170
H43	H	1.374159	0.059302	0.447446
H44	H	1.366865	-0.059563	0.441149
H45	H	1.302889	0.059340	0.578082
H46	H	1.295600	-0.059535	0.571804
H47	H	0.622422	-0.000081	-0.317265
C48	C	0.506956	-0.000093	-0.089754
C49	C	0.606544	-0.000090	-0.081971
H50	H	0.480911	-0.000083	-0.031866
H51	H	0.482579	-0.059525	-0.124472
H52	H	0.489841	0.059339	-0.118190
H53	H	0.623660	-0.059526	-0.053540
H54	H	0.630931	0.059349	-0.047239
H55	H	1.281184	-0.000126	0.066209
H56	H	1.277793	-0.000109	0.235728
H57	H	1.275424	-0.000113	0.354421
C58	C	1.023999	-0.639223	-0.295004
C59	C	1.016742	-0.533768	-0.301285
H60	H	0.978190	-0.675723	-0.334749
H61	H	1.012467	-0.656741	-0.235415
H62	H	1.086260	-0.656725	-0.310603
H63	H	0.954483	-0.516266	-0.285679
H64	H	1.028267	-0.516243	-0.360887
H65	H	0.958717	-0.000077	0.510249
C66	C	0.860763	-0.000058	0.383753
C67	C	0.937767	-0.000063	0.326325
H68	H	0.802801	-0.000061	0.349482
H69	H	0.867262	0.059372	0.423501
H70	H	0.859996	-0.059493	0.417212
H71	H	0.938539	0.059377	0.292870
H72	H	0.931267	-0.059498	0.286560
H73	H	0.964485	-0.000060	0.222040
C74	C	0.866529	-0.000065	0.095537
C75	C	0.943533	-0.000072	0.038109
H76	H	0.808568	-0.000063	0.061266
H77	H	0.873031	0.059363	0.135288
H78	H	0.865758	-0.059502	0.128994
H79	H	0.944308	0.059369	0.004657
H80	H	0.937029	-0.059506	-0.001658
