data_functionalizedCrystal
_audit_creation_method	'MofGen! by Chris Wilmer'
_symmetry_space_group_name_H-M	'P1'
_symmetry_Int_Tables_number	1
_symmetry_cell_setting	triclinic
loop_
_symmetry_equiv_pos_as_xyz
  x,y,z
_cell_length_a	12.759395
_cell_length_b	16.994731
_cell_length_c	12.759387
_cell_angle_alpha	89.958195
_cell_angle_beta	90.020509
_cell_angle_gamma	89.949735
loop_
_atom_site_label
_atom_site_type_symbol
_atom_site_fract_x
_atom_site_fract_y
_atom_site_fract_z
Zn1	Zn	1.606754	-0.313955	0.594535
Zn2	Zn	1.606849	-0.445880	0.419078
Zn3	Zn	1.431052	-0.313998	0.418872
Zn4	Zn	1.431249	-0.445824	0.594717
O5	O	1.518976	-0.379914	0.506801
O6	O	1.753788	-0.331460	0.571271
O7	O	1.583487	-0.428427	0.272030
O8	O	1.454238	-0.203610	0.442012
O9	O	1.753857	-0.428386	0.442363
O10	O	1.583325	-0.203579	0.571071
O11	O	1.454330	-0.331534	0.271878
O12	O	1.284057	-0.331479	0.442188
O13	O	1.454572	-0.428290	0.741714
O14	O	1.284202	-0.428332	0.571381
O15	O	1.583516	-0.331406	0.741580
O16	O	1.583677	-0.556254	0.442540
O17	O	1.454664	-0.556213	0.571581
C18	C	1.246009	-0.379905	0.506783
C19	C	1.129232	-0.379919	0.506800
C20	C	1.519028	-0.674174	0.506882
C21	C	1.519123	-0.584852	0.507020
Zn22	Zn	1.607001	-0.813965	0.419185
Zn23	Zn	1.430744	-0.813987	0.594165
Zn24	Zn	1.606248	-0.946089	0.594632
Zn25	Zn	1.431205	-0.945615	0.418312
O26	O	1.518799	-0.879914	0.506574
O27	O	1.583742	-0.703587	0.442566
O28	O	1.453517	-0.831718	0.741247
O29	O	1.753368	-0.928752	0.571920
O30	O	1.454247	-0.703603	0.571123
O31	O	1.753921	-0.831681	0.443019
O32	O	1.582458	-0.928772	0.741590
O33	O	1.582906	-1.056407	0.571073
O34	O	1.455033	-0.927944	0.271408
O35	O	1.454303	-1.056059	0.441532
O36	O	1.584190	-0.831222	0.272049
O37	O	1.283785	-0.831258	0.570277
O38	O	1.284124	-0.927965	0.441079
C39	C	1.129421	-0.480935	0.641111
C40	C	1.074655	-0.531449	0.708270
C41	C	0.964933	-0.531459	0.708283
C42	C	0.909975	-0.480947	0.641132
C43	C	0.964741	-0.430433	0.573973
C44	C	1.074466	-0.430431	0.573965
C45	C	0.964552	-0.329415	0.439669
C46	C	1.074274	-0.329408	0.439649
C47	C	0.909595	-0.278903	0.372518
C48	C	0.964361	-0.228392	0.305352
C49	C	1.074089	-0.228385	0.305342
C50	C	1.129040	-0.278894	0.372490
C51	C	1.793009	-0.379924	0.506820
C52	C	1.909786	-0.379929	0.506828
C53	C	1.519055	-0.379837	0.780834
C54	C	1.519089	-0.379804	0.897611
C55	C	1.518742	-0.174174	0.506495
C56	C	1.518644	-0.084851	0.506363
C57	C	1.518958	-0.379934	0.233833
C58	C	1.519127	-0.379745	0.117057
C59	C	1.653367	-0.278925	0.897491
C60	C	1.720520	-0.228474	0.952292
C61	C	1.720546	-0.228445	1.062014
C62	C	1.653408	-0.278871	1.116937
C63	C	1.586255	-0.329323	1.062136
C64	C	1.586239	-0.329348	0.952412
C65	C	1.451974	-0.430196	1.062256
C66	C	1.451952	-0.430230	0.952534
C67	C	1.384836	-0.480622	1.117179
C68	C	1.317686	-0.531079	1.062378
C69	C	1.317664	-0.531106	0.952650
C70	C	1.384798	-0.480681	0.897733
C71	C	1.245834	-0.879560	0.505535
C72	C	1.129057	-0.879386	0.505121
C73	C	1.519747	-0.879528	0.232542
C74	C	1.520151	-0.879363	0.115766
C75	C	1.792831	-0.880267	0.507619
C76	C	1.909607	-0.880417	0.508065
C77	C	1.517929	-0.880255	0.779539
C78	C	1.517815	-0.880272	0.896316
C79	C	1.128758	-0.778610	0.639555
C80	C	1.073748	-0.728143	0.706576
C81	C	0.964027	-0.727981	0.706180
C82	C	0.909314	-0.778289	0.638754
C83	C	0.964324	-0.828756	0.571734
C84	C	1.074047	-0.828914	0.572139
C85	C	0.964623	-0.929527	0.437296
C86	C	1.074344	-0.929694	0.437695
C87	C	0.909909	-0.979835	0.369870
C88	C	0.964919	-1.030307	0.302853
C89	C	1.074647	-1.030468	0.303252
C90	C	1.129354	-0.980161	0.370674
C91	C	1.654633	-0.778639	0.116414
C92	C	1.722058	-0.728200	0.061878
C93	C	1.722434	-0.728050	-0.047843
C94	C	1.655379	-0.778345	-0.103030
C95	C	1.587954	-0.828784	-0.048494
C96	C	1.587583	-0.828927	0.061230
C97	C	1.453479	-0.929511	-0.049142
C98	C	1.453096	-0.929658	0.060579
C99	C	1.386424	-0.979806	-0.104329
C100	C	1.318992	-1.030242	-0.049792
C101	C	1.318618	-1.030389	0.059935
C102	C	1.385670	-0.980097	0.115116
H103	H	1.218762	-0.480938	0.641100
C104	C	1.384771	-0.480710	0.777043
H105	H	1.335167	-0.517981	0.752268
H106	H	1.366553	-0.429811	0.752150
H107	H	1.452582	-0.494371	0.752251
H108	H	1.118308	-0.687182	0.761471
C109	C	1.249731	-0.278886	0.372477
H110	H	1.274480	-0.241572	0.322860
H111	H	1.274565	-0.265313	0.440284
H112	H	1.274606	-0.329772	0.354261
H113	H	0.919606	-0.187266	0.250689
H114	H	1.777340	-0.686980	-0.092246
C115	C	0.788904	-0.278908	0.372529
H116	H	0.764020	-0.241588	0.322926
H117	H	0.764137	-0.329793	0.354325
H118	H	0.764097	-0.265330	0.440344
H119	H	1.263023	-0.572127	1.107105
H120	H	1.118673	-0.187245	0.250660
H121	H	0.919238	-0.686882	0.760749
C122	C	1.794410	-0.172952	1.122302
H123	H	1.784801	-0.180157	1.195513
H124	H	1.865009	-0.184506	1.104350
H125	H	1.778972	-0.119953	1.104248
H126	H	1.218099	-0.778733	0.639879
H127	H	1.384858	-0.480592	1.206520
H128	H	1.653426	-0.278837	1.206278
H129	H	1.119413	-0.572573	0.762944
C130	C	0.788624	-0.778106	0.638315
H131	H	0.763699	-0.740847	0.687887
H132	H	0.764046	-0.764373	0.570433
H133	H	0.763669	-0.828990	0.656372
H134	H	1.386740	-0.979683	-0.193669
C135	C	0.789220	-0.979659	0.369435
H136	H	0.764292	-0.942405	0.419014
H137	H	0.764635	-0.965924	0.301557
H138	H	0.764274	-1.030546	0.387489
C139	C	1.655799	-0.778183	-0.223720
H140	H	1.705557	-0.740940	-0.248295
H141	H	1.673999	-0.829075	-0.248544
H142	H	1.588097	-0.764420	-0.248778
H143	H	0.920363	-1.071261	0.247956
H144	H	1.385366	-0.980207	0.204456
C145	C	1.135150	-1.085986	0.229533
H146	H	1.086847	-1.115925	0.189330
H147	H	1.178152	-1.055841	0.183929
H148	H	1.177764	-1.120457	0.269867
H149	H	1.653363	-0.278951	0.808150
C150	C	1.250044	-0.980339	0.371114
H151	H	1.274973	-1.017602	0.321548
H152	H	1.274996	-0.929457	0.353071
H153	H	1.274620	-0.994081	0.438999
H154	H	1.776655	-0.687253	0.106823
H155	H	0.820634	-0.480953	0.641158
H156	H	1.654320	-0.778746	0.205755
C157	C	1.794370	-0.173012	0.891876
H158	H	1.784748	-0.180258	0.818681
H159	H	1.778952	-0.120007	0.909779
H160	H	1.864977	-0.184568	0.909888
H161	H	1.264406	-1.071191	-0.094734
C162	C	1.243813	-0.586618	0.892377
H163	H	1.203847	-0.616649	0.940805
H164	H	1.197993	-0.556465	0.849511
H165	H	1.284050	-0.621003	0.849644
C166	C	1.244454	-1.085874	0.119922
H167	H	1.253836	-1.078767	0.193173
H168	H	1.173936	-1.074227	0.101689
H169	H	1.259855	-1.138868	0.101921
H170	H	0.920342	-0.572588	0.762974
