data_functionalizedCrystal
_audit_creation_method	'MofGen! by Chris Wilmer'
_symmetry_space_group_name_H-M	'P1'
_symmetry_Int_Tables_number	1
_symmetry_cell_setting	triclinic
loop_
_symmetry_equiv_pos_as_xyz
  x,y,z
_cell_length_a	12.594517
_cell_length_b	18.050589
_cell_length_c	12.594509
_cell_angle_alpha	89.966791
_cell_angle_beta	89.978673
_cell_angle_gamma	90.020334
loop_
_atom_site_label
_atom_site_type_symbol
_atom_site_fract_x
_atom_site_fract_y
_atom_site_fract_z
Zn1	Zn	1.627234	-0.295641	-0.601823
Zn2	Zn	2.127234	0.204359	-0.101823
Zn3	Zn	1.627111	-0.419845	-0.423829
Zn4	Zn	2.127111	0.080155	0.076171
Zn5	Zn	1.449238	-0.295673	-0.423852
Zn6	Zn	1.949238	0.204327	0.076148
Zn7	Zn	1.449206	-0.419793	-0.601759
Zn8	Zn	1.949206	0.080207	-0.101759
O9	O	1.538197	-0.357738	-0.512816
O10	O	2.038197	0.142262	-0.012816
O11	O	1.776163	-0.312125	-0.578229
O12	O	2.276163	0.187875	-0.078229
O13	O	1.603477	-0.403408	-0.274886
O14	O	2.103477	0.096592	0.225114
O15	O	1.472914	-0.191744	-0.447497
O16	O	1.972914	0.308256	0.052503
O17	O	1.776073	-0.403377	-0.447458
O18	O	2.276073	0.096623	0.052542
O19	O	1.603687	-0.191721	-0.578251
O20	O	2.103687	0.308279	-0.078251
O21	O	1.472795	-0.312179	-0.274903
O22	O	1.972795	0.187821	0.225097
O23	O	1.300288	-0.312129	-0.447435
O24	O	1.800288	0.187871	0.052565
O25	O	1.472860	-0.403289	-0.750714
O26	O	1.972860	0.096711	-0.250714
O27	O	1.300264	-0.403320	-0.578142
O28	O	1.800264	0.096680	-0.078142
O29	O	1.603656	-0.312075	-0.750761
O30	O	2.103656	0.187925	-0.250761
O31	O	1.603446	-0.523763	-0.447396
O32	O	2.103446	-0.023763	0.052604
O33	O	1.472741	-0.523725	-0.578120
O34	O	1.972741	-0.023725	-0.078120
C35	C	1.261656	-0.357723	-0.512785
C36	C	1.761656	0.142277	-0.012785
C37	C	1.143351	-0.357735	-0.512796
C38	C	1.643351	0.142265	-0.012796
C39	C	1.074079	-0.308068	-0.441840
C40	C	1.574079	0.191932	0.058160
C41	C	1.003261	-0.375810	-0.415652
C42	C	1.503261	0.124190	0.084348
C43	C	1.003370	-0.290026	-0.539003
C44	C	1.503370	0.209974	-0.039003
C45	C	1.074090	-0.425512	-0.486557
C46	C	1.574090	0.074488	0.013443
C47	C	1.074206	-0.339682	-0.609954
C48	C	1.574206	0.160318	-0.109954
C49	C	1.003419	-0.407471	-0.583802
C50	C	1.503419	0.092529	-0.083802
C51	C	1.538106	-0.550690	-0.512772
C52	C	2.038106	-0.050690	-0.012772
C53	C	1.538164	-0.633236	-0.512788
C54	C	2.038164	-0.133236	-0.012788
C55	C	1.609427	-0.882055	-0.441818
C56	C	2.109427	-0.382055	0.058182
C57	C	1.512313	-0.832725	-0.415675
C58	C	2.012313	-0.332725	0.084325
C59	C	1.538298	-0.930356	-0.512870
C60	C	2.038298	-0.430356	-0.012870
C61	C	1.635339	-0.832604	-0.538923
C62	C	2.135339	-0.332604	-0.038923
C63	C	1.538237	-0.784371	-0.512827
C64	C	2.038237	-0.284371	-0.012827
C65	C	1.441133	-0.882114	-0.486677
C66	C	1.941133	-0.382114	0.013323
C67	C	1.564225	-0.881997	-0.609970
C68	C	2.064225	-0.381997	-0.109970
C69	C	1.467044	-0.832690	-0.583864
C70	C	1.967044	-0.332690	-0.083864
C71	C	1.538334	-1.014455	-0.512892
C72	C	2.038334	-0.514455	-0.012892
C73	C	1.538190	-0.700275	-0.512806
C74	C	2.038190	-0.200275	-0.012806
C75	C	1.815818	-0.357753	-0.512848
C76	C	2.315818	0.142247	-0.012848
C77	C	1.934123	-0.357760	-0.512862
C78	C	2.434123	0.142240	-0.012862
C79	C	1.538268	-0.357673	-0.790437
C80	C	2.038268	0.142327	-0.290437
C81	C	1.538299	-0.357645	-0.908743
C82	C	2.038299	0.142355	-0.408743
C83	C	1.538318	-0.164032	-0.512884
C84	C	2.038318	0.335968	-0.012884
C85	C	1.538369	-0.081487	-0.512913
C86	C	2.038369	0.418513	-0.012913
C87	C	1.467181	-0.407228	-0.977970
C88	C	1.967181	0.092772	-0.477970
C89	C	1.564300	-0.425374	-1.048758
C90	C	2.064300	0.074626	-0.548758
C91	C	1.441256	-0.339455	-1.048753
C92	C	1.941256	0.160545	-0.548753
C93	C	1.635468	-0.375826	-0.977972
C94	C	2.135468	0.124174	-0.477972
C95	C	1.512359	-0.289876	-0.977961
C96	C	2.012359	0.210124	-0.477961
C97	C	1.609545	-0.307996	-1.048718
C98	C	2.109545	0.192004	-0.548718
C99	C	1.538187	-0.357749	-0.236275
C100	C	2.038187	0.142251	0.263725
C101	C	1.538363	-0.357568	-0.117970
C102	C	2.038363	0.142432	0.382030
H103	H	0.972100	-0.391096	-0.333516
H104	H	1.472100	0.108904	0.166484
N105	N	1.483216	-0.214030	-0.936720
N106	N	1.983216	0.285970	-0.436720
H107	H	1.409832	-0.200363	-0.962416
H108	H	1.909832	0.299637	-0.462416
H109	H	1.484158	-0.214572	-0.856539
H110	H	1.984158	0.285428	-0.356539
N111	N	1.115533	-0.319415	-0.718716
N112	N	1.615533	0.180585	-0.218716
H113	H	1.088710	-0.356400	-0.772552
H114	H	1.588710	0.143600	-0.272552
H115	H	1.089849	-0.268208	-0.738333
H116	H	1.589849	0.231792	-0.238333
H117	H	1.490351	-0.811080	-0.333541
H118	H	1.990351	-0.311080	0.166459
H119	H	1.717587	-0.391245	-0.947012
H120	H	2.217587	0.108755	-0.447012
N121	N	1.115049	-0.501396	-0.457089
N122	N	1.615049	-0.001396	0.042911
H123	H	1.088744	-0.538967	-0.510346
H124	H	1.588744	-0.038967	-0.010346
H125	H	1.195236	-0.500848	-0.457196
H126	H	1.695236	-0.000848	0.042804
N127	N	1.593413	-0.501237	-1.089973
N128	N	2.093413	-0.001237	-0.589973
H129	H	1.666212	-0.515335	-1.063119
H130	H	2.166212	-0.015335	-0.563119
H131	H	1.539564	-0.538638	-1.064240
H132	H	2.039564	-0.038638	-0.564240
H133	H	1.359161	-0.324101	-1.079845
H134	H	1.859161	0.175899	-0.579845
H135	H	1.717431	-0.810858	-0.560975
H136	H	2.217431	-0.310858	-0.060975
H137	H	1.359017	-0.903768	-0.464531
H138	H	1.859017	-0.403768	0.035469
H139	H	1.586215	-0.903658	-0.692080
H140	H	2.086215	-0.403658	-0.192080
N141	N	0.962212	-0.214168	-0.568334
N142	N	1.462212	0.285832	-0.068334
H143	H	0.987914	-0.176686	-0.514657
H144	H	1.487914	0.323314	-0.014657
H145	H	0.989134	-0.200201	-0.641193
H146	H	1.489134	0.299799	-0.141193
N147	N	1.689331	-0.252417	-1.089635
N148	N	2.189331	0.247583	-0.589635
H149	H	1.762595	-0.266226	-1.063754
H150	H	2.262595	0.233774	-0.563754
H151	H	1.688381	-0.252421	-1.169819
H152	H	2.188381	0.247579	-0.669819
N153	N	0.962565	-0.463175	-0.663326
N154	N	1.462565	0.036825	-0.163326
H155	H	1.024504	-0.488657	-0.698812
H156	H	1.524504	0.011343	-0.198812
H157	H	0.917348	-0.501199	-0.625623
H158	H	1.417348	-0.001199	-0.125623
H159	H	1.105105	-0.266108	-0.381761
H160	H	1.605105	0.233892	0.118239
H161	H	1.669529	-0.903730	-0.381704
H162	H	2.169529	-0.403730	0.118296
H163	H	1.406797	-0.811151	-0.643932
H164	H	1.906797	-0.311151	-0.143932
H165	H	1.407086	-0.449224	-0.946907
H166	H	1.907086	0.050776	-0.446907
