data_functionalizedCrystal
_audit_creation_method	'MofGen! by Chris Wilmer'
_symmetry_space_group_name_H-M	'P1'
_symmetry_Int_Tables_number	1
_symmetry_cell_setting	triclinic
loop_
_symmetry_equiv_pos_as_xyz
  x,y,z
_cell_length_a	15.538191
_cell_length_b	10.489741
_cell_length_c	14.750779
_cell_angle_alpha	77.226586
_cell_angle_beta	97.572172
_cell_angle_gamma	65.905634
loop_
_atom_site_label
_atom_site_type_symbol
_atom_site_fract_x
_atom_site_fract_y
_atom_site_fract_z
O1	O	1.226910	-0.375937	-0.079837
O2	O	0.953648	-0.229122	-0.079837
O3	O	1.096498	-0.491086	-0.079831
O4	O	1.084059	-0.113973	-0.079843
O5	O	1.136881	-0.565134	0.079820
O6	O	0.994030	-0.303170	0.079815
O7	O	1.267292	-0.449985	0.079814
Zn8	Zn	1.137073	-0.388334	0.105163
Zn9	Zn	1.083867	-0.290773	-0.105185
O10	O	1.124442	-0.188021	0.079809
C11	C	0.938847	-0.250786	-0.000011
C12	C	0.834584	-0.205032	-0.000010
C13	C	0.543710	-0.659589	-0.000011
C14	C	0.445735	-0.616562	-0.000013
C15	C	0.424932	-0.374552	-0.000021
C16	C	0.522908	-0.417560	-0.000014
C17	C	0.582289	-0.560080	-0.000010
C18	C	0.561488	-0.318051	-0.000013
C19	C	0.659454	-0.361054	-0.000011
C20	C	0.718840	-0.503566	-0.000011
C21	C	0.680255	-0.603083	-0.000009
C22	C	0.502103	-0.175529	-0.000023
C23	C	0.540683	-0.076020	-0.000022
C24	C	0.638652	-0.119026	-0.000013
C25	C	0.698039	-0.261538	-0.000013
C26	C	0.677237	-0.019509	-0.000015
C27	C	0.775203	-0.062512	-0.000014
C28	C	0.796005	-0.304540	-0.000011
C29	C	1.115750	-0.575195	-0.000006
C30	C	1.112940	-0.715488	-0.000008
C31	C	1.022047	-0.740411	-0.000014
C32	C	1.084893	-0.889457	0.078702
C33	C	1.045101	-0.816436	-0.078702
C34	C	1.175840	-0.862716	0.078774
C35	C	1.136017	-0.789647	-0.078701
C36	C	1.198935	-0.938706	0.000035
C37	C	1.282092	-0.428320	-0.000014
C38	C	1.386354	-0.474071	-0.000020
C39	C	1.105189	-0.103911	-0.000018
C40	C	1.107998	0.036385	-0.000023
N41	N	1.173391	-0.454921	0.248720
N42	N	1.047557	-0.224199	-0.248742
C43	C	0.946125	-0.038287	0.600530
C44	C	0.971581	-0.084942	0.701030
C45	C	1.098102	-0.316860	0.700997
C46	C	1.072654	-0.270227	0.600495
C47	C	0.996665	-0.130939	0.550269
C48	C	1.123193	-0.362879	0.550235
C49	C	1.097750	-0.316246	0.449741
C50	C	1.021766	-0.176962	0.399508
C51	C	0.971221	-0.084307	0.449776
C52	C	1.199186	-0.502162	0.600462
C53	C	1.249726	-0.594814	0.550202
C54	C	1.224278	-0.548186	0.449707
C55	C	1.148295	-0.408902	0.399474
C56	C	1.274823	-0.640842	0.399439
C57	C	1.249379	-0.594209	0.298946
C58	C	1.122851	-0.362270	0.298980
H59	H	0.592063	-0.775645	-0.000003
O60	O	0.812547	0.034330	-0.000136
C61	C	0.803879	0.266345	-0.082874
C62	C	0.761480	0.156815	-0.082839
H63	H	0.762623	0.365386	-0.149742
H64	H	0.796354	0.303604	-0.016105
H65	H	0.884107	0.211069	-0.082827
H66	H	0.681241	0.211991	-0.082919
H67	H	0.769080	0.119561	-0.149602
H68	H	0.989797	-0.798241	-0.145257
H69	H	1.273743	-1.023712	0.000078
H70	H	1.060966	-0.248853	0.258085
H71	H	0.628872	0.096534	-0.000028
H72	H	1.219903	-0.540122	0.682290
H73	H	0.414329	-0.697605	-0.000016
O74	O	1.323464	-0.730224	0.598893
C75	C	1.384718	-0.991013	0.629677
C76	C	1.301158	-0.837742	0.574458
H77	H	1.366703	-1.077983	0.609957
H78	H	1.455054	-1.000160	0.609886
H79	H	1.394229	-1.008361	0.710130
H80	H	1.291557	-0.820291	0.493992
H81	H	1.230867	-0.828667	0.594328
H82	H	0.422333	-0.140520	-0.000027
O83	O	0.997219	-0.131744	0.301889
C84	C	1.050009	-0.080071	0.157649
C85	C	1.077945	-0.131336	0.268201
H86	H	1.115254	-0.079695	0.130379
H87	H	1.027069	-0.157820	0.130313
H88	H	0.986988	0.035366	0.130411
H89	H	1.140986	-0.246748	0.295521
H90	H	1.100825	-0.053487	0.295472
H91	H	1.157609	-0.746004	-0.145254
H92	H	0.909337	0.029110	0.408880
O93	O	0.872309	0.097087	0.551881
C94	C	0.749446	0.322185	0.562507
C95	C	0.833030	0.168934	0.617721
H96	H	0.717651	0.380306	0.615715
H97	H	0.778461	0.388903	0.515476
H98	H	0.690298	0.310755	0.515442
H99	H	0.892208	0.180228	0.664839
H100	H	0.803940	0.102272	0.664691
H101	H	0.930420	-0.009480	0.741947
H102	H	0.376570	-0.258511	-0.000027
H103	H	1.159976	-0.430268	0.741903
H104	H	1.336700	-0.754246	0.440346
H105	H	1.290536	-0.669656	0.258023
H106	H	0.844358	-0.420597	-0.000003
O107	O	0.482873	0.062340	0.000020
C108	C	0.322719	0.235880	-0.000039
C109	C	0.388080	0.079133	-0.000068
H110	H	0.246060	0.249517	-0.000130
H111	H	0.353683	0.256143	0.066794
H112	H	0.320015	0.318063	-0.066834
H113	H	0.390811	-0.003148	0.066682
H114	H	0.357092	0.058994	-0.066945
O115	O	1.058931	-0.941286	0.158024
C116	C	0.936392	-0.897021	0.247746
C117	C	0.965670	-0.838179	0.157868
H118	H	0.860998	-0.813675	0.247660
H119	H	0.935118	-1.004794	0.247344
H120	H	0.991428	-0.916122	0.314813
H121	H	0.910663	-0.818988	0.090753
H122	H	0.966974	-0.730452	0.158355
O123	O	1.241851	-0.884872	0.158288
C124	C	1.360076	-1.058311	0.304017
C125	C	1.285371	-1.033437	0.213999
H126	H	1.395268	-1.178414	0.349094
H127	H	1.418537	-1.028428	0.281499
H128	H	1.321672	-0.986461	0.348135
H129	H	1.323690	-1.105273	0.169841
H130	H	1.226915	-1.063273	0.236582
O131	O	0.813959	-0.545118	-0.000137
C132	C	0.927922	-0.502142	-0.082877
C133	C	0.820165	-0.454909	-0.082842
H134	H	0.932974	-0.429251	-0.149746
H135	H	0.966846	-0.491112	-0.016109
H136	H	0.963723	-0.621117	-0.082828
H137	H	0.784279	-0.335930	-0.082924
H138	H	0.781312	-0.466045	-0.149603
H139	H	0.728609	-0.719139	-0.000000
H140	H	0.947337	-0.655267	0.000065
