data_functionalizedCrystal
_audit_creation_method	'MofGen! by Chris Wilmer'
_symmetry_space_group_name_H-M	'P1'
_symmetry_Int_Tables_number	1
_symmetry_cell_setting	triclinic
loop_
_symmetry_equiv_pos_as_xyz
  x,y,z
_cell_length_a	18.215407
_cell_length_b	16.120484
_cell_length_c	18.215399
_cell_angle_alpha	92.869789
_cell_angle_beta	89.980167
_cell_angle_gamma	92.926015
loop_
_atom_site_label
_atom_site_type_symbol
_atom_site_fract_x
_atom_site_fract_y
_atom_site_fract_z
Zn1	Zn	1.110213	-0.331906	-0.430960
Zn2	Zn	1.610213	0.168094	0.069040
Zn3	Zn	1.103879	-0.471328	-0.314129
Zn4	Zn	1.603879	0.028672	0.185871
Zn5	Zn	0.987144	-0.331934	-0.307908
Zn6	Zn	1.487144	0.168066	0.192092
Zn7	Zn	0.980871	-0.471282	-0.437152
Zn8	Zn	1.480871	0.028718	0.062848
O9	O	1.045527	-0.401612	-0.372537
O10	O	1.545527	0.098388	0.127463
O11	O	1.212356	-0.350409	-0.415474
O12	O	1.712356	0.149591	0.084526
O13	O	1.088368	-0.452868	-0.210321
O14	O	1.588368	0.047132	0.289679
O15	O	1.008745	-0.215264	-0.319037
O16	O	1.508745	0.284736	0.180963
O17	O	1.207703	-0.452841	-0.329639
O18	O	1.707703	0.047159	0.170361
O19	O	1.099163	-0.215244	-0.409442
O20	O	1.599163	0.284756	0.090558
O21	O	1.002604	-0.350456	-0.205751
O22	O	1.502604	0.149544	0.294249
O23	O	0.883328	-0.350411	-0.325041
O24	O	1.383328	0.149589	0.174959
O25	O	0.998054	-0.452762	-0.539313
O26	O	1.498054	0.047238	-0.039313
O27	O	0.878719	-0.452789	-0.419995
O28	O	1.378719	0.047211	0.080005
O29	O	1.093081	-0.350364	-0.534764
O30	O	1.593081	0.149636	-0.034764
O31	O	1.082286	-0.587988	-0.335643
O32	O	1.582286	-0.087988	0.164357
O33	O	0.991913	-0.587954	-0.426027
O34	O	1.491913	-0.087954	0.073973
C35	C	0.854321	-0.401598	-0.372516
C36	C	1.354321	0.098402	0.127484
C37	C	0.772522	-0.401612	-0.372525
C38	C	1.272522	0.098388	0.127475
C39	C	1.035751	-0.618221	-0.382198
C40	C	1.535751	-0.118221	0.117802
C41	C	1.031637	-0.710887	-0.386356
C42	C	1.531637	-0.210887	0.113644
C43	C	0.581943	-0.455004	-0.421912
C44	C	1.081943	0.044996	0.078088
C45	C	0.505085	-0.455007	-0.421921
C46	C	1.005085	0.044993	0.078079
C47	C	0.509861	-0.348236	-0.323179
C48	C	1.009861	0.151764	0.176821
C49	C	0.586719	-0.348229	-0.323174
C50	C	1.086719	0.151771	0.176826
C51	C	0.622758	-0.401619	-0.372540
C52	C	1.122758	0.098381	0.127460
C53	C	0.469041	-0.401627	-0.372554
C54	C	0.969041	0.098373	0.127446
C55	C	0.385708	-0.401630	-0.372564
C56	C	0.885708	0.098370	0.127436
C57	C	0.706097	-0.401615	-0.372531
C58	C	1.206097	0.098385	0.127469
C59	C	1.024129	-0.880549	-0.393961
C60	C	1.524129	-0.380549	0.106039
C61	C	1.067056	-0.921836	-0.351125
C62	C	1.567056	-0.421836	0.148875
C63	C	1.062879	-1.016241	-0.355357
C64	C	1.562879	-0.516241	0.144643
C65	C	1.028305	-0.786135	-0.389730
C66	C	1.528305	-0.286135	0.110270
C67	C	1.237479	-0.401627	-0.372560
C68	C	1.737479	0.098373	0.127440
C69	C	1.319277	-0.401634	-0.372569
C70	C	1.819277	0.098366	0.127431
C71	C	1.045574	-0.401555	-0.564488
C72	C	1.545574	0.098445	-0.064488
C73	C	1.045594	-0.401530	-0.646286
C74	C	1.545594	0.098470	-0.146286
C75	C	1.055360	-0.184158	-0.362855
C76	C	1.555360	0.315842	0.137145
C77	C	1.059551	-0.091492	-0.358729
C78	C	1.559551	0.408508	0.141271
C79	C	1.095094	-0.348162	-0.832110
C80	C	1.595094	0.151838	-0.332110
C81	C	1.095104	-0.348138	-0.908967
C82	C	1.595104	0.151862	-0.408967
C83	C	0.996153	-0.454770	-0.913694
C84	C	1.496153	0.045230	-0.413694
C85	C	0.996140	-0.454790	-0.836837
C86	C	1.496140	0.045210	-0.336837
C87	C	1.045615	-0.401487	-0.796047
C88	C	1.545615	0.098513	-0.296047
C89	C	1.045637	-0.401443	-0.949761
C90	C	1.545637	0.098557	-0.449761
C91	C	1.045648	-0.401417	-1.033094
C92	C	1.545648	0.098583	-0.533094
C93	C	1.045603	-0.401511	-0.712709
C94	C	1.545603	0.098489	-0.212709
C95	C	1.045524	-0.401610	-0.181331
C96	C	1.545524	0.098390	0.318669
C97	C	1.045657	-0.401399	-0.099523
C98	C	1.545657	0.098601	0.400477
H99	H	0.611284	-0.498475	-0.462110
H100	H	1.111284	0.001525	0.037890
C101	C	1.194625	-0.336531	-0.994912
C102	C	1.694625	0.163469	-0.494912
C103	C	1.149489	-0.289521	-0.948612
C104	C	1.649489	0.210479	-0.448612
H105	H	1.228197	-0.300339	-1.019389
H106	H	1.728197	0.199661	-0.519389
H107	H	1.221132	-0.372856	-0.966553
H108	H	1.721132	0.127144	-0.466553
H109	H	1.165156	-0.368271	-1.030200
H110	H	1.665156	0.131729	-0.530200
H111	H	1.178958	-0.257786	-0.913320
H112	H	1.678958	0.242214	-0.413320
H113	H	1.122981	-0.253183	-0.976972
H114	H	1.622981	0.246817	-0.476972
C115	C	0.479643	-0.495805	-0.548299
C116	C	0.979643	0.004195	-0.048299
C117	C	0.460223	-0.513694	-0.476192
C118	C	0.960223	-0.013694	0.023808
H119	H	0.451950	-0.532041	-0.581804
H120	H	0.951950	-0.032041	-0.081804
H121	H	0.469573	-0.439813	-0.556649
H122	H	0.969573	0.060187	-0.056649
H123	H	0.530576	-0.503443	-0.555348
H124	H	1.030576	-0.003443	-0.055348
H125	H	0.409290	-0.506049	-0.469141
H126	H	0.909290	-0.006049	0.030859
H127	H	0.470287	-0.569699	-0.467838
H128	H	0.970287	-0.069699	0.032162
H129	H	0.955874	-0.498169	-0.946914
H130	H	1.455874	0.001831	-0.446914
C131	C	1.114662	-0.788257	-0.303481
C132	C	1.614662	-0.288257	0.196519
C133	C	1.120898	-0.873845	-0.297318
C134	C	1.620898	-0.373845	0.202682
H135	H	1.147895	-0.758629	-0.270259
H136	H	1.647895	-0.258629	0.229741
H137	H	1.126032	-0.773986	-0.352303
H138	H	1.626032	-0.273986	0.147697
H139	H	1.065830	-0.774109	-0.292050
H140	H	1.565830	-0.274109	0.207950
H141	H	1.169728	-0.887994	-0.308755
H142	H	1.669728	-0.387994	0.191245
H143	H	1.109532	-0.888121	-0.248486
H144	H	1.609532	-0.388121	0.251514
C145	C	0.394164	-0.300836	-0.279343
C146	C	0.894164	0.199164	0.220657
C147	C	0.470244	-0.289556	-0.268916
C148	C	0.970244	0.210444	0.231084
H149	H	0.369709	-0.264611	-0.245839
H150	H	0.869709	0.235389	0.254161
H151	H	0.382140	-0.288706	-0.328262
H152	H	0.882140	0.211294	0.171738
H153	H	0.379046	-0.356839	-0.270989
H154	H	0.879046	0.143161	0.229011
H155	H	0.485364	-0.233553	-0.277276
H156	H	0.985364	0.266447	0.222724
H157	H	0.482273	-0.301680	-0.219986
H158	H	0.982273	0.198320	0.280014
H159	H	1.135377	-0.304757	-0.798901
H160	H	1.635377	0.195243	-0.298901
H161	H	0.619951	-0.304751	-0.282969
H162	H	1.119951	0.195249	0.217031
C163	C	0.976509	-1.014126	-0.441574
C164	C	1.476509	-0.514126	0.058426
C165	C	0.970276	-0.928539	-0.447749
C166	C	1.470276	-0.428539	0.052251
H167	H	0.943258	-1.043758	-0.474775
H168	H	1.443258	-0.543758	0.025225
H169	H	1.025329	-1.028281	-0.453020
H170	H	1.525329	-0.528281	0.046980
H171	H	0.965156	-1.028383	-0.392738
H172	H	1.465156	-0.528383	0.107262
H173	H	0.981635	-0.914281	-0.496584
H174	H	1.481635	-0.414281	0.003416
H175	H	0.921446	-0.914378	-0.436308
H176	H	1.421446	-0.414378	0.063692
C177	C	0.898335	-0.560202	-0.849223
C178	C	1.398335	-0.060202	-0.349223
C179	C	0.941751	-0.513413	-0.797191
C180	C	1.441751	-0.013413	-0.297191
H181	H	0.864762	-0.596393	-0.824745
H182	H	1.364762	-0.096393	-0.324745
H183	H	0.871830	-0.523872	-0.877576
H184	H	1.371830	-0.023872	-0.377576
H185	H	0.928970	-0.592085	-0.880626
H186	H	1.428970	-0.092085	-0.380626
H187	H	0.911116	-0.481525	-0.765791
H188	H	1.411116	0.018475	-0.265791
H189	H	0.968257	-0.549747	-0.768826
H190	H	1.468257	-0.049747	-0.268826
