data_functionalizedCrystal
_audit_creation_method	'MofGen! by Chris Wilmer'
_symmetry_space_group_name_H-M	'P1'
_symmetry_Int_Tables_number	1
_symmetry_cell_setting	triclinic
loop_
_symmetry_equiv_pos_as_xyz
  x,y,z
_cell_length_a	12.827893
_cell_length_b	12.594516
_cell_length_c	12.827885
_cell_angle_alpha	89.971946
_cell_angle_beta	89.980538
_cell_angle_gamma	90.016213
loop_
_atom_site_label
_atom_site_type_symbol
_atom_site_fract_x
_atom_site_fract_y
_atom_site_fract_z
Zn1	Zn	1.597667	-0.423686	-0.590861
Zn2	Zn	2.097667	0.076314	-0.090861
Zn3	Zn	1.597558	-0.601702	-0.416127
Zn4	Zn	2.097558	-0.101702	0.083873
Zn5	Zn	1.422908	-0.423738	-0.416135
Zn6	Zn	1.922908	0.076262	0.083865
Zn7	Zn	1.422891	-0.601623	-0.590827
Zn8	Zn	1.922891	-0.101623	-0.090827
O9	O	1.510256	-0.512687	-0.503487
O10	O	2.010256	-0.012687	-0.003487
O11	O	1.743888	-0.447311	-0.567693
O12	O	2.243888	0.052689	-0.067693
O13	O	1.574352	-0.578150	-0.269892
O14	O	2.074352	-0.078150	0.230108
O15	O	1.446142	-0.274786	-0.439330
O16	O	1.946142	0.225214	0.060670
O17	O	1.743809	-0.578099	-0.439317
O18	O	2.243809	-0.078099	0.060683
O19	O	1.574537	-0.274747	-0.567701
O20	O	2.074537	0.225253	-0.067701
O21	O	1.446037	-0.447400	-0.269898
O22	O	1.946037	0.052600	0.230102
O23	O	1.276669	-0.447324	-0.439297
O24	O	1.776669	0.052676	0.060703
O25	O	1.446114	-0.577965	-0.737067
O26	O	1.946114	-0.077965	-0.237067
O27	O	1.276658	-0.578016	-0.567642
O28	O	1.776658	-0.078016	-0.067642
O29	O	1.574521	-0.447235	-0.737093
O30	O	2.074521	0.052765	-0.237093
O31	O	1.574336	-0.750637	-0.439283
O32	O	2.074336	-0.250637	0.060717
O33	O	1.446009	-0.750580	-0.567635
O34	O	1.946009	-0.250580	-0.067635
C35	C	1.238746	-0.512668	-0.503468
C36	C	1.738746	-0.012668	-0.003468
C37	C	1.122593	-0.512685	-0.503484
C38	C	1.622593	-0.012685	-0.003484
C39	C	1.070848	-0.448082	-0.567108
C40	C	1.570848	0.051918	-0.067108
C41	C	0.950797	-0.448098	-0.567126
C42	C	1.450797	0.051902	-0.067126
C43	C	1.510188	-0.789228	-0.503477
C44	C	2.010188	-0.289228	-0.003477
C45	C	1.510254	-0.907534	-0.503508
C46	C	2.010254	-0.407534	-0.003508
C47	C	1.440450	-0.976794	-0.573269
C48	C	1.940450	-0.476794	-0.073269
C49	C	1.414988	-1.047663	-0.477914
C50	C	1.914988	-0.547663	0.022086
C51	C	1.535811	-1.047464	-0.598879
C52	C	2.035811	-0.547464	-0.098879
C53	C	1.484741	-0.976844	-0.408102
C54	C	1.984741	-0.476844	0.091898
C55	C	1.605609	-0.976639	-0.529132
C56	C	2.105609	-0.476639	-0.029132
C57	C	1.580183	-1.047476	-0.433711
C58	C	2.080183	-0.547476	0.066289
C59	C	1.782826	-0.512708	-0.503508
C60	C	2.282826	-0.012708	-0.003508
C61	C	1.898979	-0.512717	-0.503517
C62	C	2.398979	-0.012717	-0.003517
C63	C	1.510328	-0.512585	-0.776058
C64	C	2.010328	-0.012585	-0.276058
C65	C	1.510359	-0.512542	-0.892211
C66	C	2.010359	-0.012542	-0.392211
C67	C	1.510353	-0.235067	-0.503521
C68	C	2.010353	0.264933	-0.003521
C69	C	1.510395	-0.116761	-0.503535
C70	C	2.010395	0.383239	-0.003535
C71	C	1.446885	-0.447830	-0.943999
C72	C	1.946885	0.052170	-0.443999
C73	C	1.446915	-0.447784	-1.064049
C74	C	1.946915	0.052216	-0.564049
C75	C	1.510244	-0.512712	-0.231978
C76	C	2.010244	-0.012712	0.268022
C77	C	1.510416	-0.512456	-0.115825
C78	C	2.010416	-0.012456	0.384175
H79	H	1.115423	-0.392757	-0.621561
H80	H	1.615423	0.107243	-0.121561
H81	H	1.381314	-0.945758	-0.632178
H82	H	1.881314	-0.445758	-0.132178
H83	H	1.392516	-0.392467	-0.899459
H84	H	1.892516	0.107533	-0.399459
H85	H	1.639274	-1.078316	-0.374660
H86	H	2.139274	-0.578316	0.125340
H87	H	1.334413	-1.078883	-0.456263
H88	H	1.834413	-0.578883	0.043737
H89	H	1.078017	-0.568004	-0.449025
H90	H	1.578017	-0.068004	0.050975
H91	H	0.906297	-0.392793	-0.621600
H92	H	1.406297	0.107207	-0.121600
H93	H	1.463088	-0.945951	-0.327436
H94	H	1.963088	-0.445951	0.172564
H95	H	1.392577	-0.392377	-1.108585
H96	H	1.892577	0.107623	-0.608585
H97	H	1.686165	-0.945422	-0.550829
H98	H	2.186165	-0.445422	-0.050829
H99	H	1.557371	-1.078485	-0.679523
H100	H	2.057371	-0.578485	-0.179523
H101	H	1.564766	-0.567857	-1.071295
H102	H	2.064766	-0.067857	-0.571295
H103	H	0.943473	-0.568034	-0.449049
H104	H	1.443473	-0.068034	0.050951
H105	H	1.564722	-0.567910	-0.936750
H106	H	2.064722	-0.067910	-0.436750
