data_functionalizedCrystal
_audit_creation_method	'MofGen! by Chris Wilmer'
_symmetry_space_group_name_H-M	'P1'
_symmetry_Int_Tables_number	1
_symmetry_cell_setting	triclinic
loop_
_symmetry_equiv_pos_as_xyz
  x,y,z
_cell_length_a	19.288813
_cell_length_b	19.288864
_cell_length_c	18.366186
_cell_angle_alpha	89.977106
_cell_angle_beta	90.016152
_cell_angle_gamma	96.874130
loop_
_atom_site_label
_atom_site_type_symbol
_atom_site_fract_x
_atom_site_fract_y
_atom_site_fract_z
O1	O	-0.086651	0.921337	-0.060799
O2	O	0.413349	1.421337	0.439201
O3	O	-0.098340	0.719074	-0.060751
O4	O	0.401660	1.219074	0.439249
O5	O	0.008638	0.826068	-0.060753
O6	O	0.508638	1.326068	0.439247
O7	O	-0.193628	0.814343	-0.060797
O8	O	0.306372	1.314343	0.439203
O9	O	0.008643	0.826050	0.060346
O10	O	0.508643	1.326050	0.560346
O11	O	-0.098335	0.719056	0.060348
O12	O	0.401665	1.219056	0.560348
O13	O	-0.086646	0.921319	0.060301
O14	O	0.413354	1.421319	0.560301
Zn15	Zn	-0.092489	0.820185	0.079552
Zn16	Zn	0.407511	1.320185	0.579552
Zn17	Zn	-0.092496	0.820208	-0.080002
Zn18	Zn	0.407504	1.320208	0.419998
O19	O	-0.193623	0.814325	0.060303
O20	O	0.306377	1.314325	0.560303
C21	C	-0.097961	0.693189	-0.000195
C22	C	0.402039	1.193189	0.499805
C23	C	-0.096832	0.616085	-0.000176
C24	C	0.403168	1.116085	0.499824
C25	C	-0.159601	0.571378	-0.000201
C26	C	0.340399	1.071378	0.499799
C27	C	-0.158541	0.498931	-0.000208
C28	C	0.341459	0.998931	0.499792
C29	C	-0.094707	0.471195	-0.000206
C30	C	0.405293	0.971195	0.499794
C31	C	-0.031929	0.515912	-0.000177
C32	C	0.468071	1.015912	0.499823
C33	C	-0.032992	0.588358	-0.000162
C34	C	0.467008	1.088358	0.499838
C35	C	-0.044528	0.362948	-0.042646
C36	C	0.455472	0.862948	0.457354
C37	C	-0.043469	0.290504	-0.042666
C38	C	0.456531	0.790504	0.457334
C39	C	-0.091427	0.247750	-0.000249
C40	C	0.408573	0.747750	0.499751
C41	C	-0.140458	0.277447	0.042177
C42	C	0.359542	0.777447	0.542177
C43	C	-0.141520	0.349893	0.042192
C44	C	0.358480	0.849893	0.542192
C45	C	-0.093548	0.392641	-0.000222
C46	C	0.406452	0.892641	0.499778
C47	C	-0.153051	0.124486	-0.000282
C48	C	0.346949	0.624486	0.499718
C49	C	-0.151988	0.052038	-0.000285
C50	C	0.348012	0.552038	0.499715
C51	C	-0.025374	0.069022	-0.000261
C52	C	0.474626	0.569022	0.499739
C53	C	-0.026440	0.141468	-0.000250
C54	C	0.473560	0.641468	0.499750
C55	C	-0.090280	0.169196	-0.000264
C56	C	0.409720	0.669196	0.499736
C57	C	-0.219503	0.814705	-0.000253
C58	C	0.280497	1.314705	0.499747
C59	C	-0.296608	0.815820	-0.000271
C60	C	0.203392	1.315820	0.499729
C61	C	-0.332799	0.816351	0.065744
C62	C	0.167201	1.316351	0.565744
C63	C	-0.405246	0.817418	0.065756
C64	C	0.094754	1.317418	0.565756
C65	C	-0.441496	0.817967	-0.000250
C66	C	0.058504	1.317967	0.499750
C67	C	-0.405296	0.817432	-0.066274
C68	C	0.094704	1.317432	0.433726
C69	C	-0.332852	0.816358	-0.066284
C70	C	0.167148	1.316358	0.433716
C71	C	-0.550825	0.860361	-0.050816
C72	C	-0.050825	1.360361	0.449184
C73	C	-0.623267	0.861438	-0.050802
C74	C	-0.123267	1.361438	0.449198
C75	C	-0.664938	0.821276	-0.000221
C76	C	-0.164938	1.321276	0.499779
C77	C	-0.634156	0.780044	0.050359
C78	C	-0.134156	1.280044	0.550359
C79	C	-0.561712	0.778970	0.050349
C80	C	-0.061712	1.278970	0.550349
C81	C	-0.520049	0.819131	-0.000246
C82	C	-0.020049	1.319131	0.499754
C83	C	-0.779684	0.822963	0.065812
C84	C	-0.279684	1.322963	0.565812
C85	C	-0.852132	0.824025	0.065821
C86	C	-0.352132	1.324025	0.565821
C87	C	-0.852180	0.824046	-0.066211
C88	C	-0.352180	1.324046	0.433789
C89	C	-0.779734	0.822976	-0.066218
C90	C	-0.279734	1.322976	0.433782
C91	C	-0.743490	0.822438	-0.000205
C92	C	-0.243490	1.322438	0.499795
C93	C	0.034517	0.825688	-0.000199
C94	C	0.534517	1.325688	0.499801
C95	C	0.111623	0.824573	-0.000186
C96	C	0.611623	1.324573	0.499814
C97	C	-0.087024	0.947204	-0.000257
C98	C	0.412976	1.447204	0.499743
C99	C	-0.088153	1.024308	-0.000281
C100	C	0.411847	1.524308	0.499719
N101	N	-0.092484	0.820173	0.188443
N102	N	0.407516	1.320173	0.688443
N103	N	-0.092496	0.820225	-0.188893
N104	N	0.407504	1.320225	0.311107
C105	C	-0.045138	0.867566	0.226542
C106	C	0.454862	1.367566	0.726542
C107	C	-0.045135	0.867570	0.302770
C108	C	0.454865	1.367570	0.802770
C109	C	-0.092490	0.820189	0.340895
C110	C	0.407510	1.320189	0.840895
C111	C	-0.139840	0.772787	0.302787
C112	C	0.360160	1.272787	0.802787
C113	C	-0.139837	0.772780	0.226560
C114	C	0.360163	1.272780	0.726560
C115	C	-0.155779	0.810879	0.461644
C116	C	0.344221	1.310879	0.961644
C117	C	-0.155783	0.810892	0.537868
C118	C	0.344217	1.310892	1.037868
C119	C	-0.092499	0.820208	0.576003
C120	C	0.407501	1.320208	1.076003
C121	C	-0.029207	0.829528	0.537903
C122	C	0.470793	1.329528	1.037903
C123	C	-0.029205	0.829520	0.461677
C124	C	0.470795	1.329520	0.961677
C125	C	-0.092498	0.820192	0.423550
C126	C	0.407502	1.320192	0.923550
C127	C	-0.045145	0.867608	0.696757
C128	C	0.454855	1.367608	1.196757
C129	C	-0.045141	0.867608	0.772986
C130	C	0.454859	1.367608	1.272986
C131	C	-0.139852	0.772828	0.773002
C132	C	0.360148	1.272828	1.273002
C133	C	-0.139850	0.772826	0.696774
C134	C	0.360150	1.272826	1.196774
C135	C	-0.092497	0.820219	0.658656
C136	C	0.407503	1.320219	1.158656
H137	H	-0.209657	0.462523	-0.000227
H138	H	0.290343	0.962523	0.499773
H139	H	-0.178407	0.734237	0.665751
H140	H	0.321593	1.234237	1.165751
H141	H	-0.434720	0.817838	0.119515
H142	H	0.065280	1.317838	0.619515
F143	F	-0.890759	0.824608	-0.136460
F144	F	-0.390759	1.324608	0.363540
F145	F	-0.678498	0.737299	0.104199
F146	F	-0.178498	1.237299	0.604199
H147	H	0.022325	0.837114	0.568950
H148	H	0.522325	1.337114	1.068950
H149	H	-0.750266	0.822549	-0.119975
H150	H	-0.250266	1.322549	0.380025
F151	F	-0.294230	0.815773	0.136001
F152	F	0.205770	1.315773	0.636001
H153	H	-0.516903	0.893063	-0.092013
H154	H	-0.016903	1.393063	0.407987
F155	F	0.005255	0.918046	0.656189
F156	F	0.505255	1.418046	1.156189
F157	F	0.008708	0.258904	-0.087826
F158	F	0.508708	0.758904	0.412174
F159	F	-0.294334	0.815793	-0.136549
F160	F	0.205666	1.315793	0.363451
F161	F	0.006520	0.408444	-0.087794
F162	F	0.506520	0.908444	0.412206
F163	F	0.038152	0.839432	0.421131
F164	F	0.538152	1.339432	0.921131
F165	F	-0.190236	0.722358	0.343363
F166	F	0.309764	1.222358	0.843363
H167	H	-0.178393	0.734186	0.195539
H168	H	0.321607	1.234186	0.695539
H169	H	0.018124	0.624760	-0.000142
H170	H	0.518124	1.124760	0.499858
H171	H	0.024674	0.177870	-0.000234
H172	H	0.524674	0.677870	0.499766
F173	F	-0.190247	0.722397	0.813574
F174	F	0.309753	1.222397	1.313574
F175	F	0.005260	0.918015	0.343325
F176	F	0.505260	1.418015	0.843325
F177	F	0.005258	0.918048	0.813536
F178	F	0.505258	1.418048	1.313536
H179	H	-0.207318	0.803308	0.568884
H180	H	0.292682	1.303308	1.068884
H181	H	-0.536652	0.745398	0.091534
H182	H	-0.036652	1.245398	0.591534
H183	H	-0.207316	0.803280	0.430601
H184	H	0.292684	1.303280	0.930601
H185	H	-0.181440	0.374069	0.076740
H186	H	0.318560	0.874069	0.576740
H187	H	0.020045	0.493325	-0.000185
H188	H	0.520045	0.993325	0.499815
H189	H	0.026600	0.046440	-0.000304
H190	H	0.526600	0.546440	0.499696
F191	F	-0.227546	0.600883	-0.000213
F192	F	0.272454	1.100883	0.499787
H193	H	-0.205033	0.147063	-0.000282
H194	H	0.294967	0.647063	0.499718
F195	F	-0.191504	0.231951	0.087323
F196	F	0.308496	0.731951	0.587323
F197	F	-0.656021	0.905323	-0.104632
F198	F	-0.156021	1.405323	0.395368
H199	H	-0.006579	0.906155	0.195509
H200	H	0.493421	1.406155	0.695509
F201	F	-0.443877	0.818019	-0.136522
F202	F	0.056123	1.318019	0.363478
H203	H	-0.750173	0.822518	0.119563
H204	H	-0.250173	1.322518	0.619563
H205	H	-0.203104	0.015637	-0.000301
H206	H	0.296896	0.515637	0.499699
F207	F	-0.890651	0.824579	0.136087
F208	F	-0.390651	1.324579	0.636087
