data_functionalizedCrystal
_audit_creation_method	'MofGen! by Chris Wilmer'
_symmetry_space_group_name_H-M	'P1'
_symmetry_Int_Tables_number	1
_symmetry_cell_setting	triclinic
loop_
_symmetry_equiv_pos_as_xyz
  x,y,z
_cell_length_a	14.519709
_cell_length_b	11.792241
_cell_length_c	10.268362
_cell_angle_alpha	90.001488
_cell_angle_beta	89.999002
_cell_angle_gamma	83.936780
loop_
_atom_site_label
_atom_site_type_symbol
_atom_site_fract_x
_atom_site_fract_y
_atom_site_fract_z
O1	O	-1.224413	-0.148775	-0.108131
O2	O	-0.974413	0.101225	0.141869
O3	O	-0.724413	0.351225	0.391869
O4	O	-0.474413	0.601225	0.641869
O5	O	-0.956000	-0.166295	-0.108171
O6	O	-0.706000	0.083705	0.141829
O7	O	-0.456000	0.333705	0.391829
O8	O	-0.206000	0.583705	0.641829
O9	O	-1.096720	0.007672	-0.108141
O10	O	-0.846720	0.257672	0.141859
O11	O	-0.596720	0.507672	0.391859
O12	O	-0.346720	0.757672	0.641859
O13	O	-1.083693	-0.322742	-0.108161
O14	O	-0.833693	-0.072742	0.141839
O15	O	-0.583693	0.177258	0.391839
O16	O	-0.333693	0.427258	0.641839
O17	O	-1.096706	0.007666	0.108460
O18	O	-0.846706	0.257666	0.358460
O19	O	-0.596706	0.507666	0.608460
O20	O	-0.346706	0.757666	0.858460
O21	O	-0.955986	-0.166301	0.108430
O22	O	-0.705986	0.083699	0.358430
O23	O	-0.455986	0.333699	0.608430
O24	O	-0.205986	0.583699	0.858430
O25	O	-1.224399	-0.148781	0.108470
O26	O	-0.974399	0.101219	0.358470
O27	O	-0.724399	0.351219	0.608470
O28	O	-0.474399	0.601219	0.858470
Cu29	Cu	-1.090191	-0.157541	0.128227
Cu30	Cu	-0.840191	0.092459	0.378227
Cu31	Cu	-0.590191	0.342459	0.628227
Cu32	Cu	-0.340191	0.592459	0.878227
Cu33	Cu	-1.090208	-0.157534	-0.127928
Cu34	Cu	-0.840208	0.092466	0.122072
Cu35	Cu	-0.590208	0.342466	0.372072
Cu36	Cu	-0.340208	0.592466	0.622072
O37	O	-1.083679	-0.322748	0.108440
O38	O	-0.833679	-0.072748	0.358440
O39	O	-0.583679	0.177252	0.608440
O40	O	-0.333679	0.427252	0.858440
C41	C	-0.921630	-0.165482	0.000124
C42	C	-0.671630	0.084518	0.250124
C43	C	-0.421630	0.334518	0.500124
C44	C	-0.171630	0.584518	0.750124
C45	C	-0.819240	-0.163035	0.000109
C46	C	-0.569240	0.086965	0.250109
C47	C	-0.319240	0.336965	0.500109
C48	C	-0.069240	0.586965	0.750109
C49	C	-1.258769	-0.149594	0.000171
C50	C	-1.008769	0.100406	0.250171
C51	C	-0.758769	0.350406	0.500171
C52	C	-0.508769	0.600406	0.750171
C53	C	-1.361159	-0.152041	0.000178
C54	C	-1.111159	0.097959	0.250178
C55	C	-0.861159	0.347959	0.500178
C56	C	-0.611159	0.597959	0.750178
C57	C	-1.095895	0.049955	0.000159
C58	C	-0.845895	0.299955	0.250159
C59	C	-0.595895	0.549955	0.500159
C60	C	-0.345895	0.799955	0.750159
C61	C	-1.093446	0.175955	0.000157
C62	C	-0.843446	0.425955	0.250157
C63	C	-0.593446	0.675955	0.500157
C64	C	-0.343446	0.925955	0.750157
C65	C	-0.444311	-0.154027	0.000169
C66	C	-0.194311	0.095973	0.250169
C67	C	0.055689	0.345973	0.500169
C68	C	0.305689	0.595973	0.750169
C69	C	-0.548628	-0.156528	0.000152
C70	C	-0.298628	0.093472	0.250152
C71	C	-0.048628	0.343472	0.500152
C72	C	0.201372	0.593472	0.750152
C73	C	-0.631772	-0.158531	0.000138
C74	C	-0.381772	0.091469	0.250138
C75	C	-0.131772	0.341469	0.500138
C76	C	0.118228	0.591469	0.750138
C77	C	-0.736096	-0.161033	0.000123
C78	C	-0.486096	0.088967	0.250123
C79	C	-0.236096	0.338967	0.500123
C80	C	0.013904	0.588967	0.750123
C81	C	-1.084504	-0.365031	0.000137
C82	C	-0.834504	-0.115031	0.250137
C83	C	-0.584504	0.134969	0.500137
C84	C	-0.334504	0.384969	0.750137
C85	C	-1.086954	-0.491031	0.000130
C86	C	-0.836954	-0.241031	0.250130
C87	C	-0.586954	0.008969	0.500130
C88	C	-0.336954	0.258969	0.750130
N89	N	-1.090187	-0.157546	0.308393
N90	N	-0.840187	0.092454	0.558393
N91	N	-0.590187	0.342454	0.808393
N92	N	-0.340187	0.592454	1.058393
C93	C	-1.088942	0.406642	0.000135
C94	C	-0.838942	0.656642	0.250135
C95	C	-0.588942	0.906642	0.500135
C96	C	-0.338942	1.156642	0.750135
C97	C	-1.091444	0.278271	0.000147
C98	C	-0.841444	0.528271	0.250147
C99	C	-0.591444	0.778271	0.500147
C100	C	-0.341444	1.028271	0.750147
N101	N	-1.090219	-0.157521	-0.308094
N102	N	-0.840219	0.092479	-0.058094
N103	N	-0.590219	0.342479	0.191906
N104	N	-0.340219	0.592479	0.441906
C105	C	-1.090194	-0.157546	0.426235
C106	C	-0.840194	0.092454	0.676235
C107	C	-0.590194	0.342454	0.926235
C108	C	-0.340194	0.592454	1.176235
C109	C	-1.090205	-0.157536	0.574073
C110	C	-0.840205	0.092464	0.824073
C111	C	-0.590205	0.342464	1.074073
C112	C	-0.340205	0.592464	1.324073
