data_functionalizedCrystal
_audit_creation_method	'MofGen! by Chris Wilmer'
_symmetry_space_group_name_H-M	'P1'
_symmetry_Int_Tables_number	1
_symmetry_cell_setting	triclinic
loop_
_symmetry_equiv_pos_as_xyz
  x,y,z
_cell_length_a	14.853566
_cell_length_b	10.489741
_cell_length_c	13.330367
_cell_angle_alpha	89.994717
_cell_angle_beta	90.004068
_cell_angle_gamma	84.086794
loop_
_atom_site_label
_atom_site_type_symbol
_atom_site_fract_x
_atom_site_fract_y
_atom_site_fract_z
O1	O	1.197304	0.166502	0.083357
O2	O	0.934955	0.186342	0.083373
O3	O	1.072099	-0.009243	0.083358
O4	O	1.060160	0.362087	0.083371
O5	O	1.072078	-0.009212	-0.083489
O6	O	0.934934	0.186373	-0.083474
O7	O	1.197283	0.166534	-0.083491
Cu8	Cu	1.066107	0.176456	-0.098717
Cu9	Cu	1.066131	0.176419	0.098599
O10	O	1.060139	0.362118	-0.083476
C11	C	0.901351	0.185459	-0.000048
C12	C	0.801252	0.182766	-0.000042
C13	C	0.378015	0.171359	0.090888
C14	C	0.378013	0.171394	-0.091015
C15	C	0.472062	0.173922	-0.091012
C16	C	0.519091	0.175171	-0.000057
C17	C	0.472072	0.173891	0.090894
C18	C	0.519087	0.175215	-0.181962
C19	C	0.613141	0.177746	-0.181962
C20	C	0.660172	0.178986	-0.091006
C21	C	0.613147	0.177704	-0.000051
C22	C	0.660176	0.178953	0.090903
C23	C	0.613154	0.177663	0.181859
C24	C	0.519103	0.175131	0.181850
C25	C	0.754223	0.181517	-0.090997
C26	C	0.754233	0.181486	0.090909
C27	C	1.071187	-0.056749	-0.000064
C28	C	1.068489	-0.198348	-0.000062
C29	C	0.981228	-0.265508	-0.000050
C30	C	1.022439	-0.358078	-0.082317
C31	C	1.022481	-0.358084	0.082182
C32	C	1.109736	-0.289053	-0.082397
C33	C	1.109765	-0.289049	0.082175
C34	C	1.151039	-0.381592	-0.000112
C35	C	1.230887	0.167417	-0.000067
C36	C	1.330986	0.170110	-0.000066
C37	C	1.061051	0.409624	-0.000051
C38	C	1.063749	0.551223	-0.000046
N39	N	1.066096	0.176481	-0.237498
C40	C	1.121321	0.253898	-0.710111
C41	C	1.010968	0.098889	-0.710099
C42	C	1.010955	0.098909	-0.605081
C43	C	1.066127	0.176423	-0.552573
C44	C	1.121312	0.253918	-0.605083
C45	C	0.955778	0.021406	-0.552562
C46	C	0.955764	0.021421	-0.447537
C47	C	1.010932	0.098944	-0.395028
C48	C	1.066118	0.176442	-0.447545
C49	C	1.121290	0.253957	-0.395037
C50	C	1.176472	0.331463	-0.447552
C51	C	1.176480	0.331440	-0.552574
C52	C	1.010924	0.098967	-0.290006
C53	C	1.121280	0.253976	-0.290009
N54	N	1.066149	0.176384	0.237381
H55	H	0.480809	0.174079	0.255901
N56	N	0.329977	0.170028	0.183785
N57	N	0.246004	0.167756	0.183773
H58	H	0.212074	0.166816	0.249382
N59	N	0.899379	-0.057713	-0.393897
N60	N	0.840090	-0.008032	-0.335322
H61	H	0.800264	-0.063915	-0.297436
H62	H	1.166204	0.317105	-0.247264
N63	N	0.976166	-0.396424	0.169443
N64	N	1.005099	-0.372944	0.254821
H65	H	0.972384	-0.400015	0.316447
H66	H	0.651457	0.178688	0.255915
N67	N	1.232830	0.410620	-0.393896
N68	N	1.232815	0.410607	-0.300127
H69	H	1.272618	0.466508	-0.262228
N70	N	1.156066	-0.250655	0.169422
N71	N	1.186459	-0.332672	0.232126
H72	H	1.219155	-0.305556	0.293752
N73	N	0.471035	0.173943	-0.274854
N74	N	0.387063	0.171670	-0.274842
H75	H	0.353122	0.170766	-0.340450
N76	N	1.177686	0.333081	-0.763731
N77	N	1.167658	0.451924	-0.752015
H78	H	1.207466	0.507850	-0.789883
H79	H	1.221408	0.394539	-0.595341
N80	N	0.329963	0.170129	-0.183909
N81	N	0.245989	0.167873	-0.183900
H82	H	0.212049	0.166978	-0.249509
N83	N	0.891223	-0.202221	-0.000150
N84	N	0.838549	-0.220301	-0.070675
H85	H	0.774984	-0.175605	-0.070750
H86	H	0.985508	-0.388662	-0.151863
H87	H	0.966056	0.035772	-0.752857
N88	N	0.661155	0.179058	-0.274875
N89	N	0.619152	0.177942	-0.356076
H90	H	0.653063	0.178864	-0.421698
N91	N	0.899445	-0.057780	-0.606211
N92	N	0.899465	-0.057785	-0.699980
H93	H	0.859680	-0.113715	-0.737875
H94	H	0.792503	0.182580	-0.165052
H95	H	0.965998	0.035859	-0.247253
H96	H	0.792518	0.182499	0.164977
H97	H	1.222849	-0.431823	-0.000162
N98	N	1.156005	-0.250869	-0.169740
N99	N	1.165517	-0.135217	-0.183860
H100	H	1.198192	-0.108245	-0.245545
