data_functionalizedCrystal
_audit_creation_method	'MofGen! by Chris Wilmer'
_symmetry_space_group_name_H-M	'P1'
_symmetry_Int_Tables_number	1
_symmetry_cell_setting	triclinic
loop_
_symmetry_equiv_pos_as_xyz
  x,y,z
_cell_length_a	10.654558
_cell_length_b	10.654551
_cell_length_c	9.130313
_cell_angle_alpha	90.001552
_cell_angle_beta	90.000369
_cell_angle_gamma	84.486839
loop_
_atom_site_label
_atom_site_type_symbol
_atom_site_fract_x
_atom_site_fract_y
_atom_site_fract_z
O1	O	1.667829	0.176443	-0.121769
O2	O	1.302352	0.193238	-0.121775
O3	O	1.493492	0.002102	-0.121773
O4	O	1.476688	0.367579	-0.121772
O5	O	1.493490	0.002107	0.121826
O6	O	1.302349	0.193243	0.121823
O7	O	1.667826	0.176448	0.121830
Cu8	Cu	1.485088	0.184846	0.144069
Cu9	Cu	1.485090	0.184840	-0.144015
O10	O	1.476685	0.367584	0.121827
C11	C	1.255553	0.192005	0.000023
C12	C	1.116110	0.188309	0.000020
C13	C	1.492257	-0.044694	0.000023
C14	C	1.488565	-0.184137	0.000013
C15	C	0.919573	0.183111	-0.132766
C16	C	1.050595	0.186572	-0.132767
C17	C	1.050597	0.186571	0.132818
C18	C	0.919577	0.183101	0.132818
C19	C	0.854063	0.181387	-0.265562
C20	C	0.919568	0.183122	-0.398360
C21	C	1.050590	0.186584	-0.398361
C22	C	1.116108	0.188310	-0.265565
C23	C	1.486834	-0.249652	-0.132770
C24	C	1.483353	-0.380672	-0.132763
C25	C	1.483341	-0.380652	0.132822
C26	C	1.486812	-0.249633	0.132814
C27	C	1.488587	-0.184156	-0.265570
C28	C	1.486857	-0.249671	-0.398364
C29	C	1.483377	-0.380692	-0.398357
C30	C	1.481626	-0.446197	-0.265557
C31	C	1.714625	0.177681	0.000028
C32	C	1.854068	0.181377	0.000021
C33	C	1.477921	0.414380	0.000028
C34	C	1.481613	0.553823	0.000028
N35	N	1.485095	0.184850	0.346692
N36	N	1.485093	0.184827	-0.346637
C37	C	1.569754	0.100243	0.423345
C38	C	1.569750	0.100228	0.576682
C39	C	1.400425	0.269437	0.576699
C40	C	1.400423	0.269445	0.423365
C41	C	1.654425	0.015648	0.346672
C42	C	1.739092	-0.068964	0.423325
C43	C	1.739089	-0.068979	0.576662
C44	C	1.654419	0.015618	0.653346
H45	H	0.866215	0.181708	-0.506478
H46	H	1.654438	0.015655	0.221818
C47	C	1.481425	-0.452710	0.278891
C48	C	1.370177	-0.529478	0.315405
C49	C	1.368265	-0.601537	0.461476
C50	C	1.477603	-0.596828	0.571032
C51	C	1.588859	-0.520057	0.534521
C52	C	1.590771	-0.447999	0.388451
H53	H	1.289231	-0.532966	0.234302
H54	H	1.285905	-0.658367	0.488503
H55	H	1.476188	-0.650170	0.679163
H56	H	1.669805	-0.516569	0.615624
H57	H	1.673131	-0.391168	0.361423
C58	C	1.307300	0.362516	0.339038
C59	C	1.214226	0.455625	0.423375
C60	C	1.121097	0.548694	0.339049
C61	C	1.121041	0.548654	0.170388
C62	C	1.214118	0.455541	0.086042
C63	C	1.307248	0.362472	0.170368
H64	H	1.214265	0.455657	0.548236
H65	H	1.052195	0.617622	0.401488
H66	H	1.052101	0.617549	0.107965
H67	H	1.214080	0.455508	-0.038819
H68	H	1.376150	0.293544	0.107928
H69	H	1.808019	-0.137881	0.639072
H70	H	0.866239	0.181712	0.240945
C71	C	1.488715	-0.177553	0.278872
C72	C	1.379367	-0.182246	0.388414
C73	C	1.381260	-0.110161	0.534474
C74	C	1.492502	-0.033384	0.570991
C75	C	1.601859	-0.028688	0.461445
C76	C	1.599965	-0.100772	0.315386
H77	H	1.297011	-0.239083	0.361385
H78	H	1.300307	-0.113638	0.615566
H79	H	1.493904	0.019977	0.679113
H80	H	1.684214	0.028149	0.488475
H81	H	1.680919	-0.097296	0.234293
H82	H	1.103922	0.187985	-0.506491
H83	H	1.331491	0.338314	0.639145
H84	H	1.222797	0.191122	-0.265576
C85	C	1.122665	0.188493	0.278883
C86	C	1.091339	0.296889	0.388423
C87	C	1.163406	0.298821	0.534490
C88	C	1.266799	0.192355	0.571015
C89	C	1.298130	0.083951	0.461472
C90	C	1.226063	0.082019	0.315405
H91	H	1.014796	0.375708	0.361388
H92	H	1.140212	0.379069	0.615581
H93	H	1.320147	0.193785	0.679142
H94	H	1.374672	0.005132	0.488508
H95	H	1.249257	0.001771	0.234314
H96	H	0.747378	0.178572	-0.265576
H97	H	1.491424	-0.077473	-0.265590
H98	H	1.488270	-0.196327	-0.506485
H99	H	1.808021	-0.137847	0.360882
H100	H	1.478774	-0.552880	-0.265562
H101	H	1.481956	-0.434029	-0.506484
H102	H	1.654414	0.015590	0.778203
