data_functionalizedCrystal
_audit_creation_method	'MofGen! by Chris Wilmer'
_symmetry_space_group_name_H-M	'P1'
_symmetry_Int_Tables_number	1
_symmetry_cell_setting	triclinic
loop_
_symmetry_equiv_pos_as_xyz
  x,y,z
_cell_length_a	12.759401
_cell_length_b	12.759400
_cell_length_c	19.077569
_cell_angle_alpha	87.678929
_cell_angle_beta	87.687211
_cell_angle_gamma	90.013799
loop_
_atom_site_label
_atom_site_type_symbol
_atom_site_fract_x
_atom_site_fract_y
_atom_site_fract_z
Zn1	Zn	1.630068	-0.394454	-0.397938
Zn2	Zn	1.622920	-0.577204	-0.280248
Zn3	Zn	1.447328	-0.401537	-0.280258
Zn4	Zn	1.454357	-0.570091	-0.397910
O5	O	1.538668	-0.485821	-0.339088
O6	O	1.776141	-0.418709	-0.382333
O7	O	1.593694	-0.559843	-0.181758
O8	O	1.471619	-0.253575	-0.295885
O9	O	1.770889	-0.552975	-0.295867
O10	O	1.605877	-0.248372	-0.382343
O11	O	1.464687	-0.430781	-0.181765
O12	O	1.301239	-0.423883	-0.295857
O13	O	1.483598	-0.540851	-0.496405
O14	O	1.306403	-0.547718	-0.382295
O15	O	1.612692	-0.411811	-0.496425
O16	O	1.600510	-0.723283	-0.295840
O17	O	1.476667	-0.718056	-0.382285
C18	C	1.265700	-0.485798	-0.339075
C19	C	1.148924	-0.485812	-0.339086
C20	C	1.091347	-0.421238	-0.294160
C21	C	0.981624	-0.421262	-0.294169
C22	C	0.987064	-0.550438	-0.384035
C23	C	1.096785	-0.550419	-0.384022
C24	C	1.143486	-0.356631	-0.249224
C25	C	1.085909	-0.292050	-0.204295
C26	C	0.976185	-0.292075	-0.204304
C27	C	0.924039	-0.356680	-0.249242
C28	C	1.538605	-0.758790	-0.339074
C29	C	1.538675	-0.875565	-0.339091
C30	C	1.603238	-0.933111	-0.294128
C31	C	1.603303	-1.042834	-0.294150
C32	C	1.474236	-1.037455	-0.384099
C33	C	1.474176	-0.927734	-0.384080
C34	C	1.667737	-0.880942	-0.249139
C35	C	1.732303	-0.938488	-0.204172
C36	C	1.732369	-1.048210	-0.204194
C37	C	1.667868	-1.100387	-0.249183
C38	C	1.812702	-0.485846	-0.339102
C39	C	1.929479	-0.485856	-0.339108
C40	C	1.549727	-0.474747	-0.522667
C41	C	1.554439	-0.470028	-0.600897
C42	C	1.538761	-0.211786	-0.339118
C43	C	1.538801	-0.095009	-0.339131
C44	C	1.489442	-0.534990	-0.637640
C45	C	1.493879	-0.530556	-0.711146
C46	C	1.563308	-0.461154	-0.747907
C47	C	1.628312	-0.396190	-0.711158
C48	C	1.623880	-0.400630	-0.637654
C49	C	1.583776	-0.440675	-0.967742
C50	C	1.588201	-0.436238	-1.041251
C51	C	1.453768	-0.570606	-1.041233
C52	C	1.449338	-0.575036	-0.967728
C53	C	1.514346	-0.510075	-0.930986
N54	N	1.567843	-0.456618	-0.823041
N55	N	1.509816	-0.514618	-0.855853
C56	C	1.527713	-0.496777	-0.156224
C57	C	1.523204	-0.501200	-0.077994
H58	H	0.944597	-0.603035	-0.420622
H59	H	1.784824	-0.895999	-0.167548
F60	F	0.807259	-0.356716	-0.249240
F61	F	1.158066	-0.619148	-0.431836
F62	F	1.405593	-1.092989	-0.431974
F63	F	1.652960	-0.371535	-0.928648
H64	H	1.421605	-0.880880	-0.420693
H65	H	1.432893	-0.591492	-0.607714
H66	H	1.667687	-0.791600	-0.249114
F67	F	1.801094	-1.109452	-0.156343
H68	H	1.667936	-1.189731	-0.249202
H69	H	1.440953	-0.583456	-0.741058
F70	F	1.375437	-0.648898	-0.928609
H71	H	1.128373	-0.239458	-0.167705
F72	F	1.384590	-0.639740	-1.080342
F73	F	1.662064	-0.362332	-1.080374
F74	F	1.702210	-0.322332	-0.750284
H75	H	1.676808	-0.347731	-0.607739
H76	H	1.232828	-0.356601	-0.249213
F77	F	0.914910	-0.223351	-0.156484
