data_functionalizedCrystal
_audit_creation_method	'MofGen! by Chris Wilmer'
_symmetry_space_group_name_H-M	'P1'
_symmetry_Int_Tables_number	1
_symmetry_cell_setting	triclinic
loop_
_symmetry_equiv_pos_as_xyz
  x,y,z
_cell_length_a	13.897441
_cell_length_b	11.169417
_cell_length_c	13.897449
_cell_angle_alpha	89.994686
_cell_angle_beta	89.977085
_cell_angle_gamma	90.018542
loop_
_atom_site_label
_atom_site_type_symbol
_atom_site_fract_x
_atom_site_fract_y
_atom_site_fract_z
Zn1	Zn	-0.545376	-1.834996	-0.383961
Zn2	Zn	-0.045376	-1.334996	0.116039
Zn3	Zn	-0.384099	-1.834911	-0.545283
Zn4	Zn	0.115901	-1.334911	-0.045283
Zn5	Zn	-0.384101	-1.634287	-0.384006
Zn6	Zn	0.115899	-1.134287	0.115994
Zn7	Zn	-0.545358	-1.634310	-0.545219
Zn8	Zn	-0.045358	-1.134310	-0.045219
O9	O	-0.464734	-1.734626	-0.464617
O10	O	0.035266	-1.234626	0.035383
O11	O	-0.523990	-2.002935	-0.405369
O12	O	-0.023990	-1.502935	0.094631
O13	O	-0.249118	-1.808252	-0.523935
O14	O	0.250882	-1.308252	-0.023935
O15	O	-0.405503	-1.660937	-0.249019
O16	O	0.094497	-1.160937	0.250981
O17	O	-0.405500	-2.002872	-0.523892
O18	O	0.094500	-1.502872	-0.023892
O19	O	-0.523991	-1.808398	-0.248986
O20	O	-0.023991	-1.308398	0.251014
O21	O	-0.249119	-1.660854	-0.405446
O22	O	0.250881	-1.160854	0.094554
O23	O	-0.405485	-1.466340	-0.405383
O24	O	0.094515	-0.966340	0.094617
O25	O	-0.680342	-1.660978	-0.523782
O26	O	-0.180342	-1.160978	-0.023782
O27	O	-0.523960	-1.466358	-0.523825
O28	O	-0.023960	-0.966358	-0.023825
O29	O	-0.680356	-1.808421	-0.405307
O30	O	-0.180356	-1.308421	0.094693
O31	O	-0.405482	-1.808275	-0.680256
O32	O	0.094518	-1.308275	-0.180256
O33	O	-0.523959	-1.660895	-0.680209
O34	O	-0.023959	-1.160895	-0.180209
C35	C	-0.464739	-1.734611	-0.715232
C36	C	0.035261	-1.234611	-0.215232
C37	C	-0.464774	-1.734714	-0.822446
C38	C	0.035226	-1.234714	-0.322446
C39	C	-0.464721	-1.422801	-0.464603
C40	C	0.035279	-0.922801	0.035397
C41	C	-0.464739	-1.289401	-0.464620
C42	C	0.035261	-0.789401	0.035380
C43	C	-0.716327	-1.734711	-0.464532
C44	C	-0.216327	-1.234711	0.035468
C45	C	-0.823541	-1.734747	-0.464496
C46	C	-0.323541	-1.234747	0.035504
C47	C	-1.019836	-1.734780	-0.464431
C48	C	-0.519836	-1.234780	0.035569
C49	C	-0.910603	-1.734758	-0.464470
C50	C	-0.410603	-1.234758	0.035530
C51	C	-0.214119	-1.734610	-0.464633
C52	C	0.285881	-1.234610	0.035367
C53	C	-0.106906	-1.734807	-0.464397
C54	C	0.393094	-1.234807	0.035603
C55	C	-0.464747	-2.047668	-0.464633
C56	C	0.035253	-1.547668	0.035367
C57	C	-0.464752	-2.181068	-0.464639
C58	C	0.035248	-1.681068	0.035361
C59	C	-0.464749	-1.734674	-0.213024
C60	C	0.035251	-1.234674	0.286976
C61	C	-0.464756	-1.734695	-0.105811
C62	C	0.035244	-1.234695	0.394189
C63	C	-0.464764	-1.734709	-0.018741
C64	C	0.035236	-1.234709	0.481259
C65	C	-0.464772	-1.734715	0.090492
C66	C	0.035228	-1.234715	0.590492
