data_functionalizedCrystal
_audit_creation_method	'MofGen! by Chris Wilmer'
_symmetry_space_group_name_H-M	'P1'
_symmetry_Int_Tables_number	1
_symmetry_cell_setting	triclinic
loop_
_symmetry_equiv_pos_as_xyz
  x,y,z
_cell_length_a	9.065218
_cell_length_b	16.176319
_cell_length_c	9.065218
_cell_angle_alpha	89.995087
_cell_angle_beta	94.984115
_cell_angle_gamma	90.007458
loop_
_atom_site_label
_atom_site_type_symbol
_atom_site_fract_x
_atom_site_fract_y
_atom_site_fract_z
O1	O	1.960407	0.068745	-0.216361
O2	O	1.531123	0.068746	-0.234107
O3	O	1.754638	0.068744	-0.010591
O4	O	1.736892	0.068747	-0.439876
O5	O	1.754607	-0.068749	-0.010577
O6	O	1.531091	-0.068747	-0.234092
O7	O	1.960376	-0.068748	-0.216346
Cu8	Cu	1.745731	-0.081302	-0.225218
Cu9	Cu	1.745768	0.081300	-0.225235
O10	O	1.736860	-0.068746	-0.439861
C11	C	1.476120	-0.000001	-0.232394
C12	C	1.312277	-0.000000	-0.227294
N13	N	1.745715	-0.195667	-0.225204
C14	C	1.844719	-0.238932	-0.126273
C15	C	1.844726	-0.325479	-0.126272
C16	C	1.745736	-0.368760	-0.225210
C17	C	1.646722	-0.325489	-0.324146
C18	C	1.646709	-0.238943	-0.324139
C19	C	1.646773	-0.674517	-0.324174
C20	C	1.646797	-0.761068	-0.324176
C21	C	1.844791	-0.761053	-0.126307
C22	C	1.844777	-0.674508	-0.126300
C23	C	1.745759	-0.631244	-0.225230
C24	C	1.745750	-0.537400	-0.225229
C25	C	1.745751	-0.462602	-0.225220
C26	C	2.015378	0.000000	-0.218059
C27	C	2.179221	0.000005	-0.223158
C28	C	1.752917	-0.000002	0.044403
C29	C	1.747817	0.000002	0.208245
N30	N	1.745795	0.195665	-0.225237
C31	C	1.738582	0.000001	-0.494855
C32	C	1.743681	0.000002	-0.658698
H33	H	1.925341	-0.360706	-0.045714
C34	C	1.563454	-0.352118	-0.578381
C35	C	1.537899	-0.373056	-0.432900
H36	H	1.496262	-0.381478	-0.645521
H37	H	1.662127	-0.366294	-0.595779
H38	H	1.549279	-0.294380	-0.592511
H39	H	1.552085	-0.430793	-0.418767
H40	H	1.439202	-0.358884	-0.415495
H41	H	1.566088	-0.203717	-0.404697
H42	H	1.566151	-0.639298	-0.404729
C43	C	1.392509	-0.787756	-0.407232
C44	C	1.537968	-0.808647	-0.432923
H45	H	1.325330	-0.817135	-0.474358
H46	H	1.378331	-0.730029	-0.421397
H47	H	1.375214	-0.801952	-0.308520
H48	H	1.555267	-0.794446	-0.531632
H49	H	1.552152	-0.866387	-0.418770
H50	H	1.925413	-0.796288	-0.045748
H51	H	1.925389	-0.639271	-0.045741
C52	C	2.040424	-0.247619	0.069328
C53	C	1.953531	-0.191363	-0.017512
H54	H	2.107592	-0.218252	0.136482
H55	H	2.094320	-0.281361	0.007164
H56	H	1.978285	-0.281389	0.123252
H57	H	2.015669	-0.157597	-0.071445
H58	H	1.899631	-0.157607	0.044660
