data_functionalizedCrystal
_audit_creation_method	'MofGen! by Chris Wilmer'
_symmetry_space_group_name_H-M	'P1'
_symmetry_Int_Tables_number	1
_symmetry_cell_setting	triclinic
loop_
_symmetry_equiv_pos_as_xyz
  x,y,z
_cell_length_a	21.295418
_cell_length_b	12.759394
_cell_length_c	12.759387
_cell_angle_alpha	89.968340
_cell_angle_beta	90.042089
_cell_angle_gamma	89.969348
loop_
_atom_site_label
_atom_site_type_symbol
_atom_site_fract_x
_atom_site_fract_y
_atom_site_fract_z
Zn1	Zn	0.962414	0.417767	0.594604
Zn2	Zn	0.962348	0.593484	0.418922
Zn3	Zn	0.857140	0.417869	0.418875
Zn4	Zn	0.857135	0.593454	0.594495
O5	O	0.909760	0.505643	0.506724
O6	O	1.050495	0.441047	0.571365
O7	O	0.948367	0.570244	0.271894
O8	O	0.871135	0.270834	0.442212
O9	O	1.050446	0.570146	0.442292
O10	O	0.948479	0.270760	0.571319
O11	O	0.871071	0.441220	0.271860
O12	O	0.769050	0.441190	0.442106
O13	O	0.871126	0.570093	0.741530
O14	O	0.769047	0.570191	0.571133
O15	O	0.948474	0.441017	0.741611
O16	O	0.948362	0.740501	0.442186
O17	O	0.871063	0.740479	0.571179
C18	C	0.909722	0.778611	0.506698
C19	C	0.909763	0.895388	0.506723
C20	C	0.746208	0.505699	0.506603
C21	C	0.676240	0.505748	0.506576
C22	C	0.909807	0.505540	0.780757
C23	C	0.909827	0.505497	0.897534
C24	C	0.643388	0.573008	0.573660
C25	C	0.577645	0.572982	0.573707
C26	C	0.544757	0.505707	0.506652
C27	C	0.577617	0.438434	0.439563
C28	C	0.643358	0.438454	0.439525
N29	N	0.441482	0.497511	0.414760
N30	N	0.379030	0.497498	0.414798
C31	C	0.346683	0.505640	0.506763
N32	N	0.379146	0.513817	0.598689
N33	N	0.441603	0.513835	0.598649
C34	C	0.473472	0.505677	0.506686
C35	C	0.242545	0.572876	0.573904
C36	C	0.176801	0.572842	0.573953
C37	C	0.176775	0.438300	0.439799
C38	C	0.242517	0.438327	0.439760
C39	C	0.275398	0.505621	0.506811
C40	C	1.073950	0.505589	0.506846
C41	C	1.143918	0.505565	0.506898
C42	C	0.909815	0.231610	0.506772
C43	C	0.909838	0.114833	0.506793
C44	C	0.990315	0.895358	0.372503
C45	C	1.030608	0.950204	0.305406
C46	C	1.030645	1.059925	0.305435
C47	C	0.990386	1.114804	0.372570
C48	C	0.950094	1.059958	0.439667
C49	C	0.950060	0.950234	0.439629
C50	C	0.869546	1.059987	0.573890
C51	C	0.869504	0.950266	0.573858
C52	C	0.829287	1.114866	0.641026
C53	C	0.788990	1.060020	0.708119
C54	C	0.788954	0.950291	0.708087
C55	C	0.829212	0.895420	0.640955
C56	C	0.909748	0.505670	0.233756
C57	C	0.909850	0.505418	0.116980
C58	C	0.990375	0.371099	0.897638
C59	C	1.030658	0.303884	0.952550
C60	C	1.030673	0.303846	1.062272
C61	C	0.990400	0.371027	1.117084
C62	C	0.950117	0.438242	1.062171
C63	C	0.950108	0.438275	0.952447
C64	C	0.869567	0.572633	1.062068
C65	C	0.869554	0.572678	0.952346
C66	C	0.829294	0.639814	1.116879
C67	C	0.789014	0.707036	1.061967
C68	C	0.789001	0.707072	0.952238
C69	C	0.829272	0.639893	0.897433
H70	H	0.670156	0.627802	0.628260
H71	H	0.269318	0.627665	0.628506
H72	H	0.550892	0.627753	0.628339
H73	H	0.990281	0.806017	0.372460
F74	F	1.073455	0.891792	0.233963
H75	H	0.829183	0.806079	0.640916
H76	H	0.550836	0.383656	0.384968
F77	F	0.746153	1.118430	0.779568
H78	H	0.990425	1.204145	0.372596
F79	F	0.746154	0.778521	1.120306
H80	H	0.990373	0.371133	0.808296
F81	F	0.678323	0.366863	0.368122
F82	F	1.073531	1.118298	0.234028
F83	F	0.141838	0.644428	0.645363
H84	H	0.829322	1.204207	0.641049
F85	F	0.141777	0.366694	0.368438
F86	F	0.277482	0.366742	0.368356
F87	F	0.746072	0.891929	0.779508
F88	F	1.073505	0.232368	0.894209
F89	F	1.073538	0.232295	1.120715
H90	H	0.990411	0.370981	1.206425
H91	H	0.829307	0.639774	1.206221
F92	F	0.829264	0.639930	0.780657
H93	H	0.756191	0.761795	0.907535
