data_functionalizedCrystal
_audit_creation_method	'MofGen! by Chris Wilmer'
_symmetry_space_group_name_H-M	'P1'
_symmetry_Int_Tables_number	1
_symmetry_cell_setting	triclinic
loop_
_symmetry_equiv_pos_as_xyz
  x,y,z
_cell_length_a	19.188930
_cell_length_b	11.792241
_cell_length_c	10.268362
_cell_angle_alpha	89.996518
_cell_angle_beta	90.010846
_cell_angle_gamma	83.669099
loop_
_atom_site_label
_atom_site_type_symbol
_atom_site_fract_x
_atom_site_fract_y
_atom_site_fract_z
O1	O	0.095696	1.505470	0.108190
O2	O	0.595696	2.005470	0.608190
O3	O	0.105558	1.174981	0.108222
O4	O	0.605558	1.674981	0.608222
O5	O	-0.000974	1.349763	0.108179
O6	O	0.499026	1.849763	0.608179
O7	O	0.202229	1.330688	0.108232
O8	O	0.702229	1.830688	0.608232
O9	O	-0.000981	1.349761	-0.108421
O10	O	0.499019	1.849761	0.391579
O11	O	0.105552	1.174979	-0.108379
O12	O	0.605552	1.674979	0.391621
O13	O	0.095690	1.505468	-0.108411
O14	O	0.595690	2.005468	0.391589
Cu15	Cu	0.100621	1.340223	-0.128172
Cu16	Cu	0.600621	1.840223	0.371828
Cu17	Cu	0.100628	1.340226	0.127983
Cu18	Cu	0.600628	1.840226	0.627983
O19	O	0.202223	1.330686	-0.108368
O20	O	0.702223	1.830686	0.391632
C21	C	0.104936	1.132699	-0.000075
C22	C	0.604936	1.632699	0.499925
C23	C	0.103082	1.006713	-0.000064
C24	C	0.603082	1.506713	0.499936
C25	C	0.099672	0.776051	-0.000102
C26	C	0.599672	1.276051	0.499898
C27	C	0.101566	0.904408	-0.000081
C28	C	0.601566	1.404408	0.499919
C29	C	-0.026992	1.349144	-0.000125
C30	C	0.473008	1.849144	0.499875
C31	C	-0.104507	1.347290	-0.000136
C32	C	0.395493	1.847290	0.499864
C33	C	-0.148850	1.449846	-0.000152
C34	C	0.351150	1.949846	0.499848
C35	C	-0.221684	1.448104	-0.000131
C36	C	0.278316	1.948104	0.499869
C37	C	-0.250171	1.343800	-0.000120
C38	C	0.249829	1.843800	0.499880
C39	C	-0.205818	1.241230	-0.000096
C40	C	0.294182	1.741230	0.499904
C41	C	-0.132986	1.242975	-0.000104
C42	C	0.367014	1.742975	0.499896
N43	N	-0.358630	1.264071	-0.073825
N44	N	0.141370	1.764071	0.426175
N45	N	-0.427818	1.262421	-0.073820
N46	N	0.072182	1.762421	0.426180
C47	C	-0.469609	1.338536	-0.000093
C48	C	0.030391	1.838536	0.499907
N49	N	-0.439601	1.416382	0.073614
N50	N	0.060399	1.916382	0.573614
N51	N	-0.370407	1.418036	0.073603
N52	N	0.129593	1.918036	0.573603
C53	C	-0.329144	1.341896	-0.000110
C54	C	0.170856	1.841896	0.499890
C55	C	-0.592928	1.439211	-0.000084
C56	C	-0.092928	1.939211	0.499916
C57	C	-0.665762	1.437464	-0.000055
C58	C	-0.165762	1.937464	0.499945
C59	C	-0.649895	1.230588	-0.000034
C60	C	-0.149895	1.730588	0.499966
C61	C	-0.577062	1.232337	-0.000050
C62	C	-0.077062	1.732337	0.499950
C63	C	-0.548583	1.336652	-0.000081
C64	C	-0.048583	1.836652	0.499919
C65	C	0.228240	1.331305	-0.000062
C66	C	0.728240	1.831305	0.499938
C67	C	0.305755	1.333159	-0.000042
C68	C	0.805755	1.833159	0.499958
C69	C	0.096313	1.547751	-0.000111
C70	C	0.596313	2.047751	0.499889
C71	C	0.098167	1.673737	-0.000114
C72	C	0.598167	2.173737	0.499886
N73	N	0.100628	1.340228	0.308149
N74	N	0.600628	1.840228	0.808149
N75	N	0.100615	1.340230	-0.308338
N76	N	0.600615	1.840230	0.191662
C77	C	0.100624	1.340225	0.573820
C78	C	0.600624	1.840225	1.073820
C79	C	0.100628	1.340224	0.425982
C80	C	0.600628	1.840224	0.925982
H81	H	-0.125667	1.534787	-0.000173
H82	H	0.374333	2.034787	0.499827
Cl83	Cl	-0.277440	1.577041	-0.000150
Cl84	Cl	0.222560	2.077041	0.499850
H85	H	-0.569739	1.524150	-0.000104
H86	H	-0.069739	2.024150	0.499896
H87	H	-0.229017	1.156305	-0.000084
H88	H	0.270983	1.656305	0.499916
Cl89	Cl	-0.685701	1.099461	-0.000012
Cl90	Cl	-0.185701	1.599461	0.499988
H91	H	-0.096881	1.159459	-0.000091
H92	H	0.403119	1.659459	0.499909
Cl93	Cl	-0.721510	1.566405	-0.000067
Cl94	Cl	-0.221510	2.066405	0.499933
H95	H	-0.540957	1.148825	-0.000044
H96	H	-0.040957	1.648825	0.499956
