data_functionalizedCrystal
_audit_creation_method	'MofGen! by Chris Wilmer'
_symmetry_space_group_name_H-M	'P1'
_symmetry_Int_Tables_number	1
_symmetry_cell_setting	triclinic
loop_
_symmetry_equiv_pos_as_xyz
  x,y,z
_cell_length_a	13.596369
_cell_length_b	11.792241
_cell_length_c	11.792241
_cell_angle_alpha	84.193416
_cell_angle_beta	89.993871
_cell_angle_gamma	89.998888
loop_
_atom_site_label
_atom_site_type_symbol
_atom_site_fract_x
_atom_site_fract_y
_atom_site_fract_z
O1	O	0.081696	-1.506910	-0.155570
O2	O	0.415030	-1.173577	0.177764
O3	O	0.748363	-0.840243	0.511097
O4	O	0.081719	-1.176569	-0.171603
O5	O	0.415053	-0.843236	0.161731
O6	O	0.748386	-0.509902	0.495064
O7	O	0.081700	-1.349756	0.001584
O8	O	0.415034	-1.016422	0.334918
O9	O	0.748367	-0.683089	0.668251
O10	O	0.081715	-1.333723	-0.328757
O11	O	0.415049	-1.000390	0.004577
O12	O	0.748382	-0.667056	0.337910
O13	O	-0.081883	-1.349738	0.001594
O14	O	0.251451	-1.016405	0.334927
O15	O	0.584784	-0.683072	0.668260
O16	O	-0.081864	-1.176551	-0.171593
O17	O	0.251470	-0.843218	0.161740
O18	O	0.584803	-0.509885	0.495073
O19	O	-0.081887	-1.506892	-0.155560
O20	O	0.251447	-1.173559	0.177773
O21	O	0.584780	-0.840226	0.511106
Zn22	Zn	-0.107847	-1.341719	-0.163575
Zn23	Zn	0.225486	-1.008386	0.169758
Zn24	Zn	0.558819	-0.675053	0.503091
Zn25	Zn	0.107680	-1.341742	-0.163588
Zn26	Zn	0.441013	-1.008409	0.169746
Zn27	Zn	0.774347	-0.675075	0.503079
O28	O	-0.081868	-1.333706	-0.328747
O29	O	0.251466	-1.000372	0.004586
O30	O	0.584799	-0.667039	0.337919
C31	C	-0.000069	-1.134269	-0.170591
C32	C	0.333264	-0.800936	0.162742
C33	C	0.666597	-0.467603	0.496076
C34	C	-0.000061	-1.008255	-0.167576
C35	C	0.333273	-0.674922	0.165757
C36	C	0.666606	-0.341589	0.499090
C37	C	-0.000091	-1.348740	0.043880
C38	C	0.333243	-1.015407	0.377213
C39	C	0.666576	-0.682073	0.710547
C40	C	-0.000090	-1.345726	0.169894
C41	C	0.333244	-1.012392	0.503227
C42	C	0.666577	-0.679059	0.836560
N43	N	-0.254939	-1.341712	-0.163566
N44	N	0.078394	-1.008379	0.169767
N45	N	0.411727	-0.675045	0.503100
C46	C	-0.656230	-1.341741	-0.163589
C47	C	-0.322897	-1.008407	0.169744
C48	C	0.010436	-0.675074	0.503078
C49	C	-0.544579	-1.341729	-0.163586
C50	C	-0.211246	-1.008396	0.169747
C51	C	0.122088	-0.675063	0.503080
C52	C	-0.455588	-1.341727	-0.163578
C53	C	-0.122255	-1.008393	0.169755
C54	C	0.211078	-0.675060	0.503088
C55	C	-0.343930	-1.341714	-0.163574
C56	C	-0.010597	-1.008381	0.169759
C57	C	0.322737	-0.675048	0.503092
N58	N	0.254772	-1.341758	-0.163588
N59	N	0.588105	-1.008425	0.169746
N60	N	0.921439	-0.675092	0.503079
C61	C	-0.000096	-1.549192	-0.156572
C62	C	0.333237	-1.215859	0.176761
C63	C	0.666571	-0.882525	0.510095
C64	C	-0.000098	-1.675206	-0.159587
C65	C	0.333235	-1.341873	0.173747
C66	C	0.666569	-1.008539	0.507080
C67	C	-0.000089	-0.777543	-0.162034
C68	C	0.333244	-0.444210	0.171300
C69	C	0.666577	-0.110877	0.504633
C70	C	-0.000074	-0.905928	-0.165113
C71	C	0.333260	-0.572595	0.168220
C72	C	0.666593	-0.239262	0.501553
C73	C	-0.000074	-1.334721	-0.371043
C74	C	0.333259	-1.001388	-0.037710
C75	C	0.666592	-0.668055	0.295624
C76	C	-0.000069	-1.337736	-0.497057
C77	C	0.333264	-1.004402	-0.163723
C78	C	0.666598	-0.671069	0.169610
C79	C	-0.000073	-1.340183	0.400606
C80	C	0.333261	-1.006849	0.733939
C81	C	0.666594	-0.673516	1.067272
C82	C	-0.000082	-1.343262	0.272221
C83	C	0.333251	-1.009929	0.605554
C84	C	0.666585	-0.676596	0.938887
