data_functionalizedCrystal
_audit_creation_method	'MofGen! by Chris Wilmer'
_symmetry_space_group_name_H-M	'P1'
_symmetry_Int_Tables_number	1
_symmetry_cell_setting	triclinic
loop_
_symmetry_equiv_pos_as_xyz
  x,y,z
_cell_length_a	11.026607
_cell_length_b	27.732048
_cell_length_c	10.065875
_cell_angle_alpha	98.710990
_cell_angle_beta	79.302338
_cell_angle_gamma	95.614336
loop_
_atom_site_label
_atom_site_type_symbol
_atom_site_fract_x
_atom_site_fract_y
_atom_site_fract_z
O1	O	1.624242	0.196525	-0.113550
O2	O	1.271367	0.173515	-0.113545
O3	O	1.458760	0.115611	-0.113522
O4	O	1.436849	0.254429	-0.113573
O5	O	1.423025	0.126709	0.113462
O6	O	1.235632	0.184613	0.113439
O7	O	1.588508	0.207623	0.113434
Zn8	Zn	1.406396	0.197880	0.149475
Zn9	Zn	1.453478	0.183258	-0.149586
O10	O	1.401115	0.265527	0.113411
C11	C	1.208368	0.174819	-0.000052
C12	C	1.073891	0.162164	-0.000049
C13	C	0.999432	0.197105	-0.000063
C14	C	0.860443	0.184027	-0.000060
C15	C	1.440432	0.103112	-0.000026
C16	C	1.439045	0.049333	-0.000015
C17	C	1.541073	-0.280305	-0.000086
C18	C	1.535935	-0.482428	-0.000105
O19	O	1.629232	-0.505292	-0.000166
N20	N	1.424816	-0.511552	-0.000102
C21	C	1.314975	-0.490142	-0.000104
O22	O	1.220346	-0.519552	-0.000116
C23	C	1.320116	-0.288020	-0.000094
C24	C	1.431240	-0.258898	-0.000083
C25	C	1.652188	-0.251184	-0.000077
C26	C	1.653470	-0.200655	-0.000064
C27	C	1.543637	-0.179249	-0.000062
C28	C	1.432522	-0.208370	-0.000071
C29	C	1.210278	-0.266612	-0.000106
C30	C	1.211573	-0.216078	-0.000107
C31	C	1.322697	-0.186956	-0.000096
C32	C	1.323971	-0.136436	-0.000056
N33	N	1.435090	-0.107312	-0.000059
C34	C	1.544923	-0.128719	-0.000062
C35	C	1.312284	-0.596258	-0.000106
C36	C	1.310998	-0.646789	-0.000106
C37	C	1.531959	-0.639071	-0.000110
C38	C	1.533242	-0.588540	-0.000100
C39	C	1.423403	-0.567135	-0.000109
C40	C	1.547607	-0.022606	-0.000035
C41	C	1.548878	0.027926	-0.000017
C42	C	1.327919	0.020204	-0.000021
C43	C	1.326646	-0.030324	-0.000031
C44	C	1.436500	-0.051727	-0.000043
O45	O	1.230726	-0.113540	-0.000011
O46	O	1.639543	-0.099302	-0.000080
C47	C	1.539791	-0.330833	-0.000098
C48	C	1.428676	-0.359955	-0.000108
C49	C	1.318842	-0.338548	-0.000105
C50	C	1.427390	-0.410485	-0.000108
C51	C	1.537223	-0.431891	-0.000110
C52	C	1.648342	-0.402768	-0.000113
C53	C	1.649624	-0.352240	-0.000101
C54	C	1.207723	-0.367671	-0.000102
C55	C	1.206450	-0.418199	-0.000113
C56	C	1.316283	-0.439606	-0.000116
C57	C	1.651507	0.206319	-0.000062
C58	C	1.785985	0.218973	-0.000074
C59	C	1.419443	0.278026	-0.000088
C60	C	1.420832	0.331805	-0.000108
N61	N	1.374273	0.207860	0.353577
N62	N	1.485611	0.173275	-0.353688
C63	C	1.442294	0.186727	0.421364
C64	C	1.417580	0.194412	0.578528
H65	H	1.034745	0.122566	-0.000069
H66	H	0.825128	0.258573	-0.000079
N67	N	1.215741	0.042085	-0.000006
N68	N	1.216917	0.087202	0.000000
H69	H	1.137692	0.102656	0.000003
N70	N	1.644140	-0.660950	-0.000102
N71	N	1.642962	-0.706067	-0.000101
H72	H	1.722185	-0.721522	-0.000101
N73	N	1.646758	-0.558797	-0.000128
N74	N	1.687199	-0.534419	-0.095815
H75	H	1.767376	-0.513415	-0.095840
H76	H	1.297738	0.231641	0.411893
N77	N	1.095536	-0.345802	-0.000105
N78	N	1.086648	-0.323138	-0.095774
H79	H	1.007408	-0.307694	-0.095771
H80	H	1.222834	-0.578836	-0.000112
N81	N	1.662403	0.057666	0.000005
N82	N	1.760457	0.038543	0.000002
H83	H	1.840633	0.059545	0.000017
N84	N	1.659830	-0.044457	-0.000051
N85	N	1.759024	-0.018443	-0.000042
H86	H	1.838282	-0.033874	-0.000046
N87	N	1.766993	-0.170920	-0.000058
N88	N	1.865042	-0.190048	-0.000066
H89	H	1.945226	-0.169050	-0.000067
N90	N	1.213148	-0.060082	-0.000015
N91	N	1.172727	-0.084472	0.095652
H92	H	1.092571	-0.105488	0.095655
N93	N	1.092935	-0.447944	-0.000151
N94	N	1.082635	-0.481668	-0.095850
H95	H	1.002469	-0.502675	-0.095890
H96	H	1.038582	0.236702	-0.000070
N97	N	1.764403	-0.273037	-0.000088
N98	N	1.863596	-0.247021	-0.000085
H99	H	1.942855	-0.262451	-0.000086
H100	H	1.220506	-0.670494	-0.000091
N101	N	1.763142	-0.322498	-0.000126
N102	N	1.803583	-0.298117	-0.095808
H103	H	1.883761	-0.277114	-0.095830
H104	H	1.562143	0.149488	0.588001
N105	N	1.760522	-0.424647	-0.000101
N106	N	1.759343	-0.469764	-0.000107
H107	H	1.838565	-0.485219	-0.000103
H108	H	1.341040	0.218194	0.636840
N109	N	0.811344	0.134351	-0.000011
N110	N	0.729141	0.122900	0.095682
H111	H	0.694463	0.087817	0.095720
N112	N	1.096762	-0.296349	-0.000104
N113	N	1.007861	-0.288612	0.095565
H114	H	0.927683	-0.309614	0.095564
H115	H	1.518821	0.162941	0.363050
H116	H	1.122127	-0.198653	-0.000116
