data_functionalizedCrystal
_audit_creation_method	'MofGen! by Chris Wilmer'
_symmetry_space_group_name_H-M	'P1'
_symmetry_Int_Tables_number	1
_symmetry_cell_setting	triclinic
loop_
_symmetry_equiv_pos_as_xyz
  x,y,z
_cell_length_a	19.805407
_cell_length_b	19.120904
_cell_length_c	19.121111
_cell_angle_alpha	85.256407
_cell_angle_beta	87.529630
_cell_angle_gamma	92.421832
loop_
_atom_site_label
_atom_site_type_symbol
_atom_site_fract_x
_atom_site_fract_y
_atom_site_fract_z
Zn1	Zn	1.005647	-0.409798	0.297112
Zn2	Zn	1.005561	-0.297153	0.409759
Zn3	Zn	0.897508	-0.292149	0.292113
Zn4	Zn	0.887380	-0.414772	0.414739
O5	O	0.949024	-0.353468	0.353431
O6	O	1.100351	-0.394869	0.312063
O7	O	0.995430	-0.198029	0.389977
O8	O	0.916128	-0.303580	0.194313
O9	O	1.100288	-0.312109	0.394824
O10	O	0.995577	-0.390016	0.197986
O11	O	0.916044	-0.194353	0.303542
O12	O	0.801449	-0.308403	0.308371
O13	O	0.898866	-0.512572	0.403312
O14	O	0.794008	-0.398493	0.398464
O15	O	0.985756	-0.508919	0.316892
O16	O	0.985609	-0.316931	0.508883
O17	O	0.898782	-0.403345	0.512541
C18	C	0.773169	-0.353445	0.353416
C19	C	0.697937	-0.353452	0.353428
C20	C	0.941191	-0.536989	0.361215
C21	C	0.937853	-0.615195	0.364532
C22	C	0.658736	-0.400292	0.400404
C23	C	0.588047	-0.400302	0.400405
C24	C	0.556560	-0.353468	0.353434
C25	C	0.595766	-0.306626	0.306453
C26	C	0.666454	-0.306620	0.306448
C27	C	0.310691	-0.306650	0.306469
C28	C	0.239999	-0.306658	0.306479
C29	C	0.232284	-0.400332	0.400427
C30	C	0.302972	-0.400326	0.400422
C31	C	0.342172	-0.353487	0.353439
C32	C	0.418821	-0.353477	0.353437
C33	C	0.479913	-0.353474	0.353439
C34	C	0.981521	-0.650035	0.321098
C35	C	0.978377	-0.723517	0.324213
C36	C	0.931566	-0.762158	0.370765
C37	C	0.887893	-0.727313	0.414200
C38	C	0.891035	-0.653832	0.411082
C39	C	0.919814	-0.984119	0.382428
C40	C	0.916677	-1.057605	0.385544
C41	C	1.007160	-1.053804	0.295555
C42	C	1.010301	-0.980322	0.292444
C43	C	0.966625	-0.945483	0.335877
C44	C	0.928352	-0.837269	0.373951
C45	C	0.969836	-0.870373	0.332687
C46	C	1.125565	-0.353492	0.353446
C47	C	1.200796	-0.353502	0.353452
C48	C	0.941104	-0.361236	0.536243
C49	C	0.937777	-0.364583	0.614452
C50	C	0.956868	-0.170659	0.345626
C51	C	0.960345	-0.092445	0.342110
C52	C	0.981453	-0.321201	0.649268
C53	C	0.978327	-0.324353	0.722754
C54	C	0.931523	-0.370883	0.761422
C55	C	0.887846	-0.414269	0.726601
C56	C	0.890975	-0.411121	0.653117
C57	C	0.919815	-0.382642	0.983394
C58	C	0.916688	-0.385786	1.056883
C59	C	1.007171	-0.295870	1.053031
C60	C	1.010293	-0.292723	0.979545
C61	C	0.966618	-0.336111	0.944730
C62	C	0.928326	-0.374104	0.836536
C63	C	0.969819	-0.332893	0.869618
C64	C	0.956986	-0.345694	1.169906
C65	C	0.960363	-0.342404	1.091699
H66	H	0.684367	-0.438428	0.438656
O67	O	0.882826	-0.874699	0.419194
C68	C	0.793447	-0.870726	0.508163
C69	C	0.844962	-0.828248	0.456948
H70	H	0.762830	-0.833189	0.538711
H71	H	0.757941	-0.903733	0.477349
H72	H	0.821472	-0.906712	0.546381
H73	H	0.816995	-0.792223	0.418718
H74	H	0.880466	-0.795287	0.487807
H75	H	1.007930	-0.295011	0.838132
H76	H	0.328604	-0.438461	0.438673
H77	H	0.342600	-0.268505	0.268218
H78	H	1.013892	-0.289027	0.751097
H79	H	1.048405	-0.254834	0.948062
O80	O	1.049573	-0.253805	1.086962
C81	C	1.084842	-0.218786	1.198460
C82	C	1.036786	-0.266472	1.160124
H83	H	1.074511	-0.229000	1.257617
H84	H	1.139507	-0.230586	1.184534
H85	H	1.076052	-0.161426	1.181600
H86	H	1.045514	-0.323848	1.176962
H87	H	0.982137	-0.254613	1.174050
H88	H	0.878582	-0.423689	1.088366
H89	H	0.884253	-0.417970	0.955054
H90	H	0.849740	-0.452158	0.758091
H91	H	0.884259	-0.955763	0.417804
H92	H	0.849776	-0.758781	0.452102
H93	H	1.048420	-0.948865	0.254538
O94	O	0.848481	-0.453291	0.619404
C95	C	0.758441	-0.542845	0.630977
C96	C	0.806511	-0.495109	0.669244
H97	H	0.724505	-0.576678	0.671256
H98	H	0.725868	-0.509076	0.595263
H99	H	0.789402	-0.578157	0.598076
H100	H	0.775603	-0.459790	0.702182
H101	H	0.839085	-0.528920	0.704915
O102	O	0.550068	-0.445820	0.446113
C103	C	0.549876	-0.538744	0.539290
C104	C	0.592967	-0.487223	0.487569
H105	H	0.584542	-0.572242	0.572810
H106	H	0.516585	-0.507971	0.574703
H107	H	0.516593	-0.574197	0.508606
H108	H	0.626290	-0.451758	0.518196
H109	H	0.626214	-0.518040	0.452156
O110	O	0.194103	-0.445814	0.445995
C111	C	0.081787	-0.487318	0.487673
C112	C	0.124942	-0.435789	0.436019
H113	H	0.025862	-0.479220	0.479635
H114	H	0.093757	-0.543565	0.477814
H115	H	0.093800	-0.477282	0.543853
H116	H	0.112954	-0.445761	0.379819
H117	H	0.112965	-0.379558	0.445939
H118	H	1.019563	-0.283308	0.617788
H119	H	0.890217	-0.411988	0.868028
O120	O	0.209520	-0.261139	0.260777
C121	C	0.224627	-0.168201	0.167610
C122	C	0.259231	-0.219722	0.219313
H123	H	0.264803	-0.134692	0.134083
H124	H	0.191768	-0.198976	0.132202
H125	H	0.191684	-0.132760	0.198308
H126	H	0.292209	-0.255176	0.188672
H127	H	0.292050	-0.188904	0.254722
O128	O	0.848646	-0.619875	0.453205
C129	C	0.813411	-0.508356	0.488311
C130	C	0.861449	-0.546722	0.440558
H131	H	0.823755	-0.449207	0.478114
H132	H	0.758741	-0.522217	0.476559
H133	H	0.822206	-0.525252	0.545656
H134	H	0.852715	-0.529847	0.383198
H135	H	0.916103	-0.532861	0.452371
O136	O	0.565291	-0.261105	0.260757
C137	C	0.580409	-0.168158	0.167600
C138	C	0.615007	-0.219687	0.219301
H139	H	0.620589	-0.134648	0.134080
H140	H	0.547551	-0.198926	0.132186
H141	H	0.547466	-0.132718	0.198301
H142	H	0.647984	-0.255139	0.188658
H143	H	0.647825	-0.188876	0.254716
O144	O	0.704637	-0.261185	0.260843
C145	C	0.816956	-0.219632	0.219224
C146	C	0.773797	-0.271133	0.270903
H147	H	0.872880	-0.227647	0.227350
H148	H	0.805034	-0.229673	0.163021
H149	H	0.804898	-0.163406	0.229078
H150	H	0.785830	-0.327378	0.261114
H151	H	0.785725	-0.261031	0.327088
O152	O	1.026925	-0.612530	0.275777
C153	C	1.065960	-0.585020	0.155140
C154	C	1.014492	-0.627518	0.206391
H155	H	1.055935	-0.597133	0.099032
H156	H	1.060709	-0.526504	0.160307
H157	H	1.119377	-0.599998	0.168149
H158	H	0.961053	-0.612600	0.193415
H159	H	1.019802	-0.686023	0.201214
O160	O	1.020700	-0.757383	0.281941
C161	C	1.030377	-0.836333	0.190476
C162	C	0.982371	-0.798014	0.238303
H163	H	0.999407	-0.869204	0.155193
H164	H	1.064360	-0.796117	0.156622
H165	H	1.062912	-0.872087	0.224247
H166	H	0.949792	-0.762261	0.204587
H167	H	0.948434	-0.838268	0.272161
H168	H	1.042718	-1.082178	0.260194
O169	O	0.871141	-1.095035	0.430784
C170	C	0.781750	-1.091057	0.519740
C171	C	0.833270	-1.048582	0.468528
H172	H	0.751128	-1.053518	0.550280
H173	H	0.746250	-1.124068	0.488924
H174	H	0.809770	-1.127040	0.557965
H175	H	0.805306	-1.012560	0.430291
H176	H	0.868769	-1.015617	0.499390
O177	O	1.015395	-0.832919	0.287506
C178	C	1.132973	-0.808963	0.252443
C179	C	1.081449	-0.851447	0.303643
H180	H	1.186390	-0.823917	0.265481
H181	H	1.122994	-0.821013	0.196306
H182	H	1.127677	-0.750464	0.257668
H183	H	1.086716	-0.909958	0.298481
H184	H	1.091442	-0.839338	0.359760
