data_functionalizedCrystal
_audit_creation_method	'MofGen! by Chris Wilmer'
_symmetry_space_group_name_H-M	'P1'
_symmetry_Int_Tables_number	1
_symmetry_cell_setting	triclinic
loop_
_symmetry_equiv_pos_as_xyz
  x,y,z
_cell_length_a	18.215407
_cell_length_b	18.050590
_cell_length_c	18.215399
_cell_angle_alpha	90.028735
_cell_angle_beta	90.017813
_cell_angle_gamma	90.013065
loop_
_atom_site_label
_atom_site_type_symbol
_atom_site_fract_x
_atom_site_fract_y
_atom_site_fract_z
Zn1	Zn	1.125104	-0.295776	0.416072
Zn2	Zn	1.458438	0.037558	0.749405
Zn3	Zn	1.791771	0.370891	1.082739
Zn4	Zn	1.125026	-0.419971	0.293004
Zn5	Zn	1.458360	-0.086637	0.626338
Zn6	Zn	1.791693	0.246696	0.959671
Zn7	Zn	1.002037	-0.295787	0.293024
Zn8	Zn	1.335370	0.037546	0.626357
Zn9	Zn	1.668704	0.370879	0.959691
Zn10	Zn	1.002016	-0.419917	0.416033
Zn11	Zn	1.335350	-0.086583	0.749367
Zn12	Zn	1.668683	0.246750	1.082700
O13	O	1.063546	-0.357863	0.354533
O14	O	1.396879	-0.024529	0.687867
O15	O	1.730213	0.308804	1.021200
O16	O	1.228078	-0.312268	0.399755
O17	O	1.561412	0.021065	0.733088
O18	O	1.894745	0.354398	1.066422
O19	O	1.108687	-0.403525	0.190022
O20	O	1.442021	-0.070192	0.523356
O21	O	1.775354	0.263142	0.856689
O22	O	1.018403	-0.191861	0.309371
O23	O	1.351737	0.141472	0.642704
O24	O	1.685070	0.474806	0.976038
O25	O	1.228021	-0.403514	0.309337
O26	O	1.561354	-0.070181	0.642671
O27	O	1.894688	0.263153	0.976004
O28	O	1.108820	-0.191853	0.399774
O29	O	1.442154	0.141481	0.733107
O30	O	1.775487	0.474814	1.066441
O31	O	1.018328	-0.312288	0.190037
O32	O	1.351661	0.021045	0.523370
O33	O	1.684994	0.354379	0.856704
O34	O	0.899050	-0.312235	0.309333
O35	O	1.232383	0.021098	0.642667
O36	O	1.565717	0.354431	0.976000
O37	O	1.018368	-0.403422	0.519023
O38	O	1.351702	-0.070088	0.852356
O39	O	1.685035	0.263245	1.185690
O40	O	0.899035	-0.403433	0.399708
O41	O	1.232368	-0.070099	0.733041
O42	O	1.565701	0.263234	1.066375
O43	O	1.108800	-0.312216	0.519051
O44	O	1.442134	0.021117	0.852385
O45	O	1.775467	0.354451	1.185718
O46	O	1.108668	-0.523888	0.309300
O47	O	1.442001	-0.190555	0.642633
O48	O	1.775334	0.142778	0.975966
O49	O	1.018293	-0.523848	0.399689
O50	O	1.351626	-0.190515	0.733022
O51	O	1.684959	0.142818	1.066356
C52	C	0.872340	-0.357830	0.354519
C53	C	1.205673	-0.024497	0.687852
C54	C	1.539006	0.308837	1.021186
C55	C	0.790541	-0.357834	0.354530
C56	C	1.123874	-0.024500	0.687864
C57	C	1.457207	0.308833	1.021197
C58	C	0.525507	-0.310443	0.401689
C59	C	0.858841	0.022891	0.735022
C60	C	1.192174	0.356224	1.068355
C61	C	0.602366	-0.310431	0.401686
C62	C	0.935700	0.022903	0.735020
C63	C	1.269033	0.356236	1.068353
C64	C	0.602326	-0.405307	0.307394
C65	C	0.935659	-0.071973	0.640727
C66	C	1.268992	0.261360	0.974061
C67	C	0.525468	-0.405322	0.307401
C68	C	0.858802	-0.071989	0.640734
C69	C	1.192135	0.261345	0.974067
C70	C	0.487061	-0.357886	0.354547
C71	C	0.820395	-0.024552	0.687880
C72	C	1.153728	0.308781	1.021214
C73	C	0.640777	-0.357858	0.354538
C74	C	0.974111	-0.024525	0.687871
C75	C	1.307444	0.308808	1.021205
C76	C	0.724111	-0.357846	0.354535
C77	C	1.057444	-0.024512	0.687868
C78	C	1.390778	0.308821	1.021202
C79	C	0.403722	-0.357899	0.354551
C80	C	0.737056	-0.024566	0.687884
C81	C	1.070389	0.308768	1.021218
C82	C	1.063489	-0.550815	0.354504
C83	C	1.396823	-0.217481	0.687837
C84	C	1.730156	0.115852	1.021171
C85	C	1.063532	-0.633360	0.354516
C86	C	1.396866	-0.300027	0.687849
C87	C	1.730199	0.033306	1.021183
C88	C	1.112781	-0.832806	0.305431
C89	C	1.446114	-0.499472	0.638764
C90	C	1.779447	-0.166139	0.972098
C91	C	1.130758	-0.882140	0.372597
C92	C	1.464091	-0.548806	0.705931
C93	C	1.797424	-0.215473	1.039264
C94	C	1.063574	-0.784491	0.354545
C95	C	1.396908	-0.451157	0.687879
C96	C	1.730241	-0.117824	1.021212
C97	C	1.045672	-0.882239	0.287409
C98	C	1.379006	-0.548905	0.620743
C99	C	1.712339	-0.215572	0.954076
C100	C	1.063616	-0.930476	0.354568
C101	C	1.396949	-0.597143	0.687901
C102	C	1.730283	-0.263809	1.021235
C103	C	1.081586	-0.832738	0.421747
C104	C	1.414919	-0.499404	0.755080
C105	C	1.748252	-0.166071	1.088414
C106	C	0.996469	-0.832832	0.336514
C107	C	1.329802	-0.499499	0.669847
C108	C	1.663136	-0.166165	1.003180
C109	C	1.014421	-0.882144	0.403726
C110	C	1.347754	-0.548810	0.737060
C111	C	1.681087	-0.215477	1.070393
C112	C	1.063552	-0.700393	0.354532
C113	C	1.396885	-0.367059	0.687865
C114	C	1.730219	-0.033726	1.021198
C115	C	1.063638	-1.014572	0.354589
C116	C	1.396971	-0.681239	0.687923
C117	C	1.730305	-0.347906	1.021256
C118	C	1.255499	-0.357896	0.354548
C119	C	1.588832	-0.024563	0.687882
C120	C	1.922166	0.308771	1.021215
C121	C	1.337298	-0.357910	0.354555
C122	C	1.670631	-0.024577	0.687888
C123	C	2.003964	0.308756	1.021221
C124	C	1.063591	-0.357811	0.546486
C125	C	1.396924	-0.024478	0.879820
C126	C	1.730257	0.308855	1.213153
C127	C	1.063610	-0.357790	0.628285
C128	C	1.396943	-0.024456	0.961619
C129	C	1.730277	0.308877	1.294952
C130	C	1.063623	-0.164157	0.354579
C131	C	1.396956	0.169176	0.687912
C132	C	1.730289	0.502510	1.021246
C133	C	1.063656	-0.081611	0.354598
C134	C	1.396989	0.251722	0.687932
C135	C	1.730322	0.585055	1.021265
C136	C	1.063544	-0.357860	0.163327
C137	C	1.396877	-0.024527	0.496660
C138	C	1.730210	0.308807	0.829994
C139	C	1.063667	-0.357673	0.081529
C140	C	1.397000	-0.024339	0.414862
C141	C	1.730334	0.308994	0.748195
C142	C	1.110715	-0.310254	0.816495
C143	C	1.444048	0.023079	1.149829
C144	C	1.777382	0.356412	1.483162
C145	C	1.110724	-0.310233	0.893354
C146	C	1.444057	0.023101	1.226687
C147	C	1.777390	0.356434	1.560021
C148	C	1.016557	-0.405210	0.893313
C149	C	1.349890	-0.071877	1.226647
C150	C	1.683224	0.261457	1.559980
C151	C	1.016545	-0.405227	0.816456
C152	C	1.349878	-0.071894	1.149789
C153	C	1.683212	0.261439	1.483123
C154	C	1.063628	-0.357751	0.778049
C155	C	1.396961	-0.024417	1.111382
C156	C	1.730295	0.308916	1.444716
C157	C	1.063649	-0.357712	0.931765
C158	C	1.396982	-0.024378	1.265098
C159	C	1.730316	0.308955	1.598432
C160	C	1.063658	-0.357689	1.015099
C161	C	1.396991	-0.024355	1.348432
C162	C	1.730325	0.308978	1.681765
C163	C	1.063618	-0.357773	0.694710
C164	C	1.396952	-0.024439	1.028043
C165	C	1.730285	0.308894	1.361377
H166	H	0.494165	-0.443960	0.269011
H167	H	0.827498	-0.110627	0.602345
H168	H	1.160831	0.222707	0.935678
N169	N	0.643753	-0.456456	0.256536
N170	N	0.977087	-0.123123	0.589869
N171	N	1.310420	0.210210	0.923203
H172	H	0.607733	-0.486514	0.226673
H173	H	0.941066	-0.153181	0.560006
H174	H	1.274400	0.180152	0.893340
H175	H	0.675655	-0.490855	0.286428
H176	H	1.008989	-0.157522	0.619761
H177	H	1.342322	0.175811	0.953095
N178	N	1.167912	-0.804104	0.250468
N179	N	1.501245	-0.470771	0.583802
N180	N	1.834578	-0.137437	0.917135
H181	H	1.218605	-0.822039	0.264197
H182	H	1.551938	-0.488706	0.597531
H183	H	1.885272	-0.155373	0.930864
H184	H	1.167112	-0.748158	0.250540
H185	H	1.500445	-0.414825	0.583874
H186	H	1.833778	-0.081492	0.917207
N187	N	1.161499	-0.259052	0.775072
N188	N	1.494832	0.074281	1.108405
N189	N	1.828165	0.407615	1.441738
H190	H	1.154353	-0.266273	0.720548
H191	H	1.487686	0.067060	1.053882
H192	H	1.821020	0.400393	1.387215
H193	H	1.214052	-0.270625	0.788519
H194	H	1.547385	0.062708	1.121852
H195	H	1.880718	0.396041	1.455186
H196	H	1.187525	-0.903800	0.387863
H197	H	1.520858	-0.570467	0.721197
H198	H	1.854192	-0.237134	1.054530
H199	H	1.096688	-0.811087	0.478581
H200	H	1.430022	-0.477753	0.811915
H201	H	1.763355	-0.144420	1.145248
N202	N	1.161516	-0.259003	0.934812
N203	N	1.494849	0.074331	1.268146
N204	N	1.828183	0.407664	1.601479
H205	H	1.195614	-0.289178	0.966700
H206	H	1.528948	0.044156	1.300033
H207	H	1.862281	0.377489	1.633367
H208	H	1.131576	-0.224580	0.966659
H209	H	1.464910	0.108753	1.299993
H210	H	1.798243	0.442087	1.633326
H211	H	0.972826	-0.903671	0.445318
H212	H	1.306160	-0.570337	0.778652
H213	H	1.639493	-0.237004	1.111985
N214	N	0.921296	-0.804115	0.316272
N215	N	1.254629	-0.470781	0.649605
N216	N	1.587962	-0.137448	0.982939
H217	H	0.907800	-0.822090	0.265513
H218	H	1.241133	-0.488756	0.598847
H219	H	1.574466	-0.155423	0.932180
H220	H	0.921778	-0.748169	0.316932
H221	H	1.255112	-0.414835	0.650265
H222	H	1.588445	-0.081502	0.983599
N223	N	1.025577	-0.911042	0.212197
N224	N	1.358911	-0.577709	0.545531
N225	N	1.692244	-0.244375	0.878864
H226	H	1.066947	-0.942613	0.192609
H227	H	1.400280	-0.609280	0.525942
H228	H	1.733613	-0.275946	0.859275
H229	H	1.016894	-0.867919	0.177974
H230	H	1.350228	-0.534585	0.511307
H231	H	1.683561	-0.201252	0.844641
N232	N	0.965766	-0.456404	0.934738
N233	N	1.299099	-0.123070	1.268071
N234	N	1.632432	0.210263	1.601405
H235	H	0.972914	-0.449184	0.989261
H236	H	1.306248	-0.115851	1.322594
H237	H	1.639581	0.217483	1.655928
H238	H	0.977186	-0.509452	0.921297
H239	H	1.310519	-0.176119	1.254630
H240	H	1.643853	0.157215	1.587963
N241	N	0.643834	-0.259263	0.452535
N242	N	0.977167	0.074070	0.785868
N243	N	1.310501	0.407404	1.119202
H244	H	0.607838	-0.229218	0.482401
H245	H	0.941172	0.104116	0.815735
H246	H	1.274505	0.437449	1.149068
H247	H	0.675715	-0.224853	0.422636
H248	H	1.009048	0.108481	0.755969
H249	H	1.342382	0.441814	1.089303
N250	N	0.965741	-0.456443	0.774982
N251	N	1.299075	-0.123109	1.108315
N252	N	1.632408	0.210224	1.441649
H253	H	0.935916	-0.486516	0.810974
H254	H	1.269249	-0.153183	1.144307
H255	H	1.602583	0.180151	1.477640
H256	H	0.995668	-0.490825	0.743080
H257	H	1.329002	-0.157492	1.076413
H258	H	1.662335	0.175841	1.409747
H259	H	0.494239	-0.271817	0.440078
H260	H	0.827572	0.061517	0.773412
H261	H	1.160905	0.394850	1.106745
