data_functionalizedCrystal
_audit_creation_method	'MofGen! by Chris Wilmer'
_symmetry_space_group_name_H-M	'P1'
_symmetry_Int_Tables_number	1
_symmetry_cell_setting	triclinic
loop_
_symmetry_equiv_pos_as_xyz
  x,y,z
_cell_length_a	18.426585
_cell_length_b	15.698487
_cell_length_c	15.698487
_cell_angle_alpha	90.001173
_cell_angle_beta	60.003252
_cell_angle_gamma	59.998493
loop_
_atom_site_label
_atom_site_type_symbol
_atom_site_fract_x
_atom_site_fract_y
_atom_site_fract_z
Zr1	Zr	0.794331	0.820625	-0.111738
O2	O	0.945730	0.684606	-0.247748
O3	O	0.642931	0.862323	-0.070048
O4	O	0.794327	0.862321	-0.247752
O5	O	0.794337	0.684608	0.070137
O6	O	0.794324	1.002506	-0.247750
O7	O	0.794335	0.684607	-0.070044
O8	O	0.523505	1.002509	0.070130
O9	O	1.065157	0.684605	-0.247743
O10	O	0.705202	0.984724	-0.052260
O11	O	0.705206	0.880106	0.052353
O12	O	0.883455	0.880104	-0.156870
O13	O	0.883460	0.775487	-0.052256
Zr14	Zr	0.794331	1.044204	0.111839
Zr15	Zr	0.794326	1.044203	-0.111734
Zr16	Zr	0.794335	0.820626	0.111835
Zr17	Zr	0.984802	0.820624	-0.111730
Zr18	Zr	0.603859	1.044205	0.111830
O19	O	0.945730	1.002506	0.070149
O20	O	0.945724	1.002505	-0.247743
O21	O	0.945737	0.684607	0.070143
O22	O	0.642931	1.180223	0.247849
O23	O	0.642925	1.180222	-0.070043
O24	O	0.642938	0.862324	0.247844
O25	O	0.794324	1.180221	-0.070036
O26	O	0.794335	1.002508	0.247853
O27	O	0.794337	0.862323	0.247850
O28	O	0.794327	1.180222	0.070145
O29	O	1.065153	0.862320	-0.247740
O30	O	0.523509	1.002509	0.247841
O31	O	0.523505	1.180224	0.247844
O32	O	0.523501	1.180223	0.070133
O33	O	1.065160	0.684606	-0.070032
O34	O	1.065157	0.862320	-0.070030
O35	O	0.705206	0.984725	0.156971
O36	O	0.705202	1.089342	0.052357
O37	O	0.883455	0.984723	-0.052253
O38	O	0.883460	0.880105	0.052361
C39	C	0.556080	0.932416	0.000040
C40	C	0.475220	0.932416	0.000036
C41	C	0.794337	0.932415	0.279706
C42	C	0.794339	0.932416	0.374618
C43	C	0.794325	1.212076	0.000055
C44	C	0.794323	1.306991	0.000057
C45	C	0.179110	0.932411	0.000067
C46	C	0.261497	0.932409	0.000061
C47	C	0.327163	0.932413	0.000051
C48	C	0.409554	0.932413	0.000046
C49	C	1.032582	0.932413	0.000061
C50	C	1.113442	0.932413	0.000064
C51	C	0.794337	0.652752	0.000046
C52	C	0.794339	0.557838	0.000044
C53	C	0.794341	1.480756	0.000041
C54	C	0.794335	1.384058	0.000047
C55	C	0.794325	0.932413	-0.279605
C56	C	0.794323	0.932413	-0.374517
C57	C	0.794321	0.932416	0.548404
C58	C	0.794326	0.932418	0.451700
C59	C	0.556074	1.212078	0.000045
C60	C	0.475212	1.306993	0.000043
C61	C	0.556086	0.932417	0.279695
C62	C	0.475228	0.932418	0.374604
C63	C	0.556080	1.212079	0.279700
C64	C	0.475220	1.306995	0.374610
C65	C	1.032582	0.652750	-0.279599
C66	C	1.113442	0.557834	-0.374510
C67	C	1.032587	0.652751	0.000056
C68	C	1.113449	0.557836	0.000058
C69	C	1.032576	0.932412	-0.279595
C70	C	1.113434	0.932411	-0.374503
C71	C	0.437239	1.296957	-0.054577
C72	C	0.361271	1.386131	-0.054600
C73	C	0.323273	1.485341	0.000004
C74	C	0.361254	1.495375	0.054625
C75	C	0.437226	1.406202	0.054641
C76	C	0.437256	0.987028	0.473793
C77	C	0.361292	0.987025	0.562979
C78	C	0.323295	0.932417	0.552973
C79	C	0.361275	0.877800	0.453774
C80	C	0.437243	0.877798	0.364591
C81	C	0.437245	1.406187	0.364574
C82	C	0.361279	1.495378	0.453744
C83	C	0.323284	1.485376	0.552949
C84	C	0.361266	1.386173	0.562984
C85	C	0.437236	1.296984	0.473815
C86	C	1.151426	0.458642	-0.364473
C87	C	1.227416	0.369450	-0.453643
C88	C	1.265415	0.379453	-0.552849
C89	C	1.227427	0.478655	-0.562883
C90	C	1.151444	0.567845	-0.473714
C91	C	1.151431	0.567872	0.054668
C92	C	1.227420	0.478698	0.054666
C93	C	1.265421	0.379488	0.000060
C94	C	1.227436	0.369453	-0.054557
C95	C	1.151454	0.458627	-0.054561
C96	C	1.151406	0.987030	-0.364465
C97	C	1.227371	0.987049	-0.453633
C98	C	1.265367	0.932444	-0.552839
C99	C	1.227388	0.877823	-0.562876
C100	C	1.151419	0.877811	-0.473709
H101	H	0.468176	1.216183	-0.099054
H102	H	0.468184	1.031496	0.481960
H103	H	1.327226	0.932462	-0.625437
H104	H	1.120491	0.450478	-0.283703
Cl105	Cl	0.484961	1.172288	0.486450
Cl106	Cl	0.484948	1.418838	0.123321
H107	H	0.330361	1.576145	0.445555
Cl108	Cl	1.360936	0.267317	-0.664938
H109	H	0.330356	1.377940	-0.099078
H110	H	1.258376	0.486787	-0.643667
Cl111	Cl	0.227762	1.597436	-0.000024
H112	H	1.258332	0.288684	-0.445453
Cl113	Cl	1.275215	0.244724	-0.123196
Cl114	Cl	0.313469	1.620105	0.123270
Cl115	Cl	1.103654	1.055687	-0.239759
Cl116	Cl	0.313495	0.809157	0.441213
H117	H	0.330378	1.031504	0.643742
Cl118	Cl	0.484964	0.809144	0.239899
Cl119	Cl	1.103708	0.445991	-0.123213
Cl120	Cl	0.485001	1.418789	0.239869
Cl121	Cl	1.275176	0.809170	-0.687601
Cl122	Cl	0.227790	0.932432	0.665101
H123	H	1.120511	0.833329	-0.481897
Cl124	Cl	0.313489	1.373616	0.687707
Cl125	Cl	1.103694	0.692540	-0.486350
H126	H	1.327291	0.306886	0.000071
Cl127	Cl	1.103680	0.692583	0.123320
H128	H	1.258286	1.031526	-0.445440
H129	H	0.261424	1.558008	0.625548
H130	H	1.258334	0.486889	0.099146
