data_functionalizedCrystal
_audit_creation_method	'MofGen! by Chris Wilmer'
_symmetry_space_group_name_H-M	'P1'
_symmetry_Int_Tables_number	1
_symmetry_cell_setting	triclinic
loop_
_symmetry_equiv_pos_as_xyz
  x,y,z
_cell_length_a	10.540539
_cell_length_b	10.489741
_cell_length_c	9.016244
_cell_angle_alpha	89.998079
_cell_angle_beta	89.994699
_cell_angle_gamma	84.532333
loop_
_atom_site_label
_atom_site_type_symbol
_atom_site_fract_x
_atom_site_fract_y
_atom_site_fract_z
O1	O	1.685915	0.179759	-0.123270
O2	O	1.316504	0.196697	-0.123288
O3	O	1.509615	0.002629	-0.123269
O4	O	1.492803	0.373827	-0.123288
O5	O	1.509586	0.002634	0.123411
O6	O	1.316475	0.196701	0.123393
O7	O	1.685886	0.179764	0.123411
Cu8	Cu	1.501178	0.188233	0.145926
Cu9	Cu	1.501212	0.188228	-0.145803
O10	O	1.492775	0.373831	0.123393
C11	C	1.269186	0.195429	0.000050
C12	C	1.128238	0.191629	0.000044
C13	C	0.944793	0.046011	0.000627
C14	C	1.091412	0.049864	0.000055
C15	C	1.066589	0.259849	-0.140821
C16	C	0.920044	0.255011	-0.140924
C17	C	0.919524	0.257900	0.139598
C18	C	1.066506	0.259206	0.141445
C19	C	1.508331	-0.044900	0.000070
C20	C	1.504532	-0.186529	0.000067
C21	C	1.381661	-0.254654	0.000050
C22	C	1.439690	-0.346782	0.121680
C23	C	1.439747	-0.346761	-0.121528
C24	C	1.562612	-0.276791	0.121797
C25	C	1.562652	-0.276760	-0.121520
C26	C	1.620770	-0.368860	0.000139
C27	C	1.733203	0.181032	0.000070
C28	C	1.874152	0.184832	0.000067
C29	C	1.494059	0.421361	0.000050
C30	C	1.497858	0.562990	0.000043
N31	N	1.501164	0.188236	0.351112
N32	N	1.501236	0.188215	-0.350989
C33	C	1.397545	0.291701	0.586135
C34	C	1.397774	0.292088	0.414244
C35	C	1.633890	0.218515	0.413455
C36	C	1.633325	0.219248	0.585400
C37	C	1.473374	0.054153	0.585661
C38	C	1.470329	0.055022	0.413706
H39	H	0.872088	0.356966	-0.147322
H40	H	1.415223	0.390600	0.629324
C41	C	0.855745	0.396225	0.140893
H42	H	0.883540	0.439896	0.225451
H43	H	0.765809	0.394923	0.144520
H44	H	0.878558	0.439199	0.053500
C45	C	1.757358	-0.435659	0.000235
H46	H	1.800782	-0.411709	0.086714
H47	H	1.801344	-0.410626	-0.085342
H48	H	1.754207	-0.525864	-0.000575
H49	H	1.280637	-0.204991	0.000168
C50	C	1.148962	-0.022651	0.136464
H51	H	1.082739	-0.054741	0.192724
H52	H	1.192361	0.033961	0.196048
H53	H	1.207276	-0.091934	0.104768
C54	C	1.421977	0.426448	0.358642
H55	H	1.431719	0.481003	0.441141
H56	H	1.351790	0.460462	0.300165
H57	H	1.497379	0.420772	0.300334
C58	C	1.263894	0.267473	0.642028
H59	H	1.202695	0.330944	0.602817
H60	H	1.262219	0.271319	0.747280
H61	H	1.244303	0.185203	0.610439
C62	C	1.369452	-0.388678	0.260583
H63	H	1.425513	-0.445376	0.317850
H64	H	1.297729	-0.431023	0.231345
H65	H	1.341795	-0.315469	0.318261
C66	C	1.632795	-0.234739	-0.260422
H67	H	1.705405	-0.193768	-0.231208
H68	H	1.577154	-0.176794	-0.316633
H69	H	1.659099	-0.307716	-0.319118
C70	C	1.667543	0.349153	0.355273
H71	H	1.600890	0.385410	0.293006
H72	H	1.744690	0.337839	0.300319
H73	H	1.677783	0.404819	0.436612
H74	H	1.540846	-0.025687	0.370738
H75	H	1.299155	0.273869	0.372096
H76	H	1.614544	-0.245963	0.224740
C77	C	1.740686	0.119486	0.358210
H78	H	1.820097	0.139595	0.397222
H79	H	1.743726	0.121318	0.252940
H80	H	1.724125	0.036444	0.390412
C81	C	1.369511	-0.388600	-0.260443
H82	H	1.284571	-0.349103	-0.260286
H83	H	1.368269	-0.479030	-0.259937
H84	H	1.412352	-0.363449	-0.346809
H85	H	0.916190	-0.009992	0.101649
C86	C	1.338424	0.024012	0.358673
H87	H	1.302290	0.091954	0.297795
H88	H	1.284347	0.014119	0.441338
H89	H	1.347267	-0.053161	0.302903
H90	H	1.090743	0.362562	0.149945
C91	C	1.666224	0.351378	0.639561
H92	H	1.679802	0.404105	0.556478
H93	H	1.741372	0.341316	0.698213
H94	H	1.597770	0.390245	0.697382
C95	C	1.740767	0.121384	0.641594
H96	H	1.784575	0.081364	0.559332
H97	H	1.705296	0.058380	0.700154
H98	H	1.798732	0.164046	0.699940
H99	H	1.378633	0.025335	0.629105
C100	C	0.876900	0.195927	0.283847
H101	H	0.905241	0.241462	0.366691
H102	H	0.912588	0.109369	0.288177
H103	H	0.786561	0.198732	0.285668
C104	C	0.903992	-0.029339	-0.135066
H105	H	0.844097	0.023437	-0.192062
H106	H	0.866107	-0.103103	-0.102665
H107	H	0.976605	-0.054815	-0.194205
C108	C	1.147821	-0.023152	-0.136593
H109	H	1.081113	-0.055275	-0.191980
H110	H	1.206267	-0.092419	-0.105186
H111	H	1.190867	0.033210	-0.196940
H112	H	0.891840	0.204586	-0.246216
H113	H	1.107450	0.209368	0.245656
H114	H	1.088955	0.363958	-0.146067
H115	H	1.109184	0.212455	-0.245651
H116	H	1.548976	-0.022872	0.626320
