data_functionalizedCrystal
_audit_creation_method	'MofGen! by Chris Wilmer'
_symmetry_space_group_name_H-M	'P1'
_symmetry_Int_Tables_number	1
_symmetry_cell_setting	triclinic
loop_
_symmetry_equiv_pos_as_xyz
  x,y,z
_cell_length_a	17.699083
_cell_length_b	10.654550
_cell_length_c	16.176319
_cell_angle_alpha	89.994395
_cell_angle_beta	89.998611
_cell_angle_gamma	83.883959
loop_
_atom_site_label
_atom_site_type_symbol
_atom_site_fract_x
_atom_site_fract_y
_atom_site_fract_z
O1	O	1.005088	0.158809	-0.068628
O2	O	1.505088	0.658809	0.431372
O3	O	0.784841	0.179470	-0.068655
O4	O	1.284841	0.679470	0.431345
O5	O	0.900029	-0.013688	-0.068638
O6	O	1.400029	0.486312	0.431362
O7	O	0.889901	0.351967	-0.068646
O8	O	1.389901	0.851967	0.431354
O9	O	0.900013	-0.013701	0.068855
O10	O	1.400013	0.486299	0.568855
O11	O	0.784825	0.179458	0.068838
O12	O	1.284825	0.679458	0.568838
O13	O	1.005072	0.158797	0.068865
O14	O	1.505072	0.658797	0.568865
Cu15	Cu	0.894947	0.169126	0.081406
Cu16	Cu	1.394947	0.669126	0.581406
Cu17	Cu	0.894966	0.169141	-0.081196
Cu18	Cu	1.394966	0.669141	0.418804
O19	O	0.889885	0.351955	0.068848
O20	O	1.389885	0.851955	0.568848
C21	C	0.756632	0.178724	0.000088
C22	C	1.256632	0.678724	0.500088
C23	C	0.672599	0.176503	0.000078
C24	C	1.172599	0.676503	0.500078
C25	C	0.624699	0.289883	0.000076
C26	C	1.124699	0.789883	0.500076
C27	C	0.545743	0.287788	0.000086
C28	C	1.045743	0.787788	0.500086
C29	C	0.514688	0.172313	0.000093
C30	C	1.014688	0.672313	0.500093
C31	C	0.562594	0.058924	0.000098
C32	C	1.062594	0.558924	0.500098
C33	C	0.641549	0.061020	0.000093
C34	C	1.141549	0.561020	0.500093
C35	C	0.244177	0.050470	0.000118
C36	C	0.744177	0.550470	0.500118
C37	C	0.165216	0.048383	0.000121
C38	C	0.665216	0.548383	0.500121
C39	C	0.148371	0.277239	0.000112
C40	C	0.648371	0.777239	0.500112
C41	C	0.227326	0.279334	0.000107
C42	C	0.727326	0.779334	0.500107
C43	C	0.275225	0.165946	0.000116
C44	C	0.775225	0.665946	0.500116
C45	C	0.360839	0.168219	0.000106
C46	C	0.860839	0.668219	0.500106
C47	C	0.429076	0.170039	0.000097
C48	C	0.929076	0.670039	0.500097
C49	C	0.899277	-0.060479	0.000107
C50	C	1.399277	0.439521	0.500107
C51	C	0.897052	-0.199884	0.000104
C52	C	1.397052	0.300116	0.500104
C53	C	0.964873	-0.280557	0.000115
C54	C	1.464873	0.219443	0.500115
C55	C	0.962778	-0.411541	0.000109
C56	C	1.462778	0.088459	0.500109
C57	C	0.825036	-0.381166	0.000085
C58	C	1.325036	0.118834	0.500085
C59	C	0.827132	-0.250185	0.000085
C60	C	1.327132	0.249815	0.500085
C61	C	1.034794	-0.230256	0.000134
C62	C	1.534794	0.269744	0.500134
C63	C	1.102620	-0.310930	0.000146
C64	C	1.602620	0.189070	0.500146
C65	C	1.100525	-0.441914	0.000140
C66	C	1.600525	0.058086	0.500140
C67	C	1.030603	-0.492224	0.000122
C68	C	1.530603	0.007776	0.500122
C69	C	1.033282	0.159543	0.000120
C70	C	1.533282	0.659543	0.500120
C71	C	1.117314	0.161764	0.000125
C72	C	1.617314	0.661764	0.500125
C73	C	0.890637	0.398746	0.000100
C74	C	1.390637	0.898746	0.500100
C75	C	0.892861	0.538151	0.000098
C76	C	1.392861	1.038151	0.500098
N77	N	0.894940	0.169115	0.195771
N78	N	1.394940	0.669115	0.695771
N79	N	0.894980	0.169142	-0.195561
N80	N	1.394980	0.669142	0.304439
C81	C	0.945960	0.083619	0.239042
C82	C	1.445960	0.583619	0.739042
C83	C	0.945964	0.083618	0.325590
C84	C	1.445964	0.583618	0.825590
C85	C	0.894950	0.169120	0.368863
C86	C	1.394950	0.669120	0.868863
C87	C	0.843924	0.254619	0.325586
C88	C	1.343924	0.754619	0.825586
C89	C	0.843917	0.254614	0.239040
C90	C	1.343917	0.754614	0.739040
C91	C	0.843950	0.254643	0.674614
C92	C	1.343950	0.754643	1.174614
C93	C	0.843962	0.254644	0.761165
C94	C	1.343962	0.754644	1.261165
C95	C	0.945997	0.083647	0.761163
C96	C	1.445997	0.583647	1.261163
C97	C	0.945990	0.083642	0.674618
C98	C	1.445990	0.583642	1.174618
C99	C	0.894962	0.169136	0.631348
C100	C	1.394962	0.669136	1.131348
C101	C	0.894957	0.169135	0.537503
C102	C	1.394957	0.669135	1.037503
C103	C	0.894958	0.169128	0.462706
C104	C	1.394958	0.669128	0.962706
H105	H	0.252606	0.373366	0.000098
H106	H	0.752606	0.873366	0.500098
H107	H	0.109361	0.369564	0.000109
H108	H	0.609361	0.869564	0.500109
H109	H	0.506745	0.380114	0.000084
H110	H	1.006745	0.880114	0.500084
H111	H	0.802370	0.324231	0.203809
H112	H	1.302370	0.824231	0.703809
O113	O	1.000970	-0.008631	0.192376
O114	O	1.500970	0.491369	0.692376
H115	H	0.992394	0.005723	0.124925
H116	H	1.492394	0.505723	0.624925
O117	O	1.178033	-0.256679	0.000162
O118	O	1.678033	0.243321	0.500162
H119	H	1.168098	-0.152045	0.000172
H120	H	1.668098	0.347955	0.500172
O121	O	0.295836	-0.071821	0.000128
O122	O	0.795836	0.428179	0.500128
H123	H	0.260974	-0.152466	0.000126
H124	H	0.760974	0.347534	0.500126
H125	H	0.768109	-0.422140	0.000072
H126	H	1.268109	0.077860	0.500072
H127	H	0.987508	0.014000	0.360821
H128	H	1.487508	0.514000	0.860821
H129	H	0.987533	0.014023	0.639387
H130	H	1.487533	0.514023	1.139387
H131	H	0.649978	0.383916	0.000069
H132	H	1.149978	0.883916	0.500069
O133	O	1.001031	-0.008583	0.807832
O134	O	1.501031	0.491417	1.307832
H135	H	0.992463	0.005769	0.875282
H136	H	1.492463	0.505769	1.375282
H137	H	0.771906	-0.184498	0.000077
H138	H	1.271906	0.315502	0.500077
O139	O	0.788950	0.346886	0.807845
O140	O	1.288950	0.846886	1.307845
H141	H	0.753465	0.406337	0.763217
H142	H	1.253465	0.906337	1.263217
O143	O	0.788905	0.346852	0.372253
O144	O	1.288905	0.846852	0.872253
H145	H	0.751852	0.294078	0.411703
H146	H	1.251852	0.794078	0.911703
O147	O	0.788922	0.346861	0.627948
O148	O	1.288922	0.846861	1.127948
H149	H	0.753459	0.406325	0.672581
H150	H	1.253459	0.906325	1.172581
H151	H	0.680549	-0.031306	0.000094
H152	H	1.180549	0.468694	0.500094
O153	O	1.173674	-0.528933	0.000156
O154	O	1.673674	-0.028933	0.500156
H155	H	1.222643	-0.471945	0.000177
H156	H	1.722643	0.028055	0.500177
H157	H	0.139935	-0.045657	0.000127
H158	H	0.639935	0.454343	0.500127
O159	O	1.037050	-0.088980	0.000144
O160	O	1.537050	0.411020	0.500144
H161	H	1.067338	-0.060979	-0.055890
H162	H	1.567338	0.439021	0.444110
O163	O	1.028344	-0.633501	0.000112
O164	O	1.528344	-0.133501	0.500112
H165	H	0.998049	-0.661489	0.056145
H166	H	1.498049	-0.161489	0.556145
O167	O	0.529105	-0.065630	0.000108
O168	O	1.029105	0.434370	0.500108
H169	H	0.466155	-0.048042	0.000103
H170	H	0.966155	0.451958	0.500103
