data_functionalizedCrystal
_audit_creation_method	'MofGen! by Chris Wilmer'
_symmetry_space_group_name_H-M	'P1'
_symmetry_Int_Tables_number	1
_symmetry_cell_setting	triclinic
loop_
_symmetry_equiv_pos_as_xyz
  x,y,z
_cell_length_a	17.077404
_cell_length_b	16.625545
_cell_length_c	17.077396
_cell_angle_alpha	90.026422
_cell_angle_beta	90.017244
_cell_angle_gamma	90.027175
loop_
_atom_site_label
_atom_site_type_symbol
_atom_site_fract_x
_atom_site_fract_y
_atom_site_fract_z
Zn1	Zn	-1.200015	0.320990	-0.443858
Zn2	Zn	-0.700015	0.820990	0.056142
Zn3	Zn	-1.199918	0.455835	-0.312599
Zn4	Zn	-0.699918	0.955835	0.187401
Zn5	Zn	-1.068752	0.321020	-0.312606
Zn6	Zn	-0.568752	0.821020	0.187394
Zn7	Zn	-1.068705	0.455785	-0.443823
Zn8	Zn	-0.568705	0.955785	0.056177
O9	O	-1.134348	0.388408	-0.378222
O10	O	-0.634348	0.888408	0.121778
O11	O	-1.309849	0.338886	-0.426459
O12	O	-0.809849	0.838886	0.073541
O13	O	-1.182497	0.437985	-0.202753
O14	O	-0.682497	0.937985	0.297247
O15	O	-1.086224	0.208184	-0.330035
O16	O	-0.586224	0.708184	0.169965
O17	O	-1.309778	0.437956	-0.330023
O18	O	-0.809778	0.937956	0.169977
O19	O	-1.182663	0.208162	-0.426466
O20	O	-0.682663	0.708162	0.073534
O21	O	-1.086130	0.338937	-0.202758
O22	O	-0.586130	0.838937	0.297242
O23	O	-0.958899	0.338889	-0.330001
O24	O	-0.458899	0.838889	0.169999
O25	O	-1.086145	0.437871	-0.553674
O26	O	-0.586145	0.937871	-0.053674
O27	O	-0.958865	0.437900	-0.426405
O28	O	-0.458865	0.937900	0.073595
O29	O	-1.182618	0.338837	-0.553701
O30	O	-0.682618	0.838837	-0.053701
O31	O	-1.182452	0.568661	-0.329988
O32	O	-0.682452	1.068661	0.170012
O33	O	-1.086051	0.568624	-0.426398
O34	O	-0.586051	1.068624	0.073602
C35	C	-0.930400	0.388393	-0.378200
C36	C	-0.430400	0.888393	0.121800
C37	C	-0.843150	0.388406	-0.378209
C38	C	-0.343150	0.888406	0.121791
C39	C	-1.134257	0.597898	-0.378205
C40	C	-0.634257	1.097898	0.121795
C41	C	-1.134291	0.687520	-0.378225
C42	C	-0.634291	1.187520	0.121775
C43	C	-1.134387	0.388345	-0.582966
C44	C	-0.634387	0.888345	-0.082966
C45	C	-1.134404	0.388319	-0.670216
C46	C	-0.634404	0.888319	-0.170216
C47	C	-1.339092	0.388423	-0.378244
C48	C	-0.839092	0.888423	0.121756
C49	C	-1.426342	0.388429	-0.378253
C50	C	-0.926342	0.888429	0.121747
C51	C	-0.802163	0.440039	-0.428326
C52	C	-0.302163	0.940039	0.071674
C53	C	-0.720182	0.440041	-0.428339
C54	C	-0.220182	0.940041	0.071661
C55	C	-0.679191	0.388413	-0.378230
C56	C	-0.179191	0.888413	0.121770
C57	C	-0.720184	0.336775	-0.328111
C58	C	-0.220184	0.836775	0.171889
C59	C	-0.802163	0.336769	-0.328103
C60	C	-0.302163	0.836769	0.171897
C61	C	-0.549314	0.336791	-0.328130
C62	C	-0.049314	0.836791	0.171870
C63	C	-0.467329	0.336797	-0.328136
C64	C	0.032671	0.836797	0.171864
C65	C	-0.467333	0.440062	-0.428366
C66	C	0.032667	0.940062	0.071634
C67	C	-0.549312	0.440057	-0.428358
C68	C	-0.049312	0.940057	0.071642
C69	C	-0.590300	0.388419	-0.378237
C70	C	-0.090300	0.888419	0.121763
C71	C	-1.134319	0.760302	-0.378243
C72	C	-0.634319	1.260302	0.121757
C73	C	-1.134363	0.851610	-0.378264
C74	C	-0.634363	1.351610	0.121736
C75	C	-1.134402	0.924387	-0.378277
C76	C	-0.634402	1.424387	0.121723
C77	C	-1.134445	1.015701	-0.378297
C78	C	-0.634445	1.515701	0.121703
C79	C	-1.134454	1.178099	-0.378265
C80	C	-0.634454	1.678099	0.121735
C81	C	-1.134484	1.088478	-0.378309
C82	C	-0.634484	1.588478	0.121691
C83	C	-1.084241	0.336738	-0.711208
C84	C	-0.584241	0.836738	-0.211208
C85	C	-1.084254	0.336720	-0.793189
C86	C	-0.584254	0.836720	-0.293189
C87	C	-1.134434	0.388278	-0.834175
C88	C	-0.634434	0.888278	-0.334175
C89	C	-1.184599	0.439864	-0.793177
C90	C	-0.684599	0.939864	-0.293177
C91	C	-1.184582	0.439886	-0.711198
C92	C	-0.684582	0.939886	-0.211198
C93	C	-1.184633	0.439814	-0.964047
C94	C	-0.684633	0.939814	-0.464047
C95	C	-1.184652	0.439791	-1.046032
C96	C	-0.684652	0.939791	-0.546032
C97	C	-1.084305	0.336648	-1.046038
C98	C	-0.584305	0.836648	-0.546038
C99	C	-1.084288	0.336670	-0.964059
C100	C	-0.584288	0.836670	-0.464059
C101	C	-1.134454	0.388255	-0.923066
C102	C	-0.634454	0.888255	-0.423066
C103	C	-1.134353	0.388412	-0.174274
C104	C	-0.634353	0.888412	0.325726
C105	C	-1.134489	0.388211	-0.087024
C106	C	-0.634489	0.888211	0.412976
H107	H	-0.835532	0.482083	-0.469129
H108	H	-0.335532	0.982083	0.030871
Cl109	Cl	-1.021208	0.271847	-0.912534
Cl110	Cl	-0.521208	0.771847	-0.412534
Cl111	Cl	-1.021240	0.271796	-1.097571
Cl112	Cl	-0.521240	0.771796	-0.597571
Cl113	Cl	-1.247698	0.504668	-0.912515
Cl114	Cl	-0.747698	1.004668	-0.412515
H115	H	-0.433956	0.294747	-0.287342
H116	H	0.066044	0.794747	0.212658
Cl117	Cl	-1.021152	0.271911	-0.844719
Cl118	Cl	-0.521152	0.771911	-0.344719
Cl119	Cl	-1.021157	0.271914	-0.659690
Cl120	Cl	-0.521157	0.771914	-0.159690
H121	H	-0.686814	0.482086	-0.469149
H122	H	-0.186814	0.982086	0.030851
H123	H	-1.225513	0.481775	-1.079401
H124	H	-0.725513	0.981775	-0.579401
Cl125	Cl	-1.247643	0.504736	-0.659665
Cl126	Cl	-0.747643	1.004736	-0.159665
Cl127	Cl	-0.600843	0.504966	-0.491348
Cl128	Cl	-0.100843	1.004966	0.008652
Cl129	Cl	-0.415807	0.504966	-0.491386
Cl130	Cl	0.084193	1.004966	0.008614
Cl131	Cl	-0.600839	0.271873	-0.265120
Cl132	Cl	-0.100839	0.771873	0.234880
Cl133	Cl	-0.668651	0.271866	-0.265121
Cl134	Cl	-0.168651	0.771866	0.234879
H135	H	-0.835534	0.294720	-0.287296
H136	H	-0.335534	0.794720	0.212704
Cl137	Cl	-1.247679	0.504686	-0.844704
Cl138	Cl	-0.747679	1.004686	-0.344704
