data_functionalizedCrystal
_audit_creation_method	'MofGen! by Chris Wilmer'
_symmetry_space_group_name_H-M	'P1'
_symmetry_Int_Tables_number	1
_symmetry_cell_setting	triclinic
loop_
_symmetry_equiv_pos_as_xyz
  x,y,z
_cell_length_a	21.395362
_cell_length_b	18.050589
_cell_length_c	21.395356
_cell_angle_alpha	89.977927
_cell_angle_beta	89.957023
_cell_angle_gamma	90.044101
loop_
_atom_site_label
_atom_site_type_symbol
_atom_site_fract_x
_atom_site_fract_y
_atom_site_fract_z
Zn1	Zn	0.957864	-0.295363	-0.354610
Zn2	Zn	0.957773	-0.419555	-0.249843
Zn3	Zn	0.853081	-0.295418	-0.249811
Zn4	Zn	0.853053	-0.419551	-0.354548
O5	O	0.905443	-0.357472	-0.302203
O6	O	1.045530	-0.311817	-0.340752
O7	O	0.943859	-0.403113	-0.162161
O8	O	0.867031	-0.191486	-0.263726
O9	O	1.045463	-0.403060	-0.263780
O10	O	0.944015	-0.191446	-0.340721
O11	O	0.866942	-0.311910	-0.162138
O12	O	0.765399	-0.311905	-0.263665
O13	O	0.866983	-0.403052	-0.442234
O14	O	0.765379	-0.403105	-0.340615
O15	O	0.943987	-0.311812	-0.442280
O16	O	0.943832	-0.523479	-0.263719
O17	O	0.866895	-0.523476	-0.340645
C18	C	0.742655	-0.357511	-0.302130
C19	C	0.673014	-0.357546	-0.302114
C20	C	0.640307	-0.405096	-0.342121
C21	C	0.574871	-0.405078	-0.342149
C22	C	0.542146	-0.357517	-0.302159
C23	C	0.574861	-0.309957	-0.262148
C24	C	0.640295	-0.309972	-0.262126
C25	C	0.438422	-0.351545	-0.245753
C26	C	0.372989	-0.351536	-0.245774
C27	C	0.340325	-0.357469	-0.302228
C28	C	0.373102	-0.363426	-0.358662
C29	C	0.438536	-0.363440	-0.358640
C30	C	0.471193	-0.357496	-0.302179
C31	C	0.236665	-0.405002	-0.342269
C32	C	0.171228	-0.404979	-0.342298
C33	C	0.171220	-0.309862	-0.262291
C34	C	0.236655	-0.309881	-0.262268
C35	C	0.269374	-0.357455	-0.302256
C36	C	0.905367	-0.550424	-0.302192
C37	C	0.905392	-0.632970	-0.302209
C38	C	0.863595	-0.832445	-0.344027
C39	C	0.848318	-0.881889	-0.286848
C40	C	0.905454	-0.784100	-0.302217
C41	C	0.920762	-0.881738	-0.359402
C42	C	0.905512	-0.930085	-0.302230
C43	C	0.890147	-0.832456	-0.245009
C44	C	0.962617	-0.832301	-0.317601
C45	C	0.947362	-0.881722	-0.260383
C46	C	0.905419	-0.700002	-0.302211
C47	C	0.905547	-1.014182	-0.302230
C48	C	1.068866	-0.357433	-0.302276
C49	C	1.138508	-0.357416	-0.302307
C50	C	0.905492	-0.357426	-0.465626
C51	C	0.905513	-0.357406	-0.535268
C52	C	0.905536	-0.163766	-0.302227
C53	C	0.905576	-0.081220	-0.302237
C54	C	0.865473	-0.309911	-0.567959
C55	C	0.865471	-0.309898	-0.633394
C56	C	0.905520	-0.357371	-0.666136
C57	C	0.945563	-0.404875	-0.633437
C58	C	0.945559	-0.404892	-0.568003
C59	C	0.961972	-0.363191	-0.769842
C60	C	0.961977	-0.363168	-0.835275
C61	C	0.905530	-0.357321	-0.867957
C62	C	0.849078	-0.351480	-0.835198
C63	C	0.849074	-0.351498	-0.769764
C64	C	0.905528	-0.357357	-0.737088
C65	C	0.865485	-0.309808	-0.971601
C66	C	0.865482	-0.309800	-1.037037
C67	C	0.945579	-0.404773	-1.037079
C68	C	0.945577	-0.404786	-0.971643
C69	C	0.905530	-0.357299	-0.938908
C70	C	0.905430	-0.357464	-0.139415
C71	C	0.905530	-0.357274	-0.069774
H72	H	0.465221	-0.368289	-0.404590
H73	H	0.828144	-0.810807	-0.379334
H74	H	0.832872	-0.271126	-1.063653
H75	H	0.548236	-0.443799	-0.374731
O76	O	0.937888	-0.910411	-0.423453
H77	H	0.903041	-0.890675	-0.458058
O78	O	0.994285	-0.910206	-0.213504
H79	H	1.030057	-0.943978	-0.237980
H80	H	0.800004	-0.903686	-0.273849
H81	H	0.978171	-0.443528	-0.660099
H82	H	0.877166	-0.810898	-0.196640
O83	O	0.337884	-0.369819	-0.419559
H84	H	0.286877	-0.368798	-0.410098
O85	O	0.988759	-0.456112	-0.532742
H86	H	0.977993	-0.514399	-0.545285
O87	O	0.675598	-0.456396	-0.385258
H88	H	0.641856	-0.489452	-0.413087
O89	O	0.271962	-0.456301	-0.385404
H90	H	0.238222	-0.489354	-0.413238
O91	O	0.271929	-0.258600	-0.219103
H92	H	0.301799	-0.220857	-0.247185
H93	H	0.144599	-0.443699	-0.374881
O94	O	0.135934	-0.258567	-0.219151
H95	H	0.084938	-0.266550	-0.225883
O96	O	1.026672	-0.803592	-0.334782
H97	H	1.039278	-0.823353	-0.382263
O98	O	0.539570	-0.258674	-0.219000
H99	H	0.488574	-0.266663	-0.225727
O100	O	0.822287	-0.258692	-0.532650
H101	H	0.794444	-0.225663	-0.566380
O102	O	1.022864	-0.369459	-0.870603
H103	H	1.021846	-0.419756	-0.900414
O104	O	0.788193	-0.345194	-0.734428
H105	H	0.748940	-0.341125	-0.768141
O106	O	0.822290	-0.258663	-0.668667
H107	H	0.794447	-0.225642	-0.634911
H108	H	0.346307	-0.346690	-0.199822
O109	O	0.788188	-0.345180	-0.870435
H110	H	0.797671	-0.346160	-0.921439
H111	H	0.832876	-0.271143	-0.944946
O112	O	0.988778	-0.455978	-1.072382
H113	H	0.982057	-0.447985	-1.123376
O114	O	0.988776	-0.455996	-0.936377
H115	H	1.016632	-0.488998	-0.970135
O116	O	0.473651	-0.345148	-0.184860
H117	H	0.439868	-0.341015	-0.145623
H118	H	0.666925	-0.271248	-0.229547
O119	O	1.022858	-0.369493	-0.734593
H120	H	1.062112	-0.373537	-0.768363
