data_functionalizedCrystal
_audit_creation_method	'MofGen! by Chris Wilmer'
_symmetry_space_group_name_H-M	'P1'
_symmetry_Int_Tables_number	1
_symmetry_cell_setting	triclinic
loop_
_symmetry_equiv_pos_as_xyz
  x,y,z
_cell_length_a	6.817900
_cell_length_b	19.551136
_cell_length_c	11.102228
_cell_angle_alpha	94.537667
_cell_angle_beta	108.604565
_cell_angle_gamma	101.650842
loop_
_atom_site_label
_atom_site_type_symbol
_atom_site_fract_x
_atom_site_fract_y
_atom_site_fract_z
V1	V	-4.076471	-0.096678	-0.396882
O2	O	-4.072233	0.004644	-0.388683
O3	O	-4.018804	-0.191695	-0.394787
O4	O	-4.053785	-0.095192	-0.569694
O5	O	-4.037010	-0.092527	-0.212566
V6	V	-4.557967	-0.084559	-0.374761
O7	O	-4.342174	-0.123263	-0.445406
O8	O	-4.742462	-0.057974	-0.326237
O9	O	-4.392428	0.010458	-0.376856
O10	O	-4.679602	-0.185881	-0.382960
O11	O	-4.714825	-0.088710	-0.559078
O12	O	-4.357447	-0.086045	-0.201950
C13	C	-3.860718	-0.214858	-0.388686
C14	C	-3.895027	-0.292535	-0.388125
C15	C	-3.854598	-0.319025	-0.271396
C16	C	-3.886900	-0.392010	-0.270829
C17	C	-3.959593	-0.438501	-0.386998
C18	C	-4.000038	-0.412004	-0.503744
C19	C	-3.967755	-0.339021	-0.504307
C20	C	-3.936638	-0.559512	-0.471230
C21	C	-3.968906	-0.632493	-0.470661
C22	C	-4.059177	-0.663605	-0.385265
C23	C	-4.117139	-0.621725	-0.300416
C24	C	-4.084856	-0.548742	-0.300980
C25	C	-3.994607	-0.517640	-0.386400
C26	C	-4.053772	-0.769233	-0.267914
C27	C	-4.086090	-0.842219	-0.267353
C28	C	-4.199208	-0.862212	-0.500270
C29	C	-4.166910	-0.789227	-0.500828
C30	C	-4.094182	-0.742741	-0.384646
C31	C	-3.905339	-0.091758	-0.611795
C32	C	-3.968012	-0.091171	-0.753073
C33	C	-4.034425	-0.154884	-0.838010
C34	C	-4.093326	-0.154331	-0.970756
C35	C	-4.019385	-0.026347	-0.933615
C36	C	-3.960500	-0.026900	-0.800872
C37	C	-4.335679	-0.232695	-1.178653
C38	C	-4.402060	-0.296411	-1.263594
C39	C	-4.298112	-0.350846	-1.232732
C40	C	-4.127735	-0.341567	-1.116930
C41	C	-4.061337	-0.277850	-1.031995
C42	C	-4.165333	-0.223418	-1.062857
C43	C	-3.718132	0.051459	-0.592974
C44	C	-3.651719	0.115178	-0.508036
C45	C	-3.755651	0.169619	-0.538893
C46	C	-3.925995	0.160347	-0.654696
C47	C	-3.992409	0.096629	-0.739634
C48	C	-3.888477	0.042188	-0.708768
C49	C	-4.213854	0.033618	-0.382954
C50	C	-4.158785	0.111294	-0.383523
C51	C	-4.169234	-0.089481	-0.159842
C52	C	-4.085799	-0.090065	-0.018562
H53	H	-4.053176	-0.863785	-0.172295
Br54	Br	-3.832025	-0.427970	-0.112399
H55	H	-4.040547	-0.207217	-0.799098
Br56	Br	-3.577076	-0.022429	-0.551085
Br57	Br	-4.163524	-0.491907	-0.185838
H58	H	-3.512989	0.122727	-0.413751
H59	H	-4.059230	-0.449862	-0.598329
Br60	Br	-4.388204	-0.437316	-1.348012
Br61	Br	-4.239620	-0.663936	-0.184498
H62	H	-3.795393	-0.281181	-0.176791
H63	H	-3.994552	-0.731382	-0.173312
Br64	Br	-4.223623	0.084040	-0.896787
H65	H	-3.922612	-0.270294	-0.937715
Br66	Br	-3.986631	-0.415444	-1.075065
H67	H	-4.258398	-0.900065	-0.594857
Br68	Br	-3.665490	0.256100	-0.423627
H69	H	-4.199818	-0.767659	-0.595882
H70	H	-3.921701	-0.666587	-0.539748
H71	H	-3.863131	-0.534188	-0.540775
H72	H	-4.000687	-0.317455	-0.599365
Br73	Br	-4.633254	-0.308999	-1.420758
Br74	Br	-4.476790	-0.158822	-1.220537
Br75	Br	-4.009181	0.060874	-0.998493
Br76	Br	-4.067044	0.234235	-0.696587
