data_functionalizedCrystal
_audit_creation_method	'MofGen! by Chris Wilmer'
_symmetry_space_group_name_H-M	'P1'
_symmetry_Int_Tables_number	1
_symmetry_cell_setting	triclinic
loop_
_symmetry_equiv_pos_as_xyz
  x,y,z
_cell_length_a	21.295417
_cell_length_b	18.050590
_cell_length_c	18.050583
_cell_angle_alpha	89.997484
_cell_angle_beta	89.959541
_cell_angle_gamma	89.982671
loop_
_atom_site_label
_atom_site_type_symbol
_atom_site_fract_x
_atom_site_fract_y
_atom_site_fract_z
Zn1	Zn	-0.250786	-1.135289	-0.419524
Zn2	Zn	0.249214	-0.635289	0.080476
Zn3	Zn	-0.356072	-1.135192	-0.295324
Zn4	Zn	0.143928	-0.635192	0.204676
Zn5	Zn	-0.250796	-1.011106	-0.295388
Zn6	Zn	0.249204	-0.511106	0.204612
Zn7	Zn	-0.355997	-1.011051	-0.419513
Zn8	Zn	0.144003	-0.511051	0.080487
O9	O	-0.303413	-1.073159	-0.357437
O10	O	0.196587	-0.573159	0.142563
O11	O	-0.264779	-1.239200	-0.403026
O12	O	0.235221	-0.739200	0.096974
O13	O	-0.342143	-1.118714	-0.191408
O14	O	0.157857	-0.618714	0.308592
O15	O	-0.162706	-1.027642	-0.311886
O16	O	0.337294	-0.527642	0.188114
O17	O	-0.342133	-1.239129	-0.311778
O18	O	0.157867	-0.739129	0.188222
O19	O	-0.162698	-1.118879	-0.403088
O20	O	0.337302	-0.618879	0.096912
O21	O	-0.264797	-1.027548	-0.191455
O22	O	0.235203	-0.527548	0.308545
O23	O	-0.264724	-0.907174	-0.311875
O24	O	0.235276	-0.407174	0.188125
O25	O	-0.342004	-1.027549	-0.523439
O26	O	0.157996	-0.527549	-0.023439
O27	O	-0.342015	-0.907134	-0.403070
O28	O	0.157985	-0.407134	0.096930
O29	O	-0.264706	-1.118826	-0.523447
O30	O	0.235294	-0.618826	-0.023447
O31	O	-0.444151	-1.118661	-0.311768
O32	O	0.055849	-0.618661	0.188232
O33	O	-0.444096	-1.027455	-0.403008
O34	O	0.055904	-0.527455	0.096992
C35	C	-0.303363	-0.880207	-0.357479
C36	C	0.196637	-0.380207	0.142521
C37	C	-0.303357	-0.797661	-0.357514
C38	C	0.196643	-0.297661	0.142486
C39	C	-0.345501	-0.598210	-0.406998
C40	C	0.154499	-0.098210	0.093002
C41	C	-0.288098	-0.548820	-0.425280
C42	C	0.211902	-0.048820	0.074720
C43	C	-0.303387	-0.646531	-0.357485
C44	C	0.196613	-0.146531	0.142515
C45	C	-0.360817	-0.548839	-0.339209
C46	C	0.139183	-0.048839	0.160791
C47	C	-0.303421	-0.500546	-0.357459
C48	C	0.196579	-0.000546	0.142541
C49	C	-0.245954	-0.598228	-0.375803
C50	C	0.254046	-0.098228	0.124197
C51	C	-0.318711	-0.598252	-0.289701
C52	C	0.181289	-0.098252	0.210299
C53	C	-0.261269	-0.548884	-0.307958
C54	C	0.238731	-0.048884	0.192042
C55	C	-0.303368	-0.730629	-0.357503
C56	C	0.196632	-0.230629	0.142497
C57	C	-0.303433	-0.416449	-0.357442
C58	C	0.196567	0.083551	0.142558
C59	C	-0.466964	-1.073062	-0.357396
C60	C	0.033036	-0.573062	0.142604
C61	C	-0.536932	-1.073088	-0.357403
C62	C	-0.036932	-0.573088	0.142597
C63	C	-0.569807	-1.120621	-0.309943
C64	C	-0.069807	-0.620621	0.190057
C65	C	-0.635549	-1.120656	-0.309960
C66	C	-0.135549	-0.620656	0.190040
C67	C	-0.668415	-1.073145	-0.357429
C68	C	-0.168415	-0.573145	0.142571
C69	C	-0.635532	-1.025608	-0.404899
C70	C	-0.135532	-0.525608	0.095101
C71	C	-0.569791	-1.025580	-0.404886
C72	C	-0.069791	-0.525580	0.095114
N73	N	-0.771667	-1.008178	-0.363105
N74	N	-0.271667	-0.508178	0.136895
N75	N	-0.834119	-1.008207	-0.363112
N76	N	-0.334119	-0.508207	0.136888
C77	C	-0.866490	-1.073228	-0.357472
C78	C	-0.366490	-0.573228	0.142528
N79	N	-0.834050	-1.138220	-0.351808
N80	N	-0.334050	-0.638220	0.148192
N81	N	-0.771593	-1.138191	-0.351796
N82	N	-0.271593	-0.638191	0.148204
C83	C	-0.739700	-1.073170	-0.357448
C84	C	-0.239700	-0.573170	0.142552
C85	C	-0.970650	-1.120803	-0.310027
C86	C	-0.470650	-0.620803	0.189973
C87	C	-1.036393	-1.120839	-0.310049
C88	C	-0.536393	-0.620839	0.189951
C89	C	-1.036375	-1.025784	-0.404984
C90	C	-0.536375	-0.525784	0.095016
C91	C	-0.970633	-1.025755	-0.404966
C92	C	-0.470633	-0.525755	0.095034
C93	C	-0.937774	-1.073263	-0.357483
C94	C	-0.437774	-0.573263	0.142517
C95	C	-0.139222	-1.073277	-0.357495
C96	C	0.360778	-0.573277	0.142505
C97	C	-0.069254	-1.073328	-0.357519
C98	C	0.430746	-0.573328	0.142481
C99	C	-0.303345	-1.073192	-0.551143
C100	C	0.196655	-0.573192	-0.051143
C101	C	-0.303317	-1.073206	-0.633689
C102	C	0.196683	-0.573206	-0.133689
C103	C	-0.303454	-0.266865	-0.357408
C104	C	0.196546	0.233135	0.142592
C105	C	-0.303450	-0.349411	-0.357428
C106	C	0.196550	0.150589	0.142572
C107	C	-0.261262	-1.122892	-0.833144
C108	C	0.238738	-0.622892	-0.333144
C109	C	-0.245842	-1.055159	-0.882562
C110	C	0.254158	-0.555159	-0.382562
C111	C	-0.303306	-1.073236	-0.784819
C112	C	0.196694	-0.573236	-0.284819
C113	C	-0.318686	-1.140996	-0.882483
C114	C	0.181314	-0.640996	-0.382483
C115	C	-0.303294	-1.073271	-0.930804
C116	C	0.196706	-0.573271	-0.430804
C117	C	-0.287856	-1.005467	-0.833150
C118	C	0.212144	-0.505467	-0.333150
C119	C	-0.360727	-1.091349	-0.833067
C120	C	0.139273	-0.591349	-0.333067
C121	C	-0.345329	-1.023570	-0.882463
C122	C	0.154671	-0.523570	-0.382463
C123	C	-0.303311	-1.073217	-0.700721
C124	C	0.196689	-0.573217	-0.200721
C125	C	-0.303289	-1.073282	-1.014901
C126	C	0.196711	-0.573282	-0.514901
C127	C	-0.303434	-1.073169	-0.164485
C128	C	0.196566	-0.573169	0.335515
C129	C	-0.303286	-1.073299	-0.081940
C130	C	0.196714	-0.573299	0.418060
H131	H	-0.381055	-0.619871	-0.448913
H132	H	0.118945	-0.119871	0.051087
O133	O	-0.418708	-0.522830	-0.320815
O134	O	0.081292	-0.022830	0.179185
C135	C	-0.417769	-0.444729	-0.320381
C136	C	0.082231	0.055271	0.179619
H137	H	-0.377717	-0.424158	-0.356913
H138	H	0.122283	0.075842	0.143087
H139	H	-0.464287	-0.422753	-0.342582
H140	H	0.035713	0.077247	0.157418
H141	H	-0.410543	-0.424122	-0.261299
H142	H	0.089457	0.075878	0.238701
H143	H	-0.275147	-0.527108	-0.482593
H144	H	0.224853	-0.027108	0.017407
H145	H	-0.197386	-0.619832	-0.391315
H146	H	0.302614	-0.119832	0.108685
H147	H	-0.380880	-0.981544	-0.903981
H148	H	0.119120	-0.481544	-0.403981
O149	O	-0.667357	-0.979431	-0.451080
O150	O	-0.167357	-0.479431	0.048920
C151	C	-0.624240	-0.937455	-0.492956
C152	C	-0.124240	-0.437455	0.007044
H153	H	-0.577359	-0.967853	-0.495536
H154	H	-0.077359	-0.467853	0.004464
H155	H	-0.643197	-0.929505	-0.551467
H156	H	-0.143197	-0.429505	-0.051467
H157	H	-0.617299	-0.881066	-0.465727
H158	H	-0.117299	-0.381066	0.034273
O159	O	-0.938597	-0.979644	-0.451039
O160	O	-0.438597	-0.479644	0.048961
C161	C	-0.873526	-0.989793	-0.440836
C162	C	-0.373526	-0.489793	0.059164
H163	H	-0.864533	-1.047117	-0.416546
H164	H	-0.364533	-0.547117	0.083454
H165	H	-0.848502	-0.984708	-0.496455
H166	H	-0.348502	-0.484708	0.003545
H167	H	-0.854924	-0.945760	-0.401256
H168	H	-0.354924	-0.445760	0.098744
O169	O	-0.537825	-0.979507	-0.451067
O170	O	-0.037825	-0.479507	0.048933
C171	C	-0.499723	-1.021740	-0.499036
C172	C	0.000277	-0.521740	0.000964
H173	H	-0.519497	-1.080238	-0.503663
H174	H	-0.019497	-0.580238	-0.003663
H175	H	-0.498947	-0.994844	-0.556173
H176	H	0.001053	-0.494844	-0.056173
H177	H	-0.449916	-1.024291	-0.476061
H178	H	0.050084	-0.524291	0.023939
H179	H	-1.063133	-0.987102	-0.443638
H180	H	-0.563133	-0.487102	0.056362
H181	H	-0.225684	-1.164816	-0.811486
H182	H	0.274316	-0.664816	-0.311486
H183	H	-1.063159	-1.159550	-0.271402
H184	H	-0.563159	-0.659550	0.228598
H185	H	-0.274787	-0.948161	-0.811570
H186	H	0.225213	-0.448161	-0.311570
H187	H	-0.409279	-1.106680	-0.811312
H188	H	0.090721	-0.606680	-0.311312
O189	O	-0.537987	-1.166847	-0.263804
O190	O	-0.037987	-0.666847	0.236196
C191	C	-0.581106	-1.208797	-0.221905
C192	C	-0.081106	-0.708797	0.278095
H193	H	-0.627945	-1.211364	-0.252334
H194	H	-0.127945	-0.711364	0.247666
H195	H	-0.562087	-1.267309	-0.214018
H196	H	-0.062087	-0.767309	0.285982
H197	H	-0.588152	-1.181642	-0.165486
H198	H	-0.088152	-0.681642	0.334514
O199	O	-0.334142	-1.209396	-0.908249
O200	O	0.165858	-0.709396	-0.408249
C201	C	-0.289685	-1.261546	-0.883136
C202	C	0.210315	-0.761546	-0.383136
H203	H	-0.265706	-1.239547	-0.831158
H204	H	0.234294	-0.739547	-0.331158
H205	H	-0.314379	-1.315966	-0.869794
H206	H	0.185621	-0.815966	-0.369794
H207	H	-0.253022	-1.271294	-0.928147
H208	H	0.246978	-0.771294	-0.428147
H209	H	-0.225628	-0.527362	-0.266076
H210	H	0.274372	-0.027362	0.233924
O211	O	-0.187868	-1.037015	-0.908468
O212	O	0.312132	-0.537015	-0.408468
C213	C	-0.143685	-1.089476	-0.883331
C214	C	0.356315	-0.589476	-0.383331
H215	H	-0.168734	-1.143530	-0.869437
H216	H	0.331266	-0.643530	-0.369437
H217	H	-0.107347	-1.099925	-0.928548
H218	H	0.392653	-0.599925	-0.428548
H219	H	-0.119247	-1.067394	-0.831682
H220	H	0.380753	-0.567394	-0.331682
H221	H	-0.331680	-0.619980	-0.232405
H222	H	0.168320	-0.119980	0.267595
O223	O	-0.938823	-1.167022	-0.263884
O224	O	-0.438823	-0.667022	0.236116
C225	C	-0.981941	-1.208976	-0.221987
C226	C	-0.481941	-0.708976	0.278013
H227	H	-1.028778	-1.211554	-0.252420
H228	H	-0.528778	-0.711554	0.247580
H229	H	-0.962916	-1.267484	-0.214092
H230	H	-0.462916	-0.767484	0.285908
H231	H	-0.988995	-1.181818	-0.165571
H232	H	-0.488995	-0.681818	0.334429
O233	O	-0.667528	-1.166893	-0.263949
O234	O	-0.167528	-0.666893	0.236051
C235	C	-0.705522	-1.214839	-0.306246
C236	C	-0.205522	-0.714839	0.193754
H237	H	-0.685664	-1.219414	-0.364733
H238	H	-0.185664	-0.719414	0.135267
H239	H	-0.706273	-1.271997	-0.279395
H240	H	-0.206273	-0.771997	0.220605
H241	H	-0.755350	-1.191877	-0.308812
H242	H	-0.255350	-0.691877	0.191188
