data_functionalizedCrystal
_audit_creation_method	'MofGen! by Chris Wilmer'
_symmetry_space_group_name_H-M	'P1'
_symmetry_Int_Tables_number	1
_symmetry_cell_setting	triclinic
loop_
_symmetry_equiv_pos_as_xyz
  x,y,z
_cell_length_a	17.038272
_cell_length_b	17.000383
_cell_length_c	13.930277
_cell_angle_alpha	89.996025
_cell_angle_beta	89.998451
_cell_angle_gamma	83.355930
loop_
_atom_site_label
_atom_site_type_symbol
_atom_site_fract_x
_atom_site_fract_y
_atom_site_fract_z
O1	O	1.025588	0.172040	-0.079709
O2	O	0.798145	0.169308	-0.079737
O3	O	0.925988	0.055764	-0.079717
O4	O	0.897745	0.285584	-0.079728
O5	O	0.925972	0.055760	0.079945
O6	O	0.798128	0.169304	0.079925
O7	O	1.025572	0.172036	0.079953
Zn8	Zn	0.911848	0.170670	0.105289
Zn9	Zn	0.911869	0.170674	-0.105073
O10	O	0.897729	0.285580	0.079934
C11	C	0.769179	0.166822	0.000090
C12	C	0.682893	0.159409	0.000080
C13	C	0.927497	0.026211	0.000113
C14	C	0.932007	-0.061842	0.000110
C15	C	0.628118	0.227467	0.000077
C16	C	0.547045	0.220497	0.000091
C17	C	0.520748	0.145468	0.000100
C18	C	0.575530	0.077405	0.000105
C19	C	0.656602	0.084375	0.000099
C20	C	0.276677	0.120842	0.000127
C21	C	0.195599	0.113877	0.000131
C22	C	0.167119	0.256970	0.000118
C23	C	0.248194	0.263934	0.000105
C24	C	0.302968	0.195871	0.000116
C25	C	0.437879	0.138342	0.000111
C26	C	0.385836	0.202997	0.000112
C27	C	0.961131	-0.560087	0.000110
C28	C	0.956887	-0.477351	0.000115
C29	C	0.883221	-0.431345	0.000102
C30	C	0.813795	-0.468078	0.000092
C31	C	0.818039	-0.550812	0.000094
C32	C	0.866825	-0.181309	0.000102
C33	C	0.862586	-0.098569	0.000098
C34	C	1.005679	-0.107849	0.000123
C35	C	1.009917	-0.190584	0.000118
C36	C	0.940491	-0.227310	0.000114
C37	C	0.878881	-0.346775	0.000104
C38	C	0.944831	-0.311877	0.000119
C39	C	1.054538	0.174522	0.000124
C40	C	1.140824	0.181935	0.000128
C41	C	0.896220	0.315133	0.000101
C42	C	0.891710	0.403186	0.000098
N43	N	0.911839	0.170666	0.248855
N44	N	0.911885	0.170672	-0.248639
C45	C	0.855260	0.220930	0.701115
C46	C	0.968501	0.120414	0.701102
C47	C	0.968492	0.120411	0.600607
C48	C	0.911866	0.170669	0.550361
C49	C	0.855250	0.220931	0.600610
C50	C	1.025112	0.070156	0.550349
C51	C	1.025105	0.070151	0.449847
C52	C	0.968476	0.120406	0.399600
C53	C	0.911857	0.170669	0.449856
C54	C	0.855232	0.220928	0.399610
C55	C	0.798609	0.271187	0.449864
C56	C	0.798621	0.271186	0.550363
C57	C	0.968464	0.120408	0.299101
C58	C	0.855223	0.220928	0.299105
H59	H	0.649522	0.288564	0.000069
H60	H	0.810293	-0.211201	0.000088
C61	C	0.737011	0.325707	0.395428
C62	C	0.661427	0.307648	0.419894
C63	C	0.604666	0.357861	0.369773
H64	H	0.745008	0.318558	0.328364
H65	H	0.741775	0.379173	0.411914
H66	H	0.656665	0.254195	0.403401
H67	H	0.653404	0.314802	0.486949
H68	H	0.609430	0.411327	0.386259
H69	H	0.612671	0.350708	0.302711
H70	H	0.553376	0.345620	0.386372
H71	H	1.069904	-0.228037	0.000134
C72	C	0.107685	0.330891	-0.000083
C73	C	0.118798	0.375742	-0.082241
C74	C	0.064055	0.443840	-0.082461
H75	H	0.115070	0.361520	0.055528
H76	H	0.055621	0.316029	-0.000129
H77	H	0.170849	0.390605	-0.082186
H78	H	0.111406	0.345137	-0.137864
H79	H	0.011991	0.428978	-0.082507
H80	H	0.071445	0.474462	-0.026847
H81	H	0.071583	0.474276	-0.138208
H82	H	0.818902	-0.309308	0.000089
C83	C	0.487491	0.294326	-0.000072
C84	C	0.440101	0.294490	-0.082199
C85	C	0.385225	0.362487	-0.082377
H86	H	0.514664	0.340065	-0.000135
H87	H	0.455226	0.294593	0.055579
H88	H	0.472361	0.294230	-0.137836
H89	H	0.412910	0.248767	-0.082153
H90	H	0.352961	0.362754	-0.026726
H91	H	0.412405	0.408221	-0.082437
H92	H	0.353060	0.362604	-0.138094
H93	H	1.014569	0.079491	0.258188
H94	H	0.802595	-0.061112	0.000090
C95	C	0.737126	0.325623	0.605051
C96	C	0.692418	0.280167	0.662785
C97	C	0.635772	0.330289	0.713193
H98	H	0.703319	0.355575	0.560850
H99	H	0.762839	0.360501	0.644301
H100	H	0.666706	0.245304	0.623539
H101	H	0.726202	0.250218	0.707005
H102	H	0.661485	0.365166	0.752442
H103	H	0.601971	0.360238	0.668984
H104	H	0.605435	0.299455	0.752377
C105	C	0.733790	-0.418171	0.000272
C106	C	0.691652	-0.435484	0.082418
C107	C	0.617951	-0.389521	0.082618
H108	H	0.705003	-0.429787	-0.055346
H109	H	0.741168	-0.363627	0.000321
H110	H	0.684271	-0.490016	0.082361
H111	H	0.720415	-0.423865	0.138050
H112	H	0.625330	-0.334977	0.082667
H113	H	0.589172	-0.401140	0.026997
H114	H	0.589355	-0.401256	0.138357
C115	C	0.793757	0.275366	0.755796
C116	C	0.749043	0.229908	0.813518
C117	C	0.692387	0.280027	0.863914
H118	H	0.759956	0.305316	0.711587
H119	H	0.819463	0.310245	0.795052
H120	H	0.723339	0.195043	0.774266
H121	H	0.782822	0.199960	0.857745
H122	H	0.718092	0.314906	0.903170
H123	H	0.658592	0.309974	0.819699
H124	H	0.662046	0.249191	0.903091
H125	H	0.269597	0.325030	0.000087
H126	H	1.014607	0.079499	0.742016
C127	C	1.024885	-0.361687	0.000178
C128	C	1.084781	-0.311819	0.000207
C129	C	1.158536	-0.357683	0.000270
H130	H	1.029627	-0.394162	-0.055483
H131	H	1.029550	-0.394142	0.055879
H132	H	1.080118	-0.279378	-0.055488
H133	H	1.080064	-0.279344	0.055864
H134	H	1.163200	-0.390138	0.055970
H135	H	1.163270	-0.390156	-0.055393
H136	H	1.199183	-0.323855	0.000298
C137	C	0.546826	-0.003987	0.000068
C138	C	0.464103	0.004474	0.000045
C139	C	0.437635	-0.070488	-0.000005
H140	H	0.565882	-0.032308	0.055732
H141	H	0.565921	-0.032251	-0.055631
H142	H	0.445016	0.032726	0.055738
H143	H	0.445026	0.032781	-0.055614
H144	H	0.456730	-0.098752	-0.055704
H145	H	0.456697	-0.098804	0.055659
H146	H	0.381506	-0.064758	-0.000029
C147	C	1.081117	-0.068080	0.000283
C148	C	1.125309	-0.091023	0.082422
C149	C	1.194816	-0.054415	0.082599
H150	H	1.068154	-0.012213	0.000329
H151	H	1.111260	-0.083565	-0.055360
H152	H	1.095172	-0.075534	0.138051
H153	H	1.138292	-0.146885	0.082393
H154	H	1.224959	-0.069900	0.026956
H155	H	1.181846	0.001451	0.082642
H156	H	1.224812	-0.069982	0.138324
H157	H	0.407250	0.264086	0.000110
C158	C	0.742641	-0.590648	-0.000122
C159	C	0.698466	-0.567741	-0.082286
C160	C	0.629008	-0.604430	-0.082520
H161	H	0.712447	-0.575214	0.055484
H162	H	0.755687	-0.646515	-0.000169
H163	H	0.685419	-0.511886	-0.082230
H164	H	0.728636	-0.583176	-0.137905
H165	H	0.642054	-0.660297	-0.082567
H166	H	0.598822	-0.588993	-0.026911
H167	H	0.599031	-0.588898	-0.138271
H168	H	1.071218	0.029241	0.591263
H169	H	0.809109	0.261851	0.258201
H170	H	1.071210	0.029227	0.408937
H171	H	1.013417	-0.447452	0.000126
H172	H	0.174192	0.052776	0.000137
C173	C	0.715951	0.010388	0.000047
C174	C	0.675572	-0.056812	0.000029
C175	C	0.730218	-0.124984	-0.000029
H176	H	0.748197	0.010020	0.055707
H177	H	0.748159	0.010090	-0.055656
H178	H	0.643378	-0.056514	0.055725
H179	H	0.643330	-0.056470	-0.055627
H180	H	0.762426	-0.125282	-0.055731
H181	H	0.762460	-0.125344	0.055632
H182	H	0.702829	-0.170587	-0.000050
H183	H	0.321265	0.065420	0.000136
H184	H	0.416459	0.077253	0.000145
H185	H	1.021118	-0.597540	0.000113
