data_functionalizedCrystal
_audit_creation_method	'MofGen! by Chris Wilmer'
_symmetry_space_group_name_H-M	'P1'
_symmetry_Int_Tables_number	1
_symmetry_cell_setting	triclinic
loop_
_symmetry_equiv_pos_as_xyz
  x,y,z
_cell_length_a	14.628931
_cell_length_b	21.606444
_cell_length_c	21.606444
_cell_angle_alpha	59.999490
_cell_angle_beta	90.001677
_cell_angle_gamma	60.010748
loop_
_atom_site_label
_atom_site_type_symbol
_atom_site_fract_x
_atom_site_fract_y
_atom_site_fract_z
Zr1	Zr	0.880858	0.677346	-0.081167
O2	O	0.734937	0.806450	-0.179984
O3	O	0.925559	0.548246	-0.050882
O4	O	0.925596	0.677350	-0.179994
O5	O	0.734907	0.677341	0.050982
O6	O	1.076028	0.677350	-0.179994
O7	O	0.734900	0.677345	-0.050872
O8	O	1.075962	0.446406	0.050964
O9	O	0.734974	0.908285	-0.179976
O10	O	1.056928	0.601346	-0.037957
O11	O	0.944668	0.601343	0.038056
O12	O	0.944712	0.753346	-0.113957
O13	O	0.832451	0.753343	-0.037945
Zr14	Zr	1.120793	0.677339	0.081279
Zr15	Zr	1.120780	0.677346	-0.081167
Zr16	Zr	0.880871	0.677339	0.081278
Zr17	Zr	0.880917	0.839762	-0.081154
Zr18	Zr	1.120734	0.514923	0.081265
O19	O	1.076092	0.806439	0.050993
O20	O	1.076075	0.806449	-0.179983
O21	O	0.734954	0.806440	0.050993
O22	O	1.266714	0.548236	0.180095
O23	O	1.266697	0.548246	-0.050882
O24	O	0.925576	0.548236	0.180095
O25	O	1.266744	0.677344	-0.050871
O26	O	1.076055	0.677335	0.180105
O27	O	0.925623	0.677335	0.180105
O28	O	1.266751	0.677340	0.050983
O29	O	0.925680	0.908285	-0.179975
O30	O	1.075971	0.446401	0.180087
O31	O	1.266677	0.446400	0.180087
O32	O	1.266668	0.446406	0.050964
O33	O	0.734983	0.908279	-0.050853
O34	O	0.925689	0.908279	-0.050853
O35	O	1.056939	0.601339	0.114068
O36	O	1.169199	0.601342	0.038056
O37	O	1.056983	0.753343	-0.037944
O38	O	0.944723	0.753340	0.038068
C39	C	1.000752	0.474185	0.000039
C40	C	1.000727	0.405236	0.000034
C41	C	0.700720	0.677343	0.000055
C42	C	0.598867	0.677343	0.000055
C43	C	1.083768	-0.074235	0.056185
C44	C	1.083744	-0.009427	0.056177
C45	C	1.000871	0.079065	0.000065
C46	C	0.918022	0.102749	-0.056048
C47	C	0.918052	0.037941	-0.056043
C48	C	0.917902	0.364112	-0.056072
C49	C	0.917877	0.428919	-0.056071
C50	C	1.083595	0.316744	0.056149
C51	C	1.083624	0.251936	0.056154
C52	C	1.000780	0.275625	0.000039
C53	C	1.000808	0.205352	0.000047
C54	C	1.000837	0.149337	0.000059
C55	C	0.609124	0.601941	0.037757
C56	C	0.503855	0.601939	0.037757
C57	C	1.300931	0.677342	0.000056
C58	C	1.402784	0.677342	0.000056
C59	C	1.000810	0.677351	-0.203139
C60	C	1.000805	0.677354	-0.272101
C61	C	1.000899	0.880500	0.000072
C62	C	1.000924	0.949449	0.000078
C63	C	0.942229	0.756696	-0.344171
C64	C	0.942238	0.756694	-0.408966
C65	C	1.000819	0.677349	-0.401689
C66	C	1.059402	0.598000	-0.329612
C67	C	1.059398	0.598004	-0.264819
C68	C	1.059420	0.597985	-0.590915
C69	C	1.059416	0.597988	-0.655716
C70	C	0.942260	0.756675	-0.735063
C71	C	0.942256	0.756679	-0.670269
C72	C	1.000844	0.677331	-0.598198
C73	C	1.000835	0.677335	-0.527940
C74	C	1.000822	0.677344	-0.471945
C75	C	1.000841	0.677334	0.203250
C76	C	1.000846	0.677331	0.272213
C77	C	1.300858	0.474185	0.000040
C78	C	1.402686	0.405235	0.000034
C79	C	1.000767	0.474177	0.203234
C80	C	1.000747	0.405224	0.272191
C81	C	1.300873	0.474176	0.203234
C82	C	1.402706	0.405223	0.272191
C83	C	0.700778	0.880509	-0.203123
C84	C	0.598945	0.949462	-0.272080
C85	C	0.700793	0.880500	0.000072
C86	C	0.598965	0.949450	0.000077
C87	C	1.000884	0.880508	-0.203123
C88	C	1.000904	0.949461	-0.272079
C89	C	1.391901	0.372857	-0.039653
C90	C	1.487570	0.308080	-0.039673
C91	C	1.594023	0.275678	-0.000002
C92	C	1.604806	0.308062	0.039687
C93	C	1.509138	0.372842	0.039702
C94	C	1.059342	0.372841	0.344258
C95	C	1.059320	0.308062	0.409057
C96	C	1.000707	0.275662	0.401786
C97	C	0.942105	0.308051	0.329711
C98	C	0.942122	0.372834	0.264914
C99	C	1.509137	0.372844	0.264896
C100	C	1.604829	0.308064	0.329682
C101	C	1.594088	0.275661	0.401763
C102	C	1.487646	0.308047	0.409056
C103	C	1.391956	0.372830	0.344271
C104	C	0.492514	0.981849	-0.264785
C105	C	0.396822	1.046649	-0.329571
C106	C	0.407563	1.079055	-0.401651
C107	C	0.514005	1.046666	-0.408945
C108	C	0.609694	0.981872	-0.344159
C109	C	0.609750	0.981835	0.039758
C110	C	0.514081	1.046629	0.039760
C111	C	0.407628	1.079034	0.000086
C112	C	0.396845	1.046647	-0.039599
C113	C	0.492513	0.981858	-0.039606
C114	C	1.059527	0.981840	-0.264784
C115	C	1.059568	1.046620	-0.329570
C116	C	1.000978	1.079024	-0.401651
C117	C	0.942352	1.046638	-0.408944
C118	C	0.942319	0.981855	-0.344159
H119	H	1.151249	-0.146287	0.101881
C120	C	1.247546	-0.126820	0.167111
C121	C	1.174807	-0.035463	0.117854
H122	H	1.303762	-0.142893	0.205191
H123	H	1.281598	-0.149755	0.139400
H124	H	1.206608	-0.149767	0.190157
H125	H	1.215744	-0.012516	0.094804
H126	H	1.140752	-0.012518	0.145569
H127	H	0.696421	0.955456	0.072070
H128	H	0.483716	0.955492	-0.071916
C129	C	1.169636	0.136350	0.189228
C130	C	1.174725	0.154666	0.117834
H131	H	1.225886	0.076300	0.227306
H132	H	1.098116	0.148757	0.191556
H133	H	1.181475	0.171563	0.197246
H134	H	1.162877	0.119457	0.109814
H135	H	1.246262	0.142249	0.115505
C136	C	1.175394	1.040104	-0.244591
C137	C	1.123998	1.082219	-0.321541
H138	H	1.215162	1.062087	-0.239635
H139	H	1.225951	0.978948	-0.220973
H140	H	1.119919	1.050731	-0.220982
H141	H	1.179474	1.071588	-0.345149
H142	H	1.073437	1.143391	-0.345169
H143	H	0.894649	1.073031	-0.467641
H144	H	1.671913	0.222929	-0.000020
H145	H	0.894542	0.821302	-0.467647
H146	H	0.522737	1.073060	-0.467640
C147	C	1.734237	0.340980	0.054435
C148	C	1.721824	0.272432	0.083304
H149	H	1.806483	0.318974	0.081365
H150	H	1.678817	0.384187	0.060127
H151	H	1.725847	0.366256	0.002235
H152	H	1.730206	0.247159	0.135502
H153	H	1.777259	0.229209	0.077618
H154	H	0.850442	0.383411	-0.101762
C155	C	0.844382	0.251904	-0.105881
C156	C	0.826921	0.200020	-0.117727
H157	H	0.788132	0.311954	-0.143957
H158	H	0.915901	0.239495	-0.108215
H159	H	0.840937	0.239458	-0.057440
H160	H	0.830375	0.212461	-0.166166
H161	H	0.755384	0.212434	-0.115400
H162	H	0.894384	0.281662	0.323802
H163	H	0.894549	0.821290	-0.676201
C164	C	1.711028	0.314582	0.244703
C165	C	1.721821	0.272467	0.321653
H166	H	1.783252	0.292601	0.239747
H167	H	1.671284	0.375739	0.221085
H168	H	1.671243	0.303954	0.221094
H169	H	1.761599	0.283100	0.345261
H170	H	1.761582	0.211295	0.345281
H171	H	0.894558	0.821284	-0.793753
H172	H	1.517935	0.399196	0.072025
C173	C	0.423250	0.769272	-0.098829
C174	C	0.481809	0.764495	-0.043523
H175	H	0.350987	0.823080	-0.125735
H176	H	0.416046	0.721970	-0.075172
H177	H	0.462998	0.766019	-0.133095
H178	H	0.442065	0.767741	-0.009253
H179	H	0.489008	0.811809	-0.067181
C180	C	0.754231	0.155331	-0.166967
C181	C	0.826983	0.063974	-0.117716
H182	H	0.698007	0.171403	-0.205040
H183	H	0.795152	0.178286	-0.190017
H184	H	0.720182	0.178261	-0.139245
H185	H	0.861039	0.041045	-0.145437
H186	H	0.786057	0.041011	-0.094665
H187	H	1.107097	0.533395	-0.206136
C188	C	1.175160	0.366355	0.429210
C189	C	1.123755	0.408460	0.352264
H190	H	1.214914	0.388352	0.434155
H191	H	1.225731	0.305199	0.452830
H192	H	1.119692	0.376974	0.452825
H193	H	1.179225	0.397836	0.328650
H194	H	1.073180	0.469631	0.328634
C195	C	1.157157	0.366270	0.105974
C196	C	1.174671	0.290703	0.117827
H197	H	1.213385	0.350191	0.144050
H198	H	1.085627	0.399920	0.108303
H199	H	1.160600	0.399938	0.057534
H200	H	1.171220	0.257038	0.166266
H201	H	1.246220	0.257039	0.115506
C202	C	0.764238	1.014896	-0.391892
C203	C	0.877843	0.946294	-0.352198
H204	H	0.724428	0.992947	-0.396858
H205	H	0.755905	1.058104	-0.440776
H206	H	0.735333	1.040153	-0.364952
H207	H	0.906750	0.921041	-0.379141
H208	H	0.886182	0.903071	-0.303306
H209	H	1.107126	0.533375	-0.532239
C210	C	0.754077	0.533305	-0.167017
C211	C	0.826783	0.526196	-0.117760
H212	H	0.697848	0.593357	-0.205100
H213	H	0.720039	0.505692	-0.139307
H214	H	0.795037	0.505697	-0.190059
H215	H	0.785824	0.553798	-0.094714
H216	H	0.860823	0.553821	-0.145474
C217	C	1.417082	0.235229	-0.054385
C218	C	1.475700	0.272483	-0.083292
H219	H	1.409759	0.213249	-0.081311
H220	H	1.344885	0.278445	-0.060051
H221	H	1.456861	0.188715	-0.002190
H222	H	1.435917	0.319001	-0.135487
H223	H	1.547909	0.229263	-0.077633
C224	C	0.367053	0.988380	-0.192853
C225	C	0.480688	0.946249	-0.185559
H226	H	0.359748	0.966412	-0.143943
H227	H	0.332153	0.977758	-0.219769
H228	H	0.332198	1.049544	-0.219784
H229	H	0.515541	0.885086	-0.158633
H230	H	0.515602	0.956864	-0.158631
C231	C	0.574038	0.466717	0.052452
C232	C	0.515486	0.514787	0.081333
H233	H	0.581211	0.412914	0.079353
H234	H	0.646298	0.455285	0.058173
H235	H	0.534302	0.499348	0.000243
H236	H	0.555227	0.482159	0.133541
H237	H	0.443213	0.526217	0.075619
H238	H	0.695840	0.537387	0.070037
H239	H	1.672014	0.222911	0.454509
H240	H	0.310158	1.073040	-0.071901
C241	C	1.582326	0.208710	0.543606
C242	C	1.475852	0.272415	0.488291
H243	H	1.575044	0.186705	0.592523
H244	H	1.622075	0.233995	0.537920
H245	H	1.622061	0.162218	0.537896
H246	H	1.436120	0.318910	0.493998
H247	H	1.436086	0.247130	0.493980
C248	C	0.198096	1.145962	-0.393623
C249	C	0.279829	1.082239	-0.321543
H250	H	0.125873	1.167935	-0.388664
H251	H	0.206466	1.120703	-0.420553
H252	H	0.206508	1.192472	-0.420532
H253	H	0.271422	1.035726	-0.294636
H254	H	0.271456	1.107498	-0.294602
C255	C	0.826430	0.913557	-0.429120
C256	C	0.877836	0.843917	-0.352175
H257	H	0.786684	0.967404	-0.434061
H258	H	0.775851	0.910256	-0.452741
H259	H	0.881897	0.910246	-0.452736
H260	H	0.822368	0.847224	-0.328560
H261	H	0.928418	0.847220	-0.328544
C262	C	1.237447	0.462730	-0.608041
C263	C	1.123820	0.510766	-0.647718
H264	H	1.277202	0.408889	-0.603111
H265	H	1.245829	0.451371	-0.559142
H266	H	1.266375	0.495347	-0.634972
H267	H	1.094890	0.478151	-0.620785
H268	H	1.115432	0.522122	-0.696626
C269	C	0.334435	1.171816	0.043320
C270	C	0.302474	1.150245	0.000105
H271	H	0.269519	1.215772	0.043337
H272	H	0.377726	1.193049	0.022071
H273	H	0.377722	1.121254	0.093863
H274	H	0.259194	1.200805	-0.050440
H275	H	0.259165	1.129013	0.021351
C276	C	1.111361	0.527524	-0.393696
C277	C	1.123794	0.510779	-0.321607
H278	H	1.151108	0.473675	-0.388749
H279	H	1.140279	0.560135	-0.420641
H280	H	1.034262	0.560108	-0.420580
H281	H	1.200893	0.478201	-0.294724
H282	H	1.094881	0.478154	-0.294650
C283	C	1.046927	0.129941	0.473012
C284	C	1.000699	0.204448	0.473016
H285	H	1.046919	0.085979	0.516986
H286	H	1.121570	0.108717	0.473003
H287	H	1.003627	0.144598	0.429050
H288	H	1.044004	0.189792	0.516976
H289	H	0.926044	0.225675	0.473032
H290	H	0.894410	0.399191	0.206236
C291	C	1.216284	0.392801	-0.032778
C292	C	1.274894	0.408467	-0.083267
H293	H	1.144055	0.414781	-0.059709
H294	H	1.209001	0.421361	-0.009148
H295	H	1.256044	0.331632	0.004757
H296	H	1.235138	0.469637	-0.120799
H297	H	1.282173	0.379909	-0.106910
H298	H	1.305299	0.399185	0.350221
H299	H	1.107045	0.281699	0.467737
C300	C	0.584541	1.013626	0.160331
C301	C	0.525953	1.082210	0.083395
H302	H	0.591866	1.035592	0.187270
H303	H	0.656737	0.970410	0.165996
H304	H	0.544741	0.988374	0.179906
H305	H	0.565758	1.107458	0.063819
H306	H	0.453745	1.125441	0.077726
C307	C	0.302354	1.118962	-0.516064
C308	C	0.302372	1.150271	-0.472861
H309	H	0.237414	1.162928	-0.560026
H310	H	0.302353	1.068416	-0.486750
H311	H	0.367279	1.104321	-0.530728
H312	H	0.237451	1.164906	-0.458193
H313	H	0.302362	1.200832	-0.502181
H314	H	0.394168	0.741900	-0.032226
H315	H	1.001013	1.131774	-0.454397
C316	C	1.049380	0.961891	-0.145874
C317	C	1.123941	0.946229	-0.185558
H318	H	1.089153	0.939910	-0.096967
H319	H	1.014473	0.933329	-0.140936
H320	H	0.993956	1.023059	-0.172803
H321	H	1.179361	0.885059	-0.158633
H322	H	1.158865	0.974788	-0.190493
H323	H	1.517903	0.399217	0.206211
H324	H	0.696353	0.955502	-0.350108
