data_functionalizedCrystal
_audit_creation_method	'MofGen! by Chris Wilmer'
_symmetry_space_group_name_H-M	'P1'
_symmetry_Int_Tables_number	1
_symmetry_cell_setting	triclinic
loop_
_symmetry_equiv_pos_as_xyz
  x,y,z
_cell_length_a	10.654554
_cell_length_b	13.339070
_cell_length_c	9.730223
_cell_angle_alpha	90.000235
_cell_angle_beta	89.999030
_cell_angle_gamma	100.058069
loop_
_atom_site_label
_atom_site_type_symbol
_atom_site_fract_x
_atom_site_fract_y
_atom_site_fract_z
O1	O	1.715930	0.142454	-0.114310
O2	O	1.355033	0.156019	-0.114307
O3	O	1.494062	0.001681	-0.114304
O4	O	1.576901	0.296791	-0.114313
O5	O	1.494062	0.001685	0.114276
O6	O	1.355032	0.156023	0.114273
O7	O	1.715930	0.142457	0.114270
Zn8	Zn	1.535481	0.149241	0.150563
Zn9	Zn	1.535482	0.149236	-0.150601
O10	O	1.576900	0.296795	0.114267
C11	C	1.307898	0.155024	-0.000017
C12	C	1.167448	0.152041	-0.000016
C13	C	0.952309	0.055560	-0.000031
C14	C	1.084277	0.058362	-0.000017
C15	C	1.118646	0.242923	-0.000015
C16	C	0.986680	0.240120	-0.000019
C17	C	0.932468	-0.050995	-0.000038
C18	C	1.064435	-0.048193	-0.000024
C19	C	1.480069	-0.036104	-0.000016
C20	C	1.438359	-0.148699	-0.000021
C21	C	1.762674	-0.511212	-0.000023
C22	C	1.801867	-0.405424	-0.000010
C23	C	1.710993	-0.341238	-0.000014
C24	C	1.580920	-0.382850	-0.000028
C25	C	1.541724	-0.488648	-0.000030
C26	C	1.490043	-0.318674	-0.000021
C27	C	1.359970	-0.360286	-0.000036
C28	C	1.320780	-0.466074	-0.000038
C29	C	1.411653	-0.530261	-0.000035
C30	C	1.529239	-0.212875	-0.000019
C31	C	1.308289	-0.190311	-0.000026
C32	C	1.269096	-0.296100	-0.000039
C33	C	1.763065	0.143452	-0.000023
C34	C	1.903515	0.146435	-0.000034
C35	C	1.590894	0.334580	-0.000024
C36	C	1.632604	0.447175	-0.000028
N37	N	1.535489	0.149244	0.356100
N38	N	1.535481	0.149225	-0.356137
C39	C	1.597081	0.080926	0.428027
C40	C	1.597073	0.080914	0.571910
C41	C	1.473881	0.217545	0.571926
C42	C	1.473881	0.217552	0.428045
C43	C	1.668210	0.002046	0.428019
C44	C	1.668202	0.002034	0.571902
H45	H	1.186374	0.319198	-0.000001
H46	H	0.889033	-0.092668	0.095617
N47	N	0.870083	-0.095942	-0.130763
H48	H	0.937003	-0.115598	-0.193922
H49	H	0.805068	-0.158310	-0.107932
N50	N	1.110484	-0.090849	0.130709
H51	H	1.152674	-0.150977	0.107999
H52	H	1.173910	-0.036566	0.177798
N53	N	0.934104	0.338159	0.000017
H54	H	0.880120	0.341152	-0.084709
H55	H	0.880191	0.341055	0.084817
H56	H	1.214866	-0.499951	-0.000040
N57	N	1.101799	-0.101368	-0.126731
H58	H	1.163702	-0.051962	-0.183266
H59	H	1.143384	-0.160655	-0.098420
N60	N	1.128807	-0.340986	-0.000054
H61	H	1.117773	-0.417743	-0.000056
H62	H	1.087409	-0.317571	0.084683
H63	H	1.767734	0.026747	0.383391
H64	H	1.234291	-0.138051	-0.000022
H65	H	1.423715	0.273172	0.369483
N66	N	1.942147	-0.360543	0.000013
H67	H	1.993769	-0.417255	0.000012
H68	H	1.963230	-0.317137	-0.084721
H69	H	1.635145	-0.179005	-0.000006
H70	H	1.423721	0.273159	0.630519
H71	H	1.836649	-0.563481	-0.000009
H72	H	1.620448	-0.075900	0.388968
N73	N	1.594879	-0.095542	0.631021
H74	H	1.559453	-0.142680	0.553760
H75	H	1.653696	-0.129477	0.689457
N76	N	1.803808	0.025051	0.623637
H77	H	1.846180	0.094106	0.589082
H78	H	1.803751	0.024992	0.727433
N79	N	1.753255	-0.227137	-0.000025
H80	H	1.719318	-0.197216	0.084703
H81	H	1.849444	-0.210599	-0.000073
H82	H	1.379749	-0.616403	-0.000051
