data_functionalizedCrystal
_audit_creation_method	'MofGen! by Chris Wilmer'
_symmetry_space_group_name_H-M	'P1'
_symmetry_Int_Tables_number	1
_symmetry_cell_setting	triclinic
loop_
_symmetry_equiv_pos_as_xyz
  x,y,z
_cell_length_a	15.297327
_cell_length_b	16.120542
_cell_length_c	15.296720
_cell_angle_alpha	82.715251
_cell_angle_beta	107.319222
_cell_angle_gamma	82.681676
loop_
_atom_site_label
_atom_site_type_symbol
_atom_site_fract_x
_atom_site_fract_y
_atom_site_fract_z
Zn1	Zn	-0.533267	-1.083346	-0.661687
Zn2	Zn	-0.661883	-1.083253	-0.533075
Zn3	Zn	-0.499217	-0.975404	-0.499046
Zn4	Zn	-0.677752	-0.918236	-0.677575
O5	O	-0.593030	-1.015060	-0.592846
O6	O	-0.557938	-1.197567	-0.652219
O7	O	-0.619414	-1.092833	-0.400022
O8	O	-0.375191	-1.013687	-0.499730
O9	O	-0.652431	-1.197499	-0.557729
O10	O	-0.400207	-1.092991	-0.619222
O11	O	-0.499904	-1.013597	-0.375020
O12	O	-0.515291	-0.853587	-0.515135
O13	O	-0.679477	-0.916252	-0.804007
O14	O	-0.646460	-0.811586	-0.646300
O15	O	-0.573325	-1.037557	-0.792335
O16	O	-0.792531	-1.037399	-0.573134
O17	O	-0.804190	-0.916162	-0.679297
C18	C	-0.578903	-0.802967	-0.578750
C19	C	-0.572886	-0.712224	-0.572745
C20	C	-0.831695	-0.970585	-0.631654
C21	C	-0.933807	-0.951628	-0.648292
C22	C	-0.624210	-0.484879	-0.623941
C23	C	-0.561907	-0.546078	-0.561781
C24	C	-0.568017	-0.638530	-0.567883
C25	C	-0.618101	-0.392418	-0.617841
C26	C	-1.197276	-1.150829	-0.474268
C27	C	-1.101336	-1.168640	-0.458631
C28	C	-1.059449	-1.114389	-0.506045
C29	C	-1.113512	-1.042323	-0.569098
C30	C	-1.209460	-1.024505	-0.584731
C31	C	-1.071633	-0.988066	-0.616508
C32	C	-1.125695	-0.915999	-0.679562
C33	C	-1.221634	-0.898186	-0.695192
C34	C	-1.263521	-0.952437	-0.647778
C35	C	-0.975684	-1.005883	-0.600875
C36	C	-0.987868	-0.879560	-0.711339
C37	C	-1.083808	-0.861748	-0.726975
C38	C	-0.353437	-1.059726	-0.553908
C39	C	-0.251337	-1.078760	-0.537315
C40	C	-0.631969	-0.970538	-0.832432
C41	C	-0.648563	-0.951566	-0.934529
C42	C	-0.607205	-0.227984	-0.606984
C43	C	-0.613228	-0.318728	-0.612974
C44	C	-0.474274	-1.150719	-1.198017
C45	C	-0.458685	-1.168550	-1.102092
C46	C	-0.506153	-1.114305	-1.060196
C47	C	-0.569213	-1.042227	-1.114235
C48	C	-0.584808	-1.024399	-1.210170
C49	C	-0.616687	-0.987984	-1.072350
C50	C	-0.679747	-0.915906	-1.126389
C51	C	-0.695339	-0.898081	-1.222314
C52	C	-0.647871	-0.952325	-1.264210
C53	C	-0.601092	-1.005813	-0.976415
C54	C	-0.711626	-0.879492	-0.988568
C55	C	-0.727214	-0.861662	-1.084493
C56	C	-0.554179	-1.059467	-0.354185
C57	C	-0.537337	-1.078646	-0.252056
H58	H	-0.503978	-0.529039	-0.503981
C59	C	-0.941805	-0.819877	-0.763502
C60	C	-0.865177	-0.775460	-0.708651
C61	C	-0.819107	-0.715780	-0.760807
C62	C	-0.849665	-0.700519	-0.867815
C63	C	-0.926298	-0.744938	-0.922673
C64	C	-0.972368	-0.804617	-0.870516
H65	H	-0.842552	-0.786756	-0.629432
H66	H	-0.762379	-0.682899	-0.720198
H67	H	-0.815562	-0.656341	-0.906425
H68	H	-0.948922	-0.733642	-1.001892
H69	H	-1.029096	-0.837499	-0.911126
H70	H	-0.682135	-0.501917	-0.681736
C71	C	-0.531725	-1.085091	-0.916978
C72	C	-0.429001	-1.095445	-0.912761
C73	C	-0.359628	-1.174727	-0.853324
C74	C	-0.392978	-1.243655	-0.798103
C75	C	-0.495706	-1.233303	-0.802318
C76	C	-0.565080	-1.154021	-0.861756
H77	H	-0.404309	-1.044419	-0.953640
H78	H	-0.283582	-1.182390	-0.850204
H79	H	-0.341624	-1.302344	-0.754104
H80	H	-0.520398	-1.284329	-0.761439
H81	H	-0.641126	-1.146358	-0.864876
H82	H	-0.435638	-1.194881	-1.232139
C83	C	-0.916224	-1.085155	-0.531526
C84	C	-0.912055	-1.095515	-0.428818
C85	C	-0.852594	-1.174794	-0.359466
C86	C	-0.797303	-1.243713	-0.392822
C87	C	-0.801470	-1.233356	-0.495535
C88	C	-0.860930	-1.154077	-0.564887
H89	H	-0.952986	-1.044495	-0.404122
H90	H	-0.849509	-1.182461	-0.283431
H91	H	-0.753286	-1.302400	-0.341483
H92	H	-0.760538	-1.284376	-0.520232
H93	H	-0.864015	-1.146410	-0.640922
H94	H	-0.981330	-1.128895	-0.493309
H95	H	-1.057322	-1.227316	-0.407293
C96	C	-0.796589	-0.782387	-1.143948
C97	C	-0.899315	-0.772036	-1.148175
C98	C	-0.968692	-0.692764	-1.207633
C99	C	-0.935343	-0.623844	-1.262864
C100	C	-0.832612	-0.634193	-1.258639
C101	C	-0.763235	-0.713465	-1.199181
H102	H	-0.924006	-0.823056	-1.107288
H103	H	-1.044741	-0.685103	-1.210760
H104	H	-0.986700	-0.565162	-1.306878
H105	H	-0.807921	-0.583172	-1.299526
H106	H	-0.687187	-0.721125	-1.196054
H107	H	-1.127839	-0.803070	-0.778314
H108	H	-0.660560	-0.937812	-1.342320
C109	C	-0.389323	-1.247829	-1.042652
C110	C	-0.337107	-1.307497	-1.088729
C111	C	-0.267740	-1.386780	-1.029287
C112	C	-0.250588	-1.406396	-0.923769
C113	C	-0.302805	-1.346727	-0.877686
C114	C	-0.372173	-1.267443	-0.937128
H115	H	-0.349802	-1.292977	-1.166845
H116	H	-0.229085	-1.430951	-1.063401
H117	H	-0.199238	-1.465087	-0.879766
H118	H	-0.290110	-1.361247	-0.799570
H119	H	-0.410827	-1.223272	-0.903014
H120	H	-0.750280	-0.835323	-0.954458
C121	C	-1.243351	-1.210497	-0.422117
C122	C	-1.348885	-1.190897	-0.439312
C123	C	-1.394960	-1.250570	-0.387155
C124	C	-1.335502	-1.329844	-0.317803
C125	C	-1.229963	-1.349448	-0.300605
C126	C	-1.183887	-1.289775	-0.352762
H127	H	-1.392905	-1.132211	-0.490654
H128	H	-1.473088	-1.236058	-0.399887
H129	H	-1.369610	-1.374017	-0.279194
H130	H	-1.185943	-1.408134	-0.249263
H131	H	-1.105760	-1.304287	-0.340030
H132	H	-1.265647	-0.839497	-0.746523
C133	C	-0.764701	-0.818799	-1.281770
C134	C	-0.731330	-0.749889	-1.336992
C135	C	-0.800688	-0.670607	-1.396450
C136	C	-0.903418	-0.660234	-1.400687
C137	C	-0.936794	-0.729146	-1.345463
C138	C	-0.867435	-0.808428	-1.286004
H139	H	-0.655279	-0.757566	-1.333858
H140	H	-0.775981	-0.619594	-1.437331
H141	H	-0.954761	-0.601545	-1.444702
H142	H	-1.012845	-0.721469	-1.348597
H143	H	-0.892143	-0.859441	-1.245124
H144	H	-1.341644	-0.937940	-0.660509
H145	H	-0.493457	-1.128827	-0.982090
