data_functionalizedCrystal
_audit_creation_method	'MofGen! by Chris Wilmer'
_symmetry_space_group_name_H-M	'P1'
_symmetry_Int_Tables_number	1
_symmetry_cell_setting	triclinic
loop_
_symmetry_equiv_pos_as_xyz
  x,y,z
_cell_length_a	14.908571
_cell_length_b	13.032721
_cell_length_c	13.032268
_cell_angle_alpha	103.289627
_cell_angle_beta	85.702822
_cell_angle_gamma	85.672883
loop_
_atom_site_label
_atom_site_type_symbol
_atom_site_fract_x
_atom_site_fract_y
_atom_site_fract_z
Zn1	Zn	1.232048	0.593523	0.748408
Zn2	Zn	1.732048	1.093523	1.248408
Zn3	Zn	1.231951	0.748599	0.593348
Zn4	Zn	1.731951	1.248599	1.093348
Zn5	Zn	1.105258	0.561299	0.561133
Zn6	Zn	1.605258	1.061299	1.061133
Zn7	Zn	1.062071	0.758051	0.757901
Zn8	Zn	1.562071	1.258051	1.257901
O9	O	1.157832	0.665368	0.665197
O10	O	1.657832	1.165368	1.165197
O11	O	1.356192	0.623624	0.737348
O12	O	1.856192	1.123624	1.237348
O13	O	1.233178	0.706312	0.441834
O14	O	1.733178	1.206312	0.941834
O15	O	1.140192	0.418331	0.568520
O16	O	1.640192	0.918331	1.068520
O17	O	1.356121	0.737558	0.623427
O18	O	1.856121	1.237558	1.123427
O19	O	1.233344	0.442006	0.706110
O20	O	1.733344	0.942006	1.206110
O21	O	1.140098	0.568703	0.418165
O22	O	1.640098	1.068703	0.918165
O23	O	0.975372	0.577868	0.577725
O24	O	1.475372	1.077868	1.077725
O25	O	1.066586	0.753668	0.903882
O26	O	1.566586	1.253668	1.403882
O27	O	0.943643	0.722421	0.722289
O28	O	1.443643	1.222421	1.222289
O29	O	1.191467	0.632789	0.896908
O30	O	1.691467	1.132789	1.396908
O31	O	1.191302	0.897095	0.632631
O32	O	1.691302	1.397095	1.132631
O33	O	1.066492	0.904039	0.753527
O34	O	1.566492	1.404039	1.253527
C35	C	0.927315	0.647675	0.647542
C36	C	1.427315	1.147675	1.147542
C37	C	0.828692	0.640133	0.640017
C38	C	1.328692	1.140133	1.140017
C39	C	1.124220	0.697877	0.939641
C40	C	1.624220	1.197877	1.439641
C41	C	1.109896	0.711731	1.056592
C42	C	1.609896	1.211731	1.556592
C43	C	1.124221	0.938750	0.697630
C44	C	1.624221	1.438750	1.197630
C45	C	1.109919	1.055715	0.711546
C46	C	1.609919	1.555715	1.211546
C47	C	0.610376	0.776674	0.776256
C48	C	1.110376	1.276674	1.276256
C49	C	0.517710	0.769592	0.769190
C50	C	1.017710	1.269592	1.269190
C51	C	0.550694	0.618884	0.618824
C52	C	1.050694	1.118884	1.118824
C53	C	0.643360	0.625966	0.625890
C54	C	1.143360	1.125966	1.125890
C55	C	0.673196	0.704865	0.704608
C56	C	1.173196	1.204865	1.204608
C57	C	0.765864	0.711950	0.711669
C58	C	1.265864	1.211950	1.211669
C59	C	0.798846	0.561238	0.561308
C60	C	1.298846	1.061238	1.061308
C61	C	0.706181	0.554157	0.554242
C62	C	1.206181	1.054157	1.054242
C63	C	1.389249	0.683131	0.682922
C64	C	1.889249	1.183131	1.182922
C65	C	1.487866	0.690701	0.690475
C66	C	1.987866	1.190701	1.190475
C67	C	1.191596	0.390923	0.632663
C68	C	1.691596	0.890923	1.132663
C69	C	1.205984	0.273971	0.618798
C70	C	1.705984	0.773971	1.118798
C71	C	1.165338	1.104400	0.657985
C72	C	1.665338	1.604400	1.157985
C73	C	1.150557	1.225289	0.672367
C74	C	1.650557	1.725289	1.172367
C75	C	1.191374	0.632913	0.391817
C76	C	1.691374	1.132913	0.891817
C77	C	1.205906	0.618776	0.274844
C78	C	1.705906	1.118776	0.774844
C79	C	1.165299	0.658099	1.105282
C80	C	1.665299	1.158099	1.605282
C81	C	1.150496	0.672416	1.226157
C82	C	1.650496	1.172416	1.726157
H83	H	0.790155	0.776195	0.775763
H84	H	1.290155	1.276195	1.275763
N85	N	0.449957	0.847053	0.846464
N86	N	0.949957	1.347053	1.346464
H87	H	0.410768	0.887736	0.806469
H88	H	0.910768	1.387736	1.306469
H89	H	0.410843	0.807142	0.887280
H90	H	0.910843	1.307142	1.387280
H91	H	0.634669	0.840921	0.840346
H92	H	1.134669	1.340921	1.340346
H93	H	1.264380	1.226160	0.562296
H94	H	1.764380	1.726160	1.062296
H95	H	1.223687	0.601579	1.057479
H96	H	1.723687	1.101579	1.557479
N97	N	1.073131	0.747268	1.289456
N98	N	1.573131	1.247268	1.789456
H99	H	1.073518	0.746879	1.366832
H100	H	1.573518	1.246879	1.866832
H101	H	1.080015	0.821227	1.280277
H102	H	1.580015	1.321227	1.780277
H103	H	0.850006	0.502768	0.502965
H104	H	1.350006	1.002768	1.002965
N105	N	1.283260	0.543903	1.211550
N106	N	1.783260	1.043903	1.711550
H107	H	1.258748	0.487011	1.157414
H108	H	1.758748	0.987011	1.657414
H109	H	1.324634	0.584534	1.174241
H110	H	1.824634	1.084534	1.674241
N111	N	0.518504	0.533826	0.533895
N112	N	1.018504	1.033826	1.033895
H113	H	0.450268	0.540251	0.540284
H114	H	0.950268	1.040251	1.040284
H115	H	0.541903	0.542471	0.461907
H116	H	1.041903	1.042471	0.961907
N117	N	0.673997	0.469082	0.469324
N118	N	1.173997	0.969082	0.969324
H119	H	0.605761	0.475497	0.475711
H120	H	1.105761	0.975497	0.975711
H121	H	0.697394	0.477712	0.397330
H122	H	1.197394	0.977712	0.897330
N123	N	1.032542	0.786580	1.119908
N124	N	1.532542	1.286580	1.619908
H125	H	1.057051	0.843470	1.174050
H126	H	1.557051	1.343470	1.674050
H127	H	0.997625	0.820329	1.070742
H128	H	1.497625	1.320329	1.570742
N129	N	1.242690	1.041077	0.583146
N130	N	1.742690	1.541077	1.083146
H131	H	1.242286	0.963694	0.583483
H132	H	1.742286	1.463694	1.083483
H133	H	1.235809	1.050314	0.509199
H134	H	1.735809	1.550314	1.009199
N135	N	1.073211	1.288610	0.747224
N136	N	1.573211	1.788610	1.247224
H137	H	1.073616	1.365993	0.746889
H138	H	1.573616	1.865993	1.246889
H139	H	1.014186	1.262722	0.723680
H140	H	1.514186	1.762722	1.223680
N141	N	1.032577	1.119040	0.786400
N142	N	1.532577	1.619040	1.286400
H143	H	1.032982	1.196423	0.786064
H144	H	1.532982	1.696423	1.286064
H145	H	0.973552	1.093152	0.762855
H146	H	1.473552	1.593152	1.262855
