data_functionalizedCrystal
_audit_creation_method	'MofGen! by Chris Wilmer'
_symmetry_space_group_name_H-M	'P1'
_symmetry_Int_Tables_number	1
_symmetry_cell_setting	triclinic
loop_
_symmetry_equiv_pos_as_xyz
  x,y,z
_cell_length_a	11.792254
_cell_length_b	11.792253
_cell_length_c	14.421503
_cell_angle_alpha	90.003475
_cell_angle_beta	90.007906
_cell_angle_gamma	95.801402
loop_
_atom_site_label
_atom_site_type_symbol
_atom_site_fract_x
_atom_site_fract_y
_atom_site_fract_z
O1	O	1.506888	-0.155626	-0.077123
O2	O	1.840221	0.177707	0.256210
O3	O	2.173555	0.511041	0.589543
O4	O	1.176549	-0.171644	-0.077127
O5	O	1.509883	0.161689	0.256207
O6	O	1.843216	0.495023	0.589540
O7	O	1.349728	0.001534	-0.077106
O8	O	1.683061	0.334868	0.256228
O9	O	2.016394	0.668201	0.589561
O10	O	1.333710	-0.328804	-0.077144
O11	O	1.667043	0.004529	0.256189
O12	O	2.000376	0.337862	0.589522
O13	O	1.349751	0.001521	0.077118
O14	O	1.683085	0.334854	0.410451
O15	O	2.016418	0.668188	0.743784
O16	O	1.176573	-0.171657	0.077097
O17	O	1.509906	0.161676	0.410430
O18	O	1.843240	0.495010	0.743763
O19	O	1.506912	-0.155639	0.077100
O20	O	1.840245	0.177694	0.410433
O21	O	2.173578	0.511027	0.743767
Cu22	Cu	1.341745	-0.163649	0.091180
Cu23	Cu	1.675078	0.169684	0.424514
Cu24	Cu	2.008411	0.503017	0.757847
Cu25	Cu	1.341716	-0.163634	-0.091207
Cu26	Cu	1.675050	0.169699	0.242127
Cu27	Cu	2.008383	0.503033	0.575460
O28	O	1.333733	-0.328817	0.077079
O29	O	1.667067	0.004516	0.410412
O30	O	2.000400	0.337849	0.743746
C31	C	1.134271	-0.170642	-0.000015
C32	C	1.467604	0.162692	0.333318
C33	C	1.800937	0.496025	0.666652
C34	C	1.008257	-0.167621	-0.000015
C35	C	1.341591	0.165712	0.333318
C36	C	1.674924	0.499045	0.666651
C37	C	1.348730	0.043818	0.000009
C38	C	1.682064	0.377152	0.333342
C39	C	2.015397	0.710485	0.666676
C40	C	1.345710	0.169832	0.000018
C41	C	1.679044	0.503165	0.333351
C42	C	2.012377	0.836498	0.666685
C43	C	0.905921	-0.165168	-0.000019
C44	C	1.239254	0.168166	0.333314
C45	C	1.572587	0.501499	0.666648
C46	C	0.777534	-0.162099	-0.000019
C47	C	1.110867	0.171234	0.333314
C48	C	1.444201	0.504568	0.666647
C49	C	1.549190	-0.156642	-0.000013
C50	C	1.882524	0.176692	0.333320
C51	C	2.215857	0.510025	0.666653
C52	C	1.675204	-0.159662	-0.000019
C53	C	2.008537	0.173671	0.333314
C54	C	2.341870	0.507005	0.666647
C55	C	1.343256	0.272168	0.000022
C56	C	1.676590	0.605502	0.333356
C57	C	2.009923	0.938835	0.666689
C58	C	1.340188	0.400555	0.000024
C59	C	1.673521	0.733888	0.333357
C60	C	2.006855	1.067222	0.666690
N61	N	1.341772	-0.163660	0.219462
N62	N	1.675106	0.169674	0.552795
N63	N	2.008439	0.503007	0.886128
C64	C	1.334731	0.628898	-0.000018
C65	C	1.668064	0.962232	0.333315
C66	C	2.001397	1.295565	0.666648
C67	C	1.337751	0.502885	0.000024
C68	C	1.671084	0.836219	0.333358
C69	C	2.004417	1.169552	0.666691
C70	C	1.421871	-0.083567	0.469100
C71	C	1.755205	0.249766	0.802433
C72	C	2.088538	0.583099	1.135767
C73	C	1.319177	-0.060889	0.530899
C74	C	1.652510	0.272444	0.864232
C75	C	1.985844	0.605778	1.197566
C76	C	1.341750	-0.163648	0.408623
C77	C	1.675083	0.169686	0.741956
C78	C	2.008417	0.503019	1.075290
C79	C	1.444423	-0.186261	0.530918
C80	C	1.777756	0.147072	0.864251
C81	C	2.111089	0.480405	1.197584
C82	C	1.341738	-0.163634	0.591344
C83	C	1.675071	0.169700	0.924678
C84	C	2.008404	0.503033	1.258011
C85	C	1.239004	-0.140919	0.469061
C86	C	1.572337	0.192415	0.802395
C87	C	1.905671	0.525748	1.135728
C88	C	1.364317	-0.266336	0.469074
C89	C	1.697650	0.066997	0.802408
C90	C	2.030984	0.400331	1.135741
C91	C	1.261549	-0.243701	0.530846
C92	C	1.594883	0.089632	0.864179
C93	C	1.928216	0.422966	1.197512
C94	C	1.341759	-0.163653	0.303362
C95	C	1.675092	0.169680	0.636695
C96	C	2.008426	0.503014	0.970029
C97	C	1.341717	-0.163630	0.696603
C98	C	1.675051	0.169704	1.029937
C99	C	2.008384	0.503037	1.363270
N100	N	1.341713	-0.163626	0.780512
N101	N	1.675047	0.169708	1.113845
N102	N	2.008380	0.503041	1.447179
H103	H	1.489554	-0.015806	0.441988
H104	H	1.822887	0.317527	0.775321
H105	H	2.156220	0.650860	1.108654
H106	H	1.152149	-0.121687	0.442005
H107	H	1.485483	0.211646	0.775338
H108	H	1.818816	0.544979	1.108671
H109	H	1.193714	-0.311420	0.557786
H110	H	1.527047	0.021913	0.891119
H111	H	1.860380	0.355246	1.224453
H112	H	1.383450	-0.353156	0.441898
H113	H	1.716783	-0.019822	0.775231
H114	H	2.050117	0.313511	1.108564
H115	H	1.531256	-0.205395	0.558089
H116	H	1.864590	0.127939	0.891422
H117	H	2.197923	0.461272	1.224755
H118	H	1.300076	0.025958	0.558056
H119	H	1.633409	0.359291	0.891390
H120	H	1.966743	0.692624	1.224723
