data_functionalizedCrystal
_audit_creation_method	'MofGen! by Chris Wilmer'
_symmetry_space_group_name_H-M	'P1'
_symmetry_Int_Tables_number	1
_symmetry_cell_setting	triclinic
loop_
_symmetry_equiv_pos_as_xyz
  x,y,z
_cell_length_a	16.120530
_cell_length_b	19.805405
_cell_length_c	19.805399
_cell_angle_alpha	89.970699
_cell_angle_beta	87.084478
_cell_angle_gamma	87.121765
loop_
_atom_site_label
_atom_site_type_symbol
_atom_site_fract_x
_atom_site_fract_y
_atom_site_fract_z
Zn1	Zn	1.274516	-0.322020	-0.435096
Zn2	Zn	1.274411	-0.435204	-0.321900
Zn3	Zn	1.135102	-0.316291	-0.316191
Zn4	Zn	1.135057	-0.429423	-0.429319
O5	O	1.204772	-0.375735	-0.375627
O6	O	1.391168	-0.341851	-0.424888
O7	O	1.255907	-0.419452	-0.226425
O8	O	1.153659	-0.222337	-0.331992
O9	O	1.391091	-0.425007	-0.341723
O10	O	1.256085	-0.226546	-0.419351
O11	O	1.153557	-0.332087	-0.222231
O12	O	1.018431	-0.326482	-0.326390
O13	O	1.153582	-0.415154	-0.524803
O14	O	1.018398	-0.409599	-0.409506
O15	O	1.256042	-0.336245	-0.529048
O16	O	1.255863	-0.529151	-0.336122
O17	O	1.153480	-0.524904	-0.415042
C18	C	0.988164	-0.366792	-0.366702
C19	C	0.895499	-0.362983	-0.362900
C20	C	1.204678	-0.551587	-0.375590
C21	C	1.204714	-0.626820	-0.375600
C22	C	1.258077	-0.664356	-0.334554
C23	C	1.258112	-0.735045	-0.334570
C24	C	1.204780	-0.768199	-0.375630
C25	C	1.151415	-0.730658	-0.416681
C26	C	1.151385	-0.659970	-0.416668
C27	C	1.151538	-1.015737	-0.416736
C28	C	1.151571	-1.086430	-0.416745
C29	C	1.258266	-1.090812	-0.334639
C30	C	1.258235	-1.020124	-0.334626
C31	C	1.204874	-0.982590	-0.375679
C32	C	1.204837	-0.905940	-0.375662
C33	C	1.204812	-0.844847	-0.375644
C34	C	0.725838	-0.356012	-0.355964
C35	C	0.684546	-0.395507	-0.395339
C36	C	0.590141	-0.391628	-0.391480
C37	C	0.820252	-0.359890	-0.359822
C38	C	1.422225	-0.384712	-0.384587
C39	C	1.514890	-0.388538	-0.388405
C40	C	1.204819	-0.375694	-0.552171
C41	C	1.204838	-0.375677	-0.627404
C42	C	1.204889	-0.199197	-0.375679
C43	C	1.204938	-0.123967	-0.375702
C44	C	1.258190	-0.334587	-0.664960
C45	C	1.258199	-0.334567	-0.735648
C46	C	1.204859	-0.375642	-0.768781
C47	C	1.151501	-0.416734	-0.731220
C48	C	1.151489	-0.416749	-0.660533
C49	C	1.151548	-0.416672	-1.016296
C50	C	1.151566	-0.416656	-1.086989
C51	C	1.258258	-0.334491	-1.091412
C52	C	1.258246	-0.334506	-1.020724
C53	C	1.204885	-0.375595	-0.983169
C54	C	1.204876	-0.375614	-0.906521
C55	C	1.204873	-0.375627	-0.845429
C56	C	1.204773	-0.375728	-0.199771
C57	C	1.204915	-0.375562	-0.124545
H58	H	1.301502	-0.637367	-0.301115
H59	H	1.108111	-0.450140	-0.985728
C60	C	1.316896	-0.983659	-0.289450
N61	N	1.361082	-0.956195	-0.255423
H62	H	1.107933	-0.629409	-0.450093
H63	H	0.690290	-0.319290	-0.319359
C64	C	0.732571	-0.445126	-0.444790
N65	N	0.768746	-0.482501	-0.482032
C66	C	1.316810	-0.776331	-0.289411
N67	N	1.361022	-0.807427	-0.255395
C68	C	1.092882	-0.974460	-0.461933
N69	N	1.048714	-0.943369	-0.495990
H70	H	1.107995	-0.757657	-0.450116
C71	C	1.316869	-0.289400	-0.628521
N72	N	1.361064	-0.255361	-0.601077
H73	H	1.301718	-1.121381	-0.301214
C74	C	1.316892	-0.289366	-0.776956
N75	N	1.361102	-0.255319	-0.808069
C76	C	1.092819	-0.461909	-0.767668
N77	N	1.048617	-0.495936	-0.795120
C78	C	1.092903	-1.122897	-0.461920
N79	N	1.048717	-1.150364	-0.495944
H80	H	1.301684	-0.301061	-0.993751
H81	H	1.301704	-0.301032	-1.121997
H82	H	1.108127	-0.450105	-1.113963
C83	C	1.092799	-0.461952	-0.619222
N84	N	1.048590	-0.496000	-0.588108
