data_functionalizedCrystal
_audit_creation_method	'MofGen! by Chris Wilmer'
_symmetry_space_group_name_H-M	'P1'
_symmetry_Int_Tables_number	1
_symmetry_cell_setting	triclinic
loop_
_symmetry_equiv_pos_as_xyz
  x,y,z
_cell_length_a	12.759387
_cell_length_b	12.759401
_cell_length_c	12.759399
_cell_angle_alpha	89.984607
_cell_angle_beta	90.031346
_cell_angle_gamma	89.980252
loop_
_atom_site_label
_atom_site_type_symbol
_atom_site_fract_x
_atom_site_fract_y
_atom_site_fract_z
Zn1	Zn	-0.593980	1.606265	0.418203
Zn2	Zn	-0.418299	1.606154	0.593920
Zn3	Zn	-0.418319	1.430563	0.418257
Zn4	Zn	-0.593940	1.430554	0.593841
O5	O	-0.506134	1.518384	0.506055
O6	O	-0.570683	1.753271	0.441523
O7	O	-0.271280	1.582819	0.570673
O8	O	-0.441646	1.453920	0.271228
O9	O	-0.441611	1.753190	0.570621
O10	O	-0.570703	1.583008	0.271189
O11	O	-0.271295	1.453813	0.441614
O12	O	-0.441607	1.283541	0.441538
O13	O	-0.740966	1.453905	0.570487
O14	O	-0.570635	1.283534	0.570539
O15	O	-0.740996	1.582999	0.441447
O16	O	-0.441573	1.582810	0.740931
O17	O	-0.570616	1.453798	0.740873
C18	C	-0.506120	1.245417	0.506037
C19	C	-0.506139	1.128640	0.506054
C20	C	-0.573225	0.964071	0.573343
C21	C	-0.573214	1.073795	0.573331
C22	C	-0.439062	1.073755	0.438791
C23	C	-0.439069	0.964033	0.438809
C24	C	-0.780168	1.518463	0.505952
C25	C	-0.896945	1.518497	0.505908
C26	C	-0.896995	1.652932	0.371547
C27	C	-0.951881	1.720164	0.304351
C28	C	-1.061603	1.720189	0.304313
C29	C	-1.116441	1.652973	0.371476
C30	C	-1.061555	1.585742	0.438672
C31	C	-0.951831	1.585726	0.438705
C32	C	-1.061505	1.451303	0.573026
C33	C	-0.951783	1.451281	0.573072
C34	C	-1.116343	1.384087	0.640189
C35	C	-1.061457	1.316859	0.707393
C36	C	-0.951729	1.316837	0.707429
C37	C	-0.896897	1.384050	0.640268
C38	C	-0.233167	1.518366	0.506082
C39	C	-0.116391	1.518535	0.505830
C40	C	-0.506110	1.518320	0.779023
C41	C	-0.506135	1.518388	0.895799
C42	C	-0.506149	1.792417	0.506075
C43	C	-0.506156	1.909194	0.506083
C44	C	-0.506181	1.518477	0.232022
C45	C	-0.506201	1.518517	0.115245
C46	C	-0.439019	1.585642	0.950656
C47	C	-0.439054	1.585709	1.060380
C48	C	-0.573325	1.451261	1.060381
C49	C	-0.573294	1.451199	0.950659
H50	H	-0.384448	0.919351	0.384036
H51	H	-0.384336	1.640353	0.905993
O52	O	-0.638350	0.910637	0.638599
C53	C	-0.623959	0.802025	0.624213
H54	H	-0.589696	0.787031	0.543094
H55	H	-0.702646	0.760357	0.631444
H56	H	-0.567902	0.770859	0.686468
O57	O	-0.374014	1.651063	1.113830
C58	C	-0.388454	1.636731	1.222438
H59	H	-0.469479	1.602212	1.237366
H60	H	-0.381507	1.715482	1.264043
H61	H	-0.326053	1.580912	1.253729
H62	H	-0.807654	1.652928	0.371581
O63	O	-0.638454	1.386023	1.113835
C64	C	-0.624107	1.400513	1.222443
H65	H	-0.543061	1.434973	1.237467
H66	H	-0.631175	1.321835	1.264200
H67	H	-0.686482	1.456445	1.253485
O68	O	-1.222926	1.383940	0.640063
C69	C	-1.259578	1.283261	0.613079
H70	H	-1.196355	1.239836	0.567283
H71	H	-1.332999	1.290823	0.562686
H72	H	-1.279018	1.237715	0.687447
O73	O	-0.898448	1.785427	0.239216
C74	C	-0.789835	1.770978	0.253639
H75	H	-0.774828	1.736523	0.334715
H76	H	-0.748151	1.849671	0.246549
H77	H	-0.758699	1.715058	0.191317
O78	O	-1.114762	1.785595	0.239005
C79	C	-1.042840	1.844893	0.179711
H80	H	-0.964614	1.848501	0.222764
H81	H	-1.074561	1.927680	0.168508
H82	H	-1.031186	1.806451	0.099915
H83	H	-0.627954	1.396433	0.905991
O84	O	-1.114609	1.251624	0.772773
C85	C	-1.087810	1.274555	0.877501
H86	H	-1.008151	1.314927	0.879720
H87	H	-1.084039	1.198711	0.924603
H88	H	-1.149569	1.328567	0.912868
H89	H	-0.907047	1.262077	0.762137
H90	H	-0.807556	1.384043	0.640295
O91	O	-0.638467	1.126940	0.638698
C92	C	-0.697656	1.055004	0.698096
H93	H	-0.701372	0.976799	0.655076
H94	H	-0.780413	1.086739	0.709394
H95	H	-0.659049	1.043307	0.777846
O96	O	-0.373750	1.126985	0.373555
C97	C	-0.269002	1.100111	0.396384
H98	H	-0.263558	1.069934	0.480313
H99	H	-0.217110	1.172251	0.387267
H100	H	-0.241636	1.036421	0.340032
H101	H	-1.205782	1.652991	0.371430
