data_functionalizedCrystal
_audit_creation_method	'MofGen! by Chris Wilmer'
_symmetry_space_group_name_H-M	'P1'
_symmetry_Int_Tables_number	1
_symmetry_cell_setting	triclinic
loop_
_symmetry_equiv_pos_as_xyz
  x,y,z
_cell_length_a	10.540535
_cell_length_b	14.185569
_cell_length_c	15.538191
_cell_angle_alpha	97.872928
_cell_angle_beta	114.102132
_cell_angle_gamma	103.291446
loop_
_atom_site_label
_atom_site_type_symbol
_atom_site_fract_x
_atom_site_fract_y
_atom_site_fract_z
O1	O	1.584816	-0.083354	-0.153406
O2	O	1.209496	-0.083367	-0.165883
O3	O	1.470213	-0.083363	-0.023007
O4	O	1.324099	-0.083359	-0.296283
O5	O	1.547229	0.083473	0.019196
O6	O	1.286512	0.083468	-0.123681
O7	O	1.661832	0.083482	-0.111204
Cu8	Cu	1.481204	0.098708	-0.113589
Cu9	Cu	1.390124	-0.098594	-0.163498
O10	O	1.401115	0.083477	-0.254081
C11	C	1.201142	0.000049	-0.143848
C12	C	1.061514	0.000043	-0.141053
C13	C	1.074186	0.000046	-0.036736
C14	C	0.929156	0.000434	-0.033695
C15	C	0.873554	0.095142	-0.164616
C16	C	1.019302	0.095212	-0.166818
C17	C	0.930884	-0.094518	-0.216330
C18	C	0.786247	-0.095758	-0.211819
C19	C	1.524007	0.000052	0.033087
C20	C	1.569540	0.000044	0.137353
C21	C	1.670185	0.000063	-0.133240
C22	C	1.809810	0.000062	-0.136036
N23	N	1.545274	0.237481	-0.078485
N24	N	1.326067	-0.237366	-0.198595
C25	C	1.137846	0.605124	-0.301690
C26	C	1.186385	0.710146	-0.275105
C27	C	1.417263	0.710111	-0.148635
C28	C	1.368741	0.605086	-0.175206
C29	C	1.229032	0.552601	-0.251735
C30	C	1.459927	0.552564	-0.125251
C31	C	1.411411	0.447548	-0.151824
C32	C	1.271710	0.395056	-0.228351
C33	C	1.180517	0.447586	-0.278307
C34	C	1.599639	0.605051	-0.048728
C35	C	1.690824	0.552529	0.001227
C36	C	1.642305	0.447511	-0.025340
C37	C	1.502604	0.395018	-0.101868
C38	C	1.733498	0.394981	0.024616
C39	C	1.684983	0.289966	-0.001956
C40	C	1.454089	0.290003	-0.128440
C41	C	1.347320	0.000060	-0.310175
C42	C	1.301784	0.000062	-0.414442
C43	C	1.117148	0.000049	0.428183
C44	C	1.159970	0.000053	0.526162
C45	C	1.400829	0.000061	0.546989
C46	C	1.358025	0.000052	0.449009
C47	C	1.216183	0.000048	0.389613
C48	C	1.457060	0.000051	0.410439
C49	C	1.414261	0.000047	0.312468
C50	C	1.272427	0.000046	0.253067
C51	C	1.173384	0.000044	0.291642
C52	C	1.598905	0.000063	0.469838
C53	C	1.697940	0.000061	0.431269
C54	C	1.655138	0.000051	0.333294
C55	C	1.513304	0.000049	0.273893
C56	C	1.754181	0.000052	0.294719
C57	C	1.711382	0.000048	0.196748
C58	C	1.470505	0.000045	0.175922
H59	H	0.916341	-0.095437	-0.293313
H60	H	1.531017	0.752857	-0.086327
H61	H	1.639137	0.690561	-0.027099
Cl62	Cl	0.747799	0.100195	-0.279569
H63	H	1.847256	0.437729	0.086920
Cl64	Cl	0.865347	-0.104774	0.003241
H65	H	0.699116	-0.101794	-0.287968
H66	H	1.804579	0.595274	0.063535
H67	H	1.103631	-0.068128	-0.013923
Cl68	Cl	1.799623	0.223936	0.060844
Cl69	Cl	1.218563	0.105160	0.050669
H70	H	1.109221	0.166557	-0.113226
H71	H	0.951726	0.068993	0.024606
Cl72	Cl	1.278441	0.224018	-0.224640
Cl73	Cl	1.292181	0.000029	0.101243
Cl74	Cl	1.210721	0.263034	-0.261761
H75	H	1.792027	0.000048	0.165345
H76	H	1.001643	0.000038	0.379817
Cl77	Cl	1.035455	0.000062	0.574647
Cl78	Cl	1.004869	0.381600	-0.374507
H79	H	1.237585	0.000049	0.173295
H80	H	1.057879	0.000033	0.243276
Cl81	Cl	1.652712	0.000074	0.593005
Cl82	Cl	1.001915	0.101477	-0.283298
H83	H	1.024076	0.562388	-0.364000
Cl84	Cl	1.071731	0.776167	-0.337920
Cl85	Cl	0.902847	0.204810	-0.081126
H86	H	1.516319	0.000069	0.595363
Cl87	Cl	1.876252	0.000075	0.505947
H88	H	0.955459	-0.166610	-0.202015
H89	H	1.869673	0.000066	0.343096
H90	H	0.743290	-0.166100	-0.191311
