data_functionalizedCrystal
_audit_creation_method	'MofGen! by Chris Wilmer'
_symmetry_space_group_name_H-M	'P1'
_symmetry_Int_Tables_number	1
_symmetry_cell_setting	triclinic
loop_
_symmetry_equiv_pos_as_xyz
  x,y,z
_cell_length_a	12.759401
_cell_length_b	13.897441
_cell_length_c	12.759400
_cell_angle_alpha	89.972155
_cell_angle_beta	90.014606
_cell_angle_gamma	89.982530
loop_
_atom_site_label
_atom_site_type_symbol
_atom_site_fract_x
_atom_site_fract_y
_atom_site_fract_z
Zn1	Zn	1.606235	-0.545364	-0.418245
Zn2	Zn	1.606136	-0.384071	-0.593953
Zn3	Zn	1.430543	-0.384086	-0.418288
Zn4	Zn	1.430526	-0.545326	-0.593882
O5	O	1.518360	-0.464712	-0.506092
O6	O	1.753243	-0.523978	-0.441565
O7	O	1.582809	-0.249091	-0.570698
O8	O	1.453898	-0.405502	-0.271261
O9	O	1.753170	-0.405476	-0.570656
O10	O	1.582978	-0.523992	-0.271230
O11	O	1.453802	-0.249102	-0.441638
O12	O	1.283520	-0.405465	-0.441569
O13	O	1.453869	-0.680313	-0.570536
O14	O	1.283507	-0.523928	-0.570578
O15	O	1.582962	-0.680341	-0.441496
O16	O	1.582792	-0.405439	-0.740964
O17	O	1.453772	-0.523913	-0.740913
C18	C	1.245393	-0.464695	-0.506072
C19	C	1.128616	-0.464710	-0.506088
C20	C	0.964005	-0.403147	-0.438845
C21	C	1.073729	-0.403136	-0.438825
C22	C	1.073773	-0.526307	-0.573368
C23	C	0.964051	-0.526322	-0.573383
C24	C	0.963980	-0.332033	-0.361170
C25	C	1.073704	-0.332022	-0.361150
C26	C	1.518424	-0.716305	-0.506004
C27	C	1.518452	-0.823519	-0.505966
C28	C	1.518473	-0.910589	-0.505936
C29	C	1.518504	-1.019821	-0.505889
C30	C	1.792393	-0.464729	-0.506113
C31	C	1.909170	-0.464737	-0.506122
C32	C	1.518298	-0.464692	-0.779059
C33	C	1.518367	-0.464715	-0.895836
C34	C	1.518357	-0.214097	-0.506104
C35	C	1.518533	-0.106884	-0.505846
C36	C	1.585622	-0.403094	-0.950690
C37	C	1.585687	-0.403124	-1.060414
C38	C	1.451232	-0.526399	-1.060420
C39	C	1.451174	-0.526373	-0.950698
C40	C	1.663246	-0.331919	-0.950687
C41	C	1.663310	-0.331949	-1.060411
C42	C	1.518451	-0.464753	-0.232059
C43	C	1.518490	-0.464771	-0.115282
H44	H	1.107757	-0.358898	-0.283883
O45	O	0.910947	-0.586183	-0.638832
C46	C	0.982918	-0.640547	-0.698175
H47	H	1.061112	-0.601022	-0.701750
H48	H	0.994626	-0.713863	-0.659794
C49	C	0.844052	-0.702828	-0.805627
C50	C	0.940090	-0.654280	-0.810025
H51	H	0.817633	-0.711304	-0.874620
H52	H	0.795563	-0.666206	-0.765644
H53	H	0.853822	-0.763920	-0.773638
H54	H	0.930316	-0.593186	-0.842001
H55	H	0.988577	-0.690893	-0.850016
O56	O	1.127203	-0.586171	-0.638559
C57	C	1.190685	-0.648574	-0.578813
H58	H	1.207114	-0.614676	-0.499146
H59	H	1.148432	-0.720079	-0.567371
C60	C	1.274734	-0.707573	-0.734472
C61	C	1.294920	-0.665935	-0.636627
H62	H	1.339030	-0.718287	-0.770135
H63	H	1.231963	-0.665534	-0.774725
H64	H	1.239521	-0.767156	-0.724923
H65	H	1.330120	-0.606348	-0.646178
H66	H	1.337700	-0.707965	-0.596377
H67	H	1.103444	-0.257277	-0.382843
H68	H	0.934225	-0.352169	-0.279830
O69	O	1.385994	-0.586196	-1.113878
C70	C	1.400489	-0.573028	-1.222485
H71	H	1.434949	-0.498618	-1.237506
H72	H	1.456422	-0.630294	-1.253527
C73	C	1.251888	-0.673192	-1.260449
C74	C	1.294205	-0.581797	-1.278899
H75	H	1.186330	-0.678606	-1.295249
H76	H	1.242125	-0.682067	-1.187279
H77	H	1.298509	-0.720904	-1.286317
H78	H	1.247591	-0.534088	-1.253019
H79	H	1.303958	-0.572914	-1.352066
H80	H	1.641575	-0.257232	-1.090268
O81	O	0.923196	-0.247330	-0.395685
C82	C	0.861047	-0.206149	-0.316111
H83	H	0.833881	-0.264871	-0.259939
H84	H	0.909139	-0.150605	-0.271311
C85	C	0.798255	-0.084751	-0.434578
C86	C	0.764882	-0.156876	-0.365591
H87	H	0.738939	-0.054353	-0.465098
H88	H	0.840130	-0.112492	-0.488187
H89	H	0.838333	-0.038474	-0.397234
H90	H	0.724818	-0.203158	-0.402937
H91	H	0.722999	-0.129142	-0.311988
H92	H	1.396419	-0.576558	-0.906037
O93	O	1.760360	-0.355745	-0.915185
C94	C	1.833944	-0.288075	-0.952082
H95	H	1.802077	-0.251609	-1.025527
H96	H	1.848688	-0.231610	-0.888997
C97	C	1.976592	-0.384478	-0.888183
C98	C	1.937457	-0.339696	-0.978396
H99	H	2.040446	-0.416318	-0.904411
H100	H	1.927018	-0.430067	-0.863321
H101	H	1.988870	-0.337416	-0.835621
H102	H	1.925167	-0.386759	-1.030951
H103	H	1.987032	-0.294115	-1.003267
O104	O	1.628363	-0.247226	-0.910298
C105	C	1.524944	-0.230230	-0.944594
H106	H	1.509961	-0.272048	-1.019961
H107	H	1.467470	-0.254843	-0.881664
C108	C	1.528256	-0.070566	-0.872688
C109	C	1.509857	-0.121921	-0.965260
H110	H	1.518946	-0.003756	-0.885432
H111	H	1.597930	-0.082017	-0.849578
H112	H	1.480358	-0.091088	-0.820255
H113	H	1.557762	-0.101407	-1.017686
H114	H	1.440191	-0.110464	-0.988379
H115	H	1.740613	-0.358770	-1.094358
