data_functionalizedCrystal
_audit_creation_method	'MofGen! by Chris Wilmer'
_symmetry_space_group_name_H-M	'P1'
_symmetry_Int_Tables_number	1
_symmetry_cell_setting	triclinic
loop_
_symmetry_equiv_pos_as_xyz
  x,y,z
_cell_length_a	9.065215
_cell_length_b	9.065218
_cell_length_c	7.540329
_cell_angle_alpha	89.996257
_cell_angle_beta	90.000101
_cell_angle_gamma	85.015291
loop_
_atom_site_label
_atom_site_type_symbol
_atom_site_fract_x
_atom_site_fract_y
_atom_site_fract_z
O1	O	-1.960395	-0.216339	0.147454
O2	O	-1.627062	0.116994	0.480787
O3	O	-1.293728	0.450328	0.814121
O4	O	-1.531110	-0.234090	0.147461
O5	O	-1.197776	0.099243	0.480795
O6	O	-0.864443	0.432577	0.814128
O7	O	-1.754626	-0.010572	0.147454
O8	O	-1.421292	0.322761	0.480787
O9	O	-1.087959	0.656095	0.814120
O10	O	-1.736879	-0.439857	0.147461
O11	O	-1.403546	-0.106524	0.480795
O12	O	-1.070212	0.226810	0.814128
O13	O	-1.754624	-0.010560	-0.147511
O14	O	-1.421290	0.322774	0.185822
O15	O	-1.087957	0.656107	0.519155
O16	O	-1.531108	-0.234078	-0.147504
O17	O	-1.197774	0.099256	0.185830
O18	O	-0.864441	0.432589	0.519163
O19	O	-1.960393	-0.216327	-0.147511
O20	O	-1.627060	0.117007	0.185822
O21	O	-1.293727	0.450340	0.519156
Cu22	Cu	-1.745750	-0.225201	-0.174440
Cu23	Cu	-1.412417	0.108132	0.158893
Cu24	Cu	-1.079084	0.441466	0.492227
Cu25	Cu	-1.745753	-0.225216	0.174390
Cu26	Cu	-1.412419	0.108118	0.507724
Cu27	Cu	-1.079086	0.441451	0.841057
O28	O	-1.736877	-0.439845	-0.147504
O29	O	-1.403544	-0.106511	0.185830
O30	O	-1.070211	0.226822	0.519163
C31	C	-1.476122	-0.232379	-0.000020
C32	C	-1.142789	0.100955	0.333313
C33	C	-0.809455	0.434288	0.666646
C34	C	-1.312279	-0.227281	-0.000017
C35	C	-0.978946	0.106053	0.333316
C36	C	-0.645612	0.439386	0.666649
C37	C	-1.752919	0.044421	-0.000026
C38	C	-1.419586	0.377754	0.333308
C39	C	-1.086252	0.711087	0.666641
C40	C	-1.747819	0.208264	-0.000017
C41	C	-1.414486	0.541597	0.333316
C42	C	-1.081153	0.874930	0.666649
C43	C	-2.015381	-0.218038	-0.000026
C44	C	-1.682047	0.115296	0.333308
C45	C	-1.348714	0.448629	0.666641
C46	C	-2.179224	-0.223136	-0.000017
C47	C	-1.845891	0.110198	0.333316
C48	C	-1.512557	0.443531	0.666650
N49	N	-1.745755	-0.225215	0.419739
N50	N	-1.412422	0.108118	0.753072
N51	N	-1.079088	0.441451	1.086405
C52	C	-1.738584	-0.494837	-0.000020
C53	C	-1.405250	-0.161504	0.333313
C54	C	-1.071917	0.171829	0.666646
C55	C	-1.743683	-0.658680	-0.000017
C56	C	-1.410350	-0.325347	0.333316
C57	C	-1.077017	0.007986	0.666650
N58	N	-1.745760	-0.225190	-0.419789
N59	N	-1.412426	0.108144	-0.086455
N60	N	-1.079093	0.441477	0.246878
