data_functionalizedCrystal
_audit_creation_method	'MofGen! by Chris Wilmer'
_symmetry_space_group_name_H-M	'P1'
_symmetry_Int_Tables_number	1
_symmetry_cell_setting	triclinic
loop_
_symmetry_equiv_pos_as_xyz
  x,y,z
_cell_length_a	12.827893
_cell_length_b	12.827892
_cell_length_c	18.215399
_cell_angle_alpha	89.976162
_cell_angle_beta	89.982296
_cell_angle_gamma	90.015362
loop_
_atom_site_label
_atom_site_type_symbol
_atom_site_fract_x
_atom_site_fract_y
_atom_site_fract_z
Zn1	Zn	1.597653	-0.416045	-0.416095
Zn2	Zn	2.097653	0.083955	0.083905
Zn3	Zn	1.597552	-0.590804	-0.293038
Zn4	Zn	2.097552	-0.090804	0.206962
Zn5	Zn	1.422900	-0.416077	-0.293047
Zn6	Zn	1.922900	0.083923	0.206953
Zn7	Zn	1.422880	-0.590744	-0.416067
Zn8	Zn	1.922880	-0.090744	0.083933
O9	O	1.510246	-0.503417	-0.354562
O10	O	2.010246	-0.003417	0.145438
O11	O	1.743876	-0.439238	-0.399779
O12	O	2.243876	0.060762	0.100221
O13	O	1.574350	-0.567665	-0.190055
O14	O	2.074350	-0.067665	0.309945
O15	O	1.446132	-0.269837	-0.309385
O16	O	1.946132	0.230163	0.190615
O17	O	1.743802	-0.567633	-0.309369
O18	O	2.243802	-0.067633	0.190631
O19	O	1.574522	-0.269813	-0.399788
O20	O	2.074522	0.230187	0.100212
O21	O	1.446034	-0.439294	-0.190061
O22	O	1.946034	0.060706	0.309939
O23	O	1.276661	-0.439236	-0.309358
O24	O	1.776661	0.060764	0.190642
O25	O	1.446098	-0.567531	-0.519055
O26	O	1.946098	-0.067531	-0.019055
O27	O	1.276647	-0.567563	-0.399740
O28	O	1.776647	-0.067563	0.100260
O29	O	1.574504	-0.439180	-0.519076
O30	O	2.074504	0.060820	-0.019076
O31	O	1.574331	-0.737032	-0.309342
O32	O	2.074331	-0.237032	0.190658
O33	O	1.446000	-0.736988	-0.399731
O34	O	1.946000	-0.236988	0.100269
C35	C	1.238736	-0.503397	-0.354548
C36	C	1.738736	-0.003397	0.145452
C37	C	1.122583	-0.503414	-0.354559
C38	C	1.622583	-0.003414	0.145441
C39	C	0.950734	-0.439848	-0.309927
C40	C	1.450734	0.060152	0.190073
C41	C	1.070784	-0.439829	-0.309914
C42	C	1.570784	0.060171	0.190086
C43	C	1.510181	-0.774927	-0.354549
C44	C	2.010181	-0.274927	0.145451
C45	C	1.510249	-0.891081	-0.354568
C46	C	2.010249	-0.391081	0.145432
C47	C	1.573826	-0.942852	-0.309890
C48	C	2.073826	-0.442852	0.190110
C49	C	1.573898	-1.062903	-0.309909
C50	C	2.073898	-0.562903	0.190091
C51	C	1.782816	-0.503438	-0.354576
C52	C	2.282816	-0.003438	0.145424
C53	C	1.898970	-0.503447	-0.354582
C54	C	2.398970	-0.003447	0.145418
C55	C	1.510310	-0.503345	-0.546515
C56	C	2.010310	-0.003345	-0.046515
C57	C	1.510337	-0.503315	-0.628314
C58	C	2.010337	-0.003315	-0.128314
C59	C	1.510340	-0.230847	-0.354591
C60	C	2.010340	0.269153	0.145409
C61	C	1.510381	-0.114694	-0.354603
C62	C	2.010381	0.385306	0.145397
C63	C	1.577222	-0.436420	-0.816520
C64	C	2.077222	0.063580	-0.316520
C65	C	1.577234	-0.436389	-0.893378
C66	C	2.077234	0.063611	-0.393378
C67	C	1.443526	-0.570048	-0.893346
C68	C	1.943526	-0.070048	-0.393346
C69	C	1.443509	-0.570072	-0.816488
C70	C	1.943509	-0.070072	-0.316488
C71	C	1.510363	-0.503260	-0.778077
C72	C	2.010363	-0.003260	-0.278077
C73	C	1.510392	-0.503205	-0.931793
C74	C	2.010392	-0.003205	-0.431793
C75	C	1.510406	-0.503173	-1.015127
C76	C	2.010406	-0.003173	-0.515127
C77	C	1.510349	-0.503291	-0.694738
C78	C	2.010349	-0.003291	-0.194738
C79	C	1.510243	-0.503414	-0.163356
C80	C	2.010243	-0.003414	0.336644
C81	C	1.510418	-0.503150	-0.081557
C82	C	2.010418	-0.003150	0.418443
H83	H	1.078074	-0.557870	-0.392790
H84	H	1.578074	-0.057870	0.107210
H85	H	1.455942	-1.070179	-0.392853
H86	H	1.955942	-0.570179	0.107147
N87	N	1.438211	-0.950076	-0.405259
N88	N	1.938211	-0.450076	0.094741
H89	H	1.480717	-0.995294	-0.439369
H90	H	1.980717	-0.495294	0.060631
H91	H	1.389889	-0.995370	-0.375247
H92	H	1.889889	-0.495370	0.124753
N93	N	1.645870	-0.883851	-0.259207
N94	N	2.145870	-0.383851	0.240793
H95	H	1.635609	-0.806454	-0.266380
H96	H	2.135609	-0.306454	0.233620
H97	H	1.629679	-0.902933	-0.206627
H98	H	2.129679	-0.402933	0.293373
H99	H	1.628326	-1.107425	-0.271656
H100	H	2.128326	-0.607425	0.228344
N101	N	1.649323	-0.364360	-0.775089
N102	N	2.149323	0.135640	-0.275089
H103	H	1.691678	-0.322012	-0.811107
H104	H	2.191678	0.177988	-0.311107
H105	H	1.606794	-0.316009	-0.743201
H106	H	2.106794	0.183991	-0.243201
H107	H	0.943529	-0.557879	-0.392807
H108	H	1.443529	-0.057879	0.107193
H109	H	1.389099	-0.624447	-0.924629
H110	H	1.889099	-0.124447	-0.424629
N111	N	1.371373	-0.642146	-0.775019
N112	N	1.871373	-0.142146	-0.275019
H113	H	1.329024	-0.684468	-0.811013
H114	H	1.829024	-0.184468	-0.311013
H115	H	1.413872	-0.690523	-0.743120
H116	H	1.913872	-0.190523	-0.243120
N117	N	1.649334	-0.364286	-0.934842
N118	N	2.149334	0.135714	-0.434842
H119	H	1.691676	-0.321964	-0.898844
H120	H	2.191676	0.178036	-0.398844
H121	H	1.697690	-0.406805	-0.966736
H122	H	2.197690	0.093195	-0.466736
H123	H	1.115300	-0.385383	-0.271681
H124	H	1.615300	0.114617	0.228319
N125	N	0.891723	-0.367756	-0.259281
N126	N	1.391723	0.132244	0.240719
H127	H	0.814328	-0.377999	-0.266462
H128	H	1.314328	0.122001	0.233538
H129	H	0.910724	-0.383932	-0.206695
H130	H	1.410724	0.116068	0.293305
