data_functionalizedCrystal
_audit_creation_method	'MofGen! by Chris Wilmer'
_symmetry_space_group_name_H-M	'P1'
_symmetry_Int_Tables_number	1
_symmetry_cell_setting	triclinic
loop_
_symmetry_equiv_pos_as_xyz
  x,y,z
_cell_length_a	21.606444
_cell_length_b	21.606444
_cell_length_c	21.606444
_cell_angle_alpha	59.990220
_cell_angle_beta	90.000121
_cell_angle_gamma	119.996335
loop_
_atom_site_label
_atom_site_type_symbol
_atom_site_fract_x
_atom_site_fract_y
_atom_site_fract_z
Zr1	Zr	-0.596237	0.677513	-0.081327
O2	O	-0.497414	0.806646	-0.180176
O3	O	-0.626531	0.548383	-0.051009
O4	O	-0.626533	0.677516	-0.180152
O5	O	-0.497412	0.677510	0.050820
O6	O	-0.728385	0.677516	-0.180151
O7	O	-0.497413	0.677512	-0.051033
O8	O	-0.728382	0.446520	0.050862
O9	O	-0.497415	0.908506	-0.180193
O10	O	-0.715463	0.601496	-0.038096
O11	O	-0.639452	0.601494	0.037915
O12	O	-0.639453	0.753531	-0.114135
O13	O	-0.563442	0.753529	-0.038124
Zr14	Zr	-0.758678	0.677510	0.081120
Zr15	Zr	-0.758679	0.677514	-0.081324
Zr16	Zr	-0.596236	0.677510	0.081117
Zr17	Zr	-0.596238	0.839969	-0.081354
Zr18	Zr	-0.758677	0.515055	0.081147
O19	O	-0.728384	0.806641	0.050802
O20	O	-0.728385	0.806646	-0.180172
O21	O	-0.497413	0.806640	0.050799
O22	O	-0.857501	0.548378	0.179969
O23	O	-0.857503	0.548383	-0.051006
O24	O	-0.626530	0.548377	0.179965
O25	O	-0.857504	0.677513	-0.051028
O26	O	-0.728383	0.677508	0.179945
O27	O	-0.626531	0.677507	0.179944
O28	O	-0.857503	0.677511	0.050826
O29	O	-0.626534	0.908506	-0.180191
O30	O	-0.728381	0.446517	0.179984
O31	O	-0.857501	0.446518	0.179986
O32	O	-0.857502	0.446521	0.050864
O33	O	-0.497414	0.908503	-0.051071
O34	O	-0.626533	0.908503	-0.051069
O35	O	-0.715462	0.601492	0.113928
O36	O	-0.791473	0.601494	0.037917
O37	O	-0.715464	0.753530	-0.038122
O38	O	-0.639453	0.753528	0.037889
C39	C	-0.677457	0.474305	-0.000070
C40	C	-0.677456	0.405339	-0.000058
C41	C	-0.621344	0.429075	-0.056186
C42	C	-0.621345	0.364285	-0.056202
C43	C	-0.677458	0.275761	-0.000086
C44	C	-0.733576	0.252025	0.056046
C45	C	-0.733577	0.316814	0.056058
C46	C	-0.733576	-0.009262	0.055998
C47	C	-0.733570	-0.074051	0.055983
C48	C	-0.621345	0.038210	-0.056262
C49	C	-0.621345	0.102999	-0.056250
C50	C	-0.677465	0.079258	-0.000121
C51	C	-0.677463	0.149510	-0.000105
C52	C	-0.677457	0.205509	-0.000098
C53	C	-0.474268	0.677511	-0.000106
C54	C	-0.405307	0.677511	-0.000107
C55	C	-0.372909	0.677515	-0.056221
C56	C	-0.308115	0.677510	-0.056218
C57	C	-0.275718	0.677508	-0.000104
C58	C	-0.308121	0.677502	0.056015
C59	C	-0.372917	0.677500	0.056015
C60	C	-0.046808	0.677507	0.056018
C61	C	0.017994	0.677511	0.056013
C62	C	0.017994	0.677517	-0.056215
C63	C	-0.046802	0.677515	-0.056215
C64	C	-0.079202	0.677504	-0.000094
C65	C	-0.149460	0.677508	-0.000097
C66	C	-0.205458	0.677511	-0.000104
C67	C	0.119352	0.677511	-0.000100
C68	C	0.050390	0.677509	-0.000099
C69	C	-0.677459	0.677517	-0.203296
C70	C	-0.677459	0.677518	-0.272258
C71	C	-0.677459	0.880718	-0.000138
C72	C	-0.677459	0.949685	-0.000149
C73	C	-0.733570	0.677520	-0.304655
C74	C	-0.733573	0.677514	-0.369448
C75	C	-0.677460	0.677512	-0.401846
C76	C	-0.621346	0.677508	-0.369443
C77	C	-0.621348	0.677508	-0.304648
C78	C	-0.621340	0.677507	-0.630753
C79	C	-0.621342	0.677510	-0.695554
C80	C	-0.733565	0.677513	-0.695554
C81	C	-0.733566	0.677513	-0.630759
C82	C	-0.677455	0.677504	-0.598359
C83	C	-0.677454	0.677509	-0.528102
C84	C	-0.677458	0.677513	-0.472105
C85	C	-0.677457	0.677507	0.203089
C86	C	-0.677456	0.677505	0.272051
C87	C	-0.880647	0.474306	-0.000067
C88	C	-0.949607	0.405339	-0.000054
C89	C	-0.677455	0.474300	0.203123
C90	C	-0.677455	0.405332	0.272096
C91	C	-0.880645	0.474301	0.203126
C92	C	-0.949605	0.405333	0.272100
C93	C	-0.474270	0.880723	-0.203333
C94	C	-0.405310	0.949691	-0.272307
C95	C	-0.474269	0.880718	-0.000140
C96	C	-0.405309	0.949684	-0.000153
C97	C	-0.677460	0.880723	-0.203330
C98	C	-0.677461	0.949691	-0.272303
C99	C	-0.942315	0.372953	-0.039733
C100	C	-1.007104	0.308161	-0.039736
C101	C	-1.079185	0.275752	-0.000056
C102	C	-1.086476	0.308145	0.039624
C103	C	-1.021687	0.372940	0.039623
C104	C	-0.717131	0.372943	0.344172
C105	C	-0.717127	0.308149	0.408986
C106	C	-0.677451	0.275741	0.401723
C107	C	-0.637770	0.308137	0.329640
C108	C	-0.637770	0.372934	0.264827
C109	C	-1.021674	0.372946	0.264815
C110	C	-1.086475	0.308152	0.329617
C111	C	-1.079207	0.275742	0.401704
C112	C	-1.007131	0.308136	0.408989
C113	C	-0.942331	0.372933	0.344187
C114	C	-0.333242	0.982086	-0.265022
C115	C	-0.268440	1.046899	-0.329824
C116	C	-0.275709	1.079313	-0.401912
C117	C	-0.347785	1.046915	-0.409196
C118	C	-0.412585	0.982107	-0.344394
C119	C	-0.412601	0.982077	0.039519
C120	C	-0.347811	1.046887	0.039505
C121	C	-0.275730	1.079299	-0.000178
C122	C	-0.268440	1.046903	-0.039855
C123	C	-0.333228	0.982098	-0.039845
C124	C	-0.717145	0.982079	-0.265016
C125	C	-0.717160	1.046873	-0.329818
C126	C	-0.677487	1.079283	-0.401906
C127	C	-0.637802	1.046889	-0.409192
C128	C	-0.637792	0.982092	-0.344391
H129	H	-0.575651	0.057535	-0.101967
O130	O	-0.759960	1.081808	-0.321946
H131	H	-0.803830	1.069356	-0.349547
O132	O	-0.205849	1.149190	-0.000185
H133	H	-0.171636	1.124314	0.024644
O134	O	-0.794103	0.156547	0.116573
H135	H	-0.767123	0.124333	0.148927
H136	H	-0.749451	0.955701	-0.206324
H137	H	-1.027606	0.399324	0.206123
H138	H	-1.001153	0.281794	-0.072048
O139	O	-0.595004	0.273148	0.321823
H140	H	-0.551157	0.285564	0.349454
O141	O	-0.407868	0.677492	0.116538
H142	H	-0.365772	0.736834	0.113768
H143	H	-0.327309	0.955698	-0.206330
H144	H	0.044379	0.677522	-0.101910
H145	H	-0.883629	0.399340	-0.072055
O146	O	-0.081746	0.677503	0.116542
H147	H	-0.140930	0.618156	0.148910
O148	O	-1.164206	0.273251	0.321745
H149	H	-1.208050	0.222767	0.378912
O150	O	-0.560821	0.524552	-0.116719
H151	H	-0.528461	0.556747	-0.089737
H152	H	-0.471264	0.955731	-0.350335
O153	O	-0.490341	0.947139	0.082309
H154	H	-0.484515	0.980572	0.109879
H155	H	-1.131934	0.222990	-0.000060
O156	O	-0.794103	0.677497	-0.269698
H157	H	-0.767136	0.736833	-0.269851
O158	O	-0.794090	0.677508	-0.595810
H159	H	-0.833114	0.677498	-0.629219
H160	H	-1.131977	0.222980	0.454464
O161	O	-0.677473	0.205838	0.471635
H162	H	-0.652657	0.230706	0.505850
H163	H	-0.677502	1.132046	-0.454665
H164	H	-0.779263	0.677515	-0.395826
H165	H	-1.001224	0.281738	0.467691
O166	O	-0.864599	0.407845	0.352049
H167	H	-0.870440	0.374407	0.413064
O168	O	-0.190707	1.081820	-0.321960
H169	H	-0.196546	1.048374	-0.260945
H170	H	-1.145173	0.281748	0.071930
O171	O	-0.205815	1.149223	-0.471804
H172	H	-0.154483	1.166297	-0.454619
O173	O	-0.355621	1.081872	-0.486949
H174	H	-0.298449	1.132370	-0.530779
O175	O	-0.560823	0.389883	-0.116738
H176	H	-0.521799	0.462324	-0.155751
H177	H	-0.353762	1.073253	0.071817
H178	H	-0.575658	0.677505	-0.278269
O179	O	-0.560831	0.198480	-0.116781
H180	H	-0.521818	0.204101	-0.155821
H181	H	-0.605502	1.073288	-0.467895
H182	H	-0.779269	0.297481	0.101763
O183	O	-0.594977	0.947172	-0.352254
H184	H	-0.567387	0.980607	-0.413270
O185	O	-0.190694	1.081864	-0.082655
H186	H	-0.146874	1.132361	-0.075986
H187	H	-0.327281	0.955726	-0.072148
H188	H	-0.779266	-0.146135	0.101682
O189	O	-0.794088	0.677523	-0.730499
H190	H	-0.850665	0.618191	-0.688382
H191	H	-0.779273	-0.028603	0.101701
O192	O	-0.081742	0.677517	-0.116740
H193	H	-0.081590	0.736861	-0.149107
O194	O	-0.407853	0.677516	-0.116744
H195	H	-0.374440	0.677509	-0.155758
H196	H	-0.575651	0.677502	-0.604379
O197	O	-0.273177	0.677498	0.116538
H198	H	-0.315278	0.618150	0.173123
H199	H	-0.575646	0.677507	-0.721930
H200	H	-1.027635	0.399301	0.071938
O201	O	-0.759923	0.407895	0.352015
H202	H	-0.787501	0.374486	0.413027
H203	H	-0.281738	0.677512	-0.101910
H204	H	0.044370	0.677508	0.101710
O205	O	-0.560820	0.677511	-0.404384
H206	H	-0.570239	0.677523	-0.454888
H207	H	-0.749443	0.281781	0.467672
H208	H	-0.605463	0.399296	0.206143
