data_functionalizedCrystal
_audit_creation_method	'MofGen! by Chris Wilmer'
_symmetry_space_group_name_H-M	'P1'
_symmetry_Int_Tables_number	1
_symmetry_cell_setting	triclinic
loop_
_symmetry_equiv_pos_as_xyz
  x,y,z
_cell_length_a	19.121102
_cell_length_b	19.121063
_cell_length_c	16.625539
_cell_angle_alpha	92.410374
_cell_angle_beta	87.544243
_cell_angle_gamma	90.126902
loop_
_atom_site_label
_atom_site_type_symbol
_atom_site_fract_x
_atom_site_fract_y
_atom_site_fract_z
Zn1	Zn	1.059831	-0.324912	-0.523634
Zn2	Zn	1.393164	0.008421	-0.190301
Zn3	Zn	1.726497	0.341755	0.143032
Zn4	Zn	1.054741	-0.442148	-0.394284
Zn5	Zn	1.388075	-0.108815	-0.060950
Zn6	Zn	1.721408	0.224518	0.272383
Zn7	Zn	0.942598	-0.319923	-0.382837
Zn8	Zn	1.275932	0.013410	-0.049503
Zn9	Zn	1.609265	0.346743	0.283830
Zn10	Zn	0.937556	-0.437102	-0.523095
Zn11	Zn	1.270889	-0.103769	-0.189761
Zn12	Zn	1.604222	0.229564	0.143572
O13	O	0.998681	-0.381021	-0.455962
O14	O	1.332015	-0.047688	-0.122629
O15	O	1.665348	0.285645	0.210704
O16	O	1.157260	-0.344663	-0.511492
O17	O	1.490594	-0.011330	-0.178159
O18	O	1.823927	0.322004	0.155174
O19	O	1.039846	-0.425959	-0.279933
O20	O	1.373179	-0.092625	0.053400
O21	O	1.706513	0.240708	0.386734
O22	O	0.962390	-0.222482	-0.396949
O23	O	1.295723	0.110852	-0.063616
O24	O	1.629056	0.444185	0.269718
O25	O	1.153521	-0.430796	-0.416459
O26	O	1.486855	-0.097463	-0.083125
O27	O	1.820188	0.235871	0.250208
O28	O	1.048520	-0.226147	-0.500392
O29	O	1.381853	0.107187	-0.167059
O30	O	1.715186	0.440520	0.166274
O31	O	0.957455	-0.336161	-0.271523
O32	O	1.290788	-0.002827	0.061811
O33	O	1.624121	0.330506	0.395144
O34	O	0.843824	-0.331268	-0.396426
O35	O	1.177158	0.002065	-0.063092
O36	O	1.510491	0.335399	0.270241
O37	O	0.953795	-0.422196	-0.635998
O38	O	1.287128	-0.088863	-0.302665
O39	O	1.620462	0.244471	0.030668
O40	O	0.840120	-0.417359	-0.499473
O41	O	1.173453	-0.084025	-0.166139
O42	O	1.506786	0.249308	0.167194
O43	O	1.043630	-0.339770	-0.636395
O44	O	1.376963	-0.006437	-0.303062
O45	O	1.710297	0.326896	0.030272
O46	O	1.034956	-0.539582	-0.415935
O47	O	1.368290	-0.206249	-0.082602
O48	O	1.701623	0.127084	0.250731
O49	O	0.948860	-0.535875	-0.510572
O50	O	1.282194	-0.202542	-0.177239
O51	O	1.615527	0.130792	0.156094
C52	C	0.816535	-0.373225	-0.446649
C53	C	1.149868	-0.039892	-0.113316
C54	C	1.483201	0.293442	0.220018
C55	C	0.738611	-0.369906	-0.442684
C56	C	1.071944	-0.036573	-0.109351
C57	C	1.405277	0.296760	0.223982
C58	C	0.990828	-0.563167	-0.464456
C59	C	1.324161	-0.229833	-0.131123
C60	C	1.657495	0.103500	0.202211
C61	C	0.987532	-0.641092	-0.468120
C62	C	1.320866	-0.307759	-0.134787
C63	C	1.654199	0.025575	0.198547
C64	C	0.700088	-0.413238	-0.494395
C65	C	1.033422	-0.079905	-0.161062
C66	C	1.366755	0.253429	0.172271
C67	C	0.626871	-0.410111	-0.490674
C68	C	0.960204	-0.076777	-0.157340
C69	C	1.293537	0.256556	0.175993
C70	C	0.592177	-0.363655	-0.435237
C71	C	0.925510	-0.030322	-0.101904
C72	C	1.258843	0.303012	0.231430
C73	C	0.630704	-0.320319	-0.383524
C74	C	0.964038	0.013015	-0.050191
C75	C	1.297371	0.346348	0.283143
C76	C	0.703921	-0.323443	-0.387250
C77	C	1.037254	0.009890	-0.053917
C78	C	1.370587	0.343224	0.279417
C79	C	0.371207	-0.351973	-0.421310
C80	C	0.704540	-0.018639	-0.087977
C81	C	1.037873	0.314694	0.245357
C82	C	0.297985	-0.348853	-0.417586
C83	C	0.631319	-0.015520	-0.084253
C84	C	0.964652	0.317814	0.249080
C85	C	0.294157	-0.438644	-0.524738
C86	C	0.627490	-0.105311	-0.191404
C87	C	0.960823	0.228022	0.141929
C88	C	0.367374	-0.441767	-0.528455
C89	C	0.700708	-0.108434	-0.195122
C90	C	1.034041	0.224899	0.138211
C91	C	0.405896	-0.398429	-0.476745
C92	C	0.739229	-0.065095	-0.143412
C93	C	1.072562	0.268238	0.189921
C94	C	0.517337	-0.360459	-0.431430
C95	C	0.850670	-0.027125	-0.098097
C96	C	1.184003	0.306208	0.235237
C97	C	0.480735	-0.401622	-0.480557
C98	C	0.814068	-0.068288	-0.147224
C99	C	1.147401	0.265045	0.186110
C100	C	1.030844	-0.679610	-0.420613
C101	C	1.364178	-0.346276	-0.087280
C102	C	1.697511	-0.012943	0.246053
C103	C	1.027749	-0.752829	-0.424064
C104	C	1.361082	-0.419495	-0.090731
C105	C	1.694416	-0.086162	0.242602
C106	C	0.981338	-0.787529	-0.475018
C107	C	1.314671	-0.454195	-0.141685
C108	C	1.648004	-0.120862	0.191649
C109	C	0.938024	-0.749006	-0.522530
C110	C	1.271357	-0.415672	-0.189197
C111	C	1.604690	-0.082339	0.144137
C112	C	0.941123	-0.675788	-0.519083
C113	C	1.274456	-0.342455	-0.185749
C114	C	1.607790	-0.009121	0.147584
C115	C	0.969738	-1.008503	-0.487893
C116	C	1.303072	-0.675170	-0.154560
C117	C	1.636405	-0.341836	0.178774
C118	C	0.966641	-1.081726	-0.491335
C119	C	1.299974	-0.748392	-0.158001
C120	C	1.633307	-0.415059	0.175332
C121	C	1.056367	-1.085544	-0.392870
C122	C	1.389701	-0.752211	-0.059536
C123	C	1.723034	-0.418877	0.273797
C124	C	1.059460	-1.012325	-0.389424
C125	C	1.392793	-0.678991	-0.056090
C126	C	1.726126	-0.345658	0.277243
C127	C	1.016148	-0.973808	-0.436939
C128	C	1.349482	-0.640475	-0.103605
C129	C	1.682815	-0.307142	0.229728
C130	C	0.978171	-0.862370	-0.478545
C131	C	1.311504	-0.529037	-0.145211
C132	C	1.644838	-0.195703	0.188122
C133	C	1.019319	-0.898968	-0.433416
C134	C	1.352652	-0.565635	-0.100082
C135	C	1.685986	-0.232301	0.233251
C136	C	1.181540	-0.388849	-0.465313
C137	C	1.514873	-0.055516	-0.131979
C138	C	1.848206	0.277818	0.201354
C139	C	1.259463	-0.392184	-0.469297
C140	C	1.592796	-0.058851	-0.135964
C141	C	1.926130	0.274482	0.197370
C142	C	0.998718	-0.380977	-0.666271
C143	C	1.332051	-0.047643	-0.332938
C144	C	1.665384	0.285690	0.000396
C145	C	0.998733	-0.380958	-0.755892
C146	C	1.332067	-0.047624	-0.422559
C147	C	1.665400	0.285709	-0.089225
C148	C	1.006585	-0.198166	-0.447454
C149	C	1.339918	0.135168	-0.114121
C150	C	1.673251	0.468501	0.219213
C151	C	1.009953	-0.120244	-0.443828
C152	C	1.343286	0.213090	-0.110495
C153	C	1.676619	0.546423	0.222838
C154	C	0.998745	-0.380943	-0.828674
C155	C	1.332079	-0.047609	-0.495341
C156	C	1.665412	0.285724	-0.162008
C157	C	0.998763	-0.380917	-0.919982
C158	C	1.332096	-0.047584	-0.586649
C159	C	1.665430	0.285750	-0.253316
C160	C	0.998780	-0.380893	-0.992759
C161	C	1.332114	-0.047560	-0.659425
C162	C	1.665447	0.285774	-0.326092
C163	C	0.998799	-0.380869	-1.084073
C164	C	1.332132	-0.047535	-0.750739
C165	C	1.665466	0.285798	-0.417406
C166	C	0.998688	-0.381017	-0.246472
C167	C	1.332021	-0.047684	0.086862
C168	C	1.665354	0.285649	0.420195
C169	C	0.998817	-0.380845	-0.156849
C170	C	1.332150	-0.047511	0.176485
C171	C	1.665483	0.285822	0.509818
H172	H	0.728331	-0.451070	-0.539535
H173	H	1.061664	-0.117736	-0.206202
H174	H	1.394997	0.215597	0.127131
Br175	Br	0.574593	-0.468919	-0.560858
Br176	Br	0.907926	-0.135585	-0.227525
Br177	Br	1.241260	0.197748	0.105809
Br178	Br	0.250900	-0.285809	-0.342337
Br179	Br	0.584234	0.047524	-0.009004
Br180	Br	0.917567	0.380857	0.324329
H181	H	0.940381	-0.890631	-0.520030
H182	H	1.273714	-0.557297	-0.186696
H183	H	1.607048	-0.223964	0.146637
H184	H	0.934471	-0.977148	-0.526580
H185	H	1.267804	-0.643815	-0.193247
H186	H	1.601138	-0.310482	0.140087
H187	H	0.508986	-0.439443	-0.525696
H188	H	0.842319	-0.106109	-0.192363
H189	H	1.175652	0.227224	0.140970
Br190	Br	0.875042	-0.796097	-0.591690
Br191	Br	1.208375	-0.462764	-0.258356
Br192	Br	1.541708	-0.129431	0.074977
H193	H	0.262785	-0.473927	-0.566838
H194	H	0.596118	-0.140594	-0.233505
H195	H	0.929452	0.192739	0.099829
H196	H	1.063018	-0.784187	-0.385379
H197	H	1.396351	-0.450854	-0.052045
H198	H	1.729685	-0.117520	0.281288
Br199	Br	0.583621	-0.257264	-0.308295
Br200	Br	0.916954	0.076069	0.025039
Br201	Br	1.250287	0.409403	0.358372
H202	H	1.097251	-0.984074	-0.347933
H203	H	1.430585	-0.650740	-0.014600
H204	H	1.763918	-0.317407	0.318734
Br205	Br	0.882344	-0.623513	-0.583564
Br206	Br	1.215678	-0.290179	-0.250231
Br207	Br	1.549011	0.043154	0.083103
H208	H	0.402562	-0.316688	-0.379198
H209	H	0.735895	0.016645	-0.045865
H210	H	1.069229	0.349978	0.287468
Br211	Br	1.115147	-1.137820	-0.328393
Br212	Br	1.448480	-0.804486	0.004940
Br213	Br	1.781814	-0.471153	0.338274
H214	H	0.735285	-0.288154	-0.345146
H215	H	1.068618	0.045179	-0.011812
H216	H	1.401952	0.378513	0.321521
H217	H	0.928855	-1.109976	-0.532842
H218	H	1.262188	-0.776643	-0.199509
H219	H	1.595522	-0.443310	0.133825
Br220	Br	0.414454	-0.504821	-0.603689
Br221	Br	0.747787	-0.171487	-0.270356
Br222	Br	1.081121	0.161846	0.062977
H223	H	1.057110	-0.870714	-0.391932
H224	H	1.390443	-0.537380	-0.058599
H225	H	1.723777	-0.204047	0.274734
H226	H	0.489081	-0.322636	-0.386291
H227	H	0.822414	0.010698	-0.052958
H228	H	1.155747	0.344031	0.280375
Br229	Br	1.093828	-0.632524	-0.351451
Br230	Br	1.427161	-0.299191	-0.018117
Br231	Br	1.760495	0.034143	0.315216
