data_functionalizedCrystal
_audit_creation_method	'MofGen! by Chris Wilmer'
_symmetry_space_group_name_H-M	'P1'
_symmetry_Int_Tables_number	1
_symmetry_cell_setting	triclinic
loop_
_symmetry_equiv_pos_as_xyz
  x,y,z
_cell_length_a	15.944493
_cell_length_b	15.944493
_cell_length_c	11.892095
_cell_angle_alpha	93.894412
_cell_angle_beta	86.102145
_cell_angle_gamma	83.475044
loop_
_atom_site_label
_atom_site_type_symbol
_atom_site_fract_x
_atom_site_fract_y
_atom_site_fract_z
O1	O	1.119902	0.102734	-0.093974
O2	O	1.619902	0.602734	0.406026
O3	O	0.875343	0.116141	-0.093978
O4	O	1.375343	0.616141	0.406022
O5	O	1.004327	-0.012843	-0.093985
O6	O	1.504327	0.487157	0.406015
O7	O	0.990918	0.231718	-0.093967
O8	O	1.490918	0.731718	0.406033
O9	O	0.993572	-0.002105	0.094023
O10	O	1.493572	0.497895	0.594023
O11	O	0.864589	0.126879	0.094030
O12	O	1.364589	0.626879	0.594030
O13	O	1.109148	0.113472	0.094034
O14	O	1.609148	0.613472	0.594034
Zn15	Zn	0.985161	0.121880	0.123883
Zn16	Zn	1.485161	0.621880	0.623883
Zn17	Zn	0.999330	0.107733	-0.123826
Zn18	Zn	1.499330	0.607733	0.376174
O19	O	0.980164	0.242455	0.094041
O20	O	1.480164	0.742455	0.594041
C21	C	0.838671	0.120962	0.000026
C22	C	1.338671	0.620962	0.500026
C23	C	0.745423	0.119319	0.000023
C24	C	1.245423	0.619319	0.500023
C25	C	0.998402	-0.038769	0.000014
C26	C	1.498402	0.461231	0.500014
C27	C	0.996760	-0.132018	-0.000000
C28	C	1.496760	0.367982	0.500000
C29	C	0.509647	0.195242	0.000028
C30	C	1.009647	0.695242	0.500028
C31	C	0.453795	0.159594	0.092728
C32	C	0.953795	0.659594	0.592728
C33	C	0.574703	0.116275	0.000025
C34	C	1.074703	0.616275	0.500025
C35	C	0.464402	0.148989	-0.092633
C36	C	0.964402	0.648989	0.407367
C37	C	0.409794	0.113340	0.000022
C38	C	0.909794	0.613340	0.500022
C39	C	0.520074	0.080653	0.092801
C40	C	1.020074	0.580653	0.592801
C41	C	0.530690	0.070054	-0.092643
C42	C	1.030690	0.570054	0.407357
C43	C	0.474869	0.034350	0.000079
C44	C	0.974869	0.534350	0.500079
C45	C	0.669702	0.117968	0.000028
C46	C	1.169702	0.617968	0.500028
C47	C	0.314797	0.111641	0.000028
C48	C	0.814797	0.611641	0.500028
C49	C	1.072681	-0.367792	0.000022
C50	C	1.572681	0.132208	0.500022
C51	C	1.037041	-0.423646	-0.092676
C52	C	1.537041	0.076354	0.407324
C53	C	0.993715	-0.302737	0.000013
C54	C	1.493715	0.197263	0.500013
C55	C	1.026420	-0.413035	0.092686
C56	C	1.526420	0.086965	0.592686
C57	C	0.990779	-0.467645	0.000032
C58	C	1.490779	0.032355	0.500032
C59	C	0.958101	-0.357367	-0.092761
C60	C	1.458101	0.142633	0.407239
C61	C	0.947486	-0.346749	0.092684
C62	C	1.447486	0.153251	0.592684
C63	C	0.911790	-0.402571	-0.000037
C64	C	1.411790	0.097429	0.499963
C65	C	0.995408	-0.207738	0.000002
C66	C	1.495408	0.292262	0.500002
C67	C	0.989080	-0.562642	0.000035
C68	C	1.489080	-0.062642	0.500035
C69	C	1.145820	0.108651	0.000028
C70	C	1.645820	0.608651	0.500028
C71	C	1.239068	0.110293	0.000023
C72	C	1.739068	0.610293	0.500023
C73	C	0.986089	0.268381	0.000040
C74	C	1.486089	0.768381	0.500040
C75	C	0.987731	0.361630	0.000047
C76	C	1.487731	0.861630	0.500047
N77	N	0.975496	0.131535	0.292937
N78	N	1.475496	0.631535	0.792937
N79	N	1.009001	0.098071	-0.292881
N80	N	1.509001	0.598071	0.207119
C81	C	1.076248	0.030840	0.529579
C82	C	1.576248	0.530840	1.029579
C83	C	1.069499	0.037595	0.647921
C84	C	1.569499	0.537595	1.147921
C85	C	0.955246	0.151795	0.647966
C86	C	1.455246	0.651795	1.147966
C87	C	0.961995	0.145040	0.529624
C88	C	1.461995	0.645040	1.029624
C89	C	1.022499	0.084562	0.470435
C90	C	1.522499	0.584562	0.970435
C91	C	1.029251	0.077811	0.352090
C92	C	1.529251	0.577811	0.852090
C93	C	0.914995	0.192007	0.352137
C94	C	1.414995	0.692007	0.852137
C95	C	0.908246	0.198761	0.470479
C96	C	1.408246	0.698761	0.970479
H97	H	0.525251	0.263268	0.000120
H98	H	1.025251	0.763268	0.500120
H99	H	1.074873	-0.457075	-0.171045
H100	H	1.574873	0.042925	0.328955
Cl101	Cl	1.071009	-0.450801	0.213675
Cl102	Cl	1.571009	0.049199	0.713675
H103	H	0.564126	0.032254	-0.171022
H104	H	1.064126	0.532254	0.328978
H105	H	0.439939	0.177878	-0.170993
H106	H	0.939939	0.677878	0.329007
H107	H	0.843720	-0.418026	-0.000089
H108	H	1.343720	0.081974	0.499911
H109	H	0.544421	0.051805	0.171249
H110	H	1.044421	0.551805	0.671249
Cl111	Cl	0.450998	-0.070741	0.000153
Cl112	Cl	0.950998	0.429259	0.500153
H113	H	0.909683	-0.313305	0.171056
H114	H	1.409683	0.186695	0.671056
H115	H	0.929259	-0.333021	-0.171214
H116	H	1.429259	0.166979	0.328786
H117	H	1.113266	-0.006151	0.696074
H118	H	1.613266	0.493849	1.196074
H119	H	0.420367	0.197419	0.171102
H120	H	0.920367	0.697419	0.671102
H121	H	1.140706	-0.352183	-0.000070
H122	H	1.640706	0.147817	0.499930
Cl123	Cl	1.105314	0.001784	0.277683
Cl124	Cl	1.605314	0.501784	0.777683
Cl125	Cl	1.152317	-0.045179	0.455168
Cl126	Cl	1.652317	0.454821	0.955168
H127	H	0.905980	0.201029	0.696173
H128	H	1.405980	0.701029	1.196173
H129	H	0.858982	0.248000	0.518685
H130	H	1.358982	0.748000	1.018685
Cl131	Cl	0.847427	0.259550	0.277773
Cl132	Cl	1.347427	0.759550	0.777773
