data_functionalizedCrystal
_audit_creation_method	'MofGen! by Chris Wilmer'
_symmetry_space_group_name_H-M	'P1'
_symmetry_Int_Tables_number	1
_symmetry_cell_setting	triclinic
loop_
_symmetry_equiv_pos_as_xyz
  x,y,z
_cell_length_a	10.686220
_cell_length_b	25.639239
_cell_length_c	10.686551
_cell_angle_alpha	94.409979
_cell_angle_beta	89.691918
_cell_angle_gamma	94.421315
loop_
_atom_site_label
_atom_site_type_symbol
_atom_site_fract_x
_atom_site_fract_y
_atom_site_fract_z
Zn1	Zn	1.972155	-0.127472	0.562363
Zn2	Zn	2.472155	0.372528	1.062363
Zn3	Zn	1.955828	-0.222110	0.352587
Zn4	Zn	2.455828	0.277890	0.852587
Zn5	Zn	1.746260	-0.140848	0.368678
Zn6	Zn	2.246260	0.359152	0.868678
Zn7	Zn	1.762259	-0.221050	0.578365
Zn8	Zn	2.262259	0.278950	1.078365
O9	O	1.859125	-0.177870	0.465498
O10	O	2.359125	0.322130	0.965498
O11	O	2.145537	-0.134872	0.521105
O12	O	2.645537	0.365128	1.021105
O13	O	1.914499	-0.217371	0.179175
O14	O	2.414499	0.282629	0.679175
O15	O	1.776363	-0.065903	0.394408
O16	O	2.276363	0.434097	0.894408
O17	O	2.133541	-0.204402	0.366983
O18	O	2.633541	0.295598	0.866983
O19	O	1.942327	-0.056076	0.536707
O20	O	2.442327	0.443924	1.036707
O21	O	1.760531	-0.157668	0.190997
O22	O	2.260531	0.342332	0.690997
O23	O	1.572835	-0.156641	0.409924
O24	O	2.072835	0.343359	0.909924
O25	O	1.803631	-0.202596	0.751789
O26	O	2.303631	0.297404	1.251789
O27	O	1.584589	-0.215565	0.563981
O28	O	2.084589	0.284435	1.063981
O29	O	1.957841	-0.133845	0.740032
O30	O	2.457841	0.366155	1.240032
O31	O	1.930013	-0.295140	0.382500
O32	O	2.430013	0.204860	0.882500
O33	O	1.787799	-0.294361	0.548378
O34	O	2.287799	0.205639	1.048378
C35	C	1.533195	-0.187440	0.490436
C36	C	2.033195	0.312560	0.990436
C37	C	1.393762	-0.191545	0.501134
C38	C	1.893762	0.308455	1.001134
C39	C	1.858906	-0.313721	0.465454
C40	C	2.358906	0.186279	0.965454
C41	C	1.858931	-0.371834	0.465468
C42	C	2.358931	0.128166	0.965468
C43	C	1.785057	-0.622628	0.551847
C44	C	2.285057	-0.122628	1.051847
C45	C	1.785010	-0.568026	0.551836
C46	C	2.285010	-0.068026	1.051836
O47	O	1.721991	-0.539458	0.625251
O48	O	2.221991	-0.039458	1.125251
N49	N	1.859093	-0.541101	0.465522
N50	N	2.359093	-0.041101	0.965522
C51	C	1.933239	-0.568780	0.379222
C52	C	2.433239	-0.068780	0.879222
O53	O	1.996250	-0.540864	0.305805
O54	O	2.496250	-0.040864	0.805805
C55	C	1.933293	-0.623381	0.379240
C56	C	2.433293	-0.123381	0.879240
C57	C	1.859195	-0.650304	0.465551
C58	C	2.359195	-0.150304	0.965551
C59	C	1.710966	-0.649551	0.638152
C60	C	2.210966	-0.149551	1.138152
C61	C	1.711012	-0.704150	0.638161
C62	C	2.211012	-0.204150	1.138161
C63	C	1.785150	-0.731826	0.551865
C64	C	2.285150	-0.231826	1.051865
C65	C	1.859241	-0.704903	0.465560
C66	C	2.359241	-0.204903	0.965560
C67	C	2.007445	-0.651059	0.292947
C68	C	2.507445	-0.151059	0.792947
C69	C	2.007493	-0.705664	0.292973
C70	C	2.507493	-0.205664	0.792973
C71	C	1.933394	-0.732587	0.379284
C72	C	2.433394	-0.232587	0.879284
C73	C	1.933424	-0.787177	0.379273
C74	C	2.433424	-0.287177	0.879273
N75	N	1.859340	-0.814103	0.465587
N76	N	2.359340	-0.314103	0.965587
C77	C	1.785203	-0.786427	0.551883
C78	C	2.285203	-0.286427	1.051883
C79	C	1.933123	-0.454114	0.379192
C80	C	2.433123	0.045886	0.879192
C81	C	1.933063	-0.399515	0.379168
C82	C	2.433063	0.100485	0.879168
C83	C	1.784835	-0.398764	0.551783
C84	C	2.284835	0.101236	1.051783
C85	C	1.784889	-0.453365	0.551801
C86	C	2.284889	0.046635	1.051801
C87	C	1.859039	-0.481039	0.465506
C88	C	2.359039	0.018961	0.965506
C89	C	1.785305	-0.901088	0.551895
C90	C	2.285305	-0.401088	1.051895
C91	C	1.785353	-0.955692	0.551893
C92	C	2.285353	-0.455692	1.051893
C93	C	1.933586	-0.956438	0.379282
C94	C	2.433586	-0.456438	0.879282
C95	C	1.933533	-0.901839	0.379279
C96	C	2.433533	-0.401839	0.879279
C97	C	1.859389	-0.874165	0.465596
C98	C	2.359389	-0.374165	0.965596
O99	O	1.996415	-0.815780	0.305898
O100	O	2.496415	-0.315780	0.805898
O101	O	1.722216	-0.814349	0.625298
O102	O	2.222216	-0.314349	1.125298
C103	C	2.186329	-0.168263	0.440464
C104	C	2.686329	0.331737	0.940464
C105	C	2.325763	-0.164169	0.429796
C106	C	2.825763	0.335831	0.929796
C107	C	1.884342	-0.166610	0.792701
C108	C	2.384342	0.333390	1.292701
C109	C	1.895088	-0.161812	0.932135
C110	C	2.395088	0.338188	1.432135
C111	C	1.859382	-0.041487	0.465568
C112	C	2.359382	0.458513	0.965568
C113	C	1.859491	0.016632	0.465597
C114	C	2.359491	0.516632	0.965597
C115	C	1.834079	-0.189046	0.139563
C116	C	2.334079	0.310954	0.639563
C117	C	1.823577	-0.193690	0.000112
C118	C	2.323577	0.306310	0.500112
H119	H	1.374216	-0.137591	0.360535
H120	H	1.874216	0.362409	0.860535
Br121	Br	1.684680	-0.863540	0.669040
Br122	Br	2.184680	-0.363540	1.169040
H123	H	1.725011	-0.977610	0.622181
H124	H	2.225011	-0.477610	1.122181
H125	H	1.964542	-0.130848	0.980614
H126	H	2.464542	0.369152	1.480614
Br127	Br	1.707835	-0.245304	0.919324
Br128	Br	2.207835	0.254696	1.419324
H129	H	1.650672	-0.726066	0.708442
H130	H	2.150672	-0.226066	1.208442
Br131	Br	1.313004	-0.235857	0.616566
Br132	Br	1.813004	0.264143	1.116566
Br133	Br	1.610340	-0.612002	0.755286
Br134	Br	2.110340	-0.112002	1.255286
Br135	Br	1.684323	-0.489898	0.668940
Br136	Br	2.184323	0.010102	1.168940
H137	H	1.724470	-0.376220	0.622052
H138	H	2.224470	0.123780	1.122052
Br139	Br	2.033610	-0.362984	0.262009
Br140	Br	2.533610	0.137016	0.762009
Br141	Br	2.034063	-0.865301	0.262114
Br142	Br	2.534063	-0.365301	0.762114
Br143	Br	2.033757	-0.491667	0.262059
Br144	Br	2.533757	0.008333	0.762059
H145	H	2.067783	-0.629146	0.222665
H146	H	2.567783	-0.129146	0.722665
Br147	Br	2.108136	-0.743218	0.175855
Br148	Br	2.608136	-0.243218	0.675855
Br149	Br	2.034201	-0.994008	0.262176
Br150	Br	2.534201	-0.494008	0.762176
