data_functionalizedCrystal
_audit_creation_method	'MofGen! by Chris Wilmer'
_symmetry_space_group_name_H-M	'P1'
_symmetry_Int_Tables_number	1
_symmetry_cell_setting	triclinic
loop_
_symmetry_equiv_pos_as_xyz
  x,y,z
_cell_length_a	23.532407
_cell_length_b	10.723024
_cell_length_c	9.798715
_cell_angle_alpha	90.001978
_cell_angle_beta	89.998337
_cell_angle_gamma	83.658273
loop_
_atom_site_label
_atom_site_type_symbol
_atom_site_fract_x
_atom_site_fract_y
_atom_site_fract_z
O1	O	-0.756242	-0.151465	-0.113317
O2	O	-0.590521	-0.173381	-0.113357
O3	O	-0.677204	0.019272	-0.113331
O4	O	-0.669559	-0.344118	-0.113343
O5	O	-0.677197	0.019273	0.113651
O6	O	-0.590514	-0.173381	0.113625
O7	O	-0.756235	-0.151465	0.113665
Zn8	Zn	-0.673374	-0.162423	0.149683
Zn9	Zn	-0.673382	-0.162423	-0.149376
O10	O	-0.669552	-0.344118	0.113639
C11	C	-0.676644	0.065755	0.000158
C12	C	-0.674980	0.204257	0.000153
C13	C	-0.569298	-0.172823	0.000129
C14	C	-0.506070	-0.171145	0.000114
C15	C	-0.777458	-0.152023	0.000176
C16	C	-0.840686	-0.153701	0.000182
C17	C	-0.107638	-0.274629	0.000172
C18	C	-0.048228	-0.273070	0.000181
O19	O	-0.012106	-0.369001	0.000227
N20	N	-0.024859	-0.158538	0.000182
C21	C	-0.060903	-0.045557	0.000189
O22	O	-0.035570	0.052005	0.000192
C23	C	-0.120312	-0.047117	0.000190
C24	C	-0.143678	-0.161656	0.000175
C25	C	-0.131005	-0.389159	0.000158
C26	C	-0.190411	-0.390717	0.000147
C27	C	-0.226451	-0.277745	0.000150
C28	C	-0.203084	-0.163215	0.000164
C29	C	-0.156356	0.065863	0.000207
C30	C	-0.215768	0.064293	0.000210
C31	C	-0.239134	-0.050247	0.000194
C32	C	-0.298530	-0.051801	0.000156
N33	N	-0.321900	-0.166333	0.000155
C34	C	-0.285860	-0.279305	0.000152
C35	C	0.063861	-0.042289	0.000189
C36	C	0.123269	-0.040728	0.000177
C37	C	0.135940	-0.268242	0.000172
C38	C	0.076531	-0.269802	0.000173
C39	C	0.040491	-0.156821	0.000187
C40	C	-0.410618	-0.282569	0.000128
C41	C	-0.470030	-0.284117	0.000111
C42	C	-0.482696	-0.056604	0.000124
C43	C	-0.423289	-0.055055	0.000133
C44	C	-0.387251	-0.168048	0.000140
O45	O	-0.334687	0.044080	0.000115
O46	O	-0.311201	-0.376851	0.000166
C47	C	-0.670112	-0.390600	0.000147
C48	C	-0.671776	-0.529103	0.000143
N49	N	-0.673372	-0.162421	0.353783
C50	C	-0.723483	0.280751	0.000162
C51	C	-0.721764	0.423901	0.000157
N52	N	-0.673388	-0.162414	-0.353475
C53	C	-0.709768	-0.081180	0.421571
C54	C	-0.709777	-0.081176	0.578733
H55	H	-0.489051	-0.377393	0.000098
H56	H	-0.632181	0.244746	0.000134
H57	H	-0.630251	0.405179	0.000144
O58	O	0.053903	-0.381144	-0.000015
C59	C	0.046544	-0.576046	-0.117659
C60	C	0.072212	-0.450003	-0.117603
H61	H	0.061326	-0.631744	-0.212732
H62	H	0.061370	-0.631920	-0.022736
H63	H	-0.002108	-0.557743	-0.117587
H64	H	0.120865	-0.468193	-0.117722
H65	H	0.057341	-0.394169	-0.212517
O66	O	-0.746879	0.001945	0.352044
C67	C	-0.779156	0.219348	0.308022
C68	C	-0.737085	0.125361	0.386835
H69	H	-0.771261	0.319150	0.336143
H70	H	-0.772515	0.204634	0.193656
H71	H	-0.824871	0.203829	0.335993
H72	H	-0.691354	0.140823	0.358979
H73	H	-0.743776	0.140098	0.501182
O74	O	-0.747031	0.001688	0.648205
C75	C	-0.845681	0.076517	0.692099
C76	C	-0.803555	-0.017420	0.613362
H77	H	-0.891390	0.061119	0.663936
H78	H	-0.839116	0.061742	0.806478
H79	H	-0.837720	0.176306	0.664103
H80	H	-0.811491	-0.117245	0.641244
H81	H	-0.810130	-0.002535	0.499003
H82	H	0.165295	-0.360230	0.000176
H83	H	-0.766281	0.240262	0.000181
H84	H	-0.642229	-0.231976	0.588239
H85	H	-0.642217	-0.231968	0.412098
O86	O	-0.096025	-0.498944	-0.000092
C87	C	-0.067062	-0.692953	-0.117678
C88	C	-0.106694	-0.568646	-0.117564
H89	H	-0.075683	-0.749354	-0.212629
H90	H	-0.020573	-0.672267	-0.117769
H91	H	-0.075619	-0.749307	-0.022650
H92	H	-0.098189	-0.512231	-0.212576
H93	H	-0.153171	-0.589420	-0.117402
H94	H	-0.404264	0.038213	0.000126
O95	O	-0.771318	0.502251	0.000407
C96	C	-0.859411	0.568783	0.117971
C97	C	-0.803304	0.479998	0.117876
H98	H	-0.885292	0.550804	0.212920
H99	H	-0.849231	0.670288	0.118053
H100	H	-0.885264	0.550924	0.022941
H101	H	-0.777424	0.497743	0.212889
H102	H	-0.813523	0.378522	0.117723
H103	H	-0.381282	-0.374578	0.000137
H104	H	-0.512050	0.035375	0.000121
H105	H	-0.209430	-0.483987	0.000134
H106	H	0.142288	0.052542	0.000169
H107	H	-0.137342	0.159133	0.000221
O108	O	-0.250753	0.174078	-0.000026
C109	C	-0.279728	0.368094	-0.117568
C110	C	-0.240087	0.243800	-0.117482
H111	H	-0.271110	0.424510	-0.212507
H112	H	-0.326215	0.347389	-0.117666
H113	H	-0.271179	0.424441	-0.022528
H114	H	-0.248585	0.187392	-0.212506
H115	H	-0.193612	0.264593	-0.117313
H116	H	0.034520	0.049719	0.000188
