data_functionalizedCrystal
_audit_creation_method	'MofGen! by Chris Wilmer'
_symmetry_space_group_name_H-M	'P1'
_symmetry_Int_Tables_number	1
_symmetry_cell_setting	triclinic
loop_
_symmetry_equiv_pos_as_xyz
  x,y,z
_cell_length_a	23.532355
_cell_length_b	22.610064
_cell_length_c	17.699083
_cell_angle_alpha	89.998006
_cell_angle_beta	96.944744
_cell_angle_gamma	89.990547
loop_
_atom_site_label
_atom_site_type_symbol
_atom_site_fract_x
_atom_site_fract_y
_atom_site_fract_z
O1	O	0.755551	-0.049096	-0.091689
O2	O	1.088884	0.284237	0.241645
O3	O	1.422218	0.617571	0.574978
O4	O	0.589722	-0.049114	-0.105024
O5	O	0.923055	0.284220	0.228310
O6	O	1.256389	0.617553	0.561643
O7	O	0.677322	-0.049110	0.011858
O8	O	1.010655	0.284223	0.345191
O9	O	1.343988	0.617556	0.678525
O10	O	0.667951	-0.049100	-0.208570
O11	O	1.001285	0.284234	0.124763
O12	O	1.334618	0.617567	0.458096
O13	O	0.677296	0.049259	0.011858
O14	O	1.010629	0.382592	0.345191
O15	O	1.343963	0.715926	0.678525
O16	O	0.589696	0.049255	-0.105024
O17	O	0.923030	0.382589	0.228310
O18	O	1.256363	0.715922	0.561643
O19	O	0.755526	0.049273	-0.091689
O20	O	1.088859	0.382606	0.241645
O21	O	1.422192	0.715940	0.574978
Zn22	Zn	0.672607	0.064882	-0.098356
Zn23	Zn	1.005940	0.398216	0.234977
Zn24	Zn	1.339273	0.731549	0.568311
Zn25	Zn	0.672641	-0.064723	-0.098356
Zn26	Zn	1.005974	0.268610	0.234977
Zn27	Zn	1.339307	0.601943	0.568311
O28	O	0.667926	0.049270	-0.208570
O29	O	1.001259	0.382603	0.124763
O30	O	1.334592	0.715936	0.458096
C31	C	0.568492	0.000068	-0.104690
C32	C	0.901825	0.333402	0.228643
C33	C	1.235158	0.666735	0.561976
C34	C	0.505270	0.000061	-0.103688
C35	C	0.838603	0.333395	0.229645
C36	C	1.171937	0.666728	0.562979
N37	N	0.672588	0.153335	-0.098356
N38	N	1.005921	0.486668	0.234978
N39	N	1.339255	0.820002	0.568311
C40	C	0.113224	0.053707	-0.097391
C41	C	0.446557	0.387040	0.235942
C42	C	0.779891	0.720373	0.569275
C43	C	0.053822	0.053709	-0.096438
C44	C	0.387155	0.387042	0.236895
C45	C	0.720489	0.720376	0.570229
O46	O	0.023090	0.099311	-0.095919
O47	O	0.356423	0.432644	0.237414
O48	O	0.689757	0.765978	0.570748
N49	N	0.024126	0.000088	-0.095965
N50	N	0.357459	0.333421	0.237368
N51	N	0.690793	0.666755	0.570702
C52	C	0.053836	-0.053539	-0.096438
C53	C	0.387170	0.279795	0.236895
C54	C	0.720503	0.613128	0.570229
O55	O	0.023123	-0.099147	-0.095948
O56	O	0.356456	0.234186	0.237386
O57	O	0.689790	0.567520	0.570719
C58	C	0.113238	-0.053540	-0.097386
C59	C	0.446571	0.279793	0.235947
C60	C	0.779905	0.613127	0.569281
C61	C	0.142930	0.000084	-0.097867
C62	C	0.476263	0.333418	0.235467
C63	C	0.809597	0.666751	0.568800
C64	C	0.142916	0.107327	-0.097871
C65	C	0.476250	0.440660	0.235462
C66	C	0.809583	0.773993	0.568796
C67	C	0.202314	0.107324	-0.098826
C68	C	0.535648	0.440658	0.234508
C69	C	0.868981	0.773991	0.567841
C70	C	0.232020	0.053702	-0.099301
C71	C	0.565353	0.387035	0.234032
C72	C	0.898687	0.720368	0.567366
C73	C	0.202328	0.000082	-0.098821
C74	C	0.535661	0.333415	0.234512
C75	C	0.868994	0.666748	0.567845
C76	C	0.142947	-0.107166	-0.097854
C77	C	0.476281	0.226167	0.235480
C78	C	0.809614	0.559501	0.568813
C79	C	0.202353	-0.107163	-0.098801
C80	C	0.535687	0.226170	0.234532
C81	C	0.869020	0.559503	0.567865
C82	C	0.232045	-0.053539	-0.099282
C83	C	0.565379	0.279795	0.234052
C84	C	0.898712	0.613128	0.567385
C85	C	0.291431	-0.053543	-0.100251
C86	C	0.624765	0.279790	0.233082
C87	C	0.958098	0.613123	0.566415
N88	N	0.321127	0.000078	-0.100724
N89	N	0.654461	0.333411	0.232609
N90	N	0.987794	0.666744	0.565942
C91	C	0.291422	0.053700	-0.100249
C92	C	0.624755	0.387033	0.233084
C93	C	0.958088	0.720367	0.566418
C94	C	-0.070911	-0.053531	-0.094446
C95	C	0.262422	0.279802	0.238887
C96	C	0.595756	0.613136	0.572221
C97	C	-0.130312	-0.053530	-0.093503
C98	C	0.203021	0.279803	0.239830
C99	C	0.536355	0.613137	0.573163
C100	C	-0.130322	0.053718	-0.093502
C101	C	0.203011	0.387051	0.239832
C102	C	0.536345	0.720384	0.573165
C103	C	-0.070920	0.053716	-0.094450
C104	C	0.262413	0.387049	0.238884
C105	C	0.595746	0.720383	0.572217
C106	C	-0.041215	0.000090	-0.094919
C107	C	0.292118	0.333423	0.238415
C108	C	0.625452	0.666757	0.571748
C109	C	0.416161	0.053691	-0.102255
C110	C	0.749495	0.387024	0.231078
C111	C	1.082828	0.720358	0.564412
C112	C	0.475564	0.053684	-0.103213
C113	C	0.808898	0.387017	0.230120
C114	C	1.142231	0.720350	0.563454
C115	C	0.475570	-0.053564	-0.103210
C116	C	0.808903	0.279770	0.230123
C117	C	1.142236	0.613103	0.563456
C118	C	0.416171	-0.053557	-0.102256
C119	C	0.749505	0.279777	0.231077
C120	C	1.082838	0.613110	0.564410
C121	C	0.386469	0.000075	-0.101776
C122	C	0.719802	0.333409	0.231557
C123	C	1.053136	0.666742	0.564891
O124	O	0.322201	-0.099122	-0.100768
O125	O	0.655535	0.234211	0.232566
O126	O	0.988868	0.567545	0.565899
O127	O	0.322143	0.099301	-0.100729
O128	O	0.655476	0.432634	0.232604
O129	O	0.988810	0.765968	0.565937
N130	N	0.672664	-0.153176	-0.098351
N131	N	1.005997	0.180158	0.234983
N132	N	1.339331	0.513491	0.568316
C133	C	0.776756	0.000090	-0.092022
C134	C	1.110089	0.333423	0.241311
C135	C	1.443423	0.666756	0.574645
C136	C	0.839977	0.000093	-0.093024
C137	C	1.173311	0.333426	0.240309
C138	C	1.506644	0.666760	0.573643
C139	C	0.707117	0.561983	-0.144011
C140	C	1.040451	0.895316	0.189322
C141	C	1.373784	1.228649	0.522655
C142	C	0.707124	0.623903	-0.144009
C143	C	1.040458	0.957236	0.189324
C144	C	1.373791	1.290569	0.522657
O145	O	0.736460	0.655927	-0.182822
O146	O	1.069793	0.989260	0.150511
O147	O	1.403127	1.322593	0.483844
N148	N	0.672652	0.654872	-0.098347
N149	N	1.005985	0.988205	0.234986
N150	N	1.339318	1.321539	0.568319
C151	C	0.638174	0.623918	-0.052679
C152	C	0.971507	0.957252	0.280655
C153	C	1.304840	1.290585	0.613988
O154	O	0.608853	0.655946	-0.013839
O155	O	0.942186	0.989279	0.319495
O156	O	1.275519	1.322613	0.652828
C157	C	0.638170	0.562000	-0.052677
C158	C	0.971503	0.895333	0.280656
C159	C	1.304837	1.228666	0.613990
C160	C	0.672641	0.531033	-0.098348
C161	C	1.005974	0.864367	0.234986
C162	C	1.339307	1.197700	0.568319
C163	C	0.741586	0.531016	-0.189678
C164	C	1.074919	0.864350	0.143656
C165	C	1.408252	1.197683	0.476989
C166	C	0.741578	0.469101	-0.189680
C167	C	1.074911	0.802434	0.143653
C168	C	1.408244	1.135767	0.476986
C169	C	0.707101	0.438151	-0.144017
C170	C	1.040434	0.771485	0.189316
C171	C	1.373768	1.104818	0.522650
C172	C	0.672633	0.469118	-0.098350
C173	C	1.005966	0.802451	0.234983
C174	C	1.339299	1.135784	0.568316
C175	C	0.603695	0.531047	-0.007004
C176	C	0.937029	0.864381	0.326329
C177	C	1.270362	1.197714	0.659662
C178	C	0.603695	0.469124	-0.007006
C179	C	0.937028	0.802458	0.326327
C180	C	1.270362	1.135791	0.659660
C181	C	0.638166	0.438158	-0.052677
C182	C	0.971499	0.771491	0.280656
C183	C	1.304832	1.104825	0.613990
C184	C	0.638148	0.376253	-0.052690
C185	C	0.971481	0.709586	0.280644
C186	C	1.304815	1.042919	0.613977
N187	N	0.672621	0.345283	-0.098352
N188	N	1.005954	0.678617	0.234982
N189	N	1.339287	1.011950	0.568315
C190	C	0.707097	0.376233	-0.144015
C191	C	1.040431	0.709566	0.189318
C192	C	1.373764	1.042899	0.522651
C193	C	0.638185	0.753952	-0.052684
C194	C	0.971518	1.087285	0.280649
C195	C	1.304851	1.420619	0.613982
C196	C	0.638185	0.815870	-0.052690
C197	C	0.971518	1.149203	0.280644
C198	C	1.304852	1.482536	0.613977
C199	C	0.707137	0.815850	-0.144020
C200	C	1.040470	1.149183	0.189314
C201	C	1.373803	1.482516	0.522647
C202	C	0.707133	0.753931	-0.144018
C203	C	1.040466	1.087264	0.189315
C204	C	1.373800	1.420597	0.522649
C205	C	0.672658	0.722983	-0.098346
C206	C	1.005991	1.056316	0.234987
C207	C	1.339324	1.389649	0.568320
C208	C	0.707077	0.246205	-0.144018
C209	C	1.040411	0.579539	0.189315
C210	C	1.373744	0.912872	0.522649
C211	C	0.707065	0.184284	-0.144019
C212	C	1.040398	0.517617	0.189314
C213	C	1.373731	0.850951	0.522647
C214	C	0.638115	0.184310	-0.052687
C215	C	0.971449	0.517643	0.280647
C216	C	1.304782	0.850976	0.613980
C217	C	0.638126	0.246225	-0.052688
C218	C	0.971459	0.579559	0.280645
C219	C	1.304792	0.912892	0.613979
C220	C	0.672611	0.277172	-0.098356
C221	C	1.005945	0.610505	0.234977
C222	C	1.339278	0.943838	0.568311
O223	O	0.608829	0.344189	-0.013894
O224	O	0.942163	0.677523	0.319439
O225	O	1.275496	1.010856	0.652773
O226	O	0.736419	0.344197	-0.182841
O227	O	1.069752	0.677531	0.150492
O228	O	1.403086	1.010864	0.483826
C229	C	0.668274	0.000086	-0.236765
C230	C	1.001608	0.333420	0.096568
C231	C	1.334941	0.666753	0.429901
C232	C	0.669282	0.000091	-0.320778
C233	C	1.002615	0.333424	0.012555
C234	C	1.335948	0.666757	0.345889
C235	C	0.617862	0.000085	-0.369673
C236	C	0.951196	0.333419	-0.036339
C237	C	1.284529	0.666752	0.296994
C238	C	0.618812	0.000079	-0.448611
C239	C	0.952146	0.333412	-0.115278
C240	C	1.285479	0.666745	0.218056
C241	C	0.671182	0.000081	-0.478653
C242	C	1.004515	0.333415	-0.145320
C243	C	1.337849	0.666748	0.188014
C244	C	0.722605	0.000085	-0.429752
C245	C	1.055938	0.333418	-0.096419
C246	C	1.389272	0.666752	0.236914
C247	C	0.721655	0.000088	-0.350816
C248	C	1.054988	0.333421	-0.017482
C249	C	1.388321	0.666754	0.315851
C250	C	0.726439	0.000074	-0.748095
C251	C	1.059772	0.333407	-0.414762
C252	C	1.393106	0.666740	-0.081428
C253	C	0.727386	0.000073	-0.827038
C254	C	1.060719	0.333406	-0.493705
C255	C	1.394052	0.666740	-0.160371
C256	C	0.623597	0.000065	-0.845890
C257	C	0.956930	0.333398	-0.512557
C258	C	1.290263	0.666731	-0.179224
C259	C	0.622646	0.000067	-0.766954
C260	C	0.955980	0.333401	-0.433620
C261	C	1.289313	0.666734	-0.100287
C262	C	0.674069	0.000068	-0.718060
C263	C	1.007402	0.333401	-0.384726
C264	C	1.340736	0.666734	-0.051393
C265	C	0.673039	0.000074	-0.632466
C266	C	1.006372	0.333407	-0.299133
C267	C	1.339705	0.666741	0.034201
C268	C	0.672213	0.000079	-0.564245
C269	C	1.005546	0.333413	-0.230912
C270	C	1.338880	0.666746	0.102421
C271	C	0.676973	0.000072	0.040053
C272	C	1.010306	0.333405	0.373387
C273	C	1.343640	0.666738	0.706720
C274	C	0.675966	0.000063	0.124066
C275	C	1.009299	0.333397	0.457399
C276	C	1.342632	0.666730	0.790733
H277	H	0.499737	0.097353	-0.103607
H278	H	0.833070	0.430686	0.229727
H279	H	1.166403	0.764020	0.563060
H280	H	0.770034	0.000074	-0.851494
H281	H	1.103367	0.333408	-0.518161
H282	H	1.436700	0.666741	-0.184828
H283	H	0.735202	0.728722	-0.181208
H284	H	1.068535	1.062055	0.152126
H285	H	1.401869	1.395389	0.485459
Br286	Br	-0.170603	-0.126309	-0.092870
Br287	Br	0.162730	0.207024	0.240463
Br288	Br	0.496064	0.540358	0.573797
H289	H	0.763525	0.000090	-0.311006
H290	H	1.096859	0.333423	0.022328
H291	H	1.430192	0.666756	0.355661
Br292	Br	0.553807	0.000062	-0.912251
Br293	Br	0.887140	0.333395	-0.578917
Br294	Br	1.220474	0.666729	-0.245584
Br295	Br	0.375861	0.126478	-0.101601
Br296	Br	0.709194	0.459811	0.231733
Br297	Br	1.042527	0.793144	0.565066
Br298	Br	0.793679	0.000082	-0.470523
Br299	Br	1.127013	0.333415	-0.137189
Br300	Br	1.460346	0.666749	0.196144
Br301	Br	0.591390	0.857888	0.009280
Br302	Br	0.924724	1.191221	0.342613
Br303	Br	1.258057	1.524554	0.675947
Br304	Br	0.796227	0.000079	-0.681749
Br305	Br	1.129561	0.333413	-0.348415
Br306	Br	1.462894	0.666746	-0.015082
Br307	Br	0.788382	0.573007	-0.251658
Br308	Br	1.121716	0.906340	0.081675
Br309	Br	1.455049	1.239674	0.415009
Br310	Br	0.788351	0.427084	-0.251681
Br311	Br	1.121684	0.760418	0.081653
Br312	Br	1.455018	1.093751	0.414986
Br313	Br	0.375872	-0.126333	-0.101620
Br314	Br	0.709205	0.207000	0.231713
Br315	Br	1.042539	0.540334	0.565047
Br316	Br	-0.170648	0.126492	-0.092856
Br317	Br	0.162685	0.459825	0.240477
Br318	Br	0.496018	0.793159	0.573811
H319	H	0.575217	0.000090	-0.345219
H320	H	0.908550	0.333423	-0.011886
H321	H	1.241884	0.666757	0.321447
H322	H	0.499766	-0.097222	-0.103601
H323	H	0.833100	0.236112	0.229733
H324	H	1.166433	0.569445	0.563066
Br325	Br	-0.030603	-0.126317	-0.095089
Br326	Br	0.302730	0.207017	0.238244
Br327	Br	0.636063	0.540350	0.571578
Br328	Br	0.102666	-0.179947	-0.097201
Br329	Br	0.436000	0.153386	0.236132
Br330	Br	0.769333	0.486720	0.569466
Br331	Br	0.549026	0.000063	-0.514966
Br332	Br	0.882359	0.333396	-0.181633
Br333	Br	1.215693	0.666730	0.151701
H334	H	0.610044	0.159100	-0.015511
H335	H	0.943377	0.492433	0.317823
H336	H	1.276710	0.825766	0.651156
Br337	Br	0.102612	0.180110	-0.097229
Br338	Br	0.435946	0.513444	0.236104
Br339	Br	0.769279	0.846777	0.569438
Br340	Br	0.242602	0.180104	-0.099474
Br341	Br	0.575935	0.513438	0.233859
Br342	Br	0.909268	0.846771	0.567192
H343	H	0.226536	-0.150833	-0.099183
H344	H	0.559869	0.182500	0.234150
H345	H	0.893203	0.515833	0.567483
H346	H	0.735209	0.841060	-0.181202
H347	H	1.068542	1.174393	0.152131
H348	H	1.401875	1.507726	0.485464
H349	H	0.575626	0.556249	0.030187
H350	H	0.908960	0.889583	0.363520
H351	H	1.242293	1.222916	0.696853
H352	H	-0.046749	0.097382	-0.094842
H353	H	0.286584	0.430715	0.238492
H354	H	0.619917	0.764048	0.571825
H355	H	0.735135	0.159074	-0.181213
H356	H	1.068468	0.492407	0.152120
H357	H	1.401801	0.825741	0.485453
H358	H	0.735159	0.271394	-0.181205
H359	H	1.068493	0.604728	0.152128
H360	H	1.401826	0.938061	0.485462
Br361	Br	0.591385	0.711957	0.009296
Br362	Br	0.924719	1.045290	0.342629
Br363	Br	1.258052	1.378624	0.675962
Br364	Br	0.556910	0.427127	0.054989
Br365	Br	0.890244	0.760460	0.388322
Br366	Br	1.223577	1.093793	0.721655
Br367	Br	0.591337	0.288253	0.009285
Br368	Br	0.924670	0.621586	0.342618
Br369	Br	1.258003	0.954919	0.675951
H370	H	0.580002	0.000068	-0.742498
H371	H	0.913335	0.333401	-0.409165
H372	H	1.246668	0.666735	-0.075832
