data_functionalizedCrystal
_audit_creation_method	'MofGen! by Chris Wilmer'
_symmetry_space_group_name_H-M	'P1'
_symmetry_Int_Tables_number	1
_symmetry_cell_setting	triclinic
loop_
_symmetry_equiv_pos_as_xyz
  x,y,z
_cell_length_a	13.897447
_cell_length_b	19.077241
_cell_length_c	13.897441
_cell_angle_alpha	87.675400
_cell_angle_beta	90.029327
_cell_angle_gamma	87.688469
loop_
_atom_site_label
_atom_site_type_symbol
_atom_site_fract_x
_atom_site_fract_y
_atom_site_fract_z
Zn1	Zn	-0.324880	-1.076050	0.604799
Zn2	Zn	-0.486206	-1.075969	0.443500
Zn3	Zn	-0.331388	-0.958345	0.437019
Zn4	Zn	-0.492601	-0.958327	0.598257
O5	O	-0.408769	-1.017173	0.520894
O6	O	-0.340881	-1.174532	0.588852
O7	O	-0.465717	-1.060339	0.307657
O8	O	-0.195541	-0.974000	0.459301
O9	O	-0.459407	-1.174472	0.470346
O10	O	-0.190760	-1.060477	0.582568
O11	O	-0.351972	-0.973921	0.302895
O12	O	-0.358173	-0.859849	0.452957
O13	O	-0.470305	-0.973970	0.734108
O14	O	-0.476615	-0.859837	0.571419
O15	O	-0.347082	-1.060460	0.738914
O16	O	-0.622039	-1.060322	0.464003
O17	O	-0.626737	-0.973892	0.577703
C18	C	-0.418795	-0.834305	0.510775
C19	C	-0.423107	-0.756073	0.506470
C20	C	-0.363521	-0.719351	0.566241
C21	C	-0.367568	-0.645844	0.562187
C22	C	-0.431207	-0.609060	0.498366
C23	C	-0.490796	-0.645787	0.438588
C24	C	-0.486743	-0.719293	0.442638
C25	C	-0.449930	-0.389219	0.479623
C26	C	-0.453981	-0.315708	0.475579
C27	C	-0.330752	-0.315770	0.599177
C28	C	-0.326708	-0.389277	0.603226
C29	C	-0.386293	-0.425998	0.543444
N30	N	-0.435348	-0.533924	0.494223
N31	N	-0.382147	-0.501132	0.547584
C32	C	-0.659386	-1.017115	0.520868
C33	C	-0.766598	-1.017155	0.520893
C34	C	-0.853666	-1.017189	0.520917
C35	C	-0.962896	-1.017239	0.520944
C36	C	-0.157172	-1.017249	0.520941
C37	C	-0.049956	-1.017282	0.520962
C38	C	-0.408681	-1.017222	0.772490
C39	C	-0.408643	-1.017244	0.879705
C40	C	-0.398699	-0.200754	0.531044
C41	C	-0.394395	-0.278986	0.535351
C42	C	-0.408785	-1.017163	0.270279
C43	C	-0.408543	-1.017278	0.163072
C44	C	-0.408577	-1.017263	1.076001
C45	C	-0.408617	-1.017250	0.966768
H46	H	-0.274890	-0.419222	0.655199
H47	H	-0.319049	-0.615949	0.610861
Br48	Br	-0.567611	-0.769131	0.361515
H49	H	-0.498450	-0.419108	0.430946
Br50	Br	-0.577156	-0.595867	0.351965
H51	H	-0.282240	-0.285864	0.647846
H52	H	-0.505808	-0.285760	0.423608
Br53	Br	-0.277156	-0.769265	0.652866
