data_functionalizedCrystal
_audit_creation_method	'MofGen! by Chris Wilmer'
_symmetry_space_group_name_H-M	'P1'
_symmetry_Int_Tables_number	1
_symmetry_cell_setting	triclinic
loop_
_symmetry_equiv_pos_as_xyz
  x,y,z
_cell_length_a	17.699077
_cell_length_b	16.109301
_cell_length_c	16.176319
_cell_angle_alpha	90.002024
_cell_angle_beta	90.006844
_cell_angle_gamma	83.371029
loop_
_atom_site_label
_atom_site_type_symbol
_atom_site_fract_x
_atom_site_fract_y
_atom_site_fract_z
O1	O	1.004232	0.105108	0.068738
O2	O	0.783873	0.118792	0.068743
O3	O	0.900106	-0.009091	0.068732
O4	O	0.887999	0.232992	0.068749
O5	O	0.900089	-0.009084	-0.068761
O6	O	0.783855	0.118799	-0.068751
O7	O	1.004215	0.105115	-0.068755
Cu8	Cu	0.894034	0.111958	-0.081307
Cu9	Cu	0.894054	0.111950	0.081295
O10	O	0.887982	0.232999	-0.068744
C11	C	0.899607	-0.040062	-0.000015
C12	C	0.898137	-0.132354	-0.000016
C13	C	0.755666	0.118307	-0.000004
C14	C	0.671646	0.116838	-0.000002
C15	C	0.963688	-0.354741	-0.000005
C16	C	0.962301	-0.441459	0.000002
C17	C	0.824394	-0.421344	0.000002
C18	C	0.825782	-0.334628	0.000001
C19	C	0.895432	-0.301329	-0.000006
C20	C	0.892656	-0.474763	0.000001
C21	C	0.891151	-0.568787	0.000009
C22	C	0.896937	-0.207300	-0.000012
C23	C	0.632168	0.116150	-0.074951
C24	C	0.553224	0.114757	-0.074952
C25	C	0.513758	0.114058	-0.000003
C26	C	0.553241	0.114744	0.074951
C27	C	0.632185	0.116131	0.074951
C28	C	0.234870	0.109149	0.074952
C29	C	0.155921	0.107764	0.074946
C30	C	0.155908	0.107775	-0.074951
C31	C	0.234852	0.109162	-0.074950
C32	C	0.274330	0.109843	0.000003
C33	C	0.359930	0.111352	0.000003
C34	C	0.428158	0.112555	-0.000003
C35	C	1.032421	0.105601	-0.000007
C36	C	1.116442	0.107070	-0.000003
C37	C	0.888481	0.263970	0.000005
C38	C	0.889951	0.356262	0.000011
N39	N	0.894024	0.111963	-0.195672
C40	C	0.945544	0.055331	-0.761060
C41	C	0.945541	0.055337	-0.674512
C42	C	0.894059	0.111946	-0.631248
C43	C	0.842582	0.168559	-0.674534
C44	C	0.842589	0.168556	-0.761080
C45	C	0.842551	0.168570	-0.325506
C46	C	0.842546	0.168567	-0.238954
C47	C	0.945502	0.055351	-0.238939
C48	C	0.945510	0.055349	-0.325484
C49	C	0.894036	0.111964	-0.368763
C50	C	0.894041	0.111958	-0.462608
C51	C	0.894049	0.111949	-0.537405
N52	N	0.894069	0.111938	0.195660
H53	H	1.020401	-0.327632	-0.000009
H54	H	0.521103	0.114169	0.135975
C55	C	0.786580	0.230072	-0.372338
C56	C	0.741481	0.279630	-0.315922
C57	C	0.689905	0.336291	-0.359036
H58	H	0.813711	0.264724	-0.406092
H59	H	0.755043	0.200233	-0.406093
H60	H	0.773014	0.309466	-0.282181
H61	H	0.714334	0.245001	-0.282166
H62	H	0.658368	0.306452	-0.392791
H63	H	0.717042	0.370937	-0.392789
H64	H	0.659295	0.369917	-0.320765
H65	H	0.123757	0.107216	-0.135982
C66	C	0.786806	0.230061	-0.627457
C67	C	0.827100	0.280885	-0.577741
C68	C	0.775743	0.337542	-0.534356
H69	H	0.756129	0.263855	-0.665535
H70	H	0.755318	0.200217	-0.593657
H71	H	0.858575	0.310727	-0.611538
H72	H	0.857775	0.247114	-0.539648
H73	H	0.744255	0.307698	-0.500556
H74	H	0.745068	0.371331	-0.572439
H75	H	0.803074	0.372028	-0.500613
H76	H	0.987418	0.009255	-0.203692
C77	C	1.001443	-0.005979	-0.372563
C78	C	1.047748	0.038247	-0.422253
C79	C	1.099278	-0.018219	-0.465640
H80	H	1.032174	-0.039716	-0.334486
H81	H	0.974251	-0.040540	-0.406380
H82	H	1.074937	0.072793	-0.388438
H83	H	1.017037	0.071980	-0.460345
H84	H	1.072086	-0.052780	-0.499457
H85	H	1.130004	-0.051952	-0.427557
H86	H	1.130697	0.011780	-0.499365
C87	C	0.786577	0.229916	-0.808032
C88	C	0.712209	0.216522	-0.787015
C89	C	0.660591	0.273025	-0.830259
H90	H	0.794675	0.285431	-0.793882
H91	H	0.793905	0.221803	-0.865779
H92	H	0.704884	0.224641	-0.729281
H93	H	0.704087	0.161018	-0.801167
H94	H	0.667919	0.264913	-0.888005
H95	H	0.668696	0.328537	-0.816105
H96	H	0.610127	0.263940	-0.816011
C97	C	1.036491	-0.499312	-0.000041
C98	C	1.097780	-0.451585	-0.000067
C99	C	1.166138	-0.504850	-0.000117
H100	H	1.038932	-0.533574	0.047895
H101	H	1.038852	-0.533549	-0.048005
H102	H	1.095420	-0.417362	0.047892
H103	H	1.095364	-0.417325	-0.047999
H104	H	1.168499	-0.539087	-0.048081
H105	H	1.168571	-0.539109	0.047820
H106	H	1.207730	-0.472476	-0.000142
H107	H	0.770196	-0.291137	0.000002
C108	C	0.748855	-0.457661	-0.000042
C109	C	0.762246	-0.545036	-0.000065
C110	C	0.692677	-0.578517	-0.000119
H111	H	0.720696	-0.439409	0.047891
H112	H	0.720741	-0.439364	-0.048009
H113	H	0.790348	-0.563326	0.047898
H114	H	0.790394	-0.563311	-0.047994
H115	H	0.664563	-0.560220	-0.048087
H116	H	0.664523	-0.560259	0.047814
H117	H	0.701753	-0.637804	-0.000143
C118	C	0.674882	0.116862	-0.156412
C119	C	0.623411	0.115937	-0.222048
C120	C	0.662730	0.116578	-0.297104
H121	H	0.699896	0.165854	-0.159645
H122	H	0.711450	0.068919	-0.159575
H123	H	0.586856	0.163876	-0.218887
H124	H	0.598395	0.066949	-0.218842
H125	H	0.699298	0.068634	-0.300267
H126	H	0.687743	0.165570	-0.300329
H127	H	0.627814	0.115942	-0.341647
H128	H	0.521086	0.114183	-0.135982
H129	H	0.664327	0.116693	0.135982
H130	H	0.266981	0.109735	-0.135981
H131	H	0.123790	0.107194	0.135982
C132	C	0.277583	0.109930	0.156414
C133	C	0.226118	0.109044	0.222047
C134	C	0.265440	0.109772	0.297106
H135	H	0.314165	0.062017	0.159644
H136	H	0.302577	0.158951	0.159584
H137	H	0.201136	0.060027	0.218879
H138	H	0.189535	0.156953	0.218845
H139	H	0.290434	0.158794	0.300276
H140	H	0.302020	0.061859	0.300327
H141	H	0.230526	0.109179	0.341646
C142	C	1.001521	-0.006173	-0.807879
C143	C	1.046612	-0.055731	-0.751447
C144	C	1.098194	-0.112392	-0.794545
H145	H	0.974395	-0.040825	-0.841648
H146	H	1.033063	0.023665	-0.841618
H147	H	1.015073	-0.085568	-0.717724
H148	H	1.073754	-0.021103	-0.717677
H149	H	1.129736	-0.082554	-0.828283
H150	H	1.071062	-0.147038	-0.828312
H151	H	1.128799	-0.146019	-0.756262
H152	H	0.987455	0.009245	-0.639274
H153	H	0.800621	0.214667	-0.203730
