data_functionalizedCrystal
_audit_creation_method	'MofGen! by Chris Wilmer'
_symmetry_space_group_name_H-M	'P1'
_symmetry_Int_Tables_number	1
_symmetry_cell_setting	triclinic
loop_
_symmetry_equiv_pos_as_xyz
  x,y,z
_cell_length_a	14.044220
_cell_length_b	13.339071
_cell_length_c	11.804783
_cell_angle_alpha	80.564407
_cell_angle_beta	102.227211
_cell_angle_gamma	75.590922
loop_
_atom_site_label
_atom_site_type_symbol
_atom_site_fract_x
_atom_site_fract_y
_atom_site_fract_z
O1	O	-0.464330	1.365958	0.099034
O2	O	-0.400441	1.065666	0.099033
O3	O	-0.293217	1.211306	0.099028
O4	O	-0.571554	1.220318	0.099039
O5	O	-0.338043	1.251782	-0.099011
O6	O	-0.445267	1.106142	-0.099006
O7	O	-0.509156	1.406434	-0.099005
Cu8	Cu	-0.481304	1.259984	-0.117088
Cu9	Cu	-0.428293	1.212116	0.117116
O10	O	-0.616380	1.260794	-0.099000
C11	C	-0.412062	1.047241	0.000013
C12	C	-0.379894	0.932037	0.000012
C13	C	-0.279580	0.882288	0.000004
C14	C	-0.249351	0.774047	0.000009
C15	C	-0.319436	0.715545	0.000013
C16	C	-0.419754	0.765295	0.000013
C17	C	-0.449984	0.873546	0.000017
C18	C	-0.489840	0.706803	0.000026
C19	C	-0.590158	0.756553	0.000025
C20	C	-0.620383	0.864793	0.000029
C21	C	-0.550298	0.923294	0.000025
C22	C	-0.459611	0.598553	0.000021
C23	C	-0.630015	0.589810	0.000034
C24	C	-0.660243	0.698052	0.000029
C25	C	-0.630319	1.244502	0.000021
C26	C	-0.738640	1.256272	0.000025
C27	C	-0.936962	1.277792	0.000020
C28	C	-0.972640	1.194311	0.000018
C29	C	-1.082993	1.206285	0.000016
C30	C	-0.826599	1.265819	0.000023
C31	C	-0.279277	1.227598	0.000010
C32	C	-0.170955	1.215826	0.000013
C33	C	-0.497534	1.424859	0.000018
C34	C	-0.529701	1.540062	0.000026
N35	N	-0.518591	1.293659	-0.281815
C36	C	-0.301443	1.097546	-0.655844
C37	C	-0.273224	1.072050	-0.531193
C38	C	-0.334564	1.127450	-0.468843
C39	C	-0.424127	1.208350	-0.531155
C40	C	-0.452344	1.233854	-0.655819
C41	C	-0.485465	1.263758	-0.468817
C42	C	-0.575027	1.344658	-0.531129
C43	C	-0.603241	1.370157	-0.655781
C44	C	-0.541901	1.314757	-0.718131
C45	C	-0.457247	1.238254	-0.344153
C46	C	-0.608148	1.374562	-0.344128
C47	C	-0.636367	1.400058	-0.468779
N48	N	-0.391000	1.178449	0.281843
H49	H	-0.687084	0.542178	0.000038
Cl50	Cl	-0.786353	0.760606	0.000034
H51	H	-0.384326	1.172384	-0.293430
H52	H	-0.294818	0.627410	0.000017
Cl53	Cl	-0.299089	1.095395	-0.312136
Cl54	Cl	-0.891849	1.070084	0.000007
H55	H	-0.989292	1.358249	0.000016
H56	H	-0.251506	1.052455	-0.706622
H57	H	-0.200301	1.006184	-0.480467
H58	H	-0.564876	1.335508	-0.819633
Cl59	Cl	-0.715826	1.471870	-0.734114
H60	H	-0.709291	1.465928	-0.519531
H61	H	-0.222526	0.929928	0.000009
Cl62	Cl	-0.685263	1.444217	-0.265753
H63	H	-0.377932	0.558056	0.000022
H64	H	-0.167672	0.733547	0.000011
H65	H	-0.574906	1.011435	0.000016
Cl66	Cl	-0.746492	0.927329	0.000052
