data_functionalizedCrystal
_audit_creation_method	'MofGen! by Chris Wilmer'
_symmetry_space_group_name_H-M	'P1'
_symmetry_Int_Tables_number	1
_symmetry_cell_setting	triclinic
loop_
_symmetry_equiv_pos_as_xyz
  x,y,z
_cell_length_a	16.625547
_cell_length_b	21.295417
_cell_length_c	21.295411
_cell_angle_alpha	89.971282
_cell_angle_beta	89.979339
_cell_angle_gamma	90.030443
loop_
_atom_site_label
_atom_site_type_symbol
_atom_site_fract_x
_atom_site_fract_y
_atom_site_fract_z
Zn1	Zn	1.232602	-0.250638	-0.355982
Zn2	Zn	1.482602	-0.000638	-0.105982
Zn3	Zn	1.732602	0.249362	0.144018
Zn4	Zn	1.982602	0.499362	0.394018
Zn5	Zn	1.232496	-0.355903	-0.250708
Zn6	Zn	1.482496	-0.105903	-0.000708
Zn7	Zn	1.732496	0.144097	0.249292
Zn8	Zn	1.982496	0.394097	0.499292
Zn9	Zn	1.097774	-0.250651	-0.250719
Zn10	Zn	1.347774	-0.000651	-0.000719
Zn11	Zn	1.597774	0.249349	0.249281
Zn12	Zn	1.847774	0.499349	0.499281
Zn13	Zn	1.097716	-0.355873	-0.355932
Zn14	Zn	1.347716	-0.105873	-0.105932
Zn15	Zn	1.597716	0.144127	0.144068
Zn16	Zn	1.847716	0.394127	0.394068
O17	O	1.165147	-0.303266	-0.303335
O18	O	1.415147	-0.053266	-0.053335
O19	O	1.665147	0.196734	0.196665
O20	O	1.915147	0.446734	0.446665
O21	O	1.345421	-0.264608	-0.342034
O22	O	1.595421	-0.014608	-0.092034
O23	O	1.845421	0.235392	0.157966
O24	O	2.095421	0.485392	0.407966
O25	O	1.214605	-0.341959	-0.162620
O26	O	1.464605	-0.091959	0.087380
O27	O	1.714605	0.158041	0.337380
O28	O	1.964605	0.408041	0.587380
O29	O	1.115728	-0.162560	-0.264709
O30	O	1.365728	0.087440	-0.014709
O31	O	1.615728	0.337440	0.235291
O32	O	1.865728	0.587440	0.485291
O33	O	1.345343	-0.341946	-0.264689
O34	O	1.595343	-0.091946	-0.014689
O35	O	1.845343	0.158054	0.235311
O36	O	2.095343	0.408054	0.485311
O37	O	1.214786	-0.162550	-0.342045
O38	O	1.464786	0.087450	-0.092045
O39	O	1.714786	0.337450	0.157955
O40	O	1.964786	0.587450	0.407955
O41	O	1.115625	-0.264631	-0.162628
O42	O	1.365625	-0.014631	0.087372
O43	O	1.615625	0.235369	0.337372
O44	O	1.865625	0.485369	0.587372
O45	O	0.984934	-0.264602	-0.264660
O46	O	1.234934	-0.014602	-0.014660
O47	O	1.484934	0.235398	0.235340
O48	O	1.734934	0.485398	0.485340
O49	O	1.115629	-0.341896	-0.444028
O50	O	1.365629	-0.091896	-0.194028
O51	O	1.615629	0.158104	0.055972
O52	O	1.865629	0.408104	0.305972
O53	O	0.984891	-0.341908	-0.341959
O54	O	1.234891	-0.091908	-0.091959
O55	O	1.484891	0.158092	0.158041
O56	O	1.734891	0.408092	0.408041
O57	O	1.214729	-0.264580	-0.444065
O58	O	1.464729	-0.014580	-0.194065
O59	O	1.714729	0.235420	0.055935
O60	O	1.964729	0.485420	0.305935
O61	O	1.214549	-0.443988	-0.264640
O62	O	1.464549	-0.193988	-0.014640
O63	O	1.714549	0.056012	0.235360
O64	O	1.964549	0.306012	0.485360
O65	O	1.115526	-0.443967	-0.341947
O66	O	1.365526	-0.193967	-0.091947
O67	O	1.615526	0.056033	0.158053
O68	O	1.865526	0.306033	0.408053
C69	C	0.955656	-0.303254	-0.303305
C70	C	1.205656	-0.053254	-0.053305
C71	C	1.455656	0.196746	0.196695
C72	C	1.705656	0.446746	0.446695
C73	C	0.866035	-0.303264	-0.303308
C74	C	1.116035	-0.053264	-0.053308
C75	C	1.366035	0.196736	0.196692
C76	C	1.616035	0.446736	0.446692
C77	C	0.793253	-0.303265	-0.303315
C78	C	1.043253	-0.053265	-0.053315
C79	C	1.293253	0.196735	0.196685
C80	C	1.543253	0.446735	0.446685
C81	C	0.701944	-0.303269	-0.303331
C82	C	0.951944	-0.053269	-0.053331
C83	C	1.201944	0.196731	0.196669
C84	C	1.451944	0.446731	0.446669
C85	C	0.629168	-0.303274	-0.303347
C86	C	0.879168	-0.053274	-0.053347
C87	C	1.129168	0.196726	0.196653
C88	C	1.379168	0.446726	0.446653
C89	C	0.537854	-0.303279	-0.303362
C90	C	0.787854	-0.053279	-0.053362
C91	C	1.037854	0.196721	0.196638
C92	C	1.287854	0.446721	0.446638
C93	C	1.165041	-0.466818	-0.303300
C94	C	1.415041	-0.216818	-0.053300
C95	C	1.665041	0.033182	0.196700
C96	C	1.915041	0.283182	0.446700
C97	C	1.165070	-0.536786	-0.303306
C98	C	1.415070	-0.286786	-0.053306
C99	C	1.665070	-0.036786	0.196694
C100	C	1.915070	0.213214	0.446694
C101	C	1.216677	-0.569643	-0.263094
C102	C	1.466677	-0.319643	-0.013094
C103	C	1.716677	-0.069643	0.236906
C104	C	1.966677	0.180357	0.486906
C105	C	1.216715	-0.635386	-0.263108
C106	C	1.466715	-0.385386	-0.013108
C107	C	1.716715	-0.135386	0.236892
C108	C	1.966715	0.114614	0.486892
C109	C	1.165131	-0.668269	-0.303328
C110	C	1.415131	-0.418269	-0.053328
C111	C	1.665131	-0.168269	0.196672
C112	C	1.915131	0.081731	0.446672
C113	C	1.113520	-0.635404	-0.343549
C114	C	1.363520	-0.385404	-0.093549
C115	C	1.613520	-0.135404	0.156451
C116	C	1.863520	0.114596	0.406451
C117	C	1.113490	-0.569662	-0.343538
C118	C	1.363490	-0.319662	-0.093538
C119	C	1.613490	-0.069662	0.156462
C120	C	1.863490	0.180338	0.406462
N121	N	1.094596	-0.771535	-0.308117
N122	N	1.344596	-0.521535	-0.058117
N123	N	1.594596	-0.271535	0.191883
N124	N	1.844596	-0.021535	0.441883
N125	N	1.094627	-0.833986	-0.308124
N126	N	1.344627	-0.583986	-0.058124
N127	N	1.594627	-0.333986	0.191876
N128	N	1.844627	-0.083986	0.441876
C129	C	1.165221	-0.866343	-0.303364
C130	C	1.415221	-0.616343	-0.053364
C131	C	1.665221	-0.366343	0.196636
C132	C	1.915221	-0.116343	0.446636
N133	N	1.235785	-0.833890	-0.298586
N134	N	1.485785	-0.583890	-0.048586
N135	N	1.735785	-0.333890	0.201414
N136	N	1.985785	-0.083890	0.451414
N137	N	1.235753	-0.771433	-0.298576
N138	N	1.485753	-0.521433	-0.048576
N139	N	1.735753	-0.271433	0.201424
N140	N	1.985753	-0.021433	0.451424
C141	C	1.165159	-0.739554	-0.303345
C142	C	1.415159	-0.489554	-0.053345
C143	C	1.665159	-0.239554	0.196655
C144	C	1.915159	0.010446	0.446655
C145	C	1.216874	-0.970486	-0.263165
C146	C	1.466874	-0.720486	-0.013165
C147	C	1.716874	-0.470486	0.236835
C148	C	1.966874	-0.220486	0.486835
C149	C	1.216913	-1.036230	-0.263183
C150	C	1.466913	-0.786230	-0.013183
C151	C	1.716913	-0.536230	0.236817
C152	C	1.966913	-0.286230	0.486817
C153	C	1.113711	-1.036246	-0.343621
C154	C	1.363711	-0.786246	-0.093621
C155	C	1.613711	-0.536246	0.156379
C156	C	1.863711	-0.286246	0.406379
C157	C	1.113680	-0.970504	-0.343606
C158	C	1.363680	-0.720504	-0.093606
C159	C	1.613680	-0.470504	0.156394
C160	C	1.863680	-0.220504	0.406394
C161	C	1.165260	-0.937628	-0.303374
C162	C	1.415260	-0.687628	-0.053374
C163	C	1.665260	-0.437628	0.196626
C164	C	1.915260	-0.187628	0.446626
C165	C	1.375456	-0.303279	-0.303365
C166	C	1.625456	-0.053279	-0.053365
C167	C	1.875456	0.196721	0.196635
C168	C	2.125456	0.446721	0.446635
C169	C	1.465077	-0.303285	-0.303378
C170	C	1.715077	-0.053285	-0.053378
C171	C	1.965077	0.196715	0.196622
C172	C	2.215077	0.446715	0.446622
C173	C	1.165184	-0.303233	-0.467526
C174	C	1.415184	-0.053233	-0.217526
C175	C	1.665184	0.196767	0.032474
C176	C	1.915184	0.446767	0.282474
C177	C	1.165200	-0.303219	-0.537494
C178	C	1.415200	-0.053219	-0.287494
C179	C	1.665200	0.196781	-0.037494
C180	C	1.915200	0.446781	0.212506
C181	C	1.165275	-0.139076	-0.303384
C182	C	1.415275	0.110924	-0.053384
C183	C	1.665275	0.360924	0.196616
C184	C	1.915275	0.610924	0.446616
C185	C	1.165330	-0.069108	-0.303405
C186	C	1.415330	0.180892	-0.053405
C187	C	1.665330	0.430892	0.196595
C188	C	1.915330	0.680892	0.446595
C189	C	1.216829	-0.343353	-1.036948
C190	C	1.466829	-0.093353	-0.786948
C191	C	1.716829	0.156647	-0.536948
C192	C	1.966829	0.406647	-0.286948
C193	C	1.216814	-0.343373	-0.971205
C194	C	1.466814	-0.093373	-0.721205
C195	C	1.716814	0.156627	-0.471205
C196	C	1.966814	0.406627	-0.221205
C197	C	1.165276	-0.303120	-0.938333
C198	C	1.415276	-0.053120	-0.688333
C199	C	1.665276	0.196880	-0.438333
C200	C	1.915276	0.446880	-0.188333
C201	C	1.113734	-0.262856	-0.971209
C202	C	1.363734	-0.012856	-0.721209
C203	C	1.613734	0.237144	-0.471209
C204	C	1.863734	0.487144	-0.221209
C205	C	1.113745	-0.262842	-1.036951
C206	C	1.363745	-0.012842	-0.786951
C207	C	1.613745	0.237158	-0.536951
C208	C	1.863745	0.487158	-0.286951
N209	N	1.159117	-0.248041	-0.835128
N210	N	1.409117	0.001959	-0.585128
N211	N	1.659117	0.251959	-0.335128
N212	N	1.909117	0.501959	-0.085128
N213	N	1.159112	-0.248057	-0.772676
N214	N	1.409112	0.001943	-0.522676
N215	N	1.659112	0.251943	-0.272676
N216	N	1.909112	0.501943	-0.022676
C217	C	1.165241	-0.303163	-0.740259
C218	C	1.415241	-0.053163	-0.490259
C219	C	1.665241	0.196837	-0.240259
C220	C	1.915241	0.446837	0.009741
N221	N	1.171390	-0.358254	-0.772652
N222	N	1.421390	-0.108254	-0.522652
N223	N	1.671390	0.141746	-0.272652
N224	N	1.921390	0.391746	-0.022652
N225	N	1.171400	-0.358238	-0.835109
N226	N	1.421400	-0.108238	-0.585109
N227	N	1.671400	0.141762	-0.335109
N228	N	1.921400	0.391762	-0.085109
C229	C	1.165259	-0.303132	-0.867048
C230	C	1.415259	-0.053132	-0.617048
C231	C	1.665259	0.196868	-0.367048
C232	C	1.915259	0.446868	-0.117048
C233	C	1.216760	-0.343449	-0.636105
C234	C	1.466760	-0.093449	-0.386105
C235	C	1.716760	0.156551	-0.136105
C236	C	1.966760	0.406551	0.113895
C237	C	1.216740	-0.343470	-0.570361
C238	C	1.466740	-0.093470	-0.320361
C239	C	1.716740	0.156530	-0.070361
C240	C	1.966740	0.406530	0.179639
C241	C	1.113664	-0.262949	-0.570366
C242	C	1.363664	-0.012949	-0.320366
C243	C	1.613664	0.237051	-0.070366
C244	C	1.863664	0.487051	0.179634
C245	C	1.113680	-0.262933	-0.636109
C246	C	1.363680	-0.012933	-0.386109
C247	C	1.613680	0.237067	-0.136109
C248	C	1.863680	0.487067	0.113891
C249	C	1.165232	-0.303182	-0.668974
C250	C	1.415232	-0.053182	-0.418974
C251	C	1.665232	0.196818	-0.168974
C252	C	1.915232	0.446818	0.081026
C253	C	1.165156	-0.303254	-0.139784
C254	C	1.415156	-0.053254	0.110216
C255	C	1.665156	0.196746	0.360216
C256	C	1.915156	0.446746	0.610216
C257	C	1.165297	-0.303091	-0.069816
C258	C	1.415297	-0.053091	0.180184
C259	C	1.665297	0.196909	0.430184
C260	C	1.915297	0.446909	0.680184
H261	H	1.258678	-0.542877	-0.230336
H262	H	1.508678	-0.292877	0.019664
H263	H	1.758678	-0.042877	0.269664
H264	H	2.008678	0.207123	0.519664
H265	H	1.071771	-0.230083	-0.944441
H266	H	1.321771	0.019917	-0.694441
H267	H	1.571771	0.269917	-0.444441
H268	H	1.821771	0.519917	-0.194441
H269	H	1.071698	-0.230176	-0.543603
H270	H	1.321698	0.019824	-0.293603
H271	H	1.571698	0.269824	-0.043603
H272	H	1.821698	0.519824	0.206397
H273	H	1.071715	-1.063019	-0.376372
H274	H	1.321715	-0.813019	-0.126372
H275	H	1.571715	-0.563019	0.123628
H276	H	1.821715	-0.313019	0.373628
F277	F	1.271768	-0.935494	-0.220347
F278	F	1.521768	-0.685494	0.029653
F279	F	1.771768	-0.435494	0.279653
F280	F	2.021768	-0.185494	0.529653
F281	F	1.271643	-0.670362	-0.220306
F282	F	1.521643	-0.420362	0.029694
F283	F	1.771643	-0.170362	0.279694
F284	F	2.021643	0.079638	0.529694
H285	H	1.071653	-0.943750	-0.376348
H286	H	1.321653	-0.693750	-0.126348
H287	H	1.571653	-0.443750	0.123652
H288	H	1.821653	-0.193750	0.373652
F289	F	1.271625	-0.386286	-0.671085
F290	F	1.521625	-0.136286	-0.421085
F291	F	1.771625	0.113714	-0.171085
F292	F	2.021625	0.363714	0.078915
H293	H	1.071522	-0.662181	-0.376298
H294	H	1.321522	-0.412181	-0.126298
H295	H	1.571522	-0.162181	0.123702
H296	H	1.821522	0.087819	0.373702
F297	F	1.271663	-0.386227	-0.936218
F298	F	1.521663	-0.136227	-0.686218
F299	F	1.771663	0.113773	-0.436218
F300	F	2.021663	0.363773	-0.186218
F301	F	1.058823	-0.220087	-0.671091
F302	F	1.308823	0.029913	-0.421091
F303	F	1.558823	0.279913	-0.171091
F304	F	1.808823	0.529913	0.078909
H305	H	1.258805	-0.376129	-1.063703
H306	H	1.508805	-0.126129	-0.813703
H307	H	1.758805	0.123871	-0.563703
H308	H	2.008805	0.373871	-0.313703
H309	H	1.071465	-0.542909	-0.376285
H310	H	1.321465	-0.292909	-0.126285
H311	H	1.571465	-0.042909	0.123715
H312	H	1.821465	0.207091	0.373715
F313	F	1.271849	-1.071198	-0.220385
F314	F	1.521849	-0.821198	0.029615
F315	F	1.771849	-0.571198	0.279615
F316	F	2.021849	-0.321198	0.529615
F317	F	1.271587	-0.386327	-0.535381
F318	F	1.521587	-0.136327	-0.285381
F319	F	1.771587	0.113673	-0.035381
F320	F	2.021587	0.363673	0.214619
F321	F	1.058890	-0.219992	-1.071932
F322	F	1.308890	0.030008	-0.821932
F323	F	1.558890	0.280008	-0.571932
F324	F	1.808890	0.530008	-0.321932
