data_functionalizedCrystal
_audit_creation_method	'MofGen! by Chris Wilmer'
_symmetry_space_group_name_H-M	'P1'
_symmetry_Int_Tables_number	1
_symmetry_cell_setting	triclinic
loop_
_symmetry_equiv_pos_as_xyz
  x,y,z
_cell_length_a	17.699104
_cell_length_b	17.019294
_cell_length_c	16.776229
_cell_angle_alpha	86.114377
_cell_angle_beta	89.991971
_cell_angle_gamma	83.342939
loop_
_atom_site_label
_atom_site_type_symbol
_atom_site_fract_x
_atom_site_fract_y
_atom_site_fract_z
O1	O	1.004137	0.099835	-0.073156
O2	O	1.337471	0.433168	0.260177
O3	O	1.670804	0.766502	0.593511
O4	O	0.783770	0.112797	-0.074044
O5	O	1.117103	0.446130	0.259290
O6	O	1.450437	0.779463	0.592623
O7	O	0.900101	-0.008528	-0.065713
O8	O	1.233434	0.324805	0.267620
O9	O	1.566767	0.658138	0.600954
O10	O	0.887806	0.221160	-0.081487
O11	O	1.221140	0.554494	0.251847
O12	O	1.554473	0.887827	0.585180
O13	O	0.900085	-0.008536	0.066864
O14	O	1.233419	0.324797	0.400197
O15	O	1.566752	0.658131	0.733531
O16	O	0.783755	0.112789	0.058533
O17	O	1.117088	0.446122	0.391867
O18	O	1.450421	0.779456	0.725200
O19	O	1.004122	0.099828	0.059421
O20	O	1.337455	0.433161	0.392754
O21	O	1.670788	0.766494	0.726088
Zn22	Zn	0.893936	0.106307	0.080027
Zn23	Zn	1.227269	0.439641	0.413360
Zn24	Zn	1.560602	0.772974	0.746693
Zn25	Zn	0.893956	0.106317	-0.094649
Zn26	Zn	1.227289	0.439650	0.238684
Zn27	Zn	1.560623	0.772984	0.572017
O28	O	0.887791	0.221153	0.051090
O29	O	1.221124	0.554486	0.384424
O30	O	1.554458	0.887819	0.717757
C31	C	0.755565	0.112326	-0.007723
C32	C	1.088899	0.445659	0.325611
C33	C	1.422232	0.778992	0.658944
C34	C	0.671547	0.110924	-0.007626
C35	C	1.004880	0.444257	0.325708
C36	C	1.338214	0.777591	0.659041
C37	C	0.146720	0.174234	-0.011982
C38	C	0.480053	0.507568	0.321352
C39	C	0.813386	0.840901	0.654685
C40	C	0.225664	0.175547	-0.012074
C41	C	0.558998	0.508880	0.321259
C42	C	0.892331	0.842213	0.654592
C43	C	0.274233	0.104324	-0.007183
C44	C	0.607566	0.437658	0.326150
C45	C	0.940899	0.770991	0.659484
C46	C	0.243853	0.031785	-0.002207
C47	C	0.577186	0.365118	0.331126
C48	C	0.910520	0.698451	0.664460
C49	C	0.164910	0.030473	-0.002120
C50	C	0.498243	0.363807	0.331213
C51	C	0.831576	0.697140	0.664546
C52	C	0.562223	0.037072	-0.002557
C53	C	0.895556	0.370405	0.330776
C54	C	1.228889	0.703739	0.664109
C55	C	0.641171	0.038389	-0.002642
C56	C	0.974504	0.371723	0.330691
C57	C	1.307837	0.705056	0.664025
C58	C	0.622977	0.182145	-0.012511
C59	C	0.956311	0.515479	0.320822
C60	C	1.289644	0.848812	0.654155
C61	C	0.544034	0.180834	-0.012425
C62	C	0.877367	0.514167	0.320909
C63	C	1.210701	0.847501	0.654242
C64	C	0.513661	0.108295	-0.007453
C65	C	0.846994	0.441628	0.325880
C66	C	1.180328	0.774962	0.659214
C67	C	0.428060	0.106873	-0.007354
C68	C	0.761394	0.440206	0.325979
C69	C	1.094727	0.773540	0.659312
C70	C	0.359832	0.105745	-0.007276
C71	C	0.693166	0.439079	0.326058
C72	C	1.026499	0.772412	0.659391
C73	C	0.899627	-0.037921	0.002592
C74	C	1.232960	0.295413	0.335926
C75	C	1.566293	0.628746	0.669259
C76	C	0.898228	-0.125489	0.008601
C77	C	1.231561	0.207845	0.341934
C78	C	1.564894	0.541178	0.675268
C79	C	0.897581	-0.166620	-0.060843
C80	C	1.230914	0.166714	0.272490
C81	C	1.564247	0.500047	0.605823
C82	C	0.896262	-0.248899	-0.055195
C83	C	1.229595	0.084435	0.278138
C84	C	1.562928	0.417768	0.611471
C85	C	0.895595	-0.290045	0.019898
C86	C	1.228928	0.043288	0.353232
C87	C	1.562261	0.376621	0.686565
C88	C	0.896240	-0.248908	0.089348
C89	C	1.229573	0.084425	0.422681
C90	C	1.562906	0.417758	0.756014
C91	C	0.897553	-0.166630	0.083699
C92	C	1.230887	0.166703	0.417032
C93	C	1.564220	0.500036	0.750365
C94	C	0.891623	-0.538472	0.040570
C95	C	1.224956	-0.205138	0.373903
C96	C	1.558289	0.128195	0.707237
C97	C	0.890311	-0.620756	0.046214
C98	C	1.223644	-0.287423	0.379547
C99	C	1.556978	0.045911	0.712881
C100	C	0.890332	-0.620740	-0.098330
C101	C	1.223665	-0.287407	0.235004
C102	C	1.556998	0.045926	0.568337
C103	C	0.891650	-0.538461	-0.103972
C104	C	1.224983	-0.205128	0.229361
C105	C	1.558317	0.128205	0.562695
C106	C	0.892291	-0.497331	-0.034523
C107	C	1.225624	-0.163997	0.298811
C108	C	1.558957	0.169336	0.632144
C109	C	0.894249	-0.374148	0.025673
C110	C	1.227582	-0.040815	0.359007
C111	C	1.560915	0.292519	0.692340
C112	C	0.893631	-0.413229	-0.040299
C113	C	1.226965	-0.079896	0.293035
C114	C	1.560298	0.253438	0.626368
C115	C	1.032327	0.100299	-0.006902
C116	C	1.365660	0.433632	0.326432
C117	C	1.698993	0.766965	0.659765
C118	C	1.116345	0.101700	-0.007004
C119	C	1.449678	0.435034	0.326330
C120	C	1.783011	0.768367	0.659663
C121	C	0.888265	0.250545	-0.017216
C122	C	1.221598	0.583878	0.316117
C123	C	1.554932	0.917212	0.649450
C124	C	0.889664	0.338113	-0.023230
C125	C	1.222997	0.671446	0.310103
C126	C	1.556331	1.004780	0.643436
N127	N	0.893927	0.106300	0.199238
N128	N	1.227261	0.439633	0.532572
N129	N	1.560594	0.772967	0.865905
N130	N	0.893970	0.106318	-0.213860
N131	N	1.227304	0.439651	0.119473
N132	N	1.560637	0.772985	0.452806
C133	C	0.945454	0.052599	0.244643
C134	C	1.278788	0.385933	0.577976
C135	C	1.612121	0.719266	0.911310
C136	C	0.945459	0.052599	0.328095
C137	C	1.278792	0.385932	0.661428
C138	C	1.612125	0.719265	0.994762
C139	C	0.893939	0.106303	0.366141
C140	C	1.227272	0.439636	0.699474
C141	C	1.560605	0.772970	1.032808
C142	C	0.842406	0.160006	0.320731
C143	C	1.175740	0.493340	0.654064
C144	C	1.509073	0.826673	0.987397
C145	C	0.842399	0.160003	0.237280
C146	C	1.175733	0.493336	0.570614
C147	C	1.509066	0.826669	0.903947
C148	C	0.842434	0.160022	0.657277
C149	C	1.175767	0.493355	0.990610
C150	C	1.509100	0.826689	1.323944
C151	C	0.842446	0.160023	0.740733
C152	C	1.175780	0.493356	1.074067
C153	C	1.509113	0.826690	1.407400
C154	C	0.945493	0.052618	0.748092
C155	C	1.278826	0.385951	1.081425
C156	C	1.612160	0.719285	1.414758
C157	C	0.945486	0.052614	0.664641
C158	C	1.278819	0.385948	0.997975
C159	C	1.612153	0.719281	1.331308
C160	C	0.893951	0.106314	0.619238
C161	C	1.227285	0.439648	0.952572
C162	C	1.560618	0.772981	1.285905
C163	C	0.893946	0.106313	0.528750
C164	C	1.227280	0.439647	0.862083
C165	C	1.560613	0.772980	1.195417
C166	C	0.893947	0.106308	0.456628
C167	C	1.227280	0.439642	0.789961
C168	C	1.560613	0.772975	1.123294
H169	H	0.283404	-0.026206	0.001771
H170	H	0.616737	0.307128	0.335104
H171	H	0.950071	0.640461	0.668438
H172	H	0.987440	0.008886	0.633667
H173	H	1.320774	0.342219	0.967000
H174	H	1.654107	0.675552	1.300334
H175	H	0.987453	0.008890	0.785068
H176	H	1.320787	0.342223	1.118401
H177	H	1.654120	0.675556	1.451735
H178	H	0.800454	0.203731	0.351713
H179	H	1.133788	0.537064	0.685046
H180	H	1.467121	0.870398	1.018379
H181	H	0.800490	0.203757	0.771708
H182	H	1.133823	0.537091	1.105042
H183	H	1.467157	0.870424	1.438375
H184	H	0.898070	-0.133141	0.140248
H185	H	1.231403	0.200193	0.473581
H186	H	1.564736	0.533526	0.806914
H187	H	0.892159	-0.504995	0.097121
H188	H	1.225493	-0.171662	0.430454
H189	H	1.558826	0.161671	0.763788
H190	H	0.800474	0.203748	0.620316
H191	H	1.133807	0.537081	0.953649
H192	H	1.467140	0.870414	1.286983
N193	N	0.491669	0.257665	-0.017665
N194	N	0.825002	0.590998	0.315668
N195	N	1.158336	0.924332	0.649002
H196	H	0.501434	0.289337	-0.068976
H197	H	0.834767	0.622671	0.264357
H198	H	1.168101	0.956004	0.597691
H199	H	0.437065	0.245783	-0.016810
H200	H	0.770399	0.579116	0.316524
H201	H	1.103732	0.912449	0.649857
N202	N	0.892449	-0.494097	-0.184966
N203	N	1.225782	-0.160763	0.148367
N204	N	1.559116	0.172570	0.481701
H205	H	0.893411	-0.435737	-0.178006
H206	H	1.226744	-0.102404	0.155327
H207	H	1.560077	0.230930	0.488660
H208	H	0.939148	-0.514998	-0.215025
H209	H	1.272482	-0.181665	0.118309
H210	H	1.605815	0.151669	0.451642
N211	N	0.895529	-0.293286	0.170342
N212	N	1.228863	0.040048	0.503676
N213	N	1.562196	0.373381	0.837009
H214	H	0.848094	-0.320951	0.175469
H215	H	1.181427	0.012383	0.508802
H216	H	1.514761	0.345716	0.842135
H217	H	0.941916	-0.333857	0.176293
H218	H	1.275249	-0.000523	0.509627
H219	H	1.608582	0.332810	0.842960
N220	N	0.094338	0.251054	-0.017232
N221	N	0.427671	0.584387	0.316101
N222	N	0.761004	0.917720	0.649434
H223	H	0.125562	0.297202	-0.020395
H224	H	0.458896	0.630535	0.312938
H225	H	0.792229	0.963869	0.646272
H226	H	0.061186	0.253657	-0.066553
H227	H	0.394519	0.586991	0.266780
H228	H	0.727852	0.920324	0.600113
N229	N	0.258427	0.253779	-0.017457
N230	N	0.591760	0.587112	0.315877
N231	N	0.925093	0.920446	0.649210
H232	H	0.215680	0.298699	-0.020541
H233	H	0.549013	0.632032	0.312792
H234	H	0.882347	0.965365	0.646126
H235	H	0.290782	0.257457	0.031435
H236	H	0.624116	0.590791	0.364768
H237	H	0.957449	0.924124	0.698101
H238	H	0.800440	0.203730	0.200313
H239	H	1.133773	0.537064	0.533646
H240	H	1.467106	0.870397	0.866979
H241	H	0.647716	0.241210	-0.016563
H242	H	0.981049	0.574544	0.316770
H243	H	1.314382	0.907877	0.650104
N244	N	0.889640	-0.665101	-0.173232
N245	N	1.222973	-0.331768	0.160101
N246	N	1.556306	0.001565	0.493435
H247	H	0.888706	-0.723468	-0.158262
H248	H	1.222039	-0.390135	0.175071
H249	H	1.555372	-0.056801	0.508404
H250	H	0.842976	-0.644236	-0.206222
H251	H	1.176310	-0.310902	0.127111
H252	H	1.509643	0.022431	0.460444
H253	H	0.893708	-0.407659	0.086815
H254	H	1.227042	-0.074326	0.420148
H255	H	1.560375	0.259007	0.753481
H256	H	0.680715	-0.019612	0.001339
H257	H	1.014048	0.313721	0.334673
H258	H	1.347381	0.647054	0.668006
H259	H	0.537503	-0.021993	0.001493
H260	H	0.870837	0.311340	0.334827
H261	H	1.204170	0.644673	0.668160
H262	H	0.140181	-0.028591	0.001932
H263	H	0.473514	0.304742	0.335265
H264	H	0.806847	0.638075	0.668598
N265	N	1.001060	-0.005294	0.377066
N266	N	1.334393	0.328039	0.710399
N267	N	1.667726	0.661373	1.043733
H268	H	1.033708	-0.039303	0.340300
H269	H	1.367041	0.294030	0.673634
H270	H	1.700375	0.627364	1.006967
H271	H	1.034471	0.024900	0.409589
H272	H	1.367804	0.358233	0.742923
H273	H	1.701138	0.691567	1.076256
H274	H	0.898128	-0.133124	-0.121993
H275	H	1.231461	0.200209	0.211341
H276	H	1.564794	0.533542	0.544674
N277	N	0.895650	-0.293236	-0.130120
N278	N	1.228983	0.040098	0.203214
N279	N	1.562317	0.373431	0.536547
H280	H	0.849019	-0.272445	-0.163196
H281	H	1.182352	0.060888	0.170137
H282	H	1.515685	0.394222	0.503471
H283	H	0.942840	-0.285327	-0.162117
H284	H	1.276174	0.048006	0.171216
H285	H	1.609507	0.381339	0.504549
N286	N	0.889594	-0.665139	0.127211
N287	N	1.222928	-0.331806	0.460544
N288	N	1.556261	0.001527	0.793878
H289	H	0.890199	-0.626599	0.170351
H290	H	1.223532	-0.293266	0.503684
H291	H	1.556865	0.040068	0.837017
H292	H	0.842155	-0.692801	0.132253
H293	H	1.175488	-0.359468	0.465587
H294	H	1.508822	-0.026134	0.798920
N295	N	0.894339	-0.368822	-0.121274
N296	N	1.227672	-0.035488	0.212059
N297	N	1.561006	0.297845	0.545392
H298	H	0.941007	-0.389593	-0.151459
H299	H	1.274340	-0.056260	0.181874
H300	H	1.607674	0.277073	0.515207
H301	H	0.847186	-0.376657	-0.152271
H302	H	1.180519	-0.043324	0.181063
H303	H	1.513852	0.290009	0.514396
H304	H	0.987411	0.008870	0.213671
H305	H	1.320744	0.342204	0.547005
H306	H	1.654077	0.675537	0.880338
