data_functionalizedCrystal
_audit_creation_method	'MofGen! by Chris Wilmer'
_symmetry_space_group_name_H-M	'P1'
_symmetry_Int_Tables_number	1
_symmetry_cell_setting	triclinic
loop_
_symmetry_equiv_pos_as_xyz
  x,y,z
_cell_length_a	19.288840
_cell_length_b	17.038272
_cell_length_c	17.766277
_cell_angle_alpha	89.993732
_cell_angle_beta	89.983415
_cell_angle_gamma	87.118786
loop_
_atom_site_label
_atom_site_type_symbol
_atom_site_fract_x
_atom_site_fract_y
_atom_site_fract_z
O1	O	0.927392	0.097420	-0.062722
O2	O	1.427392	0.597420	0.437278
O3	O	0.725944	0.110595	-0.062696
O4	O	1.225944	0.610595	0.437304
O5	O	0.825470	-0.009804	-0.062703
O6	O	1.325470	0.490196	0.437297
O7	O	0.827865	0.217819	-0.062715
O8	O	1.327865	0.717819	0.437285
O9	O	0.825451	-0.009810	0.062486
O10	O	1.325451	0.490190	0.562486
O11	O	0.725925	0.110589	0.062493
O12	O	1.225925	0.610589	0.562493
O13	O	0.927373	0.097414	0.062467
O14	O	1.427373	0.597414	0.562467
Cu15	Cu	0.826647	0.104001	0.073911
Cu16	Cu	1.326647	0.604001	0.573911
Cu17	Cu	0.826669	0.104008	-0.074139
Cu18	Cu	1.326669	0.604008	0.425861
O19	O	0.827846	0.217813	0.062474
O20	O	1.327846	0.717813	0.562474
C21	C	0.700031	0.110171	-0.000098
C22	C	1.200031	0.610171	0.499902
C23	C	0.622849	0.108909	-0.000088
C24	C	1.122849	0.608909	0.499912
C25	C	0.586618	0.108305	-0.068330
C26	C	1.086618	0.608305	0.431670
C27	C	0.514097	0.107110	-0.068339
C28	C	1.014097	0.607110	0.431661
C29	C	0.477811	0.106502	-0.000102
C30	C	0.977811	0.606502	0.499898
C31	C	0.514050	0.107110	0.068149
C32	C	1.014050	0.607110	0.568149
C33	C	0.586569	0.108313	0.068156
C34	C	1.086569	0.608313	0.568156
C35	C	0.365524	0.058808	0.052169
C36	C	0.865524	0.558808	0.552169
C37	C	0.293007	0.057601	0.052159
C38	C	0.793007	0.557601	0.552159
C39	C	0.254138	0.102795	-0.000122
C40	C	0.754138	0.602795	0.499878
C41	C	0.287795	0.149188	-0.052405
C42	C	0.787795	0.649188	0.447595
C43	C	0.360314	0.150391	-0.052398
C44	C	0.860314	0.650391	0.447602
C45	C	0.399176	0.105198	-0.000103
C46	C	0.899176	0.605198	0.499897
C47	C	0.139272	0.100897	-0.068379
C48	C	0.639272	0.600897	0.431621
C49	C	0.066749	0.099707	-0.068385
C50	C	0.566749	0.599707	0.431615
C51	C	0.066704	0.099699	0.068105
C52	C	0.566704	0.599699	0.568105
C53	C	0.139224	0.100897	0.068109
C54	C	0.639224	0.600897	0.568109
C55	C	0.175504	0.101493	-0.000135
C56	C	0.675504	0.601493	0.499865
C57	C	0.823283	-0.038928	-0.000108
C58	C	1.323283	0.461072	0.499892
C59	C	0.816785	-0.125699	-0.000107
C60	C	1.316785	0.374301	0.499893
C61	C	0.876442	-0.176012	-0.000114
C62	C	1.376442	0.323988	0.499886
C63	C	0.870332	-0.257542	-0.000121
C64	C	1.370332	0.242458	0.499879
C65	C	0.804566	-0.288758	-0.000115
C66	C	1.304566	0.211242	0.499885
C67	C	0.744905	-0.238439	-0.000110
C68	C	1.244905	0.261561	0.499890
C69	C	0.751015	-0.156910	-0.000109
C70	C	1.251015	0.343090	0.499891
C71	C	0.782980	-0.534444	-0.000122
C72	C	1.282980	-0.034444	0.499878
C73	C	0.776875	-0.615979	-0.000121
C74	C	1.276875	-0.115979	0.499879
C75	C	0.902303	-0.635077	-0.000133
C76	C	1.402303	-0.135077	0.499867
C77	C	0.908407	-0.553546	-0.000127
C78	C	1.408407	-0.053546	0.499873
C79	C	0.848746	-0.503234	-0.000127
C80	C	1.348746	-0.003234	0.499873
C81	C	0.798320	-0.372095	-0.000119
C82	C	1.298320	0.127905	0.499881
C83	C	0.854993	-0.419899	-0.000128
C84	C	1.354993	0.080101	0.499872
C85	C	0.953285	0.097838	-0.000132
C86	C	1.453285	0.597838	0.499868
C87	C	1.030468	0.099101	-0.000147
C88	C	1.530468	0.599101	0.499853
C89	C	0.830033	0.246937	-0.000122
C90	C	1.330033	0.746937	0.499878
C91	C	0.836531	0.333708	-0.000128
C92	C	1.336531	0.833708	0.499872
N93	N	0.826636	0.103995	0.178041
N94	N	1.326636	0.603995	0.678041
N95	N	0.826685	0.104007	-0.178270
N96	N	1.326685	0.604007	0.321730
C97	C	0.870723	0.050709	0.217425
C98	C	1.370723	0.550709	0.717425
C99	C	0.870727	0.050705	0.296227
C100	C	1.370727	0.550705	0.796227
C101	C	0.826651	0.104002	0.335641
C102	C	1.326651	0.604002	0.835641
C103	C	0.782555	0.157292	0.296248
C104	C	1.282555	0.657292	0.796248
C105	C	0.782548	0.157289	0.217448
C106	C	1.282548	0.657289	0.717448
C107	C	0.821759	0.175226	0.460476
C108	C	1.321759	0.675226	0.960476
C109	C	0.821771	0.175230	0.539275
C110	C	1.321771	0.675230	1.039275
C111	C	0.826670	0.104011	0.578688
C112	C	1.326670	0.604011	1.078688
C113	C	0.831571	0.032785	0.539292
C114	C	1.331571	0.532785	1.039292
C115	C	0.831564	0.032782	0.460492
C116	C	1.331564	0.532782	0.960492
C117	C	0.826654	0.104011	0.421087
C118	C	1.326654	0.604011	0.921087
C119	C	0.870764	0.050716	0.703518
C120	C	1.370764	0.550716	1.203518
C121	C	0.870763	0.050711	0.782321
C122	C	1.370763	0.550711	1.282321
C123	C	0.782595	0.157305	0.782341
C124	C	1.282595	0.657305	1.282341
C125	C	0.782592	0.157303	0.703539
C126	C	1.282592	0.657303	1.203539
C127	C	0.826680	0.104009	0.664132
C128	C	1.326680	0.604009	1.164132
H129	H	0.037251	0.099220	-0.123958
H130	H	0.537251	0.599220	0.376042
H131	H	0.817785	0.233226	0.571345
H132	H	1.317785	0.733226	1.071345
H133	H	0.256149	0.185993	-0.094974
H134	H	0.756149	0.685993	0.405026
H135	H	0.168812	0.101390	-0.123947
H136	H	0.668812	0.601390	0.376053
H137	H	0.961961	-0.528136	-0.000132
H138	H	1.461961	-0.028136	0.499868
H139	H	0.397166	0.022003	0.094745
H140	H	0.897166	0.522003	0.594745
H141	H	0.037160	0.099209	0.123665
H142	H	0.537160	0.599209	0.623665
H143	H	0.929996	-0.150603	-0.000115
H144	H	1.429996	0.349397	0.499885
H145	H	0.484592	0.106620	-0.123912
H146	H	0.984592	0.606620	0.376088
H147	H	0.906621	0.007312	0.185342
H148	H	1.406621	0.507312	0.685342
H149	H	0.908540	-0.394479	-0.000150
H150	H	1.408540	0.105521	0.499850
H151	H	0.817758	0.233224	0.428393
H152	H	1.317758	0.733224	0.928393
H153	H	0.746695	0.200697	0.671471
H154	H	1.246695	0.700697	1.171471
H155	H	0.168724	0.101383	0.123680
H156	H	0.668724	0.601383	0.623680
H157	H	0.906662	0.007315	0.814388
H158	H	1.406662	0.507315	1.314388
H159	H	0.906661	0.007319	0.671431
H160	H	1.406661	0.507319	1.171431
H161	H	0.734400	-0.493489	-0.000122
H162	H	1.234400	0.006511	0.499878
H163	H	0.616153	0.108790	-0.123900
H164	H	1.116153	0.608790	0.376100
H165	H	0.950875	-0.676049	-0.000135
H166	H	1.450875	-0.176049	0.499865
H167	H	0.746667	0.200686	0.328344
H168	H	1.246667	0.700686	0.828344
H169	H	0.746646	0.200682	0.185381
H170	H	1.246646	0.700682	0.685381
H171	H	0.723317	-0.641391	-0.000104
H172	H	1.223317	-0.141391	0.499896
H173	H	0.835560	-0.025208	0.571380
H174	H	1.335560	0.474792	1.071380
H175	H	0.265609	0.019821	0.094727
H176	H	0.765609	0.519821	0.594727
H177	H	0.387715	0.188167	-0.094967
H178	H	0.887715	0.688167	0.405033
H179	H	0.484501	0.106617	0.123708
H180	H	0.984501	0.606617	0.623708
H181	H	0.616067	0.108805	0.123729
H182	H	1.116067	0.608805	0.623729
H183	H	0.691357	-0.263861	-0.000110
H184	H	1.191357	0.236139	0.499890
H185	H	0.746704	0.200697	0.814432
H186	H	1.246704	0.700697	1.314432
H187	H	0.918911	-0.298504	-0.000125
H188	H	1.418911	0.201496	0.499875
H189	H	0.744772	-0.397520	-0.000112
H190	H	1.244772	0.102480	0.499888
H191	H	0.906629	0.007311	0.328299
H192	H	1.406629	0.507311	0.828299
H193	H	0.702436	-0.115946	-0.000104
H194	H	1.202436	0.384054	0.499896
H195	H	0.835552	-0.025213	0.428419
H196	H	1.335552	0.474787	0.928419
