data_functionalizedCrystal
_audit_creation_method	'MofGen! by Chris Wilmer'
_symmetry_space_group_name_H-M	'P1'
_symmetry_Int_Tables_number	1
_symmetry_cell_setting	triclinic
loop_
_symmetry_equiv_pos_as_xyz
  x,y,z
_cell_length_a	15.297475
_cell_length_b	21.295417
_cell_length_c	15.298159
_cell_angle_alpha	80.344254
_cell_angle_beta	88.366721
_cell_angle_gamma	80.332118
loop_
_atom_site_label
_atom_site_type_symbol
_atom_site_fract_x
_atom_site_fract_y
_atom_site_fract_z
Zn1	Zn	1.253142	-0.490038	0.726482
Zn2	Zn	1.278423	-0.580649	0.579988
Zn3	Zn	1.132067	-0.454643	0.554736
Zn4	Zn	1.106622	-0.574485	0.701113
O5	O	1.192563	-0.524953	0.640580
O6	O	1.379065	-0.519450	0.728235
O7	O	1.280238	-0.551700	0.454071
O8	O	1.148196	-0.371263	0.577568
O9	O	1.397640	-0.586022	0.620606
O10	O	1.237149	-0.397268	0.703749
O11	O	1.172710	-0.459124	0.435519
O12	O	1.006122	-0.453147	0.552968
O13	O	1.104829	-0.575516	0.827045
O14	O	0.987427	-0.541195	0.660510
O15	O	1.212477	-0.513474	0.845684
O16	O	1.255565	-0.667906	0.596006
O17	O	1.129343	-0.663378	0.684996
C18	C	0.964993	-0.492662	0.601247
C19	C	0.867634	-0.478864	0.584441
C20	C	1.192457	-0.688484	0.640512
C21	C	1.192487	-0.758457	0.640525
C22	C	0.554421	-0.623570	0.760698
C23	C	0.645895	-0.636538	0.776486
C24	C	0.701334	-0.597120	0.728476
C25	C	0.665290	-0.544733	0.664675
C26	C	0.573808	-0.531767	0.648881
C27	C	0.720721	-0.505318	0.616659
C28	C	0.684678	-0.452931	0.552859
C29	C	0.593204	-0.439967	0.537068
C30	C	0.537765	-0.479384	0.585078
C31	C	0.812204	-0.518284	0.632454
C32	C	0.831591	-0.426481	0.520637
C33	C	0.740117	-0.413513	0.504849
C34	C	1.258250	-0.793674	0.594255
C35	C	1.258288	-0.859424	0.594281
C36	C	1.192548	-0.889952	0.640567
C37	C	1.126779	-0.854728	0.686848
C38	C	1.126748	-0.788981	0.686827
N39	N	1.114767	-0.983017	0.634001
N40	N	1.114800	-1.045474	0.634016
C41	C	1.192637	-1.088046	0.640634
N42	N	1.270446	-1.065799	0.647220
N43	N	1.270413	-1.003336	0.647200
C44	C	1.192574	-0.961244	0.640595
C45	C	1.258447	-1.194557	0.594390
C46	C	1.258485	-1.260309	0.594423
C47	C	1.126969	-1.255610	0.686984
C48	C	1.126938	-1.189861	0.686957
C49	C	1.192676	-1.159337	0.640655
C50	C	1.421022	-0.557372	0.680067
C51	C	1.518378	-0.571187	0.696894
C52	C	1.152994	-0.547756	0.869034
C53	C	1.136132	-0.557473	0.966387
C54	C	1.192691	-0.360790	0.640672
C55	C	1.192745	-0.290833	0.640711
C56	C	1.312794	-0.455660	1.279629
C57	C	1.328642	-0.446532	1.188161
C58	C	1.280516	-0.474266	1.132713
C59	C	1.216539	-0.511130	1.168742
C60	C	1.200694	-0.520263	1.260219
C61	C	1.168416	-0.538869	1.113304
C62	C	1.104439	-0.575733	1.149332
C63	C	1.088597	-0.584864	1.240800
C64	C	1.136723	-0.557130	1.296248
C65	C	1.184261	-0.529736	1.021826
C66	C	1.072161	-0.594339	1.002416
C67	C	1.056313	-0.603467	1.093884
C68	C	1.231969	-0.502251	1.413013
C69	C	1.248823	-0.492527	1.315658
H70	H	0.841541	-0.560937	0.684401
O71	O	1.296085	-0.465421	1.043893
C72	C	1.402801	-0.480435	0.927157
C73	C	1.385285	-0.490486	1.027770
H74	H	1.474913	-0.500707	0.914089
H75	H	1.389044	-0.426637	0.899179
H76	H	1.357386	-0.506564	0.893713
H77	H	1.430688	-0.464396	1.061289
H78	H	1.399013	-0.544295	1.055682
O79	O	0.558060	-0.389066	0.475176
C80	C	0.456824	-0.288283	0.445740
C81	C	0.496544	-0.345887	0.515930
H82	H	0.407095	-0.253351	0.478667
H83	H	0.421868	-0.306472	0.392495
H84	H	0.512163	-0.262361	0.414098
H85	H	0.441259	-0.371834	0.547640
H86	H	0.531523	-0.327658	0.569119
O87	O	1.359436	-0.428748	1.333611
C88	C	1.384750	-0.414233	1.483145
C89	C	1.331843	-0.444734	1.422108
H90	H	1.362474	-0.427158	1.554710
H91	H	1.372518	-0.359496	1.462607
H92	H	1.458482	-0.433503	1.477305
H93	H	1.258095	-0.425516	1.427918
H94	H	1.344150	-0.499469	1.442664
O95	O	1.025355	-0.621352	0.948694
C96	C	0.912464	-0.686365	0.939082
C97	C	0.965414	-0.655823	1.000031
H98	H	0.863977	-0.714230	0.980561
H99	H	0.960025	-0.720743	0.903205
H100	H	0.874148	-0.646687	0.888341
H101	H	1.003735	-0.695456	1.050822
H102	H	0.917808	-0.621429	1.035844
O103	O	0.790192	-0.609828	0.743810
C104	C	0.925365	-0.686471	0.743756
C105	C	0.824733	-0.672170	0.726371
H106	H	0.953325	-0.736869	0.729646
H107	H	0.938512	-0.683833	0.815922
H108	H	0.958768	-0.649273	0.698507
H109	H	0.791263	-0.709354	0.771564
H110	H	0.811651	-0.674785	0.654184
O111	O	0.680756	-0.687430	0.838517
C112	C	0.651874	-0.777141	0.947716
C113	C	0.612275	-0.719515	0.877502
H114	H	0.596528	-0.803106	0.979242
H115	H	0.686749	-0.758980	1.001043
H116	H	0.701679	-0.812029	0.914794
H117	H	0.562434	-0.684605	0.910345
H118	H	0.577455	-0.737723	0.824182
O119	O	1.121192	-0.566039	1.385079
C120	C	1.036990	-0.614624	1.505703
C121	C	1.054471	-0.604573	1.405085
H122	H	0.983059	-0.645790	1.521912
H123	H	1.014491	-0.565800	1.527463
H124	H	1.100534	-0.639761	1.542236
H125	H	0.990960	-0.579459	1.368482
H126	H	1.077009	-0.653416	1.383393
O127	O	0.500439	-0.661775	0.807275
C128	C	0.350923	-0.682508	0.832447
C129	C	0.411954	-0.639175	0.779647
H130	H	0.279373	-0.664261	0.810117
H131	H	0.356616	-0.681132	0.906219
H132	H	0.371616	-0.734246	0.820050
H133	H	0.391302	-0.587418	0.791970
H134	H	0.406254	-0.640607	0.705893
O135	O	0.704960	-0.362673	0.442874
C136	C	0.572615	-0.301997	0.369032
C137	C	0.612316	-0.359602	0.439229
H138	H	0.497705	-0.299487	0.366075
H139	H	0.602753	-0.308455	0.301448
H140	H	0.587998	-0.255369	0.387652
H141	H	0.596947	-0.406256	0.420693
H142	H	0.582177	-0.353087	0.506795
O143	O	1.322276	-0.893600	0.549389
C144	C	1.478638	-0.930601	0.532757
C145	C	1.406271	-0.891865	0.583657
H146	H	1.546563	-0.929223	0.560455
H147	H	1.475604	-0.908481	0.459464
H148	H	1.467307	-0.982821	0.540708
H149	H	1.417554	-0.839639	0.575779
H150	H	1.409323	-0.914037	0.656930
O151	O	0.885556	-0.388234	0.474102
C152	C	1.035084	-0.367549	0.448841
C153	C	0.974062	-0.410899	0.501616
H154	H	1.106655	-0.385865	0.471053
H155	H	1.014509	-0.315806	0.461264
H156	H	1.029263	-0.368907	0.375079
H157	H	0.979852	-0.409596	0.575394
H158	H	0.994654	-0.462622	0.489118
H159	H	0.463278	-0.468828	0.572228
O160	O	1.062876	-0.884287	0.731887
C161	C	0.932402	-0.872681	0.823653
C162	C	1.004730	-0.839130	0.772694
H163	H	0.885362	-0.836184	0.856643
H164	H	0.964604	-0.913679	0.876487
H165	H	0.893660	-0.893016	0.775495
H166	H	1.043497	-0.818756	0.820783
H167	H	0.972475	-0.798165	0.719848
O168	O	1.063026	-1.155558	0.731767
C169	C	0.942669	-1.065813	0.722975
C170	C	1.015025	-1.104594	0.672118
H171	H	0.903828	-1.024609	0.674768
H172	H	0.974847	-1.045212	0.775718
H173	H	0.895724	-1.098942	0.756090
H174	H	1.061993	-1.071506	0.638949
H175	H	0.982787	-1.125203	0.619425
H176	H	1.311780	-0.768824	0.556555
H177	H	1.073194	-0.760307	0.724508
O178	O	1.246299	-0.493825	0.986859
C179	C	1.293773	-0.390015	0.966350
C180	C	1.223438	-0.430612	1.005974
H181	H	1.275326	-0.338903	0.981805
H182	H	1.296836	-0.388191	0.891437
H183	H	1.361271	-0.412918	0.996527
H184	H	1.155904	-0.407741	0.975865
H185	H	1.220454	-0.432437	1.080887
H186	H	1.073445	-1.280467	0.724676
O187	O	1.322392	-1.165009	0.549406
C188	C	1.452804	-1.176596	0.457552
C189	C	1.380453	-1.210141	0.508479
H190	H	1.499754	-1.213068	0.424435
H191	H	1.491650	-1.156298	0.505665
H192	H	1.420526	-1.135571	0.404801
H193	H	1.412658	-1.251191	0.561231
H194	H	1.341614	-1.230394	0.460311
O195	O	1.390786	-0.410681	1.153306
C196	C	1.500338	-0.347601	1.182223
C197	C	1.429969	-0.388177	1.221811
H198	H	1.532050	-0.329406	1.237593
H199	H	1.467608	-0.304675	1.132497
H200	H	1.553498	-0.378725	1.147267
H201	H	1.376788	-0.357107	1.256812
H202	H	1.462762	-0.431107	1.271491
H203	H	1.312043	-1.288983	0.556747
O204	O	1.026396	-0.620671	1.275651
C205	C	0.916918	-0.683816	1.246749
C206	C	0.987319	-0.643267	1.207164
H207	H	0.885317	-0.702108	1.191399
H208	H	0.863671	-0.652715	1.281642
H209	H	0.949698	-0.726686	1.296531
H210	H	0.954618	-0.600395	1.157347
H211	H	1.040559	-0.674414	1.172327
H212	H	1.004222	-0.633482	1.123231
