data_functionalizedCrystal
_audit_creation_method	'MofGen! by Chris Wilmer'
_symmetry_space_group_name_H-M	'P1'
_symmetry_Int_Tables_number	1
_symmetry_cell_setting	triclinic
loop_
_symmetry_equiv_pos_as_xyz
  x,y,z
_cell_length_a	19.188930
_cell_length_b	15.995350
_cell_length_c	17.666332
_cell_angle_alpha	90.005528
_cell_angle_beta	90.013066
_cell_angle_gamma	83.318578
loop_
_atom_site_label
_atom_site_type_symbol
_atom_site_fract_x
_atom_site_fract_y
_atom_site_fract_z
O1	O	-0.926405	-0.104538	-0.063188
O2	O	-0.723130	-0.118610	-0.063136
O3	O	-0.830324	0.010334	-0.063163
O4	O	-0.819211	-0.233482	-0.063161
O5	O	-0.830327	0.010347	0.062734
O6	O	-0.723132	-0.118597	0.062761
O7	O	-0.926408	-0.104525	0.062709
Cu8	Cu	-0.824770	-0.111560	0.074230
Cu9	Cu	-0.824767	-0.111575	-0.074657
O10	O	-0.819213	-0.233469	0.062736
C11	C	-0.697119	-0.118148	-0.000181
C12	C	-0.619611	-0.116780	-0.000161
N13	N	-0.824766	-0.111580	-0.179377
C14	C	-0.952419	-0.104987	-0.000248
C15	C	-1.029927	-0.106355	-0.000273
C16	C	-0.574880	-0.192440	-0.000172
C17	C	-0.502052	-0.191155	-0.000181
C18	C	-0.473960	-0.114205	-0.000193
C19	C	-0.518701	-0.038535	-0.000177
C20	C	-0.591526	-0.039823	-0.000161
N21	N	-0.365829	-0.055391	-0.043072
N22	N	-0.296647	-0.054174	-0.043088
C23	C	-0.254541	-0.110322	-0.000239
N24	N	-0.284229	-0.167747	0.042618
N25	N	-0.353417	-0.168967	0.042632
C26	C	-0.394994	-0.112801	-0.000209
C27	C	-0.130842	-0.184594	-0.000258
C28	C	-0.058014	-0.183306	-0.000262
C29	C	-0.074664	-0.030684	-0.000266
C30	C	-0.147491	-0.031974	-0.000255
C31	C	-0.175575	-0.108932	-0.000255
C32	C	-0.829866	0.041533	-0.000216
C33	C	-0.828488	0.134479	-0.000219
C34	C	-0.819671	-0.264669	-0.000213
C35	C	-0.821049	-0.357614	-0.000214
C36	C	-0.823542	0.472208	-0.000216
C37	C	-0.747200	0.424494	-0.000478
C38	C	-0.748578	0.327809	-0.000195
C39	C	-0.825995	0.304657	-0.000218
C40	C	-0.863651	0.345879	0.071664
C41	C	-0.861734	0.442508	0.071725
C42	C	-0.863308	0.442857	-0.071444
C43	C	-0.863290	0.345912	-0.072394
C44	C	-0.827386	0.209964	-0.000217
C45	C	-0.822153	0.566901	-0.000212
C46	C	-0.872316	-0.054595	-0.218998
C47	C	-0.872323	-0.054593	-0.298246
C48	C	-0.824766	-0.111569	-0.337869
C49	C	-0.777212	-0.168565	-0.298238
C50	C	-0.777212	-0.168570	-0.218991
N51	N	-0.762986	-0.122274	-0.462278
N52	N	-0.762989	-0.122263	-0.537559
C53	C	-0.824765	-0.111557	-0.576633
N54	N	-0.886541	-0.100845	-0.537582
N55	N	-0.886538	-0.100851	-0.462295
C56	C	-0.824761	-0.111570	-0.423798
C57	C	-0.872326	-0.054567	-0.702184
C58	C	-0.872333	-0.054571	-0.781433
C59	C	-0.777217	-0.168539	-0.781423
C60	C	-0.777215	-0.168539	-0.702175
C61	C	-0.824769	-0.111548	-0.662561
N62	N	-0.824777	-0.111549	0.178950
H63	H	-0.465625	-0.252768	-0.000188
N64	N	-0.725914	-0.230027	-0.176254
H65	H	-0.733128	-0.221381	-0.120040
H66	H	-0.733880	-0.289435	-0.190111
H67	H	-0.911039	-0.008192	-0.186746
H68	H	-0.837499	0.317408	0.125172
N69	N	-0.725917	-0.229985	-0.824150
H70	H	-0.695790	-0.266084	-0.787021
H71	H	-0.752577	-0.266992	-0.857043
H72	H	-0.911045	-0.008187	-0.330512
H73	H	-0.597741	-0.255105	-0.000173
N74	N	-0.195742	0.049631	-0.000242
H75	H	-0.166897	0.098575	-0.000250
H76	H	-0.226340	0.052419	-0.046906
H77	H	-0.718978	0.299274	-0.051722
N78	N	-0.725913	-0.230010	-0.340971
H79	H	-0.695788	-0.266111	-0.303842
H80	H	-0.752573	-0.267013	-0.373866
N81	N	-0.725917	-0.229989	-0.659435
H82	H	-0.733852	-0.289425	-0.673235
H83	H	-0.676419	-0.220294	-0.673234
N84	N	-0.488407	0.044462	-0.000181
H85	H	-0.435484	0.033797	-0.000194
H86	H	-0.504789	0.077560	-0.046847
H87	H	-0.911058	-0.008170	-0.813694
H88	H	-0.911050	-0.008164	-0.669928
N89	N	-0.009744	-0.264899	-0.000265
H90	H	0.020851	-0.267743	0.046404
H91	H	-0.038619	-0.313814	-0.000289
N92	N	-0.639778	0.041785	-0.000145
H93	H	-0.610934	0.090730	-0.000150
H94	H	-0.670374	0.044573	-0.046811
N95	N	-0.706772	0.448884	-0.068754
H96	H	-0.737548	0.491102	-0.100178
H97	H	-0.663850	0.474666	-0.051522
H98	H	-0.153709	-0.247257	-0.000247
H99	H	-0.051792	0.031970	-0.000323
H100	H	-0.716823	0.443983	0.050797
N101	N	-0.709114	0.290752	0.068196
H102	H	-0.690758	0.337235	0.098279
H103	H	-0.741701	0.261026	0.100887
H104	H	-0.834277	0.460714	0.125474
N105	N	-0.935969	0.485513	0.076036
H106	H	-0.963480	0.468814	0.030841
H107	H	-0.958807	0.467962	0.124077
N108	N	-0.939000	0.327479	0.075175
H109	H	-0.949474	0.292154	0.030098
H110	H	-0.946773	0.295863	0.123351
H111	H	-0.838347	0.463300	-0.125927
H112	H	-0.835758	0.318557	-0.125570
H113	H	-0.919746	0.330756	-0.076751
H114	H	-0.919594	0.474824	-0.071944
