data_functionalizedCrystal
_audit_creation_method	'MofGen! by Chris Wilmer'
_symmetry_space_group_name_H-M	'P1'
_symmetry_Int_Tables_number	1
_symmetry_cell_setting	triclinic
loop_
_symmetry_equiv_pos_as_xyz
  x,y,z
_cell_length_a	15.944551
_cell_length_b	17.699083
_cell_length_c	16.776229
_cell_angle_alpha	89.991718
_cell_angle_beta	89.996710
_cell_angle_gamma	96.609124
loop_
_atom_site_label
_atom_site_type_symbol
_atom_site_fract_x
_atom_site_fract_y
_atom_site_fract_z
O1	O	1.114314	-0.097617	0.066207
O2	O	0.869739	-0.109652	0.066227
O3	O	0.998937	0.006543	0.066209
O4	O	0.985117	-0.213812	0.066224
O5	O	0.998935	0.006553	-0.066367
O6	O	0.869737	-0.109642	-0.066350
O7	O	1.114312	-0.097607	-0.066370
Zn8	Zn	0.992024	-0.103623	-0.087409
Zn9	Zn	0.992027	-0.103636	0.087266
O10	O	0.985115	-0.213802	-0.066352
C11	C	0.838445	-0.109147	-0.000059
C12	C	0.745203	-0.107650	-0.000052
C13	C	0.998440	0.034746	-0.000079
C14	C	0.996955	0.118766	-0.000079
N15	N	0.992030	-0.103640	0.206477
C16	C	0.530505	-0.032046	-0.000072
C17	C	0.469412	-0.067159	0.065297
C18	C	0.574482	-0.104940	-0.000061
C19	C	0.469432	-0.067166	-0.065413
C20	C	0.409575	-0.102317	-0.000074
C21	C	0.514618	-0.140073	0.065362
C22	C	0.514644	-0.140069	-0.065406
C23	C	0.453569	-0.175235	-0.000021
C24	C	0.669481	-0.106449	-0.000053
C25	C	0.314577	-0.100814	-0.000076
C26	C	1.145606	-0.098112	-0.000082
C27	C	1.238849	-0.099610	-0.000084
C28	C	0.985611	-0.242005	-0.000062
C29	C	0.987097	-0.326026	-0.000057
C30	C	1.072791	0.167258	-0.000087
C31	C	1.071390	0.246203	-0.000080
C32	C	0.994152	0.276656	-0.000071
C33	C	0.918310	0.228158	-0.000061
C34	C	0.919712	0.149214	-0.000063
C35	C	0.912656	0.546531	-0.000054
C36	C	0.911260	0.625481	-0.000055
C37	C	1.064334	0.643520	-0.000071
C38	C	1.065735	0.564576	-0.000073
C39	C	0.989894	0.516085	-0.000059
C40	C	0.991414	0.430484	-0.000065
C41	C	0.992632	0.362256	-0.000070
N42	N	0.992028	-0.103613	-0.206620
C43	C	1.049344	-0.052291	0.248187
C44	C	1.049348	-0.052289	0.331639
C45	C	0.992032	-0.103633	0.373380
C46	C	0.934714	-0.154988	0.331665
C47	C	0.934716	-0.154993	0.248214
C48	C	0.934708	-0.154970	0.668212
C49	C	0.934709	-0.154960	0.751669
C50	C	1.049340	-0.052265	0.751637
C51	C	1.049341	-0.052270	0.668186
C52	C	0.992027	-0.103628	0.626478
C53	C	0.992026	-0.103630	0.535990
C54	C	0.992029	-0.103628	0.463867
H55	H	0.563965	0.028449	0.000004
C56	C	1.150696	0.531082	-0.000079
H57	H	1.195663	0.571269	-0.000074
H58	H	1.154427	0.500666	-0.046310
H59	H	1.154421	0.500656	0.046161
H60	H	0.449368	-0.036332	0.120559
H61	H	0.534710	-0.170871	-0.120670
H62	H	0.857958	0.109733	-0.000056
H63	H	0.888045	-0.196808	0.214255
H64	H	1.126087	0.683011	-0.000078
C65	C	0.442386	-0.025498	-0.140070
H66	H	0.469008	0.025363	-0.139987
H67	H	0.382842	-0.025248	-0.139795
H68	H	0.458640	-0.050894	-0.186488
H69	H	0.848360	0.650272	-0.000049
H70	H	0.850901	0.507059	-0.000043
C71	C	0.408593	-0.257038	0.000028
H72	H	0.374640	-0.264906	-0.046427
H73	H	0.373920	-0.264607	0.046043
H74	H	0.449478	-0.292070	0.000486
H75	H	0.855422	0.252959	-0.000049
H76	H	1.096011	-0.010449	0.785604
H77	H	1.135687	0.142470	-0.000099
C78	C	1.112390	0.004189	0.202275
H79	H	1.104179	-0.003161	0.146600
H80	H	1.168399	-0.004158	0.215951
H81	H	1.103475	0.054737	0.215942
C82	C	0.541524	-0.181712	0.140093
H83	H	0.601014	-0.182390	0.139652
H84	H	0.514480	-0.232421	0.140265
H85	H	0.525688	-0.156006	0.186466
C86	C	1.112389	0.004200	0.377516
H87	H	1.146516	0.034785	0.340704
H88	H	1.147234	-0.023105	0.410075
H89	H	1.082304	0.035784	0.410063
H90	H	1.133144	0.285683	-0.000087
C91	C	0.871661	-0.211454	0.622340
H92	H	0.879873	-0.204113	0.566661
H93	H	0.815653	-0.203103	0.636017
H94	H	0.880574	-0.262000	0.636031
C95	C	1.112391	0.004206	0.622275
H96	H	1.146532	0.034785	0.659068
H97	H	1.082320	0.035787	0.589712
H98	H	1.147234	-0.023117	0.589729
C99	C	0.871665	-0.211447	0.797583
H100	H	0.837537	-0.242041	0.760792
H101	H	0.836820	-0.184137	0.830133
H102	H	0.901753	-0.243024	0.830143
H103	H	0.888049	-0.196798	0.365656
