data_functionalizedCrystal
_audit_creation_method	'MofGen! by Chris Wilmer'
_symmetry_space_group_name_H-M	'P1'
_symmetry_Int_Tables_number	1
_symmetry_cell_setting	triclinic
loop_
_symmetry_equiv_pos_as_xyz
  x,y,z
_cell_length_a	19.851628
_cell_length_b	14.560432
_cell_length_c	19.851628
_cell_angle_alpha	60.005510
_cell_angle_beta	90.005779
_cell_angle_gamma	59.997687
loop_
_atom_site_label
_atom_site_type_symbol
_atom_site_fract_x
_atom_site_fract_y
_atom_site_fract_z
Zr1	Zr	0.648976	1.005160	-0.088300
O2	O	0.541410	1.196764	-0.195866
O3	O	0.681951	0.813558	-0.055328
O4	O	0.681952	1.005141	-0.195852
O5	O	0.541408	1.005195	0.055508
O6	O	0.792814	1.005123	-0.195838
O7	O	0.541409	1.005181	-0.055342
O8	O	0.792812	0.662416	0.055533
O9	O	0.541410	1.347902	-0.195863
O10	O	0.778749	0.892352	-0.041253
O11	O	0.696014	0.892376	0.041463
O12	O	0.696015	1.117941	-0.123985
O13	O	0.613279	1.117964	-0.041269
Zr14	Zr	0.825786	1.005154	0.088514
Zr15	Zr	0.825788	1.005132	-0.088279
Zr16	Zr	0.648975	1.005182	0.088493
Zr17	Zr	0.648976	1.246208	-0.088296
Zr18	Zr	0.825787	0.764106	0.088510
O19	O	0.792811	1.196756	0.055542
O20	O	0.792813	1.196724	-0.195835
O21	O	0.541408	1.196796	0.055512
O22	O	0.933353	0.813549	0.196080
O23	O	0.933355	0.813518	-0.055298
O24	O	0.681949	0.813590	0.196049
O25	O	0.933354	1.005119	-0.055294
O26	O	0.792811	1.005173	0.196066
O27	O	0.681949	1.005190	0.196052
O28	O	0.933353	1.005132	0.055556
O29	O	0.681951	1.347880	-0.195846
O30	O	0.792811	0.662434	0.196060
O31	O	0.933353	0.662411	0.196077
O32	O	0.933354	0.662394	0.055550
O33	O	0.541408	1.347920	-0.055336
O34	O	0.681950	1.347898	-0.055319
O35	O	0.778748	0.892373	0.124199
O36	O	0.861483	0.892350	0.041483
O37	O	0.778749	1.117938	-0.041249
O38	O	0.696013	1.117961	0.041467
C39	C	0.737382	0.703643	0.000102
C40	C	0.737382	0.601312	0.000100
C41	C	0.823751	0.601281	-0.086265
C42	C	0.866931	0.553194	-0.129448
C43	C	0.866929	0.457045	-0.129446
C44	C	0.823743	0.408977	-0.086255
C45	C	0.780563	0.457064	-0.043071
C46	C	0.780568	0.553219	-0.043080
C47	C	0.694200	0.457089	0.043297
C48	C	0.694197	0.553244	0.043292
C49	C	0.651015	0.409021	0.086489
C50	C	0.607829	0.457114	0.129669
C51	C	0.607832	0.553271	0.129665
C52	C	0.651016	0.601331	0.086475
C53	C	0.516217	1.005192	0.000080
C54	C	0.441155	1.005204	0.000071
C55	C	0.214700	1.128176	-0.045011
C56	C	0.192339	1.066685	-0.077699
C57	C	0.303749	1.005171	0.000095
C58	C	0.192369	1.066670	0.032767
C59	C	0.171017	1.005147	0.000117
C60	C	0.282377	0.943679	-0.032639
C61	C	0.282404	0.943682	0.077870
C62	C	0.260096	0.882101	0.045202
C63	C	0.380211	1.005188	0.000080
C64	C	0.094560	1.005121	0.000131
C65	C	0.958546	1.005121	0.000134
C66	C	1.033607	1.005109	0.000143
C67	C	0.737383	1.005129	-0.221034
C68	C	0.737384	1.005120	-0.296088
C69	C	0.737381	1.306671	0.000112
C70	C	0.737381	1.409002	0.000114
C71	C	0.782495	0.882148	-0.477240
C72	C	0.815198	0.943602	-0.454855
C73	C	0.737381	1.005171	-0.566271
C74	C	0.704718	0.943653	-0.454894
C75	C	0.737384	1.005139	-0.433518
C76	C	0.770129	1.066626	-0.544875
C77	C	0.659607	1.066659	-0.544912
C78	C	0.692291	1.128203	-0.522580
C79	C	0.737382	1.005185	-0.642744
C80	C	0.737385	1.005134	-0.357050
C81	C	0.737380	1.005185	0.221248
C82	C	0.737379	1.005194	0.296302
C83	C	0.958546	0.703608	0.000129
C84	C	1.033608	0.601265	0.000136
C85	C	0.737380	0.703671	0.221243
C86	C	0.737380	0.601349	0.296295
C87	C	0.958545	0.703635	0.221270
C88	C	1.033605	0.601302	0.296331
C89	C	0.516218	1.306678	-0.221056
C90	C	0.441157	1.409012	-0.296117
C91	C	0.516216	1.306706	0.000085
C92	C	0.441155	1.409049	0.000078
C93	C	0.737383	1.306643	-0.221029
C94	C	0.737383	1.408965	-0.296081
C95	C	1.025671	0.553205	-0.043055
C96	C	1.096192	0.457056	-0.043065
C97	C	1.174650	0.408962	0.000122
C98	C	1.182585	0.457031	0.043315
C99	C	1.112064	0.553185	0.043319
C100	C	0.780566	0.553296	0.374735
C101	C	0.780562	0.457168	0.445260
C102	C	0.737377	0.409087	0.437344
C103	C	0.694185	0.457149	0.358896
C104	C	0.694185	0.553283	0.288372
C105	C	1.112049	0.553232	0.288403
C106	C	1.182584	0.457092	0.358924
C107	C	1.174672	0.409017	0.437372
C108	C	1.096220	0.457096	0.445298
C109	C	1.025688	0.553241	0.374778
C110	C	0.362713	1.457093	-0.288189
C111	C	0.292179	1.553263	-0.358710
C112	C	0.300090	1.601343	-0.437158
C113	C	0.378542	1.553258	-0.445084
C114	C	0.449075	1.457097	-0.374564
C115	C	0.449092	1.457119	0.043262
C116	C	0.378570	1.553295	0.043252
C117	C	0.300113	1.601392	0.000063
C118	C	0.292178	1.553318	-0.043127
C119	C	0.362698	1.457151	-0.043121
C120	C	0.780577	1.457015	-0.288138
C121	C	0.780593	1.553144	-0.358650
C122	C	0.737411	1.601228	-0.437104
C123	C	0.694216	1.553168	-0.445045
C124	C	0.694204	1.457034	-0.374534
H125	H	0.902093	0.417888	-0.164606
C126	C	0.737389	0.303335	0.514925
H127	H	0.769304	0.281600	0.562773
H128	H	0.682371	0.334845	0.514934
H129	H	0.760523	0.228299	0.514939
H130	H	0.659057	1.592333	-0.508932
H131	H	1.246456	0.417956	0.352456
C132	C	0.535361	1.404167	-0.383290
H133	H	0.576241	1.340004	-0.330060
H134	H	0.541509	1.366673	-0.412597
H135	H	0.541567	1.473172	-0.412591
H136	H	1.232111	0.330730	0.494787
H137	H	1.118538	0.592303	0.078496
H138	H	0.961793	0.592362	-0.078234
H139	H	0.659020	0.592395	0.224506
C140	C	1.087524	0.404208	0.531590
H141	H	1.030704	0.446607	0.526220
H142	H	1.113251	0.313430	0.560893
H143	H	1.113243	0.419979	0.560891
C144	C	0.387239	1.606138	-0.531376
H145	H	0.444058	1.563740	-0.526006
H146	H	0.361510	1.590380	-0.560675
H147	H	0.361521	1.696920	-0.560681
H148	H	1.089715	0.417929	-0.078238
H149	H	1.118507	0.592361	0.224533
H150	H	0.593847	1.118618	-0.583716
C151	C	1.252218	0.303186	0.000121
H152	H	1.300085	0.281423	0.032023
H153	H	1.252210	0.228181	0.023235
H154	H	1.252215	0.334709	-0.054903
C155	C	0.823746	0.303209	-0.086248
H156	H	0.855646	0.281457	-0.118154
H157	H	0.846870	0.228197	-0.031228
H158	H	0.768719	0.334737	-0.109376
H159	H	0.242697	1.679697	0.000065
C160	C	1.268890	0.404109	0.090824
H161	H	1.309746	0.339950	0.084639
H162	H	1.275094	0.473111	0.069514
H163	H	1.275080	0.366583	0.147642
C164	C	0.667393	0.873403	-0.402500
H165	H	0.699512	0.786023	-0.385836
H166	H	0.667193	0.874579	-0.355084
H167	H	0.612449	0.916254	-0.434265
H168	H	0.815767	1.592264	-0.352169
C169	C	0.737422	1.706983	-0.514659
H170	H	0.769327	1.728716	-0.498686
H171	H	0.760544	1.675475	-0.546567
H172	H	0.682397	1.782019	-0.546564
H173	H	0.153567	1.118686	0.060391
H174	H	0.512969	1.417966	0.078438
C175	C	0.828061	0.606184	0.383459
H176	H	0.853767	0.563801	0.440280
H177	H	0.868935	0.590421	0.357755
H178	H	0.790770	0.696968	0.357738
H179	H	0.902094	0.592337	-0.164613
H180	H	0.356256	1.417951	-0.224319
H181	H	0.815737	0.418047	0.509129
H182	H	0.659025	0.417988	0.352463
H183	H	0.385047	1.592420	0.078425
C184	C	0.353962	1.404265	-0.090615
H185	H	0.407193	1.340106	-0.084435
H186	H	0.324651	1.366778	-0.069288
H187	H	0.324657	1.473295	-0.147433
H188	H	0.228288	1.592493	-0.078291
H189	H	0.961818	0.592366	0.381244
H190	H	0.153529	1.118666	-0.143464
C191	C	0.834088	0.741665	-0.452357
H192	H	0.889347	0.698147	-0.421014
H193	H	0.811426	0.697540	-0.420149
H194	H	0.833332	0.742645	-0.500568
C195	C	0.904046	0.873358	-0.402425
H196	H	0.908601	0.931856	-0.397544
H197	H	0.917077	0.801617	-0.349120
H198	H	0.941276	0.843279	-0.428277
H199	H	0.654150	1.232287	-0.541163
H200	H	0.659027	1.417923	-0.381012
C201	C	0.823749	0.707051	-0.086275
H202	H	0.855654	0.728787	-0.118179
H203	H	0.768725	0.782071	-0.109394
H204	H	0.846884	0.675534	-0.031254
C205	C	0.651010	0.303262	0.086490
H206	H	0.682904	0.281516	0.054579
H207	H	0.674135	0.228244	0.141508
H208	H	0.595979	0.334798	0.063365
C209	C	0.189787	1.268669	-0.096605
H210	H	0.210889	1.282944	-0.062572
H211	H	0.211757	1.282331	-0.140491
H212	H	0.131338	1.327409	-0.118573
H213	H	0.572670	0.592416	0.164831
C214	C	0.828085	1.404135	-0.201848
H215	H	0.853815	1.446521	-0.207229
H216	H	0.790812	1.419906	-0.172544
H217	H	0.868954	1.313351	-0.172543
H218	H	0.651020	0.679627	0.086464
C219	C	0.560357	0.404210	0.177200
H220	H	0.534648	0.446605	0.202927
H221	H	0.519486	0.419936	0.139948
H222	H	0.597663	0.313432	0.218070
C223	C	0.334639	0.873497	-0.070063
H224	H	0.308452	0.844163	-0.085647
H225	H	0.339894	0.931773	-0.117259
H226	H	0.387815	0.801239	-0.030360
C227	C	0.285220	0.741492	0.096729
H228	H	0.316627	0.698002	0.073402
H229	H	0.317430	0.697490	0.151734
H230	H	0.237092	0.742243	0.096822
C231	C	0.334839	0.873533	0.166687
H232	H	0.303414	0.917379	0.189821
H233	H	0.350701	0.786600	0.198972
H234	H	0.382746	0.873377	0.166059
C235	C	0.807561	1.136788	-0.597122
H236	H	0.807360	1.136329	-0.644809
H237	H	0.775767	1.223926	-0.613348
H238	H	0.862664	1.093367	-0.565441
H239	H	0.228307	1.592397	-0.352240
H240	H	0.242651	1.679644	-0.494573
