data_functionalizedCrystal
_audit_creation_method	'MofGen! by Chris Wilmer'
_symmetry_space_group_name_H-M	'P1'
_symmetry_Int_Tables_number	1
_symmetry_cell_setting	triclinic
loop_
_symmetry_equiv_pos_as_xyz
  x,y,z
_cell_length_a	16.109302
_cell_length_b	11.792241
_cell_length_c	14.586319
_cell_angle_alpha	89.996059
_cell_angle_beta	89.994552
_cell_angle_gamma	83.827598
loop_
_atom_site_label
_atom_site_type_symbol
_atom_site_fract_x
_atom_site_fract_y
_atom_site_fract_z
O1	O	1.103817	0.145889	-0.076282
O2	O	0.861841	0.164044	-0.076275
O3	O	0.988701	-0.010256	-0.076272
O4	O	0.976957	0.320188	-0.076285
O5	O	0.988692	-0.010258	0.076209
O6	O	0.861832	0.164041	0.076206
O7	O	1.103808	0.145887	0.076199
Cu8	Cu	0.982819	0.154964	0.090125
Cu9	Cu	0.982830	0.154967	-0.090201
O10	O	0.976948	0.320186	0.076196
C11	C	0.830858	0.163307	-0.000033
C12	C	0.738552	0.161102	-0.000030
C13	C	0.526182	0.156001	0.083078
C14	C	0.439453	0.153917	0.083075
C15	C	0.439473	0.153926	-0.083168
C16	C	0.526202	0.156002	-0.083164
C17	C	0.569554	0.157045	-0.000038
C18	C	0.396095	0.152885	-0.000046
C19	C	0.302059	0.150625	-0.000050
C20	C	0.663596	0.159303	-0.000034
C21	C	0.987959	-0.052541	-0.000032
C22	C	0.985751	-0.178536	-0.000033
C23	C	0.981690	-0.409212	-0.000048
C24	C	0.983946	-0.280847	-0.000040
C25	C	1.134791	0.146623	-0.000044
C26	C	1.227097	0.148829	-0.000053
C27	C	0.977690	0.362472	-0.000046
C28	C	0.979898	0.488466	-0.000051
N29	N	0.982818	0.154961	0.216957
N30	N	0.982837	0.154960	-0.217033
C31	C	1.039010	0.077807	0.451965
C32	C	1.039013	0.077804	0.547946
C33	C	0.926639	0.232118	0.547953
C34	C	0.926633	0.232114	0.451973
C35	C	0.982824	0.154960	0.403982
C36	C	0.982832	0.154961	0.595942
C37	C	0.982834	0.154959	0.700010
C38	C	0.982821	0.154961	0.299908
H39	H	0.404165	0.153077	-0.150846
C40	C	0.864858	0.317045	0.399189
N41	N	0.818343	0.381029	0.359432
H42	H	0.561516	0.156849	-0.150851
H43	H	0.561477	0.156851	0.150764
C44	C	1.100815	-0.007074	0.399177
N45	N	1.147365	-0.071012	0.359420
C46	C	1.100816	-0.007080	0.600723
N47	N	1.147366	-0.071022	0.640474
H48	H	0.880891	0.294937	0.587037
H49	H	0.404143	0.153067	0.150756
